TFW.pdb
     RDKit          3D

 33 35  0  0  1  0  0  0  0  0999 V2000
    8.7802  -20.1327   19.2093 C   0  0  0  0  0  0  0  0  0  0  0  0
    9.1392  -19.0707   20.2249 C   0  0  1  0  0  0  0  0  0  0  0  0
   10.5191  -19.1488   20.4983 O   0  0  0  0  0  0  0  0  0  0  0  0
    8.8092  -17.7315   19.6243 C   0  0  2  0  0  0  0  0  0  0  0  0
    9.5576  -17.5814   18.3938 N   0  0  0  0  0  0  0  0  0  0  0  0
    9.0705  -16.6119   20.5381 C   0  0  0  0  0  0  0  0  0  0  0  0
   10.0586  -15.8388   20.3936 O   0  0  0  0  0  0  0  0  0  0  0  0
    8.1788  -16.3951   21.6203 N   0  0  0  0  0  0  0  0  0  0  0  0
    8.3291  -15.2729   22.5186 C   0  0  1  0  0  0  0  0  0  0  0  0
    7.0390  -15.2003   23.3217 C   0  0  0  0  0  0  0  0  0  0  0  0
    7.1415  -14.2219   24.4162 C   0  0  0  0  0  0  0  0  0  0  0  0
    7.5999  -12.9353   24.1570 C   0  0  0  0  0  0  0  0  0  0  0  0
    7.7154  -11.9798   25.1403 C   0  0  0  0  0  0  0  0  0  0  0  0
    7.3717  -12.2767   26.4435 C   0  0  0  0  0  0  0  0  0  0  0  0
    6.9169  -13.5439   26.7169 C   0  0  0  0  0  0  0  0  0  0  0  0
    6.8049  -14.4983   25.7177 C   0  0  0  0  0  0  0  0  0  0  0  0
    9.5195  -15.4994   23.3617 C   0  0  0  0  0  0  0  0  0  0  0  0
   10.2116  -14.5180   23.7215 O   0  0  0  0  0  0  0  0  0  0  0  0
    9.9342  -16.8048   23.8025 N   0  0  0  0  0  0  0  0  0  0  0  0
   11.0491  -16.9282   24.7118 C   0  0  1  0  0  0  0  0  0  0  0  0
   10.6448  -17.7017   25.9638 C   0  0  0  0  0  0  0  0  0  0  0  0
    9.5802  -16.9799   26.6778 C   0  0  0  0  0  0  0  0  0  0  0  0
    8.2184  -17.2538   26.7275 C   0  0  0  0  0  0  0  0  0  0  0  0
    7.6549  -16.3288   27.4912 N   0  0  0  0  0  0  0  0  0  0  0  0
    8.5562  -15.4665   27.9456 C   0  0  0  0  0  0  0  0  0  0  0  0
    8.4797  -14.3419   28.7640 C   0  0  0  0  0  0  0  0  0  0  0  0
    9.6196  -13.6452   29.0568 C   0  0  0  0  0  0  0  0  0  0  0  0
   10.8472  -14.0142   28.5712 C   0  0  0  0  0  0  0  0  0  0  0  0
   10.9400  -15.1251   27.7596 C   0  0  0  0  0  0  0  0  0  0  0  0
    9.7873  -15.8445   27.4529 C   0  0  0  0  0  0  0  0  0  0  0  0
   12.1095  -17.7176   24.0492 C   0  0  0  0  0  0  0  0  0  0  0  0
   11.8949  -18.3616   22.8409 O   0  0  0  0  0  0  0  0  0  0  0  0
   13.2674  -17.8398   24.5622 O   0  0  0  0  0  0  0  0  0  0  0  0
  2  1  1  6
  2  3  1  0
  4  2  1  0
  4  5  1  6
  6  4  1  0
  6  7  2  0
  8  6  1  0
  9  8  1  0
  9 10  1  1
 10 11  1  0
 11 12  2  0
 12 13  1  0
 14 13  2  0
 15 14  1  0
 16 11  1  0
 16 15  2  0
 17  9  1  0
 18 17  2  0
 19 17  1  0
 20 21  1  1
 20 19  1  0
 21 22  1  0
 22 30  1  0
 23 22  2  0
 23 24  1  0
 24 25  1  0
 25 26  1  0
 26 27  2  0
 28 27  1  0
 29 28  2  0
 30 25  2  0
 30 29  1  0
 31 32  1  0
 31 20  1  0
 33 31  2  0
M  END
$$$$
