TFW.pdb
     RDKit          3D

 33 35  0  0  1  0  0  0  0  0999 V2000
    8.0651  -18.6141   19.2758 C   0  0  0  0  0  0  0  0  0  0  0  0
    9.3922  -18.2356   18.6564 C   0  0  1  0  0  0  0  0  0  0  0  0
    9.3924  -18.6275   17.3031 O   0  0  0  0  0  0  0  0  0  0  0  0
    9.5368  -16.7418   18.7589 C   0  0  2  0  0  0  0  0  0  0  0  0
   10.7078  -16.3396   18.0081 N   0  0  0  0  0  0  0  0  0  0  0  0
    9.6130  -16.2657   20.1462 C   0  0  0  0  0  0  0  0  0  0  0  0
   10.6842  -16.3013   20.8144 O   0  0  0  0  0  0  0  0  0  0  0  0
    8.4393  -15.7487   20.7532 N   0  0  0  0  0  0  0  0  0  0  0  0
    8.4096  -15.3580   22.1443 C   0  0  1  0  0  0  0  0  0  0  0  0
    7.2605  -14.3702   22.2801 C   0  0  0  0  0  0  0  0  0  0  0  0
    7.0672  -13.9596   23.6800 C   0  0  0  0  0  0  0  0  0  0  0  0
    7.4834  -12.7010   24.0985 C   0  0  0  0  0  0  0  0  0  0  0  0
    7.3274  -12.2638   25.3938 C   0  0  0  0  0  0  0  0  0  0  0  0
    6.7396  -13.0805   26.3383 C   0  0  0  0  0  0  0  0  0  0  0  0
    6.3226  -14.3279   25.9413 C   0  0  0  0  0  0  0  0  0  0  0  0
    6.4852  -14.7572   24.6333 C   0  0  0  0  0  0  0  0  0  0  0  0
    8.2288  -16.5678   22.9706 C   0  0  0  0  0  0  0  0  0  0  0  0
    7.5559  -17.5241   22.5186 O   0  0  0  0  0  0  0  0  0  0  0  0
    8.7933  -16.7133   24.2862 N   0  0  0  0  0  0  0  0  0  0  0  0
   10.1371  -17.2210   24.4319 C   0  0  1  0  0  0  0  0  0  0  0  0
   11.0015  -16.2472   25.2281 C   0  0  0  0  0  0  0  0  0  0  0  0
   10.6649  -16.3307   26.6577 C   0  0  0  0  0  0  0  0  0  0  0  0
   10.3467  -17.4500   27.4181 C   0  0  0  0  0  0  0  0  0  0  0  0
   10.1134  -17.0363   28.6554 N   0  0  0  0  0  0  0  0  0  0  0  0
   10.2573  -15.7205   28.7573 C   0  0  0  0  0  0  0  0  0  0  0  0
   10.1277  -14.8208   29.8128 C   0  0  0  0  0  0  0  0  0  0  0  0
   10.3483  -13.4893   29.5916 C   0  0  0  0  0  0  0  0  0  0  0  0
   10.6954  -13.0005   28.3589 C   0  0  0  0  0  0  0  0  0  0  0  0
   10.8277  -13.8780   27.3035 C   0  0  0  0  0  0  0  0  0  0  0  0
   10.6062  -15.2370   27.5139 C   0  0  0  0  0  0  0  0  0  0  0  0
   10.0823  -18.4757   25.2128 C   0  0  0  0  0  0  0  0  0  0  0  0
    8.8906  -18.9708   25.7184 O   0  0  0  0  0  0  0  0  0  0  0  0
   11.1301  -19.1557   25.4546 O   0  0  0  0  0  0  0  0  0  0  0  0
  2  1  1  6
  2  3  1  0
  4  2  1  0
  4  5  1  6
  6  4  1  0
  6  7  2  0
  8  6  1  0
  9  8  1  0
  9 10  1  6
 10 11  1  0
 11 12  2  0
 12 13  1  0
 14 13  2  0
 15 14  1  0
 16 11  1  0
 16 15  2  0
 17  9  1  0
 18 17  2  0
 19 17  1  0
 20 21  1  1
 20 19  1  0
 21 22  1  0
 22 30  1  0
 23 22  2  0
 23 24  1  0
 24 25  1  0
 25 26  1  0
 26 27  2  0
 28 27  1  0
 29 28  2  0
 30 25  2  0
 30 29  1  0
 31 32  1  0
 31 20  1  0
 33 31  2  0
M  END
$$$$
