TFW.pdb
     RDKit          3D

 33 35  0  0  1  0  0  0  0  0999 V2000
    8.5458  -19.7940   18.3502 C   0  0  0  0  0  0  0  0  0  0  0  0
    8.9382  -18.8646   19.4773 C   0  0  1  0  0  0  0  0  0  0  0  0
   10.3132  -19.0225   19.7411 O   0  0  0  0  0  0  0  0  0  0  0  0
    8.6594  -17.4561   19.0284 C   0  0  2  0  0  0  0  0  0  0  0  0
    9.3824  -17.2131   17.7976 N   0  0  0  0  0  0  0  0  0  0  0  0
    8.9990  -16.4515   20.0444 C   0  0  0  0  0  0  0  0  0  0  0  0
   10.1403  -15.9144   20.1079 O   0  0  0  0  0  0  0  0  0  0  0  0
    8.0068  -16.0742   20.9860 N   0  0  0  0  0  0  0  0  0  0  0  0
    8.3012  -15.1892   22.0900 C   0  0  1  0  0  0  0  0  0  0  0  0
    6.9565  -14.7789   22.6713 C   0  0  0  0  0  0  0  0  0  0  0  0
    7.1220  -13.9353   23.8657 C   0  0  0  0  0  0  0  0  0  0  0  0
    6.7024  -14.3990   25.1072 C   0  0  0  0  0  0  0  0  0  0  0  0
    6.8329  -13.6545   26.2569 C   0  0  0  0  0  0  0  0  0  0  0  0
    7.3972  -12.3959   26.2112 C   0  0  0  0  0  0  0  0  0  0  0  0
    7.8171  -11.9223   24.9919 C   0  0  0  0  0  0  0  0  0  0  0  0
    7.6803  -12.6818   23.8402 C   0  0  0  0  0  0  0  0  0  0  0  0
    9.1508  -15.9096   23.0588 C   0  0  0  0  0  0  0  0  0  0  0  0
    8.9400  -17.1267   23.2728 O   0  0  0  0  0  0  0  0  0  0  0  0
   10.2262  -15.2826   23.7804 N   0  0  0  0  0  0  0  0  0  0  0  0
   11.0902  -16.0874   24.6115 C   0  0  1  0  0  0  0  0  0  0  0  0
   10.2978  -17.1877   25.3121 C   0  0  0  0  0  0  0  0  0  0  0  0
    9.4096  -16.5985   26.3260 C   0  0  0  0  0  0  0  0  0  0  0  0
    8.0758  -16.8844   26.5935 C   0  0  0  0  0  0  0  0  0  0  0  0
    7.6940  -16.1001   27.5913 N   0  0  0  0  0  0  0  0  0  0  0  0
    8.6882  -15.3191   27.9961 C   0  0  0  0  0  0  0  0  0  0  0  0
    8.8000  -14.3443   28.9849 C   0  0  0  0  0  0  0  0  0  0  0  0
    9.9929  -13.6988   29.1603 C   0  0  0  0  0  0  0  0  0  0  0  0
   11.0943  -13.9765   28.3929 C   0  0  0  0  0  0  0  0  0  0  0  0
   11.0002  -14.9387   27.4097 C   0  0  0  0  0  0  0  0  0  0  0  0
    9.7915  -15.6044   27.2197 C   0  0  0  0  0  0  0  0  0  0  0  0
   12.0788  -16.7632   23.7439 C   0  0  0  0  0  0  0  0  0  0  0  0
   13.0243  -17.6378   24.2561 O   0  0  0  0  0  0  0  0  0  0  0  0
   12.1038  -16.5694   22.4867 O   0  0  0  0  0  0  0  0  0  0  0  0
  2  1  1  6
  2  3  1  0
  4  2  1  0
  4  5  1  6
  6  4  1  0
  6  7  2  0
  8  6  1  0
  9  8  1  0
  9 10  1  1
 10 11  1  0
 11 12  2  0
 12 13  1  0
 14 13  2  0
 15 14  1  0
 16 11  1  0
 16 15  2  0
 17  9  1  0
 18 17  2  0
 19 17  1  0
 20 21  1  6
 20 19  1  0
 21 22  1  0
 22 30  1  0
 23 22  2  0
 23 24  1  0
 24 25  1  0
 25 26  1  0
 26 27  2  0
 28 27  1  0
 29 28  2  0
 30 25  2  0
 30 29  1  0
 31 32  1  0
 31 20  1  0
 33 31  2  0
M  END
$$$$
