TFW.pdb
     RDKit          3D

 33 35  0  0  1  0  0  0  0  0999 V2000
    9.2177  -20.1123   19.5459 C   0  0  0  0  0  0  0  0  0  0  0  0
    9.4564  -18.9928   20.5348 C   0  0  1  0  0  0  0  0  0  0  0  0
   10.8319  -18.9338   20.8339 O   0  0  0  0  0  0  0  0  0  0  0  0
    9.0153  -17.7080   19.8884 C   0  0  2  0  0  0  0  0  0  0  0  0
    9.7753  -17.5205   18.6702 N   0  0  0  0  0  0  0  0  0  0  0  0
    9.1473  -16.5442   20.7744 C   0  0  0  0  0  0  0  0  0  0  0  0
   10.1154  -15.7376   20.6899 O   0  0  0  0  0  0  0  0  0  0  0  0
    8.1497  -16.3223   21.7587 N   0  0  0  0  0  0  0  0  0  0  0  0
    8.2162  -15.2047   22.6727 C   0  0  1  0  0  0  0  0  0  0  0  0
    6.8397  -15.1009   23.3122 C   0  0  0  0  0  0  0  0  0  0  0  0
    6.7989  -14.0399   24.3311 C   0  0  0  0  0  0  0  0  0  0  0  0
    7.1826  -12.7451   24.0014 C   0  0  0  0  0  0  0  0  0  0  0  0
    7.1640  -11.7141   24.9124 C   0  0  0  0  0  0  0  0  0  0  0  0
    6.7543  -11.9396   26.2108 C   0  0  0  0  0  0  0  0  0  0  0  0
    6.3718  -13.2138   26.5535 C   0  0  0  0  0  0  0  0  0  0  0  0
    6.3950  -14.2445   25.6267 C   0  0  0  0  0  0  0  0  0  0  0  0
    9.2885  -15.4609   23.6543 C   0  0  0  0  0  0  0  0  0  0  0  0
    9.6794  -14.5267   24.3932 O   0  0  0  0  0  0  0  0  0  0  0  0
    9.9181  -16.7449   23.8141 N   0  0  0  0  0  0  0  0  0  0  0  0
   10.9973  -16.8955   24.7616 C   0  0  1  0  0  0  0  0  0  0  0  0
   10.6014  -17.8459   25.8881 C   0  0  0  0  0  0  0  0  0  0  0  0
    9.5765  -17.2188   26.7369 C   0  0  0  0  0  0  0  0  0  0  0  0
    8.2296  -17.5380   26.8633 C   0  0  0  0  0  0  0  0  0  0  0  0
    7.7028  -16.6969   27.7418 N   0  0  0  0  0  0  0  0  0  0  0  0
    8.6144  -15.8475   28.2000 C   0  0  0  0  0  0  0  0  0  0  0  0
    8.5724  -14.7972   29.1140 C   0  0  0  0  0  0  0  0  0  0  0  0
    9.7136  -14.0920   29.3801 C   0  0  0  0  0  0  0  0  0  0  0  0
   10.9096  -14.3815   28.7761 C   0  0  0  0  0  0  0  0  0  0  0  0
   10.9681  -15.4183   27.8688 C   0  0  0  0  0  0  0  0  0  0  0  0
    9.8136  -16.1453   27.5879 C   0  0  0  0  0  0  0  0  0  0  0  0
   12.1471  -17.5151   24.0680 C   0  0  0  0  0  0  0  0  0  0  0  0
   13.3593  -17.7252   24.7062 O   0  0  0  0  0  0  0  0  0  0  0  0
   12.0720  -17.8824   22.8522 O   0  0  0  0  0  0  0  0  0  0  0  0
  2  1  1  6
  2  3  1  0
  4  2  1  0
  4  5  1  6
  6  4  1  0
  6  7  2  0
  8  6  1  0
  9  8  1  0
  9 10  1  1
 10 11  1  0
 11 12  2  0
 12 13  1  0
 14 13  2  0
 15 14  1  0
 16 11  1  0
 16 15  2  0
 17  9  1  0
 18 17  2  0
 19 17  1  0
 20 21  1  1
 20 19  1  0
 21 22  1  0
 22 30  1  0
 23 22  2  0
 23 24  1  0
 24 25  1  0
 25 26  1  0
 26 27  2  0
 28 27  1  0
 29 28  2  0
 30 25  2  0
 30 29  1  0
 31 32  1  0
 31 20  1  0
 33 31  2  0
M  END
$$$$
