TFW.pdb
     RDKit          3D

 33 35  0  0  1  0  0  0  0  0999 V2000
    8.8591  -22.3246   22.9031 C   0  0  0  0  0  0  0  0  0  0  0  0
    9.1253  -20.8374   22.8299 C   0  0  1  0  0  0  0  0  0  0  0  0
   10.4799  -20.6007   23.1365 O   0  0  0  0  0  0  0  0  0  0  0  0
    8.8301  -20.3872   21.4251 C   0  0  2  0  0  0  0  0  0  0  0  0
    9.5836  -21.2161   20.5077 N   0  0  0  0  0  0  0  0  0  0  0  0
    9.1184  -18.9640   21.2054 C   0  0  0  0  0  0  0  0  0  0  0  0
   10.1751  -18.5689   20.6377 O   0  0  0  0  0  0  0  0  0  0  0  0
    8.1737  -18.0024   21.6484 N   0  0  0  0  0  0  0  0  0  0  0  0
    8.4236  -16.5830   21.5413 C   0  0  1  0  0  0  0  0  0  0  0  0
    7.0590  -15.9112   21.5738 C   0  0  0  0  0  0  0  0  0  0  0  0
    7.1688  -14.4602   21.3545 C   0  0  0  0  0  0  0  0  0  0  0  0
    7.3873  -13.9658   20.0737 C   0  0  0  0  0  0  0  0  0  0  0  0
    7.4973  -12.6199   19.8098 C   0  0  0  0  0  0  0  0  0  0  0  0
    7.3917  -11.6990   20.8322 C   0  0  0  0  0  0  0  0  0  0  0  0
    7.1758  -12.1708   22.1043 C   0  0  0  0  0  0  0  0  0  0  0  0
    7.0667  -13.5293   22.3578 C   0  0  0  0  0  0  0  0  0  0  0  0
    9.2941  -16.1712   22.6602 C   0  0  0  0  0  0  0  0  0  0  0  0
   10.2250  -15.3594   22.4461 O   0  0  0  0  0  0  0  0  0  0  0  0
    9.1287  -16.6561   24.0049 N   0  0  0  0  0  0  0  0  0  0  0  0
   10.0264  -16.2019   25.0407 C   0  0  1  0  0  0  0  0  0  0  0  0
    9.2806  -16.0085   26.3582 C   0  0  0  0  0  0  0  0  0  0  0  0
    8.0215  -15.2858   26.1207 C   0  0  0  0  0  0  0  0  0  0  0  0
    6.7653  -15.7945   25.8117 C   0  0  0  0  0  0  0  0  0  0  0  0
    5.9404  -14.7650   25.6839 N   0  0  0  0  0  0  0  0  0  0  0  0
    6.5717  -13.6152   25.8885 C   0  0  0  0  0  0  0  0  0  0  0  0
    6.1663  -12.2827   25.8712 C   0  0  0  0  0  0  0  0  0  0  0  0
    7.0805  -11.2988   26.1299 C   0  0  0  0  0  0  0  0  0  0  0  0
    8.3937  -11.5758   26.4084 C   0  0  0  0  0  0  0  0  0  0  0  0
    8.8111  -12.8899   26.4294 C   0  0  0  0  0  0  0  0  0  0  0  0
    7.8911  -13.9025   26.1678 C   0  0  0  0  0  0  0  0  0  0  0  0
   11.0397  -17.2527   25.2770 C   0  0  0  0  0  0  0  0  0  0  0  0
   10.9524  -18.5003   24.6796 O   0  0  0  0  0  0  0  0  0  0  0  0
   12.0374  -17.0555   26.0415 O   0  0  0  0  0  0  0  0  0  0  0  0
  2  1  1  6
  2  3  1  0
  4  2  1  0
  4  5  1  6
  6  4  1  0
  6  7  2  0
  8  6  1  0
  9  8  1  0
  9 10  1  1
 10 11  1  0
 11 12  2  0
 12 13  1  0
 14 13  2  0
 15 14  1  0
 16 11  1  0
 16 15  2  0
 17  9  1  0
 18 17  2  0
 19 17  1  0
 20 21  1  1
 20 19  1  0
 21 22  1  0
 22 30  1  0
 23 22  2  0
 23 24  1  0
 24 25  1  0
 25 26  1  0
 26 27  2  0
 28 27  1  0
 29 28  2  0
 30 25  2  0
 30 29  1  0
 31 32  1  0
 31 20  1  0
 33 31  2  0
M  END
$$$$
