EFQ.pdb
     RDKit          3D

 30 30  0  0  1  0  0  0  0  0999 V2000
   20.1028  -15.0319  -20.1201 N   0  0  0  0  0  0  0  0  0  0  0  0
   20.7805  -13.8390  -20.5516 C   0  0  1  0  0  0  0  0  0  0  0  0
   19.7878  -12.9418  -21.2596 C   0  0  0  0  0  0  0  0  0  0  0  0
   19.3340  -13.5139  -22.5679 C   0  0  0  0  0  0  0  0  0  0  0  0
   18.1462  -14.3702  -22.3237 C   0  0  0  0  0  0  0  0  0  0  0  0
   17.1834  -13.9756  -21.6203 O   0  0  0  0  0  0  0  0  0  0  0  0
   21.2940  -13.0802  -19.3798 C   0  0  0  0  0  0  0  0  0  0  0  0
   20.5829  -13.0378  -18.3355 O   0  0  0  0  0  0  0  0  0  0  0  0
   18.0584  -15.6436  -22.8672 O   0  0  0  0  0  0  0  0  0  0  0  0
   22.5398  -12.4081  -19.3885 N   0  0  0  0  0  0  0  0  0  0  0  0
   23.0642  -11.8032  -18.2076 C   0  0  1  0  0  0  0  0  0  0  0  0
   24.5058  -12.0967  -17.9651 C   0  0  0  0  0  0  0  0  0  0  0  0
   25.1577  -11.4107  -16.8671 C   0  0  0  0  0  0  0  0  0  0  0  0
   25.8883  -10.2745  -17.1361 C   0  0  0  0  0  0  0  0  0  0  0  0
   26.5370   -9.5744  -16.1199 C   0  0  0  0  0  0  0  0  0  0  0  0
   26.4615  -10.0063  -14.8134 C   0  0  0  0  0  0  0  0  0  0  0  0
   25.7217  -11.1467  -14.5808 C   0  0  0  0  0  0  0  0  0  0  0  0
   25.0800  -11.8480  -15.5504 C   0  0  0  0  0  0  0  0  0  0  0  0
   22.6626  -10.3880  -18.0451 C   0  0  0  0  0  0  0  0  0  0  0  0
   22.7915   -9.5982  -19.0460 O   0  0  0  0  0  0  0  0  0  0  0  0
   17.7347   -7.4762  -16.2022 N   0  0  0  0  0  0  0  0  0  0  0  0
   18.6191   -6.4018  -16.3704 C   0  0  0  0  0  0  0  0  0  0  0  0
   18.2164   -5.2287  -16.3515 O   0  0  0  0  0  0  0  0  0  0  0  0
   20.0734   -6.6569  -16.5770 C   0  0  0  0  0  0  0  0  0  0  0  0
   20.3706   -8.1237  -16.6647 C   0  0  0  0  0  0  0  0  0  0  0  0
   21.8220   -8.3708  -16.7928 C   0  0  2  0  0  0  0  0  0  0  0  0
   22.1351   -9.7982  -16.8766 N   0  0  0  0  0  0  0  0  0  0  0  0
   22.5987   -7.6897  -15.7627 C   0  0  0  0  0  0  0  0  0  0  0  0
   22.9081   -6.3388  -16.0014 O   0  0  0  0  0  0  0  0  0  0  0  0
   23.0323   -8.1379  -14.6919 O   0  0  0  0  0  0  0  0  0  0  0  0
  2  1  1  1
  3  2  1  0
  3  4  1  0
  4  5  1  0
  5  6  2  0
  5  9  1  0
  7  2  1  0
  7  8  2  0
 10  7  1  0
 11 19  1  0
 11 10  1  0
 11 12  1  6
 13 18  2  0
 13 12  1  0
 14 13  1  0
 15 14  2  0
 16 15  1  0
 16 17  2  0
 17 18  1  0
 19 27  1  0
 20 19  2  0
 22 21  1  0
 22 23  2  0
 24 25  1  0
 24 22  1  0
 26 25  1  1
 26 28  1  0
 27 26  1  0
 28 30  2  0
 28 29  1  0
M  END
$$$$
