EFQ.pdb
     RDKit          3D

 30 30  0  0  1  0  0  0  0  0999 V2000
   27.3532  -21.9766  -13.7573 N   0  0  0  0  0  0  0  0  0  0  0  0
   27.7274  -20.8385  -12.9615 C   0  0  1  0  0  0  0  0  0  0  0  0
   26.9892  -19.6201  -13.4738 C   0  0  0  0  0  0  0  0  0  0  0  0
   27.6628  -19.0024  -14.6610 C   0  0  0  0  0  0  0  0  0  0  0  0
   27.1749  -19.6805  -15.8881 C   0  0  0  0  0  0  0  0  0  0  0  0
   27.9651  -20.2289  -16.6958 O   0  0  0  0  0  0  0  0  0  0  0  0
   27.3134  -21.0350  -11.5465 C   0  0  0  0  0  0  0  0  0  0  0  0
   26.2850  -21.7326  -11.3147 O   0  0  0  0  0  0  0  0  0  0  0  0
   25.8211  -19.7320  -16.1867 O   0  0  0  0  0  0  0  0  0  0  0  0
   28.0216  -20.4749  -10.4563 N   0  0  0  0  0  0  0  0  0  0  0  0
   27.5751  -20.6514   -9.1128 C   0  0  1  0  0  0  0  0  0  0  0  0
   28.5918  -20.2904   -8.0837 C   0  0  0  0  0  0  0  0  0  0  0  0
   28.1533  -20.2024   -6.7050 C   0  0  0  0  0  0  0  0  0  0  0  0
   28.1430  -21.3468   -5.9386 C   0  0  0  0  0  0  0  0  0  0  0  0
   27.7305  -21.3219   -4.6072 C   0  0  0  0  0  0  0  0  0  0  0  0
   27.3206  -20.1429   -4.0230 C   0  0  0  0  0  0  0  0  0  0  0  0
   27.3438  -19.0173   -4.8194 C   0  0  0  0  0  0  0  0  0  0  0  0
   27.7404  -19.0124   -6.1180 C   0  0  0  0  0  0  0  0  0  0  0  0
   26.2103  -20.1307   -8.8748 C   0  0  0  0  0  0  0  0  0  0  0  0
   26.0064  -18.8720   -9.0020 O   0  0  0  0  0  0  0  0  0  0  0  0
   22.4967  -20.9787  -12.8252 N   0  0  0  0  0  0  0  0  0  0  0  0
   21.5843  -20.3897  -11.9390 C   0  0  0  0  0  0  0  0  0  0  0  0
   20.4485  -20.0586  -12.3117 O   0  0  0  0  0  0  0  0  0  0  0  0
   21.9708  -20.1501  -10.5192 C   0  0  0  0  0  0  0  0  0  0  0  0
   23.3534  -20.6524  -10.2300 C   0  0  0  0  0  0  0  0  0  0  0  0
   23.7126  -20.4494   -8.8109 C   0  0  2  0  0  0  0  0  0  0  0  0
   25.0767  -20.8912   -8.5167 N   0  0  0  0  0  0  0  0  0  0  0  0
   22.7314  -21.0249   -7.8974 C   0  0  0  0  0  0  0  0  0  0  0  0
   21.4311  -20.4928   -7.9576 O   0  0  0  0  0  0  0  0  0  0  0  0
   22.8822  -21.9284   -7.0627 O   0  0  0  0  0  0  0  0  0  0  0  0
  2  1  1  6
  3  2  1  0
  3  4  1  0
  4  5  1  0
  5  6  2  0
  5  9  1  0
  7  2  1  0
  7  8  2  0
 10  7  1  0
 11 19  1  0
 11 10  1  0
 11 12  1  1
 13 18  2  0
 13 12  1  0
 14 13  1  0
 15 14  2  0
 16 15  1  0
 16 17  2  0
 17 18  1  0
 19 27  1  0
 20 19  2  0
 22 21  1  0
 22 23  2  0
 24 25  1  0
 24 22  1  0
 26 25  1  6
 26 28  1  0
 27 26  1  0
 28 30  2  0
 28 29  1  0
M  END
$$$$
