EFQ.pdb
     RDKit          3D

 30 30  0  0  1  0  0  0  0  0999 V2000
   26.2935  -23.0471  -16.9363 N   0  0  0  0  0  0  0  0  0  0  0  0
   26.7060  -21.8783  -16.2069 C   0  0  1  0  0  0  0  0  0  0  0  0
   26.2089  -20.6474  -16.9346 C   0  0  0  0  0  0  0  0  0  0  0  0
   26.3239  -20.7790  -18.4226 C   0  0  0  0  0  0  0  0  0  0  0  0
   27.7339  -20.5269  -18.8126 C   0  0  0  0  0  0  0  0  0  0  0  0
   28.4922  -21.4584  -19.1797 O   0  0  0  0  0  0  0  0  0  0  0  0
   26.0867  -21.8640  -14.8547 C   0  0  0  0  0  0  0  0  0  0  0  0
   24.9364  -22.3699  -14.7174 O   0  0  0  0  0  0  0  0  0  0  0  0
   28.2656  -19.2458  -18.7847 O   0  0  0  0  0  0  0  0  0  0  0  0
   26.7312  -21.3096  -13.7228 N   0  0  0  0  0  0  0  0  0  0  0  0
   26.0538  -21.1789  -12.4739 C   0  0  1  0  0  0  0  0  0  0  0  0
   26.9562  -20.8928  -11.3219 C   0  0  0  0  0  0  0  0  0  0  0  0
   26.3448  -20.6637  -10.0278 C   0  0  0  0  0  0  0  0  0  0  0  0
   26.4821  -19.4257   -9.4399 C   0  0  0  0  0  0  0  0  0  0  0  0
   25.9162  -19.1490   -8.1962 C   0  0  0  0  0  0  0  0  0  0  0  0
   25.2011  -20.1149   -7.5216 C   0  0  0  0  0  0  0  0  0  0  0  0
   25.0839  -21.3421   -8.1396 C   0  0  0  0  0  0  0  0  0  0  0  0
   25.6242  -21.6393   -9.3493 C   0  0  0  0  0  0  0  0  0  0  0  0
   24.8326  -20.3465  -12.5529 C   0  0  0  0  0  0  0  0  0  0  0  0
   24.8680  -19.2761  -13.2564 O   0  0  0  0  0  0  0  0  0  0  0  0
   21.5083  -21.0950  -16.4641 N   0  0  0  0  0  0  0  0  0  0  0  0
   20.5330  -20.3769  -15.7585 C   0  0  0  0  0  0  0  0  0  0  0  0
   19.4754  -20.0244  -16.3022 O   0  0  0  0  0  0  0  0  0  0  0  0
   20.7560  -20.0223  -14.3276 C   0  0  0  0  0  0  0  0  0  0  0  0
   22.0789  -20.5252  -13.8330 C   0  0  0  0  0  0  0  0  0  0  0  0
   22.3286  -20.0990  -12.4401 C   0  0  2  0  0  0  0  0  0  0  0  0
   23.5980  -20.6128  -11.9232 N   0  0  0  0  0  0  0  0  0  0  0  0
   21.2068  -20.3933  -11.5551 C   0  0  0  0  0  0  0  0  0  0  0  0
   20.2312  -19.3889  -11.4243 O   0  0  0  0  0  0  0  0  0  0  0  0
   20.9876  -21.4165  -10.8913 O   0  0  0  0  0  0  0  0  0  0  0  0
  2  1  1  6
  3  2  1  0
  3  4  1  0
  4  5  1  0
  5  6  2  0
  5  9  1  0
  7  2  1  0
  7  8  2  0
 10  7  1  0
 11 19  1  0
 11 10  1  0
 11 12  1  1
 13 18  2  0
 13 12  1  0
 14 13  1  0
 15 14  2  0
 16 15  1  0
 16 17  2  0
 17 18  1  0
 19 27  1  0
 20 19  2  0
 22 21  1  0
 22 23  2  0
 24 25  1  0
 24 22  1  0
 26 25  1  6
 26 28  1  0
 27 26  1  0
 28 30  2  0
 28 29  1  0
M  END
$$$$
