EFQ.pdb
     RDKit          3D

 30 30  0  0  1  0  0  0  0  0999 V2000
   27.6848  -23.2109  -17.1680 N   0  0  0  0  0  0  0  0  0  0  0  0
   27.5544  -21.8948  -16.6030 C   0  0  1  0  0  0  0  0  0  0  0  0
   26.6829  -21.0562  -17.5136 C   0  0  0  0  0  0  0  0  0  0  0  0
   27.3629  -20.7236  -18.8065 C   0  0  0  0  0  0  0  0  0  0  0  0
   28.6914  -20.1338  -18.5047 C   0  0  0  0  0  0  0  0  0  0  0  0
   28.8039  -19.0462  -17.8869 O   0  0  0  0  0  0  0  0  0  0  0  0
   26.8693  -21.9606  -15.2845 C   0  0  0  0  0  0  0  0  0  0  0  0
   25.8858  -22.7449  -15.1592 O   0  0  0  0  0  0  0  0  0  0  0  0
   29.8613  -20.7677  -18.8973 O   0  0  0  0  0  0  0  0  0  0  0  0
   27.2730  -21.1843  -14.1717 N   0  0  0  0  0  0  0  0  0  0  0  0
   26.5525  -21.2219  -12.9409 C   0  0  1  0  0  0  0  0  0  0  0  0
   27.3020  -20.6571  -11.7823 C   0  0  0  0  0  0  0  0  0  0  0  0
   26.5893  -20.5024  -10.5296 C   0  0  0  0  0  0  0  0  0  0  0  0
   26.4254  -19.2363  -10.0125 C   0  0  0  0  0  0  0  0  0  0  0  0
   25.7494  -19.0277   -8.8112 C   0  0  0  0  0  0  0  0  0  0  0  0
   25.2258  -20.0913   -8.1085 C   0  0  0  0  0  0  0  0  0  0  0  0
   25.4084  -21.3439   -8.6555 C   0  0  0  0  0  0  0  0  0  0  0  0
   26.0621  -21.5764   -9.8227 C   0  0  0  0  0  0  0  0  0  0  0  0
   25.1459  -20.7800  -13.0705 C   0  0  0  0  0  0  0  0  0  0  0  0
   24.9094  -19.6544  -13.6355 O   0  0  0  0  0  0  0  0  0  0  0  0
   20.2765  -23.5039  -15.3237 N   0  0  0  0  0  0  0  0  0  0  0  0
   19.6733  -22.3600  -14.7828 C   0  0  0  0  0  0  0  0  0  0  0  0
   18.4804  -22.0987  -14.9998 O   0  0  0  0  0  0  0  0  0  0  0  0
   20.4667  -21.4303  -13.9291 C   0  0  0  0  0  0  0  0  0  0  0  0
   21.8609  -21.9356  -13.7086 C   0  0  0  0  0  0  0  0  0  0  0  0
   22.6447  -21.0017  -12.8734 C   0  0  2  0  0  0  0  0  0  0  0  0
   24.0050  -21.4846  -12.6308 N   0  0  0  0  0  0  0  0  0  0  0  0
   21.9541  -20.6390  -11.6405 C   0  0  0  0  0  0  0  0  0  0  0  0
   20.9325  -19.6793  -11.7533 O   0  0  0  0  0  0  0  0  0  0  0  0
   22.1424  -21.0611  -10.4907 O   0  0  0  0  0  0  0  0  0  0  0  0
  2  1  1  6
  3  2  1  0
  3  4  1  0
  4  5  1  0
  5  6  2  0
  5  9  1  0
  7  2  1  0
  7  8  2  0
 10  7  1  0
 11 19  1  0
 11 10  1  0
 11 12  1  1
 13 18  2  0
 13 12  1  0
 14 13  1  0
 15 14  2  0
 16 15  1  0
 16 17  2  0
 17 18  1  0
 19 27  1  0
 20 19  2  0
 22 21  1  0
 22 23  2  0
 24 25  1  0
 24 22  1  0
 26 25  1  1
 26 28  1  0
 27 26  1  0
 28 30  2  0
 28 29  1  0
M  END
$$$$
