EFQ.pdb
     RDKit          3D

 30 30  0  0  1  0  0  0  0  0999 V2000
   28.7496  -22.0247  -13.6840 N   0  0  0  0  0  0  0  0  0  0  0  0
   29.3616  -21.0872  -12.7813 C   0  0  1  0  0  0  0  0  0  0  0  0
   29.0615  -19.6822  -13.2585 C   0  0  0  0  0  0  0  0  0  0  0  0
   27.8412  -19.6228  -14.1258 C   0  0  0  0  0  0  0  0  0  0  0  0
   28.2648  -19.3389  -15.5200 C   0  0  0  0  0  0  0  0  0  0  0  0
   29.0188  -18.3729  -15.7953 O   0  0  0  0  0  0  0  0  0  0  0  0
   28.7768  -21.2187  -11.4201 C   0  0  0  0  0  0  0  0  0  0  0  0
   27.6070  -21.6855  -11.3134 O   0  0  0  0  0  0  0  0  0  0  0  0
   27.8396  -20.1357  -16.5731 O   0  0  0  0  0  0  0  0  0  0  0  0
   29.4748  -20.8437  -10.2470 N   0  0  0  0  0  0  0  0  0  0  0  0
   28.8293  -20.8232   -8.9748 C   0  0  1  0  0  0  0  0  0  0  0  0
   29.6938  -20.3307   -7.8643 C   0  0  0  0  0  0  0  0  0  0  0  0
   29.0689  -20.0944   -6.5779 C   0  0  0  0  0  0  0  0  0  0  0  0
   28.9994  -21.1317   -5.6745 C   0  0  0  0  0  0  0  0  0  0  0  0
   28.4091  -20.9623   -4.4229 C   0  0  0  0  0  0  0  0  0  0  0  0
   27.8780  -19.7440   -4.0582 C   0  0  0  0  0  0  0  0  0  0  0  0
   27.9652  -18.7284   -4.9870 C   0  0  0  0  0  0  0  0  0  0  0  0
   28.5340  -18.8650   -6.2123 C   0  0  0  0  0  0  0  0  0  0  0  0
   27.4615  -20.2597   -9.0197 C   0  0  0  0  0  0  0  0  0  0  0  0
   27.2745  -19.1611   -9.6524 O   0  0  0  0  0  0  0  0  0  0  0  0
   24.0527  -21.1990  -12.8991 N   0  0  0  0  0  0  0  0  0  0  0  0
   23.0560  -20.6107  -12.1083 C   0  0  0  0  0  0  0  0  0  0  0  0
   21.9443  -20.3281  -12.5802 O   0  0  0  0  0  0  0  0  0  0  0  0
   23.3215  -20.3129  -10.6718 C   0  0  0  0  0  0  0  0  0  0  0  0
   24.7078  -20.7182  -10.2699 C   0  0  0  0  0  0  0  0  0  0  0  0
   24.9556  -20.4389   -8.8400 C   0  0  2  0  0  0  0  0  0  0  0  0
   26.3082  -20.8179   -8.4284 N   0  0  0  0  0  0  0  0  0  0  0  0
   23.9295  -21.0074   -7.9726 C   0  0  0  0  0  0  0  0  0  0  0  0
   22.6104  -20.5732   -8.1942 O   0  0  0  0  0  0  0  0  0  0  0  0
   24.0558  -21.8297   -7.0542 O   0  0  0  0  0  0  0  0  0  0  0  0
  2  1  1  6
  3  2  1  0
  3  4  1  0
  4  5  1  0
  5  6  2  0
  5  9  1  0
  7  2  1  0
  7  8  2  0
 10  7  1  0
 11 19  1  0
 11 10  1  0
 11 12  1  1
 13 18  2  0
 13 12  1  0
 14 13  1  0
 15 14  2  0
 16 15  1  0
 16 17  2  0
 17 18  1  0
 19 27  1  0
 20 19  2  0
 22 21  1  0
 22 23  2  0
 24 25  1  0
 24 22  1  0
 26 25  1  6
 26 28  1  0
 27 26  1  0
 28 30  2  0
 28 29  1  0
M  END
$$$$
