EFQ.pdb
     RDKit          3D

 30 30  0  0  1  0  0  0  0  0999 V2000
   27.1555  -21.7595  -18.5949 N   0  0  0  0  0  0  0  0  0  0  0  0
   27.0736  -20.6187  -17.7230 C   0  0  1  0  0  0  0  0  0  0  0  0
   26.1240  -19.6075  -18.3292 C   0  0  0  0  0  0  0  0  0  0  0  0
   26.7221  -18.8965  -19.5046 C   0  0  0  0  0  0  0  0  0  0  0  0
   27.8927  -18.1119  -19.0378 C   0  0  0  0  0  0  0  0  0  0  0  0
   29.0618  -18.5640  -19.1157 O   0  0  0  0  0  0  0  0  0  0  0  0
   26.5074  -21.0115  -16.4048 C   0  0  0  0  0  0  0  0  0  0  0  0
   25.5554  -21.8430  -16.3857 O   0  0  0  0  0  0  0  0  0  0  0  0
   27.7343  -16.8445  -18.4961 O   0  0  0  0  0  0  0  0  0  0  0  0
   26.9901  -20.4939  -15.1789 N   0  0  0  0  0  0  0  0  0  0  0  0
   26.3219  -20.7611  -13.9469 C   0  0  1  0  0  0  0  0  0  0  0  0
   27.1207  -20.4148  -12.7365 C   0  0  0  0  0  0  0  0  0  0  0  0
   26.4509  -20.4587  -11.4518 C   0  0  0  0  0  0  0  0  0  0  0  0
   25.9989  -19.2807  -10.8996 C   0  0  0  0  0  0  0  0  0  0  0  0
   25.3486  -19.2627   -9.6665 C   0  0  0  0  0  0  0  0  0  0  0  0
   25.1415  -20.4319   -8.9669 C   0  0  0  0  0  0  0  0  0  0  0  0
   25.6069  -21.5919   -9.5495 C   0  0  0  0  0  0  0  0  0  0  0  0
   26.2431  -21.6389  -10.7481 C   0  0  0  0  0  0  0  0  0  0  0  0
   24.9121  -20.3107  -13.9342 C   0  0  0  0  0  0  0  0  0  0  0  0
   24.6373  -19.1519  -14.4072 O   0  0  0  0  0  0  0  0  0  0  0  0
   20.0570  -21.5859  -16.7473 N   0  0  0  0  0  0  0  0  0  0  0  0
   19.5243  -20.6679  -15.8317 C   0  0  0  0  0  0  0  0  0  0  0  0
   18.3990  -20.1734  -15.9981 O   0  0  0  0  0  0  0  0  0  0  0  0
   20.3121  -20.2684  -14.6306 C   0  0  0  0  0  0  0  0  0  0  0  0
   21.6766  -20.8897  -14.6325 C   0  0  0  0  0  0  0  0  0  0  0  0
   22.4494  -20.4915  -13.4374 C   0  0  2  0  0  0  0  0  0  0  0  0
   23.8064  -21.0403  -13.4478 N   0  0  0  0  0  0  0  0  0  0  0  0
   21.7428  -20.7764  -12.1933 C   0  0  0  0  0  0  0  0  0  0  0  0
   22.1715  -21.9058  -11.4734 O   0  0  0  0  0  0  0  0  0  0  0  0
   20.8041  -20.1572  -11.6728 O   0  0  0  0  0  0  0  0  0  0  0  0
  2  1  1  6
  3  2  1  0
  3  4  1  0
  4  5  1  0
  5  6  2  0
  5  9  1  0
  7  2  1  0
  7  8  2  0
 10  7  1  0
 11 19  1  0
 11 10  1  0
 11 12  1  1
 13 18  2  0
 13 12  1  0
 14 13  1  0
 15 14  2  0
 16 15  1  0
 16 17  2  0
 17 18  1  0
 19 27  1  0
 20 19  2  0
 22 21  1  0
 22 23  2  0
 24 25  1  0
 24 22  1  0
 26 25  1  6
 26 28  1  0
 27 26  1  0
 28 30  2  0
 28 29  1  0
M  END
$$$$
