EFQ.pdb
     RDKit          3D

 30 30  0  0  1  0  0  0  0  0999 V2000
   19.5246  -10.3770  -16.7153 N   0  0  0  0  0  0  0  0  0  0  0  0
   19.4407   -8.9984  -16.3144 C   0  0  1  0  0  0  0  0  0  0  0  0
   18.1264   -8.4268  -16.8021 C   0  0  0  0  0  0  0  0  0  0  0  0
   18.1624   -8.0757  -18.2582 C   0  0  0  0  0  0  0  0  0  0  0  0
   19.0104   -6.8699  -18.4336 C   0  0  0  0  0  0  0  0  0  0  0  0
   18.5438   -5.7116  -18.2996 O   0  0  0  0  0  0  0  0  0  0  0  0
   19.4396   -8.8874  -14.8312 C   0  0  0  0  0  0  0  0  0  0  0  0
   18.8289   -9.7713  -14.1649 O   0  0  0  0  0  0  0  0  0  0  0  0
   20.3557   -6.9819  -18.7536 O   0  0  0  0  0  0  0  0  0  0  0  0
   20.0917   -7.8374  -14.1410 N   0  0  0  0  0  0  0  0  0  0  0  0
   20.1961   -7.8379  -12.7181 C   0  0  1  0  0  0  0  0  0  0  0  0
   21.5328   -7.4177  -12.2083 C   0  0  0  0  0  0  0  0  0  0  0  0
   21.7656   -7.5001  -10.7800 C   0  0  0  0  0  0  0  0  0  0  0  0
   21.5849   -6.3705  -10.0129 C   0  0  0  0  0  0  0  0  0  0  0  0
   21.7948   -6.3910   -8.6348 C   0  0  0  0  0  0  0  0  0  0  0  0
   22.1908   -7.5505   -8.0039 C   0  0  0  0  0  0  0  0  0  0  0  0
   22.3620   -8.6617   -8.8026 C   0  0  0  0  0  0  0  0  0  0  0  0
   22.1648   -8.6705  -10.1459 C   0  0  0  0  0  0  0  0  0  0  0  0
   19.0312   -7.2225  -12.0439 C   0  0  0  0  0  0  0  0  0  0  0  0
   18.6124   -6.0867  -12.4644 O   0  0  0  0  0  0  0  0  0  0  0  0
   14.2275   -9.7311   -8.7872 N   0  0  0  0  0  0  0  0  0  0  0  0
   13.9827   -8.3535   -8.7031 C   0  0  0  0  0  0  0  0  0  0  0  0
   12.9690   -7.9140   -8.1395 O   0  0  0  0  0  0  0  0  0  0  0  0
   14.9489   -7.3857   -9.2969 C   0  0  0  0  0  0  0  0  0  0  0  0
   16.1769   -8.0751   -9.8110 C   0  0  0  0  0  0  0  0  0  0  0  0
   17.1302   -7.1088  -10.3954 C   0  0  2  0  0  0  0  0  0  0  0  0
   18.3089   -7.7672  -10.9608 N   0  0  0  0  0  0  0  0  0  0  0  0
   17.4810   -6.0382   -9.4684 C   0  0  0  0  0  0  0  0  0  0  0  0
   16.6329   -4.9166   -9.4562 O   0  0  0  0  0  0  0  0  0  0  0  0
   18.4343   -5.9743   -8.6793 O   0  0  0  0  0  0  0  0  0  0  0  0
  2  1  1  1
  3  2  1  0
  3  4  1  0
  4  5  1  0
  5  6  2  0
  5  9  1  0
  7  2  1  0
  7  8  2  0
 10  7  1  0
 11 19  1  0
 11 10  1  0
 11 12  1  6
 13 18  2  0
 13 12  1  0
 14 13  1  0
 15 14  2  0
 16 15  1  0
 16 17  2  0
 17 18  1  0
 19 27  1  0
 20 19  2  0
 22 21  1  0
 22 23  2  0
 24 25  1  0
 24 22  1  0
 26 25  1  1
 26 28  1  0
 27 26  1  0
 28 30  2  0
 28 29  1  0
M  END
$$$$
