EFQ.pdb
     RDKit          3D

 30 30  0  0  1  0  0  0  0  0999 V2000
   25.2332  -30.2740  -17.9158 N   0  0  0  0  0  0  0  0  0  0  0  0
   23.8488  -30.5759  -17.6701 C   0  0  1  0  0  0  0  0  0  0  0  0
   23.6364  -32.0655  -17.8371 C   0  0  0  0  0  0  0  0  0  0  0  0
   24.4546  -32.8699  -16.8737 C   0  0  0  0  0  0  0  0  0  0  0  0
   23.7386  -34.1387  -16.5887 C   0  0  0  0  0  0  0  0  0  0  0  0
   23.2878  -34.8619  -17.5113 O   0  0  0  0  0  0  0  0  0  0  0  0
   23.4840  -30.2389  -16.2681 C   0  0  0  0  0  0  0  0  0  0  0  0
   24.4163  -30.0568  -15.4340 O   0  0  0  0  0  0  0  0  0  0  0  0
   23.5415  -34.5717  -15.2855 O   0  0  0  0  0  0  0  0  0  0  0  0
   22.1423  -30.1150  -15.8342 N   0  0  0  0  0  0  0  0  0  0  0  0
   21.8263  -29.6240  -14.5325 C   0  0  1  0  0  0  0  0  0  0  0  0
   20.5971  -28.7814  -14.4843 C   0  0  0  0  0  0  0  0  0  0  0  0
   20.1651  -28.2932  -13.1896 C   0  0  0  0  0  0  0  0  0  0  0  0
   20.7237  -27.1340  -12.6985 C   0  0  0  0  0  0  0  0  0  0  0  0
   20.3471  -26.6183  -11.4592 C   0  0  0  0  0  0  0  0  0  0  0  0
   19.4002  -27.2613  -10.6916 C   0  0  0  0  0  0  0  0  0  0  0  0
   18.8622  -28.4186  -11.2143 C   0  0  0  0  0  0  0  0  0  0  0  0
   19.2100  -28.9433  -12.4174 C   0  0  0  0  0  0  0  0  0  0  0  0
   21.9398  -30.6520  -13.4738 C   0  0  0  0  0  0  0  0  0  0  0  0
   21.4712  -31.8218  -13.7063 O   0  0  0  0  0  0  0  0  0  0  0  0
   25.2686  -30.8785   -8.0399 N   0  0  0  0  0  0  0  0  0  0  0  0
   24.5713  -32.0944   -8.0491 C   0  0  0  0  0  0  0  0  0  0  0  0
   24.7633  -32.9523   -7.1740 O   0  0  0  0  0  0  0  0  0  0  0  0
   23.5772  -32.3771   -9.1237 C   0  0  0  0  0  0  0  0  0  0  0  0
   23.4091  -31.2053  -10.0437 C   0  0  0  0  0  0  0  0  0  0  0  0
   22.5644  -31.5520  -11.2058 C   0  0  2  0  0  0  0  0  0  0  0  0
   22.5277  -30.4805  -12.2024 N   0  0  0  0  0  0  0  0  0  0  0  0
   21.2306  -31.9958  -10.8156 C   0  0  0  0  0  0  0  0  0  0  0  0
   20.9958  -33.3819  -10.8511 O   0  0  0  0  0  0  0  0  0  0  0  0
   20.2599  -31.3161  -10.4529 O   0  0  0  0  0  0  0  0  0  0  0  0
  2  1  1  1
  3  2  1  0
  3  4  1  0
  4  5  1  0
  5  6  2  0
  5  9  1  0
  7  2  1  0
  7  8  2  0
 10  7  1  0
 11 19  1  0
 11 10  1  0
 11 12  1  6
 13 18  2  0
 13 12  1  0
 14 13  1  0
 15 14  2  0
 16 15  1  0
 16 17  2  0
 17 18  1  0
 19 27  1  0
 20 19  2  0
 22 21  1  0
 22 23  2  0
 24 25  1  0
 24 22  1  0
 26 25  1  1
 26 28  1  0
 27 26  1  0
 28 30  2  0
 28 29  1  0
M  END
$$$$
