EFQ.pdb
     RDKit          3D

 30 30  0  0  1  0  0  0  0  0999 V2000
   23.0114  -13.0505  -17.4862 N   0  0  0  0  0  0  0  0  0  0  0  0
   22.7594  -11.8462  -18.2309 C   0  0  1  0  0  0  0  0  0  0  0  0
   21.3227  -11.8581  -18.7078 C   0  0  0  0  0  0  0  0  0  0  0  0
   21.0700  -12.9233  -19.7307 C   0  0  0  0  0  0  0  0  0  0  0  0
   21.6812  -12.5003  -21.0157 C   0  0  0  0  0  0  0  0  0  0  0  0
   22.7276  -13.0378  -21.4555 O   0  0  0  0  0  0  0  0  0  0  0  0
   22.9182  -10.6525  -17.3579 C   0  0  0  0  0  0  0  0  0  0  0  0
   22.4409  -10.6981  -16.1883 O   0  0  0  0  0  0  0  0  0  0  0  0
   21.1142  -11.4904  -21.7794 O   0  0  0  0  0  0  0  0  0  0  0  0
   23.5788   -9.4749  -17.7831 N   0  0  0  0  0  0  0  0  0  0  0  0
   23.7546   -8.3649  -16.9042 C   0  0  1  0  0  0  0  0  0  0  0  0
   25.1809   -8.0406  -16.6151 C   0  0  0  0  0  0  0  0  0  0  0  0
   26.0362   -9.1159  -16.1534 C   0  0  0  0  0  0  0  0  0  0  0  0
   27.0046   -9.6036  -17.0028 C   0  0  0  0  0  0  0  0  0  0  0  0
   27.8550  -10.6371  -16.6126 C   0  0  0  0  0  0  0  0  0  0  0  0
   27.7453  -11.1986  -15.3588 C   0  0  0  0  0  0  0  0  0  0  0  0
   26.7653  -10.6858  -14.5351 C   0  0  0  0  0  0  0  0  0  0  0  0
   25.9239   -9.6805  -14.8885 C   0  0  0  0  0  0  0  0  0  0  0  0
   22.8901   -7.2105  -17.2365 C   0  0  0  0  0  0  0  0  0  0  0  0
   23.0023   -6.6779  -18.3967 O   0  0  0  0  0  0  0  0  0  0  0  0
   16.9148   -6.5481  -16.3015 N   0  0  0  0  0  0  0  0  0  0  0  0
   17.2176   -5.3302  -16.9260 C   0  0  0  0  0  0  0  0  0  0  0  0
   16.3214   -4.5511  -17.2841 O   0  0  0  0  0  0  0  0  0  0  0  0
   18.6381   -4.9498  -17.1715 C   0  0  0  0  0  0  0  0  0  0  0  0
   19.5822   -6.0357  -16.7505 C   0  0  0  0  0  0  0  0  0  0  0  0
   20.9892   -5.5994  -16.8685 C   0  0  2  0  0  0  0  0  0  0  0  0
   21.9263   -6.6183  -16.3927 N   0  0  0  0  0  0  0  0  0  0  0  0
   21.2245   -4.2966  -16.2556 C   0  0  0  0  0  0  0  0  0  0  0  0
   20.9557   -3.1705  -17.0539 O   0  0  0  0  0  0  0  0  0  0  0  0
   21.6344   -4.0362  -15.1155 O   0  0  0  0  0  0  0  0  0  0  0  0
  2  1  1  1
  3  2  1  0
  3  4  1  0
  4  5  1  0
  5  6  2  0
  5  9  1  0
  7  2  1  0
  7  8  2  0
 10  7  1  0
 11 19  1  0
 11 10  1  0
 11 12  1  6
 13 18  2  0
 13 12  1  0
 14 13  1  0
 15 14  2  0
 16 15  1  0
 16 17  2  0
 17 18  1  0
 19 27  1  0
 20 19  2  0
 22 21  1  0
 22 23  2  0
 24 25  1  0
 24 22  1  0
 26 25  1  1
 26 28  1  0
 27 26  1  0
 28 30  2  0
 28 29  1  0
M  END
$$$$
