EFQ.pdb
     RDKit          3D

 30 30  0  0  1  0  0  0  0  0999 V2000
   27.4228  -22.6101  -18.1541 N   0  0  0  0  0  0  0  0  0  0  0  0
   26.8493  -21.3890  -17.6556 C   0  0  1  0  0  0  0  0  0  0  0  0
   25.7307  -20.9608  -18.5815 C   0  0  0  0  0  0  0  0  0  0  0  0
   25.7022  -19.4780  -18.7940 C   0  0  0  0  0  0  0  0  0  0  0  0
   27.0575  -19.0325  -19.2046 C   0  0  0  0  0  0  0  0  0  0  0  0
   27.5545  -19.3674  -20.3083 O   0  0  0  0  0  0  0  0  0  0  0  0
   26.2442  -21.6084  -16.3147 C   0  0  0  0  0  0  0  0  0  0  0  0
   25.4467  -22.5782  -16.1689 O   0  0  0  0  0  0  0  0  0  0  0  0
   27.8264  -18.2261  -18.3779 O   0  0  0  0  0  0  0  0  0  0  0  0
   26.5249  -20.7787  -15.2026 N   0  0  0  0  0  0  0  0  0  0  0  0
   25.9284  -21.0190  -13.9290 C   0  0  1  0  0  0  0  0  0  0  0  0
   26.7248  -20.5021  -12.7794 C   0  0  0  0  0  0  0  0  0  0  0  0
   26.1602  -20.6413  -11.4516 C   0  0  0  0  0  0  0  0  0  0  0  0
   25.5196  -19.5604  -10.8873 C   0  0  0  0  0  0  0  0  0  0  0  0
   24.9585  -19.6366   -9.6134 C   0  0  0  0  0  0  0  0  0  0  0  0
   25.0323  -20.8037   -8.8842 C   0  0  0  0  0  0  0  0  0  0  0  0
   25.6805  -21.8652   -9.4800 C   0  0  0  0  0  0  0  0  0  0  0  0
   26.2358  -21.8193  -10.7182 C   0  0  0  0  0  0  0  0  0  0  0  0
   24.4802  -20.7157  -13.8926 C   0  0  0  0  0  0  0  0  0  0  0  0
   24.0813  -19.5870  -14.3499 O   0  0  0  0  0  0  0  0  0  0  0  0
   19.2938  -23.9910  -12.6482 N   0  0  0  0  0  0  0  0  0  0  0  0
   18.7960  -22.7674  -13.1171 C   0  0  0  0  0  0  0  0  0  0  0  0
   17.5928  -22.4826  -13.0183 O   0  0  0  0  0  0  0  0  0  0  0  0
   19.7168  -21.7794  -13.7486 C   0  0  0  0  0  0  0  0  0  0  0  0
   21.1404  -22.2477  -13.7113 C   0  0  0  0  0  0  0  0  0  0  0  0
   22.0585  -21.1471  -13.3511 C   0  0  2  0  0  0  0  0  0  0  0  0
   23.4622  -21.5592  -13.3990 N   0  0  0  0  0  0  0  0  0  0  0  0
   21.7060  -20.5164  -12.0836 C   0  0  0  0  0  0  0  0  0  0  0  0
   21.0061  -19.2992  -12.1624 O   0  0  0  0  0  0  0  0  0  0  0  0
   21.9394  -20.9049  -10.9303 O   0  0  0  0  0  0  0  0  0  0  0  0
  2  1  1  6
  3  2  1  0
  3  4  1  0
  4  5  1  0
  5  6  2  0
  5  9  1  0
  7  2  1  0
  7  8  2  0
 10  7  1  0
 11 19  1  0
 11 10  1  0
 11 12  1  1
 13 18  2  0
 13 12  1  0
 14 13  1  0
 15 14  2  0
 16 15  1  0
 16 17  2  0
 17 18  1  0
 19 27  1  0
 20 19  2  0
 22 21  1  0
 22 23  2  0
 24 25  1  0
 24 22  1  0
 26 25  1  1
 26 28  1  0
 27 26  1  0
 28 30  2  0
 28 29  1  0
M  END
$$$$
