EFQ.pdb
     RDKit          3D

 30 30  0  0  1  0  0  0  0  0999 V2000
   25.5576  -26.1313  -19.6443 N   0  0  0  0  0  0  0  0  0  0  0  0
   26.8458  -26.0315  -19.0128 C   0  0  1  0  0  0  0  0  0  0  0  0
   26.6608  -25.5057  -17.6053 C   0  0  0  0  0  0  0  0  0  0  0  0
   26.0802  -24.1246  -17.5840 C   0  0  0  0  0  0  0  0  0  0  0  0
   26.9981  -23.2368  -16.8272 C   0  0  0  0  0  0  0  0  0  0  0  0
   26.7130  -22.0349  -16.5999 O   0  0  0  0  0  0  0  0  0  0  0  0
   27.4731  -27.3751  -18.8963 C   0  0  0  0  0  0  0  0  0  0  0  0
   26.7164  -28.3853  -18.8256 O   0  0  0  0  0  0  0  0  0  0  0  0
   28.2097  -23.7070  -16.3419 O   0  0  0  0  0  0  0  0  0  0  0  0
   28.8754  -27.5655  -18.8618 N   0  0  0  0  0  0  0  0  0  0  0  0
   29.4456  -28.8730  -18.8291 C   0  0  1  0  0  0  0  0  0  0  0  0
   30.8616  -28.9285  -19.2925 C   0  0  0  0  0  0  0  0  0  0  0  0
   31.5465  -30.2036  -19.2149 C   0  0  0  0  0  0  0  0  0  0  0  0
   32.4823  -30.3938  -18.2222 C   0  0  0  0  0  0  0  0  0  0  0  0
   33.1722  -31.5990  -18.1000 C   0  0  0  0  0  0  0  0  0  0  0  0
   32.9318  -32.6355  -18.9760 C   0  0  0  0  0  0  0  0  0  0  0  0
   31.9889  -32.4102  -19.9567 C   0  0  0  0  0  0  0  0  0  0  0  0
   31.3024  -31.2474  -20.0992 C   0  0  0  0  0  0  0  0  0  0  0  0
   29.1510  -29.6106  -17.5803 C   0  0  0  0  0  0  0  0  0  0  0  0
   29.5266  -29.0998  -16.4666 O   0  0  0  0  0  0  0  0  0  0  0  0
   24.3798  -33.3211  -15.9661 N   0  0  0  0  0  0  0  0  0  0  0  0
   25.1694  -33.3102  -14.8079 C   0  0  0  0  0  0  0  0  0  0  0  0
   24.7809  -33.8480  -13.7599 O   0  0  0  0  0  0  0  0  0  0  0  0
   26.5031  -32.6439  -14.8197 C   0  0  0  0  0  0  0  0  0  0  0  0
   26.8115  -32.0474  -16.1601 C   0  0  0  0  0  0  0  0  0  0  0  0
   28.1708  -31.4682  -16.1900 C   0  0  2  0  0  0  0  0  0  0  0  0
   28.4797  -30.8478  -17.4793 N   0  0  0  0  0  0  0  0  0  0  0  0
   29.1940  -32.4196  -15.7702 C   0  0  0  0  0  0  0  0  0  0  0  0
   29.5874  -32.3625  -14.4213 O   0  0  0  0  0  0  0  0  0  0  0  0
   29.7757  -33.2830  -16.4423 O   0  0  0  0  0  0  0  0  0  0  0  0
  2  1  1  1
  3  2  1  0
  3  4  1  0
  4  5  1  0
  5  6  2  0
  5  9  1  0
  7  2  1  0
  7  8  2  0
 10  7  1  0
 11 19  1  0
 11 10  1  0
 11 12  1  1
 13 18  2  0
 13 12  1  0
 14 13  1  0
 15 14  2  0
 16 15  1  0
 16 17  2  0
 17 18  1  0
 19 27  1  0
 20 19  2  0
 22 21  1  0
 22 23  2  0
 24 25  1  0
 24 22  1  0
 26 25  1  6
 26 28  1  0
 27 26  1  0
 28 30  2  0
 28 29  1  0
M  END
$$$$
