EFQ.pdb
     RDKit          3D

 30 30  0  0  1  0  0  0  0  0999 V2000
   26.0195  -20.4785  -15.8831 N   0  0  0  0  0  0  0  0  0  0  0  0
   24.8813  -21.3556  -15.9402 C   0  0  1  0  0  0  0  0  0  0  0  0
   25.3689  -22.7784  -16.1123 C   0  0  0  0  0  0  0  0  0  0  0  0
   26.1191  -22.9732  -17.3945 C   0  0  0  0  0  0  0  0  0  0  0  0
   27.5516  -22.6649  -17.1564 C   0  0  0  0  0  0  0  0  0  0  0  0
   28.1747  -21.8395  -17.8690 O   0  0  0  0  0  0  0  0  0  0  0  0
   24.1229  -21.3072  -14.6616 C   0  0  0  0  0  0  0  0  0  0  0  0
   24.7377  -21.5759  -13.5902 O   0  0  0  0  0  0  0  0  0  0  0  0
   28.2554  -23.2817  -16.1322 O   0  0  0  0  0  0  0  0  0  0  0  0
   22.7486  -20.9741  -14.5982 N   0  0  0  0  0  0  0  0  0  0  0  0
   22.0678  -20.8701  -13.3487 C   0  0  1  0  0  0  0  0  0  0  0  0
   21.5596  -19.5011  -13.0473 C   0  0  0  0  0  0  0  0  0  0  0  0
   20.8496  -19.3056  -11.7988 C   0  0  0  0  0  0  0  0  0  0  0  0
   21.5694  -19.2760  -10.6249 C   0  0  0  0  0  0  0  0  0  0  0  0
   20.9395  -19.0919   -9.3948 C   0  0  0  0  0  0  0  0  0  0  0  0
   19.5722  -18.9339   -9.3249 C   0  0  0  0  0  0  0  0  0  0  0  0
   18.8837  -18.9688  -10.5193 C   0  0  0  0  0  0  0  0  0  0  0  0
   19.4707  -19.1465  -11.7307 C   0  0  0  0  0  0  0  0  0  0  0  0
   21.1134  -21.9751  -13.1066 C   0  0  0  0  0  0  0  0  0  0  0  0
   20.5060  -22.4882  -14.1115 O   0  0  0  0  0  0  0  0  0  0  0  0
   19.5571  -25.3760   -7.9018 N   0  0  0  0  0  0  0  0  0  0  0  0
   18.6637  -25.8227   -8.8852 C   0  0  0  0  0  0  0  0  0  0  0  0
   17.8517  -26.7307   -8.6514 O   0  0  0  0  0  0  0  0  0  0  0  0
   18.6772  -25.2054  -10.2423 C   0  0  0  0  0  0  0  0  0  0  0  0
   19.6727  -24.0880  -10.3317 C   0  0  0  0  0  0  0  0  0  0  0  0
   19.6946  -23.4956  -11.6855 C   0  0  2  0  0  0  0  0  0  0  0  0
   20.7934  -22.5435  -11.8551 N   0  0  0  0  0  0  0  0  0  0  0  0
   18.4052  -22.9325  -12.0710 C   0  0  0  0  0  0  0  0  0  0  0  0
   17.6145  -23.7107  -12.9352 O   0  0  0  0  0  0  0  0  0  0  0  0
   17.8997  -21.8500  -11.7419 O   0  0  0  0  0  0  0  0  0  0  0  0
  2  1  1  1
  3  2  1  0
  3  4  1  0
  4  5  1  0
  5  6  2  0
  5  9  1  0
  7  2  1  0
  7  8  2  0
 10  7  1  0
 11 19  1  0
 11 10  1  0
 11 12  1  6
 13 18  2  0
 13 12  1  0
 14 13  1  0
 15 14  2  0
 16 15  1  0
 16 17  2  0
 17 18  1  0
 19 27  1  0
 20 19  2  0
 22 21  1  0
 22 23  2  0
 24 25  1  0
 24 22  1  0
 26 25  1  1
 26 28  1  0
 27 26  1  0
 28 30  2  0
 28 29  1  0
M  END
$$$$
