EFQ.pdb
     RDKit          3D

 30 30  0  0  1  0  0  0  0  0999 V2000
   21.5940   -3.7809  -20.1578 N   0  0  0  0  0  0  0  0  0  0  0  0
   20.9291   -3.6201  -18.8927 C   0  0  1  0  0  0  0  0  0  0  0  0
   19.5291   -3.0994  -19.1391 C   0  0  0  0  0  0  0  0  0  0  0  0
   19.3866   -1.6527  -18.7765 C   0  0  0  0  0  0  0  0  0  0  0  0
   19.7085   -0.8314  -19.9705 C   0  0  0  0  0  0  0  0  0  0  0  0
   18.9308   -0.7669  -20.9545 O   0  0  0  0  0  0  0  0  0  0  0  0
   20.7906   -4.9331  -18.2077 C   0  0  0  0  0  0  0  0  0  0  0  0
   20.0554   -5.8123  -18.7411 O   0  0  0  0  0  0  0  0  0  0  0  0
   20.8869   -0.1024  -20.0407 O   0  0  0  0  0  0  0  0  0  0  0  0
   21.4458   -5.2345  -16.9896 N   0  0  0  0  0  0  0  0  0  0  0  0
   21.3198   -6.5171  -16.3776 C   0  0  1  0  0  0  0  0  0  0  0  0
   22.5107   -6.9279  -15.5800 C   0  0  0  0  0  0  0  0  0  0  0  0
   22.4866   -8.2372  -14.9585 C   0  0  0  0  0  0  0  0  0  0  0  0
   23.0074   -9.3085  -15.6499 C   0  0  0  0  0  0  0  0  0  0  0  0
   23.0103  -10.5904  -15.1021 C   0  0  0  0  0  0  0  0  0  0  0  0
   22.4883  -10.8167  -13.8468 C   0  0  0  0  0  0  0  0  0  0  0  0
   21.9756   -9.7217  -13.1836 C   0  0  0  0  0  0  0  0  0  0  0  0
   21.9597   -8.4630  -13.6926 C   0  0  0  0  0  0  0  0  0  0  0  0
   20.0081   -6.7301  -15.7258 C   0  0  0  0  0  0  0  0  0  0  0  0
   19.5315   -5.7932  -14.9928 O   0  0  0  0  0  0  0  0  0  0  0  0
   15.3466  -10.7350  -16.2684 N   0  0  0  0  0  0  0  0  0  0  0  0
   14.7902   -9.7543  -15.4356 C   0  0  0  0  0  0  0  0  0  0  0  0
   13.6686   -9.9034  -14.9274 O   0  0  0  0  0  0  0  0  0  0  0  0
   15.5477   -8.5033  -15.1457 C   0  0  0  0  0  0  0  0  0  0  0  0
   16.8248   -8.4362  -15.9280 C   0  0  0  0  0  0  0  0  0  0  0  0
   17.9607   -8.0418  -15.0688 C   0  0  2  0  0  0  0  0  0  0  0  0
   19.2011   -7.8831  -15.8297 N   0  0  0  0  0  0  0  0  0  0  0  0
   18.1227   -8.9217  -13.9165 C   0  0  0  0  0  0  0  0  0  0  0  0
   17.6763   -8.4234  -12.6796 O   0  0  0  0  0  0  0  0  0  0  0  0
   18.6056  -10.0620  -13.8706 O   0  0  0  0  0  0  0  0  0  0  0  0
  2  1  1  6
  3  2  1  0
  3  4  1  0
  4  5  1  0
  5  6  2  0
  5  9  1  0
  7  2  1  0
  7  8  2  0
 10  7  1  0
 11 19  1  0
 11 10  1  0
 11 12  1  1
 13 18  2  0
 13 12  1  0
 14 13  1  0
 15 14  2  0
 16 15  1  0
 16 17  2  0
 17 18  1  0
 19 27  1  0
 20 19  2  0
 22 21  1  0
 22 23  2  0
 24 25  1  0
 24 22  1  0
 26 25  1  6
 26 28  1  0
 27 26  1  0
 28 30  2  0
 28 29  1  0
M  END
$$$$
