GMY.pdb
     RDKit          3D

 25 25  0  0  1  0  0  0  0  0999 V2000
    6.4869  -16.6561   19.4054 N   0  0  0  0  0  0  0  0  0  0  0  0
    6.1140  -16.6821   20.8066 C   0  0  0  0  0  0  0  0  0  0  0  0
    7.1493  -15.9548   21.5953 C   0  0  0  0  0  0  0  0  0  0  0  0
    8.2735  -15.6873   21.0640 O   0  0  0  0  0  0  0  0  0  0  0  0
    7.0532  -11.5937   26.9426 C   0  0  0  0  0  0  0  0  0  0  0  0
    5.6947  -12.3544   25.9692 S   0  0  0  0  0  0  0  0  0  0  0  0
    6.3648  -13.2443   24.5678 C   0  0  0  0  0  0  0  0  0  0  0  0
    7.4676  -14.1959   24.8731 C   0  0  0  0  0  0  0  0  0  0  0  0
    8.0488  -14.9372   23.7231 C   0  0  2  0  0  0  0  0  0  0  0  0
    6.9433  -15.5368   22.9346 N   0  0  0  0  0  0  0  0  0  0  0  0
    9.0465  -15.9816   24.0394 C   0  0  0  0  0  0  0  0  0  0  0  0
    8.6277  -17.1201   24.4269 O   0  0  0  0  0  0  0  0  0  0  0  0
   10.7999  -16.9615   31.2693 O   0  0  0  0  0  0  0  0  0  0  0  0
   10.8444  -16.3999   29.9905 C   0  0  0  0  0  0  0  0  0  0  0  0
   10.6004  -17.1780   28.8757 C   0  0  0  0  0  0  0  0  0  0  0  0
   10.6437  -16.6260   27.6102 C   0  0  0  0  0  0  0  0  0  0  0  0
   10.9325  -15.2758   27.4094 C   0  0  0  0  0  0  0  0  0  0  0  0
   10.9787  -14.6931   26.0560 C   0  0  0  0  0  0  0  0  0  0  0  0
   11.4071  -15.5914   24.9649 C   0  0  2  0  0  0  0  0  0  0  0  0
   10.4397  -15.7963   23.9298 N   0  0  0  0  0  0  0  0  0  0  0  0
   12.1844  -16.7730   25.3832 C   0  0  0  0  0  0  0  0  0  0  0  0
   11.8662  -18.0617   24.9249 O   0  0  0  0  0  0  0  0  0  0  0  0
   11.1750  -14.5062   28.5308 C   0  0  0  0  0  0  0  0  0  0  0  0
   11.1295  -15.0671   29.7933 C   0  0  0  0  0  0  0  0  0  0  0  0
   13.1605  -16.7114   26.1618 O   0  0  0  0  0  0  0  0  0  0  0  0
  2  1  1  0
  3  2  1  0
  4  3  2  0
  5  6  1  0
  6  7  1  0
  7  8  1  0
  9  8  1  1
  9 11  1  0
  9 10  1  0
 10  3  1  0
 11 20  1  0
 12 11  2  0
 14 24  2  0
 14 13  1  0
 15 14  1  0
 16 17  1  0
 16 15  2  0
 17 23  2  0
 18 17  1  0
 19 18  1  1
 20 19  1  0
 21 22  1  0
 21 19  1  0
 23 24  1  0
 25 21  2  0
M  END
$$$$
