GMY.pdb
     RDKit          3D

 25 25  0  0  1  0  0  0  0  0999 V2000
   11.0632  -16.6530   14.1869 N   0  0  0  0  0  0  0  0  0  0  0  0
   10.1713  -17.1768   15.2033 C   0  0  0  0  0  0  0  0  0  0  0  0
   10.3507  -16.3886   16.4560 C   0  0  0  0  0  0  0  0  0  0  0  0
   11.5214  -16.0693   16.8371 O   0  0  0  0  0  0  0  0  0  0  0  0
    7.8818  -11.2711   19.6538 C   0  0  0  0  0  0  0  0  0  0  0  0
    7.2983  -12.6796   20.6771 S   0  0  0  0  0  0  0  0  0  0  0  0
    8.3651  -14.0974   20.4391 C   0  0  0  0  0  0  0  0  0  0  0  0
    8.2843  -14.7508   19.1043 C   0  0  0  0  0  0  0  0  0  0  0  0
    9.4828  -15.5075   18.6566 C   0  0  2  0  0  0  0  0  0  0  0  0
    9.2631  -15.9672   17.2624 N   0  0  0  0  0  0  0  0  0  0  0  0
    9.8957  -16.6562   19.4911 C   0  0  0  0  0  0  0  0  0  0  0  0
    9.0130  -17.5141   19.8177 O   0  0  0  0  0  0  0  0  0  0  0  0
   16.5835  -14.5425   17.3499 O   0  0  0  0  0  0  0  0  0  0  0  0
   15.5953  -14.7332   18.3194 C   0  0  0  0  0  0  0  0  0  0  0  0
   14.3866  -14.0714   18.2260 C   0  0  0  0  0  0  0  0  0  0  0  0
   13.4077  -14.2576   19.1826 C   0  0  0  0  0  0  0  0  0  0  0  0
   13.5984  -15.1117   20.2693 C   0  0  0  0  0  0  0  0  0  0  0  0
   12.5501  -15.3049   21.2878 C   0  0  0  0  0  0  0  0  0  0  0  0
   11.7890  -16.5687   21.2200 C   0  0  2  0  0  0  0  0  0  0  0  0
   11.2145  -16.8655   19.9427 N   0  0  0  0  0  0  0  0  0  0  0  0
   10.9618  -16.8762   22.4017 C   0  0  0  0  0  0  0  0  0  0  0  0
    9.6244  -17.2856   22.2760 O   0  0  0  0  0  0  0  0  0  0  0  0
   14.8106  -15.7689   20.3535 C   0  0  0  0  0  0  0  0  0  0  0  0
   15.7844  -15.5765   19.3916 C   0  0  0  0  0  0  0  0  0  0  0  0
   11.3846  -16.7934   23.5752 O   0  0  0  0  0  0  0  0  0  0  0  0
  2  1  1  0
  3  2  1  0
  4  3  2  0
  5  6  1  0
  6  7  1  0
  7  8  1  0
  9  8  1  1
  9 11  1  0
  9 10  1  0
 10  3  1  0
 11 20  1  0
 12 11  2  0
 14 24  2  0
 14 13  1  0
 15 14  1  0
 16 17  1  0
 16 15  2  0
 17 23  2  0
 18 17  1  0
 19 18  1  6
 20 19  1  0
 21 22  1  0
 21 19  1  0
 23 24  1  0
 25 21  2  0
M  END
$$$$
