GMY.pdb
     RDKit          3D

 25 25  0  0  1  0  0  0  0  0999 V2000
    7.5752  -16.3788   19.3323 N   0  0  0  0  0  0  0  0  0  0  0  0
    6.9400  -16.3712   20.6360 C   0  0  0  0  0  0  0  0  0  0  0  0
    7.7976  -15.6073   21.5866 C   0  0  0  0  0  0  0  0  0  0  0  0
    9.0516  -15.5362   21.3862 O   0  0  0  0  0  0  0  0  0  0  0  0
    6.3902  -11.4721   26.7648 C   0  0  0  0  0  0  0  0  0  0  0  0
    5.7584  -11.3727   25.0436 S   0  0  0  0  0  0  0  0  0  0  0  0
    6.6586  -12.5066   23.9906 C   0  0  0  0  0  0  0  0  0  0  0  0
    7.4500  -13.5525   24.6939 C   0  0  0  0  0  0  0  0  0  0  0  0
    8.1711  -14.5327   23.8400 C   0  0  2  0  0  0  0  0  0  0  0  0
    7.2790  -14.9418   22.7264 N   0  0  0  0  0  0  0  0  0  0  0  0
    8.7000  -15.7391   24.5116 C   0  0  0  0  0  0  0  0  0  0  0  0
    7.8710  -16.6112   24.9285 O   0  0  0  0  0  0  0  0  0  0  0  0
   12.8433  -17.4930   31.9370 O   0  0  0  0  0  0  0  0  0  0  0  0
   12.1453  -17.2752   30.7462 C   0  0  0  0  0  0  0  0  0  0  0  0
   12.0569  -18.2723   29.7946 C   0  0  0  0  0  0  0  0  0  0  0  0
   11.3677  -18.0603   28.6163 C   0  0  0  0  0  0  0  0  0  0  0  0
   10.7405  -16.8442   28.3432 C   0  0  0  0  0  0  0  0  0  0  0  0
   10.0078  -16.6237   27.0831 C   0  0  0  0  0  0  0  0  0  0  0  0
   10.7963  -16.1195   25.9407 C   0  0  2  0  0  0  0  0  0  0  0  0
   10.0729  -15.9885   24.7123 N   0  0  0  0  0  0  0  0  0  0  0  0
   12.1738  -16.6372   25.8419 C   0  0  0  0  0  0  0  0  0  0  0  0
   12.4338  -17.9704   25.4857 O   0  0  0  0  0  0  0  0  0  0  0  0
   10.8347  -15.8535   29.3014 C   0  0  0  0  0  0  0  0  0  0  0  0
   11.5264  -16.0746   30.4776 C   0  0  0  0  0  0  0  0  0  0  0  0
   13.1864  -15.9394   26.0661 O   0  0  0  0  0  0  0  0  0  0  0  0
  2  1  1  0
  3  2  1  0
  4  3  2  0
  5  6  1  0
  6  7  1  0
  7  8  1  0
  9  8  1  1
  9 11  1  0
  9 10  1  0
 10  3  1  0
 11 20  1  0
 12 11  2  0
 14 24  2  0
 14 13  1  0
 15 14  1  0
 16 17  1  0
 16 15  2  0
 17 23  2  0
 18 17  1  0
 19 18  1  1
 20 19  1  0
 21 22  1  0
 21 19  1  0
 23 24  1  0
 25 21  2  0
M  END
$$$$
