GMY.pdb
     RDKit          3D

 25 25  0  0  1  0  0  0  0  0999 V2000
   10.0781  -16.6163   19.6011 N   0  0  0  0  0  0  0  0  0  0  0  0
    8.9800  -16.9028   20.5041 C   0  0  0  0  0  0  0  0  0  0  0  0
    9.0186  -15.9316   21.6346 C   0  0  0  0  0  0  0  0  0  0  0  0
   10.1334  -15.6267   22.1655 O   0  0  0  0  0  0  0  0  0  0  0  0
    7.1856  -10.9618   26.7344 C   0  0  0  0  0  0  0  0  0  0  0  0
    7.5746  -11.8945   25.2014 S   0  0  0  0  0  0  0  0  0  0  0  0
    6.3993  -13.2259   24.9755 C   0  0  0  0  0  0  0  0  0  0  0  0
    6.5511  -14.0173   23.7242 C   0  0  0  0  0  0  0  0  0  0  0  0
    7.8943  -14.5959   23.4578 C   0  0  2  0  0  0  0  0  0  0  0  0
    7.8541  -15.3169   22.1609 N   0  0  0  0  0  0  0  0  0  0  0  0
    8.4536  -15.4875   24.4962 C   0  0  0  0  0  0  0  0  0  0  0  0
    7.6447  -16.1414   25.2310 O   0  0  0  0  0  0  0  0  0  0  0  0
   12.4414  -17.3849   31.9584 O   0  0  0  0  0  0  0  0  0  0  0  0
   11.7853  -17.1841   30.7411 C   0  0  0  0  0  0  0  0  0  0  0  0
   11.3264  -15.9288   30.3924 C   0  0  0  0  0  0  0  0  0  0  0  0
   10.6773  -15.7269   29.1899 C   0  0  0  0  0  0  0  0  0  0  0  0
   10.4614  -16.7707   28.2896 C   0  0  0  0  0  0  0  0  0  0  0  0
    9.7665  -16.5488   27.0084 C   0  0  0  0  0  0  0  0  0  0  0  0
   10.5326  -15.8546   25.9538 C   0  0  2  0  0  0  0  0  0  0  0  0
    9.8342  -15.6657   24.7184 N   0  0  0  0  0  0  0  0  0  0  0  0
   11.9569  -16.2245   25.8553 C   0  0  0  0  0  0  0  0  0  0  0  0
   12.5819  -16.4167   24.6125 O   0  0  0  0  0  0  0  0  0  0  0  0
   10.9242  -18.0221   28.6478 C   0  0  0  0  0  0  0  0  0  0  0  0
   11.5727  -18.2150   29.8531 C   0  0  0  0  0  0  0  0  0  0  0  0
   12.6925  -16.3919   26.8521 O   0  0  0  0  0  0  0  0  0  0  0  0
  2  1  1  0
  3  2  1  0
  4  3  2  0
  5  6  1  0
  6  7  1  0
  7  8  1  0
  9  8  1  1
  9 11  1  0
  9 10  1  0
 10  3  1  0
 11 20  1  0
 12 11  2  0
 14 24  2  0
 14 13  1  0
 15 14  1  0
 16 17  1  0
 16 15  2  0
 17 23  2  0
 18 17  1  0
 19 18  1  6
 20 19  1  0
 21 22  1  0
 21 19  1  0
 23 24  1  0
 25 21  2  0
M  END
$$$$
