GMY.pdb
     RDKit          3D

 25 25  0  0  1  0  0  0  0  0999 V2000
    7.8053  -19.5994   19.5946 N   0  0  0  0  0  0  0  0  0  0  0  0
    7.1023  -18.9275   20.6704 C   0  0  0  0  0  0  0  0  0  0  0  0
    7.8048  -17.6500   20.9826 C   0  0  0  0  0  0  0  0  0  0  0  0
    9.0570  -17.6578   21.2053 O   0  0  0  0  0  0  0  0  0  0  0  0
    8.6231  -11.1973   19.6544 C   0  0  0  0  0  0  0  0  0  0  0  0
    8.4758  -12.9402   19.0958 S   0  0  0  0  0  0  0  0  0  0  0  0
    6.9990  -13.6842   19.7817 C   0  0  0  0  0  0  0  0  0  0  0  0
    7.0473  -13.9950   21.2364 C   0  0  0  0  0  0  0  0  0  0  0  0
    7.8025  -15.2116   21.6355 C   0  0  2  0  0  0  0  0  0  0  0  0
    7.1374  -16.4005   21.0460 N   0  0  0  0  0  0  0  0  0  0  0  0
    7.9978  -15.4289   23.0850 C   0  0  0  0  0  0  0  0  0  0  0  0
    7.0358  -15.1531   23.8725 O   0  0  0  0  0  0  0  0  0  0  0  0
    5.9743  -10.9231   27.0213 O   0  0  0  0  0  0  0  0  0  0  0  0
    6.6048  -12.1459   26.7767 C   0  0  0  0  0  0  0  0  0  0  0  0
    7.9800  -12.2144   26.6669 C   0  0  0  0  0  0  0  0  0  0  0  0
    8.6064  -13.4216   26.4250 C   0  0  0  0  0  0  0  0  0  0  0  0
    7.8836  -14.6066   26.2834 C   0  0  0  0  0  0  0  0  0  0  0  0
    8.5581  -15.8916   26.0239 C   0  0  0  0  0  0  0  0  0  0  0  0
    9.6321  -15.8803   25.0102 C   0  0  2  0  0  0  0  0  0  0  0  0
    9.1866  -15.9329   23.6508 N   0  0  0  0  0  0  0  0  0  0  0  0
   10.8278  -16.6771   25.3428 C   0  0  0  0  0  0  0  0  0  0  0  0
   11.5017  -17.4320   24.3692 O   0  0  0  0  0  0  0  0  0  0  0  0
    6.5089  -14.5274   26.3951 C   0  0  0  0  0  0  0  0  0  0  0  0
    5.8906  -13.3151   26.6373 C   0  0  0  0  0  0  0  0  0  0  0  0
   11.3141  -16.7369   26.4928 O   0  0  0  0  0  0  0  0  0  0  0  0
  2  1  1  0
  3  2  1  0
  4  3  2  0
  5  6  1  0
  6  7  1  0
  7  8  1  0
  9  8  1  1
  9 11  1  0
  9 10  1  0
 10  3  1  0
 11 20  1  0
 12 11  2  0
 14 24  2  0
 14 13  1  0
 15 14  1  0
 16 17  1  0
 16 15  2  0
 17 23  2  0
 18 17  1  0
 19 18  1  1
 20 19  1  0
 21 22  1  0
 21 19  1  0
 23 24  1  0
 25 21  2  0
M  END
$$$$
