GMY.pdb
     RDKit          3D

 25 25  0  0  1  0  0  0  0  0999 V2000
    5.9466  -20.3991   20.6710 N   0  0  0  0  0  0  0  0  0  0  0  0
    5.6216  -19.3596   21.6286 C   0  0  0  0  0  0  0  0  0  0  0  0
    6.6046  -18.2476   21.4862 C   0  0  0  0  0  0  0  0  0  0  0  0
    7.8495  -18.4918   21.5767 O   0  0  0  0  0  0  0  0  0  0  0  0
    8.9955  -11.2908   19.4324 C   0  0  0  0  0  0  0  0  0  0  0  0
    8.0298  -12.8482   19.3174 S   0  0  0  0  0  0  0  0  0  0  0  0
    7.4499  -13.3345   20.9398 C   0  0  0  0  0  0  0  0  0  0  0  0
    6.5640  -14.5298   20.9785 C   0  0  0  0  0  0  0  0  0  0  0  0
    7.1568  -15.7845   21.5114 C   0  0  2  0  0  0  0  0  0  0  0  0
    6.2175  -16.9039   21.2507 N   0  0  0  0  0  0  0  0  0  0  0  0
    7.5368  -15.7875   22.9403 C   0  0  0  0  0  0  0  0  0  0  0  0
    6.6327  -15.5552   23.8066 O   0  0  0  0  0  0  0  0  0  0  0  0
   11.1366  -14.7831   30.8325 O   0  0  0  0  0  0  0  0  0  0  0  0
   10.5144  -14.9949   29.5993 C   0  0  0  0  0  0  0  0  0  0  0  0
    9.8780  -13.9557   28.9491 C   0  0  0  0  0  0  0  0  0  0  0  0
    9.2619  -14.1617   27.7300 C   0  0  0  0  0  0  0  0  0  0  0  0
    9.2577  -15.4134   27.1135 C   0  0  0  0  0  0  0  0  0  0  0  0
    8.5970  -15.6271   25.8130 C   0  0  0  0  0  0  0  0  0  0  0  0
    9.4678  -15.6129   24.6202 C   0  0  2  0  0  0  0  0  0  0  0  0
    8.8431  -16.0413   23.4055 N   0  0  0  0  0  0  0  0  0  0  0  0
   10.8552  -16.0618   24.8413 C   0  0  0  0  0  0  0  0  0  0  0  0
   11.8482  -15.1808   25.2992 O   0  0  0  0  0  0  0  0  0  0  0  0
    9.8970  -16.4460   27.7720 C   0  0  0  0  0  0  0  0  0  0  0  0
   10.5109  -16.2307   28.9915 C   0  0  0  0  0  0  0  0  0  0  0  0
   11.2372  -17.2346   24.6383 O   0  0  0  0  0  0  0  0  0  0  0  0
  2  1  1  0
  3  2  1  0
  4  3  2  0
  5  6  1  0
  6  7  1  0
  7  8  1  0
  9  8  1  1
  9 11  1  0
  9 10  1  0
 10  3  1  0
 11 20  1  0
 12 11  2  0
 14 24  2  0
 14 13  1  0
 15 14  1  0
 16 17  1  0
 16 15  2  0
 17 23  2  0
 18 17  1  0
 19 18  1  1
 20 19  1  0
 21 22  1  0
 21 19  1  0
 23 24  1  0
 25 21  2  0
M  END
$$$$
