GMY.pdb
     RDKit          3D

 25 25  0  0  1  0  0  0  0  0999 V2000
    9.7574  -15.9584   19.8682 N   0  0  0  0  0  0  0  0  0  0  0  0
    8.5922  -16.2417   20.6838 C   0  0  0  0  0  0  0  0  0  0  0  0
    8.7684  -15.5990   22.0174 C   0  0  0  0  0  0  0  0  0  0  0  0
    9.9333  -15.4936   22.5170 O   0  0  0  0  0  0  0  0  0  0  0  0
    7.8194  -11.7464   28.1915 C   0  0  0  0  0  0  0  0  0  0  0  0
    7.9987  -12.3264   26.4587 S   0  0  0  0  0  0  0  0  0  0  0  0
    6.6667  -13.4483   26.0438 C   0  0  0  0  0  0  0  0  0  0  0  0
    6.6592  -13.9538   24.6440 C   0  0  0  0  0  0  0  0  0  0  0  0
    7.8641  -14.7005   24.1962 C   0  0  2  0  0  0  0  0  0  0  0  0
    7.6838  -15.0884   22.7749 N   0  0  0  0  0  0  0  0  0  0  0  0
    8.2400  -15.8933   24.9850 C   0  0  0  0  0  0  0  0  0  0  0  0
    7.5112  -16.9335   24.8923 O   0  0  0  0  0  0  0  0  0  0  0  0
   15.1882  -15.9879   23.0383 O   0  0  0  0  0  0  0  0  0  0  0  0
   14.0803  -16.4897   23.7263 C   0  0  0  0  0  0  0  0  0  0  0  0
   13.0207  -17.0450   23.0359 C   0  0  0  0  0  0  0  0  0  0  0  0
   11.9239  -17.5419   23.7128 C   0  0  0  0  0  0  0  0  0  0  0  0
   11.8431  -17.5033   25.1052 C   0  0  0  0  0  0  0  0  0  0  0  0
   10.6690  -18.0340   25.8217 C   0  0  0  0  0  0  0  0  0  0  0  0
    9.8678  -17.0591   26.5889 C   0  0  2  0  0  0  0  0  0  0  0  0
    9.3660  -15.9530   25.8311 N   0  0  0  0  0  0  0  0  0  0  0  0
   10.3625  -16.7578   27.9453 C   0  0  0  0  0  0  0  0  0  0  0  0
   10.8080  -17.7730   28.8072 O   0  0  0  0  0  0  0  0  0  0  0  0
   12.9081  -16.9460   25.7863 C   0  0  0  0  0  0  0  0  0  0  0  0
   14.0015  -16.4512   25.1006 C   0  0  0  0  0  0  0  0  0  0  0  0
   10.4165  -15.6003   28.4143 O   0  0  0  0  0  0  0  0  0  0  0  0
  2  1  1  0
  3  2  1  0
  4  3  2  0
  5  6  1  0
  6  7  1  0
  7  8  1  0
  9  8  1  1
  9 11  1  0
  9 10  1  0
 10  3  1  0
 11 20  1  0
 12 11  2  0
 14 24  2  0
 14 13  1  0
 15 14  1  0
 16 17  1  0
 16 15  2  0
 17 23  2  0
 18 17  1  0
 19 18  1  6
 20 19  1  0
 21 22  1  0
 21 19  1  0
 23 24  1  0
 25 21  2  0
M  END
$$$$
