GMY.pdb
     RDKit          3D

 25 25  0  0  1  0  0  0  0  0999 V2000
    7.3113  -19.7940   21.7567 N   0  0  0  0  0  0  0  0  0  0  0  0
    7.1249  -19.3949   23.1383 C   0  0  0  0  0  0  0  0  0  0  0  0
    7.2088  -17.9090   23.2272 C   0  0  0  0  0  0  0  0  0  0  0  0
    7.6066  -17.2392   22.2219 O   0  0  0  0  0  0  0  0  0  0  0  0
    6.6227  -10.9925   26.3509 C   0  0  0  0  0  0  0  0  0  0  0  0
    7.1877  -12.7210   26.0967 S   0  0  0  0  0  0  0  0  0  0  0  0
    5.8114  -13.7518   25.5986 C   0  0  0  0  0  0  0  0  0  0  0  0
    6.0827  -15.2144   25.5513 C   0  0  0  0  0  0  0  0  0  0  0  0
    6.9142  -15.7041   24.4206 C   0  0  2  0  0  0  0  0  0  0  0  0
    6.8617  -17.1874   24.3976 N   0  0  0  0  0  0  0  0  0  0  0  0
    8.3255  -15.2640   24.3919 C   0  0  0  0  0  0  0  0  0  0  0  0
    8.5714  -14.0382   24.1492 O   0  0  0  0  0  0  0  0  0  0  0  0
   10.7381  -16.3971   31.1228 O   0  0  0  0  0  0  0  0  0  0  0  0
   10.8559  -16.0131   29.7844 C   0  0  0  0  0  0  0  0  0  0  0  0
   10.7922  -14.6793   29.4310 C   0  0  0  0  0  0  0  0  0  0  0  0
   10.9081  -14.2963   28.1089 C   0  0  0  0  0  0  0  0  0  0  0  0
   11.0921  -15.2304   27.0890 C   0  0  0  0  0  0  0  0  0  0  0  0
   11.2137  -14.8152   25.6796 C   0  0  0  0  0  0  0  0  0  0  0  0
   10.8175  -15.8096   24.6621 C   0  0  2  0  0  0  0  0  0  0  0  0
    9.4205  -16.1203   24.6261 N   0  0  0  0  0  0  0  0  0  0  0  0
   11.7483  -16.9394   24.4819 C   0  0  0  0  0  0  0  0  0  0  0  0
   11.2860  -18.2595   24.3569 O   0  0  0  0  0  0  0  0  0  0  0  0
   11.1546  -16.5617   27.4529 C   0  0  0  0  0  0  0  0  0  0  0  0
   11.0376  -16.9358   28.7784 C   0  0  0  0  0  0  0  0  0  0  0  0
   12.9900  -16.8037   24.4311 O   0  0  0  0  0  0  0  0  0  0  0  0
  2  1  1  0
  3  2  1  0
  4  3  2  0
  5  6  1  0
  6  7  1  0
  7  8  1  0
  9  8  1  1
  9 11  1  0
  9 10  1  0
 10  3  1  0
 11 20  1  0
 12 11  2  0
 14 24  2  0
 14 13  1  0
 15 14  1  0
 16 17  1  0
 16 15  2  0
 17 23  2  0
 18 17  1  0
 19 18  1  1
 20 19  1  0
 21 22  1  0
 21 19  1  0
 23 24  1  0
 25 21  2  0
M  END
$$$$
