GMY.pdb
     RDKit          3D

 25 25  0  0  1  0  0  0  0  0999 V2000
    6.3903  -20.0704   22.9379 N   0  0  0  0  0  0  0  0  0  0  0  0
    6.5150  -19.4013   24.2185 C   0  0  0  0  0  0  0  0  0  0  0  0
    7.0035  -18.0111   23.9913 C   0  0  0  0  0  0  0  0  0  0  0  0
    8.0053  -17.8113   23.2335 O   0  0  0  0  0  0  0  0  0  0  0  0
    6.5869  -10.4108   26.4654 C   0  0  0  0  0  0  0  0  0  0  0  0
    5.6951  -11.9866   26.1608 S   0  0  0  0  0  0  0  0  0  0  0  0
    6.8347  -13.2354   25.5720 C   0  0  0  0  0  0  0  0  0  0  0  0
    6.2455  -14.5768   25.3100 C   0  0  0  0  0  0  0  0  0  0  0  0
    7.1645  -15.6195   24.7828 C   0  0  2  0  0  0  0  0  0  0  0  0
    6.3984  -16.8758   24.5878 N   0  0  0  0  0  0  0  0  0  0  0  0
    8.3765  -15.9043   25.5804 C   0  0  0  0  0  0  0  0  0  0  0  0
    8.2853  -15.8741   26.8503 O   0  0  0  0  0  0  0  0  0  0  0  0
   11.0648  -18.6234   30.8610 O   0  0  0  0  0  0  0  0  0  0  0  0
   11.0858  -17.7233   29.7923 C   0  0  0  0  0  0  0  0  0  0  0  0
    9.9708  -17.5594   28.9937 C   0  0  0  0  0  0  0  0  0  0  0  0
    9.9881  -16.6706   27.9364 C   0  0  0  0  0  0  0  0  0  0  0  0
   11.1196  -15.9115   27.6359 C   0  0  0  0  0  0  0  0  0  0  0  0
   11.1322  -14.9657   26.5051 C   0  0  0  0  0  0  0  0  0  0  0  0
   10.8811  -15.5350   25.1657 C   0  0  2  0  0  0  0  0  0  0  0  0
    9.6311  -16.2172   25.0189 N   0  0  0  0  0  0  0  0  0  0  0  0
   12.0488  -16.1508   24.5082 C   0  0  0  0  0  0  0  0  0  0  0  0
   11.9648  -17.4084   23.8889 O   0  0  0  0  0  0  0  0  0  0  0  0
   12.2294  -16.0828   28.4407 C   0  0  0  0  0  0  0  0  0  0  0  0
   12.2030  -16.9745   29.4965 C   0  0  0  0  0  0  0  0  0  0  0  0
   13.1738  -15.6080   24.4591 O   0  0  0  0  0  0  0  0  0  0  0  0
  2  1  1  0
  3  2  1  0
  4  3  2  0
  5  6  1  0
  6  7  1  0
  7  8  1  0
  9  8  1  1
  9 11  1  0
  9 10  1  0
 10  3  1  0
 11 20  1  0
 12 11  2  0
 14 24  2  0
 14 13  1  0
 15 14  1  0
 16 17  1  0
 16 15  2  0
 17 23  2  0
 18 17  1  0
 19 18  1  1
 20 19  1  0
 21 22  1  0
 21 19  1  0
 23 24  1  0
 25 21  2  0
M  END
$$$$
