GMY.pdb
     RDKit          3D

 25 25  0  0  1  0  0  0  0  0999 V2000
    9.1116  -16.1539   18.6054 N   0  0  0  0  0  0  0  0  0  0  0  0
    8.2989  -16.7045   19.6728 C   0  0  0  0  0  0  0  0  0  0  0  0
    8.5463  -15.9249   20.9193 C   0  0  0  0  0  0  0  0  0  0  0  0
    9.7383  -15.6334   21.2540 O   0  0  0  0  0  0  0  0  0  0  0  0
    7.1586  -11.4894   26.8112 C   0  0  0  0  0  0  0  0  0  0  0  0
    7.0911  -12.1171   25.0870 S   0  0  0  0  0  0  0  0  0  0  0  0
    6.6177  -13.8435   25.0781 C   0  0  0  0  0  0  0  0  0  0  0  0
    6.5216  -14.4809   23.7366 C   0  0  0  0  0  0  0  0  0  0  0  0
    7.8031  -14.8219   23.0648 C   0  0  2  0  0  0  0  0  0  0  0  0
    7.5017  -15.4819   21.7699 N   0  0  0  0  0  0  0  0  0  0  0  0
    8.7547  -15.6563   23.8294 C   0  0  0  0  0  0  0  0  0  0  0  0
    8.4909  -16.8934   23.9764 O   0  0  0  0  0  0  0  0  0  0  0  0
   11.9575  -17.0748   31.7778 O   0  0  0  0  0  0  0  0  0  0  0  0
   11.4170  -16.6316   30.5678 C   0  0  0  0  0  0  0  0  0  0  0  0
   10.9394  -17.5378   29.6413 C   0  0  0  0  0  0  0  0  0  0  0  0
   10.4047  -17.1032   28.4441 C   0  0  0  0  0  0  0  0  0  0  0  0
   10.3264  -15.7469   28.1262 C   0  0  0  0  0  0  0  0  0  0  0  0
    9.7558  -15.2894   26.8461 C   0  0  0  0  0  0  0  0  0  0  0  0
   10.5701  -15.5289   25.6375 C   0  0  2  0  0  0  0  0  0  0  0  0
    9.9462  -15.1658   24.4013 N   0  0  0  0  0  0  0  0  0  0  0  0
   11.3546  -16.7779   25.6374 C   0  0  0  0  0  0  0  0  0  0  0  0
   10.7319  -18.0366   25.6403 O   0  0  0  0  0  0  0  0  0  0  0  0
   10.8067  -14.8487   29.0596 C   0  0  0  0  0  0  0  0  0  0  0  0
   11.3401  -15.2927   30.2550 C   0  0  0  0  0  0  0  0  0  0  0  0
   12.6044  -16.8028   25.6370 O   0  0  0  0  0  0  0  0  0  0  0  0
  2  1  1  0
  3  2  1  0
  4  3  2  0
  5  6  1  0
  6  7  1  0
  7  8  1  0
  9  8  1  1
  9 11  1  0
  9 10  1  0
 10  3  1  0
 11 20  1  0
 12 11  2  0
 14 24  2  0
 14 13  1  0
 15 14  1  0
 16 17  1  0
 16 15  2  0
 17 23  2  0
 18 17  1  0
 19 18  1  1
 20 19  1  0
 21 22  1  0
 21 19  1  0
 23 24  1  0
 25 21  2  0
M  END
$$$$
