SAE.pdb
     RDKit          3D

 21 20  0  0  1  0  0  0  0  0999 V2000
   18.2510  -11.2350  -19.1916 O   0  0  0  0  0  0  0  0  0  0  0  0
   18.3727  -10.5012  -18.0272 C   0  0  0  0  0  0  0  0  0  0  0  0
   18.9130  -11.4217  -16.9538 C   0  0  2  0  0  0  0  0  0  0  0  0
   17.7725  -12.0445  -16.3078 N   0  0  0  0  0  0  0  0  0  0  0  0
   19.6425  -10.5584  -15.9672 C   0  0  0  0  0  0  0  0  0  0  0  0
   18.9814   -9.9469  -15.0916 O   0  0  0  0  0  0  0  0  0  0  0  0
   23.2166   -9.9094  -15.1086 C   0  0  0  0  0  0  0  0  0  0  0  0
   21.7618   -9.5121  -15.0782 C   0  0  2  0  0  0  0  0  0  0  0  0
   21.0417  -10.3959  -15.9710 N   0  0  0  0  0  0  0  0  0  0  0  0
   21.5538   -8.0847  -15.4243 C   0  0  0  0  0  0  0  0  0  0  0  0
   21.5322   -7.7280  -16.6298 O   0  0  0  0  0  0  0  0  0  0  0  0
   21.3723   -7.0658  -14.4528 N   0  0  0  0  0  0  0  0  0  0  0  0
   21.2507   -5.6533  -14.7702 C   0  0  1  0  0  0  0  0  0  0  0  0
   19.8241   -5.2388  -14.5691 C   0  0  0  0  0  0  0  0  0  0  0  0
   18.9370   -5.4152  -15.7515 C   0  0  0  0  0  0  0  0  0  0  0  0
   17.5234   -5.0583  -15.5064 C   0  0  0  0  0  0  0  0  0  0  0  0
   16.6964   -4.7297  -16.3906 O   0  0  0  0  0  0  0  0  0  0  0  0
   22.2076   -4.8407  -13.9668 C   0  0  0  0  0  0  0  0  0  0  0  0
   22.6493   -5.2367  -12.8448 O   0  0  0  0  0  0  0  0  0  0  0  0
   17.0691   -5.0872  -14.1971 O   0  0  0  0  0  0  0  0  0  0  0  0
   22.6615   -3.6098  -14.4103 O   0  0  0  0  0  0  0  0  0  0  0  0
  1  2  1  0
  2  3  1  0
  3  4  1  1
  5  3  1  0
  5  6  2  0
  8  7  1  6
  8 10  1  0
  8  9  1  0
  9  5  1  0
 10 12  1  0
 11 10  2  0
 12 13  1  0
 13 14  1  1
 14 15  1  0
 15 16  1  0
 16 20  1  0
 17 16  2  0
 18 13  1  0
 19 18  2  0
 21 18  1  0
M  END
$$$$
