SAE.pdb
     RDKit          3D

 21 20  0  0  1  0  0  0  0  0999 V2000
   18.3945  -10.3425  -18.4502 O   0  0  0  0  0  0  0  0  0  0  0  0
   17.8918  -11.2701  -17.5579 C   0  0  0  0  0  0  0  0  0  0  0  0
   19.0583  -11.8527  -16.7890 C   0  0  2  0  0  0  0  0  0  0  0  0
   18.5540  -12.9870  -16.0373 N   0  0  0  0  0  0  0  0  0  0  0  0
   19.5297  -10.7890  -15.8418 C   0  0  0  0  0  0  0  0  0  0  0  0
   18.6777  -10.1446  -15.1812 O   0  0  0  0  0  0  0  0  0  0  0  0
   22.7615   -9.7605  -14.3492 C   0  0  0  0  0  0  0  0  0  0  0  0
   21.3657   -9.4053  -14.7972 C   0  0  2  0  0  0  0  0  0  0  0  0
   20.8892  -10.4720  -15.6526 N   0  0  0  0  0  0  0  0  0  0  0  0
   21.3022   -8.0848  -15.4702 C   0  0  0  0  0  0  0  0  0  0  0  0
   21.5754   -7.9903  -16.6938 O   0  0  0  0  0  0  0  0  0  0  0  0
   20.9422   -6.8858  -14.8011 N   0  0  0  0  0  0  0  0  0  0  0  0
   20.9965   -5.5679  -15.4103 C   0  0  1  0  0  0  0  0  0  0  0  0
   19.8133   -4.7753  -14.9422 C   0  0  0  0  0  0  0  0  0  0  0  0
   19.7253   -3.3879  -15.4746 C   0  0  0  0  0  0  0  0  0  0  0  0
   18.5407   -2.6352  -15.0100 C   0  0  0  0  0  0  0  0  0  0  0  0
   17.7698   -1.9733  -15.7458 O   0  0  0  0  0  0  0  0  0  0  0  0
   22.2947   -4.8968  -15.1172 C   0  0  0  0  0  0  0  0  0  0  0  0
   22.8751   -5.0160  -13.9949 O   0  0  0  0  0  0  0  0  0  0  0  0
   18.2533   -2.6584  -13.6542 O   0  0  0  0  0  0  0  0  0  0  0  0
   22.9307   -4.1081  -16.0614 O   0  0  0  0  0  0  0  0  0  0  0  0
  1  2  1  0
  2  3  1  0
  3  4  1  1
  5  3  1  0
  5  6  2  0
  8  7  1  6
  8 10  1  0
  8  9  1  0
  9  5  1  0
 10 12  1  0
 11 10  2  0
 12 13  1  0
 13 14  1  1
 14 15  1  0
 15 16  1  0
 16 20  1  0
 17 16  2  0
 18 13  1  0
 19 18  2  0
 21 18  1  0
M  END
$$$$
