SAE.pdb
     RDKit          3D

 21 20  0  0  1  0  0  0  0  0999 V2000
   25.1980  -16.8082  -18.9405 O   0  0  0  0  0  0  0  0  0  0  0  0
   24.9845  -15.6901  -18.1572 C   0  0  0  0  0  0  0  0  0  0  0  0
   25.9869  -15.7203  -17.0234 C   0  0  2  0  0  0  0  0  0  0  0  0
   25.6074  -16.8097  -16.1430 N   0  0  0  0  0  0  0  0  0  0  0  0
   25.8592  -14.4149  -16.2950 C   0  0  0  0  0  0  0  0  0  0  0  0
   24.7961  -14.1694  -15.6728 O   0  0  0  0  0  0  0  0  0  0  0  0
   28.0928  -11.4609  -15.7155 C   0  0  0  0  0  0  0  0  0  0  0  0
   26.7506  -12.1448  -15.6404 C   0  0  2  0  0  0  0  0  0  0  0  0
   26.8773  -13.4417  -16.2718 N   0  0  0  0  0  0  0  0  0  0  0  0
   25.6648  -11.3365  -16.2473 C   0  0  0  0  0  0  0  0  0  0  0  0
   25.4795  -11.3670  -17.4905 O   0  0  0  0  0  0  0  0  0  0  0  0
   24.7959  -10.5064  -15.4917 N   0  0  0  0  0  0  0  0  0  0  0  0
   23.7407   -9.6937  -16.0721 C   0  0  1  0  0  0  0  0  0  0  0  0
   22.7430   -9.3691  -15.0013 C   0  0  0  0  0  0  0  0  0  0  0  0
   21.5791   -8.5522  -15.4419 C   0  0  0  0  0  0  0  0  0  0  0  0
   20.6869   -8.1270  -14.3424 C   0  0  0  0  0  0  0  0  0  0  0  0
   20.9161   -7.1830  -13.5486 O   0  0  0  0  0  0  0  0  0  0  0  0
   24.3016   -8.4782  -16.7274 C   0  0  0  0  0  0  0  0  0  0  0  0
   25.4164   -7.9809  -16.3803 O   0  0  0  0  0  0  0  0  0  0  0  0
   19.5006   -8.8229  -14.1693 O   0  0  0  0  0  0  0  0  0  0  0  0
   23.6284   -7.8323  -17.7509 O   0  0  0  0  0  0  0  0  0  0  0  0
  1  2  1  0
  2  3  1  0
  3  4  1  1
  5  3  1  0
  5  6  2  0
  8  7  1  6
  8 10  1  0
  8  9  1  0
  9  5  1  0
 10 12  1  0
 11 10  2  0
 12 13  1  0
 13 14  1  1
 14 15  1  0
 15 16  1  0
 16 20  1  0
 17 16  2  0
 18 13  1  0
 19 18  2  0
 21 18  1  0
M  END
$$$$
