SAE.pdb
     RDKit          3D

 21 20  0  0  1  0  0  0  0  0999 V2000
   17.1202  -10.5942  -11.7184 O   0  0  0  0  0  0  0  0  0  0  0  0
   17.0277  -10.7138  -10.3450 C   0  0  0  0  0  0  0  0  0  0  0  0
   15.6149  -10.3487   -9.9423 C   0  0  2  0  0  0  0  0  0  0  0  0
   14.7185  -11.0070  -10.8745 N   0  0  0  0  0  0  0  0  0  0  0  0
   15.4915   -8.8607  -10.0889 C   0  0  0  0  0  0  0  0  0  0  0  0
   15.0057   -8.3942  -11.1491 O   0  0  0  0  0  0  0  0  0  0  0  0
   15.3150   -5.9473   -7.9264 C   0  0  0  0  0  0  0  0  0  0  0  0
   15.8293   -6.5112   -9.2274 C   0  0  2  0  0  0  0  0  0  0  0  0
   15.8953   -7.9513   -9.0918 N   0  0  0  0  0  0  0  0  0  0  0  0
   17.1362   -5.9311   -9.6225 C   0  0  0  0  0  0  0  0  0  0  0  0
   18.1768   -6.2375   -8.9866 O   0  0  0  0  0  0  0  0  0  0  0  0
   17.2917   -5.0255  -10.7044 N   0  0  0  0  0  0  0  0  0  0  0  0
   18.5779   -4.6035  -11.2320 C   0  0  1  0  0  0  0  0  0  0  0  0
   19.1666   -5.7350  -12.0197 C   0  0  0  0  0  0  0  0  0  0  0  0
   20.4854   -5.4537  -12.6501 C   0  0  0  0  0  0  0  0  0  0  0  0
   21.0810   -6.6115  -13.3505 C   0  0  0  0  0  0  0  0  0  0  0  0
   21.4838   -6.6095  -14.5386 O   0  0  0  0  0  0  0  0  0  0  0  0
   18.4435   -3.3519  -12.0300 C   0  0  0  0  0  0  0  0  0  0  0  0
   17.3517   -3.0238  -12.5877 O   0  0  0  0  0  0  0  0  0  0  0  0
   21.2074   -7.7971  -12.6436 O   0  0  0  0  0  0  0  0  0  0  0  0
   19.5097   -2.4846  -12.2004 O   0  0  0  0  0  0  0  0  0  0  0  0
  1  2  1  0
  2  3  1  0
  3  4  1  6
  5  3  1  0
  5  6  2  0
  8  7  1  1
  8 10  1  0
  8  9  1  0
  9  5  1  0
 10 12  1  0
 11 10  2  0
 12 13  1  0
 13 14  1  6
 14 15  1  0
 15 16  1  0
 16 20  1  0
 17 16  2  0
 18 13  1  0
 19 18  2  0
 21 18  1  0
M  END
$$$$
