SAE.pdb
     RDKit          3D

 21 20  0  0  1  0  0  0  0  0999 V2000
   17.9021  -14.4903  -14.4766 O   0  0  0  0  0  0  0  0  0  0  0  0
   18.4929  -13.2711  -14.7481 C   0  0  0  0  0  0  0  0  0  0  0  0
   18.5903  -13.1280  -16.2519 C   0  0  2  0  0  0  0  0  0  0  0  0
   19.6036  -14.0616  -16.7077 N   0  0  0  0  0  0  0  0  0  0  0  0
   19.0383  -11.7229  -16.5270 C   0  0  0  0  0  0  0  0  0  0  0  0
   20.2621  -11.4507  -16.4499 O   0  0  0  0  0  0  0  0  0  0  0  0
   17.3547   -8.5637  -17.6329 C   0  0  0  0  0  0  0  0  0  0  0  0
   18.5557   -9.3150  -17.1148 C   0  0  2  0  0  0  0  0  0  0  0  0
   18.1514  -10.6837  -16.8702 N   0  0  0  0  0  0  0  0  0  0  0  0
   19.1431   -8.6861  -15.9064 C   0  0  0  0  0  0  0  0  0  0  0  0
   18.7239   -9.0068  -14.7652 O   0  0  0  0  0  0  0  0  0  0  0  0
   20.1787   -7.7167  -15.9578 N   0  0  0  0  0  0  0  0  0  0  0  0
   20.7076   -7.0305  -14.7915 C   0  0  1  0  0  0  0  0  0  0  0  0
   22.2049   -7.0540  -14.8606 C   0  0  0  0  0  0  0  0  0  0  0  0
   22.8272   -5.9089  -15.5800 C   0  0  0  0  0  0  0  0  0  0  0  0
   24.3015   -5.9775  -15.6667 C   0  0  0  0  0  0  0  0  0  0  0  0
   24.9754   -7.0348  -15.7079 O   0  0  0  0  0  0  0  0  0  0  0  0
   20.1552   -5.6500  -14.6875 C   0  0  0  0  0  0  0  0  0  0  0  0
   19.6699   -5.0425  -15.6906 O   0  0  0  0  0  0  0  0  0  0  0  0
   25.0012   -4.7815  -15.7060 O   0  0  0  0  0  0  0  0  0  0  0  0
   20.1458   -4.9633  -13.4849 O   0  0  0  0  0  0  0  0  0  0  0  0
  1  2  1  0
  2  3  1  0
  3  4  1  1
  5  3  1  0
  5  6  2  0
  8  7  1  1
  8 10  1  0
  8  9  1  0
  9  5  1  0
 10 12  1  0
 11 10  2  0
 12 13  1  0
 13 14  1  6
 14 15  1  0
 15 16  1  0
 16 20  1  0
 17 16  2  0
 18 13  1  0
 19 18  2  0
 21 18  1  0
M  END
$$$$
