SAE.pdb
     RDKit          3D

 21 20  0  0  1  0  0  0  0  0999 V2000
   16.9286  -15.4978  -14.1789 O   0  0  0  0  0  0  0  0  0  0  0  0
   17.5039  -14.2838  -14.5020 C   0  0  0  0  0  0  0  0  0  0  0  0
   17.9282  -14.3438  -15.9538 C   0  0  2  0  0  0  0  0  0  0  0  0
   19.0467  -15.2647  -16.0370 N   0  0  0  0  0  0  0  0  0  0  0  0
   18.3809  -12.9644  -16.3320 C   0  0  0  0  0  0  0  0  0  0  0  0
   19.5832  -12.6497  -16.1497 O   0  0  0  0  0  0  0  0  0  0  0  0
   16.8581  -10.0622  -18.1241 C   0  0  0  0  0  0  0  0  0  0  0  0
   17.9301  -10.6526  -17.2424 C   0  0  2  0  0  0  0  0  0  0  0  0
   17.5216  -11.9952  -16.8855 N   0  0  0  0  0  0  0  0  0  0  0  0
   18.2057   -9.8204  -16.0458 C   0  0  0  0  0  0  0  0  0  0  0  0
   17.5923  -10.0439  -14.9711 O   0  0  0  0  0  0  0  0  0  0  0  0
   19.1454   -8.7565  -16.0361 N   0  0  0  0  0  0  0  0  0  0  0  0
   19.4428   -7.9461  -14.8675 C   0  0  1  0  0  0  0  0  0  0  0  0
   20.7146   -7.1932  -15.1185 C   0  0  0  0  0  0  0  0  0  0  0  0
   21.1957   -6.3594  -13.9830 C   0  0  0  0  0  0  0  0  0  0  0  0
   22.4561   -5.6360  -14.2546 C   0  0  0  0  0  0  0  0  0  0  0  0
   23.3535   -6.0171  -15.0440 O   0  0  0  0  0  0  0  0  0  0  0  0
   18.2984   -7.0523  -14.5317 C   0  0  0  0  0  0  0  0  0  0  0  0
   17.5395   -6.5666  -15.4255 O   0  0  0  0  0  0  0  0  0  0  0  0
   22.6697   -4.4402  -13.5866 O   0  0  0  0  0  0  0  0  0  0  0  0
   18.0089   -6.7090  -13.2216 O   0  0  0  0  0  0  0  0  0  0  0  0
  1  2  1  0
  2  3  1  0
  3  4  1  1
  5  3  1  0
  5  6  2  0
  8  7  1  1
  8 10  1  0
  8  9  1  0
  9  5  1  0
 10 12  1  0
 11 10  2  0
 12 13  1  0
 13 14  1  6
 14 15  1  0
 15 16  1  0
 16 20  1  0
 17 16  2  0
 18 13  1  0
 19 18  2  0
 21 18  1  0
M  END
$$$$
