SAE.pdb
     RDKit          3D

 21 20  0  0  1  0  0  0  0  0999 V2000
   20.2239   -9.2585  -19.9495 O   0  0  0  0  0  0  0  0  0  0  0  0
   21.0894  -10.3092  -20.1866 C   0  0  0  0  0  0  0  0  0  0  0  0
   20.9943  -11.2615  -19.0138 C   0  0  2  0  0  0  0  0  0  0  0  0
   19.6122  -11.6944  -18.9227 N   0  0  0  0  0  0  0  0  0  0  0  0
   21.3599  -10.4789  -17.7872 C   0  0  0  0  0  0  0  0  0  0  0  0
   20.4467   -9.9213  -17.1292 O   0  0  0  0  0  0  0  0  0  0  0  0
   24.5202   -9.8324  -15.8851 C   0  0  0  0  0  0  0  0  0  0  0  0
   23.0679   -9.5482  -16.1769 C   0  0  2  0  0  0  0  0  0  0  0  0
   22.6847  -10.3351  -17.3304 N   0  0  0  0  0  0  0  0  0  0  0  0
   22.7995   -8.1031  -16.3776 C   0  0  0  0  0  0  0  0  0  0  0  0
   22.6814   -7.6425  -17.5415 O   0  0  0  0  0  0  0  0  0  0  0  0
   22.6636   -7.1799  -15.3079 N   0  0  0  0  0  0  0  0  0  0  0  0
   22.3174   -5.7797  -15.4825 C   0  0  1  0  0  0  0  0  0  0  0  0
   20.9892   -5.6977  -16.1727 C   0  0  0  0  0  0  0  0  0  0  0  0
   20.4255   -4.3266  -16.3081 C   0  0  0  0  0  0  0  0  0  0  0  0
   19.0703   -4.2846  -16.8977 C   0  0  0  0  0  0  0  0  0  0  0  0
   18.5890   -5.1505  -17.6674 O   0  0  0  0  0  0  0  0  0  0  0  0
   22.3370   -5.0578  -14.1787 C   0  0  0  0  0  0  0  0  0  0  0  0
   22.1923   -5.6631  -13.0726 O   0  0  0  0  0  0  0  0  0  0  0  0
   18.2617   -3.2049  -16.5785 O   0  0  0  0  0  0  0  0  0  0  0  0
   22.5152   -3.6859  -14.1140 O   0  0  0  0  0  0  0  0  0  0  0  0
  1  2  1  0
  2  3  1  0
  3  4  1  1
  5  3  1  0
  5  6  2  0
  8  7  1  6
  8 10  1  0
  8  9  1  0
  9  5  1  0
 10 12  1  0
 11 10  2  0
 12 13  1  0
 13 14  1  1
 14 15  1  0
 15 16  1  0
 16 20  1  0
 17 16  2  0
 18 13  1  0
 19 18  2  0
 21 18  1  0
M  END
$$$$
