SAE.pdb
     RDKit          3D

 21 20  0  0  1  0  0  0  0  0999 V2000
   13.3752  -10.1611  -10.0505 O   0  0  0  0  0  0  0  0  0  0  0  0
   14.2158   -9.2785  -10.7013 C   0  0  0  0  0  0  0  0  0  0  0  0
   15.4700   -9.1319   -9.8664 C   0  0  2  0  0  0  0  0  0  0  0  0
   15.1372   -8.2846   -8.7361 N   0  0  0  0  0  0  0  0  0  0  0  0
   16.4887   -8.4463  -10.7283 C   0  0  0  0  0  0  0  0  0  0  0  0
   16.5556   -7.1922  -10.7070 O   0  0  0  0  0  0  0  0  0  0  0  0
   19.1000   -9.5845  -13.1681 C   0  0  0  0  0  0  0  0  0  0  0  0
   18.3197   -8.5011  -12.4664 C   0  0  2  0  0  0  0  0  0  0  0  0
   17.3819   -9.1408  -11.5675 N   0  0  0  0  0  0  0  0  0  0  0  0
   17.6413   -7.5832  -13.4140 C   0  0  0  0  0  0  0  0  0  0  0  0
   16.4335   -7.7678  -13.7106 O   0  0  0  0  0  0  0  0  0  0  0  0
   18.2878   -6.4771  -14.0252 N   0  0  0  0  0  0  0  0  0  0  0  0
   17.6231   -5.5345  -14.9088 C   0  0  1  0  0  0  0  0  0  0  0  0
   16.4991   -4.8861  -14.1582 C   0  0  0  0  0  0  0  0  0  0  0  0
   15.8211   -3.7671  -14.8685 C   0  0  0  0  0  0  0  0  0  0  0  0
   14.7628   -3.1018  -14.0791 C   0  0  0  0  0  0  0  0  0  0  0  0
   14.3763   -3.4597  -12.9405 O   0  0  0  0  0  0  0  0  0  0  0  0
   18.5925   -4.5479  -15.4642 C   0  0  0  0  0  0  0  0  0  0  0  0
   19.6866   -4.2781  -14.8802 O   0  0  0  0  0  0  0  0  0  0  0  0
   14.1441   -1.9933  -14.6358 O   0  0  0  0  0  0  0  0  0  0  0  0
   18.3427   -3.8769  -16.6496 O   0  0  0  0  0  0  0  0  0  0  0  0
  1  2  1  0
  2  3  1  0
  3  4  1  1
  5  3  1  0
  5  6  2  0
  8  7  1  6
  8 10  1  0
  8  9  1  0
  9  5  1  0
 10 12  1  0
 11 10  2  0
 12 13  1  0
 13 14  1  1
 14 15  1  0
 15 16  1  0
 16 20  1  0
 17 16  2  0
 18 13  1  0
 19 18  2  0
 21 18  1  0
M  END
$$$$
