SAE.pdb
     RDKit          3D

 21 20  0  0  1  0  0  0  0  0999 V2000
   18.6794  -10.7148  -18.2325 O   0  0  0  0  0  0  0  0  0  0  0  0
   19.6347  -11.7079  -18.1315 C   0  0  0  0  0  0  0  0  0  0  0  0
   19.6195  -12.2225  -16.7080 C   0  0  2  0  0  0  0  0  0  0  0  0
   18.2317  -12.4444  -16.3460 N   0  0  0  0  0  0  0  0  0  0  0  0
   20.1983  -11.1385  -15.8473 C   0  0  0  0  0  0  0  0  0  0  0  0
   19.4205  -10.4238  -15.1677 O   0  0  0  0  0  0  0  0  0  0  0  0
   23.6537  -10.0811  -14.8801 C   0  0  0  0  0  0  0  0  0  0  0  0
   22.1639   -9.8493  -14.9250 C   0  0  2  0  0  0  0  0  0  0  0  0
   21.5798  -10.8776  -15.7605 N   0  0  0  0  0  0  0  0  0  0  0  0
   21.8134   -8.4870  -15.3958 C   0  0  0  0  0  0  0  0  0  0  0  0
   21.8034   -8.2316  -16.6269 O   0  0  0  0  0  0  0  0  0  0  0  0
   21.4785   -7.4218  -14.5193 N   0  0  0  0  0  0  0  0  0  0  0  0
   21.1717   -6.0722  -14.9612 C   0  0  1  0  0  0  0  0  0  0  0  0
   19.7549   -5.7565  -14.5864 C   0  0  0  0  0  0  0  0  0  0  0  0
   18.7143   -6.3698  -15.4564 C   0  0  0  0  0  0  0  0  0  0  0  0
   17.3328   -5.9544  -15.1328 C   0  0  0  0  0  0  0  0  0  0  0  0
   16.7926   -6.0547  -14.0051 O   0  0  0  0  0  0  0  0  0  0  0  0
   22.1486   -5.0930  -14.4060 C   0  0  0  0  0  0  0  0  0  0  0  0
   22.8249   -5.3371  -13.3602 O   0  0  0  0  0  0  0  0  0  0  0  0
   16.5680   -5.4097  -16.1525 O   0  0  0  0  0  0  0  0  0  0  0  0
   22.3645   -3.8652  -15.0092 O   0  0  0  0  0  0  0  0  0  0  0  0
  1  2  1  0
  2  3  1  0
  3  4  1  1
  5  3  1  0
  5  6  2  0
  8  7  1  6
  8 10  1  0
  8  9  1  0
  9  5  1  0
 10 12  1  0
 11 10  2  0
 12 13  1  0
 13 14  1  1
 14 15  1  0
 15 16  1  0
 16 20  1  0
 17 16  2  0
 18 13  1  0
 19 18  2  0
 21 18  1  0
M  END
$$$$
