SAE.pdb
     RDKit          3D

 21 20  0  0  1  0  0  0  0  0999 V2000
   16.5145  -11.2510  -17.9862 O   0  0  0  0  0  0  0  0  0  0  0  0
   17.2092  -10.4459  -17.1039 C   0  0  0  0  0  0  0  0  0  0  0  0
   18.1329  -11.3327  -16.2964 C   0  0  2  0  0  0  0  0  0  0  0  0
   17.3201  -12.0061  -15.3005 N   0  0  0  0  0  0  0  0  0  0  0  0
   19.1186  -10.4290  -15.6163 C   0  0  0  0  0  0  0  0  0  0  0  0
   18.6992   -9.6046  -14.7665 O   0  0  0  0  0  0  0  0  0  0  0  0
   22.8460  -10.0713  -15.6258 C   0  0  0  0  0  0  0  0  0  0  0  0
   21.4687   -9.5761  -15.2612 C   0  0  2  0  0  0  0  0  0  0  0  0
   20.5016  -10.4566  -15.8825 N   0  0  0  0  0  0  0  0  0  0  0  0
   21.2535   -8.1588  -15.6427 C   0  0  0  0  0  0  0  0  0  0  0  0
   20.9108   -7.8702  -16.8176 O   0  0  0  0  0  0  0  0  0  0  0  0
   21.4145   -7.0756  -14.7395 N   0  0  0  0  0  0  0  0  0  0  0  0
   21.2737   -5.6787  -15.1132 C   0  0  1  0  0  0  0  0  0  0  0  0
   20.0232   -5.1395  -14.4865 C   0  0  0  0  0  0  0  0  0  0  0  0
   19.8219   -3.6713  -14.6282 C   0  0  0  0  0  0  0  0  0  0  0  0
   18.6085   -3.2969  -15.3854 C   0  0  0  0  0  0  0  0  0  0  0  0
   17.8044   -4.1049  -15.9090 O   0  0  0  0  0  0  0  0  0  0  0  0
   22.4891   -4.9007  -14.7403 C   0  0  0  0  0  0  0  0  0  0  0  0
   23.2180   -5.2242  -13.7530 O   0  0  0  0  0  0  0  0  0  0  0  0
   18.3315   -1.9466  -15.5322 O   0  0  0  0  0  0  0  0  0  0  0  0
   22.8812   -3.7832  -15.4582 O   0  0  0  0  0  0  0  0  0  0  0  0
  1  2  1  0
  2  3  1  0
  3  4  1  1
  5  3  1  0
  5  6  2  0
  8  7  1  6
  8 10  1  0
  8  9  1  0
  9  5  1  0
 10 12  1  0
 11 10  2  0
 12 13  1  0
 13 14  1  1
 14 15  1  0
 15 16  1  0
 16 20  1  0
 17 16  2  0
 18 13  1  0
 19 18  2  0
 21 18  1  0
M  END
$$$$
