SAE.pdb
     RDKit          3D

 21 20  0  0  1  0  0  0  0  0999 V2000
   20.6338  -12.4276  -15.5954 O   0  0  0  0  0  0  0  0  0  0  0  0
   19.2691  -12.5534  -15.4196 C   0  0  0  0  0  0  0  0  0  0  0  0
   18.5905  -12.0194  -16.6629 C   0  0  2  0  0  0  0  0  0  0  0  0
   19.3171  -12.5398  -17.8062 N   0  0  0  0  0  0  0  0  0  0  0  0
   18.7189  -10.5252  -16.6208 C   0  0  0  0  0  0  0  0  0  0  0  0
   19.5369   -9.9651  -17.3920 O   0  0  0  0  0  0  0  0  0  0  0  0
   17.0051   -7.7529  -14.7749 C   0  0  0  0  0  0  0  0  0  0  0  0
   18.1266   -8.2762  -15.6372 C   0  0  2  0  0  0  0  0  0  0  0  0
   17.9642   -9.7103  -15.7545 N   0  0  0  0  0  0  0  0  0  0  0  0
   19.4656   -7.9109  -15.1136 C   0  0  0  0  0  0  0  0  0  0  0  0
   20.0566   -8.6781  -14.3117 O   0  0  0  0  0  0  0  0  0  0  0  0
   20.1423   -6.7152  -15.4706 N   0  0  0  0  0  0  0  0  0  0  0  0
   21.5184   -6.4217  -15.1088 C   0  0  1  0  0  0  0  0  0  0  0  0
   22.1656   -5.6880  -16.2446 C   0  0  0  0  0  0  0  0  0  0  0  0
   23.5631   -5.2381  -15.9981 C   0  0  0  0  0  0  0  0  0  0  0  0
   24.1643   -4.4873  -17.1209 C   0  0  0  0  0  0  0  0  0  0  0  0
   24.3575   -3.2479  -17.1414 O   0  0  0  0  0  0  0  0  0  0  0  0
   21.5844   -5.6708  -13.8230 C   0  0  0  0  0  0  0  0  0  0  0  0
   20.6754   -4.8579  -13.4715 O   0  0  0  0  0  0  0  0  0  0  0  0
   24.5476   -5.2041  -18.2438 O   0  0  0  0  0  0  0  0  0  0  0  0
   22.6465   -5.8266  -12.9480 O   0  0  0  0  0  0  0  0  0  0  0  0
  1  2  1  0
  2  3  1  0
  3  4  1  6
  5  3  1  0
  5  6  2  0
  8  7  1  1
  8 10  1  0
  8  9  1  0
  9  5  1  0
 10 12  1  0
 11 10  2  0
 12 13  1  0
 13 14  1  6
 14 15  1  0
 15 16  1  0
 16 20  1  0
 17 16  2  0
 18 13  1  0
 19 18  2  0
 21 18  1  0
M  END
$$$$
