SAE.pdb
     RDKit          3D

 21 20  0  0  1  0  0  0  0  0999 V2000
   22.2517  -13.8856  -17.3396 O   0  0  0  0  0  0  0  0  0  0  0  0
   21.9850  -12.5311  -17.3971 C   0  0  0  0  0  0  0  0  0  0  0  0
   20.4881  -12.3593  -17.5430 C   0  0  2  0  0  0  0  0  0  0  0  0
   20.1900  -12.3772  -18.9631 N   0  0  0  0  0  0  0  0  0  0  0  0
   20.1470  -11.0143  -16.9726 C   0  0  0  0  0  0  0  0  0  0  0  0
   20.3474   -9.9905  -17.6723 O   0  0  0  0  0  0  0  0  0  0  0  0
   18.6074   -9.7906  -13.7823 C   0  0  0  0  0  0  0  0  0  0  0  0
   19.3127   -9.5483  -15.0935 C   0  0  2  0  0  0  0  0  0  0  0  0
   19.6092  -10.8373  -15.6828 N   0  0  0  0  0  0  0  0  0  0  0  0
   20.5307   -8.7156  -14.9397 C   0  0  0  0  0  0  0  0  0  0  0  0
   21.6373   -9.2611  -14.6975 O   0  0  0  0  0  0  0  0  0  0  0  0
   20.5264   -7.3006  -15.0517 N   0  0  0  0  0  0  0  0  0  0  0  0
   21.7156   -6.4734  -14.9401 C   0  0  1  0  0  0  0  0  0  0  0  0
   21.7134   -5.4786  -16.0616 C   0  0  0  0  0  0  0  0  0  0  0  0
   21.5472   -4.0572  -15.6516 C   0  0  0  0  0  0  0  0  0  0  0  0
   21.4078   -3.1136  -16.7812 C   0  0  0  0  0  0  0  0  0  0  0  0
   20.6450   -3.2702  -17.7648 O   0  0  0  0  0  0  0  0  0  0  0  0
   21.7957   -5.8310  -13.5975 C   0  0  0  0  0  0  0  0  0  0  0  0
   20.7982   -5.7834  -12.8142 O   0  0  0  0  0  0  0  0  0  0  0  0
   22.1786   -1.9617  -16.7577 O   0  0  0  0  0  0  0  0  0  0  0  0
   22.9686   -5.2537  -13.1406 O   0  0  0  0  0  0  0  0  0  0  0  0
  1  2  1  0
  2  3  1  0
  3  4  1  6
  5  3  1  0
  5  6  2  0
  8  7  1  1
  8 10  1  0
  8  9  1  0
  9  5  1  0
 10 12  1  0
 11 10  2  0
 12 13  1  0
 13 14  1  6
 14 15  1  0
 15 16  1  0
 16 20  1  0
 17 16  2  0
 18 13  1  0
 19 18  2  0
 21 18  1  0
M  END
$$$$
