SAE.pdb
     RDKit          3D

 21 20  0  0  1  0  0  0  0  0999 V2000
   16.6850  -12.6095  -10.5253 O   0  0  0  0  0  0  0  0  0  0  0  0
   16.5485  -11.2521  -10.7445 C   0  0  0  0  0  0  0  0  0  0  0  0
   15.3252  -10.7811   -9.9874 C   0  0  2  0  0  0  0  0  0  0  0  0
   14.1647  -11.3415  -10.6547 N   0  0  0  0  0  0  0  0  0  0  0  0
   15.2960   -9.2851  -10.0955 C   0  0  0  0  0  0  0  0  0  0  0  0
   14.9192   -8.7624  -11.1737 O   0  0  0  0  0  0  0  0  0  0  0  0
   15.5343   -6.4036   -7.7806 C   0  0  0  0  0  0  0  0  0  0  0  0
   15.7528   -6.9868   -9.1544 C   0  0  2  0  0  0  0  0  0  0  0  0
   15.6722   -8.4282   -9.0426 N   0  0  0  0  0  0  0  0  0  0  0  0
   17.0332   -6.5486   -9.7621 C   0  0  0  0  0  0  0  0  0  0  0  0
   18.1187   -7.0412   -9.3622 O   0  0  0  0  0  0  0  0  0  0  0  0
   17.1134   -5.5802  -10.7968 N   0  0  0  0  0  0  0  0  0  0  0  0
   18.3425   -5.2297  -11.4877 C   0  0  1  0  0  0  0  0  0  0  0  0
   18.9208   -6.4721  -12.0954 C   0  0  0  0  0  0  0  0  0  0  0  0
   20.1220   -6.2635  -12.9497 C   0  0  0  0  0  0  0  0  0  0  0  0
   20.7059   -7.5104  -13.4882 C   0  0  0  0  0  0  0  0  0  0  0  0
   20.6064   -8.6434  -12.9590 O   0  0  0  0  0  0  0  0  0  0  0  0
   18.1036   -4.1529  -12.4901 C   0  0  0  0  0  0  0  0  0  0  0  0
   18.9796   -3.2732  -12.7539 O   0  0  0  0  0  0  0  0  0  0  0  0
   21.4218   -7.4279  -14.6724 O   0  0  0  0  0  0  0  0  0  0  0  0
   16.9083   -4.0624  -13.1837 O   0  0  0  0  0  0  0  0  0  0  0  0
  1  2  1  0
  2  3  1  0
  3  4  1  6
  5  3  1  0
  5  6  2  0
  8  7  1  1
  8 10  1  0
  8  9  1  0
  9  5  1  0
 10 12  1  0
 11 10  2  0
 12 13  1  0
 13 14  1  6
 14 15  1  0
 15 16  1  0
 16 20  1  0
 17 16  2  0
 18 13  1  0
 19 18  2  0
 21 18  1  0
M  END
$$$$
