SAE.pdb
     RDKit          3D

 21 20  0  0  1  0  0  0  0  0999 V2000
   18.2968  -12.5509  -18.5648 O   0  0  0  0  0  0  0  0  0  0  0  0
   18.8177  -11.7600  -17.5587 C   0  0  0  0  0  0  0  0  0  0  0  0
   20.0438  -12.4572  -17.0090 C   0  0  2  0  0  0  0  0  0  0  0  0
   19.5848  -13.6337  -16.2940 N   0  0  0  0  0  0  0  0  0  0  0  0
   20.6923  -11.5041  -16.0489 C   0  0  0  0  0  0  0  0  0  0  0  0
   19.9781  -10.9275  -15.1916 O   0  0  0  0  0  0  0  0  0  0  0  0
   24.2014  -10.3985  -15.3496 C   0  0  0  0  0  0  0  0  0  0  0  0
   22.7086  -10.2459  -15.1958 C   0  0  2  0  0  0  0  0  0  0  0  0
   22.0718  -11.2194  -16.0581 N   0  0  0  0  0  0  0  0  0  0  0  0
   22.2449   -8.8659  -15.4804 C   0  0  0  0  0  0  0  0  0  0  0  0
   21.8501   -8.5620  -16.6349 O   0  0  0  0  0  0  0  0  0  0  0  0
   22.2176   -7.8361  -14.5038 N   0  0  0  0  0  0  0  0  0  0  0  0
   21.7843   -6.4752  -14.7704 C   0  0  1  0  0  0  0  0  0  0  0  0
   20.3083   -6.4856  -15.0322 C   0  0  0  0  0  0  0  0  0  0  0  0
   19.6902   -5.1484  -15.2464 C   0  0  0  0  0  0  0  0  0  0  0  0
   18.2429   -5.1913  -15.5452 C   0  0  0  0  0  0  0  0  0  0  0  0
   17.5613   -6.2366  -15.6738 O   0  0  0  0  0  0  0  0  0  0  0  0
   22.1672   -5.5642  -13.6546 C   0  0  0  0  0  0  0  0  0  0  0  0
   22.3582   -5.9899  -12.4743 O   0  0  0  0  0  0  0  0  0  0  0  0
   17.5800   -3.9833  -15.6966 O   0  0  0  0  0  0  0  0  0  0  0  0
   22.3334   -4.2041  -13.8556 O   0  0  0  0  0  0  0  0  0  0  0  0
  1  2  1  0
  2  3  1  0
  3  4  1  1
  5  3  1  0
  5  6  2  0
  8  7  1  6
  8 10  1  0
  8  9  1  0
  9  5  1  0
 10 12  1  0
 11 10  2  0
 12 13  1  0
 13 14  1  1
 14 15  1  0
 15 16  1  0
 16 20  1  0
 17 16  2  0
 18 13  1  0
 19 18  2  0
 21 18  1  0
M  END
$$$$
