VEY.pdb
     RDKit          3D

 29 29  0  0  1  0  0  0  0  0999 V2000
   30.4904  -25.4925  -19.2241 C   0  0  0  0  0  0  0  0  0  0  0  0
   31.0966  -25.8546  -17.8907 C   0  0  1  0  0  0  0  0  0  0  0  0
   32.5453  -26.2407  -18.1347 C   0  0  0  0  0  0  0  0  0  0  0  0
   31.1027  -24.6990  -16.9273 C   0  0  2  0  0  0  0  0  0  0  0  0
   31.6467  -25.1694  -15.6716 N   0  0  0  0  0  0  0  0  0  0  0  0
   29.7869  -24.1072  -16.7013 C   0  0  0  0  0  0  0  0  0  0  0  0
   28.9071  -24.6220  -15.9427 O   0  0  0  0  0  0  0  0  0  0  0  0
   29.4583  -22.8931  -17.3566 N   0  0  0  0  0  0  0  0  0  0  0  0
   28.1408  -22.2573  -17.1897 C   0  0  1  0  0  0  0  0  0  0  0  0
   28.2222  -20.7881  -17.3285 C   0  0  0  0  0  0  0  0  0  0  0  0
   26.9952  -19.9932  -17.2100 C   0  0  0  0  0  0  0  0  0  0  0  0
   27.0122  -18.5568  -17.3457 C   0  0  0  0  0  0  0  0  0  0  0  0
   28.0293  -17.8732  -17.5247 O   0  0  0  0  0  0  0  0  0  0  0  0
   27.1271  -22.9245  -17.9756 C   0  0  0  0  0  0  0  0  0  0  0  0
   27.3628  -23.3207  -19.1368 O   0  0  0  0  0  0  0  0  0  0  0  0
   25.8104  -17.8112  -17.2789 O   0  0  0  0  0  0  0  0  0  0  0  0
   20.3605  -22.8226  -13.6061 O   0  0  0  0  0  0  0  0  0  0  0  0
   21.3047  -23.3306  -14.4939 C   0  0  0  0  0  0  0  0  0  0  0  0
   20.9324  -23.8596  -15.6943 C   0  0  0  0  0  0  0  0  0  0  0  0
   21.9178  -24.3584  -16.5542 C   0  0  0  0  0  0  0  0  0  0  0  0
   23.2523  -24.3195  -16.1997 C   0  0  0  0  0  0  0  0  0  0  0  0
   24.2409  -24.8521  -17.1247 C   0  0  0  0  0  0  0  0  0  0  0  0
   24.7835  -23.8763  -18.1370 C   0  0  2  0  0  0  0  0  0  0  0  0
   25.8414  -23.1436  -17.4228 N   0  0  0  0  0  0  0  0  0  0  0  0
   23.7192  -22.9367  -18.5560 C   0  0  0  0  0  0  0  0  0  0  0  0
   22.7365  -23.3198  -19.4551 O   0  0  0  0  0  0  0  0  0  0  0  0
   23.6169  -23.7799  -14.9783 C   0  0  0  0  0  0  0  0  0  0  0  0
   22.6435  -23.2895  -14.1339 C   0  0  0  0  0  0  0  0  0  0  0  0
   23.6745  -21.7637  -18.1098 O   0  0  0  0  0  0  0  0  0  0  0  0
  2  1  1  6
  3  2  1  0
  4  2  1  0
  4  5  1  1
  6  4  1  0
  7  6  2  0
  8  6  1  0
  9  8  1  0
 10 11  1  0
  9 10  1  6
 12 16  1  0
 12 11  1  0
 13 12  2  0
 14 24  1  0
 14  9  1  0
 15 14  2  0
 18 17  1  0
 19 18  2  0
 20 19  1  0
 21 27  1  0
 21 20  2  0
 23 22  1  1
 22 21  1  0
 23 25  1  0
 23 24  1  0
 25 26  1  0
 27 28  2  0
 28 18  1  0
 29 25  2  0
M  END
$$$$
