VEY.pdb
     RDKit          3D

 29 29  0  0  1  0  0  0  0  0999 V2000
   26.4918  -11.2183  -14.9645 C   0  0  0  0  0  0  0  0  0  0  0  0
   26.4910  -11.8615  -16.3293 C   0  0  1  0  0  0  0  0  0  0  0  0
   27.3533  -13.1095  -16.2492 C   0  0  0  0  0  0  0  0  0  0  0  0
   25.1174  -12.2994  -16.7596 C   0  0  2  0  0  0  0  0  0  0  0  0
   25.2577  -13.0776  -17.9715 N   0  0  0  0  0  0  0  0  0  0  0  0
   24.1874  -11.1971  -16.9889 C   0  0  0  0  0  0  0  0  0  0  0  0
   24.3983  -10.2637  -17.8249 O   0  0  0  0  0  0  0  0  0  0  0  0
   22.9798  -11.1516  -16.2465 N   0  0  0  0  0  0  0  0  0  0  0  0
   22.0198  -10.0460  -16.4000 C   0  0  1  0  0  0  0  0  0  0  0  0
   20.7334  -10.5135  -16.9578 C   0  0  0  0  0  0  0  0  0  0  0  0
   20.7442  -11.3838  -18.1385 C   0  0  0  0  0  0  0  0  0  0  0  0
   19.7950  -12.4599  -18.2899 C   0  0  0  0  0  0  0  0  0  0  0  0
   20.0843  -13.6640  -18.3047 O   0  0  0  0  0  0  0  0  0  0  0  0
   21.9484   -9.2362  -15.2044 C   0  0  0  0  0  0  0  0  0  0  0  0
   22.0467   -9.7466  -14.0683 O   0  0  0  0  0  0  0  0  0  0  0  0
   18.4132  -12.1883  -18.4371 O   0  0  0  0  0  0  0  0  0  0  0  0
   22.2067   -2.1226  -18.3335 O   0  0  0  0  0  0  0  0  0  0  0  0
   22.3693   -3.0941  -17.3498 C   0  0  0  0  0  0  0  0  0  0  0  0
   22.9042   -4.3135  -17.6432 C   0  0  0  0  0  0  0  0  0  0  0  0
   23.0481   -5.2585  -16.6206 C   0  0  0  0  0  0  0  0  0  0  0  0
   22.6560   -4.9681  -15.3283 C   0  0  0  0  0  0  0  0  0  0  0  0
   22.8224   -5.9826  -14.2988 C   0  0  0  0  0  0  0  0  0  0  0  0
   21.6782   -6.9508  -14.1421 C   0  0  2  0  0  0  0  0  0  0  0  0
   21.7713   -7.8352  -15.3149 N   0  0  0  0  0  0  0  0  0  0  0  0
   20.3903   -6.2215  -14.1662 C   0  0  0  0  0  0  0  0  0  0  0  0
   19.9442   -5.5157  -13.0599 O   0  0  0  0  0  0  0  0  0  0  0  0
   22.1145   -3.7265  -15.0437 C   0  0  0  0  0  0  0  0  0  0  0  0
   21.9743   -2.7983  -16.0535 C   0  0  0  0  0  0  0  0  0  0  0  0
   19.6625   -6.2202  -15.1895 O   0  0  0  0  0  0  0  0  0  0  0  0
  2  1  1  1
  3  2  1  0
  4  2  1  0
  4  5  1  6
  6  4  1  0
  7  6  2  0
  8  6  1  0
  9  8  1  0
 10 11  1  0
  9 10  1  1
 12 16  1  0
 12 11  1  0
 13 12  2  0
 14 24  1  0
 14  9  1  0
 15 14  2  0
 18 17  1  0
 19 18  2  0
 20 19  1  0
 21 27  1  0
 21 20  2  0
 23 22  1  6
 22 21  1  0
 23 25  1  0
 23 24  1  0
 25 26  1  0
 27 28  2  0
 28 18  1  0
 29 25  2  0
M  END
$$$$
