VEY.pdb
     RDKit          3D

 29 29  0  0  1  0  0  0  0  0999 V2000
   33.8394  -22.9014  -10.1382 C   0  0  0  0  0  0  0  0  0  0  0  0
   32.7229  -22.0252  -10.6501 C   0  0  1  0  0  0  0  0  0  0  0  0
   32.5894  -22.2766  -12.1422 C   0  0  0  0  0  0  0  0  0  0  0  0
   31.3956  -22.3582  -10.0246 C   0  0  2  0  0  0  0  0  0  0  0  0
   31.0831  -23.7332  -10.3494 N   0  0  0  0  0  0  0  0  0  0  0  0
   30.3021  -21.4913  -10.4550 C   0  0  0  0  0  0  0  0  0  0  0  0
   30.2471  -20.2491  -10.1936 O   0  0  0  0  0  0  0  0  0  0  0  0
   29.2369  -22.0510  -11.2058 N   0  0  0  0  0  0  0  0  0  0  0  0
   28.1083  -21.2304  -11.6754 C   0  0  1  0  0  0  0  0  0  0  0  0
   28.0022  -21.2406  -13.1496 C   0  0  0  0  0  0  0  0  0  0  0  0
   26.8877  -20.5319  -13.7876 C   0  0  0  0  0  0  0  0  0  0  0  0
   25.8094  -21.2452  -14.4282 C   0  0  0  0  0  0  0  0  0  0  0  0
   24.6051  -21.0567  -14.2087 O   0  0  0  0  0  0  0  0  0  0  0  0
   26.8985  -21.5223  -10.9395 C   0  0  0  0  0  0  0  0  0  0  0  0
   26.4833  -22.6937  -10.8121 O   0  0  0  0  0  0  0  0  0  0  0  0
   26.0787  -22.2491  -15.3897 O   0  0  0  0  0  0  0  0  0  0  0  0
   28.6323  -20.0456   -4.1917 O   0  0  0  0  0  0  0  0  0  0  0  0
   27.7333  -19.9402   -5.2494 C   0  0  0  0  0  0  0  0  0  0  0  0
   26.8078  -20.9124   -5.4891 C   0  0  0  0  0  0  0  0  0  0  0  0
   25.9247  -20.7624   -6.5646 C   0  0  0  0  0  0  0  0  0  0  0  0
   25.9828  -19.6474   -7.3779 C   0  0  0  0  0  0  0  0  0  0  0  0
   25.0461  -19.5359   -8.4856 C   0  0  0  0  0  0  0  0  0  0  0  0
   25.0246  -20.6981   -9.4449 C   0  0  2  0  0  0  0  0  0  0  0  0
   26.1682  -20.4659  -10.3418 N   0  0  0  0  0  0  0  0  0  0  0  0
   23.7667  -20.6880  -10.2250 C   0  0  0  0  0  0  0  0  0  0  0  0
   22.5733  -21.1204   -9.6683 O   0  0  0  0  0  0  0  0  0  0  0  0
   26.9270  -18.6677   -7.1239 C   0  0  0  0  0  0  0  0  0  0  0  0
   27.7952  -18.8189   -6.0635 C   0  0  0  0  0  0  0  0  0  0  0  0
   23.7423  -20.2878  -11.4150 O   0  0  0  0  0  0  0  0  0  0  0  0
  2  1  1  1
  3  2  1  0
  4  2  1  0
  4  5  1  6
  6  4  1  0
  7  6  2  0
  8  6  1  0
  9  8  1  0
 10 11  1  0
  9 10  1  6
 12 16  1  0
 12 11  1  0
 13 12  2  0
 14 24  1  0
 14  9  1  0
 15 14  2  0
 18 17  1  0
 19 18  2  0
 20 19  1  0
 21 27  1  0
 21 20  2  0
 23 22  1  1
 22 21  1  0
 23 25  1  0
 23 24  1  0
 25 26  1  0
 27 28  2  0
 28 18  1  0
 29 25  2  0
M  END
$$$$
