VEY.pdb
     RDKit          3D

 29 29  0  0  1  0  0  0  0  0999 V2000
   20.0769  -12.2262  -18.5250 C   0  0  0  0  0  0  0  0  0  0  0  0
   20.2266  -10.7306  -18.6557 C   0  0  1  0  0  0  0  0  0  0  0  0
   19.0780  -10.2273  -19.5128 C   0  0  0  0  0  0  0  0  0  0  0  0
   20.1329  -10.0238  -17.3307 C   0  0  2  0  0  0  0  0  0  0  0  0
   18.8987  -10.4319  -16.6950 N   0  0  0  0  0  0  0  0  0  0  0  0
   20.1757   -8.5675  -17.4302 C   0  0  0  0  0  0  0  0  0  0  0  0
   21.1722   -7.9244  -17.8864 O   0  0  0  0  0  0  0  0  0  0  0  0
   19.0527   -7.8163  -16.9986 N   0  0  0  0  0  0  0  0  0  0  0  0
   19.0564   -6.3441  -17.0130 C   0  0  1  0  0  0  0  0  0  0  0  0
   17.8256   -5.8012  -17.6254 C   0  0  0  0  0  0  0  0  0  0  0  0
   17.6781   -4.3478  -17.7577 C   0  0  0  0  0  0  0  0  0  0  0  0
   16.5207   -3.7626  -18.3899 C   0  0  0  0  0  0  0  0  0  0  0  0
   15.5595   -4.4009  -18.8400 O   0  0  0  0  0  0  0  0  0  0  0  0
   19.4295   -5.8024  -15.7255 C   0  0  0  0  0  0  0  0  0  0  0  0
   18.8232   -6.1300  -14.6834 O   0  0  0  0  0  0  0  0  0  0  0  0
   16.4120   -2.3588  -18.5390 O   0  0  0  0  0  0  0  0  0  0  0  0
   23.1047  -10.3714  -14.1597 O   0  0  0  0  0  0  0  0  0  0  0  0
   22.9197   -8.9917  -14.1532 C   0  0  0  0  0  0  0  0  0  0  0  0
   22.3367   -8.3624  -13.0934 C   0  0  0  0  0  0  0  0  0  0  0  0
   22.1718   -6.9730  -13.1322 C   0  0  0  0  0  0  0  0  0  0  0  0
   22.5911   -6.2408  -14.2260 C   0  0  0  0  0  0  0  0  0  0  0  0
   22.3966   -4.7989  -14.2229 C   0  0  0  0  0  0  0  0  0  0  0  0
   20.9702   -4.3300  -14.3534 C   0  0  2  0  0  0  0  0  0  0  0  0
   20.5073   -4.8878  -15.6343 N   0  0  0  0  0  0  0  0  0  0  0  0
   20.9258   -2.8514  -14.4060 C   0  0  0  0  0  0  0  0  0  0  0  0
   21.2368   -2.0838  -13.2947 O   0  0  0  0  0  0  0  0  0  0  0  0
   23.1814   -6.8917  -15.2954 C   0  0  0  0  0  0  0  0  0  0  0  0
   23.3422   -8.2604  -15.2535 C   0  0  0  0  0  0  0  0  0  0  0  0
   20.6046   -2.2473  -15.4590 O   0  0  0  0  0  0  0  0  0  0  0  0
  2  1  1  1
  3  2  1  0
  4  2  1  0
  4  5  1  6
  6  4  1  0
  7  6  2  0
  8  6  1  0
  9  8  1  0
 10 11  1  0
  9 10  1  1
 12 16  1  0
 12 11  1  0
 13 12  2  0
 14 24  1  0
 14  9  1  0
 15 14  2  0
 18 17  1  0
 19 18  2  0
 20 19  1  0
 21 27  1  0
 21 20  2  0
 23 22  1  6
 22 21  1  0
 23 25  1  0
 23 24  1  0
 25 26  1  0
 27 28  2  0
 28 18  1  0
 29 25  2  0
M  END
$$$$
