VEY.pdb
     RDKit          3D

 29 29  0  0  1  0  0  0  0  0999 V2000
   13.0430  -11.7179  -17.1534 C   0  0  0  0  0  0  0  0  0  0  0  0
   14.5028  -11.3686  -17.0006 C   0  0  1  0  0  0  0  0  0  0  0  0
   14.6241  -10.4026  -15.8347 C   0  0  0  0  0  0  0  0  0  0  0  0
   15.3511  -12.5672  -16.6725 C   0  0  2  0  0  0  0  0  0  0  0  0
   14.7641  -13.2275  -15.5265 N   0  0  0  0  0  0  0  0  0  0  0  0
   16.7481  -12.2472  -16.3924 C   0  0  0  0  0  0  0  0  0  0  0  0
   17.1921  -12.0044  -15.2268 O   0  0  0  0  0  0  0  0  0  0  0  0
   17.6711  -12.2009  -17.4682 N   0  0  0  0  0  0  0  0  0  0  0  0
   19.0852  -11.8487  -17.2582 C   0  0  1  0  0  0  0  0  0  0  0  0
   19.9822  -12.6647  -18.1031 C   0  0  0  0  0  0  0  0  0  0  0  0
   21.4285  -12.4284  -18.0404 C   0  0  0  0  0  0  0  0  0  0  0  0
   22.3529  -13.1990  -18.8364 C   0  0  0  0  0  0  0  0  0  0  0  0
   23.5460  -12.9161  -19.0105 O   0  0  0  0  0  0  0  0  0  0  0  0
   19.2864  -10.4175  -17.2981 C   0  0  0  0  0  0  0  0  0  0  0  0
   18.6239   -9.6904  -18.0683 O   0  0  0  0  0  0  0  0  0  0  0  0
   21.9291  -14.3785  -19.4952 O   0  0  0  0  0  0  0  0  0  0  0  0
   22.8233   -2.8063  -14.2303 O   0  0  0  0  0  0  0  0  0  0  0  0
   22.4790   -4.1316  -14.4815 C   0  0  0  0  0  0  0  0  0  0  0  0
   23.3585   -4.9899  -15.0722 C   0  0  0  0  0  0  0  0  0  0  0  0
   22.9673   -6.3135  -15.3047 C   0  0  0  0  0  0  0  0  0  0  0  0
   21.7086   -6.7533  -14.9438 C   0  0  0  0  0  0  0  0  0  0  0  0
   21.3453   -8.1372  -15.2075 C   0  0  0  0  0  0  0  0  0  0  0  0
   20.5180   -8.3730  -16.4450 C   0  0  2  0  0  0  0  0  0  0  0  0
   20.2463   -9.8195  -16.4451 N   0  0  0  0  0  0  0  0  0  0  0  0
   21.2955   -8.0097  -17.6511 C   0  0  0  0  0  0  0  0  0  0  0  0
   21.1712   -6.7590  -18.2355 O   0  0  0  0  0  0  0  0  0  0  0  0
   20.8251   -5.8720  -14.3449 C   0  0  0  0  0  0  0  0  0  0  0  0
   21.2141   -4.5689  -14.1174 C   0  0  0  0  0  0  0  0  0  0  0  0
   22.0911   -8.8235  -18.1817 O   0  0  0  0  0  0  0  0  0  0  0  0
  2  1  1  1
  3  2  1  0
  4  2  1  0
  4  5  1  1
  6  4  1  0
  7  6  2  0
  8  6  1  0
  9  8  1  0
 10 11  1  0
  9 10  1  6
 12 16  1  0
 12 11  1  0
 13 12  2  0
 14 24  1  0
 14  9  1  0
 15 14  2  0
 18 17  1  0
 19 18  2  0
 20 19  1  0
 21 27  1  0
 21 20  2  0
 23 22  1  1
 22 21  1  0
 23 25  1  0
 23 24  1  0
 25 26  1  0
 27 28  2  0
 28 18  1  0
 29 25  2  0
M  END
$$$$
