VEY.pdb
     RDKit          3D

 29 29  0  0  1  0  0  0  0  0999 V2000
   27.9741  -17.3806  -18.2662 C   0  0  0  0  0  0  0  0  0  0  0  0
   27.3497  -16.0195  -18.0819 C   0  0  1  0  0  0  0  0  0  0  0  0
   27.5402  -15.2479  -19.3763 C   0  0  0  0  0  0  0  0  0  0  0  0
   25.8690  -16.0944  -17.8250 C   0  0  2  0  0  0  0  0  0  0  0  0
   25.3410  -14.7479  -17.8696 N   0  0  0  0  0  0  0  0  0  0  0  0
   25.5180  -16.7175  -16.5518 C   0  0  0  0  0  0  0  0  0  0  0  0
   26.1557  -16.5140  -15.4718 O   0  0  0  0  0  0  0  0  0  0  0  0
   24.4086  -17.5996  -16.5017 N   0  0  0  0  0  0  0  0  0  0  0  0
   24.0312  -18.2965  -15.2609 C   0  0  1  0  0  0  0  0  0  0  0  0
   22.5680  -18.2863  -15.0525 C   0  0  0  0  0  0  0  0  0  0  0  0
   22.0020  -19.0608  -13.9428 C   0  0  0  0  0  0  0  0  0  0  0  0
   20.5766  -19.2188  -13.7845 C   0  0  0  0  0  0  0  0  0  0  0  0
   19.7336  -18.9636  -14.6551 O   0  0  0  0  0  0  0  0  0  0  0  0
   24.6895  -19.5792  -15.1523 C   0  0  0  0  0  0  0  0  0  0  0  0
   24.6589  -20.4054  -16.0889 O   0  0  0  0  0  0  0  0  0  0  0  0
   20.0341  -19.6972  -12.5672 O   0  0  0  0  0  0  0  0  0  0  0  0
   25.1592  -20.2993   -7.5004 O   0  0  0  0  0  0  0  0  0  0  0  0
   25.6429  -20.4792   -8.7933 C   0  0  0  0  0  0  0  0  0  0  0  0
   25.7959  -21.7263   -9.3229 C   0  0  0  0  0  0  0  0  0  0  0  0
   26.2859  -21.8574  -10.6274 C   0  0  0  0  0  0  0  0  0  0  0  0
   26.6130  -20.7434  -11.3759 C   0  0  0  0  0  0  0  0  0  0  0  0
   27.1212  -20.9286  -12.7265 C   0  0  0  0  0  0  0  0  0  0  0  0
   26.0833  -21.1963  -13.7860 C   0  0  2  0  0  0  0  0  0  0  0  0
   25.3912  -19.9101  -13.9672 N   0  0  0  0  0  0  0  0  0  0  0  0
   25.1242  -22.2179  -13.3092 C   0  0  0  0  0  0  0  0  0  0  0  0
   23.8354  -21.8729  -12.9337 O   0  0  0  0  0  0  0  0  0  0  0  0
   26.4530  -19.4830  -10.8266 C   0  0  0  0  0  0  0  0  0  0  0  0
   25.9700  -19.3579   -9.5413 C   0  0  0  0  0  0  0  0  0  0  0  0
   25.4490  -23.4283  -13.2299 O   0  0  0  0  0  0  0  0  0  0  0  0
  2  1  1  6
  3  2  1  0
  4  2  1  0
  4  5  1  1
  6  4  1  0
  7  6  2  0
  8  6  1  0
  9  8  1  0
 10 11  1  0
  9 10  1  6
 12 16  1  0
 12 11  1  0
 13 12  2  0
 14 24  1  0
 14  9  1  0
 15 14  2  0
 18 17  1  0
 19 18  2  0
 20 19  1  0
 21 27  1  0
 21 20  2  0
 23 22  1  1
 22 21  1  0
 23 25  1  0
 23 24  1  0
 25 26  1  0
 27 28  2  0
 28 18  1  0
 29 25  2  0
M  END
$$$$
