VEY.pdb
     RDKit          3D

 29 29  0  0  1  0  0  0  0  0999 V2000
   24.5890  -28.4526  -17.9352 C   0  0  0  0  0  0  0  0  0  0  0  0
   23.9930  -28.5295  -19.3191 C   0  0  1  0  0  0  0  0  0  0  0  0
   23.0334  -27.3619  -19.4712 C   0  0  0  0  0  0  0  0  0  0  0  0
   25.0294  -28.3946  -20.4015 C   0  0  2  0  0  0  0  0  0  0  0  0
   24.3631  -28.5470  -21.6769 N   0  0  0  0  0  0  0  0  0  0  0  0
   26.1224  -29.3578  -20.3004 C   0  0  0  0  0  0  0  0  0  0  0  0
   25.9771  -30.6060  -20.4886 O   0  0  0  0  0  0  0  0  0  0  0  0
   27.4215  -28.8907  -19.9755 N   0  0  0  0  0  0  0  0  0  0  0  0
   28.5646  -29.8104  -19.8522 C   0  0  1  0  0  0  0  0  0  0  0  0
   29.7980  -29.2275  -20.4210 C   0  0  0  0  0  0  0  0  0  0  0  0
   31.0404  -30.0057  -20.3732 C   0  0  0  0  0  0  0  0  0  0  0  0
   31.5436  -30.6937  -21.5374 C   0  0  0  0  0  0  0  0  0  0  0  0
   31.0860  -30.5784  -22.6824 O   0  0  0  0  0  0  0  0  0  0  0  0
   28.6648  -30.3551  -18.5167 C   0  0  0  0  0  0  0  0  0  0  0  0
   28.8811  -29.6193  -17.5304 O   0  0  0  0  0  0  0  0  0  0  0  0
   32.6412  -31.5821  -21.4327 O   0  0  0  0  0  0  0  0  0  0  0  0
   26.4491  -35.4543  -11.7893 O   0  0  0  0  0  0  0  0  0  0  0  0
   26.6299  -34.7386  -12.9696 C   0  0  0  0  0  0  0  0  0  0  0  0
   26.6201  -35.3622  -14.1821 C   0  0  0  0  0  0  0  0  0  0  0  0
   26.8061  -34.6006  -15.3417 C   0  0  0  0  0  0  0  0  0  0  0  0
   26.9977  -33.2347  -15.2681 C   0  0  0  0  0  0  0  0  0  0  0  0
   27.1894  -32.4846  -16.5000 C   0  0  0  0  0  0  0  0  0  0  0  0
   28.6120  -32.3740  -16.9850 C   0  0  2  0  0  0  0  0  0  0  0  0
   28.5084  -31.7481  -18.3131 N   0  0  0  0  0  0  0  0  0  0  0  0
   29.2103  -33.7219  -17.1122 C   0  0  0  0  0  0  0  0  0  0  0  0
   29.8425  -34.3309  -16.0396 O   0  0  0  0  0  0  0  0  0  0  0  0
   27.0054  -32.6137  -14.0311 C   0  0  0  0  0  0  0  0  0  0  0  0
   26.8219  -33.3672  -12.8911 C   0  0  0  0  0  0  0  0  0  0  0  0
   29.1636  -34.3547  -18.1958 O   0  0  0  0  0  0  0  0  0  0  0  0
  2  1  1  1
  3  2  1  0
  4  2  1  0
  4  5  1  6
  6  4  1  0
  7  6  2  0
  8  6  1  0
  9  8  1  0
 10 11  1  0
  9 10  1  1
 12 16  1  0
 12 11  1  0
 13 12  2  0
 14 24  1  0
 14  9  1  0
 15 14  2  0
 18 17  1  0
 19 18  2  0
 20 19  1  0
 21 27  1  0
 21 20  2  0
 23 22  1  6
 22 21  1  0
 23 25  1  0
 23 24  1  0
 25 26  1  0
 27 28  2  0
 28 18  1  0
 29 25  2  0
M  END
$$$$
