VEY.pdb
     RDKit          3D

 29 29  0  0  1  0  0  0  0  0999 V2000
   31.9430  -22.8921  -10.7482 C   0  0  0  0  0  0  0  0  0  0  0  0
   30.6201  -22.2559  -11.0967 C   0  0  1  0  0  0  0  0  0  0  0  0
   30.1300  -21.5122   -9.8662 C   0  0  0  0  0  0  0  0  0  0  0  0
   30.7403  -21.2460  -12.2055 C   0  0  2  0  0  0  0  0  0  0  0  0
   31.7165  -20.2568  -11.8026 N   0  0  0  0  0  0  0  0  0  0  0  0
   29.4833  -20.5852  -12.5457 C   0  0  0  0  0  0  0  0  0  0  0  0
   29.1277  -19.4640  -12.0649 O   0  0  0  0  0  0  0  0  0  0  0  0
   28.6013  -21.2158  -13.4600 N   0  0  0  0  0  0  0  0  0  0  0  0
   27.3604  -20.5641  -13.9106 C   0  0  1  0  0  0  0  0  0  0  0  0
   27.2913  -20.4820  -15.3848 C   0  0  0  0  0  0  0  0  0  0  0  0
   26.1146  -19.8675  -16.0087 C   0  0  0  0  0  0  0  0  0  0  0  0
   25.9816  -19.7801  -17.4428 C   0  0  0  0  0  0  0  0  0  0  0  0
   26.7841  -20.2521  -18.2596 O   0  0  0  0  0  0  0  0  0  0  0  0
   26.2016  -21.1095  -13.2398 C   0  0  0  0  0  0  0  0  0  0  0  0
   26.0681  -22.3404  -13.0728 O   0  0  0  0  0  0  0  0  0  0  0  0
   24.8740  -19.1186  -18.0261 O   0  0  0  0  0  0  0  0  0  0  0  0
   26.9222  -20.3576   -6.3714 O   0  0  0  0  0  0  0  0  0  0  0  0
   26.1480  -20.1835   -7.5152 C   0  0  0  0  0  0  0  0  0  0  0  0
   26.3721  -19.1435   -8.3680 C   0  0  0  0  0  0  0  0  0  0  0  0
   25.5676  -19.0095   -9.5056 C   0  0  0  0  0  0  0  0  0  0  0  0
   24.5575  -19.9142   -9.7687 C   0  0  0  0  0  0  0  0  0  0  0  0
   23.7451  -19.7331  -10.9620 C   0  0  0  0  0  0  0  0  0  0  0  0
   23.9846  -20.7221  -12.0738 C   0  0  2  0  0  0  0  0  0  0  0  0
   25.1972  -20.2374  -12.7528 N   0  0  0  0  0  0  0  0  0  0  0  0
   22.8441  -20.7099  -13.0172 C   0  0  0  0  0  0  0  0  0  0  0  0
   21.6343  -21.3010  -12.6885 O   0  0  0  0  0  0  0  0  0  0  0  0
   24.3404  -20.9655   -8.8950 C   0  0  0  0  0  0  0  0  0  0  0  0
   25.1348  -21.0943   -7.7755 C   0  0  0  0  0  0  0  0  0  0  0  0
   22.9378  -20.1640  -14.1442 O   0  0  0  0  0  0  0  0  0  0  0  0
  2  1  1  1
  3  2  1  0
  4  2  1  0
  4  5  1  1
  6  4  1  0
  7  6  2  0
  8  6  1  0
  9  8  1  0
 10 11  1  0
  9 10  1  6
 12 16  1  0
 12 11  1  0
 13 12  2  0
 14 24  1  0
 14  9  1  0
 15 14  2  0
 18 17  1  0
 19 18  2  0
 20 19  1  0
 21 27  1  0
 21 20  2  0
 23 22  1  1
 22 21  1  0
 23 25  1  0
 23 24  1  0
 25 26  1  0
 27 28  2  0
 28 18  1  0
 29 25  2  0
M  END
$$$$
