VEY.pdb
     RDKit          3D

 29 29  0  0  1  0  0  0  0  0999 V2000
   21.5450  -11.7976  -21.8616 C   0  0  0  0  0  0  0  0  0  0  0  0
   21.2340  -10.5763  -21.0321 C   0  0  1  0  0  0  0  0  0  0  0  0
   19.8062  -10.1616  -21.3430 C   0  0  0  0  0  0  0  0  0  0  0  0
   21.3035  -10.8502  -19.5542 C   0  0  2  0  0  0  0  0  0  0  0  0
   20.5176  -12.0347  -19.2837 N   0  0  0  0  0  0  0  0  0  0  0  0
   20.8303   -9.7467  -18.7229 C   0  0  0  0  0  0  0  0  0  0  0  0
   19.6474   -9.6702  -18.2655 O   0  0  0  0  0  0  0  0  0  0  0  0
   21.7272   -8.6965  -18.4002 N   0  0  0  0  0  0  0  0  0  0  0  0
   21.2879   -7.5093  -17.6482 C   0  0  1  0  0  0  0  0  0  0  0  0
   21.5767   -7.6400  -16.2046 C   0  0  0  0  0  0  0  0  0  0  0  0
   21.2422   -6.5278  -15.3087 C   0  0  0  0  0  0  0  0  0  0  0  0
   21.5501   -6.5766  -13.8998 C   0  0  0  0  0  0  0  0  0  0  0  0
   21.1164   -7.4245  -13.1080 O   0  0  0  0  0  0  0  0  0  0  0  0
   21.7242   -6.2870  -18.2855 C   0  0  0  0  0  0  0  0  0  0  0  0
   22.9182   -6.1151  -18.6103 O   0  0  0  0  0  0  0  0  0  0  0  0
   22.4059   -5.6128  -13.3141 O   0  0  0  0  0  0  0  0  0  0  0  0
   20.4341    1.5826  -22.2649 O   0  0  0  0  0  0  0  0  0  0  0  0
   20.3216    0.3268  -21.6749 C   0  0  0  0  0  0  0  0  0  0  0  0
   20.6627   -0.8055  -22.3538 C   0  0  0  0  0  0  0  0  0  0  0  0
   20.5325   -2.0461  -21.7188 C   0  0  0  0  0  0  0  0  0  0  0  0
   20.0653   -2.1318  -20.4217 C   0  0  0  0  0  0  0  0  0  0  0  0
   19.9444   -3.4432  -19.8035 C   0  0  0  0  0  0  0  0  0  0  0  0
   21.1735   -3.9482  -19.0924 C   0  0  2  0  0  0  0  0  0  0  0  0
   20.7842   -5.2627  -18.5570 N   0  0  0  0  0  0  0  0  0  0  0  0
   21.5245   -3.0382  -17.9790 C   0  0  0  0  0  0  0  0  0  0  0  0
   22.3277   -1.9277  -18.1855 O   0  0  0  0  0  0  0  0  0  0  0  0
   19.7226   -0.9748  -19.7436 C   0  0  0  0  0  0  0  0  0  0  0  0
   19.8522    0.2454  -20.3723 C   0  0  0  0  0  0  0  0  0  0  0  0
   21.1056   -3.2448  -16.8134 O   0  0  0  0  0  0  0  0  0  0  0  0
  2  1  1  6
  3  2  1  0
  4  2  1  0
  4  5  1  6
  6  4  1  0
  7  6  2  0
  8  6  1  0
  9  8  1  0
 10 11  1  0
  9 10  1  1
 12 16  1  0
 12 11  1  0
 13 12  2  0
 14 24  1  0
 14  9  1  0
 15 14  2  0
 18 17  1  0
 19 18  2  0
 20 19  1  0
 21 27  1  0
 21 20  2  0
 23 22  1  1
 22 21  1  0
 23 25  1  0
 23 24  1  0
 25 26  1  0
 27 28  2  0
 28 18  1  0
 29 25  2  0
M  END
$$$$
