VEY.pdb
     RDKit          3D

 29 29  0  0  1  0  0  0  0  0999 V2000
   13.9418   -7.5960  -20.1871 C   0  0  0  0  0  0  0  0  0  0  0  0
   14.9043   -7.8064  -19.0445 C   0  0  1  0  0  0  0  0  0  0  0  0
   14.7865   -6.6081  -18.1184 C   0  0  0  0  0  0  0  0  0  0  0  0
   14.5751   -9.0286  -18.2309 C   0  0  2  0  0  0  0  0  0  0  0  0
   13.1566   -9.0047  -17.9460 N   0  0  0  0  0  0  0  0  0  0  0  0
   15.3250   -9.1302  -16.9819 C   0  0  0  0  0  0  0  0  0  0  0  0
   14.9203   -8.6455  -15.8793 O   0  0  0  0  0  0  0  0  0  0  0  0
   16.5737   -9.8027  -16.9834 N   0  0  0  0  0  0  0  0  0  0  0  0
   17.4028   -9.8950  -15.7703 C   0  0  1  0  0  0  0  0  0  0  0  0
   17.4941  -11.2849  -15.2759 C   0  0  0  0  0  0  0  0  0  0  0  0
   16.3057  -11.9093  -14.6850 C   0  0  0  0  0  0  0  0  0  0  0  0
   16.3145  -13.2856  -14.2519 C   0  0  0  0  0  0  0  0  0  0  0  0
   16.3047  -14.2670  -15.0074 O   0  0  0  0  0  0  0  0  0  0  0  0
   18.6511   -9.1822  -15.9260 C   0  0  0  0  0  0  0  0  0  0  0  0
   19.1988   -9.0695  -17.0431 O   0  0  0  0  0  0  0  0  0  0  0  0
   16.3358  -13.6085  -12.8735 O   0  0  0  0  0  0  0  0  0  0  0  0
   23.6355   -2.2848  -16.1287 O   0  0  0  0  0  0  0  0  0  0  0  0
   22.7204   -3.3275  -16.0127 C   0  0  0  0  0  0  0  0  0  0  0  0
   21.6229   -3.2180  -15.2110 C   0  0  0  0  0  0  0  0  0  0  0  0
   20.7308   -4.2932  -15.1264 C   0  0  0  0  0  0  0  0  0  0  0  0
   20.9512   -5.4539  -15.8422 C   0  0  0  0  0  0  0  0  0  0  0  0
   19.9978   -6.5461  -15.7209 C   0  0  0  0  0  0  0  0  0  0  0  0
   20.4531   -7.7250  -14.8996 C   0  0  2  0  0  0  0  0  0  0  0  0
   19.2675   -8.5908  -14.7960 N   0  0  0  0  0  0  0  0  0  0  0  0
   20.8632   -7.2744  -13.5505 C   0  0  0  0  0  0  0  0  0  0  0  0
   22.1813   -6.9485  -13.2724 O   0  0  0  0  0  0  0  0  0  0  0  0
   22.0691   -5.5523  -16.6524 C   0  0  0  0  0  0  0  0  0  0  0  0
   22.9457   -4.4911  -16.7333 C   0  0  0  0  0  0  0  0  0  0  0  0
   20.0295   -7.1741  -12.6168 O   0  0  0  0  0  0  0  0  0  0  0  0
  2  1  1  6
  3  2  1  0
  4  2  1  0
  4  5  1  1
  6  4  1  0
  7  6  2  0
  8  6  1  0
  9  8  1  0
 10 11  1  0
  9 10  1  6
 12 16  1  0
 12 11  1  0
 13 12  2  0
 14 24  1  0
 14  9  1  0
 15 14  2  0
 18 17  1  0
 19 18  2  0
 20 19  1  0
 21 27  1  0
 21 20  2  0
 23 22  1  6
 22 21  1  0
 23 25  1  0
 23 24  1  0
 25 26  1  0
 27 28  2  0
 28 18  1  0
 29 25  2  0
M  END
$$$$
