VEY.pdb
     RDKit          3D

 29 29  0  0  1  0  0  0  0  0999 V2000
   27.2691  -11.2405  -15.2272 C   0  0  0  0  0  0  0  0  0  0  0  0
   27.2290  -12.3697  -16.2270 C   0  0  1  0  0  0  0  0  0  0  0  0
   28.2848  -13.3825  -15.8184 C   0  0  0  0  0  0  0  0  0  0  0  0
   25.9065  -13.0873  -16.2335 C   0  0  2  0  0  0  0  0  0  0  0  0
   26.0092  -14.2013  -17.1513 N   0  0  0  0  0  0  0  0  0  0  0  0
   24.7752  -12.2439  -16.6099 C   0  0  0  0  0  0  0  0  0  0  0  0
   24.6114  -11.7698  -17.7773 O   0  0  0  0  0  0  0  0  0  0  0  0
   23.7987  -11.9280  -15.6311 N   0  0  0  0  0  0  0  0  0  0  0  0
   22.6833  -11.0115  -15.9205 C   0  0  1  0  0  0  0  0  0  0  0  0
   21.3839  -11.5887  -15.5166 C   0  0  0  0  0  0  0  0  0  0  0  0
   20.1592  -10.8151  -15.7477 C   0  0  0  0  0  0  0  0  0  0  0  0
   18.8640  -11.3232  -15.3655 C   0  0  0  0  0  0  0  0  0  0  0  0
   18.4696  -12.4805  -15.5628 O   0  0  0  0  0  0  0  0  0  0  0  0
   22.9654   -9.6709  -15.4585 C   0  0  0  0  0  0  0  0  0  0  0  0
   23.3993   -9.4596  -14.3062 O   0  0  0  0  0  0  0  0  0  0  0  0
   17.9251  -10.4885  -14.7122 O   0  0  0  0  0  0  0  0  0  0  0  0
   23.8872   -0.8698  -16.6992 O   0  0  0  0  0  0  0  0  0  0  0  0
   23.6788   -2.2400  -16.8298 C   0  0  0  0  0  0  0  0  0  0  0  0
   22.4460   -2.7417  -17.1259 C   0  0  0  0  0  0  0  0  0  0  0  0
   22.2851   -4.1268  -17.2473 C   0  0  0  0  0  0  0  0  0  0  0  0
   23.3555   -4.9819  -17.0710 C   0  0  0  0  0  0  0  0  0  0  0  0
   23.1400   -6.4145  -17.2045 C   0  0  0  0  0  0  0  0  0  0  0  0
   22.9900   -7.1775  -15.9135 C   0  0  2  0  0  0  0  0  0  0  0  0
   22.7554   -8.5708  -16.3258 N   0  0  0  0  0  0  0  0  0  0  0  0
   21.8190   -6.6744  -15.1607 C   0  0  0  0  0  0  0  0  0  0  0  0
   21.9668   -5.7562  -14.1330 O   0  0  0  0  0  0  0  0  0  0  0  0
   24.6018   -4.4598  -16.7708 C   0  0  0  0  0  0  0  0  0  0  0  0
   24.7565   -3.0949  -16.6520 C   0  0  0  0  0  0  0  0  0  0  0  0
   20.6561   -7.0643  -15.4299 O   0  0  0  0  0  0  0  0  0  0  0  0
  2  1  1  1
  3  2  1  0
  4  2  1  0
  4  5  1  6
  6  4  1  0
  7  6  2  0
  8  6  1  0
  9  8  1  0
 10 11  1  0
  9 10  1  1
 12 16  1  0
 12 11  1  0
 13 12  2  0
 14 24  1  0
 14  9  1  0
 15 14  2  0
 18 17  1  0
 19 18  2  0
 20 19  1  0
 21 27  1  0
 21 20  2  0
 23 22  1  6
 22 21  1  0
 23 25  1  0
 23 24  1  0
 25 26  1  0
 27 28  2  0
 28 18  1  0
 29 25  2  0
M  END
$$$$
