VEY.pdb
     RDKit          3D

 29 29  0  0  1  0  0  0  0  0999 V2000
   14.6158   -9.5421  -14.7362 C   0  0  0  0  0  0  0  0  0  0  0  0
   16.0064   -8.9569  -14.7459 C   0  0  1  0  0  0  0  0  0  0  0  0
   15.9643   -7.6600  -13.9562 C   0  0  0  0  0  0  0  0  0  0  0  0
   17.0130   -9.8514  -14.0747 C   0  0  2  0  0  0  0  0  0  0  0  0
   16.5156  -10.1681  -12.7533 N   0  0  0  0  0  0  0  0  0  0  0  0
   18.3482   -9.2692  -13.9701 C   0  0  0  0  0  0  0  0  0  0  0  0
   18.7589   -8.6350  -12.9485 O   0  0  0  0  0  0  0  0  0  0  0  0
   19.2462   -9.4104  -15.0588 N   0  0  0  0  0  0  0  0  0  0  0  0
   20.5468   -8.7207  -15.0818 C   0  0  1  0  0  0  0  0  0  0  0  0
   21.5375   -9.4511  -15.9001 C   0  0  0  0  0  0  0  0  0  0  0  0
   22.1792  -10.6461  -15.3416 C   0  0  0  0  0  0  0  0  0  0  0  0
   23.1689  -11.3869  -16.0856 C   0  0  0  0  0  0  0  0  0  0  0  0
   22.9237  -12.1393  -17.0383 O   0  0  0  0  0  0  0  0  0  0  0  0
   20.3939   -7.3103  -15.3604 C   0  0  0  0  0  0  0  0  0  0  0  0
   19.5284   -6.8972  -16.1611 O   0  0  0  0  0  0  0  0  0  0  0  0
   24.5420  -11.2918  -15.7536 O   0  0  0  0  0  0  0  0  0  0  0  0
   21.6648    1.3114  -13.5012 O   0  0  0  0  0  0  0  0  0  0  0  0
   21.6816   -0.0796  -13.5544 C   0  0  0  0  0  0  0  0  0  0  0  0
   20.6119   -0.8152  -13.1375 C   0  0  0  0  0  0  0  0  0  0  0  0
   20.6751   -2.2116  -13.2100 C   0  0  0  0  0  0  0  0  0  0  0  0
   21.8024   -2.8447  -13.6961 C   0  0  0  0  0  0  0  0  0  0  0  0
   21.8236   -4.2985  -13.7505 C   0  0  0  0  0  0  0  0  0  0  0  0
   21.1194   -4.9203  -14.9290 C   0  0  2  0  0  0  0  0  0  0  0  0
   21.2327   -6.3715  -14.7112 N   0  0  0  0  0  0  0  0  0  0  0  0
   21.8078   -4.5474  -16.1852 C   0  0  0  0  0  0  0  0  0  0  0  0
   21.2498   -3.6339  -17.0656 O   0  0  0  0  0  0  0  0  0  0  0  0
   22.8815   -2.0865  -14.1163 C   0  0  0  0  0  0  0  0  0  0  0  0
   22.8156   -0.7112  -14.0433 C   0  0  0  0  0  0  0  0  0  0  0  0
   22.9181   -5.0474  -16.4916 O   0  0  0  0  0  0  0  0  0  0  0  0
  2  1  1  1
  3  2  1  0
  4  2  1  0
  4  5  1  1
  6  4  1  0
  7  6  2  0
  8  6  1  0
  9  8  1  0
 10 11  1  0
  9 10  1  6
 12 16  1  0
 12 11  1  0
 13 12  2  0
 14 24  1  0
 14  9  1  0
 15 14  2  0
 18 17  1  0
 19 18  2  0
 20 19  1  0
 21 27  1  0
 21 20  2  0
 23 22  1  1
 22 21  1  0
 23 25  1  0
 23 24  1  0
 25 26  1  0
 27 28  2  0
 28 18  1  0
 29 25  2  0
M  END
$$$$
