VEY.pdb
     RDKit          3D

 29 29  0  0  1  0  0  0  0  0999 V2000
   28.3652  -27.4107  -23.1517 C   0  0  0  0  0  0  0  0  0  0  0  0
   28.8699  -26.2926  -22.2734 C   0  0  1  0  0  0  0  0  0  0  0  0
   27.8512  -25.1674  -22.3318 C   0  0  0  0  0  0  0  0  0  0  0  0
   28.9935  -26.7033  -20.8312 C   0  0  2  0  0  0  0  0  0  0  0  0
   29.3351  -25.5268  -20.0611 N   0  0  0  0  0  0  0  0  0  0  0  0
   29.9844  -27.7496  -20.5946 C   0  0  0  0  0  0  0  0  0  0  0  0
   29.9485  -28.8895  -21.1550 O   0  0  0  0  0  0  0  0  0  0  0  0
   31.0499  -27.4954  -19.6938 N   0  0  0  0  0  0  0  0  0  0  0  0
   32.0637  -28.5183  -19.3881 C   0  0  1  0  0  0  0  0  0  0  0  0
   33.4179  -27.9335  -19.2935 C   0  0  0  0  0  0  0  0  0  0  0  0
   34.5380  -28.7935  -18.8968 C   0  0  0  0  0  0  0  0  0  0  0  0
   35.8926  -28.2978  -18.8622 C   0  0  0  0  0  0  0  0  0  0  0  0
   36.2479  -27.1767  -19.2505 O   0  0  0  0  0  0  0  0  0  0  0  0
   31.6486  -29.3650  -18.2922 C   0  0  0  0  0  0  0  0  0  0  0  0
   31.4248  -28.8938  -17.1570 O   0  0  0  0  0  0  0  0  0  0  0  0
   36.9432  -29.1025  -18.3586 O   0  0  0  0  0  0  0  0  0  0  0  0
   26.3990  -34.6690  -14.1072 O   0  0  0  0  0  0  0  0  0  0  0  0
   27.1863  -33.8013  -14.8590 C   0  0  0  0  0  0  0  0  0  0  0  0
   27.7780  -32.7125  -14.2903 C   0  0  0  0  0  0  0  0  0  0  0  0
   28.5608  -31.8685  -15.0866 C   0  0  0  0  0  0  0  0  0  0  0  0
   28.7370  -32.1274  -16.4320 C   0  0  0  0  0  0  0  0  0  0  0  0
   29.5572  -31.2208  -17.2206 C   0  0  0  0  0  0  0  0  0  0  0  0
   30.9777  -31.6635  -17.4607 C   0  0  2  0  0  0  0  0  0  0  0  0
   31.4828  -30.7558  -18.5034 N   0  0  0  0  0  0  0  0  0  0  0  0
   30.9968  -33.0574  -17.9583 C   0  0  0  0  0  0  0  0  0  0  0  0
   31.0312  -34.1317  -17.0832 O   0  0  0  0  0  0  0  0  0  0  0  0
   28.1308  -33.2361  -16.9971 C   0  0  0  0  0  0  0  0  0  0  0  0
   27.3605  -34.0652  -16.2095 C   0  0  0  0  0  0  0  0  0  0  0  0
   30.9827  -33.3092  -19.1885 O   0  0  0  0  0  0  0  0  0  0  0  0
  2  1  1  6
  3  2  1  0
  4  2  1  0
  4  5  1  1
  6  4  1  0
  7  6  2  0
  8  6  1  0
  9  8  1  0
 10 11  1  0
  9 10  1  1
 12 16  1  0
 12 11  1  0
 13 12  2  0
 14 24  1  0
 14  9  1  0
 15 14  2  0
 18 17  1  0
 19 18  2  0
 20 19  1  0
 21 27  1  0
 21 20  2  0
 23 22  1  6
 22 21  1  0
 23 25  1  0
 23 24  1  0
 25 26  1  0
 27 28  2  0
 28 18  1  0
 29 25  2  0
M  END
$$$$
