VEY.pdb
     RDKit          3D

 29 29  0  0  1  0  0  0  0  0999 V2000
   27.7435  -29.0473  -24.8674 C   0  0  0  0  0  0  0  0  0  0  0  0
   28.4521  -30.0675  -24.0109 C   0  0  1  0  0  0  0  0  0  0  0  0
   27.7828  -31.4103  -24.2481 C   0  0  0  0  0  0  0  0  0  0  0  0
   29.9020  -30.2239  -24.3812 C   0  0  2  0  0  0  0  0  0  0  0  0
   29.9744  -30.4562  -25.8077 N   0  0  0  0  0  0  0  0  0  0  0  0
   30.5825  -31.3044  -23.6727 C   0  0  0  0  0  0  0  0  0  0  0  0
   31.2571  -32.2099  -24.2555 O   0  0  0  0  0  0  0  0  0  0  0  0
   30.4952  -31.3601  -22.2582 N   0  0  0  0  0  0  0  0  0  0  0  0
   31.2465  -32.3561  -21.4765 C   0  0  1  0  0  0  0  0  0  0  0  0
   32.6759  -32.3793  -21.8518 C   0  0  0  0  0  0  0  0  0  0  0  0
   33.5869  -33.2730  -21.1286 C   0  0  0  0  0  0  0  0  0  0  0  0
   33.9349  -34.5738  -21.6468 C   0  0  0  0  0  0  0  0  0  0  0  0
   34.2980  -34.8005  -22.8090 O   0  0  0  0  0  0  0  0  0  0  0  0
   30.9516  -32.2540  -20.0648 C   0  0  0  0  0  0  0  0  0  0  0  0
   31.3409  -31.2776  -19.3897 O   0  0  0  0  0  0  0  0  0  0  0  0
   33.8787  -35.7200  -20.8174 O   0  0  0  0  0  0  0  0  0  0  0  0
   26.3926  -33.1746  -12.6413 O   0  0  0  0  0  0  0  0  0  0  0  0
   26.9272  -33.0887  -13.9237 C   0  0  0  0  0  0  0  0  0  0  0  0
   27.8736  -32.1572  -14.2333 C   0  0  0  0  0  0  0  0  0  0  0  0
   28.3818  -32.1090  -15.5366 C   0  0  0  0  0  0  0  0  0  0  0  0
   27.9363  -32.9897  -16.5030 C   0  0  0  0  0  0  0  0  0  0  0  0
   28.4916  -32.9005  -17.8448 C   0  0  0  0  0  0  0  0  0  0  0  0
   29.9429  -33.2838  -17.9800 C   0  0  2  0  0  0  0  0  0  0  0  0
   30.2007  -33.2730  -19.4290 N   0  0  0  0  0  0  0  0  0  0  0  0
   30.1592  -34.6463  -17.4433 C   0  0  0  0  0  0  0  0  0  0  0  0
   30.5049  -35.6992  -18.2756 O   0  0  0  0  0  0  0  0  0  0  0  0
   26.9753  -33.9306  -16.1758 C   0  0  0  0  0  0  0  0  0  0  0  0
   26.4770  -33.9750  -14.8910 C   0  0  0  0  0  0  0  0  0  0  0  0
   30.0358  -34.8897  -16.2176 O   0  0  0  0  0  0  0  0  0  0  0  0
  2  1  1  6
  3  2  1  0
  4  2  1  0
  4  5  1  6
  6  4  1  0
  7  6  2  0
  8  6  1  0
  9  8  1  0
 10 11  1  0
  9 10  1  1
 12 16  1  0
 12 11  1  0
 13 12  2  0
 14 24  1  0
 14  9  1  0
 15 14  2  0
 18 17  1  0
 19 18  2  0
 20 19  1  0
 21 27  1  0
 21 20  2  0
 23 22  1  6
 22 21  1  0
 23 25  1  0
 23 24  1  0
 25 26  1  0
 27 28  2  0
 28 18  1  0
 29 25  2  0
M  END
$$$$
