VEY.pdb
     RDKit          3D

 29 29  0  0  1  0  0  0  0  0999 V2000
   22.4608  -19.6629  -19.4179 C   0  0  0  0  0  0  0  0  0  0  0  0
   23.0349  -20.5139  -18.3123 C   0  0  1  0  0  0  0  0  0  0  0  0
   23.8815  -21.5968  -18.9588 C   0  0  0  0  0  0  0  0  0  0  0  0
   23.9378  -19.7349  -17.3948 C   0  0  2  0  0  0  0  0  0  0  0  0
   24.8893  -19.0144  -18.2131 N   0  0  0  0  0  0  0  0  0  0  0  0
   24.6511  -20.5592  -16.4231 C   0  0  0  0  0  0  0  0  0  0  0  0
   24.0799  -21.4076  -15.6691 O   0  0  0  0  0  0  0  0  0  0  0  0
   26.0571  -20.4169  -16.3024 N   0  0  0  0  0  0  0  0  0  0  0  0
   26.8166  -21.1136  -15.2509 C   0  0  1  0  0  0  0  0  0  0  0  0
   28.1745  -21.4764  -15.7079 C   0  0  0  0  0  0  0  0  0  0  0  0
   28.3218  -22.4024  -16.8359 C   0  0  0  0  0  0  0  0  0  0  0  0
   28.2939  -21.9367  -18.2013 C   0  0  0  0  0  0  0  0  0  0  0  0
   29.0707  -21.1001  -18.6814 O   0  0  0  0  0  0  0  0  0  0  0  0
   26.7252  -20.4219  -13.9846 C   0  0  0  0  0  0  0  0  0  0  0  0
   27.0221  -19.2127  -13.8829 O   0  0  0  0  0  0  0  0  0  0  0  0
   27.3316  -22.4329  -19.1137 O   0  0  0  0  0  0  0  0  0  0  0  0
   19.8434  -21.7635  -11.4187 O   0  0  0  0  0  0  0  0  0  0  0  0
   21.1173  -21.2039  -11.4645 C   0  0  0  0  0  0  0  0  0  0  0  0
   21.7673  -20.8336  -10.3245 C   0  0  0  0  0  0  0  0  0  0  0  0
   23.0471  -20.2750  -10.4205 C   0  0  0  0  0  0  0  0  0  0  0  0
   23.6515  -20.0976  -11.6499 C   0  0  0  0  0  0  0  0  0  0  0  0
   24.9818  -19.5107  -11.7008 C   0  0  0  0  0  0  0  0  0  0  0  0
   26.1290  -20.4715  -11.5215 C   0  0  2  0  0  0  0  0  0  0  0  0
   26.2842  -21.1200  -12.8336 N   0  0  0  0  0  0  0  0  0  0  0  0
   25.7856  -21.4856  -10.4994 C   0  0  0  0  0  0  0  0  0  0  0  0
   25.7490  -21.1630   -9.1520 O   0  0  0  0  0  0  0  0  0  0  0  0
   22.9810  -20.4778  -12.7995 C   0  0  0  0  0  0  0  0  0  0  0  0
   21.7204  -21.0276  -12.7010 C   0  0  0  0  0  0  0  0  0  0  0  0
   25.5172  -22.6692  -10.8219 O   0  0  0  0  0  0  0  0  0  0  0  0
  2  1  1  6
  3  2  1  0
  4  2  1  0
  4  5  1  6
  6  4  1  0
  7  6  2  0
  8  6  1  0
  9  8  1  0
 10 11  1  0
  9 10  1  6
 12 16  1  0
 12 11  1  0
 13 12  2  0
 14 24  1  0
 14  9  1  0
 15 14  2  0
 18 17  1  0
 19 18  2  0
 20 19  1  0
 21 27  1  0
 21 20  2  0
 23 22  1  6
 22 21  1  0
 23 25  1  0
 23 24  1  0
 25 26  1  0
 27 28  2  0
 28 18  1  0
 29 25  2  0
M  END
$$$$
