VEY.pdb
     RDKit          3D

 29 29  0  0  1  0  0  0  0  0999 V2000
   21.8633  -15.1986  -19.7946 C   0  0  0  0  0  0  0  0  0  0  0  0
   21.5901  -13.7175  -19.8833 C   0  0  1  0  0  0  0  0  0  0  0  0
   20.3492  -13.5300  -20.7390 C   0  0  0  0  0  0  0  0  0  0  0  0
   21.2991  -13.1034  -18.5409 C   0  0  2  0  0  0  0  0  0  0  0  0
   20.2159  -13.8484  -17.9362 N   0  0  0  0  0  0  0  0  0  0  0  0
   20.9482  -11.6871  -18.5994 C   0  0  0  0  0  0  0  0  0  0  0  0
   21.7429  -10.7837  -19.0079 O   0  0  0  0  0  0  0  0  0  0  0  0
   19.6549  -11.2822  -18.1810 N   0  0  0  0  0  0  0  0  0  0  0  0
   19.2605   -9.8639  -18.1542 C   0  0  1  0  0  0  0  0  0  0  0  0
   17.9594   -9.6465  -18.8208 C   0  0  0  0  0  0  0  0  0  0  0  0
   17.4101   -8.2878  -18.8830 C   0  0  0  0  0  0  0  0  0  0  0  0
   17.8258   -7.3531  -19.9006 C   0  0  0  0  0  0  0  0  0  0  0  0
   18.0630   -7.6476  -21.0800 O   0  0  0  0  0  0  0  0  0  0  0  0
   19.4112   -9.2969  -16.8328 C   0  0  0  0  0  0  0  0  0  0  0  0
   18.9657   -9.8803  -15.8218 O   0  0  0  0  0  0  0  0  0  0  0  0
   17.9944   -5.9810  -19.5950 O   0  0  0  0  0  0  0  0  0  0  0  0
   24.5133  -12.2223  -14.6992 O   0  0  0  0  0  0  0  0  0  0  0  0
   23.8432  -11.0110  -14.8469 C   0  0  0  0  0  0  0  0  0  0  0  0
   23.8624  -10.3331  -16.0298 C   0  0  0  0  0  0  0  0  0  0  0  0
   23.1737   -9.1187  -16.1306 C   0  0  0  0  0  0  0  0  0  0  0  0
   22.4810   -8.6062  -15.0510 C   0  0  0  0  0  0  0  0  0  0  0  0
   21.7820   -7.3391  -15.2018 C   0  0  0  0  0  0  0  0  0  0  0  0
   20.2857   -7.4310  -15.3570 C   0  0  2  0  0  0  0  0  0  0  0  0
   20.0824   -8.0599  -16.6720 N   0  0  0  0  0  0  0  0  0  0  0  0
   19.6917   -6.0751  -15.3535 C   0  0  0  0  0  0  0  0  0  0  0  0
   19.5889   -5.3394  -14.1833 O   0  0  0  0  0  0  0  0  0  0  0  0
   22.4694   -9.3042  -13.8558 C   0  0  0  0  0  0  0  0  0  0  0  0
   23.1490  -10.5001  -13.7603 C   0  0  0  0  0  0  0  0  0  0  0  0
   19.2627   -5.5501  -16.4104 O   0  0  0  0  0  0  0  0  0  0  0  0
  2  1  1  1
  3  2  1  0
  4  2  1  0
  4  5  1  6
  6  4  1  0
  7  6  2  0
  8  6  1  0
  9  8  1  0
 10 11  1  0
  9 10  1  1
 12 16  1  0
 12 11  1  0
 13 12  2  0
 14 24  1  0
 14  9  1  0
 15 14  2  0
 18 17  1  0
 19 18  2  0
 20 19  1  0
 21 27  1  0
 21 20  2  0
 23 22  1  6
 22 21  1  0
 23 25  1  0
 23 24  1  0
 25 26  1  0
 27 28  2  0
 28 18  1  0
 29 25  2  0
M  END
$$$$
