PMQ.pdb
     RDKit          3D

 25 25  0  0  1  0  0  0  0  0999 V2000
   28.3614  -20.4611  -16.9150 N   0  0  0  0  0  0  0  0  0  0  0  0
   29.3425  -20.5102  -18.0101 C   0  0  0  0  0  0  0  0  0  0  0  0
   30.1756  -21.7426  -17.7035 C   0  0  0  0  0  0  0  0  0  0  0  0
   29.3940  -22.4887  -16.6130 C   0  0  0  0  0  0  0  0  0  0  0  0
   28.0206  -21.8624  -16.7986 C   0  0  1  0  0  0  0  0  0  0  0  0
   27.1009  -22.1442  -15.6925 C   0  0  0  0  0  0  0  0  0  0  0  0
   26.6753  -23.3156  -15.5347 O   0  0  0  0  0  0  0  0  0  0  0  0
   24.8618  -21.1108   -8.7239 C   0  0  0  0  0  0  0  0  0  0  0  0
   25.7748  -21.4305  -10.2336 S   0  0  0  0  0  0  0  0  0  0  0  0
   25.6314  -20.0773  -11.4237 C   0  0  0  0  0  0  0  0  0  0  0  0
   26.4049  -20.3860  -12.6369 C   0  0  0  0  0  0  0  0  0  0  0  0
   25.8462  -21.3751  -13.6157 C   0  0  2  0  0  0  0  0  0  0  0  0
   26.6984  -21.1329  -14.8225 N   0  0  0  0  0  0  0  0  0  0  0  0
   24.4429  -21.1648  -14.0280 C   0  0  0  0  0  0  0  0  0  0  0  0
   24.1554  -20.1407  -14.7202 O   0  0  0  0  0  0  0  0  0  0  0  0
   17.8608  -21.8012  -13.3607 N   0  0  0  0  0  0  0  0  0  0  0  0
   18.7990  -22.8512  -13.4809 C   0  0  0  0  0  0  0  0  0  0  0  0
   18.8340  -23.8237  -12.6699 O   0  0  0  0  0  0  0  0  0  0  0  0
   19.7812  -22.8425  -14.5878 C   0  0  0  0  0  0  0  0  0  0  0  0
   21.2002  -22.9806  -14.1901 C   0  0  0  0  0  0  0  0  0  0  0  0
   21.9791  -21.7095  -14.1741 C   0  0  2  0  0  0  0  0  0  0  0  0
   23.3587  -22.0276  -13.7251 N   0  0  0  0  0  0  0  0  0  0  0  0
   21.4069  -20.6660  -13.3802 C   0  0  0  0  0  0  0  0  0  0  0  0
   20.5057  -19.7282  -13.9151 O   0  0  0  0  0  0  0  0  0  0  0  0
   21.6784  -20.5157  -12.1675 O   0  0  0  0  0  0  0  0  0  0  0  0
  1  5  1  0
  1  2  1  0
  2  3  1  0
  4  5  1  0
  4  3  1  0
  5  6  1  1
  6 13  1  0
  6  7  2  0
  8  9  1  0
  9 10  1  0
 11 10  1  0
 12 11  1  1
 12 14  1  0
 13 12  1  0
 14 15  2  0
 16 17  1  0
 17 19  1  0
 17 18  2  0
 19 20  1  0
 21 20  1  1
 22 21  1  0
 22 14  1  0
 23 24  1  0
 23 21  1  0
 25 23  2  0
M  END
$$$$
