PMQ.pdb
     RDKit          3D

 25 25  0  0  1  0  0  0  0  0999 V2000
   16.7638  -18.0762    3.8091 N   0  0  0  0  0  0  0  0  0  0  0  0
   15.4025  -18.5122    3.4613 C   0  0  0  0  0  0  0  0  0  0  0  0
   14.6315  -18.3872    4.7640 C   0  0  0  0  0  0  0  0  0  0  0  0
   15.5493  -17.5794    5.6924 C   0  0  0  0  0  0  0  0  0  0  0  0
   16.4722  -16.9454    4.6632 C   0  0  1  0  0  0  0  0  0  0  0  0
   17.6705  -16.3418    5.2533 C   0  0  0  0  0  0  0  0  0  0  0  0
   18.7597  -16.9654    5.1979 O   0  0  0  0  0  0  0  0  0  0  0  0
   20.6745  -11.0194    7.0707 C   0  0  0  0  0  0  0  0  0  0  0  0
   20.2860  -11.2728    5.3387 S   0  0  0  0  0  0  0  0  0  0  0  0
   18.8804  -12.3854    5.1048 C   0  0  0  0  0  0  0  0  0  0  0  0
   18.5086  -13.0074    6.3856 C   0  0  0  0  0  0  0  0  0  0  0  0
   18.7735  -14.4705    6.5801 C   0  0  2  0  0  0  0  0  0  0  0  0
   17.6123  -15.0933    5.8696 N   0  0  0  0  0  0  0  0  0  0  0  0
   18.7410  -14.9606    7.9738 C   0  0  0  0  0  0  0  0  0  0  0  0
   17.6169  -15.1953    8.5140 O   0  0  0  0  0  0  0  0  0  0  0  0
   23.1503  -18.5175   10.5252 N   0  0  0  0  0  0  0  0  0  0  0  0
   22.0958  -18.9039    9.6674 C   0  0  0  0  0  0  0  0  0  0  0  0
   22.1155  -19.9915    9.0182 O   0  0  0  0  0  0  0  0  0  0  0  0
   20.9126  -18.0293    9.5093 C   0  0  0  0  0  0  0  0  0  0  0  0
   20.9381  -16.7664   10.2809 C   0  0  0  0  0  0  0  0  0  0  0  0
   19.7461  -15.8898   10.0986 C   0  0  2  0  0  0  0  0  0  0  0  0
   19.8779  -15.2112    8.7840 N   0  0  0  0  0  0  0  0  0  0  0  0
   19.5335  -14.9416   11.1486 C   0  0  0  0  0  0  0  0  0  0  0  0
   19.0643  -15.3243   12.4179 O   0  0  0  0  0  0  0  0  0  0  0  0
   19.7405  -13.7158   11.0020 O   0  0  0  0  0  0  0  0  0  0  0  0
  1  5  1  0
  1  2  1  0
  2  3  1  0
  4  5  1  0
  4  3  1  0
  5  6  1  1
  6 13  1  0
  6  7  2  0
  8  9  1  0
  9 10  1  0
 11 10  1  0
 12 11  1  1
 12 14  1  0
 13 12  1  0
 14 15  2  0
 16 17  1  0
 17 19  1  0
 17 18  2  0
 19 20  1  0
 21 20  1  1
 22 21  1  0
 22 14  1  0
 23 24  1  0
 23 21  1  0
 25 23  2  0
M  END
$$$$
