PMQ.pdb
     RDKit          3D

 25 25  0  0  1  0  0  0  0  0999 V2000
   27.0357  -19.1478  -14.7664 N   0  0  0  0  0  0  0  0  0  0  0  0
   27.9074  -18.8835  -15.9216 C   0  0  0  0  0  0  0  0  0  0  0  0
   29.0629  -19.8525  -15.7406 C   0  0  0  0  0  0  0  0  0  0  0  0
   28.5969  -20.8263  -14.6491 C   0  0  0  0  0  0  0  0  0  0  0  0
   27.0955  -20.5923  -14.7115 C   0  0  1  0  0  0  0  0  0  0  0  0
   26.3728  -21.1583  -13.5688 C   0  0  0  0  0  0  0  0  0  0  0  0
   26.3063  -22.4067  -13.4449 O   0  0  0  0  0  0  0  0  0  0  0  0
   27.3525  -20.6159   -7.0775 C   0  0  0  0  0  0  0  0  0  0  0  0
   26.2719  -19.3651   -7.7722 S   0  0  0  0  0  0  0  0  0  0  0  0
   25.1058  -20.0522   -8.9706 C   0  0  0  0  0  0  0  0  0  0  0  0
   25.6766  -19.9895  -10.3256 C   0  0  0  0  0  0  0  0  0  0  0  0
   25.0761  -20.8448  -11.4010 C   0  0  2  0  0  0  0  0  0  0  0  0
   25.7645  -20.3308  -12.6270 N   0  0  0  0  0  0  0  0  0  0  0  0
   23.6235  -20.6901  -11.6237 C   0  0  0  0  0  0  0  0  0  0  0  0
   23.2141  -19.7326  -12.3490 O   0  0  0  0  0  0  0  0  0  0  0  0
   18.8037  -24.4928   -9.7023 N   0  0  0  0  0  0  0  0  0  0  0  0
   18.1534  -23.4765  -10.4380 C   0  0  0  0  0  0  0  0  0  0  0  0
   16.8970  -23.4556  -10.5987 O   0  0  0  0  0  0  0  0  0  0  0  0
   18.9432  -22.3828  -11.0464 C   0  0  0  0  0  0  0  0  0  0  0  0
   20.4001  -22.4202  -10.7876 C   0  0  0  0  0  0  0  0  0  0  0  0
   21.1992  -21.3974  -11.5210 C   0  0  2  0  0  0  0  0  0  0  0  0
   22.6161  -21.5396  -11.0990 N   0  0  0  0  0  0  0  0  0  0  0  0
   20.7452  -20.0509  -11.3556 C   0  0  0  0  0  0  0  0  0  0  0  0
   21.1460  -19.2551  -10.2676 O   0  0  0  0  0  0  0  0  0  0  0  0
   19.9582  -19.5013  -12.1591 O   0  0  0  0  0  0  0  0  0  0  0  0
  1  5  1  0
  1  2  1  0
  2  3  1  0
  4  5  1  0
  4  3  1  0
  5  6  1  1
  6 13  1  0
  6  7  2  0
  8  9  1  0
  9 10  1  0
 11 10  1  0
 12 11  1  1
 12 14  1  0
 13 12  1  0
 14 15  2  0
 16 17  1  0
 17 19  1  0
 17 18  2  0
 19 20  1  0
 21 20  1  1
 22 21  1  0
 22 14  1  0
 23 24  1  0
 23 21  1  0
 25 23  2  0
M  END
$$$$
