PMQ.pdb
     RDKit          3D

 25 25  0  0  1  0  0  0  0  0999 V2000
   24.9064  -14.0095  -17.3179 N   0  0  0  0  0  0  0  0  0  0  0  0
   24.9328  -12.7177  -16.6145 C   0  0  0  0  0  0  0  0  0  0  0  0
   24.7046  -13.0861  -15.1588 C   0  0  0  0  0  0  0  0  0  0  0  0
   24.8816  -14.6100  -15.1027 C   0  0  0  0  0  0  0  0  0  0  0  0
   25.6550  -14.8326  -16.3931 C   0  0  1  0  0  0  0  0  0  0  0  0
   25.7200  -16.2410  -16.7941 C   0  0  0  0  0  0  0  0  0  0  0  0
   24.6620  -16.8317  -17.1257 O   0  0  0  0  0  0  0  0  0  0  0  0
   30.7068  -19.2223  -20.4413 C   0  0  0  0  0  0  0  0  0  0  0  0
   29.2047  -19.9149  -19.7493 S   0  0  0  0  0  0  0  0  0  0  0  0
   29.1201  -19.7181  -17.9542 C   0  0  0  0  0  0  0  0  0  0  0  0
   28.5353  -18.4110  -17.6152 C   0  0  0  0  0  0  0  0  0  0  0  0
   27.0769  -18.3406  -17.2736 C   0  0  2  0  0  0  0  0  0  0  0  0
   26.9345  -16.9240  -16.8106 N   0  0  0  0  0  0  0  0  0  0  0  0
   26.6232  -19.2055  -16.1647 C   0  0  0  0  0  0  0  0  0  0  0  0
   26.9507  -18.9004  -14.9772 O   0  0  0  0  0  0  0  0  0  0  0  0
   24.8836  -25.2421  -14.4519 N   0  0  0  0  0  0  0  0  0  0  0  0
   23.8391  -24.3730  -14.8403 C   0  0  0  0  0  0  0  0  0  0  0  0
   22.8672  -24.7598  -15.5548 O   0  0  0  0  0  0  0  0  0  0  0  0
   23.8531  -22.9587  -14.4048 C   0  0  0  0  0  0  0  0  0  0  0  0
   24.2592  -21.9732  -15.4317 C   0  0  0  0  0  0  0  0  0  0  0  0
   25.5167  -21.2302  -15.1328 C   0  0  2  0  0  0  0  0  0  0  0  0
   25.8255  -20.3700  -16.3037 N   0  0  0  0  0  0  0  0  0  0  0  0
   26.6340  -22.0561  -14.7917 C   0  0  0  0  0  0  0  0  0  0  0  0
   26.9407  -22.3860  -13.4594 O   0  0  0  0  0  0  0  0  0  0  0  0
   27.4118  -22.5268  -15.6521 O   0  0  0  0  0  0  0  0  0  0  0  0
  1  5  1  0
  1  2  1  0
  2  3  1  0
  4  5  1  0
  4  3  1  0
  5  6  1  6
  6 13  1  0
  6  7  2  0
  8  9  1  0
  9 10  1  0
 11 10  1  0
 12 11  1  1
 12 14  1  0
 13 12  1  0
 14 15  2  0
 16 17  1  0
 17 19  1  0
 17 18  2  0
 19 20  1  0
 21 20  1  6
 22 21  1  0
 22 14  1  0
 23 24  1  0
 23 21  1  0
 25 23  2  0
M  END
$$$$
