PMQ.pdb
     RDKit          3D

 25 25  0  0  1  0  0  0  0  0999 V2000
   27.0099  -18.4579  -14.7474 N   0  0  0  0  0  0  0  0  0  0  0  0
   27.6875  -17.7815  -15.8643 C   0  0  0  0  0  0  0  0  0  0  0  0
   29.0676  -18.4149  -15.8959 C   0  0  0  0  0  0  0  0  0  0  0  0
   28.9616  -19.6431  -14.9811 C   0  0  0  0  0  0  0  0  0  0  0  0
   27.4514  -19.8203  -14.9527 C   0  0  1  0  0  0  0  0  0  0  0  0
   26.9954  -20.7402  -13.9066 C   0  0  0  0  0  0  0  0  0  0  0  0
   27.1069  -21.9781  -14.0897 O   0  0  0  0  0  0  0  0  0  0  0  0
   27.9297  -19.4229   -7.6067 C   0  0  0  0  0  0  0  0  0  0  0  0
   26.1667  -19.6678   -7.8235 S   0  0  0  0  0  0  0  0  0  0  0  0
   25.7942  -20.8847   -9.1075 C   0  0  0  0  0  0  0  0  0  0  0  0
   26.3282  -20.4338  -10.4025 C   0  0  0  0  0  0  0  0  0  0  0  0
   25.8913  -21.1439  -11.6489 C   0  0  2  0  0  0  0  0  0  0  0  0
   26.4443  -20.2575  -12.7211 N   0  0  0  0  0  0  0  0  0  0  0  0
   24.4334  -21.2347  -11.8721 C   0  0  0  0  0  0  0  0  0  0  0  0
   23.7287  -21.8976  -11.0510 O   0  0  0  0  0  0  0  0  0  0  0  0
   18.5168  -20.6327  -11.5134 N   0  0  0  0  0  0  0  0  0  0  0  0
   19.3288  -19.5086  -11.7855 C   0  0  0  0  0  0  0  0  0  0  0  0
   19.3986  -18.5178  -10.9994 O   0  0  0  0  0  0  0  0  0  0  0  0
   20.1415  -19.4650  -13.0216 C   0  0  0  0  0  0  0  0  0  0  0  0
   21.6088  -19.4897  -12.8282 C   0  0  0  0  0  0  0  0  0  0  0  0
   22.2586  -20.8064  -13.0866 C   0  0  2  0  0  0  0  0  0  0  0  0
   23.7255  -20.6256  -12.9397 N   0  0  0  0  0  0  0  0  0  0  0  0
   21.9364  -21.3960  -14.3496 C   0  0  0  0  0  0  0  0  0  0  0  0
   22.9125  -21.6380  -15.3326 O   0  0  0  0  0  0  0  0  0  0  0  0
   20.7693  -21.7228  -14.6628 O   0  0  0  0  0  0  0  0  0  0  0  0
  1  5  1  0
  1  2  1  0
  2  3  1  0
  4  5  1  0
  4  3  1  0
  5  6  1  1
  6 13  1  0
  6  7  2  0
  8  9  1  0
  9 10  1  0
 11 10  1  0
 12 11  1  1
 12 14  1  0
 13 12  1  0
 14 15  2  0
 16 17  1  0
 17 19  1  0
 17 18  2  0
 19 20  1  0
 21 20  1  6
 22 21  1  0
 22 14  1  0
 23 24  1  0
 23 21  1  0
 25 23  2  0
M  END
$$$$
