PMQ.pdb
     RDKit          3D

 25 25  0  0  1  0  0  0  0  0999 V2000
   22.9281  -14.5850  -19.7484 N   0  0  0  0  0  0  0  0  0  0  0  0
   22.3184  -15.5759  -20.6488 C   0  0  0  0  0  0  0  0  0  0  0  0
   21.7176  -16.6070  -19.7092 C   0  0  0  0  0  0  0  0  0  0  0  0
   21.7598  -15.9517  -18.3216 C   0  0  0  0  0  0  0  0  0  0  0  0
   21.9103  -14.4929  -18.7242 C   0  0  1  0  0  0  0  0  0  0  0  0
   22.2891  -13.6201  -17.6091 C   0  0  0  0  0  0  0  0  0  0  0  0
   21.4701  -13.4310  -16.6753 O   0  0  0  0  0  0  0  0  0  0  0  0
   28.5713  -11.4633  -17.5308 C   0  0  0  0  0  0  0  0  0  0  0  0
   28.0660  -11.9077  -15.8689 S   0  0  0  0  0  0  0  0  0  0  0  0
   26.3203  -11.5515  -15.5624 C   0  0  0  0  0  0  0  0  0  0  0  0
   25.4744  -12.3609  -16.4540 C   0  0  0  0  0  0  0  0  0  0  0  0
   23.9937  -12.1236  -16.4543 C   0  0  2  0  0  0  0  0  0  0  0  0
   23.5385  -13.0040  -17.5763 N   0  0  0  0  0  0  0  0  0  0  0  0
   23.5522  -10.7505  -16.7756 C   0  0  0  0  0  0  0  0  0  0  0  0
   23.6142  -10.3537  -17.9794 O   0  0  0  0  0  0  0  0  0  0  0  0
   18.9074   -7.4533  -14.2354 N   0  0  0  0  0  0  0  0  0  0  0  0
   19.4812   -6.5092  -15.1167 C   0  0  0  0  0  0  0  0  0  0  0  0
   18.9373   -5.3909  -15.3582 O   0  0  0  0  0  0  0  0  0  0  0  0
   20.7653   -6.8094  -15.7884 C   0  0  0  0  0  0  0  0  0  0  0  0
   21.3203   -8.1592  -15.5421 C   0  0  0  0  0  0  0  0  0  0  0  0
   22.5753   -8.4720  -16.2836 C   0  0  2  0  0  0  0  0  0  0  0  0
   23.0413   -9.8117  -15.8432 N   0  0  0  0  0  0  0  0  0  0  0  0
   23.6116   -7.4953  -16.1462 C   0  0  0  0  0  0  0  0  0  0  0  0
   24.8498   -7.7977  -15.5520 O   0  0  0  0  0  0  0  0  0  0  0  0
   23.4792   -6.3128  -16.5347 O   0  0  0  0  0  0  0  0  0  0  0  0
  1  5  1  0
  1  2  1  0
  2  3  1  0
  4  5  1  0
  4  3  1  0
  5  6  1  1
  6 13  1  0
  6  7  2  0
  8  9  1  0
  9 10  1  0
 11 10  1  0
 12 11  1  6
 12 14  1  0
 13 12  1  0
 14 15  2  0
 16 17  1  0
 17 19  1  0
 17 18  2  0
 19 20  1  0
 21 20  1  1
 22 21  1  0
 22 14  1  0
 23 24  1  0
 23 21  1  0
 25 23  2  0
M  END
$$$$
