PMQ.pdb
     RDKit          3D

 25 25  0  0  1  0  0  0  0  0999 V2000
   27.7698  -19.0654  -15.6264 N   0  0  0  0  0  0  0  0  0  0  0  0
   28.6860  -18.6738  -16.7087 C   0  0  0  0  0  0  0  0  0  0  0  0
   29.6732  -19.8251  -16.7902 C   0  0  0  0  0  0  0  0  0  0  0  0
   29.0474  -20.9450  -15.9472 C   0  0  0  0  0  0  0  0  0  0  0  0
   27.6020  -20.4732  -15.9146 C   0  0  1  0  0  0  0  0  0  0  0  0
   26.7858  -21.1743  -14.9191 C   0  0  0  0  0  0  0  0  0  0  0  0
   26.4779  -22.3760  -15.1177 O   0  0  0  0  0  0  0  0  0  0  0  0
   27.0660  -19.7882   -7.9054 C   0  0  0  0  0  0  0  0  0  0  0  0
   25.6150  -19.9320   -8.9489 S   0  0  0  0  0  0  0  0  0  0  0  0
   25.7662  -21.2686  -10.1568 C   0  0  0  0  0  0  0  0  0  0  0  0
   26.2222  -20.7334  -11.4495 C   0  0  0  0  0  0  0  0  0  0  0  0
   25.5362  -21.1918  -12.7017 C   0  0  2  0  0  0  0  0  0  0  0  0
   26.3526  -20.5250  -13.7648 N   0  0  0  0  0  0  0  0  0  0  0  0
   24.1401  -20.7430  -12.8834 C   0  0  0  0  0  0  0  0  0  0  0  0
   23.9106  -19.5045  -13.0378 O   0  0  0  0  0  0  0  0  0  0  0  0
   19.2880  -23.9377  -15.3423 N   0  0  0  0  0  0  0  0  0  0  0  0
   18.7050  -22.6918  -15.0182 C   0  0  0  0  0  0  0  0  0  0  0  0
   17.5136  -22.3994  -15.3342 O   0  0  0  0  0  0  0  0  0  0  0  0
   19.4892  -21.6783  -14.2780 C   0  0  0  0  0  0  0  0  0  0  0  0
   20.8748  -22.0652  -13.9296 C   0  0  0  0  0  0  0  0  0  0  0  0
   21.6466  -21.0386  -13.1726 C   0  0  2  0  0  0  0  0  0  0  0  0
   23.0018  -21.5887  -12.9137 N   0  0  0  0  0  0  0  0  0  0  0  0
   21.0290  -20.5987  -11.9595 C   0  0  0  0  0  0  0  0  0  0  0  0
   20.0333  -19.6056  -11.9447 O   0  0  0  0  0  0  0  0  0  0  0  0
   21.3413  -21.0599  -10.8384 O   0  0  0  0  0  0  0  0  0  0  0  0
  1  5  1  0
  1  2  1  0
  2  3  1  0
  4  5  1  0
  4  3  1  0
  5  6  1  1
  6 13  1  0
  6  7  2  0
  8  9  1  0
  9 10  1  0
 11 10  1  0
 12 11  1  1
 12 14  1  0
 13 12  1  0
 14 15  2  0
 16 17  1  0
 17 19  1  0
 17 18  2  0
 19 20  1  0
 21 20  1  1
 22 21  1  0
 22 14  1  0
 23 24  1  0
 23 21  1  0
 25 23  2  0
M  END
$$$$
