PMQ.pdb
     RDKit          3D

 25 25  0  0  1  0  0  0  0  0999 V2000
   22.0340  -12.0363  -18.9580 N   0  0  0  0  0  0  0  0  0  0  0  0
   21.2324  -13.1518  -19.4848 C   0  0  0  0  0  0  0  0  0  0  0  0
   21.4049  -14.2501  -18.4500 C   0  0  0  0  0  0  0  0  0  0  0  0
   22.0467  -13.5578  -17.2395 C   0  0  0  0  0  0  0  0  0  0  0  0
   21.7024  -12.1097  -17.5517 C   0  0  1  0  0  0  0  0  0  0  0  0
   22.4443  -11.1478  -16.7313 C   0  0  0  0  0  0  0  0  0  0  0  0
   22.2508  -11.1254  -15.4902 O   0  0  0  0  0  0  0  0  0  0  0  0
   27.7512  -12.3775  -15.1263 C   0  0  0  0  0  0  0  0  0  0  0  0
   26.7085  -10.9366  -15.3535 S   0  0  0  0  0  0  0  0  0  0  0  0
   26.3088  -10.6443  -17.0922 C   0  0  0  0  0  0  0  0  0  0  0  0
   25.5181   -9.4108  -17.2294 C   0  0  0  0  0  0  0  0  0  0  0  0
   24.2000   -9.3170  -16.5206 C   0  0  2  0  0  0  0  0  0  0  0  0
   23.3542  -10.2660  -17.3112 N   0  0  0  0  0  0  0  0  0  0  0  0
   23.5282   -8.0015  -16.5621 C   0  0  0  0  0  0  0  0  0  0  0  0
   23.0487   -7.5937  -17.6640 O   0  0  0  0  0  0  0  0  0  0  0  0
   18.5458   -7.0538  -16.9066 N   0  0  0  0  0  0  0  0  0  0  0  0
   18.7809   -5.7097  -16.5391 C   0  0  0  0  0  0  0  0  0  0  0  0
   17.8707   -4.8293  -16.5743 O   0  0  0  0  0  0  0  0  0  0  0  0
   20.1264   -5.2909  -16.0869 C   0  0  0  0  0  0  0  0  0  0  0  0
   21.1372   -6.3679  -15.9911 C   0  0  0  0  0  0  0  0  0  0  0  0
   22.4935   -5.9255  -15.5581 C   0  0  2  0  0  0  0  0  0  0  0  0
   23.3535   -7.1321  -15.4551 N   0  0  0  0  0  0  0  0  0  0  0  0
   22.5179   -5.1704  -14.3433 C   0  0  0  0  0  0  0  0  0  0  0  0
   22.0105   -3.8611  -14.2664 O   0  0  0  0  0  0  0  0  0  0  0  0
   22.9996   -5.6209  -13.2792 O   0  0  0  0  0  0  0  0  0  0  0  0
  1  5  1  0
  1  2  1  0
  2  3  1  0
  4  5  1  0
  4  3  1  0
  5  6  1  1
  6 13  1  0
  6  7  2  0
  8  9  1  0
  9 10  1  0
 11 10  1  0
 12 11  1  6
 12 14  1  0
 13 12  1  0
 14 15  2  0
 16 17  1  0
 17 19  1  0
 17 18  2  0
 19 20  1  0
 21 20  1  1
 22 21  1  0
 22 14  1  0
 23 24  1  0
 23 21  1  0
 25 23  2  0
M  END
$$$$
