PMQ.pdb
     RDKit          3D

 25 25  0  0  1  0  0  0  0  0999 V2000
   20.7340  -13.1512  -17.8336 N   0  0  0  0  0  0  0  0  0  0  0  0
   19.7953  -14.1850  -18.2968 C   0  0  0  0  0  0  0  0  0  0  0  0
   19.4010  -14.9200  -17.0274 C   0  0  0  0  0  0  0  0  0  0  0  0
   19.9107  -14.0346  -15.8816 C   0  0  0  0  0  0  0  0  0  0  0  0
   20.0751  -12.7160  -16.6213 C   0  0  1  0  0  0  0  0  0  0  0  0
   20.8458  -11.7217  -15.8689 C   0  0  0  0  0  0  0  0  0  0  0  0
   20.3625  -11.2459  -14.8113 O   0  0  0  0  0  0  0  0  0  0  0  0
   27.2998  -12.2566  -15.1923 C   0  0  0  0  0  0  0  0  0  0  0  0
   27.0248  -10.6953  -16.0301 S   0  0  0  0  0  0  0  0  0  0  0  0
   25.4720   -9.9133  -15.5349 C   0  0  0  0  0  0  0  0  0  0  0  0
   24.3301  -10.7225  -15.9898 C   0  0  0  0  0  0  0  0  0  0  0  0
   22.9479  -10.3172  -15.5730 C   0  0  2  0  0  0  0  0  0  0  0  0
   22.0988  -11.3035  -16.3128 N   0  0  0  0  0  0  0  0  0  0  0  0
   22.5085   -8.9695  -15.9904 C   0  0  0  0  0  0  0  0  0  0  0  0
   22.1280   -8.7936  -17.1882 O   0  0  0  0  0  0  0  0  0  0  0  0
   18.0515   -8.5621  -16.6428 N   0  0  0  0  0  0  0  0  0  0  0  0
   18.6220   -7.6627  -17.5717 C   0  0  0  0  0  0  0  0  0  0  0  0
   18.1385   -7.4882  -18.7295 O   0  0  0  0  0  0  0  0  0  0  0  0
   19.8223   -6.8800  -17.2020 C   0  0  0  0  0  0  0  0  0  0  0  0
   20.2841   -7.0318  -15.8040 C   0  0  0  0  0  0  0  0  0  0  0  0
   21.6942   -6.6166  -15.5552 C   0  0  2  0  0  0  0  0  0  0  0  0
   22.4596   -7.8248  -15.1543 N   0  0  0  0  0  0  0  0  0  0  0  0
   21.8493   -5.5669  -14.5957 C   0  0  0  0  0  0  0  0  0  0  0  0
   21.6260   -4.2172  -14.9214 O   0  0  0  0  0  0  0  0  0  0  0  0
   22.2020   -5.7808  -13.4138 O   0  0  0  0  0  0  0  0  0  0  0  0
  1  5  1  0
  1  2  1  0
  2  3  1  0
  4  5  1  0
  4  3  1  0
  5  6  1  1
  6 13  1  0
  6  7  2  0
  8  9  1  0
  9 10  1  0
 11 10  1  0
 12 11  1  6
 12 14  1  0
 13 12  1  0
 14 15  2  0
 16 17  1  0
 17 19  1  0
 17 18  2  0
 19 20  1  0
 21 20  1  1
 22 21  1  0
 22 14  1  0
 23 24  1  0
 23 21  1  0
 25 23  2  0
M  END
$$$$
