PMQ.pdb
     RDKit          3D

 25 25  0  0  1  0  0  0  0  0999 V2000
   27.5181  -19.3463  -14.1077 N   0  0  0  0  0  0  0  0  0  0  0  0
   28.4040  -19.1694  -15.2687 C   0  0  0  0  0  0  0  0  0  0  0  0
   29.4425  -20.2663  -15.1102 C   0  0  0  0  0  0  0  0  0  0  0  0
   28.8779  -21.1936  -14.0249 C   0  0  0  0  0  0  0  0  0  0  0  0
   27.4126  -20.7887  -14.0694 C   0  0  1  0  0  0  0  0  0  0  0  0
   26.6401  -21.2822  -12.9256 C   0  0  0  0  0  0  0  0  0  0  0  0
   26.1868  -22.4536  -12.9536 O   0  0  0  0  0  0  0  0  0  0  0  0
   27.4087  -18.3359   -7.3293 C   0  0  0  0  0  0  0  0  0  0  0  0
   27.5716  -20.1215   -7.3446 S   0  0  0  0  0  0  0  0  0  0  0  0
   27.2007  -20.8320   -8.9651 C   0  0  0  0  0  0  0  0  0  0  0  0
   26.0105  -20.1859   -9.5407 C   0  0  0  0  0  0  0  0  0  0  0  0
   25.3874  -20.7842  -10.7665 C   0  0  2  0  0  0  0  0  0  0  0  0
   26.4063  -20.4704  -11.8174 N   0  0  0  0  0  0  0  0  0  0  0  0
   24.1111  -20.1853  -11.2092 C   0  0  0  0  0  0  0  0  0  0  0  0
   24.1417  -19.1253  -11.9061 O   0  0  0  0  0  0  0  0  0  0  0  0
   23.5097  -23.0588  -15.3116 N   0  0  0  0  0  0  0  0  0  0  0  0
   22.1713  -22.6152  -15.4066 C   0  0  0  0  0  0  0  0  0  0  0  0
   21.4595  -22.8264  -16.4330 O   0  0  0  0  0  0  0  0  0  0  0  0
   21.5531  -21.8823  -14.2793 C   0  0  0  0  0  0  0  0  0  0  0  0
   22.4379  -21.6147  -13.1233 C   0  0  0  0  0  0  0  0  0  0  0  0
   21.8077  -20.8524  -12.0077 C   0  0  2  0  0  0  0  0  0  0  0  0
   22.8200  -20.7025  -10.9312 N   0  0  0  0  0  0  0  0  0  0  0  0
   20.5975  -21.4228  -11.5009 C   0  0  0  0  0  0  0  0  0  0  0  0
   19.3752  -21.3154  -12.1882 O   0  0  0  0  0  0  0  0  0  0  0  0
   20.5475  -22.0416  -10.4140 O   0  0  0  0  0  0  0  0  0  0  0  0
  1  5  1  0
  1  2  1  0
  2  3  1  0
  4  5  1  0
  4  3  1  0
  5  6  1  1
  6 13  1  0
  6  7  2  0
  8  9  1  0
  9 10  1  0
 11 10  1  0
 12 11  1  1
 12 14  1  0
 13 12  1  0
 14 15  2  0
 16 17  1  0
 17 19  1  0
 17 18  2  0
 19 20  1  0
 21 20  1  6
 22 21  1  0
 22 14  1  0
 23 24  1  0
 23 21  1  0
 25 23  2  0
M  END
$$$$
