PMQ.pdb
     RDKit          3D

 25 25  0  0  1  0  0  0  0  0999 V2000
   27.8700  -19.3031  -14.5432 N   0  0  0  0  0  0  0  0  0  0  0  0
   28.7713  -19.0636  -15.6809 C   0  0  0  0  0  0  0  0  0  0  0  0
   29.5385  -20.3667  -15.8238 C   0  0  0  0  0  0  0  0  0  0  0  0
   28.7823  -21.3710  -14.9428 C   0  0  0  0  0  0  0  0  0  0  0  0
   27.4446  -20.6580  -14.8198 C   0  0  1  0  0  0  0  0  0  0  0  0
   26.5830  -21.2186  -13.7749 C   0  0  0  0  0  0  0  0  0  0  0  0
   25.9588  -22.2847  -14.0040 O   0  0  0  0  0  0  0  0  0  0  0  0
   27.6913  -19.2446   -7.3996 C   0  0  0  0  0  0  0  0  0  0  0  0
   26.7000  -20.7275   -7.5815 S   0  0  0  0  0  0  0  0  0  0  0  0
   25.5116  -20.5983   -8.9377 C   0  0  0  0  0  0  0  0  0  0  0  0
   26.2197  -20.5168  -10.2251 C   0  0  0  0  0  0  0  0  0  0  0  0
   25.5641  -21.0898  -11.4459 C   0  0  2  0  0  0  0  0  0  0  0  0
   26.4515  -20.5850  -12.5408 N   0  0  0  0  0  0  0  0  0  0  0  0
   24.1981  -20.6092  -11.7403 C   0  0  0  0  0  0  0  0  0  0  0  0
   24.0542  -19.4794  -12.3000 O   0  0  0  0  0  0  0  0  0  0  0  0
   20.6686  -23.7431  -15.1689 N   0  0  0  0  0  0  0  0  0  0  0  0
   20.1984  -22.4148  -15.2765 C   0  0  0  0  0  0  0  0  0  0  0  0
   19.4679  -22.0312  -16.2377 O   0  0  0  0  0  0  0  0  0  0  0  0
   20.5511  -21.4190  -14.2402 C   0  0  0  0  0  0  0  0  0  0  0  0
   21.3611  -21.9259  -13.1098 C   0  0  0  0  0  0  0  0  0  0  0  0
   21.7111  -20.9095  -12.0768 C   0  0  2  0  0  0  0  0  0  0  0  0
   22.9999  -21.3144  -11.4594 N   0  0  0  0  0  0  0  0  0  0  0  0
   20.7068  -20.6977  -11.0802 C   0  0  0  0  0  0  0  0  0  0  0  0
   19.6134  -19.8388  -11.2913 O   0  0  0  0  0  0  0  0  0  0  0  0
   20.7425  -21.2525   -9.9586 O   0  0  0  0  0  0  0  0  0  0  0  0
  1  5  1  0
  1  2  1  0
  2  3  1  0
  4  5  1  0
  4  3  1  0
  5  6  1  1
  6 13  1  0
  6  7  2  0
  8  9  1  0
  9 10  1  0
 11 10  1  0
 12 11  1  1
 12 14  1  0
 13 12  1  0
 14 15  2  0
 16 17  1  0
 17 19  1  0
 17 18  2  0
 19 20  1  0
 21 20  1  6
 22 21  1  0
 22 14  1  0
 23 24  1  0
 23 21  1  0
 25 23  2  0
M  END
$$$$
