PMQ.pdb
     RDKit          3D

 25 25  0  0  1  0  0  0  0  0999 V2000
   27.4079  -18.3642  -14.9012 N   0  0  0  0  0  0  0  0  0  0  0  0
   28.3128  -17.6967  -15.8499 C   0  0  0  0  0  0  0  0  0  0  0  0
   29.6191  -18.4592  -15.7116 C   0  0  0  0  0  0  0  0  0  0  0  0
   29.2602  -19.7197  -14.9123 C   0  0  0  0  0  0  0  0  0  0  0  0
   27.7553  -19.7498  -15.1304 C   0  0  1  0  0  0  0  0  0  0  0  0
   27.0583  -20.6769  -14.2343 C   0  0  0  0  0  0  0  0  0  0  0  0
   27.2383  -21.9126  -14.3726 O   0  0  0  0  0  0  0  0  0  0  0  0
   27.6909  -20.6166   -8.3622 C   0  0  0  0  0  0  0  0  0  0  0  0
   25.9072  -20.4527   -8.2814 S   0  0  0  0  0  0  0  0  0  0  0  0
   25.0943  -21.0321   -9.7887 C   0  0  0  0  0  0  0  0  0  0  0  0
   25.8564  -20.6024  -10.9719 C   0  0  0  0  0  0  0  0  0  0  0  0
   25.4326  -21.0994  -12.3218 C   0  0  2  0  0  0  0  0  0  0  0  0
   26.2054  -20.2036  -13.2391 N   0  0  0  0  0  0  0  0  0  0  0  0
   24.0035  -20.9347  -12.6593 C   0  0  0  0  0  0  0  0  0  0  0  0
   23.5599  -19.7686  -12.8915 O   0  0  0  0  0  0  0  0  0  0  0  0
   19.9279  -25.3825  -14.7248 N   0  0  0  0  0  0  0  0  0  0  0  0
   19.1054  -24.2408  -14.5930 C   0  0  0  0  0  0  0  0  0  0  0  0
   17.8670  -24.2647  -14.8582 O   0  0  0  0  0  0  0  0  0  0  0  0
   19.6844  -22.9622  -14.1241 C   0  0  0  0  0  0  0  0  0  0  0  0
   21.1202  -22.9986  -13.7663 C   0  0  0  0  0  0  0  0  0  0  0  0
   21.6694  -21.7232  -13.2239 C   0  0  2  0  0  0  0  0  0  0  0  0
   23.0565  -21.9857  -12.7624 N   0  0  0  0  0  0  0  0  0  0  0  0
   20.8856  -21.1266  -12.1863 C   0  0  0  0  0  0  0  0  0  0  0  0
   19.7850  -20.2964  -12.4641 O   0  0  0  0  0  0  0  0  0  0  0  0
   21.1345  -21.2963  -10.9713 O   0  0  0  0  0  0  0  0  0  0  0  0
  1  5  1  0
  1  2  1  0
  2  3  1  0
  4  5  1  0
  4  3  1  0
  5  6  1  1
  6 13  1  0
  6  7  2  0
  8  9  1  0
  9 10  1  0
 11 10  1  0
 12 11  1  1
 12 14  1  0
 13 12  1  0
 14 15  2  0
 16 17  1  0
 17 19  1  0
 17 18  2  0
 19 20  1  0
 21 20  1  1
 22 21  1  0
 22 14  1  0
 23 24  1  0
 23 21  1  0
 25 23  2  0
M  END
$$$$
