FPH.pdb
     RDKit          3D

 29 31  0  0  1  0  0  0  0  0999 V2000
   25.8308   83.9528  -35.3369 N   0  0  0  0  0  0  0  0  0  0  0  0
   25.1942   82.8047  -35.8513 C   0  0  1  0  0  0  0  0  0  0  0  0
   26.1070   81.5982  -35.6837 C   0  0  0  0  0  0  0  0  0  0  0  0
   25.2476   80.4253  -35.4127 C   0  0  0  0  0  0  0  0  0  0  0  0
   25.8401   79.2139  -35.0382 C   0  0  0  0  0  0  0  0  0  0  0  0
   25.0214   78.1278  -34.7972 C   0  0  0  0  0  0  0  0  0  0  0  0
   23.6559   78.2395  -34.9235 C   0  0  0  0  0  0  0  0  0  0  0  0
   23.0474   79.4237  -35.2917 C   0  0  0  0  0  0  0  0  0  0  0  0
   23.8841   80.5003  -35.5291 C   0  0  0  0  0  0  0  0  0  0  0  0
   23.8214   82.5305  -35.4243 C   0  0  0  0  0  0  0  0  0  0  0  0
   23.4003   81.3178  -35.5935 O   0  0  0  0  0  0  0  0  0  0  0  0
   22.8964   83.4230  -34.8510 N   0  0  0  0  0  0  0  0  0  0  0  0
   21.5066   83.2487  -34.5303 C   0  0  0  0  0  0  0  0  0  0  0  0
   20.9078   84.5819  -34.9795 C   0  0  0  0  0  0  0  0  0  0  0  0
   22.0063   85.5839  -34.7124 C   0  0  0  0  0  0  0  0  0  0  0  0
   23.2503   84.7975  -34.4496 C   0  0  1  0  0  0  0  0  0  0  0  0
   23.6517   84.8117  -33.0086 C   0  0  0  0  0  0  0  0  0  0  0  0
   24.7177   84.2390  -32.6192 O   0  0  0  0  0  0  0  0  0  0  0  0
   22.8649   85.4590  -32.0316 N   0  0  0  0  0  0  0  0  0  0  0  0
   23.3419   86.5694  -31.2009 C   0  0  1  0  0  0  0  0  0  0  0  0
   22.7435   86.3391  -29.8394 C   0  0  0  0  0  0  0  0  0  0  0  0
   22.9935   87.4061  -28.8664 C   0  0  0  0  0  0  0  0  0  0  0  0
   23.9329   88.4021  -29.0662 C   0  0  0  0  0  0  0  0  0  0  0  0
   23.8919   89.1966  -27.9852 N   0  0  0  0  0  0  0  0  0  0  0  0
   22.9665   88.7263  -27.1347 C   0  0  0  0  0  0  0  0  0  0  0  0
   22.4289   87.6350  -27.6875 N   0  0  0  0  0  0  0  0  0  0  0  0
   24.8220   86.4812  -31.1660 C   0  0  0  0  0  0  0  0  0  0  0  0
   25.5781   87.5585  -31.5847 O   0  0  0  0  0  0  0  0  0  0  0  0
   25.4593   85.4726  -30.7737 O   0  0  0  0  0  0  0  0  0  0  0  0
  2  1  1  1
  2 10  1  0
  2  3  1  0
  3  4  1  0
  4  5  2  0
  4  9  1  0
  5  6  1  0
  6  7  2  0
  8  7  1  0
  9  8  2  0
 10 12  1  0
 11 10  2  0
 12 16  1  0
 13 12  1  0
 13 14  1  0
 15 14  1  0
 16 15  1  0
 16 17  1  1
 18 17  2  0
 19 17  1  0
 20 21  1  1
 20 19  1  0
 21 22  1  0
 22 26  1  0
 22 23  2  0
 23 24  1  0
 25 24  1  0
 26 25  2  0
 27 28  1  0
 27 20  1  0
 29 27  2  0
M  END
$$$$
