FPH.pdb
     RDKit          3D

 29 31  0  0  1  0  0  0  0  0999 V2000
   23.6645  -15.2020  -17.6185 N   0  0  0  0  0  0  0  0  0  0  0  0
   24.1857  -13.9281  -17.9238 C   0  0  1  0  0  0  0  0  0  0  0  0
   23.8299  -13.5628  -19.3579 C   0  0  0  0  0  0  0  0  0  0  0  0
   24.6681  -14.3941  -20.2491 C   0  0  0  0  0  0  0  0  0  0  0  0
   25.9854  -14.0019  -20.5128 C   0  0  0  0  0  0  0  0  0  0  0  0
   26.7498  -14.7871  -21.3538 C   0  0  0  0  0  0  0  0  0  0  0  0
   26.2238  -15.9271  -21.9165 C   0  0  0  0  0  0  0  0  0  0  0  0
   24.9269  -16.3351  -21.6718 C   0  0  0  0  0  0  0  0  0  0  0  0
   24.1768  -15.5355  -20.8270 C   0  0  0  0  0  0  0  0  0  0  0  0
   23.9223  -12.8351  -16.9868 C   0  0  0  0  0  0  0  0  0  0  0  0
   22.8640  -12.9544  -16.2502 O   0  0  0  0  0  0  0  0  0  0  0  0
   24.6771  -11.6644  -16.7849 N   0  0  0  0  0  0  0  0  0  0  0  0
   25.8645  -11.1940  -17.4434 C   0  0  0  0  0  0  0  0  0  0  0  0
   26.6854  -10.6561  -16.2710 C   0  0  0  0  0  0  0  0  0  0  0  0
   25.6466  -10.1251  -15.3113 C   0  0  0  0  0  0  0  0  0  0  0  0
   24.3252  -10.6465  -15.7771 C   0  0  1  0  0  0  0  0  0  0  0  0
   23.4743   -9.5897  -16.4074 C   0  0  0  0  0  0  0  0  0  0  0  0
   23.1636   -9.6462  -17.6388 O   0  0  0  0  0  0  0  0  0  0  0  0
   22.9869   -8.4951  -15.6613 N   0  0  0  0  0  0  0  0  0  0  0  0
   21.8191   -7.6966  -16.0477 C   0  0  1  0  0  0  0  0  0  0  0  0
   20.6517   -8.6455  -16.0075 C   0  0  0  0  0  0  0  0  0  0  0  0
   20.4230   -9.3960  -17.2453 C   0  0  0  0  0  0  0  0  0  0  0  0
   20.1565   -8.7850  -18.4578 C   0  0  0  0  0  0  0  0  0  0  0  0
   20.0032   -9.7658  -19.3611 N   0  0  0  0  0  0  0  0  0  0  0  0
   20.1652  -10.9494  -18.7497 C   0  0  0  0  0  0  0  0  0  0  0  0
   20.4203  -10.7054  -17.4609 N   0  0  0  0  0  0  0  0  0  0  0  0
   21.6777   -6.6180  -15.0394 C   0  0  0  0  0  0  0  0  0  0  0  0
   22.0536   -6.8553  -13.7318 O   0  0  0  0  0  0  0  0  0  0  0  0
   21.2292   -5.4722  -15.2906 O   0  0  0  0  0  0  0  0  0  0  0  0
  2  1  1  1
  2 10  1  0
  2  3  1  0
  3  4  1  0
  4  5  2  0
  4  9  1  0
  5  6  1  0
  6  7  2  0
  8  7  1  0
  9  8  2  0
 10 12  1  0
 11 10  2  0
 12 16  1  0
 13 12  1  0
 13 14  1  0
 15 14  1  0
 16 15  1  0
 16 17  1  6
 18 17  2  0
 19 17  1  0
 20 21  1  1
 20 19  1  0
 21 22  1  0
 22 26  1  0
 22 23  2  0
 23 24  1  0
 25 24  1  0
 26 25  2  0
 27 28  1  0
 27 20  1  0
 29 27  2  0
M  END
$$$$
