FPH.pdb
     RDKit          3D

 29 31  0  0  1  0  0  0  0  0999 V2000
   28.2326  -21.2737  -16.3599 N   0  0  0  0  0  0  0  0  0  0  0  0
   27.3985  -20.4385  -15.5887 C   0  0  1  0  0  0  0  0  0  0  0  0
   26.7816  -19.3710  -16.4814 C   0  0  0  0  0  0  0  0  0  0  0  0
   27.2238  -18.0551  -15.9708 C   0  0  0  0  0  0  0  0  0  0  0  0
   26.4939  -17.4361  -14.9497 C   0  0  0  0  0  0  0  0  0  0  0  0
   26.9181  -16.2039  -14.4917 C   0  0  0  0  0  0  0  0  0  0  0  0
   28.0328  -15.6034  -15.0301 C   0  0  0  0  0  0  0  0  0  0  0  0
   28.7697  -16.1938  -16.0383 C   0  0  0  0  0  0  0  0  0  0  0  0
   28.3291  -17.4279  -16.4839 C   0  0  0  0  0  0  0  0  0  0  0  0
   26.4126  -21.0721  -14.7121 C   0  0  0  0  0  0  0  0  0  0  0  0
   25.7174  -22.0330  -15.2319 O   0  0  0  0  0  0  0  0  0  0  0  0
   26.1226  -20.7670  -13.3690 N   0  0  0  0  0  0  0  0  0  0  0  0
   26.6833  -19.7735  -12.4954 C   0  0  0  0  0  0  0  0  0  0  0  0
   26.8214  -20.5464  -11.1834 C   0  0  0  0  0  0  0  0  0  0  0  0
   25.6496  -21.4998  -11.1965 C   0  0  0  0  0  0  0  0  0  0  0  0
   25.0988  -21.4842  -12.5862 C   0  0  1  0  0  0  0  0  0  0  0  0
   23.7935  -20.7599  -12.6845 C   0  0  0  0  0  0  0  0  0  0  0  0
   23.7255  -19.5035  -12.5032 O   0  0  0  0  0  0  0  0  0  0  0  0
   22.5937  -21.4419  -12.9809 N   0  0  0  0  0  0  0  0  0  0  0  0
   21.2974  -20.7789  -13.1560 C   0  0  1  0  0  0  0  0  0  0  0  0
   20.8487  -21.1340  -14.5479 C   0  0  0  0  0  0  0  0  0  0  0  0
   21.6282  -20.5167  -15.6244 C   0  0  0  0  0  0  0  0  0  0  0  0
   21.9998  -19.1839  -15.6159 C   0  0  0  0  0  0  0  0  0  0  0  0
   22.6947  -18.9676  -16.7436 N   0  0  0  0  0  0  0  0  0  0  0  0
   22.7623  -20.1133  -17.4393 C   0  0  0  0  0  0  0  0  0  0  0  0
   22.1072  -21.0467  -16.7428 N   0  0  0  0  0  0  0  0  0  0  0  0
   20.3822  -21.3372  -12.1309 C   0  0  0  0  0  0  0  0  0  0  0  0
   20.6123  -22.6036  -11.6304 O   0  0  0  0  0  0  0  0  0  0  0  0
   19.3849  -20.7289  -11.6698 O   0  0  0  0  0  0  0  0  0  0  0  0
  2  1  1  6
  2 10  1  0
  2  3  1  0
  3  4  1  0
  4  5  2  0
  4  9  1  0
  5  6  1  0
  6  7  2  0
  8  7  1  0
  9  8  2  0
 10 12  1  0
 11 10  2  0
 12 16  1  0
 13 12  1  0
 13 14  1  0
 15 14  1  0
 16 15  1  0
 16 17  1  1
 18 17  2  0
 19 17  1  0
 20 21  1  6
 20 19  1  0
 21 22  1  0
 22 26  1  0
 22 23  2  0
 23 24  1  0
 25 24  1  0
 26 25  2  0
 27 28  1  0
 27 20  1  0
 29 27  2  0
M  END
$$$$
