FPH.pdb
     RDKit          3D

 29 31  0  0  1  0  0  0  0  0999 V2000
   17.1948  -11.5979  -15.4353 N   0  0  0  0  0  0  0  0  0  0  0  0
   18.2540  -10.9506  -16.1040 C   0  0  1  0  0  0  0  0  0  0  0  0
   17.7044  -10.1611  -17.2836 C   0  0  0  0  0  0  0  0  0  0  0  0
   17.1188  -11.1319  -18.2336 C   0  0  0  0  0  0  0  0  0  0  0  0
   15.7292  -11.2910  -18.2808 C   0  0  0  0  0  0  0  0  0  0  0  0
   15.2017  -12.2081  -19.1689 C   0  0  0  0  0  0  0  0  0  0  0  0
   16.0275  -12.9455  -19.9858 C   0  0  0  0  0  0  0  0  0  0  0  0
   17.4016  -12.8069  -19.9579 C   0  0  0  0  0  0  0  0  0  0  0  0
   17.9111  -11.8834  -19.0617 C   0  0  0  0  0  0  0  0  0  0  0  0
   19.1994  -10.1723  -15.3024 C   0  0  0  0  0  0  0  0  0  0  0  0
   18.7225   -9.6144  -14.2356 O   0  0  0  0  0  0  0  0  0  0  0  0
   20.5679   -9.9519  -15.5462 N   0  0  0  0  0  0  0  0  0  0  0  0
   21.4294  -10.4736  -16.5711 C   0  0  0  0  0  0  0  0  0  0  0  0
   22.7049  -10.7823  -15.7864 C   0  0  0  0  0  0  0  0  0  0  0  0
   22.7454   -9.7126  -14.7204 C   0  0  0  0  0  0  0  0  0  0  0  0
   21.3988   -9.0635  -14.7120 C   0  0  1  0  0  0  0  0  0  0  0  0
   21.4137   -7.6894  -15.3032 C   0  0  0  0  0  0  0  0  0  0  0  0
   20.9761   -7.4760  -16.4775 O   0  0  0  0  0  0  0  0  0  0  0  0
   21.9123   -6.5831  -14.5820 N   0  0  0  0  0  0  0  0  0  0  0  0
   21.5136   -5.1947  -14.8345 C   0  0  1  0  0  0  0  0  0  0  0  0
   20.0329   -5.1467  -14.5694 C   0  0  0  0  0  0  0  0  0  0  0  0
   19.4171   -3.8281  -14.7414 C   0  0  0  0  0  0  0  0  0  0  0  0
   19.5036   -3.1045  -15.9176 C   0  0  0  0  0  0  0  0  0  0  0  0
   18.8323   -1.9593  -15.7189 N   0  0  0  0  0  0  0  0  0  0  0  0
   18.3402   -1.9547  -14.4703 C   0  0  0  0  0  0  0  0  0  0  0  0
   18.7060   -3.1010  -13.8890 N   0  0  0  0  0  0  0  0  0  0  0  0
   22.2647   -4.3462  -13.8775 C   0  0  0  0  0  0  0  0  0  0  0  0
   22.7600   -3.1258  -14.2935 O   0  0  0  0  0  0  0  0  0  0  0  0
   22.4917   -4.6613  -12.6833 O   0  0  0  0  0  0  0  0  0  0  0  0
  2  1  1  1
  2 10  1  0
  2  3  1  0
  3  4  1  0
  4  5  2  0
  4  9  1  0
  5  6  1  0
  6  7  2  0
  8  7  1  0
  9  8  2  0
 10 12  1  0
 11 10  2  0
 12 16  1  0
 13 12  1  0
 13 14  1  0
 15 14  1  0
 16 15  1  0
 16 17  1  6
 18 17  2  0
 19 17  1  0
 20 21  1  1
 20 19  1  0
 21 22  1  0
 22 26  1  0
 22 23  2  0
 23 24  1  0
 25 24  1  0
 26 25  2  0
 27 28  1  0
 27 20  1  0
 29 27  2  0
M  END
$$$$
