FPH.pdb
     RDKit          3D

 29 31  0  0  1  0  0  0  0  0999 V2000
   24.4895  -19.8351  -10.0973 N   0  0  0  0  0  0  0  0  0  0  0  0
   25.7019  -20.1298  -10.7538 C   0  0  1  0  0  0  0  0  0  0  0  0
   26.3219  -21.3780  -10.1418 C   0  0  0  0  0  0  0  0  0  0  0  0
   27.1117  -20.9510   -8.9664 C   0  0  0  0  0  0  0  0  0  0  0  0
   28.4877  -21.2047   -8.9368 C   0  0  0  0  0  0  0  0  0  0  0  0
   29.2067  -20.8055   -7.8271 C   0  0  0  0  0  0  0  0  0  0  0  0
   28.5801  -20.1734   -6.7778 C   0  0  0  0  0  0  0  0  0  0  0  0
   27.2237  -19.9119   -6.7831 C   0  0  0  0  0  0  0  0  0  0  0  0
   26.5205  -20.3194   -7.9034 C   0  0  0  0  0  0  0  0  0  0  0  0
   25.7001  -20.1666  -12.2169 C   0  0  0  0  0  0  0  0  0  0  0  0
   24.5381  -20.1776  -12.7883 O   0  0  0  0  0  0  0  0  0  0  0  0
   26.8072  -20.1926  -13.0856 N   0  0  0  0  0  0  0  0  0  0  0  0
   28.1963  -20.4466  -12.8201 C   0  0  0  0  0  0  0  0  0  0  0  0
   28.8831  -19.3910  -13.6872 C   0  0  0  0  0  0  0  0  0  0  0  0
   27.9740  -19.2555  -14.8860 C   0  0  0  0  0  0  0  0  0  0  0  0
   26.6954  -19.9465  -14.5356 C   0  0  1  0  0  0  0  0  0  0  0  0
   26.5240  -21.2478  -15.2535 C   0  0  0  0  0  0  0  0  0  0  0  0
   27.1251  -22.2971  -14.8615 O   0  0  0  0  0  0  0  0  0  0  0  0
   25.6917  -21.3584  -16.3882 N   0  0  0  0  0  0  0  0  0  0  0  0
   25.4691  -22.6090  -17.1210 C   0  0  1  0  0  0  0  0  0  0  0  0
   24.0093  -22.6067  -17.4866 C   0  0  0  0  0  0  0  0  0  0  0  0
   23.0884  -22.5080  -16.3509 C   0  0  0  0  0  0  0  0  0  0  0  0
   23.1475  -23.3545  -15.2580 C   0  0  0  0  0  0  0  0  0  0  0  0
   22.1661  -22.9791  -14.4229 N   0  0  0  0  0  0  0  0  0  0  0  0
   21.5111  -21.9388  -14.9613 C   0  0  0  0  0  0  0  0  0  0  0  0
   22.0863  -21.6650  -16.1360 N   0  0  0  0  0  0  0  0  0  0  0  0
   26.3315  -22.5651  -18.3270 C   0  0  0  0  0  0  0  0  0  0  0  0
   26.5174  -23.7125  -19.0728 O   0  0  0  0  0  0  0  0  0  0  0  0
   26.9229  -21.5346  -18.7339 O   0  0  0  0  0  0  0  0  0  0  0  0
  2  1  1  1
  2 10  1  0
  2  3  1  0
  3  4  1  0
  4  5  2  0
  4  9  1  0
  5  6  1  0
  6  7  2  0
  8  7  1  0
  9  8  2  0
 10 12  1  0
 11 10  2  0
 12 16  1  0
 13 12  1  0
 13 14  1  0
 15 14  1  0
 16 15  1  0
 16 17  1  6
 18 17  2  0
 19 17  1  0
 20 21  1  6
 20 19  1  0
 21 22  1  0
 22 26  1  0
 22 23  2  0
 23 24  1  0
 25 24  1  0
 26 25  2  0
 27 28  1  0
 27 20  1  0
 29 27  2  0
M  END
$$$$
