FPH.pdb
     RDKit          3D

 29 31  0  0  1  0  0  0  0  0999 V2000
   24.1930  -20.1269   -9.4675 N   0  0  0  0  0  0  0  0  0  0  0  0
   25.4196  -20.0356  -10.1567 C   0  0  1  0  0  0  0  0  0  0  0  0
   26.4474  -20.9376   -9.4882 C   0  0  0  0  0  0  0  0  0  0  0  0
   26.8016  -20.3219   -8.1908 C   0  0  0  0  0  0  0  0  0  0  0  0
   27.7934  -19.3353   -8.1488 C   0  0  0  0  0  0  0  0  0  0  0  0
   28.1157  -18.7779   -6.9268 C   0  0  0  0  0  0  0  0  0  0  0  0
   27.4738  -19.1866   -5.7804 C   0  0  0  0  0  0  0  0  0  0  0  0
   26.4920  -20.1583   -5.7958 C   0  0  0  0  0  0  0  0  0  0  0  0
   26.1832  -20.7048   -7.0292 C   0  0  0  0  0  0  0  0  0  0  0  0
   25.4034  -20.1896  -11.6120 C   0  0  0  0  0  0  0  0  0  0  0  0
   24.2931  -20.6066  -12.1317 O   0  0  0  0  0  0  0  0  0  0  0  0
   26.4476  -19.9412  -12.5225 N   0  0  0  0  0  0  0  0  0  0  0  0
   27.8175  -19.5727  -12.2940 C   0  0  0  0  0  0  0  0  0  0  0  0
   28.0464  -18.5165  -13.3756 C   0  0  0  0  0  0  0  0  0  0  0  0
   27.1834  -18.9790  -14.5259 C   0  0  0  0  0  0  0  0  0  0  0  0
   26.2775  -20.0379  -13.9845 C   0  0  1  0  0  0  0  0  0  0  0  0
   26.6519  -21.4116  -14.4433 C   0  0  0  0  0  0  0  0  0  0  0  0
   27.3944  -22.1604  -13.7334 O   0  0  0  0  0  0  0  0  0  0  0  0
   26.1965  -21.9253  -15.6767 N   0  0  0  0  0  0  0  0  0  0  0  0
   25.6739  -23.2840  -15.8543 C   0  0  1  0  0  0  0  0  0  0  0  0
   24.5461  -23.4135  -14.8663 C   0  0  0  0  0  0  0  0  0  0  0  0
   23.7486  -24.6361  -14.9962 C   0  0  0  0  0  0  0  0  0  0  0  0
   24.2139  -25.8825  -14.6159 C   0  0  0  0  0  0  0  0  0  0  0  0
   23.2309  -26.7590  -14.8741 N   0  0  0  0  0  0  0  0  0  0  0  0
   22.1855  -26.0989  -15.3961 C   0  0  0  0  0  0  0  0  0  0  0  0
   22.5182  -24.8064  -15.4634 N   0  0  0  0  0  0  0  0  0  0  0  0
   25.1863  -23.3826  -17.2516 C   0  0  0  0  0  0  0  0  0  0  0  0
   24.3075  -22.4327  -17.7343 O   0  0  0  0  0  0  0  0  0  0  0  0
   25.5208  -24.2898  -18.0529 O   0  0  0  0  0  0  0  0  0  0  0  0
  2  1  1  1
  2 10  1  0
  2  3  1  0
  3  4  1  0
  4  5  2  0
  4  9  1  0
  5  6  1  0
  6  7  2  0
  8  7  1  0
  9  8  2  0
 10 12  1  0
 11 10  2  0
 12 16  1  0
 13 12  1  0
 13 14  1  0
 15 14  1  0
 16 15  1  0
 16 17  1  6
 18 17  2  0
 19 17  1  0
 20 21  1  1
 20 19  1  0
 21 22  1  0
 22 26  1  0
 22 23  2  0
 23 24  1  0
 25 24  1  0
 26 25  2  0
 27 28  1  0
 27 20  1  0
 29 27  2  0
M  END
$$$$
