FPH.pdb
     RDKit          3D

 29 31  0  0  1  0  0  0  0  0999 V2000
   25.5879  -19.2352   -8.0348 N   0  0  0  0  0  0  0  0  0  0  0  0
   26.5661  -19.8128   -8.8699 C   0  0  1  0  0  0  0  0  0  0  0  0
   27.1590  -21.0376   -8.1877 C   0  0  0  0  0  0  0  0  0  0  0  0
   27.8716  -20.5711   -6.9784 C   0  0  0  0  0  0  0  0  0  0  0  0
   27.1700  -20.4514   -5.7734 C   0  0  0  0  0  0  0  0  0  0  0  0
   27.8510  -20.0067   -4.6569 C   0  0  0  0  0  0  0  0  0  0  0  0
   29.1878  -19.6900   -4.7330 C   0  0  0  0  0  0  0  0  0  0  0  0
   29.9020  -19.7995   -5.9103 C   0  0  0  0  0  0  0  0  0  0  0  0
   29.2025  -20.2466   -7.0178 C   0  0  0  0  0  0  0  0  0  0  0  0
   26.2137  -20.0672  -10.2674 C   0  0  0  0  0  0  0  0  0  0  0  0
   24.9547  -19.9983  -10.5624 O   0  0  0  0  0  0  0  0  0  0  0  0
   27.0744  -20.3797  -11.3363 N   0  0  0  0  0  0  0  0  0  0  0  0
   28.4013  -20.9312  -11.3358 C   0  0  0  0  0  0  0  0  0  0  0  0
   29.0923  -20.0958  -12.4140 C   0  0  0  0  0  0  0  0  0  0  0  0
   27.9950  -19.8072  -13.4113 C   0  0  0  0  0  0  0  0  0  0  0  0
   26.7057  -20.1749  -12.7497 C   0  0  1  0  0  0  0  0  0  0  0  0
   26.1095  -21.4318  -13.2998 C   0  0  0  0  0  0  0  0  0  0  0  0
   26.5070  -22.5732  -12.9058 O   0  0  0  0  0  0  0  0  0  0  0  0
   25.0875  -21.3972  -14.2728 N   0  0  0  0  0  0  0  0  0  0  0  0
   23.7139  -21.8515  -14.0333 C   0  0  1  0  0  0  0  0  0  0  0  0
   23.2182  -21.0374  -12.8686 C   0  0  0  0  0  0  0  0  0  0  0  0
   21.8157  -21.2640  -12.5091 C   0  0  0  0  0  0  0  0  0  0  0  0
   21.0204  -22.2063  -13.1369 C   0  0  0  0  0  0  0  0  0  0  0  0
   19.8107  -22.1398  -12.5593 N   0  0  0  0  0  0  0  0  0  0  0  0
   19.8355  -21.1961  -11.6054 C   0  0  0  0  0  0  0  0  0  0  0  0
   21.0648  -20.6726  -11.5885 N   0  0  0  0  0  0  0  0  0  0  0  0
   22.9402  -21.5641  -15.2657 C   0  0  0  0  0  0  0  0  0  0  0  0
   22.9423  -20.2855  -15.7878 O   0  0  0  0  0  0  0  0  0  0  0  0
   22.2636  -22.4190  -15.8890 O   0  0  0  0  0  0  0  0  0  0  0  0
  2  1  1  1
  2 10  1  0
  2  3  1  0
  3  4  1  0
  4  5  2  0
  4  9  1  0
  5  6  1  0
  6  7  2  0
  8  7  1  0
  9  8  2  0
 10 12  1  0
 11 10  2  0
 12 16  1  0
 13 12  1  0
 13 14  1  0
 15 14  1  0
 16 15  1  0
 16 17  1  6
 18 17  2  0
 19 17  1  0
 20 21  1  1
 20 19  1  0
 21 22  1  0
 22 26  1  0
 22 23  2  0
 23 24  1  0
 25 24  1  0
 26 25  2  0
 27 28  1  0
 27 20  1  0
 29 27  2  0
M  END
$$$$
