FPH.pdb
     RDKit          3D

 29 31  0  0  1  0  0  0  0  0999 V2000
   25.1278  -21.6212  -16.8692 N   0  0  0  0  0  0  0  0  0  0  0  0
   25.6466  -20.6431  -15.9961 C   0  0  1  0  0  0  0  0  0  0  0  0
   24.7908  -19.3867  -16.0730 C   0  0  0  0  0  0  0  0  0  0  0  0
   25.6955  -18.2242  -15.9403 C   0  0  0  0  0  0  0  0  0  0  0  0
   26.4259  -17.7939  -17.0539 C   0  0  0  0  0  0  0  0  0  0  0  0
   27.2714  -16.7115  -16.9081 C   0  0  0  0  0  0  0  0  0  0  0  0
   27.3893  -16.0745  -15.6942 C   0  0  0  0  0  0  0  0  0  0  0  0
   26.6795  -16.4801  -14.5807 C   0  0  0  0  0  0  0  0  0  0  0  0
   25.8378  -17.5662  -14.7465 C   0  0  0  0  0  0  0  0  0  0  0  0
   25.9376  -21.0375  -14.6171 C   0  0  0  0  0  0  0  0  0  0  0  0
   25.0403  -21.7604  -14.0264 O   0  0  0  0  0  0  0  0  0  0  0  0
   27.0750  -20.7282  -13.8478 N   0  0  0  0  0  0  0  0  0  0  0  0
   28.2246  -19.9256  -14.1622 C   0  0  0  0  0  0  0  0  0  0  0  0
   29.3641  -20.7616  -13.5788 C   0  0  0  0  0  0  0  0  0  0  0  0
   28.7500  -21.4195  -12.3656 C   0  0  0  0  0  0  0  0  0  0  0  0
   27.2719  -21.2223  -12.4721 C   0  0  1  0  0  0  0  0  0  0  0  0
   26.7496  -20.2147  -11.4975 C   0  0  0  0  0  0  0  0  0  0  0  0
   26.1803  -19.1504  -11.8965 O   0  0  0  0  0  0  0  0  0  0  0  0
   26.8690  -20.4075  -10.1043 N   0  0  0  0  0  0  0  0  0  0  0  0
   25.7714  -20.2049   -9.1531 C   0  0  1  0  0  0  0  0  0  0  0  0
   24.7886  -21.3100   -9.4316 C   0  0  0  0  0  0  0  0  0  0  0  0
   23.7833  -20.9998  -10.4518 C   0  0  0  0  0  0  0  0  0  0  0  0
   23.7682  -19.8091  -11.1564 C   0  0  0  0  0  0  0  0  0  0  0  0
   22.7225  -19.8681  -11.9957 N   0  0  0  0  0  0  0  0  0  0  0  0
   22.0994  -21.0454  -11.8321 C   0  0  0  0  0  0  0  0  0  0  0  0
   22.7590  -21.7224  -10.8876 N   0  0  0  0  0  0  0  0  0  0  0  0
   26.3491  -20.3217   -7.7920 C   0  0  0  0  0  0  0  0  0  0  0  0
   26.3574  -19.2198   -6.9594 O   0  0  0  0  0  0  0  0  0  0  0  0
   26.8458  -21.3763   -7.3248 O   0  0  0  0  0  0  0  0  0  0  0  0
  2  1  1  1
  2 10  1  0
  2  3  1  0
  3  4  1  0
  4  5  2  0
  4  9  1  0
  5  6  1  0
  6  7  2  0
  8  7  1  0
  9  8  2  0
 10 12  1  0
 11 10  2  0
 12 16  1  0
 13 12  1  0
 13 14  1  0
 15 14  1  0
 16 15  1  0
 16 17  1  1
 18 17  2  0
 19 17  1  0
 20 21  1  6
 20 19  1  0
 21 22  1  0
 22 26  1  0
 22 23  2  0
 23 24  1  0
 25 24  1  0
 26 25  2  0
 27 28  1  0
 27 20  1  0
 29 27  2  0
M  END
$$$$
