FPH.pdb
     RDKit          3D

 29 31  0  0  1  0  0  0  0  0999 V2000
   24.5868  -20.1261   -9.8021 N   0  0  0  0  0  0  0  0  0  0  0  0
   25.6974  -20.0804  -10.6695 C   0  0  1  0  0  0  0  0  0  0  0  0
   26.6571  -21.2113  -10.3278 C   0  0  0  0  0  0  0  0  0  0  0  0
   27.5361  -20.7340   -9.2381 C   0  0  0  0  0  0  0  0  0  0  0  0
   28.9237  -20.8553   -9.3744 C   0  0  0  0  0  0  0  0  0  0  0  0
   29.7275  -20.4110   -8.3427 C   0  0  0  0  0  0  0  0  0  0  0  0
   29.1721  -19.8627   -7.2096 C   0  0  0  0  0  0  0  0  0  0  0  0
   27.8060  -19.7322   -7.0512 C   0  0  0  0  0  0  0  0  0  0  0  0
   27.0174  -20.1830   -8.0954 C   0  0  0  0  0  0  0  0  0  0  0  0
   25.4431  -19.9785  -12.1072 C   0  0  0  0  0  0  0  0  0  0  0  0
   24.2025  -20.0311  -12.4746 O   0  0  0  0  0  0  0  0  0  0  0  0
   26.3812  -19.8306  -13.1460 N   0  0  0  0  0  0  0  0  0  0  0  0
   27.7733  -20.1820  -13.2037 C   0  0  0  0  0  0  0  0  0  0  0  0
   28.3765  -18.9718  -13.9173 C   0  0  0  0  0  0  0  0  0  0  0  0
   27.2885  -18.5284  -14.8669 C   0  0  0  0  0  0  0  0  0  0  0  0
   26.0419  -19.2442  -14.4561 C   0  0  1  0  0  0  0  0  0  0  0  0
   25.6574  -20.3320  -15.4083 C   0  0  0  0  0  0  0  0  0  0  0  0
   25.7184  -21.5548  -15.0661 O   0  0  0  0  0  0  0  0  0  0  0  0
   25.2143  -20.0423  -16.7168 N   0  0  0  0  0  0  0  0  0  0  0  0
   23.8841  -20.3913  -17.2263 C   0  0  1  0  0  0  0  0  0  0  0  0
   22.9111  -19.6387  -16.3594 C   0  0  0  0  0  0  0  0  0  0  0  0
   22.1609  -20.4664  -15.4108 C   0  0  0  0  0  0  0  0  0  0  0  0
   21.2942  -21.4692  -15.8081 C   0  0  0  0  0  0  0  0  0  0  0  0
   20.7891  -22.0114  -14.6890 N   0  0  0  0  0  0  0  0  0  0  0  0
   21.3120  -21.3809  -13.6260 C   0  0  0  0  0  0  0  0  0  0  0  0
   22.1457  -20.4425  -14.0841 N   0  0  0  0  0  0  0  0  0  0  0  0
   23.8245  -19.9319  -18.6354 C   0  0  0  0  0  0  0  0  0  0  0  0
   23.0645  -20.6355  -19.5490 O   0  0  0  0  0  0  0  0  0  0  0  0
   24.4297  -18.9228  -19.0743 O   0  0  0  0  0  0  0  0  0  0  0  0
  2  1  1  1
  2 10  1  0
  2  3  1  0
  3  4  1  0
  4  5  2  0
  4  9  1  0
  5  6  1  0
  6  7  2  0
  8  7  1  0
  9  8  2  0
 10 12  1  0
 11 10  2  0
 12 16  1  0
 13 12  1  0
 13 14  1  0
 15 14  1  0
 16 15  1  0
 16 17  1  6
 18 17  2  0
 19 17  1  0
 20 21  1  1
 20 19  1  0
 21 22  1  0
 22 26  1  0
 22 23  2  0
 23 24  1  0
 25 24  1  0
 26 25  2  0
 27 28  1  0
 27 20  1  0
 29 27  2  0
M  END
$$$$
