FPH.pdb
     RDKit          3D

 29 31  0  0  1  0  0  0  0  0999 V2000
   28.7853  -30.5735  -16.4188 N   0  0  0  0  0  0  0  0  0  0  0  0
   28.8454  -29.5335  -17.3688 C   0  0  1  0  0  0  0  0  0  0  0  0
   28.1815  -29.9860  -18.6616 C   0  0  0  0  0  0  0  0  0  0  0  0
   29.0112  -31.0700  -19.2312 C   0  0  0  0  0  0  0  0  0  0  0  0
   28.5611  -32.3926  -19.1487 C   0  0  0  0  0  0  0  0  0  0  0  0
   29.3536  -33.3917  -19.6793 C   0  0  0  0  0  0  0  0  0  0  0  0
   30.5567  -33.0885  -20.2740 C   0  0  0  0  0  0  0  0  0  0  0  0
   31.0228  -31.7915  -20.3677 C   0  0  0  0  0  0  0  0  0  0  0  0
   30.2149  -30.8045  -19.8303 C   0  0  0  0  0  0  0  0  0  0  0  0
   28.4109  -28.1986  -16.9550 C   0  0  0  0  0  0  0  0  0  0  0  0
   27.7827  -28.1252  -15.8251 O   0  0  0  0  0  0  0  0  0  0  0  0
   28.5898  -26.9786  -17.6338 N   0  0  0  0  0  0  0  0  0  0  0  0
   29.1915  -26.6990  -18.9084 C   0  0  0  0  0  0  0  0  0  0  0  0
   29.9935  -25.4320  -18.6094 C   0  0  0  0  0  0  0  0  0  0  0  0
   29.1621  -24.7093  -17.5757 C   0  0  0  0  0  0  0  0  0  0  0  0
   28.1378  -25.6841  -17.0903 C   0  0  1  0  0  0  0  0  0  0  0  0
   26.7629  -25.3804  -17.5957 C   0  0  0  0  0  0  0  0  0  0  0  0
   26.3931  -25.7520  -18.7538 O   0  0  0  0  0  0  0  0  0  0  0  0
   25.8290  -24.6728  -16.8086 N   0  0  0  0  0  0  0  0  0  0  0  0
   24.4815  -24.3140  -17.2626 C   0  0  1  0  0  0  0  0  0  0  0  0
   23.7745  -23.7838  -16.0444 C   0  0  0  0  0  0  0  0  0  0  0  0
   22.4371  -23.2395  -16.2947 C   0  0  0  0  0  0  0  0  0  0  0  0
   21.8268  -23.2826  -17.5357 C   0  0  0  0  0  0  0  0  0  0  0  0
   20.6256  -22.6998  -17.3979 N   0  0  0  0  0  0  0  0  0  0  0  0
   20.4782  -22.3032  -16.1243 C   0  0  0  0  0  0  0  0  0  0  0  0
   21.5913  -22.6399  -15.4662 N   0  0  0  0  0  0  0  0  0  0  0  0
   24.6375  -23.2654  -18.2999 C   0  0  0  0  0  0  0  0  0  0  0  0
   23.6516  -23.0984  -19.2524 O   0  0  0  0  0  0  0  0  0  0  0  0
   25.6262  -22.4952  -18.3809 O   0  0  0  0  0  0  0  0  0  0  0  0
  2  1  1  1
  2 10  1  0
  2  3  1  0
  3  4  1  0
  4  5  2  0
  4  9  1  0
  5  6  1  0
  6  7  2  0
  8  7  1  0
  9  8  2  0
 10 12  1  0
 11 10  2  0
 12 16  1  0
 13 12  1  0
 13 14  1  0
 15 14  1  0
 16 15  1  0
 16 17  1  6
 18 17  2  0
 19 17  1  0
 20 21  1  1
 20 19  1  0
 21 22  1  0
 22 26  1  0
 22 23  2  0
 23 24  1  0
 25 24  1  0
 26 25  2  0
 27 28  1  0
 27 20  1  0
 29 27  2  0
M  END
$$$$
