FPH.pdb
     RDKit          3D

 29 31  0  0  1  0  0  0  0  0999 V2000
   13.6822  -27.9400   -8.0007 N   0  0  0  0  0  0  0  0  0  0  0  0
   14.4648  -27.0056   -7.2919 C   0  0  1  0  0  0  0  0  0  0  0  0
   13.8753  -25.6129   -7.4644 C   0  0  0  0  0  0  0  0  0  0  0  0
   13.8821  -25.3037   -8.9108 C   0  0  0  0  0  0  0  0  0  0  0  0
   12.6653  -25.1929   -9.5933 C   0  0  0  0  0  0  0  0  0  0  0  0
   12.6925  -24.9115  -10.9454 C   0  0  0  0  0  0  0  0  0  0  0  0
   13.8905  -24.7449  -11.6012 C   0  0  0  0  0  0  0  0  0  0  0  0
   15.1043  -24.8494  -10.9501 C   0  0  0  0  0  0  0  0  0  0  0  0
   15.0565  -25.1319   -9.5960 C   0  0  0  0  0  0  0  0  0  0  0  0
   14.7964  -27.3035   -5.8979 C   0  0  0  0  0  0  0  0  0  0  0  0
   13.9269  -28.0007   -5.2386 O   0  0  0  0  0  0  0  0  0  0  0  0
   15.9462  -26.9252   -5.1796 N   0  0  0  0  0  0  0  0  0  0  0  0
   17.0543  -26.0942   -5.5618 C   0  0  0  0  0  0  0  0  0  0  0  0
   18.2426  -26.8666   -4.9882 C   0  0  0  0  0  0  0  0  0  0  0  0
   17.6935  -27.5007   -3.7318 C   0  0  0  0  0  0  0  0  0  0  0  0
   16.2065  -27.3607   -3.7946 C   0  0  1  0  0  0  0  0  0  0  0  0
   15.6796  -26.3369   -2.8394 C   0  0  0  0  0  0  0  0  0  0  0  0
   15.4929  -25.1338   -3.2050 O   0  0  0  0  0  0  0  0  0  0  0  0
   15.3715  -26.6675   -1.5022 N   0  0  0  0  0  0  0  0  0  0  0  0
   14.0566  -26.4545   -0.8888 C   0  0  1  0  0  0  0  0  0  0  0  0
   13.0761  -27.1663   -1.7814 C   0  0  0  0  0  0  0  0  0  0  0  0
   12.0623  -26.3049   -2.3960 C   0  0  0  0  0  0  0  0  0  0  0  0
   12.3777  -25.1621   -3.1095 C   0  0  0  0  0  0  0  0  0  0  0  0
   11.2169  -24.6296   -3.5221 N   0  0  0  0  0  0  0  0  0  0  0  0
   10.2068  -25.4003   -3.0900 C   0  0  0  0  0  0  0  0  0  0  0  0
   10.7401  -26.4166   -2.4055 N   0  0  0  0  0  0  0  0  0  0  0  0
   14.1037  -27.0647    0.4624 C   0  0  0  0  0  0  0  0  0  0  0  0
   13.8479  -26.2826    1.5716 O   0  0  0  0  0  0  0  0  0  0  0  0
   14.3659  -28.2731    0.6816 O   0  0  0  0  0  0  0  0  0  0  0  0
  2  1  1  1
  2 10  1  0
  2  3  1  0
  3  4  1  0
  4  5  2  0
  4  9  1  0
  5  6  1  0
  6  7  2  0
  8  7  1  0
  9  8  2  0
 10 12  1  0
 11 10  2  0
 12 16  1  0
 13 12  1  0
 13 14  1  0
 15 14  1  0
 16 15  1  0
 16 17  1  1
 18 17  2  0
 19 17  1  0
 20 21  1  6
 20 19  1  0
 21 22  1  0
 22 26  1  0
 22 23  2  0
 23 24  1  0
 25 24  1  0
 26 25  2  0
 27 28  1  0
 27 20  1  0
 29 27  2  0
M  END
$$$$
