GAV.pdb
     RDKit          3D

 17 16  0  0  1  0  0  0  0  0999 V2000
   15.4910   -9.9470  -17.5641 N   0  0  0  0  0  0  0  0  0  0  0  0
   15.7425   -8.6022  -17.0982 C   0  0  0  0  0  0  0  0  0  0  0  0
   17.2091   -8.3694  -16.9157 C   0  0  0  0  0  0  0  0  0  0  0  0
   17.9304   -9.2426  -16.3961 O   0  0  0  0  0  0  0  0  0  0  0  0
   19.5022   -5.5595  -17.8546 C   0  0  0  0  0  0  0  0  0  0  0  0
   19.2042   -6.8395  -17.1393 C   0  0  2  0  0  0  0  0  0  0  0  0
   17.8051   -7.1617  -17.3261 N   0  0  0  0  0  0  0  0  0  0  0  0
   19.5083   -6.6328  -15.6828 C   0  0  0  0  0  0  0  0  0  0  0  0
   18.6694   -6.1281  -14.8917 O   0  0  0  0  0  0  0  0  0  0  0  0
   22.7990   -8.7055  -13.7565 C   0  0  0  0  0  0  0  0  0  0  0  0
   21.4797   -8.2596  -13.1861 C   0  0  1  0  0  0  0  0  0  0  0  0
   21.5541   -8.2022  -11.6846 C   0  0  0  0  0  0  0  0  0  0  0  0
   21.0413   -6.9204  -13.7194 C   0  0  2  0  0  0  0  0  0  0  0  0
   20.7623   -6.9994  -15.1305 N   0  0  0  0  0  0  0  0  0  0  0  0
   22.0077   -5.8407  -13.3951 C   0  0  0  0  0  0  0  0  0  0  0  0
   22.1159   -5.3126  -12.1099 O   0  0  0  0  0  0  0  0  0  0  0  0
   22.7755   -5.3493  -14.2609 O   0  0  0  0  0  0  0  0  0  0  0  0
  1  2  1  0
  2  3  1  0
  3  4  2  0
  6  5  1  6
  7  6  1  0
  7  3  1  0
  8  6  1  0
  8  9  2  0
 11 10  1  6
 11 13  1  0
 12 11  1  0
 13 14  1  6
 13 15  1  0
 14  8  1  0
 15 16  1  0
 17 15  2  0
M  END
$$$$
