GAV.pdb
     RDKit          3D

 17 16  0  0  1  0  0  0  0  0999 V2000
   21.5064  -17.0245  -16.3803 N   0  0  0  0  0  0  0  0  0  0  0  0
   22.6871  -16.3972  -15.8315 C   0  0  0  0  0  0  0  0  0  0  0  0
   23.7391  -17.4178  -15.5311 C   0  0  0  0  0  0  0  0  0  0  0  0
   23.4286  -18.5311  -15.0656 O   0  0  0  0  0  0  0  0  0  0  0  0
   27.4699  -17.4414  -15.9086 C   0  0  0  0  0  0  0  0  0  0  0  0
   26.1737  -18.0840  -15.5266 C   0  0  2  0  0  0  0  0  0  0  0  0
   25.0997  -17.1434  -15.7672 N   0  0  0  0  0  0  0  0  0  0  0  0
   26.2490  -18.4376  -14.0686 C   0  0  0  0  0  0  0  0  0  0  0  0
   26.2806  -17.5570  -13.1697 O   0  0  0  0  0  0  0  0  0  0  0  0
   23.8791  -20.1486  -12.1058 C   0  0  0  0  0  0  0  0  0  0  0  0
   25.1473  -20.9023  -11.8090 C   0  0  1  0  0  0  0  0  0  0  0  0
   25.1171  -22.2536  -12.4697 C   0  0  0  0  0  0  0  0  0  0  0  0
   26.3806  -20.1559  -12.2471 C   0  0  2  0  0  0  0  0  0  0  0  0
   26.2880  -19.7882  -13.6368 N   0  0  0  0  0  0  0  0  0  0  0  0
   27.6283  -20.9011  -11.9427 C   0  0  0  0  0  0  0  0  0  0  0  0
   28.4941  -21.3272  -12.9484 O   0  0  0  0  0  0  0  0  0  0  0  0
   27.9666  -21.1849  -10.7656 O   0  0  0  0  0  0  0  0  0  0  0  0
  1  2  1  0
  2  3  1  0
  3  4  2  0
  6  5  1  1
  7  6  1  0
  7  3  1  0
  8  6  1  0
  8  9  2  0
 11 10  1  6
 11 13  1  0
 12 11  1  0
 13 14  1  6
 13 15  1  0
 14  8  1  0
 15 16  1  0
 17 15  2  0
M  END
$$$$
