GAV.pdb
     RDKit          3D

 17 16  0  0  1  0  0  0  0  0999 V2000
   17.1302  -14.1999  -17.1795 N   0  0  0  0  0  0  0  0  0  0  0  0
   17.1331  -12.9795  -17.9537 C   0  0  0  0  0  0  0  0  0  0  0  0
   18.3940  -12.2079  -17.7233 C   0  0  0  0  0  0  0  0  0  0  0  0
   19.2877  -12.6594  -16.9814 O   0  0  0  0  0  0  0  0  0  0  0  0
   19.7294   -9.0011  -19.1243 C   0  0  0  0  0  0  0  0  0  0  0  0
   19.7921  -10.1553  -18.1742 C   0  0  2  0  0  0  0  0  0  0  0  0
   18.5982  -10.9578  -18.3379 N   0  0  0  0  0  0  0  0  0  0  0  0
   19.8673   -9.5991  -16.7808 C   0  0  0  0  0  0  0  0  0  0  0  0
   18.8347   -9.3044  -16.1240 O   0  0  0  0  0  0  0  0  0  0  0  0
   21.5066  -11.1948  -13.8782 C   0  0  0  0  0  0  0  0  0  0  0  0
   22.0584   -9.7964  -13.9444 C   0  0  1  0  0  0  0  0  0  0  0  0
   23.4657   -9.8164  -14.4759 C   0  0  0  0  0  0  0  0  0  0  0  0
   21.2140   -8.8802  -14.7915 C   0  0  2  0  0  0  0  0  0  0  0  0
   21.1130   -9.3796  -16.1390 N   0  0  0  0  0  0  0  0  0  0  0  0
   21.6879   -7.4738  -14.7453 C   0  0  0  0  0  0  0  0  0  0  0  0
   22.1972   -6.8321  -15.8729 O   0  0  0  0  0  0  0  0  0  0  0  0
   21.6541   -6.7919  -13.6896 O   0  0  0  0  0  0  0  0  0  0  0  0
  1  2  1  0
  2  3  1  0
  3  4  2  0
  6  5  1  6
  7  6  1  0
  7  3  1  0
  8  6  1  0
  8  9  2  0
 11 10  1  6
 11 13  1  0
 12 11  1  0
 13 14  1  6
 13 15  1  0
 14  8  1  0
 15 16  1  0
 17 15  2  0
M  END
$$$$
