GAV.pdb
     RDKit          3D

 17 16  0  0  1  0  0  0  0  0999 V2000
   27.7599  -20.5662  -14.6774 N   0  0  0  0  0  0  0  0  0  0  0  0
   27.6204  -19.5118  -15.6559 C   0  0  0  0  0  0  0  0  0  0  0  0
   26.5640  -18.5376  -15.2391 C   0  0  0  0  0  0  0  0  0  0  0  0
   25.5738  -18.9169  -14.5846 O   0  0  0  0  0  0  0  0  0  0  0  0
   26.2242  -14.8246  -15.4769 C   0  0  0  0  0  0  0  0  0  0  0  0
   25.6378  -16.1907  -15.3074 C   0  0  2  0  0  0  0  0  0  0  0  0
   26.6653  -17.1745  -15.5764 N   0  0  0  0  0  0  0  0  0  0  0  0
   24.5058  -16.3286  -16.2854 C   0  0  0  0  0  0  0  0  0  0  0  0
   24.7047  -16.5514  -17.5082 O   0  0  0  0  0  0  0  0  0  0  0  0
   19.8952  -17.5572  -17.2032 C   0  0  0  0  0  0  0  0  0  0  0  0
   21.1488  -17.4825  -16.3741 C   0  0  1  0  0  0  0  0  0  0  0  0
   21.9064  -18.7796  -16.4574 C   0  0  0  0  0  0  0  0  0  0  0  0
   22.0490  -16.3470  -16.7866 C   0  0  2  0  0  0  0  0  0  0  0  0
   23.1539  -16.2133  -15.8720 N   0  0  0  0  0  0  0  0  0  0  0  0
   21.3055  -15.0738  -16.9629 C   0  0  0  0  0  0  0  0  0  0  0  0
   20.9358  -14.6067  -18.2229 O   0  0  0  0  0  0  0  0  0  0  0  0
   20.9725  -14.3542  -15.9872 O   0  0  0  0  0  0  0  0  0  0  0  0
  1  2  1  0
  2  3  1  0
  3  4  2  0
  6  5  1  6
  7  6  1  0
  7  3  1  0
  8  6  1  0
  8  9  2  0
 11 10  1  6
 11 13  1  0
 12 11  1  0
 13 14  1  1
 13 15  1  0
 14  8  1  0
 15 16  1  0
 17 15  2  0
M  END
$$$$
