GAV.pdb
     RDKit          3D

 17 16  0  0  1  0  0  0  0  0999 V2000
   16.0200  -11.3830  -15.8735 N   0  0  0  0  0  0  0  0  0  0  0  0
   15.9730   -9.9798  -15.5307 C   0  0  0  0  0  0  0  0  0  0  0  0
   17.2652   -9.3068  -15.8711 C   0  0  0  0  0  0  0  0  0  0  0  0
   18.3309   -9.9524  -15.8907 O   0  0  0  0  0  0  0  0  0  0  0  0
   18.1391   -5.8605  -17.0341 C   0  0  0  0  0  0  0  0  0  0  0  0
   18.5153   -7.2052  -16.4965 C   0  0  2  0  0  0  0  0  0  0  0  0
   17.3055   -7.9330  -16.1760 N   0  0  0  0  0  0  0  0  0  0  0  0
   19.3447   -6.9904  -15.2626 C   0  0  0  0  0  0  0  0  0  0  0  0
   18.8232   -6.7528  -14.1418 O   0  0  0  0  0  0  0  0  0  0  0  0
   21.9493   -9.4687  -14.1339 C   0  0  0  0  0  0  0  0  0  0  0  0
   22.5889   -8.1067  -14.1143 C   0  0  1  0  0  0  0  0  0  0  0  0
   23.5146   -7.9489  -15.2897 C   0  0  0  0  0  0  0  0  0  0  0  0
   21.5760   -6.9913  -14.1186 C   0  0  2  0  0  0  0  0  0  0  0  0
   20.7613   -7.0461  -15.3054 N   0  0  0  0  0  0  0  0  0  0  0  0
   22.2036   -5.6593  -13.9264 C   0  0  0  0  0  0  0  0  0  0  0  0
   22.7560   -5.2762  -12.7055 O   0  0  0  0  0  0  0  0  0  0  0  0
   22.2686   -4.8116  -14.8525 O   0  0  0  0  0  0  0  0  0  0  0  0
  1  2  1  0
  2  3  1  0
  3  4  2  0
  6  5  1  1
  7  6  1  0
  7  3  1  0
  8  6  1  0
  8  9  2  0
 11 10  1  6
 11 13  1  0
 12 11  1  0
 13 14  1  6
 13 15  1  0
 14  8  1  0
 15 16  1  0
 17 15  2  0
M  END
$$$$
