GAV.pdb
     RDKit          3D

 17 16  0  0  1  0  0  0  0  0999 V2000
   16.9204  -14.6272  -16.3894 N   0  0  0  0  0  0  0  0  0  0  0  0
   16.6199  -13.2370  -16.6462 C   0  0  0  0  0  0  0  0  0  0  0  0
   17.8768  -12.4305  -16.7371 C   0  0  0  0  0  0  0  0  0  0  0  0
   18.9324  -12.8396  -16.2162 O   0  0  0  0  0  0  0  0  0  0  0  0
   18.7774   -9.3069  -18.5877 C   0  0  0  0  0  0  0  0  0  0  0  0
   19.0800  -10.3837  -17.5938 C   0  0  2  0  0  0  0  0  0  0  0  0
   17.8947  -11.1948  -17.4115 N   0  0  0  0  0  0  0  0  0  0  0  0
   19.4695   -9.7207  -16.3033 C   0  0  0  0  0  0  0  0  0  0  0  0
   18.6180   -9.4095  -15.4301 O   0  0  0  0  0  0  0  0  0  0  0  0
   21.8668  -10.9466  -13.7295 C   0  0  0  0  0  0  0  0  0  0  0  0
   22.3071   -9.5550  -14.0960 C   0  0  1  0  0  0  0  0  0  0  0  0
   23.5260   -9.6092  -14.9762 C   0  0  0  0  0  0  0  0  0  0  0  0
   21.2234   -8.7676  -14.7856 C   0  0  2  0  0  0  0  0  0  0  0  0
   20.8228   -9.4138  -16.0092 N   0  0  0  0  0  0  0  0  0  0  0  0
   21.6051   -7.3482  -14.9962 C   0  0  0  0  0  0  0  0  0  0  0  0
   21.6931   -6.4458  -13.9377 O   0  0  0  0  0  0  0  0  0  0  0  0
   21.8677   -6.8893  -16.1368 O   0  0  0  0  0  0  0  0  0  0  0  0
  1  2  1  0
  2  3  1  0
  3  4  2  0
  6  5  1  6
  7  6  1  0
  7  3  1  0
  8  6  1  0
  8  9  2  0
 11 10  1  6
 11 13  1  0
 12 11  1  0
 13 14  1  6
 13 15  1  0
 14  8  1  0
 15 16  1  0
 17 15  2  0
M  END
$$$$
