GAV.pdb
     RDKit          3D

 17 16  0  0  1  0  0  0  0  0999 V2000
   29.0295  -21.0734  -14.9333 N   0  0  0  0  0  0  0  0  0  0  0  0
   28.3219  -20.2180  -14.0078 C   0  0  0  0  0  0  0  0  0  0  0  0
   27.0938  -20.8979  -13.4900 C   0  0  0  0  0  0  0  0  0  0  0  0
   26.4257  -21.6487  -14.2267 O   0  0  0  0  0  0  0  0  0  0  0  0
   25.4148  -20.9713  -10.1406 C   0  0  0  0  0  0  0  0  0  0  0  0
   25.4552  -21.2690  -11.6064 C   0  0  2  0  0  0  0  0  0  0  0  0
   26.6670  -20.7048  -12.1623 N   0  0  0  0  0  0  0  0  0  0  0  0
   24.2438  -20.6418  -12.2355 C   0  0  0  0  0  0  0  0  0  0  0  0
   24.1239  -19.3942  -12.3526 O   0  0  0  0  0  0  0  0  0  0  0  0
   21.5439  -23.0430  -14.5710 C   0  0  0  0  0  0  0  0  0  0  0  0
   21.8409  -21.5786  -14.7497 C   0  0  1  0  0  0  0  0  0  0  0  0
   20.7265  -20.9098  -15.5074 C   0  0  0  0  0  0  0  0  0  0  0  0
   22.0556  -20.8671  -13.4391 C   0  0  2  0  0  0  0  0  0  0  0  0
   23.1743  -21.4322  -12.7289 N   0  0  0  0  0  0  0  0  0  0  0  0
   20.8237  -20.8272  -12.6110 C   0  0  0  0  0  0  0  0  0  0  0  0
   19.9031  -19.7858  -12.7125 O   0  0  0  0  0  0  0  0  0  0  0  0
   20.5491  -21.7283  -11.7784 O   0  0  0  0  0  0  0  0  0  0  0  0
  1  2  1  0
  2  3  1  0
  3  4  2  0
  6  5  1  1
  7  6  1  0
  7  3  1  0
  8  6  1  0
  8  9  2  0
 11 10  1  1
 11 13  1  0
 12 11  1  0
 13 14  1  1
 13 15  1  0
 14  8  1  0
 15 16  1  0
 17 15  2  0
M  END
$$$$
