GAV.pdb
     RDKit          3D

 17 16  0  0  1  0  0  0  0  0999 V2000
   20.1350  -14.5280  -16.7836 N   0  0  0  0  0  0  0  0  0  0  0  0
   20.6488  -13.3215  -17.3912 C   0  0  0  0  0  0  0  0  0  0  0  0
   20.5121  -12.1586  -16.4597 C   0  0  0  0  0  0  0  0  0  0  0  0
   19.4375  -11.9435  -15.8667 O   0  0  0  0  0  0  0  0  0  0  0  0
   22.9340   -9.6279  -15.1458 C   0  0  0  0  0  0  0  0  0  0  0  0
   21.5434  -10.1443  -15.3418 C   0  0  2  0  0  0  0  0  0  0  0  0
   21.5919  -11.2841  -16.2332 N   0  0  0  0  0  0  0  0  0  0  0  0
   20.7237   -9.0383  -15.9432 C   0  0  0  0  0  0  0  0  0  0  0  0
   20.7735   -8.7633  -17.1706 O   0  0  0  0  0  0  0  0  0  0  0  0
   17.2934   -7.5838  -13.9256 C   0  0  0  0  0  0  0  0  0  0  0  0
   17.5642   -7.4830  -15.4024 C   0  0  1  0  0  0  0  0  0  0  0  0
   16.7163   -6.4018  -16.0149 C   0  0  0  0  0  0  0  0  0  0  0  0
   19.0155   -7.2178  -15.7081 C   0  0  2  0  0  0  0  0  0  0  0  0
   19.8516   -8.2496  -15.1500 N   0  0  0  0  0  0  0  0  0  0  0  0
   19.4407   -5.8586  -15.2880 C   0  0  0  0  0  0  0  0  0  0  0  0
   19.1666   -4.7311  -16.0601 O   0  0  0  0  0  0  0  0  0  0  0  0
   20.0679   -5.6560  -14.2175 O   0  0  0  0  0  0  0  0  0  0  0  0
  1  2  1  0
  2  3  1  0
  3  4  2  0
  6  5  1  6
  7  6  1  0
  7  3  1  0
  8  6  1  0
  8  9  2  0
 11 10  1  1
 11 13  1  0
 12 11  1  0
 13 14  1  1
 13 15  1  0
 14  8  1  0
 15 16  1  0
 17 15  2  0
M  END
$$$$
