GAV.pdb
     RDKit          3D

 17 16  0  0  1  0  0  0  0  0999 V2000
   16.4540   -9.9873  -19.0315 N   0  0  0  0  0  0  0  0  0  0  0  0
   16.9294   -8.6238  -18.9696 C   0  0  0  0  0  0  0  0  0  0  0  0
   18.2960   -8.5654  -18.3632 C   0  0  0  0  0  0  0  0  0  0  0  0
   18.7140   -9.4976  -17.6497 O   0  0  0  0  0  0  0  0  0  0  0  0
   21.1241   -6.1251  -18.6274 C   0  0  0  0  0  0  0  0  0  0  0  0
   20.4532   -7.3064  -18.0001 C   0  0  2  0  0  0  0  0  0  0  0  0
   19.1376   -7.4587  -18.5848 N   0  0  0  0  0  0  0  0  0  0  0  0
   20.3481   -7.0443  -16.5247 C   0  0  0  0  0  0  0  0  0  0  0  0
   19.3671   -6.4347  -16.0241 O   0  0  0  0  0  0  0  0  0  0  0  0
   22.8878   -9.1095  -13.6445 C   0  0  0  0  0  0  0  0  0  0  0  0
   21.4817   -8.5998  -13.4788 C   0  0  1  0  0  0  0  0  0  0  0  0
   21.1570   -8.4322  -12.0194 C   0  0  0  0  0  0  0  0  0  0  0  0
   21.2496   -7.2966  -14.1985 C   0  0  2  0  0  0  0  0  0  0  0  0
   21.3557   -7.4748  -15.6240 N   0  0  0  0  0  0  0  0  0  0  0  0
   22.1316   -6.2118  -13.6985 C   0  0  0  0  0  0  0  0  0  0  0  0
   21.9150   -5.5973  -12.4664 O   0  0  0  0  0  0  0  0  0  0  0  0
   23.1159   -5.7933  -14.3591 O   0  0  0  0  0  0  0  0  0  0  0  0
  1  2  1  0
  2  3  1  0
  3  4  2  0
  6  5  1  6
  7  6  1  0
  7  3  1  0
  8  6  1  0
  8  9  2  0
 11 10  1  1
 11 13  1  0
 12 11  1  0
 13 14  1  6
 13 15  1  0
 14  8  1  0
 15 16  1  0
 17 15  2  0
M  END
$$$$
