GAV.pdb
     RDKit          3D

 17 16  0  0  1  0  0  0  0  0999 V2000
   14.7270  -10.2621  -13.9050 N   0  0  0  0  0  0  0  0  0  0  0  0
   15.1942   -9.4026  -14.9689 C   0  0  0  0  0  0  0  0  0  0  0  0
   16.6747   -9.2056  -14.8804 C   0  0  0  0  0  0  0  0  0  0  0  0
   17.2421   -9.1483  -13.7724 O   0  0  0  0  0  0  0  0  0  0  0  0
   19.3984   -8.9885  -17.4405 C   0  0  0  0  0  0  0  0  0  0  0  0
   18.8850   -8.8401  -16.0429 C   0  0  2  0  0  0  0  0  0  0  0  0
   17.4574   -9.0809  -16.0439 N   0  0  0  0  0  0  0  0  0  0  0  0
   19.1837   -7.4391  -15.5907 C   0  0  0  0  0  0  0  0  0  0  0  0
   18.3806   -6.4897  -15.7868 O   0  0  0  0  0  0  0  0  0  0  0  0
   20.1304   -6.1578  -12.1369 C   0  0  0  0  0  0  0  0  0  0  0  0
   21.1995   -5.7278  -13.1047 C   0  0  1  0  0  0  0  0  0  0  0  0
   22.4238   -6.5871  -12.9439 C   0  0  0  0  0  0  0  0  0  0  0  0
   20.7364   -5.7753  -14.5377 C   0  0  2  0  0  0  0  0  0  0  0  0
   20.3915   -7.1212  -14.9183 N   0  0  0  0  0  0  0  0  0  0  0  0
   21.7169   -5.1599  -15.4675 C   0  0  0  0  0  0  0  0  0  0  0  0
   22.3832   -5.9096  -16.4352 O   0  0  0  0  0  0  0  0  0  0  0  0
   21.9952   -3.9345  -15.4296 O   0  0  0  0  0  0  0  0  0  0  0  0
  1  2  1  0
  2  3  1  0
  3  4  2  0
  6  5  1  6
  7  6  1  0
  7  3  1  0
  8  6  1  0
  8  9  2  0
 11 10  1  1
 11 13  1  0
 12 11  1  0
 13 14  1  6
 13 15  1  0
 14  8  1  0
 15 16  1  0
 17 15  2  0
M  END
$$$$
