GAV.pdb
     RDKit          3D

 17 16  0  0  1  0  0  0  0  0999 V2000
   23.1047  -21.3657  -15.9580 N   0  0  0  0  0  0  0  0  0  0  0  0
   23.7419  -20.3003  -15.2180 C   0  0  0  0  0  0  0  0  0  0  0  0
   24.4476  -20.8391  -14.0137 C   0  0  0  0  0  0  0  0  0  0  0  0
   23.8015  -21.2981  -13.0521 O   0  0  0  0  0  0  0  0  0  0  0  0
   28.0673  -21.1869  -13.1009 C   0  0  0  0  0  0  0  0  0  0  0  0
   26.6082  -21.2522  -12.7760 C   0  0  2  0  0  0  0  0  0  0  0  0
   25.8536  -20.8393  -13.9405 N   0  0  0  0  0  0  0  0  0  0  0  0
   26.3524  -20.3223  -11.6243 C   0  0  0  0  0  0  0  0  0  0  0  0
   26.2861  -19.0746  -11.7769 O   0  0  0  0  0  0  0  0  0  0  0  0
   23.5657  -19.8476   -9.5374 C   0  0  0  0  0  0  0  0  0  0  0  0
   24.6749  -20.0740   -8.5459 C   0  0  1  0  0  0  0  0  0  0  0  0
   24.5404  -21.4331   -7.9152 C   0  0  0  0  0  0  0  0  0  0  0  0
   26.0417  -19.9402   -9.1656 C   0  0  2  0  0  0  0  0  0  0  0  0
   26.1731  -20.8117  -10.3051 N   0  0  0  0  0  0  0  0  0  0  0  0
   27.1309  -20.1376   -8.1760 C   0  0  0  0  0  0  0  0  0  0  0  0
   27.3353  -19.2503   -7.1208 O   0  0  0  0  0  0  0  0  0  0  0  0
   27.9222  -21.1125   -8.2392 O   0  0  0  0  0  0  0  0  0  0  0  0
  1  2  1  0
  2  3  1  0
  3  4  2  0
  6  5  1  6
  7  6  1  0
  7  3  1  0
  8  6  1  0
  8  9  2  0
 11 10  1  6
 11 13  1  0
 12 11  1  0
 13 14  1  6
 13 15  1  0
 14  8  1  0
 15 16  1  0
 17 15  2  0
M  END
$$$$
