GAV.pdb
     RDKit          3D

 17 16  0  0  1  0  0  0  0  0999 V2000
   17.6817  -15.2215  -16.1870 N   0  0  0  0  0  0  0  0  0  0  0  0
   17.1007  -13.9335  -15.8832 C   0  0  0  0  0  0  0  0  0  0  0  0
   18.0350  -12.8276  -16.2608 C   0  0  0  0  0  0  0  0  0  0  0  0
   19.2583  -13.0393  -16.3682 O   0  0  0  0  0  0  0  0  0  0  0  0
   17.5211   -9.2737  -17.3084 C   0  0  0  0  0  0  0  0  0  0  0  0
   18.3935  -10.3996  -16.8498 C   0  0  2  0  0  0  0  0  0  0  0  0
   17.5539  -11.5267  -16.5026 N   0  0  0  0  0  0  0  0  0  0  0  0
   19.1625   -9.9247  -15.6499 C   0  0  0  0  0  0  0  0  0  0  0  0
   18.6825   -9.9758  -14.4874 O   0  0  0  0  0  0  0  0  0  0  0  0
   22.5870  -10.9516  -14.4212 C   0  0  0  0  0  0  0  0  0  0  0  0
   22.5951   -9.4578  -14.6025 C   0  0  1  0  0  0  0  0  0  0  0  0
   23.3390   -9.0893  -15.8571 C   0  0  0  0  0  0  0  0  0  0  0  0
   21.2075   -8.8728  -14.6505 C   0  0  2  0  0  0  0  0  0  0  0  0
   20.4722   -9.3944  -15.7740 N   0  0  0  0  0  0  0  0  0  0  0  0
   21.2206   -7.3882  -14.6251 C   0  0  0  0  0  0  0  0  0  0  0  0
   21.5432   -6.6754  -13.4717 O   0  0  0  0  0  0  0  0  0  0  0  0
   20.9421   -6.7003  -15.6399 O   0  0  0  0  0  0  0  0  0  0  0  0
  1  2  1  0
  2  3  1  0
  3  4  2  0
  6  5  1  1
  7  6  1  0
  7  3  1  0
  8  6  1  0
  8  9  2  0
 11 10  1  6
 11 13  1  0
 12 11  1  0
 13 14  1  6
 13 15  1  0
 14  8  1  0
 15 16  1  0
 17 15  2  0
M  END
$$$$
