GAV.pdb
     RDKit          3D

 17 16  0  0  1  0  0  0  0  0999 V2000
   16.1204  -11.9556  -15.1146 N   0  0  0  0  0  0  0  0  0  0  0  0
   16.0050  -10.6503  -14.5049 C   0  0  0  0  0  0  0  0  0  0  0  0
   17.1212   -9.7575  -14.9471 C   0  0  0  0  0  0  0  0  0  0  0  0
   18.2433  -10.2292  -15.2138 O   0  0  0  0  0  0  0  0  0  0  0  0
   17.2829   -6.1373  -15.8610 C   0  0  0  0  0  0  0  0  0  0  0  0
   17.9374   -7.4462  -15.5492 C   0  0  2  0  0  0  0  0  0  0  0  0
   16.9288   -8.3684  -15.0713 N   0  0  0  0  0  0  0  0  0  0  0  0
   18.9728   -7.2005  -14.4889 C   0  0  0  0  0  0  0  0  0  0  0  0
   18.6723   -7.1220  -13.2691 O   0  0  0  0  0  0  0  0  0  0  0  0
   21.8872   -9.3979  -13.9651 C   0  0  0  0  0  0  0  0  0  0  0  0
   22.4343   -7.9980  -14.0389 C   0  0  1  0  0  0  0  0  0  0  0  0
   23.0967   -7.7670  -15.3697 C   0  0  0  0  0  0  0  0  0  0  0  0
   21.3752   -6.9499  -13.8156 C   0  0  2  0  0  0  0  0  0  0  0  0
   20.3440   -7.0448  -14.8170 N   0  0  0  0  0  0  0  0  0  0  0  0
   21.9463   -5.5825  -13.7220 C   0  0  0  0  0  0  0  0  0  0  0  0
   22.6724   -5.1636  -12.6086 O   0  0  0  0  0  0  0  0  0  0  0  0
   21.8045   -4.7351  -14.6398 O   0  0  0  0  0  0  0  0  0  0  0  0
  1  2  1  0
  2  3  1  0
  3  4  2  0
  6  5  1  1
  7  6  1  0
  7  3  1  0
  8  6  1  0
  8  9  2  0
 11 10  1  6
 11 13  1  0
 12 11  1  0
 13 14  1  6
 13 15  1  0
 14  8  1  0
 15 16  1  0
 17 15  2  0
M  END
$$$$
