PMA.pdb
     RDKit          3D

 21 21  0  0  1  0  0  0  0  0999 V2000
   21.1269  -13.6793  -18.7779 N   0  0  0  0  0  0  0  0  0  0  0  0
   21.0679  -14.9710  -19.4349 C   0  0  0  0  0  0  0  0  0  0  0  0
   21.5178  -16.0082  -18.4601 C   0  0  0  0  0  0  0  0  0  0  0  0
   21.9931  -15.1724  -17.2675 C   0  0  0  0  0  0  0  0  0  0  0  0
   21.0410  -13.9939  -17.3976 C   0  0  1  0  0  0  0  0  0  0  0  0
   21.4290  -12.8944  -16.4923 C   0  0  0  0  0  0  0  0  0  0  0  0
   21.3776  -13.0987  -15.2583 O   0  0  0  0  0  0  0  0  0  0  0  0
   26.8478  -10.7899  -15.7705 C   0  0  0  0  0  0  0  0  0  0  0  0
   26.1602   -9.1220  -15.9860 S   0  0  0  0  0  0  0  0  0  0  0  0
   24.3718   -9.2387  -15.6319 C   0  0  0  0  0  0  0  0  0  0  0  0
   23.7476  -10.3457  -16.4247 C   0  0  0  0  0  0  0  0  0  0  0  0
   22.2941  -10.5496  -16.0506 C   0  0  2  0  0  0  0  0  0  0  0  0
   21.8541  -11.6269  -16.9622 N   0  0  0  0  0  0  0  0  0  0  0  0
   21.4530   -9.3586  -16.2426 C   0  0  0  0  0  0  0  0  0  0  0  0
   21.3527   -8.8192  -17.4014 O   0  0  0  0  0  0  0  0  0  0  0  0
   18.8685   -7.3080  -14.4207 C   0  0  0  0  0  0  0  0  0  0  0  0
   19.9213   -7.5057  -15.4910 C   0  0  2  0  0  0  0  0  0  0  0  0
   20.7033   -8.7225  -15.2224 N   0  0  0  0  0  0  0  0  0  0  0  0
   20.7763   -6.3174  -15.5410 C   0  0  0  0  0  0  0  0  0  0  0  0
   21.9361   -6.3768  -15.0651 O   0  0  0  0  0  0  0  0  0  0  0  0
   20.3634   -5.1159  -16.0944 O   0  0  0  0  0  0  0  0  0  0  0  0
  2  1  1  0
  3  2  1  0
  4  3  1  0
  4  5  1  0
  5  1  1  0
  6 13  1  0
  5  6  1  1
  7  6  2  0
  9  8  1  0
 10  9  1  0
 12 11  1  6
 11 10  1  0
 12 14  1  0
 12 13  1  0
 14 18  1  0
 15 14  2  0
 17 19  1  0
 17 16  1  1
 18 17  1  0
 19 21  1  0
 20 19  2  0
M  END
$$$$
