PMA.pdb
     RDKit          3D

 21 21  0  0  1  0  0  0  0  0999 V2000
   27.4635  -18.6996  -15.3217 N   0  0  0  0  0  0  0  0  0  0  0  0
   28.6066  -18.2130  -16.0703 C   0  0  0  0  0  0  0  0  0  0  0  0
   29.6043  -19.3193  -16.1647 C   0  0  0  0  0  0  0  0  0  0  0  0
   29.0000  -20.4017  -15.2645 C   0  0  0  0  0  0  0  0  0  0  0  0
   27.5241  -20.1075  -15.4824 C   0  0  1  0  0  0  0  0  0  0  0  0
   26.6848  -20.8698  -14.5372 C   0  0  0  0  0  0  0  0  0  0  0  0
   26.5809  -22.1061  -14.7034 O   0  0  0  0  0  0  0  0  0  0  0  0
   27.0628  -20.0181   -8.6281 C   0  0  0  0  0  0  0  0  0  0  0  0
   25.3310  -20.5316   -8.4324 S   0  0  0  0  0  0  0  0  0  0  0  0
   24.7747  -21.1435  -10.0613 C   0  0  0  0  0  0  0  0  0  0  0  0
   25.5817  -20.5252  -11.1614 C   0  0  0  0  0  0  0  0  0  0  0  0
   25.1497  -21.0302  -12.5225 C   0  0  2  0  0  0  0  0  0  0  0  0
   25.9976  -20.2611  -13.4577 N   0  0  0  0  0  0  0  0  0  0  0  0
   23.7302  -20.7944  -12.8265 C   0  0  0  0  0  0  0  0  0  0  0  0
   23.2766  -19.5976  -12.9029 O   0  0  0  0  0  0  0  0  0  0  0  0
   20.7964  -22.5851  -14.2882 C   0  0  0  0  0  0  0  0  0  0  0  0
   21.3841  -21.4868  -13.4272 C   0  0  2  0  0  0  0  0  0  0  0  0
   22.7711  -21.8110  -13.0588 N   0  0  0  0  0  0  0  0  0  0  0  0
   20.5408  -21.3097  -12.2428 C   0  0  0  0  0  0  0  0  0  0  0  0
   20.9939  -21.6247  -11.1155 O   0  0  0  0  0  0  0  0  0  0  0  0
   19.2516  -20.8054  -12.3054 O   0  0  0  0  0  0  0  0  0  0  0  0
  2  1  1  0
  3  2  1  0
  4  3  1  0
  4  5  1  0
  5  1  1  0
  6 13  1  0
  5  6  1  1
  7  6  2  0
  9  8  1  0
 10  9  1  0
 12 11  1  1
 11 10  1  0
 12 14  1  0
 12 13  1  0
 14 18  1  0
 15 14  2  0
 17 19  1  0
 17 16  1  6
 18 17  1  0
 19 21  1  0
 20 19  2  0
M  END
$$$$
