PMA.pdb
     RDKit          3D

 21 21  0  0  1  0  0  0  0  0999 V2000
   19.3621  -10.8440  -16.9801 N   0  0  0  0  0  0  0  0  0  0  0  0
   19.0026  -11.4826  -18.2317 C   0  0  0  0  0  0  0  0  0  0  0  0
   18.0397  -10.5935  -18.9463 C   0  0  0  0  0  0  0  0  0  0  0  0
   17.7619   -9.4937  -17.9166 C   0  0  0  0  0  0  0  0  0  0  0  0
   19.1101   -9.4679  -17.2139 C   0  0  1  0  0  0  0  0  0  0  0  0
   19.0584   -8.6376  -15.9945 C   0  0  0  0  0  0  0  0  0  0  0  0
   17.9935   -8.6190  -15.3368 O   0  0  0  0  0  0  0  0  0  0  0  0
   22.7220  -10.7192  -12.5966 C   0  0  0  0  0  0  0  0  0  0  0  0
   21.7002   -9.6335  -11.5581 S   0  0  0  0  0  0  0  0  0  0  0  0
   20.4757   -8.8467  -12.6622 C   0  0  0  0  0  0  0  0  0  0  0  0
   21.0892   -7.6927  -13.3940 C   0  0  0  0  0  0  0  0  0  0  0  0
   20.0955   -7.0308  -14.3261 C   0  0  2  0  0  0  0  0  0  0  0  0
   20.1587   -7.8669  -15.5434 N   0  0  0  0  0  0  0  0  0  0  0  0
   20.4241   -5.6368  -14.6604 C   0  0  0  0  0  0  0  0  0  0  0  0
   21.3613   -5.3771  -15.4960 O   0  0  0  0  0  0  0  0  0  0  0  0
   19.1227   -2.1354  -14.0665 C   0  0  0  0  0  0  0  0  0  0  0  0
   20.1717   -3.1355  -14.5050 C   0  0  2  0  0  0  0  0  0  0  0  0
   19.7702   -4.4992  -14.1261 N   0  0  0  0  0  0  0  0  0  0  0  0
   21.4573   -2.7680  -13.9069 C   0  0  0  0  0  0  0  0  0  0  0  0
   21.9207   -3.4671  -12.9731 O   0  0  0  0  0  0  0  0  0  0  0  0
   22.1967   -1.6733  -14.3256 O   0  0  0  0  0  0  0  0  0  0  0  0
  2  1  1  0
  3  2  1  0
  4  3  1  0
  4  5  1  0
  5  1  1  0
  6 13  1  0
  5  6  1  1
  7  6  2  0
  9  8  1  0
 10  9  1  0
 12 11  1  1
 11 10  1  0
 12 14  1  0
 12 13  1  0
 14 18  1  0
 15 14  2  0
 17 19  1  0
 17 16  1  1
 18 17  1  0
 19 21  1  0
 20 19  2  0
M  END
$$$$
