PMA.pdb
     RDKit          3D

 21 21  0  0  1  0  0  0  0  0999 V2000
   29.1637  -34.4606   -3.7807 N   0  0  0  0  0  0  0  0  0  0  0  0
   28.9511  -34.4027   -5.2142 C   0  0  0  0  0  0  0  0  0  0  0  0
   27.4844  -34.2754   -5.4609 C   0  0  0  0  0  0  0  0  0  0  0  0
   26.8871  -34.4392   -4.0597 C   0  0  0  0  0  0  0  0  0  0  0  0
   28.0137  -33.8313   -3.2391 C   0  0  1  0  0  0  0  0  0  0  0  0
   27.8075  -34.0664   -1.7965 C   0  0  0  0  0  0  0  0  0  0  0  0
   28.5392  -34.9051   -1.2237 O   0  0  0  0  0  0  0  0  0  0  0  0
   26.2497  -29.4527    2.7759 C   0  0  0  0  0  0  0  0  0  0  0  0
   24.9520  -30.7219    2.8563 S   0  0  0  0  0  0  0  0  0  0  0  0
   25.7205  -32.2960    2.3376 C   0  0  0  0  0  0  0  0  0  0  0  0
   26.0100  -32.2833    0.8680 C   0  0  0  0  0  0  0  0  0  0  0  0
   26.6717  -33.5693    0.4181 C   0  0  2  0  0  0  0  0  0  0  0  0
   26.8212  -33.3849   -1.0409 N   0  0  0  0  0  0  0  0  0  0  0  0
   25.8793  -34.7780    0.6899 C   0  0  0  0  0  0  0  0  0  0  0  0
   24.8450  -35.0449   -0.0194 O   0  0  0  0  0  0  0  0  0  0  0  0
   26.0898  -37.9437    2.7426 C   0  0  0  0  0  0  0  0  0  0  0  0
   25.3664  -36.9494    1.8587 C   0  0  2  0  0  0  0  0  0  0  0  0
   26.1653  -35.7236    1.7054 N   0  0  0  0  0  0  0  0  0  0  0  0
   24.0525  -36.6654    2.4405 C   0  0  0  0  0  0  0  0  0  0  0  0
   23.8909  -35.6122    3.1036 O   0  0  0  0  0  0  0  0  0  0  0  0
   22.9653  -37.5120    2.2933 O   0  0  0  0  0  0  0  0  0  0  0  0
  2  1  1  0
  3  2  1  0
  4  3  1  0
  4  5  1  0
  5  1  1  0
  6 13  1  0
  5  6  1  1
  7  6  2  0
  9  8  1  0
 10  9  1  0
 12 11  1  6
 11 10  1  0
 12 14  1  0
 12 13  1  0
 14 18  1  0
 15 14  2  0
 17 19  1  0
 17 16  1  1
 18 17  1  0
 19 21  1  0
 20 19  2  0
M  END
$$$$
