PMA.pdb
     RDKit          3D

 21 21  0  0  1  0  0  0  0  0999 V2000
   29.9869  -20.4734  -11.7520 N   0  0  0  0  0  0  0  0  0  0  0  0
   31.4207  -20.6274  -11.9072 C   0  0  0  0  0  0  0  0  0  0  0  0
   31.8420  -21.8407  -11.1465 C   0  0  0  0  0  0  0  0  0  0  0  0
   30.5579  -22.2497  -10.4179 C   0  0  0  0  0  0  0  0  0  0  0  0
   29.5347  -21.7811  -11.4404 C   0  0  1  0  0  0  0  0  0  0  0  0
   28.1664  -21.8424  -10.8900 C   0  0  0  0  0  0  0  0  0  0  0  0
   27.7029  -22.9635  -10.5815 O   0  0  0  0  0  0  0  0  0  0  0  0
   28.4832  -19.7114   -6.1802 C   0  0  0  0  0  0  0  0  0  0  0  0
   26.7038  -19.3979   -6.3716 S   0  0  0  0  0  0  0  0  0  0  0  0
   26.1086  -20.5198   -7.6848 C   0  0  0  0  0  0  0  0  0  0  0  0
   26.0166  -19.7983   -8.9942 C   0  0  0  0  0  0  0  0  0  0  0  0
   25.9881  -20.7622  -10.1622 C   0  0  2  0  0  0  0  0  0  0  0  0
   27.3635  -20.6904  -10.6987 N   0  0  0  0  0  0  0  0  0  0  0  0
   25.0232  -20.4030  -11.2123 C   0  0  0  0  0  0  0  0  0  0  0  0
   25.1208  -19.2790  -11.8215 O   0  0  0  0  0  0  0  0  0  0  0  0
   22.7279  -22.0366  -13.6031 C   0  0  0  0  0  0  0  0  0  0  0  0
   23.0854  -20.8274  -12.7645 C   0  0  2  0  0  0  0  0  0  0  0  0
   23.9478  -21.2206  -11.6393 N   0  0  0  0  0  0  0  0  0  0  0  0
   21.8511  -20.1910  -12.2989 C   0  0  0  0  0  0  0  0  0  0  0  0
   21.6028  -20.1626  -11.0689 O   0  0  0  0  0  0  0  0  0  0  0  0
   20.9323  -19.6115  -13.1593 O   0  0  0  0  0  0  0  0  0  0  0  0
  2  1  1  0
  3  2  1  0
  4  3  1  0
  4  5  1  0
  5  1  1  0
  6 13  1  0
  5  6  1  1
  7  6  2  0
  9  8  1  0
 10  9  1  0
 12 11  1  1
 11 10  1  0
 12 14  1  0
 12 13  1  0
 14 18  1  0
 15 14  2  0
 17 19  1  0
 17 16  1  1
 18 17  1  0
 19 21  1  0
 20 19  2  0
M  END
$$$$
