PMA.pdb
     RDKit          3D

 21 21  0  0  1  0  0  0  0  0999 V2000
   27.5075  -19.4464  -15.5352 N   0  0  0  0  0  0  0  0  0  0  0  0
   28.7562  -19.2124  -16.2350 C   0  0  0  0  0  0  0  0  0  0  0  0
   29.5937  -20.4420  -16.1133 C   0  0  0  0  0  0  0  0  0  0  0  0
   28.7835  -21.3126  -15.1475 C   0  0  0  0  0  0  0  0  0  0  0  0
   27.3818  -20.8591  -15.5239 C   0  0  1  0  0  0  0  0  0  0  0  0
   26.3811  -21.3787  -14.5712 C   0  0  0  0  0  0  0  0  0  0  0  0
   25.9452  -22.5390  -14.7460 O   0  0  0  0  0  0  0  0  0  0  0  0
   26.8203  -20.0122   -8.7393 C   0  0  0  0  0  0  0  0  0  0  0  0
   25.1013  -20.5311   -8.4621 S   0  0  0  0  0  0  0  0  0  0  0  0
   24.4346  -21.0378  -10.0857 C   0  0  0  0  0  0  0  0  0  0  0  0
   25.3878  -20.6778  -11.1837 C   0  0  0  0  0  0  0  0  0  0  0  0
   24.8851  -21.1431  -12.5346 C   0  0  2  0  0  0  0  0  0  0  0  0
   25.8986  -20.6208  -13.4753 N   0  0  0  0  0  0  0  0  0  0  0  0
   23.5570  -20.6221  -12.8918 C   0  0  0  0  0  0  0  0  0  0  0  0
   23.3635  -19.3582  -12.9866 O   0  0  0  0  0  0  0  0  0  0  0  0
   20.3201  -21.7751  -14.3772 C   0  0  0  0  0  0  0  0  0  0  0  0
   21.1272  -20.8174  -13.5261 C   0  0  2  0  0  0  0  0  0  0  0  0
   22.4177  -21.4209  -13.1585 N   0  0  0  0  0  0  0  0  0  0  0  0
   20.3440  -20.4601  -12.3411 C   0  0  0  0  0  0  0  0  0  0  0  0
   20.6870  -20.9112  -11.2212 O   0  0  0  0  0  0  0  0  0  0  0  0
   19.2293  -19.6386  -12.3953 O   0  0  0  0  0  0  0  0  0  0  0  0
  2  1  1  0
  3  2  1  0
  4  3  1  0
  4  5  1  0
  5  1  1  0
  6 13  1  0
  5  6  1  1
  7  6  2  0
  9  8  1  0
 10  9  1  0
 12 11  1  1
 11 10  1  0
 12 14  1  0
 12 13  1  0
 14 18  1  0
 15 14  2  0
 17 19  1  0
 17 16  1  6
 18 17  1  0
 19 21  1  0
 20 19  2  0
M  END
$$$$
