PMA.pdb
     RDKit          3D

 21 21  0  0  1  0  0  0  0  0999 V2000
   28.5690  -20.3079  -16.2465 N   0  0  0  0  0  0  0  0  0  0  0  0
   29.0645  -19.2651  -17.1244 C   0  0  0  0  0  0  0  0  0  0  0  0
   28.2745  -18.0255  -16.8641 C   0  0  0  0  0  0  0  0  0  0  0  0
   27.1899  -18.5089  -15.8961 C   0  0  0  0  0  0  0  0  0  0  0  0
   27.9703  -19.5968  -15.1753 C   0  0  1  0  0  0  0  0  0  0  0  0
   27.0835  -20.4090  -14.3192 C   0  0  0  0  0  0  0  0  0  0  0  0
   26.6450  -21.4880  -14.7779 O   0  0  0  0  0  0  0  0  0  0  0  0
   27.3288  -20.5151   -7.9576 C   0  0  0  0  0  0  0  0  0  0  0  0
   25.5178  -20.4886   -8.1014 S   0  0  0  0  0  0  0  0  0  0  0  0
   25.1160  -21.0122   -9.8048 C   0  0  0  0  0  0  0  0  0  0  0  0
   25.9696  -20.2834  -10.7967 C   0  0  0  0  0  0  0  0  0  0  0  0
   25.7156  -20.7626  -12.2109 C   0  0  2  0  0  0  0  0  0  0  0  0
   26.7122  -20.0176  -13.0088 N   0  0  0  0  0  0  0  0  0  0  0  0
   24.3617  -20.4739  -12.7075 C   0  0  0  0  0  0  0  0  0  0  0  0
   24.0010  -19.2642  -12.9322 O   0  0  0  0  0  0  0  0  0  0  0  0
   21.3148  -22.2549  -14.0421 C   0  0  0  0  0  0  0  0  0  0  0  0
   22.0186  -21.0712  -13.4125 C   0  0  2  0  0  0  0  0  0  0  0  0
   23.3723  -21.4508  -12.9789 N   0  0  0  0  0  0  0  0  0  0  0  0
   21.2128  -20.5811  -12.2918 C   0  0  0  0  0  0  0  0  0  0  0  0
   21.5541  -20.8707  -11.1192 O   0  0  0  0  0  0  0  0  0  0  0  0
   20.0785  -19.8039  -12.4636 O   0  0  0  0  0  0  0  0  0  0  0  0
  2  1  1  0
  3  2  1  0
  4  3  1  0
  4  5  1  0
  5  1  1  0
  6 13  1  0
  5  6  1  6
  7  6  2  0
  9  8  1  0
 10  9  1  0
 12 11  1  1
 11 10  1  0
 12 14  1  0
 12 13  1  0
 14 18  1  0
 15 14  2  0
 17 19  1  0
 17 16  1  1
 18 17  1  0
 19 21  1  0
 20 19  2  0
M  END
$$$$
