PMA.pdb
     RDKit          3D

 21 21  0  0  1  0  0  0  0  0999 V2000
   17.5473  -23.1235  -13.0530 N   0  0  0  0  0  0  0  0  0  0  0  0
   17.3314  -23.2771  -14.4790 C   0  0  0  0  0  0  0  0  0  0  0  0
   17.9533  -24.5652  -14.9062 C   0  0  0  0  0  0  0  0  0  0  0  0
   18.6785  -25.0307  -13.6395 C   0  0  0  0  0  0  0  0  0  0  0  0
   17.7413  -24.4507  -12.5919 C   0  0  1  0  0  0  0  0  0  0  0  0
   18.3267  -24.5515  -11.2406 C   0  0  0  0  0  0  0  0  0  0  0  0
   18.5228  -25.6927  -10.7650 O   0  0  0  0  0  0  0  0  0  0  0  0
   21.1217  -19.5421   -8.6392 C   0  0  0  0  0  0  0  0  0  0  0  0
   22.2659  -20.6740   -9.4821 S   0  0  0  0  0  0  0  0  0  0  0  0
   21.3982  -22.2728   -9.6504 C   0  0  0  0  0  0  0  0  0  0  0  0
   20.0529  -22.2152   -8.9942 C   0  0  0  0  0  0  0  0  0  0  0  0
   19.3059  -23.5252   -9.1360 C   0  0  2  0  0  0  0  0  0  0  0  0
   18.6726  -23.4156  -10.4671 N   0  0  0  0  0  0  0  0  0  0  0  0
   18.2755  -23.7417   -8.1093 C   0  0  0  0  0  0  0  0  0  0  0  0
   17.0691  -23.3592   -8.3147 O   0  0  0  0  0  0  0  0  0  0  0  0
   16.3877  -25.5975   -6.6457 C   0  0  0  0  0  0  0  0  0  0  0  0
   17.3823  -24.6896   -5.9533 C   0  0  2  0  0  0  0  0  0  0  0  0
   18.4973  -24.3666   -6.8572 N   0  0  0  0  0  0  0  0  0  0  0  0
   17.8537  -25.3461   -4.7317 C   0  0  0  0  0  0  0  0  0  0  0  0
   19.0726  -25.6221   -4.6158 O   0  0  0  0  0  0  0  0  0  0  0  0
   17.0107  -25.6817   -3.6843 O   0  0  0  0  0  0  0  0  0  0  0  0
  2  1  1  0
  3  2  1  0
  4  3  1  0
  4  5  1  0
  5  1  1  0
  6 13  1  0
  5  6  1  1
  7  6  2  0
  9  8  1  0
 10  9  1  0
 12 11  1  1
 11 10  1  0
 12 14  1  0
 12 13  1  0
 14 18  1  0
 15 14  2  0
 17 19  1  0
 17 16  1  6
 18 17  1  0
 19 21  1  0
 20 19  2  0
M  END
$$$$
