PMA.pdb
     RDKit          3D

 21 21  0  0  1  0  0  0  0  0999 V2000
   28.2902  -20.7542  -16.2418 N   0  0  0  0  0  0  0  0  0  0  0  0
   28.8840  -19.7627  -17.1181 C   0  0  0  0  0  0  0  0  0  0  0  0
   28.3768  -18.4195  -16.7097 C   0  0  0  0  0  0  0  0  0  0  0  0
   27.3243  -18.7599  -15.6498 C   0  0  0  0  0  0  0  0  0  0  0  0
   27.9513  -20.0208  -15.0761 C   0  0  1  0  0  0  0  0  0  0  0  0
   27.0174  -20.7123  -14.1658 C   0  0  0  0  0  0  0  0  0  0  0  0
   26.3755  -21.6911  -14.6094 O   0  0  0  0  0  0  0  0  0  0  0  0
   26.8809  -19.7856   -7.5933 C   0  0  0  0  0  0  0  0  0  0  0  0
   25.8011  -21.1684   -8.0657 S   0  0  0  0  0  0  0  0  0  0  0  0
   24.9703  -20.6826   -9.6185 C   0  0  0  0  0  0  0  0  0  0  0  0
   25.9725  -20.2224  -10.6321 C   0  0  0  0  0  0  0  0  0  0  0  0
   25.7112  -20.8334  -11.9931 C   0  0  2  0  0  0  0  0  0  0  0  0
   26.8210  -20.3142  -12.8201 N   0  0  0  0  0  0  0  0  0  0  0  0
   24.4227  -20.4459  -12.5867 C   0  0  0  0  0  0  0  0  0  0  0  0
   24.2064  -19.2270  -12.9207 O   0  0  0  0  0  0  0  0  0  0  0  0
   21.4737  -21.9886  -14.2796 C   0  0  0  0  0  0  0  0  0  0  0  0
   22.1056  -20.8694  -13.4789 C   0  0  2  0  0  0  0  0  0  0  0  0
   23.3480  -21.3331  -12.8417 N   0  0  0  0  0  0  0  0  0  0  0  0
   21.1393  -20.3909  -12.4876 C   0  0  0  0  0  0  0  0  0  0  0  0
   21.2645  -20.7442  -11.2898 O   0  0  0  0  0  0  0  0  0  0  0  0
   20.0805  -19.5570  -12.8103 O   0  0  0  0  0  0  0  0  0  0  0  0
  2  1  1  0
  3  2  1  0
  4  3  1  0
  4  5  1  0
  5  1  1  0
  6 13  1  0
  5  6  1  1
  7  6  2  0
  9  8  1  0
 10  9  1  0
 12 11  1  1
 11 10  1  0
 12 14  1  0
 12 13  1  0
 14 18  1  0
 15 14  2  0
 17 19  1  0
 17 16  1  1
 18 17  1  0
 19 21  1  0
 20 19  2  0
M  END
$$$$
