PMA.pdb
     RDKit          3D

 21 21  0  0  1  0  0  0  0  0999 V2000
   27.1938  -18.6065  -15.3330 N   0  0  0  0  0  0  0  0  0  0  0  0
   28.3890  -18.0712  -15.9562 C   0  0  0  0  0  0  0  0  0  0  0  0
   29.4760  -19.0855  -15.8225 C   0  0  0  0  0  0  0  0  0  0  0  0
   28.8386  -20.1529  -14.9272 C   0  0  0  0  0  0  0  0  0  0  0  0
   27.3902  -20.0108  -15.3677 C   0  0  1  0  0  0  0  0  0  0  0  0
   26.4886  -20.7785  -14.4863 C   0  0  0  0  0  0  0  0  0  0  0  0
   26.5184  -22.0281  -14.5542 O   0  0  0  0  0  0  0  0  0  0  0  0
   26.3431  -19.8343   -8.7393 C   0  0  0  0  0  0  0  0  0  0  0  0
   25.0649  -21.1225   -8.6495 S   0  0  0  0  0  0  0  0  0  0  0  0
   24.2117  -21.1328  -10.2648 C   0  0  0  0  0  0  0  0  0  0  0  0
   25.0513  -20.4644  -11.3098 C   0  0  0  0  0  0  0  0  0  0  0  0
   24.6899  -20.9367  -12.7028 C   0  0  2  0  0  0  0  0  0  0  0  0
   25.5979  -20.1607  -13.5736 N   0  0  0  0  0  0  0  0  0  0  0  0
   23.2926  -20.6762  -13.0803 C   0  0  0  0  0  0  0  0  0  0  0  0
   22.8562  -19.4726  -13.1491 O   0  0  0  0  0  0  0  0  0  0  0  0
   20.2699  -22.4910  -14.4278 C   0  0  0  0  0  0  0  0  0  0  0  0
   20.9496  -21.3281  -13.7360 C   0  0  2  0  0  0  0  0  0  0  0  0
   22.3381  -21.6748  -13.3949 N   0  0  0  0  0  0  0  0  0  0  0  0
   20.1775  -20.9676  -12.5446 C   0  0  0  0  0  0  0  0  0  0  0  0
   20.4793  -21.4820  -11.4403 O   0  0  0  0  0  0  0  0  0  0  0  0
   19.1173  -20.0757  -12.5762 O   0  0  0  0  0  0  0  0  0  0  0  0
  2  1  1  0
  3  2  1  0
  4  3  1  0
  4  5  1  0
  5  1  1  0
  6 13  1  0
  5  6  1  1
  7  6  2  0
  9  8  1  0
 10  9  1  0
 12 11  1  1
 11 10  1  0
 12 14  1  0
 12 13  1  0
 14 18  1  0
 15 14  2  0
 17 19  1  0
 17 16  1  1
 18 17  1  0
 19 21  1  0
 20 19  2  0
M  END
$$$$
