PMA.pdb
     RDKit          3D

 21 21  0  0  1  0  0  0  0  0999 V2000
   35.5898  -29.7188  -19.7852 N   0  0  0  0  0  0  0  0  0  0  0  0
   36.2829  -30.5339  -20.7645 C   0  0  0  0  0  0  0  0  0  0  0  0
   35.4329  -31.7242  -21.0624 C   0  0  0  0  0  0  0  0  0  0  0  0
   34.2940  -31.5933  -20.0461 C   0  0  0  0  0  0  0  0  0  0  0  0
   34.2270  -30.0776  -19.9453 C   0  0  1  0  0  0  0  0  0  0  0  0
   33.3474  -29.6568  -18.8370 C   0  0  0  0  0  0  0  0  0  0  0  0
   33.8121  -29.6726  -17.6748 O   0  0  0  0  0  0  0  0  0  0  0  0
   31.7581  -25.0722  -15.0115 C   0  0  0  0  0  0  0  0  0  0  0  0
   30.7087  -26.2959  -15.8498 S   0  0  0  0  0  0  0  0  0  0  0  0
   31.3137  -26.4207  -17.5690 C   0  0  0  0  0  0  0  0  0  0  0  0
   30.5961  -27.5111  -18.3036 C   0  0  0  0  0  0  0  0  0  0  0  0
   31.1138  -28.8805  -17.9151 C   0  0  2  0  0  0  0  0  0  0  0  0
   32.0080  -29.2390  -19.0362 N   0  0  0  0  0  0  0  0  0  0  0  0
   30.0632  -29.8992  -17.7691 C   0  0  0  0  0  0  0  0  0  0  0  0
   29.3895  -30.2826  -18.7905 O   0  0  0  0  0  0  0  0  0  0  0  0
   28.5732  -32.1657  -15.1209 C   0  0  0  0  0  0  0  0  0  0  0  0
   28.6123  -31.5082  -16.4844 C   0  0  2  0  0  0  0  0  0  0  0  0
   29.7104  -30.5313  -16.5513 N   0  0  0  0  0  0  0  0  0  0  0  0
   27.3158  -30.8781  -16.7447 C   0  0  0  0  0  0  0  0  0  0  0  0
   27.1349  -29.6845  -16.4014 O   0  0  0  0  0  0  0  0  0  0  0  0
   26.2661  -31.5422  -17.3589 O   0  0  0  0  0  0  0  0  0  0  0  0
  2  1  1  0
  3  2  1  0
  4  3  1  0
  4  5  1  0
  5  1  1  0
  6 13  1  0
  5  6  1  1
  7  6  2  0
  9  8  1  0
 10  9  1  0
 12 11  1  6
 11 10  1  0
 12 14  1  0
 12 13  1  0
 14 18  1  0
 15 14  2  0
 17 19  1  0
 17 16  1  1
 18 17  1  0
 19 21  1  0
 20 19  2  0
M  END
$$$$
