PMA.pdb
     RDKit          3D

 21 21  0  0  1  0  0  0  0  0999 V2000
   21.1953  -10.0597  -17.1098 N   0  0  0  0  0  0  0  0  0  0  0  0
   21.2508  -11.3147  -17.8348 C   0  0  0  0  0  0  0  0  0  0  0  0
   19.9139  -11.9704  -17.7299 C   0  0  0  0  0  0  0  0  0  0  0  0
   19.1651  -11.0638  -16.7479 C   0  0  0  0  0  0  0  0  0  0  0  0
   19.8150   -9.7339  -17.0960 C   0  0  1  0  0  0  0  0  0  0  0  0
   19.4409   -8.6885  -16.1233 C   0  0  0  0  0  0  0  0  0  0  0  0
   18.2388   -8.3457  -16.0569 O   0  0  0  0  0  0  0  0  0  0  0  0
   20.5892   -5.8160   -9.0747 C   0  0  0  0  0  0  0  0  0  0  0  0
   21.0897   -7.0045  -10.3547 S   0  0  0  0  0  0  0  0  0  0  0  0
   20.2629   -6.4936  -11.9015 C   0  0  0  0  0  0  0  0  0  0  0  0
   20.5728   -7.4544  -13.0082 C   0  0  0  0  0  0  0  0  0  0  0  0
   20.0080   -6.9823  -14.3319 C   0  0  2  0  0  0  0  0  0  0  0  0
   20.3823   -8.0630  -15.2685 N   0  0  0  0  0  0  0  0  0  0  0  0
   20.5633   -5.7029  -14.7984 C   0  0  0  0  0  0  0  0  0  0  0  0
   21.7845   -5.6311  -15.1825 O   0  0  0  0  0  0  0  0  0  0  0  0
   19.9541   -2.7380  -16.5884 C   0  0  0  0  0  0  0  0  0  0  0  0
   20.4998   -3.2283  -15.2637 C   0  0  2  0  0  0  0  0  0  0  0  0
   19.8429   -4.4853  -14.8723 N   0  0  0  0  0  0  0  0  0  0  0  0
   20.3064   -2.1840  -14.2550 C   0  0  0  0  0  0  0  0  0  0  0  0
   19.2972   -2.2311  -13.5102 O   0  0  0  0  0  0  0  0  0  0  0  0
   21.1929   -1.1335  -14.0797 O   0  0  0  0  0  0  0  0  0  0  0  0
  2  1  1  0
  3  2  1  0
  4  3  1  0
  4  5  1  0
  5  1  1  0
  6 13  1  0
  5  6  1  1
  7  6  2  0
  9  8  1  0
 10  9  1  0
 12 11  1  1
 11 10  1  0
 12 14  1  0
 12 13  1  0
 14 18  1  0
 15 14  2  0
 17 19  1  0
 17 16  1  6
 18 17  1  0
 19 21  1  0
 20 19  2  0
M  END
$$$$
