PMA.pdb
     RDKit          3D

 21 21  0  0  1  0  0  0  0  0999 V2000
   28.3034  -19.5329  -16.5033 N   0  0  0  0  0  0  0  0  0  0  0  0
   28.8393  -18.3343  -17.1196 C   0  0  0  0  0  0  0  0  0  0  0  0
   28.1643  -17.1542  -16.5032 C   0  0  0  0  0  0  0  0  0  0  0  0
   27.0909  -17.7979  -15.6198 C   0  0  0  0  0  0  0  0  0  0  0  0
   27.8144  -19.0833  -15.2502 C   0  0  1  0  0  0  0  0  0  0  0  0
   26.9062  -20.0281  -14.5709 C   0  0  0  0  0  0  0  0  0  0  0  0
   26.3228  -20.8905  -15.2659 O   0  0  0  0  0  0  0  0  0  0  0  0
   26.1390  -19.6042   -8.2356 C   0  0  0  0  0  0  0  0  0  0  0  0
   25.3870  -21.2475   -8.4238 S   0  0  0  0  0  0  0  0  0  0  0  0
   24.9844  -21.4439  -10.1949 C   0  0  0  0  0  0  0  0  0  0  0  0
   25.9544  -20.6817  -11.0447 C   0  0  0  0  0  0  0  0  0  0  0  0
   25.6598  -20.8546  -12.5203 C   0  0  2  0  0  0  0  0  0  0  0  0
   26.6711  -19.9971  -13.1738 N   0  0  0  0  0  0  0  0  0  0  0  0
   24.3101  -20.4253  -12.9164 C   0  0  0  0  0  0  0  0  0  0  0  0
   23.9894  -19.1846  -12.8754 O   0  0  0  0  0  0  0  0  0  0  0  0
   21.4317  -21.4806  -14.9612 C   0  0  0  0  0  0  0  0  0  0  0  0
   21.9505  -20.7804  -13.7228 C   0  0  2  0  0  0  0  0  0  0  0  0
   23.2828  -21.2917  -13.3649 N   0  0  0  0  0  0  0  0  0  0  0  0
   20.9909  -20.9711  -12.6327 C   0  0  0  0  0  0  0  0  0  0  0  0
   19.8782  -20.3931  -12.6879 O   0  0  0  0  0  0  0  0  0  0  0  0
   21.2536  -21.7678  -11.5297 O   0  0  0  0  0  0  0  0  0  0  0  0
  2  1  1  0
  3  2  1  0
  4  3  1  0
  4  5  1  0
  5  1  1  0
  6 13  1  0
  5  6  1  6
  7  6  2  0
  9  8  1  0
 10  9  1  0
 12 11  1  1
 11 10  1  0
 12 14  1  0
 12 13  1  0
 14 18  1  0
 15 14  2  0
 17 19  1  0
 17 16  1  6
 18 17  1  0
 19 21  1  0
 20 19  2  0
M  END
$$$$
