PMA.pdb
     RDKit          3D

 21 21  0  0  1  0  0  0  0  0999 V2000
   28.4277  -19.8892  -16.3131 N   0  0  0  0  0  0  0  0  0  0  0  0
   28.8911  -18.7053  -17.0110 C   0  0  0  0  0  0  0  0  0  0  0  0
   28.2408  -17.5150  -16.3877 C   0  0  0  0  0  0  0  0  0  0  0  0
   27.2504  -18.1439  -15.4026 C   0  0  0  0  0  0  0  0  0  0  0  0
   28.0256  -19.4017  -15.0433 C   0  0  1  0  0  0  0  0  0  0  0  0
   27.1906  -20.3364  -14.2634 C   0  0  0  0  0  0  0  0  0  0  0  0
   26.7666  -21.3669  -14.8336 O   0  0  0  0  0  0  0  0  0  0  0  0
   26.3119  -19.3758   -8.0273 C   0  0  0  0  0  0  0  0  0  0  0  0
   25.5244  -21.0121   -8.0890 S   0  0  0  0  0  0  0  0  0  0  0  0
   25.1453  -21.3494   -9.8439 C   0  0  0  0  0  0  0  0  0  0  0  0
   26.0874  -20.6059  -10.7401 C   0  0  0  0  0  0  0  0  0  0  0  0
   25.8303  -20.9152  -12.2004 C   0  0  2  0  0  0  0  0  0  0  0  0
   26.8533  -20.1140  -12.9051 N   0  0  0  0  0  0  0  0  0  0  0  0
   24.4888  -20.5337  -12.6668 C   0  0  0  0  0  0  0  0  0  0  0  0
   24.1396  -19.3001  -12.6886 O   0  0  0  0  0  0  0  0  0  0  0  0
   21.7353  -21.8059  -14.7829 C   0  0  0  0  0  0  0  0  0  0  0  0
   22.1927  -20.9708  -13.6055 C   0  0  2  0  0  0  0  0  0  0  0  0
   23.4997  -21.4409  -13.1204 N   0  0  0  0  0  0  0  0  0  0  0  0
   21.1746  -21.0347  -12.5543 C   0  0  0  0  0  0  0  0  0  0  0  0
   20.0239  -20.5916  -12.7883 O   0  0  0  0  0  0  0  0  0  0  0  0
   21.4216  -21.5665  -11.2987 O   0  0  0  0  0  0  0  0  0  0  0  0
  2  1  1  0
  3  2  1  0
  4  3  1  0
  4  5  1  0
  5  1  1  0
  6 13  1  0
  5  6  1  6
  7  6  2  0
  9  8  1  0
 10  9  1  0
 12 11  1  1
 11 10  1  0
 12 14  1  0
 12 13  1  0
 14 18  1  0
 15 14  2  0
 17 19  1  0
 17 16  1  6
 18 17  1  0
 19 21  1  0
 20 19  2  0
M  END
$$$$
