WCA.pdb
     RDKit          3D

 26 27  0  0  1  0  0  0  0  0999 V2000
   15.7056  -26.6442    4.0950 N   0  0  0  0  0  0  0  0  0  0  0  0
   16.7818  -25.8378    4.5436 C   0  0  1  0  0  0  0  0  0  0  0  0
   17.0267  -24.6606    3.6555 C   0  0  0  0  0  0  0  0  0  0  0  0
   17.6345  -25.1097    2.3937 C   0  0  0  0  0  0  0  0  0  0  0  0
   16.9697  -25.5468    1.2410 C   0  0  0  0  0  0  0  0  0  0  0  0
   17.8742  -25.8346    0.2928 N   0  0  0  0  0  0  0  0  0  0  0  0
   19.1113  -25.6088    0.7640 C   0  0  0  0  0  0  0  0  0  0  0  0
   20.3685  -25.7434    0.2310 C   0  0  0  0  0  0  0  0  0  0  0  0
   21.4985  -25.4410    0.9675 C   0  0  0  0  0  0  0  0  0  0  0  0
   21.3626  -24.9993    2.2527 C   0  0  0  0  0  0  0  0  0  0  0  0
   20.1036  -24.8608    2.7958 C   0  0  0  0  0  0  0  0  0  0  0  0
   18.9727  -25.1537    2.0831 C   0  0  0  0  0  0  0  0  0  0  0  0
   16.7243  -25.4533    5.9797 C   0  0  0  0  0  0  0  0  0  0  0  0
   15.6102  -25.0003    6.3801 O   0  0  0  0  0  0  0  0  0  0  0  0
   17.7727  -25.5504    6.8948 N   0  0  0  0  0  0  0  0  0  0  0  0
   17.5126  -25.2913    8.3075 C   0  0  1  0  0  0  0  0  0  0  0  0
   18.2981  -26.3695    9.0413 C   0  0  0  0  0  0  0  0  0  0  0  0
   17.7758  -28.0288    8.5911 S   0  0  0  0  0  0  0  0  0  0  0  0
   18.0502  -23.9523    8.6869 C   0  0  0  0  0  0  0  0  0  0  0  0
   19.0054  -23.4338    8.0174 O   0  0  0  0  0  0  0  0  0  0  0  0
   17.0566  -21.1430   11.0345 C   0  0  0  0  0  0  0  0  0  0  0  0
   18.0326  -21.9635   10.2698 C   0  0  2  0  0  0  0  0  0  0  0  0
   17.5308  -23.2192    9.7799 N   0  0  0  0  0  0  0  0  0  0  0  0
   19.3505  -22.1369   10.9812 C   0  0  0  0  0  0  0  0  0  0  0  0
   20.2573  -21.1109   11.0869 O   0  0  0  0  0  0  0  0  0  0  0  0
   19.5986  -23.2501   11.4773 O   0  0  0  0  0  0  0  0  0  0  0  0
  2  1  1  6
  2 13  1  0
  3  2  1  0
  3  4  1  0
  4  5  2  0
  4 12  1  0
  5  6  1  0
  6  7  1  0
  7  8  2  0
  8  9  1  0
 10  9  2  0
 11 10  1  0
 12 11  2  0
 12  7  1  0
 13 14  2  0
 15 16  1  0
 15 13  1  0
 16 19  1  0
 16 17  1  1
 18 17  1  0
 19 23  1  0
 20 19  2  0
 22 21  1  1
 23 22  1  0
 24 25  1  0
 24 22  1  0
 26 24  2  0
M  END
$$$$
