WCA.pdb
     RDKit          3D

 26 27  0  0  1  0  0  0  0  0999 V2000
   27.1983  -21.3976  -14.7152 N   0  0  0  0  0  0  0  0  0  0  0  0
   25.9067  -21.4938  -14.1386 C   0  0  1  0  0  0  0  0  0  0  0  0
   25.3646  -20.1656  -13.7189 C   0  0  0  0  0  0  0  0  0  0  0  0
   26.2463  -19.5685  -12.7043 C   0  0  0  0  0  0  0  0  0  0  0  0
   27.2288  -18.5906  -12.9048 C   0  0  0  0  0  0  0  0  0  0  0  0
   27.7910  -18.2824  -11.7263 N   0  0  0  0  0  0  0  0  0  0  0  0
   27.2265  -19.0126  -10.7508 C   0  0  0  0  0  0  0  0  0  0  0  0
   27.4245  -19.0998   -9.3958 C   0  0  0  0  0  0  0  0  0  0  0  0
   26.6877  -19.9712   -8.6156 C   0  0  0  0  0  0  0  0  0  0  0  0
   25.7429  -20.7626   -9.2041 C   0  0  0  0  0  0  0  0  0  0  0  0
   25.5372  -20.6811  -10.5644 C   0  0  0  0  0  0  0  0  0  0  0  0
   26.2551  -19.8244  -11.3539 C   0  0  0  0  0  0  0  0  0  0  0  0
   24.9201  -22.2762  -14.9312 C   0  0  0  0  0  0  0  0  0  0  0  0
   25.2479  -22.5116  -16.1328 O   0  0  0  0  0  0  0  0  0  0  0  0
   23.6961  -22.7579  -14.4669 N   0  0  0  0  0  0  0  0  0  0  0  0
   22.8746  -23.5836  -15.3466 C   0  0  1  0  0  0  0  0  0  0  0  0
   23.6025  -24.9197  -15.4008 C   0  0  0  0  0  0  0  0  0  0  0  0
   24.5950  -25.2232  -13.9340 S   0  0  0  0  0  0  0  0  0  0  0  0
   21.5261  -23.7867  -14.7415 C   0  0  0  0  0  0  0  0  0  0  0  0
   21.4199  -24.1204  -13.5140 O   0  0  0  0  0  0  0  0  0  0  0  0
   18.9075  -23.4289  -13.4816 C   0  0  0  0  0  0  0  0  0  0  0  0
   19.0430  -23.2867  -14.9553 C   0  0  2  0  0  0  0  0  0  0  0  0
   20.3368  -23.6181  -15.4892 N   0  0  0  0  0  0  0  0  0  0  0  0
   18.5586  -21.9556  -15.4717 C   0  0  0  0  0  0  0  0  0  0  0  0
   17.2606  -21.7650  -15.8780 O   0  0  0  0  0  0  0  0  0  0  0  0
   19.3775  -21.0208  -15.5208 O   0  0  0  0  0  0  0  0  0  0  0  0
  2  1  1  6
  2 13  1  0
  3  2  1  0
  3  4  1  0
  4  5  2  0
  4 12  1  0
  5  6  1  0
  6  7  1  0
  7  8  2  0
  8  9  1  0
 10  9  2  0
 11 10  1  0
 12 11  2  0
 12  7  1  0
 13 14  2  0
 15 16  1  0
 15 13  1  0
 16 19  1  0
 16 17  1  1
 18 17  1  0
 19 23  1  0
 20 19  2  0
 22 21  1  1
 23 22  1  0
 24 25  1  0
 24 22  1  0
 26 24  2  0
M  END
$$$$
