WCA.pdb
     RDKit          3D

 26 27  0  0  1  0  0  0  0  0999 V2000
   28.2430  -20.7019  -16.3679 N   0  0  0  0  0  0  0  0  0  0  0  0
   28.1912  -20.8838  -14.9628 C   0  0  1  0  0  0  0  0  0  0  0  0
   29.3547  -20.2624  -14.2597 C   0  0  0  0  0  0  0  0  0  0  0  0
   30.2575  -21.3150  -13.7697 C   0  0  0  0  0  0  0  0  0  0  0  0
   30.8836  -22.3142  -14.5256 C   0  0  0  0  0  0  0  0  0  0  0  0
   31.6562  -23.0580  -13.7194 N   0  0  0  0  0  0  0  0  0  0  0  0
   31.5711  -22.5981  -12.4605 C   0  0  0  0  0  0  0  0  0  0  0  0
   32.1331  -22.9842  -11.2697 C   0  0  0  0  0  0  0  0  0  0  0  0
   31.8519  -22.3177  -10.0918 C   0  0  0  0  0  0  0  0  0  0  0  0
   30.9970  -21.2528  -10.1119 C   0  0  0  0  0  0  0  0  0  0  0  0
   30.4284  -20.8580  -11.3036 C   0  0  0  0  0  0  0  0  0  0  0  0
   30.6947  -21.5036  -12.4804 C   0  0  0  0  0  0  0  0  0  0  0  0
   26.8950  -20.5214  -14.3285 C   0  0  0  0  0  0  0  0  0  0  0  0
   26.5782  -19.2959  -14.3941 O   0  0  0  0  0  0  0  0  0  0  0  0
   26.0251  -21.4019  -13.6852 N   0  0  0  0  0  0  0  0  0  0  0  0
   25.0184  -20.8700  -12.7719 C   0  0  1  0  0  0  0  0  0  0  0  0
   23.7165  -21.5157  -13.2253 C   0  0  0  0  0  0  0  0  0  0  0  0
   22.3874  -21.2944  -12.0365 S   0  0  0  0  0  0  0  0  0  0  0  0
   25.3178  -21.3032  -11.3759 C   0  0  0  0  0  0  0  0  0  0  0  0
   25.4432  -22.5442  -11.1048 O   0  0  0  0  0  0  0  0  0  0  0  0
   26.3132  -19.7603   -8.0783 C   0  0  0  0  0  0  0  0  0  0  0  0
   25.5080  -20.6867   -8.9173 C   0  0  2  0  0  0  0  0  0  0  0  0
   25.4737  -20.3737  -10.3207 N   0  0  0  0  0  0  0  0  0  0  0  0
   24.1233  -20.9307   -8.3734 C   0  0  0  0  0  0  0  0  0  0  0  0
   23.8954  -21.8006   -7.3353 O   0  0  0  0  0  0  0  0  0  0  0  0
   23.1785  -20.3143   -8.8972 O   0  0  0  0  0  0  0  0  0  0  0  0
  2  1  1  6
  2 13  1  0
  3  2  1  0
  3  4  1  0
  4  5  2  0
  4 12  1  0
  5  6  1  0
  6  7  1  0
  7  8  2  0
  8  9  1  0
 10  9  2  0
 11 10  1  0
 12 11  2  0
 12  7  1  0
 13 14  2  0
 15 16  1  0
 15 13  1  0
 16 19  1  0
 16 17  1  6
 18 17  1  0
 19 23  1  0
 20 19  2  0
 22 21  1  1
 23 22  1  0
 24 25  1  0
 24 22  1  0
 26 24  2  0
M  END
$$$$
