WCA.pdb
     RDKit          3D

 26 27  0  0  1  0  0  0  0  0999 V2000
   26.6116  -19.7515  -11.8280 N   0  0  0  0  0  0  0  0  0  0  0  0
   26.0824  -21.0661  -11.8680 C   0  0  1  0  0  0  0  0  0  0  0  0
   25.5843  -21.5257  -10.5357 C   0  0  0  0  0  0  0  0  0  0  0  0
   26.3850  -20.9086   -9.4675 C   0  0  0  0  0  0  0  0  0  0  0  0
   25.9234  -20.0976   -8.4230 C   0  0  0  0  0  0  0  0  0  0  0  0
   26.9566  -19.7627   -7.6353 N   0  0  0  0  0  0  0  0  0  0  0  0
   28.0851  -20.3145   -8.1100 C   0  0  0  0  0  0  0  0  0  0  0  0
   29.3963  -20.2882   -7.7065 C   0  0  0  0  0  0  0  0  0  0  0  0
   30.3796  -20.9566   -8.4116 C   0  0  0  0  0  0  0  0  0  0  0  0
   30.0408  -21.6580   -9.5335 C   0  0  0  0  0  0  0  0  0  0  0  0
   28.7261  -21.6900   -9.9456 C   0  0  0  0  0  0  0  0  0  0  0  0
   27.7379  -21.0362   -9.2611 C   0  0  0  0  0  0  0  0  0  0  0  0
   25.0932  -21.3138  -12.9515 C   0  0  0  0  0  0  0  0  0  0  0  0
   24.6265  -20.2776  -13.5129 O   0  0  0  0  0  0  0  0  0  0  0  0
   24.6521  -22.5639  -13.3858 N   0  0  0  0  0  0  0  0  0  0  0  0
   23.7624  -22.6447  -14.5400 C   0  0  1  0  0  0  0  0  0  0  0  0
   24.1968  -23.9108  -15.2653 C   0  0  0  0  0  0  0  0  0  0  0  0
   25.9716  -24.1788  -15.1800 S   0  0  0  0  0  0  0  0  0  0  0  0
   22.3505  -22.8034  -14.0844 C   0  0  0  0  0  0  0  0  0  0  0  0
   22.0936  -23.4427  -13.0098 O   0  0  0  0  0  0  0  0  0  0  0  0
   18.9561  -21.4756  -15.2186 C   0  0  0  0  0  0  0  0  0  0  0  0
   19.8752  -22.3543  -14.4481 C   0  0  2  0  0  0  0  0  0  0  0  0
   21.2640  -22.2601  -14.8098 N   0  0  0  0  0  0  0  0  0  0  0  0
   19.4172  -23.7896  -14.3904 C   0  0  0  0  0  0  0  0  0  0  0  0
   18.4481  -24.2060  -13.5109 O   0  0  0  0  0  0  0  0  0  0  0  0
   19.9480  -24.5986  -15.1719 O   0  0  0  0  0  0  0  0  0  0  0  0
  2  1  1  1
  2 13  1  0
  3  2  1  0
  3  4  1  0
  4  5  2  0
  4 12  1  0
  5  6  1  0
  6  7  1  0
  7  8  2  0
  8  9  1  0
 10  9  2  0
 11 10  1  0
 12 11  2  0
 12  7  1  0
 13 14  2  0
 15 16  1  0
 15 13  1  0
 16 19  1  0
 16 17  1  6
 18 17  1  0
 19 23  1  0
 20 19  2  0
 22 21  1  6
 23 22  1  0
 24 25  1  0
 24 22  1  0
 26 24  2  0
M  END
$$$$
