WCA.pdb
     RDKit          3D

 26 27  0  0  1  0  0  0  0  0999 V2000
   24.2519  -11.0041  -15.8875 N   0  0  0  0  0  0  0  0  0  0  0  0
   23.3181  -10.3090  -16.6968 C   0  0  1  0  0  0  0  0  0  0  0  0
   21.9896  -10.9915  -16.7564 C   0  0  0  0  0  0  0  0  0  0  0  0
   22.1284  -12.2877  -17.4374 C   0  0  0  0  0  0  0  0  0  0  0  0
   22.2078  -13.5533  -16.8427 C   0  0  0  0  0  0  0  0  0  0  0  0
   22.2911  -14.4870  -17.8026 N   0  0  0  0  0  0  0  0  0  0  0  0
   22.2712  -13.8983  -19.0095 C   0  0  0  0  0  0  0  0  0  0  0  0
   22.3367  -14.3703  -20.2962 C   0  0  0  0  0  0  0  0  0  0  0  0
   22.3060  -13.5125  -21.3798 C   0  0  0  0  0  0  0  0  0  0  0  0
   22.2087  -12.1670  -21.1669 C   0  0  0  0  0  0  0  0  0  0  0  0
   22.1420  -11.6843  -19.8778 C   0  0  0  0  0  0  0  0  0  0  0  0
   22.1697  -12.5167  -18.7920 C   0  0  0  0  0  0  0  0  0  0  0  0
   23.1886   -8.8563  -16.4024 C   0  0  0  0  0  0  0  0  0  0  0  0
   23.1330   -8.5505  -15.1736 O   0  0  0  0  0  0  0  0  0  0  0  0
   23.1259   -7.8328  -17.3482 N   0  0  0  0  0  0  0  0  0  0  0  0
   22.9263   -6.4584  -16.8994 C   0  0  1  0  0  0  0  0  0  0  0  0
   23.8918   -5.6397  -17.7453 C   0  0  0  0  0  0  0  0  0  0  0  0
   25.6072   -5.8983  -17.2771 S   0  0  0  0  0  0  0  0  0  0  0  0
   21.5298   -6.0240  -17.1946 C   0  0  0  0  0  0  0  0  0  0  0  0
   20.9144   -6.4961  -18.2084 O   0  0  0  0  0  0  0  0  0  0  0  0
   18.4895   -5.7857  -16.6472 C   0  0  0  0  0  0  0  0  0  0  0  0
   19.4771   -4.6807  -16.5290 C   0  0  2  0  0  0  0  0  0  0  0  0
   20.8467   -5.0929  -16.3772 N   0  0  0  0  0  0  0  0  0  0  0  0
   19.0951   -3.6488  -15.4984 C   0  0  0  0  0  0  0  0  0  0  0  0
   19.8700   -3.4105  -14.3899 O   0  0  0  0  0  0  0  0  0  0  0  0
   18.0440   -3.0095  -15.6811 O   0  0  0  0  0  0  0  0  0  0  0  0
  2  1  1  1
  2 13  1  0
  3  2  1  0
  3  4  1  0
  4  5  2  0
  4 12  1  0
  5  6  1  0
  6  7  1  0
  7  8  2  0
  8  9  1  0
 10  9  2  0
 11 10  1  0
 12 11  2  0
 12  7  1  0
 13 14  2  0
 15 16  1  0
 15 13  1  0
 16 19  1  0
 16 17  1  6
 18 17  1  0
 19 23  1  0
 20 19  2  0
 22 21  1  1
 23 22  1  0
 24 25  1  0
 24 22  1  0
 26 24  2  0
M  END
$$$$
