WCA.pdb
     RDKit          3D

 26 27  0  0  1  0  0  0  0  0999 V2000
   25.3379  -21.5618   -9.5593 N   0  0  0  0  0  0  0  0  0  0  0  0
   26.3012  -20.5574   -9.8297 C   0  0  1  0  0  0  0  0  0  0  0  0
   27.4419  -20.5804   -8.8640 C   0  0  0  0  0  0  0  0  0  0  0  0
   26.9346  -20.4124   -7.4937 C   0  0  0  0  0  0  0  0  0  0  0  0
   25.6495  -20.7107   -7.0231 C   0  0  0  0  0  0  0  0  0  0  0  0
   25.5908  -20.4525   -5.7079 N   0  0  0  0  0  0  0  0  0  0  0  0
   26.7797  -19.9951   -5.2829 C   0  0  0  0  0  0  0  0  0  0  0  0
   27.2565  -19.5818   -4.0644 C   0  0  0  0  0  0  0  0  0  0  0  0
   28.5564  -19.1365   -3.9138 C   0  0  0  0  0  0  0  0  0  0  0  0
   29.3846  -19.1064   -4.9994 C   0  0  0  0  0  0  0  0  0  0  0  0
   28.9141  -19.5201   -6.2268 C   0  0  0  0  0  0  0  0  0  0  0  0
   27.6313  -19.9652   -6.3966 C   0  0  0  0  0  0  0  0  0  0  0  0
   26.7646  -20.4935  -11.2422 C   0  0  0  0  0  0  0  0  0  0  0  0
   27.7916  -21.1855  -11.5122 O   0  0  0  0  0  0  0  0  0  0  0  0
   26.1722  -19.7518  -12.2643 N   0  0  0  0  0  0  0  0  0  0  0  0
   26.7581  -19.7843  -13.6008 C   0  0  1  0  0  0  0  0  0  0  0  0
   26.5039  -21.2029  -14.0914 C   0  0  0  0  0  0  0  0  0  0  0  0
   26.9684  -21.4301  -15.8123 S   0  0  0  0  0  0  0  0  0  0  0  0
   26.0449  -18.8243  -14.4929 C   0  0  0  0  0  0  0  0  0  0  0  0
   24.7689  -18.8045  -14.5205 O   0  0  0  0  0  0  0  0  0  0  0  0
   27.0951  -15.9038  -16.7159 C   0  0  0  0  0  0  0  0  0  0  0  0
   26.1465  -16.8980  -16.1482 C   0  0  2  0  0  0  0  0  0  0  0  0
   26.7415  -17.9154  -15.3238 N   0  0  0  0  0  0  0  0  0  0  0  0
   25.2227  -17.4951  -17.1793 C   0  0  0  0  0  0  0  0  0  0  0  0
   24.0809  -16.8511  -17.5886 O   0  0  0  0  0  0  0  0  0  0  0  0
   25.5264  -18.6027  -17.6566 O   0  0  0  0  0  0  0  0  0  0  0  0
  2  1  1  6
  2 13  1  0
  3  2  1  0
  3  4  1  0
  4  5  2  0
  4 12  1  0
  5  6  1  0
  6  7  1  0
  7  8  2  0
  8  9  1  0
 10  9  2  0
 11 10  1  0
 12 11  2  0
 12  7  1  0
 13 14  2  0
 15 16  1  0
 15 13  1  0
 16 19  1  0
 16 17  1  6
 18 17  1  0
 19 23  1  0
 20 19  2  0
 22 21  1  6
 23 22  1  0
 24 25  1  0
 24 22  1  0
 26 24  2  0
M  END
$$$$
