WCA.pdb
     RDKit          3D

 26 27  0  0  1  0  0  0  0  0999 V2000
   25.2220  -20.9492  -13.9387 N   0  0  0  0  0  0  0  0  0  0  0  0
   24.1874  -20.7021  -13.0015 C   0  0  1  0  0  0  0  0  0  0  0  0
   22.8888  -21.3249  -13.4018 C   0  0  0  0  0  0  0  0  0  0  0  0
   22.4635  -20.7903  -14.7044 C   0  0  0  0  0  0  0  0  0  0  0  0
   22.4375  -21.4669  -15.9305 C   0  0  0  0  0  0  0  0  0  0  0  0
   21.9520  -20.6477  -16.8757 N   0  0  0  0  0  0  0  0  0  0  0  0
   21.6546  -19.4561  -16.3326 C   0  0  0  0  0  0  0  0  0  0  0  0
   21.1504  -18.2835  -16.8363 C   0  0  0  0  0  0  0  0  0  0  0  0
   20.9513  -17.1799  -16.0280 C   0  0  0  0  0  0  0  0  0  0  0  0
   21.2626  -17.2565  -14.7004 C   0  0  0  0  0  0  0  0  0  0  0  0
   21.7691  -18.4305  -14.1861 C   0  0  0  0  0  0  0  0  0  0  0  0
   21.9725  -19.5342  -14.9691 C   0  0  0  0  0  0  0  0  0  0  0  0
   24.5368  -20.9969  -11.5856 C   0  0  0  0  0  0  0  0  0  0  0  0
   24.9006  -22.1879  -11.3491 O   0  0  0  0  0  0  0  0  0  0  0  0
   24.4967  -20.0889  -10.5274 N   0  0  0  0  0  0  0  0  0  0  0  0
   24.6565  -20.5781   -9.1615 C   0  0  1  0  0  0  0  0  0  0  0  0
   24.8979  -19.3224   -8.3352 C   0  0  0  0  0  0  0  0  0  0  0  0
   26.4833  -18.5564   -8.6936 S   0  0  0  0  0  0  0  0  0  0  0  0
   23.3948  -21.2291   -8.7029 C   0  0  0  0  0  0  0  0  0  0  0  0
   22.2671  -20.8070   -9.1267 O   0  0  0  0  0  0  0  0  0  0  0  0
   22.5144  -24.1245   -6.3635 C   0  0  0  0  0  0  0  0  0  0  0  0
   22.2394  -22.9449   -7.2257 C   0  0  2  0  0  0  0  0  0  0  0  0
   23.3996  -22.3191   -7.8009 N   0  0  0  0  0  0  0  0  0  0  0  0
   21.3322  -21.9312   -6.5756 C   0  0  0  0  0  0  0  0  0  0  0  0
   20.0006  -22.1859   -6.3565 O   0  0  0  0  0  0  0  0  0  0  0  0
   21.8289  -20.8422   -6.2379 O   0  0  0  0  0  0  0  0  0  0  0  0
  2  1  1  6
  2 13  1  0
  3  2  1  0
  3  4  1  0
  4  5  2  0
  4 12  1  0
  5  6  1  0
  6  7  1  0
  7  8  2  0
  8  9  1  0
 10  9  2  0
 11 10  1  0
 12 11  2  0
 12  7  1  0
 13 14  2  0
 15 16  1  0
 15 13  1  0
 16 19  1  0
 16 17  1  1
 18 17  1  0
 19 23  1  0
 20 19  2  0
 22 21  1  1
 23 22  1  0
 24 25  1  0
 24 22  1  0
 26 24  2  0
M  END
$$$$
