WCA.pdb
     RDKit          3D

 26 27  0  0  1  0  0  0  0  0999 V2000
   23.0801  -20.3909  -12.1539 N   0  0  0  0  0  0  0  0  0  0  0  0
   24.2580  -20.3915  -12.9428 C   0  0  1  0  0  0  0  0  0  0  0  0
   25.1397  -21.5645  -12.6577 C   0  0  0  0  0  0  0  0  0  0  0  0
   25.9981  -21.2696  -11.5004 C   0  0  0  0  0  0  0  0  0  0  0  0
   25.6023  -21.1378  -10.1632 C   0  0  0  0  0  0  0  0  0  0  0  0
   26.6838  -20.9046   -9.4044 N   0  0  0  0  0  0  0  0  0  0  0  0
   27.7814  -20.8747  -10.1776 C   0  0  0  0  0  0  0  0  0  0  0  0
   29.1144  -20.6696   -9.9248 C   0  0  0  0  0  0  0  0  0  0  0  0
   30.0498  -20.6816  -10.9424 C   0  0  0  0  0  0  0  0  0  0  0  0
   29.6405  -20.9019  -12.2266 C   0  0  0  0  0  0  0  0  0  0  0  0
   28.3037  -21.1092  -12.4894 C   0  0  0  0  0  0  0  0  0  0  0  0
   27.3623  -21.1023  -11.4963 C   0  0  0  0  0  0  0  0  0  0  0  0
   24.0388  -20.1973  -14.4015 C   0  0  0  0  0  0  0  0  0  0  0  0
   23.2919  -21.0550  -14.9610 O   0  0  0  0  0  0  0  0  0  0  0  0
   24.5767  -19.1721  -15.1797 N   0  0  0  0  0  0  0  0  0  0  0  0
   24.2295  -19.0942  -16.5953 C   0  0  1  0  0  0  0  0  0  0  0  0
   22.7460  -18.7524  -16.6034 C   0  0  0  0  0  0  0  0  0  0  0  0
   22.3398  -17.4212  -15.4668 S   0  0  0  0  0  0  0  0  0  0  0  0
   24.9890  -17.9868  -17.2456 C   0  0  0  0  0  0  0  0  0  0  0  0
   25.2177  -16.9064  -16.6053 O   0  0  0  0  0  0  0  0  0  0  0  0
   26.9377  -17.5882  -20.4994 C   0  0  0  0  0  0  0  0  0  0  0  0
   26.2839  -17.1138  -19.2512 C   0  0  2  0  0  0  0  0  0  0  0  0
   25.4775  -18.0903  -18.5694 N   0  0  0  0  0  0  0  0  0  0  0  0
   25.5431  -15.8123  -19.4251 C   0  0  0  0  0  0  0  0  0  0  0  0
   26.1940  -14.6030  -19.4280 O   0  0  0  0  0  0  0  0  0  0  0  0
   24.3087  -15.8633  -19.5681 O   0  0  0  0  0  0  0  0  0  0  0  0
  2  1  1  1
  2 13  1  0
  3  2  1  0
  3  4  1  0
  4  5  2  0
  4 12  1  0
  5  6  1  0
  6  7  1  0
  7  8  2  0
  8  9  1  0
 10  9  2  0
 11 10  1  0
 12 11  2  0
 12  7  1  0
 13 14  2  0
 15 16  1  0
 15 13  1  0
 16 19  1  0
 16 17  1  1
 18 17  1  0
 19 23  1  0
 20 19  2  0
 22 21  1  6
 23 22  1  0
 24 25  1  0
 24 22  1  0
 26 24  2  0
M  END
$$$$
