WCA.pdb
     RDKit          3D

 26 27  0  0  1  0  0  0  0  0999 V2000
   28.3196  -21.6942  -11.1006 N   0  0  0  0  0  0  0  0  0  0  0  0
   27.1014  -21.2140  -10.5571 C   0  0  1  0  0  0  0  0  0  0  0  0
   27.2913  -20.0005   -9.7052 C   0  0  0  0  0  0  0  0  0  0  0  0
   28.2436  -20.2977   -8.6245 C   0  0  0  0  0  0  0  0  0  0  0  0
   29.5074  -20.8891   -8.7473 C   0  0  0  0  0  0  0  0  0  0  0  0
   30.0820  -20.9564   -7.5368 N   0  0  0  0  0  0  0  0  0  0  0  0
   29.2561  -20.4366   -6.6142 C   0  0  0  0  0  0  0  0  0  0  0  0
   29.3385  -20.2679   -5.2549 C   0  0  0  0  0  0  0  0  0  0  0  0
   28.3041  -19.6979   -4.5367 C   0  0  0  0  0  0  0  0  0  0  0  0
   27.1759  -19.2940   -5.1919 C   0  0  0  0  0  0  0  0  0  0  0  0
   27.0850  -19.4594   -6.5570 C   0  0  0  0  0  0  0  0  0  0  0  0
   28.0980  -20.0202   -7.2863 C   0  0  0  0  0  0  0  0  0  0  0  0
   25.9983  -21.0407  -11.5405 C   0  0  0  0  0  0  0  0  0  0  0  0
   26.3304  -20.5227  -12.6487 O   0  0  0  0  0  0  0  0  0  0  0  0
   24.6637  -21.3950  -11.3429 N   0  0  0  0  0  0  0  0  0  0  0  0
   23.7097  -21.2172  -12.4332 C   0  0  1  0  0  0  0  0  0  0  0  0
   23.2710  -22.6314  -12.7872 C   0  0  0  0  0  0  0  0  0  0  0  0
   21.8324  -22.6571  -13.8636 S   0  0  0  0  0  0  0  0  0  0  0  0
   22.5266  -20.4449  -11.9537 C   0  0  0  0  0  0  0  0  0  0  0  0
   21.9824  -20.7371  -10.8366 O   0  0  0  0  0  0  0  0  0  0  0  0
   20.4131  -17.5696  -13.3328 C   0  0  0  0  0  0  0  0  0  0  0  0
   20.7610  -18.6706  -12.3961 C   0  0  2  0  0  0  0  0  0  0  0  0
   21.9749  -19.3786  -12.7024 N   0  0  0  0  0  0  0  0  0  0  0  0
   19.6180  -19.6207  -12.1438 C   0  0  0  0  0  0  0  0  0  0  0  0
   18.7159  -19.4156  -11.1288 O   0  0  0  0  0  0  0  0  0  0  0  0
   19.5117  -20.6099  -12.8902 O   0  0  0  0  0  0  0  0  0  0  0  0
  2  1  1  6
  2 13  1  0
  3  2  1  0
  3  4  1  0
  4  5  2  0
  4 12  1  0
  5  6  1  0
  6  7  1  0
  7  8  2  0
  8  9  1  0
 10  9  2  0
 11 10  1  0
 12 11  2  0
 12  7  1  0
 13 14  2  0
 15 16  1  0
 15 13  1  0
 16 19  1  0
 16 17  1  1
 18 17  1  0
 19 23  1  0
 20 19  2  0
 22 21  1  6
 23 22  1  0
 24 25  1  0
 24 22  1  0
 26 24  2  0
M  END
$$$$
