WCA.pdb
     RDKit          3D

 26 27  0  0  1  0  0  0  0  0999 V2000
   26.1306  -12.5953  -17.1821 N   0  0  0  0  0  0  0  0  0  0  0  0
   24.9132  -12.3826  -16.4874 C   0  0  1  0  0  0  0  0  0  0  0  0
   24.9822  -12.8208  -15.0600 C   0  0  0  0  0  0  0  0  0  0  0  0
   24.9561  -14.2898  -14.9908 C   0  0  0  0  0  0  0  0  0  0  0  0
   26.0478  -15.1496  -14.8158 C   0  0  0  0  0  0  0  0  0  0  0  0
   25.6082  -16.4163  -14.7689 N   0  0  0  0  0  0  0  0  0  0  0  0
   24.2724  -16.4371  -14.9057 C   0  0  0  0  0  0  0  0  0  0  0  0
   23.3379  -17.4413  -14.9384 C   0  0  0  0  0  0  0  0  0  0  0  0
   21.9935  -17.1679  -15.1080 C   0  0  0  0  0  0  0  0  0  0  0  0
   21.5854  -15.8719  -15.2463 C   0  0  0  0  0  0  0  0  0  0  0  0
   22.5172  -14.8572  -15.2144 C   0  0  0  0  0  0  0  0  0  0  0  0
   23.8522  -15.1067  -15.0464 C   0  0  0  0  0  0  0  0  0  0  0  0
   24.3392  -11.0170  -16.6267 C   0  0  0  0  0  0  0  0  0  0  0  0
   25.1671  -10.0629  -16.5224 O   0  0  0  0  0  0  0  0  0  0  0  0
   22.9973  -10.7138  -16.8575 N   0  0  0  0  0  0  0  0  0  0  0  0
   22.5947   -9.3173  -16.9923 C   0  0  1  0  0  0  0  0  0  0  0  0
   21.8826   -9.2564  -18.3366 C   0  0  0  0  0  0  0  0  0  0  0  0
   22.9885   -9.5741  -19.7168 S   0  0  0  0  0  0  0  0  0  0  0  0
   21.6298   -8.9589  -15.9123 C   0  0  0  0  0  0  0  0  0  0  0  0
   21.2031   -9.8575  -15.1123 O   0  0  0  0  0  0  0  0  0  0  0  0
   20.7895   -7.4665  -13.2973 C   0  0  0  0  0  0  0  0  0  0  0  0
   20.3067   -7.1768  -14.6734 C   0  0  2  0  0  0  0  0  0  0  0  0
   21.1620   -7.6355  -15.7349 N   0  0  0  0  0  0  0  0  0  0  0  0
   19.9054   -5.7373  -14.8725 C   0  0  0  0  0  0  0  0  0  0  0  0
   18.9075   -5.1541  -14.1307 O   0  0  0  0  0  0  0  0  0  0  0  0
   20.5108   -5.0820  -15.7391 O   0  0  0  0  0  0  0  0  0  0  0  0
  2  1  1  1
  2 13  1  0
  3  2  1  0
  3  4  1  0
  4  5  2  0
  4 12  1  0
  5  6  1  0
  6  7  1  0
  7  8  2  0
  8  9  1  0
 10  9  2  0
 11 10  1  0
 12 11  2  0
 12  7  1  0
 13 14  2  0
 15 16  1  0
 15 13  1  0
 16 19  1  0
 16 17  1  6
 18 17  1  0
 19 23  1  0
 20 19  2  0
 22 21  1  1
 23 22  1  0
 24 25  1  0
 24 22  1  0
 26 24  2  0
M  END
$$$$
