WCA.pdb
     RDKit          3D

 26 27  0  0  1  0  0  0  0  0999 V2000
   28.5913  -20.6491  -15.0247 N   0  0  0  0  0  0  0  0  0  0  0  0
   27.3716  -20.0490  -14.6218 C   0  0  1  0  0  0  0  0  0  0  0  0
   26.5667  -19.5510  -15.7788 C   0  0  0  0  0  0  0  0  0  0  0  0
   27.2560  -18.4152  -16.4097 C   0  0  0  0  0  0  0  0  0  0  0  0
   27.9891  -18.4254  -17.6031 C   0  0  0  0  0  0  0  0  0  0  0  0
   28.4304  -17.1847  -17.8600 N   0  0  0  0  0  0  0  0  0  0  0  0
   28.0238  -16.3498  -16.8900 C   0  0  0  0  0  0  0  0  0  0  0  0
   28.1980  -15.0086  -16.6582 C   0  0  0  0  0  0  0  0  0  0  0  0
   27.6624  -14.3960  -15.5409 C   0  0  0  0  0  0  0  0  0  0  0  0
   26.9449  -15.1396  -14.6478 C   0  0  0  0  0  0  0  0  0  0  0  0
   26.7648  -16.4872  -14.8730 C   0  0  0  0  0  0  0  0  0  0  0  0
   27.2857  -17.1122  -15.9733 C   0  0  0  0  0  0  0  0  0  0  0  0
   26.5540  -20.8574  -13.6776 C   0  0  0  0  0  0  0  0  0  0  0  0
   26.3494  -22.0597  -14.0229 O   0  0  0  0  0  0  0  0  0  0  0  0
   26.0103  -20.4071  -12.4744 N   0  0  0  0  0  0  0  0  0  0  0  0
   25.0133  -21.2258  -11.7917 C   0  0  1  0  0  0  0  0  0  0  0  0
   25.1040  -20.7959  -10.3340 C   0  0  0  0  0  0  0  0  0  0  0  0
   26.6273  -21.3376   -9.5497 S   0  0  0  0  0  0  0  0  0  0  0  0
   23.6512  -20.9075  -12.3105 C   0  0  0  0  0  0  0  0  0  0  0  0
   23.3213  -19.6958  -12.5393 O   0  0  0  0  0  0  0  0  0  0  0  0
   20.6951  -22.8374  -13.6935 C   0  0  0  0  0  0  0  0  0  0  0  0
   21.3291  -21.7031  -12.9710 C   0  0  2  0  0  0  0  0  0  0  0  0
   22.6927  -21.9163  -12.5663 N   0  0  0  0  0  0  0  0  0  0  0  0
   20.4916  -21.1810  -11.8313 C   0  0  0  0  0  0  0  0  0  0  0  0
   19.3254  -20.4886  -12.0471 O   0  0  0  0  0  0  0  0  0  0  0  0
   20.8906  -21.3970  -10.6733 O   0  0  0  0  0  0  0  0  0  0  0  0
  2  1  1  6
  2 13  1  0
  3  2  1  0
  3  4  1  0
  4  5  2  0
  4 12  1  0
  5  6  1  0
  6  7  1  0
  7  8  2  0
  8  9  1  0
 10  9  2  0
 11 10  1  0
 12 11  2  0
 12  7  1  0
 13 14  2  0
 15 16  1  0
 15 13  1  0
 16 19  1  0
 16 17  1  1
 18 17  1  0
 19 23  1  0
 20 19  2  0
 22 21  1  1
 23 22  1  0
 24 25  1  0
 24 22  1  0
 26 24  2  0
M  END
$$$$
