WCA.pdb
     RDKit          3D

 26 27  0  0  1  0  0  0  0  0999 V2000
   24.5502  -20.2553  -16.5223 N   0  0  0  0  0  0  0  0  0  0  0  0
   25.0840  -19.6315  -15.3666 C   0  0  1  0  0  0  0  0  0  0  0  0
   24.1226  -18.6791  -14.7318 C   0  0  0  0  0  0  0  0  0  0  0  0
   24.1254  -17.4067  -15.4695 C   0  0  0  0  0  0  0  0  0  0  0  0
   23.0210  -16.7429  -16.0186 C   0  0  0  0  0  0  0  0  0  0  0  0
   23.4308  -15.5952  -16.5798 N   0  0  0  0  0  0  0  0  0  0  0  0
   24.7590  -15.4666  -16.4288 C   0  0  0  0  0  0  0  0  0  0  0  0
   25.6690  -14.5131  -16.8104 C   0  0  0  0  0  0  0  0  0  0  0  0
   27.0146  -14.6474  -16.5243 C   0  0  0  0  0  0  0  0  0  0  0  0
   27.4492  -15.7516  -15.8480 C   0  0  0  0  0  0  0  0  0  0  0  0
   26.5419  -16.7139  -15.4607 C   0  0  0  0  0  0  0  0  0  0  0  0
   25.2058  -16.5992  -15.7332 C   0  0  0  0  0  0  0  0  0  0  0  0
   25.6911  -20.5590  -14.3741 C   0  0  0  0  0  0  0  0  0  0  0  0
   25.1605  -21.7080  -14.3041 O   0  0  0  0  0  0  0  0  0  0  0  0
   26.7696  -20.2700  -13.5380 N   0  0  0  0  0  0  0  0  0  0  0  0
   27.0327  -21.1317  -12.3897 C   0  0  1  0  0  0  0  0  0  0  0  0
   28.4934  -20.8724  -12.0481 C   0  0  0  0  0  0  0  0  0  0  0  0
   29.5939  -21.2111  -13.4277 S   0  0  0  0  0  0  0  0  0  0  0  0
   26.1810  -20.7177  -11.2367 C   0  0  0  0  0  0  0  0  0  0  0  0
   25.7698  -19.5127  -11.1460 O   0  0  0  0  0  0  0  0  0  0  0  0
   25.5065  -20.2761   -8.1728 C   0  0  0  0  0  0  0  0  0  0  0  0
   24.9765  -21.3259   -9.0825 C   0  0  2  0  0  0  0  0  0  0  0  0
   25.8017  -21.6272  -10.2214 N   0  0  0  0  0  0  0  0  0  0  0  0
   23.5428  -21.0943   -9.4870 C   0  0  0  0  0  0  0  0  0  0  0  0
   22.5727  -20.7776   -8.5678 O   0  0  0  0  0  0  0  0  0  0  0  0
   23.2572  -21.1992  -10.6930 O   0  0  0  0  0  0  0  0  0  0  0  0
  2  1  1  6
  2 13  1  0
  3  2  1  0
  3  4  1  0
  4  5  2  0
  4 12  1  0
  5  6  1  0
  6  7  1  0
  7  8  2  0
  8  9  1  0
 10  9  2  0
 11 10  1  0
 12 11  2  0
 12  7  1  0
 13 14  2  0
 15 16  1  0
 15 13  1  0
 16 19  1  0
 16 17  1  1
 18 17  1  0
 19 23  1  0
 20 19  2  0
 22 21  1  6
 23 22  1  0
 24 25  1  0
 24 22  1  0
 26 24  2  0
M  END
$$$$
