NHM.pdb
     RDKit          3D

 27 27  0  0  1  0  0  0  0  0999 V2000
    6.7287  -12.6313   16.9889 N   0  0  0  0  0  0  0  0  0  0  0  0
    7.7854  -13.4624   17.4155 C   0  0  0  0  0  0  0  0  0  0  0  0
    8.3815  -14.1935   16.6081 O   0  0  0  0  0  0  0  0  0  0  0  0
    8.1659  -13.4420   18.8449 C   0  0  0  0  0  0  0  0  0  0  0  0
    8.6251  -14.8132   19.2868 C   0  0  2  0  0  0  0  0  0  0  0  0
    7.8264  -15.8502   18.7930 N   0  0  0  0  0  0  0  0  0  0  0  0
    8.6315  -14.8222   20.7743 C   0  0  0  0  0  0  0  0  0  0  0  0
    9.2363  -13.8673   21.3466 O   0  0  0  0  0  0  0  0  0  0  0  0
    7.9816  -15.8653   21.4691 N   0  0  0  0  0  0  0  0  0  0  0  0
    8.7757  -16.8441   22.1925 C   0  0  1  0  0  0  0  0  0  0  0  0
    9.8722  -17.3961   21.3434 C   0  0  0  0  0  0  0  0  0  0  0  0
    9.9645  -18.8612   21.4910 C   0  0  0  0  0  0  0  0  0  0  0  0
    9.2895  -19.6935   22.3703 C   0  0  0  0  0  0  0  0  0  0  0  0
    9.6698  -20.9748   22.2209 N   0  0  0  0  0  0  0  0  0  0  0  0
   10.5907  -20.9535   21.2421 C   0  0  0  0  0  0  0  0  0  0  0  0
   10.7810  -19.7117   20.7954 N   0  0  0  0  0  0  0  0  0  0  0  0
    9.3345  -16.1774   23.3831 C   0  0  0  0  0  0  0  0  0  0  0  0
   10.0048  -15.1369   23.3207 O   0  0  0  0  0  0  0  0  0  0  0  0
    6.5956  -11.3893   26.6999 C   0  0  0  0  0  0  0  0  0  0  0  0
    6.1295  -13.1244   26.6959 S   0  0  0  0  0  0  0  0  0  0  0  0
    7.5372  -14.2169   26.9663 C   0  0  0  0  0  0  0  0  0  0  0  0
    7.8070  -15.0241   25.7366 C   0  0  0  0  0  0  0  0  0  0  0  0
    9.0179  -15.9186   25.8784 C   0  0  2  0  0  0  0  0  0  0  0  0
    9.1117  -16.7297   24.6794 N   0  0  0  0  0  0  0  0  0  0  0  0
    8.9769  -16.7546   27.0724 C   0  0  0  0  0  0  0  0  0  0  0  0
    8.6505  -18.0928   26.9684 O   0  0  0  0  0  0  0  0  0  0  0  0
    9.2334  -16.2839   28.2028 O   0  0  0  0  0  0  0  0  0  0  0  0
  1  2  1  0
  2  3  2  0
  4  2  1  0
  5  4  1  0
  5  6  1  1
  7  5  1  0
  7  8  2  0
  9  7  1  0
 10  9  1  0
 10 11  1  6
 11 12  1  0
 12 16  1  0
 13 12  2  0
 13 14  1  0
 14 15  1  0
 16 15  2  0
 17 10  1  0
 18 17  2  0
 20 19  1  0
 21 20  1  0
 22 21  1  0
 23 22  1  6
 23 24  1  0
 24 17  1  0
 25 23  1  0
 26 25  1  0
 27 25  2  0
M  END
$$$$
