NHM.pdb
     RDKit          3D

 27 27  0  0  1  0  0  0  0  0999 V2000
    8.4943  -15.2674   17.8870 N   0  0  0  0  0  0  0  0  0  0  0  0
    7.8217  -14.0486   17.6602 C   0  0  0  0  0  0  0  0  0  0  0  0
    7.0595  -13.9172   16.6889 O   0  0  0  0  0  0  0  0  0  0  0  0
    8.0456  -12.9329   18.6054 C   0  0  0  0  0  0  0  0  0  0  0  0
    8.9866  -13.3593   19.7095 C   0  0  2  0  0  0  0  0  0  0  0  0
   10.0166  -14.1959   19.2666 N   0  0  0  0  0  0  0  0  0  0  0  0
    8.1713  -14.0411   20.7502 C   0  0  0  0  0  0  0  0  0  0  0  0
    7.2865  -13.3424   21.3283 O   0  0  0  0  0  0  0  0  0  0  0  0
    8.4095  -15.4013   21.0438 N   0  0  0  0  0  0  0  0  0  0  0  0
    7.9582  -15.9472   22.3129 C   0  0  1  0  0  0  0  0  0  0  0  0
    7.8097  -17.4310   22.2497 C   0  0  0  0  0  0  0  0  0  0  0  0
    6.7336  -17.8123   21.3152 C   0  0  0  0  0  0  0  0  0  0  0  0
    5.8799  -16.9971   20.5885 C   0  0  0  0  0  0  0  0  0  0  0  0
    5.0062  -17.7222   19.8678 N   0  0  0  0  0  0  0  0  0  0  0  0
    5.3081  -19.0034   20.1401 C   0  0  0  0  0  0  0  0  0  0  0  0
    6.3281  -19.0801   20.9953 N   0  0  0  0  0  0  0  0  0  0  0  0
    8.9483  -15.5735   23.3397 C   0  0  0  0  0  0  0  0  0  0  0  0
    9.8490  -14.7465   23.1384 O   0  0  0  0  0  0  0  0  0  0  0  0
    6.2786  -11.8856   26.2135 C   0  0  0  0  0  0  0  0  0  0  0  0
    7.8757  -11.7942   27.0314 S   0  0  0  0  0  0  0  0  0  0  0  0
    8.6868  -13.4000   27.1410 C   0  0  0  0  0  0  0  0  0  0  0  0
    8.4847  -14.1673   25.8733 C   0  0  0  0  0  0  0  0  0  0  0  0
    9.2573  -15.4669   25.8471 C   0  0  2  0  0  0  0  0  0  0  0  0
    8.8943  -16.1730   24.6331 N   0  0  0  0  0  0  0  0  0  0  0  0
    9.0244  -16.2966   27.0233 C   0  0  0  0  0  0  0  0  0  0  0  0
    7.9496  -17.1638   27.0556 O   0  0  0  0  0  0  0  0  0  0  0  0
    9.7835  -16.2419   28.0163 O   0  0  0  0  0  0  0  0  0  0  0  0
  1  2  1  0
  2  3  2  0
  4  2  1  0
  5  4  1  0
  5  6  1  6
  7  5  1  0
  7  8  2  0
  9  7  1  0
 10  9  1  0
 10 11  1  6
 11 12  1  0
 12 16  1  0
 13 12  2  0
 13 14  1  0
 14 15  1  0
 16 15  2  0
 17 10  1  0
 18 17  2  0
 20 19  1  0
 21 20  1  0
 22 21  1  0
 23 22  1  1
 23 24  1  0
 24 17  1  0
 25 23  1  0
 26 25  1  0
 27 25  2  0
M  END
$$$$
