NHM.pdb
     RDKit          3D

 27 27  0  0  1  0  0  0  0  0999 V2000
    8.3079  -12.3239   16.6127 N   0  0  0  0  0  0  0  0  0  0  0  0
    8.1059  -13.6928   16.8853 C   0  0  0  0  0  0  0  0  0  0  0  0
    8.3662  -14.5541   16.0296 O   0  0  0  0  0  0  0  0  0  0  0  0
    7.5775  -14.0773   18.2126 C   0  0  0  0  0  0  0  0  0  0  0  0
    8.7136  -14.3656   19.1678 C   0  0  2  0  0  0  0  0  0  0  0  0
    9.6990  -15.1949   18.6217 N   0  0  0  0  0  0  0  0  0  0  0  0
    8.1248  -14.9860   20.3848 C   0  0  0  0  0  0  0  0  0  0  0  0
    7.1380  -14.3880   20.9080 O   0  0  0  0  0  0  0  0  0  0  0  0
    8.6740  -16.1829   20.8939 N   0  0  0  0  0  0  0  0  0  0  0  0
    8.1211  -16.7628   22.1064 C   0  0  1  0  0  0  0  0  0  0  0  0
    8.2331  -18.2511   22.1028 C   0  0  0  0  0  0  0  0  0  0  0  0
    7.2748  -18.8481   21.1530 C   0  0  0  0  0  0  0  0  0  0  0  0
    5.8913  -18.8970   21.2247 C   0  0  0  0  0  0  0  0  0  0  0  0
    5.3701  -19.5591   20.1766 N   0  0  0  0  0  0  0  0  0  0  0  0
    6.4292  -19.9317   19.4377 C   0  0  0  0  0  0  0  0  0  0  0  0
    7.5675  -19.5212   19.9975 N   0  0  0  0  0  0  0  0  0  0  0  0
    8.8569  -16.1953   23.2513 C   0  0  0  0  0  0  0  0  0  0  0  0
   10.0944  -16.1532   23.3033 O   0  0  0  0  0  0  0  0  0  0  0  0
    5.8686  -11.5202   26.7021 C   0  0  0  0  0  0  0  0  0  0  0  0
    7.6237  -11.3687   27.0544 S   0  0  0  0  0  0  0  0  0  0  0  0
    8.4932  -12.9413   26.9142 C   0  0  0  0  0  0  0  0  0  0  0  0
    7.9651  -13.7205   25.7521 C   0  0  0  0  0  0  0  0  0  0  0  0
    8.7874  -14.9537   25.4530 C   0  0  2  0  0  0  0  0  0  0  0  0
    8.1416  -15.6629   24.3649 N   0  0  0  0  0  0  0  0  0  0  0  0
    8.9619  -15.8218   26.6114 C   0  0  0  0  0  0  0  0  0  0  0  0
    9.9780  -15.5743   27.5139 O   0  0  0  0  0  0  0  0  0  0  0  0
    8.2046  -16.7975   26.8107 O   0  0  0  0  0  0  0  0  0  0  0  0
  1  2  1  0
  2  3  2  0
  4  2  1  0
  5  4  1  0
  5  6  1  6
  7  5  1  0
  7  8  2  0
  9  7  1  0
 10  9  1  0
 10 11  1  6
 11 12  1  0
 12 16  1  0
 13 12  2  0
 13 14  1  0
 14 15  1  0
 16 15  2  0
 17 10  1  0
 18 17  2  0
 20 19  1  0
 21 20  1  0
 22 21  1  0
 23 22  1  1
 23 24  1  0
 24 17  1  0
 25 23  1  0
 26 25  1  0
 27 25  2  0
M  END
$$$$
