NHM.pdb
     RDKit          3D

 27 27  0  0  1  0  0  0  0  0999 V2000
   15.6963  -14.6966   18.4714 N   0  0  0  0  0  0  0  0  0  0  0  0
   14.4348  -15.0422   17.9439 C   0  0  0  0  0  0  0  0  0  0  0  0
   14.3458  -15.7402   16.9208 O   0  0  0  0  0  0  0  0  0  0  0  0
   13.2225  -14.5543   18.6373 C   0  0  0  0  0  0  0  0  0  0  0  0
   12.7909  -15.5403   19.6993 C   0  0  2  0  0  0  0  0  0  0  0  0
   12.3832  -16.7726   19.1775 N   0  0  0  0  0  0  0  0  0  0  0  0
   11.6866  -14.9087   20.4702 C   0  0  0  0  0  0  0  0  0  0  0  0
   11.9838  -13.8857   21.1560 O   0  0  0  0  0  0  0  0  0  0  0  0
   10.3881  -15.4593   20.4085 N   0  0  0  0  0  0  0  0  0  0  0  0
    9.2934  -14.7833   21.0845 C   0  0  1  0  0  0  0  0  0  0  0  0
    8.0049  -14.9585   20.3520 C   0  0  0  0  0  0  0  0  0  0  0  0
    8.1307  -14.5093   18.9522 C   0  0  0  0  0  0  0  0  0  0  0  0
    8.1612  -13.2176   18.4502 C   0  0  0  0  0  0  0  0  0  0  0  0
    8.2542  -13.2161   17.1085 N   0  0  0  0  0  0  0  0  0  0  0  0
    8.2823  -14.5138   16.7594 C   0  0  0  0  0  0  0  0  0  0  0  0
    8.2102  -15.2973   17.8357 N   0  0  0  0  0  0  0  0  0  0  0  0
    9.1912  -15.3440   22.4445 C   0  0  0  0  0  0  0  0  0  0  0  0
    9.9919  -16.1772   22.8921 O   0  0  0  0  0  0  0  0  0  0  0  0
    5.8566  -11.5434   28.5798 C   0  0  0  0  0  0  0  0  0  0  0  0
    5.8493  -12.1047   26.8732 S   0  0  0  0  0  0  0  0  0  0  0  0
    7.2548  -13.1662   26.4907 C   0  0  0  0  0  0  0  0  0  0  0  0
    7.2279  -13.5571   25.0474 C   0  0  0  0  0  0  0  0  0  0  0  0
    8.3554  -14.4930   24.6741 C   0  0  2  0  0  0  0  0  0  0  0  0
    8.1344  -14.9295   23.3085 N   0  0  0  0  0  0  0  0  0  0  0  0
    8.4756  -15.6340   25.5740 C   0  0  0  0  0  0  0  0  0  0  0  0
    8.0114  -16.8749   25.1827 O   0  0  0  0  0  0  0  0  0  0  0  0
    8.9952  -15.5155   26.7058 O   0  0  0  0  0  0  0  0  0  0  0  0
  1  2  1  0
  2  3  2  0
  4  2  1  0
  5  4  1  0
  5  6  1  6
  7  5  1  0
  7  8  2  0
  9  7  1  0
 10  9  1  0
 10 11  1  6
 11 12  1  0
 12 16  1  0
 13 12  2  0
 13 14  1  0
 14 15  1  0
 16 15  2  0
 17 10  1  0
 18 17  2  0
 20 19  1  0
 21 20  1  0
 22 21  1  0
 23 22  1  1
 23 24  1  0
 24 17  1  0
 25 23  1  0
 26 25  1  0
 27 25  2  0
M  END
$$$$
