NHM.pdb
     RDKit          3D

 27 27  0  0  1  0  0  0  0  0999 V2000
    9.5464  -13.6082   16.1568 N   0  0  0  0  0  0  0  0  0  0  0  0
    8.1543  -13.8024   16.2730 C   0  0  0  0  0  0  0  0  0  0  0  0
    7.4069  -13.6279   15.2970 O   0  0  0  0  0  0  0  0  0  0  0  0
    7.6070  -14.2182   17.5830 C   0  0  0  0  0  0  0  0  0  0  0  0
    8.7246  -14.4104   18.5832 C   0  0  2  0  0  0  0  0  0  0  0  0
    9.7791  -15.1876   18.0923 N   0  0  0  0  0  0  0  0  0  0  0  0
    8.1336  -15.0383   19.7953 C   0  0  0  0  0  0  0  0  0  0  0  0
    7.1828  -14.4143   20.3535 O   0  0  0  0  0  0  0  0  0  0  0  0
    8.6419  -16.2700   20.2620 N   0  0  0  0  0  0  0  0  0  0  0  0
    8.1477  -16.8174   21.5143 C   0  0  1  0  0  0  0  0  0  0  0  0
    8.5617  -18.2404   21.6919 C   0  0  0  0  0  0  0  0  0  0  0  0
    7.9999  -18.7999   22.9362 C   0  0  0  0  0  0  0  0  0  0  0  0
    6.6866  -18.7949   23.3797 C   0  0  0  0  0  0  0  0  0  0  0  0
    6.5752  -19.3791   24.5859 N   0  0  0  0  0  0  0  0  0  0  0  0
    7.8246  -19.7556   24.9078 C   0  0  0  0  0  0  0  0  0  0  0  0
    8.6846  -19.4223   23.9450 N   0  0  0  0  0  0  0  0  0  0  0  0
    8.6821  -15.9868   22.6092 C   0  0  0  0  0  0  0  0  0  0  0  0
    9.8715  -15.6456   22.6778 O   0  0  0  0  0  0  0  0  0  0  0  0
    6.4072  -10.3588   27.6088 C   0  0  0  0  0  0  0  0  0  0  0  0
    6.0483  -11.6125   26.3729 S   0  0  0  0  0  0  0  0  0  0  0  0
    7.4399  -12.7233   26.0936 C   0  0  0  0  0  0  0  0  0  0  0  0
    7.1075  -13.7051   25.0155 C   0  0  0  0  0  0  0  0  0  0  0  0
    8.2505  -14.6466   24.7096 C   0  0  2  0  0  0  0  0  0  0  0  0
    7.8171  -15.5396   23.6518 N   0  0  0  0  0  0  0  0  0  0  0  0
    8.7024  -15.3979   25.8747 C   0  0  0  0  0  0  0  0  0  0  0  0
    8.2908  -16.7038   26.0573 O   0  0  0  0  0  0  0  0  0  0  0  0
    9.4633  -14.8825   26.7236 O   0  0  0  0  0  0  0  0  0  0  0  0
  1  2  1  0
  2  3  2  0
  4  2  1  0
  5  4  1  0
  5  6  1  6
  7  5  1  0
  7  8  2  0
  9  7  1  0
 10  9  1  0
 10 11  1  1
 11 12  1  0
 12 16  1  0
 13 12  2  0
 13 14  1  0
 14 15  1  0
 16 15  2  0
 17 10  1  0
 18 17  2  0
 20 19  1  0
 21 20  1  0
 22 21  1  0
 23 22  1  1
 23 24  1  0
 24 17  1  0
 25 23  1  0
 26 25  1  0
 27 25  2  0
M  END
$$$$
