NHM.pdb
     RDKit          3D

 27 27  0  0  1  0  0  0  0  0999 V2000
    8.4593  -25.9731   21.7995 N   0  0  0  0  0  0  0  0  0  0  0  0
    8.9436  -25.3879   22.9878 C   0  0  0  0  0  0  0  0  0  0  0  0
    8.7653  -25.9416   24.0848 O   0  0  0  0  0  0  0  0  0  0  0  0
    9.6679  -24.1012   22.8962 C   0  0  0  0  0  0  0  0  0  0  0  0
    9.3399  -23.2268   24.0854 C   0  0  2  0  0  0  0  0  0  0  0  0
    7.9740  -22.9512   24.2098 N   0  0  0  0  0  0  0  0  0  0  0  0
   10.1155  -21.9661   23.9379 C   0  0  0  0  0  0  0  0  0  0  0  0
   11.0942  -21.9907   23.1338 O   0  0  0  0  0  0  0  0  0  0  0  0
    9.7404  -20.8247   24.6793 N   0  0  0  0  0  0  0  0  0  0  0  0
   10.5427  -19.6167   24.5845 C   0  0  1  0  0  0  0  0  0  0  0  0
    9.9831  -18.6642   23.5808 C   0  0  0  0  0  0  0  0  0  0  0  0
   10.8698  -17.4971   23.4122 C   0  0  0  0  0  0  0  0  0  0  0  0
   10.7975  -16.2522   24.0176 C   0  0  0  0  0  0  0  0  0  0  0  0
   11.7741  -15.4378   23.5798 N   0  0  0  0  0  0  0  0  0  0  0  0
   12.4680  -16.1709   22.6924 C   0  0  0  0  0  0  0  0  0  0  0  0
   11.9497  -17.3939   22.5774 N   0  0  0  0  0  0  0  0  0  0  0  0
   10.5758  -18.9938   25.9206 C   0  0  0  0  0  0  0  0  0  0  0  0
    9.8605  -19.3727   26.8589 O   0  0  0  0  0  0  0  0  0  0  0  0
   10.3500  -12.5243   28.4380 C   0  0  0  0  0  0  0  0  0  0  0  0
   10.3416  -14.0836   27.5456 S   0  0  0  0  0  0  0  0  0  0  0  0
   10.1995  -15.5056   28.6440 C   0  0  0  0  0  0  0  0  0  0  0  0
   10.1738  -16.7713   27.8479 C   0  0  0  0  0  0  0  0  0  0  0  0
   11.5565  -17.2519   27.4691 C   0  0  2  0  0  0  0  0  0  0  0  0
   11.4598  -17.9038   26.1769 N   0  0  0  0  0  0  0  0  0  0  0  0
   12.1458  -18.1435   28.4610 C   0  0  0  0  0  0  0  0  0  0  0  0
   11.4497  -19.2571   28.8896 O   0  0  0  0  0  0  0  0  0  0  0  0
   13.2803  -17.9222   28.9395 O   0  0  0  0  0  0  0  0  0  0  0  0
  1  2  1  0
  2  3  2  0
  4  2  1  0
  5  4  1  0
  5  6  1  6
  7  5  1  0
  7  8  2  0
  9  7  1  0
 10  9  1  0
 10 11  1  6
 11 12  1  0
 12 16  1  0
 13 12  2  0
 13 14  1  0
 14 15  1  0
 16 15  2  0
 17 10  1  0
 18 17  2  0
 20 19  1  0
 21 20  1  0
 22 21  1  0
 23 22  1  1
 23 24  1  0
 24 17  1  0
 25 23  1  0
 26 25  1  0
 27 25  2  0
M  END
$$$$
