NHM.pdb
     RDKit          3D

 27 27  0  0  1  0  0  0  0  0999 V2000
    7.2070  -12.3667   18.3262 N   0  0  0  0  0  0  0  0  0  0  0  0
    8.2352  -13.3212   18.4712 C   0  0  0  0  0  0  0  0  0  0  0  0
    9.0420  -13.5276   17.5502 O   0  0  0  0  0  0  0  0  0  0  0  0
    8.3292  -14.0689   19.7442 C   0  0  0  0  0  0  0  0  0  0  0  0
    8.2689  -15.5575   19.4859 C   0  0  2  0  0  0  0  0  0  0  0  0
    7.0672  -15.9693   18.8999 N   0  0  0  0  0  0  0  0  0  0  0  0
    8.4763  -16.2438   20.7892 C   0  0  0  0  0  0  0  0  0  0  0  0
    7.4539  -16.3946   21.5221 O   0  0  0  0  0  0  0  0  0  0  0  0
    9.7680  -16.6873   21.1471 N   0  0  0  0  0  0  0  0  0  0  0  0
    9.9742  -17.3134   22.4422 C   0  0  1  0  0  0  0  0  0  0  0  0
   11.2415  -18.1012   22.4748 C   0  0  0  0  0  0  0  0  0  0  0  0
   11.1135  -19.3362   21.6778 C   0  0  0  0  0  0  0  0  0  0  0  0
   10.0695  -20.2474   21.6429 C   0  0  0  0  0  0  0  0  0  0  0  0
   10.3388  -21.2685   20.8101 N   0  0  0  0  0  0  0  0  0  0  0  0
   11.5599  -21.0024   20.3155 C   0  0  0  0  0  0  0  0  0  0  0  0
   12.0376  -19.8627   20.8160 N   0  0  0  0  0  0  0  0  0  0  0  0
   10.0079  -16.2444   23.4573 C   0  0  0  0  0  0  0  0  0  0  0  0
   10.5392  -15.1426   23.2586 O   0  0  0  0  0  0  0  0  0  0  0  0
    6.2739  -11.0540   27.0728 C   0  0  0  0  0  0  0  0  0  0  0  0
    6.5497  -12.4158   25.9338 S   0  0  0  0  0  0  0  0  0  0  0  0
    7.9493  -13.4444   26.4153 C   0  0  0  0  0  0  0  0  0  0  0  0
    8.1720  -14.5199   25.4002 C   0  0  0  0  0  0  0  0  0  0  0  0
    9.3316  -15.4243   25.7517 C   0  0  2  0  0  0  0  0  0  0  0  0
    9.4113  -16.4566   24.7357 N   0  0  0  0  0  0  0  0  0  0  0  0
    9.2202  -16.0092   27.0827 C   0  0  0  0  0  0  0  0  0  0  0  0
    9.1534  -17.3809   27.2316 O   0  0  0  0  0  0  0  0  0  0  0  0
    9.1832  -15.2904   28.1060 O   0  0  0  0  0  0  0  0  0  0  0  0
  1  2  1  0
  2  3  2  0
  4  2  1  0
  5  4  1  0
  5  6  1  1
  7  5  1  0
  7  8  2  0
  9  7  1  0
 10  9  1  0
 10 11  1  6
 11 12  1  0
 12 16  1  0
 13 12  2  0
 13 14  1  0
 14 15  1  0
 16 15  2  0
 17 10  1  0
 18 17  2  0
 20 19  1  0
 21 20  1  0
 22 21  1  0
 23 22  1  6
 23 24  1  0
 24 17  1  0
 25 23  1  0
 26 25  1  0
 27 25  2  0
M  END
$$$$
