NHM.pdb
     RDKit          3D

 27 27  0  0  1  0  0  0  0  0999 V2000
    7.9284  -12.2002   17.4222 N   0  0  0  0  0  0  0  0  0  0  0  0
    7.9385  -13.6079   17.5091 C   0  0  0  0  0  0  0  0  0  0  0  0
    8.1733  -14.3025   16.5071 O   0  0  0  0  0  0  0  0  0  0  0  0
    7.6633  -14.2357   18.8201 C   0  0  0  0  0  0  0  0  0  0  0  0
    8.8773  -14.1371   19.7160 C   0  0  2  0  0  0  0  0  0  0  0  0
   10.0574  -14.5644   19.0981 N   0  0  0  0  0  0  0  0  0  0  0  0
    8.6006  -14.9492   20.9311 C   0  0  0  0  0  0  0  0  0  0  0  0
    7.4633  -14.7995   21.4689 O   0  0  0  0  0  0  0  0  0  0  0  0
    9.5888  -15.8296   21.4226 N   0  0  0  0  0  0  0  0  0  0  0  0
    9.3326  -16.5828   22.6388 C   0  0  1  0  0  0  0  0  0  0  0  0
   10.0326  -17.9010   22.6251 C   0  0  0  0  0  0  0  0  0  0  0  0
    9.4248  -18.8087   21.6333 C   0  0  0  0  0  0  0  0  0  0  0  0
    9.8098  -19.0542   20.3246 C   0  0  0  0  0  0  0  0  0  0  0  0
    8.9809  -19.9282   19.7264 N   0  0  0  0  0  0  0  0  0  0  0  0
    8.0661  -20.2372   20.6614 C   0  0  0  0  0  0  0  0  0  0  0  0
    8.3097  -19.5854   21.7987 N   0  0  0  0  0  0  0  0  0  0  0  0
    9.7949  -15.7678   23.7773 C   0  0  0  0  0  0  0  0  0  0  0  0
   10.1835  -14.5974   23.6548 O   0  0  0  0  0  0  0  0  0  0  0  0
    6.2255  -12.7760   27.8979 C   0  0  0  0  0  0  0  0  0  0  0  0
    6.7423  -12.6348   26.1830 S   0  0  0  0  0  0  0  0  0  0  0  0
    8.3359  -13.4191   25.8766 C   0  0  0  0  0  0  0  0  0  0  0  0
    8.2678  -14.8744   26.2145 C   0  0  0  0  0  0  0  0  0  0  0  0
    9.6323  -15.5218   26.2887 C   0  0  2  0  0  0  0  0  0  0  0  0
    9.8079  -16.3222   25.0917 N   0  0  0  0  0  0  0  0  0  0  0  0
    9.8200  -16.3287   27.4886 C   0  0  0  0  0  0  0  0  0  0  0  0
   10.3831  -15.7671   28.6181 O   0  0  0  0  0  0  0  0  0  0  0  0
    9.4793  -17.5320   27.5209 O   0  0  0  0  0  0  0  0  0  0  0  0
  1  2  1  0
  2  3  2  0
  4  2  1  0
  5  4  1  0
  5  6  1  6
  7  5  1  0
  7  8  2  0
  9  7  1  0
 10  9  1  0
 10 11  1  6
 11 12  1  0
 12 16  1  0
 13 12  2  0
 13 14  1  0
 14 15  1  0
 16 15  2  0
 17 10  1  0
 18 17  2  0
 20 19  1  0
 21 20  1  0
 22 21  1  0
 23 22  1  1
 23 24  1  0
 24 17  1  0
 25 23  1  0
 26 25  1  0
 27 25  2  0
M  END
$$$$
