NHM.pdb
     RDKit          3D

 27 27  0  0  1  0  0  0  0  0999 V2000
    8.6312  -12.9022   16.6666 N   0  0  0  0  0  0  0  0  0  0  0  0
    7.4908  -13.7167   16.8251 C   0  0  0  0  0  0  0  0  0  0  0  0
    6.6917  -13.8768   15.8883 O   0  0  0  0  0  0  0  0  0  0  0  0
    7.2699  -14.3746   18.1316 C   0  0  0  0  0  0  0  0  0  0  0  0
    8.3250  -13.9411   19.1242 C   0  0  2  0  0  0  0  0  0  0  0  0
    9.6015  -13.8311   18.5625 N   0  0  0  0  0  0  0  0  0  0  0  0
    8.3264  -14.9324   20.2333 C   0  0  0  0  0  0  0  0  0  0  0  0
    7.2159  -15.1511   20.8026 O   0  0  0  0  0  0  0  0  0  0  0  0
    9.5314  -15.5718   20.5968 N   0  0  0  0  0  0  0  0  0  0  0  0
    9.5293  -16.5305   21.6891 C   0  0  1  0  0  0  0  0  0  0  0  0
   10.5759  -17.5779   21.5013 C   0  0  0  0  0  0  0  0  0  0  0  0
   10.5988  -18.5092   22.6454 C   0  0  0  0  0  0  0  0  0  0  0  0
   11.6648  -18.8709   23.4544 C   0  0  0  0  0  0  0  0  0  0  0  0
   11.2936  -19.7759   24.3773 N   0  0  0  0  0  0  0  0  0  0  0  0
    9.9859  -19.9886   24.1512 C   0  0  0  0  0  0  0  0  0  0  0  0
    9.5536  -19.2487   23.1297 N   0  0  0  0  0  0  0  0  0  0  0  0
    9.7663  -15.7864   22.9399 C   0  0  0  0  0  0  0  0  0  0  0  0
   10.2147  -14.6313   22.9625 O   0  0  0  0  0  0  0  0  0  0  0  0
    5.7117  -11.9610   26.9235 C   0  0  0  0  0  0  0  0  0  0  0  0
    7.2071  -12.2250   25.9634 S   0  0  0  0  0  0  0  0  0  0  0  0
    8.0678  -13.7382   26.4304 C   0  0  0  0  0  0  0  0  0  0  0  0
    8.2626  -14.6113   25.2320 C   0  0  0  0  0  0  0  0  0  0  0  0
    9.3515  -15.6416   25.4300 C   0  0  2  0  0  0  0  0  0  0  0  0
    9.4769  -16.3954   24.1971 N   0  0  0  0  0  0  0  0  0  0  0  0
    9.1038  -16.5279   26.5610 C   0  0  0  0  0  0  0  0  0  0  0  0
    9.5107  -16.1607   27.8291 O   0  0  0  0  0  0  0  0  0  0  0  0
    8.5246  -17.6265   26.4095 O   0  0  0  0  0  0  0  0  0  0  0  0
  1  2  1  0
  2  3  2  0
  4  2  1  0
  5  4  1  0
  5  6  1  6
  7  5  1  0
  7  8  2  0
  9  7  1  0
 10  9  1  0
 10 11  1  6
 11 12  1  0
 12 16  1  0
 13 12  2  0
 13 14  1  0
 14 15  1  0
 16 15  2  0
 17 10  1  0
 18 17  2  0
 20 19  1  0
 21 20  1  0
 22 21  1  0
 23 22  1  6
 23 24  1  0
 24 17  1  0
 25 23  1  0
 26 25  1  0
 27 25  2  0
M  END
$$$$
