NHM.pdb
     RDKit          3D

 27 27  0  0  1  0  0  0  0  0999 V2000
   15.0727  -15.7127   18.7189 N   0  0  0  0  0  0  0  0  0  0  0  0
   14.4517  -14.5017   18.3490 C   0  0  0  0  0  0  0  0  0  0  0  0
   15.0270  -13.6993   17.5960 O   0  0  0  0  0  0  0  0  0  0  0  0
   13.1013  -14.2109   18.8784 C   0  0  0  0  0  0  0  0  0  0  0  0
   12.6939  -15.2614   19.8867 C   0  0  2  0  0  0  0  0  0  0  0  0
   12.4119  -16.5037   19.3085 N   0  0  0  0  0  0  0  0  0  0  0  0
   11.5048  -14.7422   20.6142 C   0  0  0  0  0  0  0  0  0  0  0  0
   11.6385  -13.6271   21.2006 O   0  0  0  0  0  0  0  0  0  0  0  0
   10.3086  -15.4919   20.6219 N   0  0  0  0  0  0  0  0  0  0  0  0
    9.1887  -15.0408   21.4308 C   0  0  1  0  0  0  0  0  0  0  0  0
    7.9016  -15.1228   20.6797 C   0  0  0  0  0  0  0  0  0  0  0  0
    7.9813  -14.3657   19.4158 C   0  0  0  0  0  0  0  0  0  0  0  0
    8.0279  -14.8424   18.1150 C   0  0  0  0  0  0  0  0  0  0  0  0
    8.1302  -13.8364   17.2285 N   0  0  0  0  0  0  0  0  0  0  0  0
    8.1489  -12.7168   17.9720 C   0  0  0  0  0  0  0  0  0  0  0  0
    8.0619  -13.0069   19.2705 N   0  0  0  0  0  0  0  0  0  0  0  0
    9.1349  -15.8890   22.6358 C   0  0  0  0  0  0  0  0  0  0  0  0
    9.9085  -16.8381   22.8272 O   0  0  0  0  0  0  0  0  0  0  0  0
    6.5816  -11.2980   28.4626 C   0  0  0  0  0  0  0  0  0  0  0  0
    6.3067  -12.2236   26.9476 S   0  0  0  0  0  0  0  0  0  0  0  0
    7.6415  -13.3826   26.5960 C   0  0  0  0  0  0  0  0  0  0  0  0
    7.4022  -14.0625   25.2857 C   0  0  0  0  0  0  0  0  0  0  0  0
    8.4903  -15.0515   24.9330 C   0  0  2  0  0  0  0  0  0  0  0  0
    8.1601  -15.6319   23.6452 N   0  0  0  0  0  0  0  0  0  0  0  0
    8.6721  -16.0884   25.9418 C   0  0  0  0  0  0  0  0  0  0  0  0
    9.5493  -15.8869   26.9898 O   0  0  0  0  0  0  0  0  0  0  0  0
    8.0455  -17.1696   25.8811 O   0  0  0  0  0  0  0  0  0  0  0  0
  1  2  1  0
  2  3  2  0
  4  2  1  0
  5  4  1  0
  5  6  1  6
  7  5  1  0
  7  8  2  0
  9  7  1  0
 10  9  1  0
 10 11  1  6
 11 12  1  0
 12 16  1  0
 13 12  2  0
 13 14  1  0
 14 15  1  0
 16 15  2  0
 17 10  1  0
 18 17  2  0
 20 19  1  0
 21 20  1  0
 22 21  1  0
 23 22  1  1
 23 24  1  0
 24 17  1  0
 25 23  1  0
 26 25  1  0
 27 25  2  0
M  END
$$$$
