NHM.pdb
     RDKit          3D

 27 27  0  0  1  0  0  0  0  0999 V2000
   15.5641  -18.6238   18.4293 N   0  0  0  0  0  0  0  0  0  0  0  0
   14.1713  -18.7521   18.6103 C   0  0  0  0  0  0  0  0  0  0  0  0
   13.5202  -19.5774   17.9495 O   0  0  0  0  0  0  0  0  0  0  0  0
   13.5060  -17.8818   19.6045 C   0  0  0  0  0  0  0  0  0  0  0  0
   12.1681  -17.4112   19.0803 C   0  0  2  0  0  0  0  0  0  0  0  0
   12.2516  -16.7861   17.8316 N   0  0  0  0  0  0  0  0  0  0  0  0
   11.5957  -16.4827   20.0917 C   0  0  0  0  0  0  0  0  0  0  0  0
   12.3198  -15.5029   20.4391 O   0  0  0  0  0  0  0  0  0  0  0  0
   10.3046  -16.7238   20.6094 N   0  0  0  0  0  0  0  0  0  0  0  0
    9.7218  -15.7756   21.5439 C   0  0  1  0  0  0  0  0  0  0  0  0
    8.2547  -15.6165   21.3202 C   0  0  0  0  0  0  0  0  0  0  0  0
    7.9897  -14.9127   20.0509 C   0  0  0  0  0  0  0  0  0  0  0  0
    8.1999  -13.5802   19.7320 C   0  0  0  0  0  0  0  0  0  0  0  0
    7.8006  -13.3085   18.4769 N   0  0  0  0  0  0  0  0  0  0  0  0
    7.3347  -14.4751   17.9988 C   0  0  0  0  0  0  0  0  0  0  0  0
    7.4370  -15.4389   18.9144 N   0  0  0  0  0  0  0  0  0  0  0  0
    9.9824  -16.2716   22.9078 C   0  0  0  0  0  0  0  0  0  0  0  0
   10.4890  -17.3791   23.1371 O   0  0  0  0  0  0  0  0  0  0  0  0
   10.1963  -13.5367   30.3909 C   0  0  0  0  0  0  0  0  0  0  0  0
    9.5684  -13.4400   28.7104 S   0  0  0  0  0  0  0  0  0  0  0  0
   10.0568  -14.8572   27.7095 C   0  0  0  0  0  0  0  0  0  0  0  0
    9.6694  -14.6381   26.2818 C   0  0  0  0  0  0  0  0  0  0  0  0
   10.0236  -15.8094   25.3935 C   0  0  2  0  0  0  0  0  0  0  0  0
    9.6476  -15.4646   24.0356 N   0  0  0  0  0  0  0  0  0  0  0  0
    9.3925  -17.0563   25.8094 C   0  0  0  0  0  0  0  0  0  0  0  0
    8.2329  -17.4835   25.1921 O   0  0  0  0  0  0  0  0  0  0  0  0
    9.8813  -17.7575   26.7229 O   0  0  0  0  0  0  0  0  0  0  0  0
  1  2  1  0
  2  3  2  0
  4  2  1  0
  5  4  1  0
  5  6  1  6
  7  5  1  0
  7  8  2  0
  9  7  1  0
 10  9  1  0
 10 11  1  6
 11 12  1  0
 12 16  1  0
 13 12  2  0
 13 14  1  0
 14 15  1  0
 16 15  2  0
 17 10  1  0
 18 17  2  0
 20 19  1  0
 21 20  1  0
 22 21  1  0
 23 22  1  1
 23 24  1  0
 24 17  1  0
 25 23  1  0
 26 25  1  0
 27 25  2  0
M  END
$$$$
