QAK.pdb
     RDKit          3D

 24 23  0  0  1  0  0  0  0  0999 V2000
   18.5065   -9.7802  -19.8386 N   0  0  0  0  0  0  0  0  0  0  0  0
   17.7523  -10.9571  -19.6237 C   0  0  0  0  0  0  0  0  0  0  0  0
   17.3532  -11.6073  -20.6302 O   0  0  0  0  0  0  0  0  0  0  0  0
   17.4252  -11.4363  -18.2556 C   0  0  0  0  0  0  0  0  0  0  0  0
   17.9893  -10.5012  -17.2126 C   0  0  0  0  0  0  0  0  0  0  0  0
   18.6578  -11.2174  -16.0843 C   0  0  2  0  0  0  0  0  0  0  0  0
   17.6917  -12.0216  -15.4060 N   0  0  0  0  0  0  0  0  0  0  0  0
   19.3978  -10.3036  -15.1787 C   0  0  0  0  0  0  0  0  0  0  0  0
   18.7956   -9.4587  -14.4673 O   0  0  0  0  0  0  0  0  0  0  0  0
   22.9979   -9.9136  -14.1967 C   0  0  0  0  0  0  0  0  0  0  0  0
   21.5610   -9.3786  -14.2550 C   0  0  2  0  0  0  0  0  0  0  0  0
   20.8156  -10.3204  -15.0550 N   0  0  0  0  0  0  0  0  0  0  0  0
   21.5179   -8.0039  -14.7680 C   0  0  0  0  0  0  0  0  0  0  0  0
   21.5887   -7.8230  -15.9931 O   0  0  0  0  0  0  0  0  0  0  0  0
   21.3976   -6.8397  -13.9338 N   0  0  0  0  0  0  0  0  0  0  0  0
   21.3724   -5.5049  -14.3595 C   0  0  1  0  0  0  0  0  0  0  0  0
   20.1321   -4.8013  -14.6996 C   0  0  0  0  0  0  0  0  0  0  0  0
   19.7624   -4.6121  -16.1301 C   0  0  0  0  0  0  0  0  0  0  0  0
   18.4592   -4.0107  -16.4599 C   0  0  0  0  0  0  0  0  0  0  0  0
   18.3657   -3.9673  -18.0038 C   0  0  0  0  0  0  0  0  0  0  0  0
   17.1167   -3.4094  -18.4305 N   0  0  0  0  0  0  0  0  0  0  0  0
   22.3234   -4.6539  -13.5618 C   0  0  0  0  0  0  0  0  0  0  0  0
   22.5322   -3.4636  -13.8889 O   0  0  0  0  0  0  0  0  0  0  0  0
   22.9924   -5.1438  -12.4558 O   0  0  0  0  0  0  0  0  0  0  0  0
  2  1  1  0
  2  3  2  0
  4  5  1  0
  4  2  1  0
  6  8  1  0
  6  7  1  1
  6  5  1  0
  8  9  2  0
 11 10  1  6
 11 13  1  0
 12 11  1  0
 12  8  1  0
 13 14  2  0
 13 15  1  0
 15 16  1  0
 16 22  1  0
 16 17  1  1
 18 17  1  0
 19 18  1  0
 20 19  1  0
 21 20  1  0
 22 23  2  0
 22 24  1  0
M  END
$$$$
