QAK.pdb
     RDKit          3D

 24 23  0  0  1  0  0  0  0  0999 V2000
   15.6232  -21.6950   -0.5593 N   0  0  0  0  0  0  0  0  0  0  0  0
   15.1690  -23.0131   -0.3216 C   0  0  0  0  0  0  0  0  0  0  0  0
   15.5497  -23.5994    0.7303 O   0  0  0  0  0  0  0  0  0  0  0  0
   14.2653  -23.7112   -1.2725 C   0  0  0  0  0  0  0  0  0  0  0  0
   14.8088  -25.0759   -1.6224 C   0  0  0  0  0  0  0  0  0  0  0  0
   15.7960  -25.0432   -2.7436 C   0  0  2  0  0  0  0  0  0  0  0  0
   15.1087  -24.7479   -3.9604 N   0  0  0  0  0  0  0  0  0  0  0  0
   16.6211  -26.2744   -2.8220 C   0  0  0  0  0  0  0  0  0  0  0  0
   16.1008  -27.3971   -3.0485 O   0  0  0  0  0  0  0  0  0  0  0  0
   20.3004  -26.9932   -2.5900 C   0  0  0  0  0  0  0  0  0  0  0  0
   18.8406  -27.4653   -2.6124 C   0  0  2  0  0  0  0  0  0  0  0  0
   18.0339  -26.2692   -2.6491 N   0  0  0  0  0  0  0  0  0  0  0  0
   18.5409  -28.3451   -1.4763 C   0  0  0  0  0  0  0  0  0  0  0  0
   17.7352  -27.9551   -0.6174 O   0  0  0  0  0  0  0  0  0  0  0  0
   19.1268  -29.6444   -1.2913 N   0  0  0  0  0  0  0  0  0  0  0  0
   18.8502  -30.5466   -0.2554 C   0  0  1  0  0  0  0  0  0  0  0  0
   17.4895  -30.8311    0.2101 C   0  0  0  0  0  0  0  0  0  0  0  0
   17.2719  -31.8700    1.2551 C   0  0  0  0  0  0  0  0  0  0  0  0
   15.8980  -32.1688    1.6931 C   0  0  0  0  0  0  0  0  0  0  0  0
   16.0063  -33.2482    2.7966 C   0  0  0  0  0  0  0  0  0  0  0  0
   14.7158  -33.5797    3.3237 N   0  0  0  0  0  0  0  0  0  0  0  0
   19.6989  -31.7850   -0.3617 C   0  0  0  0  0  0  0  0  0  0  0  0
   19.9047  -32.3158   -1.4767 O   0  0  0  0  0  0  0  0  0  0  0  0
   20.2749  -32.3750    0.7477 O   0  0  0  0  0  0  0  0  0  0  0  0
  2  1  1  0
  2  3  2  0
  4  5  1  0
  4  2  1  0
  6  8  1  0
  6  7  1  6
  6  5  1  0
  8  9  2  0
 11 10  1  1
 11 13  1  0
 12 11  1  0
 12  8  1  0
 13 14  2  0
 13 15  1  0
 15 16  1  0
 16 22  1  0
 16 17  1  6
 18 17  1  0
 19 18  1  0
 20 19  1  0
 21 20  1  0
 22 23  2  0
 22 24  1  0
M  END
$$$$
