QAK.pdb
     RDKit          3D

 24 23  0  0  1  0  0  0  0  0999 V2000
   19.2232  -17.7511  -17.4828 N   0  0  0  0  0  0  0  0  0  0  0  0
   18.5383  -18.3950  -16.4262 C   0  0  0  0  0  0  0  0  0  0  0  0
   18.9765  -19.5057  -16.0145 O   0  0  0  0  0  0  0  0  0  0  0  0
   17.3300  -17.7980  -15.8001 C   0  0  0  0  0  0  0  0  0  0  0  0
   16.9119  -16.5455  -16.5327 C   0  0  0  0  0  0  0  0  0  0  0  0
   17.6834  -15.3365  -16.1129 C   0  0  2  0  0  0  0  0  0  0  0  0
   17.7835  -15.3199  -14.6882 N   0  0  0  0  0  0  0  0  0  0  0  0
   17.1341  -14.0777  -16.6754 C   0  0  0  0  0  0  0  0  0  0  0  0
   16.9360  -13.9449  -17.9106 O   0  0  0  0  0  0  0  0  0  0  0  0
   14.9504  -11.4569  -15.7929 C   0  0  0  0  0  0  0  0  0  0  0  0
   16.3381  -11.6943  -16.4029 C   0  0  2  0  0  0  0  0  0  0  0  0
   16.7995  -12.9533  -15.8694 N   0  0  0  0  0  0  0  0  0  0  0  0
   17.2445  -10.5714  -16.1342 C   0  0  0  0  0  0  0  0  0  0  0  0
   17.9291  -10.5930  -15.1000 O   0  0  0  0  0  0  0  0  0  0  0  0
   17.3927   -9.4347  -17.0013 N   0  0  0  0  0  0  0  0  0  0  0  0
   17.6025   -8.1058  -16.6094 C   0  0  1  0  0  0  0  0  0  0  0  0
   16.5261   -7.1120  -16.5575 C   0  0  0  0  0  0  0  0  0  0  0  0
   16.8238   -5.7291  -16.0908 C   0  0  0  0  0  0  0  0  0  0  0  0
   15.7111   -4.7856  -15.8899 C   0  0  0  0  0  0  0  0  0  0  0  0
   16.3285   -3.4788  -15.3370 C   0  0  0  0  0  0  0  0  0  0  0  0
   15.3096   -2.5646  -14.9135 N   0  0  0  0  0  0  0  0  0  0  0  0
   18.5307   -8.0196  -15.4279 C   0  0  0  0  0  0  0  0  0  0  0  0
   18.1507   -8.3996  -14.2971 O   0  0  0  0  0  0  0  0  0  0  0  0
   19.8169   -7.5262  -15.5419 O   0  0  0  0  0  0  0  0  0  0  0  0
  2  1  1  0
  2  3  2  0
  4  5  1  0
  4  2  1  0
  6  8  1  0
  6  7  1  1
  6  5  1  0
  8  9  2  0
 11 10  1  1
 11 13  1  0
 12 11  1  0
 12  8  1  0
 13 14  2  0
 13 15  1  0
 15 16  1  0
 16 22  1  0
 16 17  1  1
 18 17  1  0
 19 18  1  0
 20 19  1  0
 21 20  1  0
 22 23  2  0
 22 24  1  0
M  END
$$$$
