QAK.pdb
     RDKit          3D

 24 23  0  0  1  0  0  0  0  0999 V2000
   19.6661  -16.2650  -15.5233 N   0  0  0  0  0  0  0  0  0  0  0  0
   19.4299  -15.7845  -16.8323 C   0  0  0  0  0  0  0  0  0  0  0  0
   19.8151  -16.4866  -17.8089 O   0  0  0  0  0  0  0  0  0  0  0  0
   18.7467  -14.4876  -17.0768 C   0  0  0  0  0  0  0  0  0  0  0  0
   18.3601  -13.8328  -15.7722 C   0  0  0  0  0  0  0  0  0  0  0  0
   17.6607  -12.5254  -15.9579 C   0  0  2  0  0  0  0  0  0  0  0  0
   18.0738  -11.9486  -17.1976 N   0  0  0  0  0  0  0  0  0  0  0  0
   17.8311  -11.6107  -14.8016 C   0  0  0  0  0  0  0  0  0  0  0  0
   17.4933  -11.9552  -13.6398 O   0  0  0  0  0  0  0  0  0  0  0  0
   19.2758   -8.1742  -14.3523 C   0  0  0  0  0  0  0  0  0  0  0  0
   18.4333   -9.3511  -13.8426 C   0  0  2  0  0  0  0  0  0  0  0  0
   18.3791  -10.3030  -14.9259 N   0  0  0  0  0  0  0  0  0  0  0  0
   17.1129   -8.9080  -13.3791 C   0  0  0  0  0  0  0  0  0  0  0  0
   16.1910   -8.8193  -14.2043 O   0  0  0  0  0  0  0  0  0  0  0  0
   16.8143   -8.5662  -12.0153 N   0  0  0  0  0  0  0  0  0  0  0  0
   15.5732   -8.1596  -11.5077 C   0  0  1  0  0  0  0  0  0  0  0  0
   14.9711   -8.7513  -10.3091 C   0  0  0  0  0  0  0  0  0  0  0  0
   13.6293   -8.2898   -9.8558 C   0  0  0  0  0  0  0  0  0  0  0  0
   13.0558   -8.8557   -8.6231 C   0  0  0  0  0  0  0  0  0  0  0  0
   11.6262   -8.2786   -8.4903 C   0  0  0  0  0  0  0  0  0  0  0  0
   10.9353   -8.8604   -7.3779 N   0  0  0  0  0  0  0  0  0  0  0  0
   15.4214   -6.6630  -11.5561 C   0  0  0  0  0  0  0  0  0  0  0  0
   14.3035   -6.1488  -11.7868 O   0  0  0  0  0  0  0  0  0  0  0  0
   16.4910   -5.8118  -11.3514 O   0  0  0  0  0  0  0  0  0  0  0  0
  2  1  1  0
  2  3  2  0
  4  5  1  0
  4  2  1  0
  6  8  1  0
  6  7  1  6
  6  5  1  0
  8  9  2  0
 11 10  1  6
 11 13  1  0
 12 11  1  0
 12  8  1  0
 13 14  2  0
 13 15  1  0
 15 16  1  0
 16 22  1  0
 16 17  1  1
 18 17  1  0
 19 18  1  0
 20 19  1  0
 21 20  1  0
 22 23  2  0
 22 24  1  0
M  END
$$$$
