QAK.pdb
     RDKit          3D

 24 23  0  0  1  0  0  0  0  0999 V2000
   15.4473  -12.2460  -16.6376 N   0  0  0  0  0  0  0  0  0  0  0  0
   16.2144  -13.3254  -17.1341 C   0  0  0  0  0  0  0  0  0  0  0  0
   15.6312  -14.2128  -17.8180 O   0  0  0  0  0  0  0  0  0  0  0  0
   17.6728  -13.4338  -16.8702 C   0  0  0  0  0  0  0  0  0  0  0  0
   18.1419  -12.3017  -15.9878 C   0  0  0  0  0  0  0  0  0  0  0  0
   19.3626  -11.6178  -16.5121 C   0  0  2  0  0  0  0  0  0  0  0  0
   20.2700  -12.6022  -17.0099 N   0  0  0  0  0  0  0  0  0  0  0  0
   19.9802  -10.7006  -15.5220 C   0  0  0  0  0  0  0  0  0  0  0  0
   19.2752   -9.9817  -14.7679 O   0  0  0  0  0  0  0  0  0  0  0  0
   23.4434  -10.1639  -14.2318 C   0  0  0  0  0  0  0  0  0  0  0  0
   22.0093   -9.6573  -14.4347 C   0  0  2  0  0  0  0  0  0  0  0  0
   21.3886  -10.5739  -15.3606 N   0  0  0  0  0  0  0  0  0  0  0  0
   21.9896   -8.2601  -14.8842 C   0  0  0  0  0  0  0  0  0  0  0  0
   22.2799   -8.0100  -16.0641 O   0  0  0  0  0  0  0  0  0  0  0  0
   21.6520   -7.1493  -14.0369 N   0  0  0  0  0  0  0  0  0  0  0  0
   21.5543   -5.8050  -14.4198 C   0  0  1  0  0  0  0  0  0  0  0  0
   20.2706   -5.1254  -14.6187 C   0  0  0  0  0  0  0  0  0  0  0  0
   19.2471   -5.7340  -15.5135 C   0  0  0  0  0  0  0  0  0  0  0  0
   17.9211   -5.1021  -15.6193 C   0  0  0  0  0  0  0  0  0  0  0  0
   17.0851   -5.9779  -16.5828 C   0  0  0  0  0  0  0  0  0  0  0  0
   15.7616   -5.4523  -16.7423 N   0  0  0  0  0  0  0  0  0  0  0  0
   22.5578   -4.9506  -13.6931 C   0  0  0  0  0  0  0  0  0  0  0  0
   23.1383   -5.3872  -12.6734 O   0  0  0  0  0  0  0  0  0  0  0  0
   22.8729   -3.6725  -14.1150 O   0  0  0  0  0  0  0  0  0  0  0  0
  2  1  1  0
  2  3  2  0
  4  5  1  0
  4  2  1  0
  6  8  1  0
  6  7  1  1
  6  5  1  0
  8  9  2  0
 11 10  1  6
 11 13  1  0
 12 11  1  0
 12  8  1  0
 13 14  2  0
 13 15  1  0
 15 16  1  0
 16 22  1  0
 16 17  1  1
 18 17  1  0
 19 18  1  0
 20 19  1  0
 21 20  1  0
 22 23  2  0
 22 24  1  0
M  END
$$$$
