QAK.pdb
     RDKit          3D

 24 23  0  0  1  0  0  0  0  0999 V2000
   16.9747  -14.9055  -17.7568 N   0  0  0  0  0  0  0  0  0  0  0  0
   17.0805  -14.0840  -16.6105 C   0  0  0  0  0  0  0  0  0  0  0  0
   16.1012  -14.0341  -15.8144 O   0  0  0  0  0  0  0  0  0  0  0  0
   18.3046  -13.2898  -16.3289 C   0  0  0  0  0  0  0  0  0  0  0  0
   18.0339  -11.8136  -16.4953 C   0  0  0  0  0  0  0  0  0  0  0  0
   17.0470  -11.2840  -15.5061 C   0  0  2  0  0  0  0  0  0  0  0  0
   15.7741  -11.1562  -16.1414 N   0  0  0  0  0  0  0  0  0  0  0  0
   17.5020  -10.0325  -14.8507 C   0  0  0  0  0  0  0  0  0  0  0  0
   17.5462   -8.9438  -15.4793 O   0  0  0  0  0  0  0  0  0  0  0  0
   18.5592   -9.1402  -11.3576 C   0  0  0  0  0  0  0  0  0  0  0  0
   18.3646   -8.7749  -12.8351 C   0  0  2  0  0  0  0  0  0  0  0  0
   17.9124   -9.9794  -13.4889 N   0  0  0  0  0  0  0  0  0  0  0  0
   19.5888   -8.2113  -13.4169 C   0  0  0  0  0  0  0  0  0  0  0  0
   20.2359   -8.8974  -14.2226 O   0  0  0  0  0  0  0  0  0  0  0  0
   20.0931   -6.9007  -13.1105 N   0  0  0  0  0  0  0  0  0  0  0  0
   21.1173   -6.2206  -13.7827 C   0  0  1  0  0  0  0  0  0  0  0  0
   21.2357   -6.2033  -15.2438 C   0  0  0  0  0  0  0  0  0  0  0  0
   22.3245   -5.4139  -15.8841 C   0  0  0  0  0  0  0  0  0  0  0  0
   22.4791   -5.4624  -17.3479 C   0  0  0  0  0  0  0  0  0  0  0  0
   23.7408   -4.6348  -17.6909 C   0  0  0  0  0  0  0  0  0  0  0  0
   23.9410   -4.5613  -19.1079 N   0  0  0  0  0  0  0  0  0  0  0  0
   21.3861   -4.8762  -13.1619 C   0  0  0  0  0  0  0  0  0  0  0  0
   20.4375   -4.1084  -12.8825 O   0  0  0  0  0  0  0  0  0  0  0  0
   22.6683   -4.4432  -12.8804 O   0  0  0  0  0  0  0  0  0  0  0  0
  2  1  1  0
  2  3  2  0
  4  5  1  0
  4  2  1  0
  6  8  1  0
  6  7  1  6
  6  5  1  0
  8  9  2  0
 11 10  1  1
 11 13  1  0
 12 11  1  0
 12  8  1  0
 13 14  2  0
 13 15  1  0
 15 16  1  0
 16 22  1  0
 16 17  1  6
 18 17  1  0
 19 18  1  0
 20 19  1  0
 21 20  1  0
 22 23  2  0
 22 24  1  0
M  END
$$$$
