QAK.pdb
     RDKit          3D

 24 23  0  0  1  0  0  0  0  0999 V2000
   29.4080  -19.2097  -17.6036 N   0  0  0  0  0  0  0  0  0  0  0  0
   28.3562  -18.5518  -16.9245 C   0  0  0  0  0  0  0  0  0  0  0  0
   27.3818  -18.1190  -17.6015 O   0  0  0  0  0  0  0  0  0  0  0  0
   28.3756  -18.3630  -15.4506 C   0  0  0  0  0  0  0  0  0  0  0  0
   27.2216  -19.0906  -14.8033 C   0  0  0  0  0  0  0  0  0  0  0  0
   27.6197  -20.3961  -14.1950 C   0  0  2  0  0  0  0  0  0  0  0  0
   28.0981  -21.2627  -15.2247 N   0  0  0  0  0  0  0  0  0  0  0  0
   26.5422  -21.0025  -13.3739 C   0  0  0  0  0  0  0  0  0  0  0  0
   25.5929  -21.6348  -13.9044 O   0  0  0  0  0  0  0  0  0  0  0  0
   25.7359  -20.9150   -9.7032 C   0  0  0  0  0  0  0  0  0  0  0  0
   25.3294  -21.1613  -11.1621 C   0  0  2  0  0  0  0  0  0  0  0  0
   26.5099  -20.9117  -11.9539 N   0  0  0  0  0  0  0  0  0  0  0  0
   24.1758  -20.3391  -11.5465 C   0  0  0  0  0  0  0  0  0  0  0  0
   24.3724  -19.3123  -12.2143 O   0  0  0  0  0  0  0  0  0  0  0  0
   22.8169  -20.6493  -11.1958 N   0  0  0  0  0  0  0  0  0  0  0  0
   21.7100  -20.6459  -12.0550 C   0  0  1  0  0  0  0  0  0  0  0  0
   21.7505  -21.2099  -13.4075 C   0  0  0  0  0  0  0  0  0  0  0  0
   20.5769  -21.0430  -14.3094 C   0  0  0  0  0  0  0  0  0  0  0  0
   20.6405  -21.5875  -15.6763 C   0  0  0  0  0  0  0  0  0  0  0  0
   19.2738  -21.2913  -16.3386 C   0  0  0  0  0  0  0  0  0  0  0  0
   19.2315  -21.7895  -17.6815 N   0  0  0  0  0  0  0  0  0  0  0  0
   20.4413  -20.9873  -11.3207 C   0  0  0  0  0  0  0  0  0  0  0  0
   20.1521  -22.1816  -11.0810 O   0  0  0  0  0  0  0  0  0  0  0  0
   19.5605  -20.0132  -10.8894 O   0  0  0  0  0  0  0  0  0  0  0  0
  2  1  1  0
  2  3  2  0
  4  5  1  0
  4  2  1  0
  6  8  1  0
  6  7  1  6
  6  5  1  0
  8  9  2  0
 11 10  1  1
 11 13  1  0
 12 11  1  0
 12  8  1  0
 13 14  2  0
 13 15  1  0
 15 16  1  0
 16 22  1  0
 16 17  1  6
 18 17  1  0
 19 18  1  0
 20 19  1  0
 21 20  1  0
 22 23  2  0
 22 24  1  0
M  END
$$$$
