QAK.pdb
     RDKit          3D

 24 23  0  0  1  0  0  0  0  0999 V2000
   23.3560  -20.4132  -12.1933 N   0  0  0  0  0  0  0  0  0  0  0  0
   22.9291  -20.5230  -10.8495 C   0  0  0  0  0  0  0  0  0  0  0  0
   21.6963  -20.6748  -10.6211 O   0  0  0  0  0  0  0  0  0  0  0  0
   23.8900  -20.4641   -9.7173 C   0  0  0  0  0  0  0  0  0  0  0  0
   25.2760  -20.1227  -10.2099 C   0  0  0  0  0  0  0  0  0  0  0  0
   25.7505  -21.0296  -11.2986 C   0  0  2  0  0  0  0  0  0  0  0  0
   26.4703  -22.1177  -10.7172 N   0  0  0  0  0  0  0  0  0  0  0  0
   26.5174  -20.3164  -12.3503 C   0  0  0  0  0  0  0  0  0  0  0  0
   27.0499  -19.1988  -12.1271 O   0  0  0  0  0  0  0  0  0  0  0  0
   28.2914  -21.3397  -15.3587 C   0  0  0  0  0  0  0  0  0  0  0  0
   27.5180  -20.2083  -14.6687 C   0  0  2  0  0  0  0  0  0  0  0  0
   26.6997  -20.8394  -13.6614 N   0  0  0  0  0  0  0  0  0  0  0  0
   26.7541  -19.4099  -15.6350 C   0  0  0  0  0  0  0  0  0  0  0  0
   25.7416  -19.9078  -16.1506 O   0  0  0  0  0  0  0  0  0  0  0  0
   27.1065  -18.0731  -16.0279 N   0  0  0  0  0  0  0  0  0  0  0  0
   26.5229  -17.3228  -17.0574 C   0  0  1  0  0  0  0  0  0  0  0  0
   27.2793  -16.3692  -17.8746 C   0  0  0  0  0  0  0  0  0  0  0  0
   26.5931  -15.6380  -18.9760 C   0  0  0  0  0  0  0  0  0  0  0  0
   27.3453  -14.6336  -19.7468 C   0  0  0  0  0  0  0  0  0  0  0  0
   26.3136  -13.8703  -20.6113 C   0  0  0  0  0  0  0  0  0  0  0  0
   25.7188  -14.7332  -21.5885 N   0  0  0  0  0  0  0  0  0  0  0  0
   25.5653  -18.1526  -17.8695 C   0  0  0  0  0  0  0  0  0  0  0  0
   24.3392  -17.8998  -17.8526 O   0  0  0  0  0  0  0  0  0  0  0  0
   25.9936  -19.2081  -18.6526 O   0  0  0  0  0  0  0  0  0  0  0  0
  2  1  1  0
  2  3  2  0
  4  5  1  0
  4  2  1  0
  6  8  1  0
  6  7  1  1
  6  5  1  0
  8  9  2  0
 11 10  1  6
 11 13  1  0
 12 11  1  0
 12  8  1  0
 13 14  2  0
 13 15  1  0
 15 16  1  0
 16 22  1  0
 16 17  1  6
 18 17  1  0
 19 18  1  0
 20 19  1  0
 21 20  1  0
 22 23  2  0
 22 24  1  0
M  END
$$$$
