QAK.pdb
     RDKit          3D

 24 23  0  0  1  0  0  0  0  0999 V2000
   20.0688   -8.2138  -10.4676 N   0  0  0  0  0  0  0  0  0  0  0  0
   20.2781   -8.9394  -11.6633 C   0  0  0  0  0  0  0  0  0  0  0  0
   21.3992   -9.4929  -11.8420 O   0  0  0  0  0  0  0  0  0  0  0  0
   19.2190   -9.0612  -12.6987 C   0  0  0  0  0  0  0  0  0  0  0  0
   18.0127   -8.2313  -12.3295 C   0  0  0  0  0  0  0  0  0  0  0  0
   17.1472   -8.8821  -11.2998 C   0  0  2  0  0  0  0  0  0  0  0  0
   16.5905  -10.0778  -11.8480 N   0  0  0  0  0  0  0  0  0  0  0  0
   16.1241   -7.9630  -10.7417 C   0  0  0  0  0  0  0  0  0  0  0  0
   15.1516   -7.5682  -11.4352 O   0  0  0  0  0  0  0  0  0  0  0  0
   15.1300   -6.8326   -7.3647 C   0  0  0  0  0  0  0  0  0  0  0  0
   15.2268   -6.5270   -8.8653 C   0  0  2  0  0  0  0  0  0  0  0  0
   16.1724   -7.4736   -9.4061 N   0  0  0  0  0  0  0  0  0  0  0  0
   15.5897   -5.1255   -9.1078 C   0  0  0  0  0  0  0  0  0  0  0  0
   16.7894   -4.8103   -9.0949 O   0  0  0  0  0  0  0  0  0  0  0  0
   14.6348   -4.0819   -9.3622 N   0  0  0  0  0  0  0  0  0  0  0  0
   14.9191   -2.7412   -9.6540 C   0  0  1  0  0  0  0  0  0  0  0  0
   14.2725   -2.0103  -10.7479 C   0  0  0  0  0  0  0  0  0  0  0  0
   14.5702   -0.5640  -10.9431 C   0  0  0  0  0  0  0  0  0  0  0  0
   13.9300    0.1554  -12.0573 C   0  0  0  0  0  0  0  0  0  0  0  0
   14.4939    1.5963  -12.0407 C   0  0  0  0  0  0  0  0  0  0  0  0
   13.8819    2.3788  -11.0080 N   0  0  0  0  0  0  0  0  0  0  0  0
   15.0446   -1.9188   -8.3998 C   0  0  0  0  0  0  0  0  0  0  0  0
   14.1956   -2.0268   -7.4861 O   0  0  0  0  0  0  0  0  0  0  0  0
   16.0839   -1.0274   -8.2100 O   0  0  0  0  0  0  0  0  0  0  0  0
  2  1  1  0
  2  3  2  0
  4  5  1  0
  4  2  1  0
  6  8  1  0
  6  7  1  6
  6  5  1  0
  8  9  2  0
 11 10  1  1
 11 13  1  0
 12 11  1  0
 12  8  1  0
 13 14  2  0
 13 15  1  0
 15 16  1  0
 16 22  1  0
 16 17  1  6
 18 17  1  0
 19 18  1  0
 20 19  1  0
 21 20  1  0
 22 23  2  0
 22 24  1  0
M  END
$$$$
