QAK.pdb
     RDKit          3D

 24 23  0  0  1  0  0  0  0  0999 V2000
   27.0404  -16.9650  -17.5285 N   0  0  0  0  0  0  0  0  0  0  0  0
   28.2543  -17.6523  -17.2955 C   0  0  0  0  0  0  0  0  0  0  0  0
   29.0189  -17.8711  -18.2766 O   0  0  0  0  0  0  0  0  0  0  0  0
   28.6415  -18.1153  -15.9375 C   0  0  0  0  0  0  0  0  0  0  0  0
   27.4934  -18.8344  -15.2704 C   0  0  0  0  0  0  0  0  0  0  0  0
   27.8229  -20.2431  -14.8965 C   0  0  2  0  0  0  0  0  0  0  0  0
   28.3024  -20.9315  -16.0526 N   0  0  0  0  0  0  0  0  0  0  0  0
   26.6974  -20.9402  -14.2257 C   0  0  0  0  0  0  0  0  0  0  0  0
   25.8504  -21.5980  -14.8833 O   0  0  0  0  0  0  0  0  0  0  0  0
   25.6094  -21.3580  -10.6553 C   0  0  0  0  0  0  0  0  0  0  0  0
   25.3201  -21.4180  -12.1610 C   0  0  2  0  0  0  0  0  0  0  0  0
   26.5026  -20.9128  -12.8160 N   0  0  0  0  0  0  0  0  0  0  0  0
   24.0958  -20.6846  -12.5044 C   0  0  0  0  0  0  0  0  0  0  0  0
   24.0422  -19.4691  -12.2626 O   0  0  0  0  0  0  0  0  0  0  0  0
   22.9411  -21.2896  -13.1097 N   0  0  0  0  0  0  0  0  0  0  0  0
   21.7568  -20.6411  -13.4843 C   0  0  1  0  0  0  0  0  0  0  0  0
   21.4333  -20.3165  -14.8768 C   0  0  0  0  0  0  0  0  0  0  0  0
   20.9623  -18.9463  -15.2222 C   0  0  0  0  0  0  0  0  0  0  0  0
   20.6851  -18.6178  -16.6308 C   0  0  0  0  0  0  0  0  0  0  0  0
   20.1859  -17.1534  -16.6575 C   0  0  0  0  0  0  0  0  0  0  0  0
   19.8543  -16.7446  -17.9903 N   0  0  0  0  0  0  0  0  0  0  0  0
   20.5730  -21.1712  -12.7210 C   0  0  0  0  0  0  0  0  0  0  0  0
   19.5449  -20.4702  -12.5834 O   0  0  0  0  0  0  0  0  0  0  0  0
   20.5736  -22.4307  -12.1515 O   0  0  0  0  0  0  0  0  0  0  0  0
  2  1  1  0
  2  3  2  0
  4  5  1  0
  4  2  1  0
  6  8  1  0
  6  7  1  6
  6  5  1  0
  8  9  2  0
 11 10  1  1
 11 13  1  0
 12 11  1  0
 12  8  1  0
 13 14  2  0
 13 15  1  0
 15 16  1  0
 16 22  1  0
 16 17  1  6
 18 17  1  0
 19 18  1  0
 20 19  1  0
 21 20  1  0
 22 23  2  0
 22 24  1  0
M  END
$$$$
