QAK.pdb
     RDKit          3D

 24 23  0  0  1  0  0  0  0  0999 V2000
   17.5680  -10.1566  -14.9935 N   0  0  0  0  0  0  0  0  0  0  0  0
   17.8532  -11.3196  -14.2410 C   0  0  0  0  0  0  0  0  0  0  0  0
   18.2315  -12.3557  -14.8561 O   0  0  0  0  0  0  0  0  0  0  0  0
   17.7180  -11.3451  -12.7613 C   0  0  0  0  0  0  0  0  0  0  0  0
   17.2562  -10.0038  -12.2436 C   0  0  0  0  0  0  0  0  0  0  0  0
   16.1407  -10.1102  -11.2551 C   0  0  2  0  0  0  0  0  0  0  0  0
   15.1326  -10.9740  -11.7821 N   0  0  0  0  0  0  0  0  0  0  0  0
   15.6156   -8.7876  -10.8332 C   0  0  0  0  0  0  0  0  0  0  0  0
   15.0213   -8.0310  -11.6438 O   0  0  0  0  0  0  0  0  0  0  0  0
   15.3673   -6.9773   -7.5583 C   0  0  0  0  0  0  0  0  0  0  0  0
   15.3051   -6.9827   -9.0914 C   0  0  2  0  0  0  0  0  0  0  0  0
   15.7461   -8.2931   -9.5050 N   0  0  0  0  0  0  0  0  0  0  0  0
   16.0927   -5.8857   -9.6668 C   0  0  0  0  0  0  0  0  0  0  0  0
   17.2172   -6.1372  -10.1262 O   0  0  0  0  0  0  0  0  0  0  0  0
   15.6411   -4.5229   -9.7337 N   0  0  0  0  0  0  0  0  0  0  0  0
   16.0461   -3.5522  -10.6595 C   0  0  1  0  0  0  0  0  0  0  0  0
   16.2064   -3.8338  -12.0892 C   0  0  0  0  0  0  0  0  0  0  0  0
   16.5980   -2.7353  -13.0158 C   0  0  0  0  0  0  0  0  0  0  0  0
   16.8203   -3.0431  -14.4387 C   0  0  0  0  0  0  0  0  0  0  0  0
   17.2581   -1.7233  -15.1176 C   0  0  0  0  0  0  0  0  0  0  0  0
   17.3962   -1.8918  -16.5339 N   0  0  0  0  0  0  0  0  0  0  0  0
   15.3776   -2.2291  -10.3991 C   0  0  0  0  0  0  0  0  0  0  0  0
   14.2065   -2.1892   -9.9585 O   0  0  0  0  0  0  0  0  0  0  0  0
   16.0187   -1.0268  -10.6318 O   0  0  0  0  0  0  0  0  0  0  0  0
  2  1  1  0
  2  3  2  0
  4  5  1  0
  4  2  1  0
  6  8  1  0
  6  7  1  6
  6  5  1  0
  8  9  2  0
 11 10  1  1
 11 13  1  0
 12 11  1  0
 12  8  1  0
 13 14  2  0
 13 15  1  0
 15 16  1  0
 16 22  1  0
 16 17  1  6
 18 17  1  0
 19 18  1  0
 20 19  1  0
 21 20  1  0
 22 23  2  0
 22 24  1  0
M  END
$$$$
