QAK.pdb
     RDKit          3D

 24 23  0  0  1  0  0  0  0  0999 V2000
   21.1354  -11.9117  -20.3806 N   0  0  0  0  0  0  0  0  0  0  0  0
   19.7979  -12.3713  -20.3830 C   0  0  0  0  0  0  0  0  0  0  0  0
   19.4056  -13.0737  -21.3566 O   0  0  0  0  0  0  0  0  0  0  0  0
   18.8588  -12.0482  -19.2775 C   0  0  0  0  0  0  0  0  0  0  0  0
   19.5120  -11.1292  -18.2729 C   0  0  0  0  0  0  0  0  0  0  0  0
   19.7856  -11.7937  -16.9628 C   0  0  2  0  0  0  0  0  0  0  0  0
   18.6467  -12.5699  -16.5878 N   0  0  0  0  0  0  0  0  0  0  0  0
   20.2151  -10.8393  -15.9104 C   0  0  0  0  0  0  0  0  0  0  0  0
   19.3845  -10.1080  -15.3122 O   0  0  0  0  0  0  0  0  0  0  0  0
   23.4066  -10.2102  -14.0722 C   0  0  0  0  0  0  0  0  0  0  0  0
   22.0167   -9.7393  -14.5203 C   0  0  2  0  0  0  0  0  0  0  0  0
   21.5733  -10.6886  -15.5127 N   0  0  0  0  0  0  0  0  0  0  0  0
   22.0463   -8.3527  -15.0013 C   0  0  0  0  0  0  0  0  0  0  0  0
   22.4784   -8.1272  -16.1420 O   0  0  0  0  0  0  0  0  0  0  0  0
   21.6022   -7.2256  -14.2280 N   0  0  0  0  0  0  0  0  0  0  0  0
   21.5573   -5.8893  -14.6473 C   0  0  1  0  0  0  0  0  0  0  0  0
   20.3217   -5.2342  -15.0869 C   0  0  0  0  0  0  0  0  0  0  0  0
   19.6816   -5.6533  -16.3649 C   0  0  0  0  0  0  0  0  0  0  0  0
   18.2970   -6.1543  -16.3422 C   0  0  0  0  0  0  0  0  0  0  0  0
   17.9207   -6.4924  -17.8046 C   0  0  0  0  0  0  0  0  0  0  0  0
   16.5639   -6.9437  -17.8980 N   0  0  0  0  0  0  0  0  0  0  0  0
   22.4018   -5.0070  -13.7678 C   0  0  0  0  0  0  0  0  0  0  0  0
   22.8383   -5.4360  -12.6757 O   0  0  0  0  0  0  0  0  0  0  0  0
   22.7234   -3.7108  -14.1244 O   0  0  0  0  0  0  0  0  0  0  0  0
  2  1  1  0
  2  3  2  0
  4  5  1  0
  4  2  1  0
  6  8  1  0
  6  7  1  1
  6  5  1  0
  8  9  2  0
 11 10  1  6
 11 13  1  0
 12 11  1  0
 12  8  1  0
 13 14  2  0
 13 15  1  0
 15 16  1  0
 16 22  1  0
 16 17  1  1
 18 17  1  0
 19 18  1  0
 20 19  1  0
 21 20  1  0
 22 23  2  0
 22 24  1  0
M  END
$$$$
