QAK.pdb
     RDKit          3D

 24 23  0  0  1  0  0  0  0  0999 V2000
   22.2620  -11.4442  -20.3737 N   0  0  0  0  0  0  0  0  0  0  0  0
   21.0661  -11.9861  -20.8992 C   0  0  0  0  0  0  0  0  0  0  0  0
   21.1165  -12.5933  -22.0055 O   0  0  0  0  0  0  0  0  0  0  0  0
   19.7696  -11.8564  -20.1844 C   0  0  0  0  0  0  0  0  0  0  0  0
   19.9311  -11.0316  -18.9299 C   0  0  0  0  0  0  0  0  0  0  0  0
   20.3051  -11.8487  -17.7360 C   0  0  2  0  0  0  0  0  0  0  0  0
   19.2483  -12.7660  -17.4502 N   0  0  0  0  0  0  0  0  0  0  0  0
   20.6918  -11.0193  -16.5675 C   0  0  0  0  0  0  0  0  0  0  0  0
   19.8312  -10.3949  -15.8951 O   0  0  0  0  0  0  0  0  0  0  0  0
   23.8967  -10.4196  -14.7171 C   0  0  0  0  0  0  0  0  0  0  0  0
   22.4413  -10.0442  -15.0258 C   0  0  2  0  0  0  0  0  0  0  0  0
   22.0401  -10.8761  -16.1348 N   0  0  0  0  0  0  0  0  0  0  0  0
   22.2985   -8.6063  -15.2843 C   0  0  0  0  0  0  0  0  0  0  0  0
   22.5901   -8.1717  -16.4090 O   0  0  0  0  0  0  0  0  0  0  0  0
   21.8376   -7.6575  -14.3081 N   0  0  0  0  0  0  0  0  0  0  0  0
   21.7119   -6.2728  -14.4822 C   0  0  1  0  0  0  0  0  0  0  0  0
   20.4919   -5.6427  -14.9958 C   0  0  0  0  0  0  0  0  0  0  0  0
   19.9707   -6.0327  -16.3355 C   0  0  0  0  0  0  0  0  0  0  0  0
   18.7070   -5.4452  -16.8116 C   0  0  0  0  0  0  0  0  0  0  0  0
   18.4306   -6.0527  -18.2076 C   0  0  0  0  0  0  0  0  0  0  0  0
   17.2223   -5.5263  -18.7702 N   0  0  0  0  0  0  0  0  0  0  0  0
   22.3168   -5.5153  -13.3309 C   0  0  0  0  0  0  0  0  0  0  0  0
   22.5213   -4.2837  -13.4231 O   0  0  0  0  0  0  0  0  0  0  0  0
   22.6646   -6.1383  -12.1470 O   0  0  0  0  0  0  0  0  0  0  0  0
  2  1  1  0
  2  3  2  0
  4  5  1  0
  4  2  1  0
  6  8  1  0
  6  7  1  1
  6  5  1  0
  8  9  2  0
 11 10  1  6
 11 13  1  0
 12 11  1  0
 12  8  1  0
 13 14  2  0
 13 15  1  0
 15 16  1  0
 16 22  1  0
 16 17  1  1
 18 17  1  0
 19 18  1  0
 20 19  1  0
 21 20  1  0
 22 23  2  0
 22 24  1  0
M  END
$$$$
