QAK.pdb
     RDKit          3D

 24 23  0  0  1  0  0  0  0  0999 V2000
   13.4737   -9.5095  -16.9812 N   0  0  0  0  0  0  0  0  0  0  0  0
   13.3846  -10.9204  -16.9426 C   0  0  0  0  0  0  0  0  0  0  0  0
   12.8701  -11.5173  -17.9296 O   0  0  0  0  0  0  0  0  0  0  0  0
   13.8779  -11.7027  -15.7794 C   0  0  0  0  0  0  0  0  0  0  0  0
   14.3776  -10.7836  -14.6904 C   0  0  0  0  0  0  0  0  0  0  0  0
   15.7801  -11.0822  -14.2700 C   0  0  2  0  0  0  0  0  0  0  0  0
   15.8570  -12.4413  -13.8375 N   0  0  0  0  0  0  0  0  0  0  0  0
   16.2993  -10.1191  -13.2672 C   0  0  0  0  0  0  0  0  0  0  0  0
   15.7898  -10.0306  -12.1204 O   0  0  0  0  0  0  0  0  0  0  0  0
   19.1762   -7.7083  -13.1861 C   0  0  0  0  0  0  0  0  0  0  0  0
   17.8784   -8.2665  -12.5871 C   0  0  2  0  0  0  0  0  0  0  0  0
   17.3909   -9.2443  -13.5299 N   0  0  0  0  0  0  0  0  0  0  0  0
   16.9162   -7.1973  -12.2945 C   0  0  0  0  0  0  0  0  0  0  0  0
   16.2821   -6.6933  -13.2341 O   0  0  0  0  0  0  0  0  0  0  0  0
   16.6572   -6.6899  -10.9750 N   0  0  0  0  0  0  0  0  0  0  0  0
   15.8311   -5.6081  -10.6423 C   0  0  1  0  0  0  0  0  0  0  0  0
   14.3940   -5.7520  -10.3910 C   0  0  0  0  0  0  0  0  0  0  0  0
   13.9260   -6.2814   -9.0798 C   0  0  0  0  0  0  0  0  0  0  0  0
   12.4797   -6.4096   -8.8338 C   0  0  0  0  0  0  0  0  0  0  0  0
   12.3179   -6.9318   -7.3862 C   0  0  0  0  0  0  0  0  0  0  0  0
   10.9381   -6.9675   -7.0009 N   0  0  0  0  0  0  0  0  0  0  0  0
   16.5024   -4.6824   -9.6637 C   0  0  0  0  0  0  0  0  0  0  0  0
   16.0469   -3.5329   -9.4672 O   0  0  0  0  0  0  0  0  0  0  0  0
   17.6285   -5.0578   -8.9554 O   0  0  0  0  0  0  0  0  0  0  0  0
  2  1  1  0
  2  3  2  0
  4  5  1  0
  4  2  1  0
  6  8  1  0
  6  7  1  1
  6  5  1  0
  8  9  2  0
 11 10  1  6
 11 13  1  0
 12 11  1  0
 12  8  1  0
 13 14  2  0
 13 15  1  0
 15 16  1  0
 16 22  1  0
 16 17  1  1
 18 17  1  0
 19 18  1  0
 20 19  1  0
 21 20  1  0
 22 23  2  0
 22 24  1  0
M  END
$$$$
