QPN.pdb
     RDKit          3D

 25 25  0  0  1  0  0  0  0  0999 V2000
   25.4400  -17.1327  -14.8720 N   0  0  0  0  0  0  0  0  0  0  0  0
   25.8931  -17.8187  -16.0175 C   0  0  0  0  0  0  0  0  0  0  0  0
   25.2412  -17.7674  -17.0806 O   0  0  0  0  0  0  0  0  0  0  0  0
   27.1418  -18.6009  -15.9625 C   0  0  0  0  0  0  0  0  0  0  0  0
   27.6442  -18.7311  -14.5222 C   0  0  0  0  0  0  0  0  0  0  0  0
   27.9700  -20.1912  -14.2178 C   0  0  2  0  0  0  0  0  0  0  0  0
   28.6887  -20.7168  -15.3415 N   0  0  0  0  0  0  0  0  0  0  0  0
   26.7823  -20.9353  -13.8126 C   0  0  0  0  0  0  0  0  0  0  0  0
   26.4746  -21.9396  -14.5503 O   0  0  0  0  0  0  0  0  0  0  0  0
   25.9826  -20.6466  -12.7199 N   0  0  0  0  0  0  0  0  0  0  0  0
   25.9188  -19.5576  -11.7751 C   0  0  0  0  0  0  0  0  0  0  0  0
   25.9618  -20.3164  -10.4494 C   0  0  0  0  0  0  0  0  0  0  0  0
   25.0417  -21.4778  -10.7611 C   0  0  0  0  0  0  0  0  0  0  0  0
   24.8792  -21.5241  -12.2382 C   0  0  1  0  0  0  0  0  0  0  0  0
   23.5886  -21.0740  -12.7578 C   0  0  0  0  0  0  0  0  0  0  0  0
   23.4243  -19.8230  -12.9263 O   0  0  0  0  0  0  0  0  0  0  0  0
   18.9057  -22.8476  -16.1250 N   0  0  0  0  0  0  0  0  0  0  0  0
   19.2614  -22.1743  -14.9132 C   0  0  0  0  0  0  0  0  0  0  0  0
   18.4571  -21.3150  -14.4994 O   0  0  0  0  0  0  0  0  0  0  0  0
   20.5091  -22.5156  -14.2418 C   0  0  0  0  0  0  0  0  0  0  0  0
   21.2963  -21.3640  -13.6891 C   0  0  2  0  0  0  0  0  0  0  0  0
   22.5147  -21.9176  -13.0857 N   0  0  0  0  0  0  0  0  0  0  0  0
   20.5595  -20.5827  -12.6834 C   0  0  0  0  0  0  0  0  0  0  0  0
   19.8585  -19.4395  -13.1035 O   0  0  0  0  0  0  0  0  0  0  0  0
   20.4923  -20.8398  -11.4605 O   0  0  0  0  0  0  0  0  0  0  0  0
  1  2  1  0
  2  3  2  0
  2  4  1  0
  4  5  1  0
  6  8  1  0
  6  5  1  0
  6  7  1  6
  8 10  1  0
  9  8  2  0
 10 14  1  0
 10 11  1  0
 11 12  1  0
 12 13  1  0
 14 13  1  0
 15 22  1  0
 14 15  1  1
 16 15  2  0
 17 18  1  0
 18 19  2  0
 21 20  1  1
 20 18  1  0
 21 23  1  0
 21 22  1  0
 23 24  1  0
 25 23  2  0
M  END
$$$$
