QPN.pdb
     RDKit          3D

 25 25  0  0  1  0  0  0  0  0999 V2000
   26.4008  -22.2324  -11.6263 N   0  0  0  0  0  0  0  0  0  0  0  0
   25.0673  -21.7786  -11.5633 C   0  0  0  0  0  0  0  0  0  0  0  0
   24.7165  -20.9774  -10.6729 O   0  0  0  0  0  0  0  0  0  0  0  0
   24.0805  -22.2508  -12.5521 C   0  0  0  0  0  0  0  0  0  0  0  0
   24.1794  -21.4477  -13.8517 C   0  0  0  0  0  0  0  0  0  0  0  0
   23.5859  -20.0562  -13.6466 C   0  0  2  0  0  0  0  0  0  0  0  0
   22.1655  -20.2063  -13.5226 N   0  0  0  0  0  0  0  0  0  0  0  0
   24.0438  -19.1191  -14.6669 C   0  0  0  0  0  0  0  0  0  0  0  0
   23.1261  -18.5949  -15.3951 O   0  0  0  0  0  0  0  0  0  0  0  0
   25.3607  -18.7623  -14.9024 N   0  0  0  0  0  0  0  0  0  0  0  0
   26.6351  -19.2166  -14.4002 C   0  0  0  0  0  0  0  0  0  0  0  0
   27.2639  -17.8960  -13.9579 C   0  0  0  0  0  0  0  0  0  0  0  0
   26.8599  -16.9947  -15.1056 C   0  0  0  0  0  0  0  0  0  0  0  0
   25.7784  -17.6918  -15.8506 C   0  0  1  0  0  0  0  0  0  0  0  0
   26.1512  -18.2575  -17.1464 C   0  0  0  0  0  0  0  0  0  0  0  0
   26.6162  -19.4423  -17.1610 O   0  0  0  0  0  0  0  0  0  0  0  0
   23.2776  -16.1847  -20.3467 N   0  0  0  0  0  0  0  0  0  0  0  0
   23.8764  -17.4828  -20.2798 C   0  0  0  0  0  0  0  0  0  0  0  0
   23.1385  -18.4153  -19.9025 O   0  0  0  0  0  0  0  0  0  0  0  0
   25.2777  -17.6468  -20.6451 C   0  0  0  0  0  0  0  0  0  0  0  0
   26.1447  -18.3411  -19.6362 C   0  0  2  0  0  0  0  0  0  0  0  0
   26.0354  -17.5926  -18.3780 N   0  0  0  0  0  0  0  0  0  0  0  0
   27.5572  -18.4240  -20.0391 C   0  0  0  0  0  0  0  0  0  0  0  0
   27.8900  -19.1996  -21.1628 O   0  0  0  0  0  0  0  0  0  0  0  0
   28.5169  -17.8594  -19.4679 O   0  0  0  0  0  0  0  0  0  0  0  0
  1  2  1  0
  2  3  2  0
  2  4  1  0
  4  5  1  0
  6  8  1  0
  6  5  1  0
  6  7  1  6
  8 10  1  0
  9  8  2  0
 10 14  1  0
 10 11  1  0
 11 12  1  0
 12 13  1  0
 14 13  1  0
 15 22  1  0
 14 15  1  6
 16 15  2  0
 17 18  1  0
 18 19  2  0
 21 20  1  6
 20 18  1  0
 21 23  1  0
 21 22  1  0
 23 24  1  0
 25 23  2  0
M  END
$$$$
