QPN.pdb
     RDKit          3D

 25 25  0  0  1  0  0  0  0  0999 V2000
   19.0991  -26.3994   -9.8197 N   0  0  0  0  0  0  0  0  0  0  0  0
   18.7259  -25.9638   -8.5317 C   0  0  0  0  0  0  0  0  0  0  0  0
   18.5221  -26.7930   -7.6213 O   0  0  0  0  0  0  0  0  0  0  0  0
   18.5748  -24.5233   -8.2558 C   0  0  0  0  0  0  0  0  0  0  0  0
   18.9924  -23.6862   -9.4677 C   0  0  0  0  0  0  0  0  0  0  0  0
   18.1353  -22.4252   -9.5457 C   0  0  2  0  0  0  0  0  0  0  0  0
   16.7615  -22.8351   -9.5337 N   0  0  0  0  0  0  0  0  0  0  0  0
   18.5378  -21.5678  -10.6555 C   0  0  0  0  0  0  0  0  0  0  0  0
   17.6587  -21.3957  -11.5747 O   0  0  0  0  0  0  0  0  0  0  0  0
   19.7656  -20.9419  -10.7879 N   0  0  0  0  0  0  0  0  0  0  0  0
   20.9945  -20.9592  -10.0313 C   0  0  0  0  0  0  0  0  0  0  0  0
   21.2288  -19.4643   -9.8181 C   0  0  0  0  0  0  0  0  0  0  0  0
   20.8552  -18.9245  -11.1825 C   0  0  0  0  0  0  0  0  0  0  0  0
   20.1065  -19.9975  -11.8885 C   0  0  1  0  0  0  0  0  0  0  0  0
   20.8242  -20.6832  -12.9622 C   0  0  0  0  0  0  0  0  0  0  0  0
   21.6712  -21.5737  -12.6307 O   0  0  0  0  0  0  0  0  0  0  0  0
   19.7549  -24.1527  -15.9424 N   0  0  0  0  0  0  0  0  0  0  0  0
   19.4239  -22.7679  -15.7975 C   0  0  0  0  0  0  0  0  0  0  0  0
   18.3416  -22.5125  -15.2318 O   0  0  0  0  0  0  0  0  0  0  0  0
   20.3405  -21.7538  -16.3029 C   0  0  0  0  0  0  0  0  0  0  0  0
   21.3621  -21.2449  -15.3289 C   0  0  2  0  0  0  0  0  0  0  0  0
   20.6504  -20.4341  -14.3334 N   0  0  0  0  0  0  0  0  0  0  0  0
   22.4176  -20.4367  -15.9592 C   0  0  0  0  0  0  0  0  0  0  0  0
   23.5194  -21.0980  -16.5281 O   0  0  0  0  0  0  0  0  0  0  0  0
   22.4338  -19.1881  -16.0422 O   0  0  0  0  0  0  0  0  0  0  0  0
  1  2  1  0
  2  3  2  0
  2  4  1  0
  4  5  1  0
  6  8  1  0
  6  5  1  0
  6  7  1  6
  8 10  1  0
  9  8  2  0
 10 14  1  0
 10 11  1  0
 11 12  1  0
 12 13  1  0
 14 13  1  0
 15 22  1  0
 14 15  1  6
 16 15  2  0
 17 18  1  0
 18 19  2  0
 21 20  1  6
 20 18  1  0
 21 23  1  0
 21 22  1  0
 23 24  1  0
 25 23  2  0
M  END
$$$$
