QPN.pdb
     RDKit          3D

 25 25  0  0  1  0  0  0  0  0999 V2000
   36.9693  -12.5322   -6.3161 N   0  0  0  0  0  0  0  0  0  0  0  0
   36.0629  -12.6204   -7.3926 C   0  0  0  0  0  0  0  0  0  0  0  0
   34.9406  -13.1416   -7.2293 O   0  0  0  0  0  0  0  0  0  0  0  0
   36.4394  -12.0957   -8.7182 C   0  0  0  0  0  0  0  0  0  0  0  0
   37.8295  -11.4553   -8.6796 C   0  0  0  0  0  0  0  0  0  0  0  0
   38.1432  -10.8179  -10.0309 C   0  0  2  0  0  0  0  0  0  0  0  0
   38.2377  -11.8745  -10.9954 N   0  0  0  0  0  0  0  0  0  0  0  0
   39.2907   -9.9205   -9.9501 C   0  0  0  0  0  0  0  0  0  0  0  0
   40.3804  -10.3604  -10.4662 O   0  0  0  0  0  0  0  0  0  0  0  0
   39.2922   -8.6620   -9.3730 N   0  0  0  0  0  0  0  0  0  0  0  0
   38.3106   -7.8738   -8.6672 C   0  0  0  0  0  0  0  0  0  0  0  0
   38.3662   -6.5641   -9.4525 C   0  0  0  0  0  0  0  0  0  0  0  0
   39.8597   -6.4238   -9.6585 C   0  0  0  0  0  0  0  0  0  0  0  0
   40.4688   -7.7482   -9.3665 C   0  0  1  0  0  0  0  0  0  0  0  0
   41.2058   -7.8540   -8.1080 C   0  0  0  0  0  0  0  0  0  0  0  0
   40.5302   -7.8871   -7.0297 O   0  0  0  0  0  0  0  0  0  0  0  0
   43.3387  -10.1422   -4.0866 N   0  0  0  0  0  0  0  0  0  0  0  0
   43.9824  -10.1884   -5.3639 C   0  0  0  0  0  0  0  0  0  0  0  0
   45.1359  -10.6633   -5.3870 O   0  0  0  0  0  0  0  0  0  0  0  0
   43.2794   -9.6931   -6.5406 C   0  0  0  0  0  0  0  0  0  0  0  0
   43.2316   -8.2020   -6.7004 C   0  0  2  0  0  0  0  0  0  0  0  0
   42.6043   -7.9218   -7.9977 N   0  0  0  0  0  0  0  0  0  0  0  0
   44.5574   -7.5664   -6.6466 C   0  0  0  0  0  0  0  0  0  0  0  0
   45.1471   -7.1417   -7.8494 O   0  0  0  0  0  0  0  0  0  0  0  0
   45.2303   -7.3606   -5.6117 O   0  0  0  0  0  0  0  0  0  0  0  0
  1  2  1  0
  2  3  2  0
  2  4  1  0
  4  5  1  0
  6  8  1  0
  6  5  1  0
  6  7  1  6
  8 10  1  0
  9  8  2  0
 10 14  1  0
 10 11  1  0
 11 12  1  0
 12 13  1  0
 14 13  1  0
 15 22  1  0
 14 15  1  1
 16 15  2  0
 17 18  1  0
 18 19  2  0
 21 20  1  6
 20 18  1  0
 21 23  1  0
 21 22  1  0
 23 24  1  0
 25 23  2  0
M  END
$$$$
