QPN.pdb
     RDKit          3D

 25 25  0  0  1  0  0  0  0  0999 V2000
   12.9913  -12.9088  -14.4308 N   0  0  0  0  0  0  0  0  0  0  0  0
   13.5774  -12.9912  -15.7106 C   0  0  0  0  0  0  0  0  0  0  0  0
   13.0434  -13.6798  -16.6042 O   0  0  0  0  0  0  0  0  0  0  0  0
   14.8265  -12.2621  -15.9977 C   0  0  0  0  0  0  0  0  0  0  0  0
   15.2322  -11.3819  -14.8126 C   0  0  0  0  0  0  0  0  0  0  0  0
   16.7347  -11.5015  -14.5696 C   0  0  2  0  0  0  0  0  0  0  0  0
   17.0178  -12.8775  -14.2831 N   0  0  0  0  0  0  0  0  0  0  0  0
   17.1998  -10.5333  -13.5823 C   0  0  0  0  0  0  0  0  0  0  0  0
   17.5118  -11.0137  -12.4338 O   0  0  0  0  0  0  0  0  0  0  0  0
   17.3266   -9.1697  -13.7864 N   0  0  0  0  0  0  0  0  0  0  0  0
   17.0364   -8.2823  -14.8869 C   0  0  0  0  0  0  0  0  0  0  0  0
   18.3706   -7.5519  -15.0343 C   0  0  0  0  0  0  0  0  0  0  0  0
   18.7275   -7.3236  -13.5807 C   0  0  0  0  0  0  0  0  0  0  0  0
   17.8611   -8.2201  -12.7706 C   0  0  1  0  0  0  0  0  0  0  0  0
   16.7743   -7.5734  -12.0366 C   0  0  0  0  0  0  0  0  0  0  0  0
   15.6724   -7.3964  -12.6488 O   0  0  0  0  0  0  0  0  0  0  0  0
   13.7114   -5.5860   -8.2611 N   0  0  0  0  0  0  0  0  0  0  0  0
   14.6822   -6.4935   -7.7298 C   0  0  0  0  0  0  0  0  0  0  0  0
   14.5724   -6.7773   -6.5199 O   0  0  0  0  0  0  0  0  0  0  0  0
   15.7208   -7.0258   -8.6026 C   0  0  0  0  0  0  0  0  0  0  0  0
   15.6668   -6.5851  -10.0359 C   0  0  2  0  0  0  0  0  0  0  0  0
   16.8532   -7.1318  -10.7057 N   0  0  0  0  0  0  0  0  0  0  0  0
   15.6405   -5.1228  -10.1961 C   0  0  0  0  0  0  0  0  0  0  0  0
   16.8290   -4.4660  -10.5580 O   0  0  0  0  0  0  0  0  0  0  0  0
   14.6412   -4.3860  -10.0388 O   0  0  0  0  0  0  0  0  0  0  0  0
  1  2  1  0
  2  3  2  0
  2  4  1  0
  4  5  1  0
  6  8  1  0
  6  5  1  0
  6  7  1  1
  8 10  1  0
  9  8  2  0
 10 14  1  0
 10 11  1  0
 11 12  1  0
 12 13  1  0
 14 13  1  0
 15 22  1  0
 14 15  1  6
 16 15  2  0
 17 18  1  0
 18 19  2  0
 21 20  1  1
 20 18  1  0
 21 23  1  0
 21 22  1  0
 23 24  1  0
 25 23  2  0
M  END
$$$$
