QPN.pdb
     RDKit          3D

 25 25  0  0  1  0  0  0  0  0999 V2000
   27.8854  -21.8986   12.5471 N   0  0  0  0  0  0  0  0  0  0  0  0
   27.6301  -23.2555   12.2614 C   0  0  0  0  0  0  0  0  0  0  0  0
   26.6993  -23.8555   12.8370 O   0  0  0  0  0  0  0  0  0  0  0  0
   28.4646  -23.9716   11.2790 C   0  0  0  0  0  0  0  0  0  0  0  0
   28.3144  -23.3606    9.8833 C   0  0  0  0  0  0  0  0  0  0  0  0
   29.3631  -23.9515    8.9442 C   0  0  2  0  0  0  0  0  0  0  0  0
   29.5373  -25.3286    9.3029 N   0  0  0  0  0  0  0  0  0  0  0  0
   30.5754  -23.1403    8.9113 C   0  0  0  0  0  0  0  0  0  0  0  0
   31.6727  -23.7678    9.1340 O   0  0  0  0  0  0  0  0  0  0  0  0
   30.6293  -21.7791    8.6643 N   0  0  0  0  0  0  0  0  0  0  0  0
   29.6385  -20.7516    8.4512 C   0  0  0  0  0  0  0  0  0  0  0  0
   30.1363  -20.1301    7.1470 C   0  0  0  0  0  0  0  0  0  0  0  0
   31.6284  -20.0988    7.4027 C   0  0  0  0  0  0  0  0  0  0  0  0
   31.8946  -21.0004    8.5546 C   0  0  1  0  0  0  0  0  0  0  0  0
   32.2178  -20.3466    9.8219 C   0  0  0  0  0  0  0  0  0  0  0  0
   31.2639  -20.1397   10.6390 O   0  0  0  0  0  0  0  0  0  0  0  0
   37.2948  -20.8369   11.8689 N   0  0  0  0  0  0  0  0  0  0  0  0
   36.0713  -21.0066   11.1461 C   0  0  0  0  0  0  0  0  0  0  0  0
   36.1695  -21.1149    9.9070 O   0  0  0  0  0  0  0  0  0  0  0  0
   34.8078  -21.0435   11.8715 C   0  0  0  0  0  0  0  0  0  0  0  0
   33.8740  -19.8947   11.6272 C   0  0  2  0  0  0  0  0  0  0  0  0
   33.5020  -19.9288   10.2075 N   0  0  0  0  0  0  0  0  0  0  0  0
   34.4621  -18.5856   11.9511 C   0  0  0  0  0  0  0  0  0  0  0  0
   34.7071  -17.6822   10.9029 O   0  0  0  0  0  0  0  0  0  0  0  0
   34.7741  -18.1849   13.0949 O   0  0  0  0  0  0  0  0  0  0  0  0
  1  2  1  0
  2  3  2  0
  2  4  1  0
  4  5  1  0
  6  8  1  0
  6  5  1  0
  6  7  1  1
  8 10  1  0
  9  8  2  0
 10 14  1  0
 10 11  1  0
 11 12  1  0
 12 13  1  0
 14 13  1  0
 15 22  1  0
 14 15  1  1
 16 15  2  0
 17 18  1  0
 18 19  2  0
 21 20  1  6
 20 18  1  0
 21 23  1  0
 21 22  1  0
 23 24  1  0
 25 23  2  0
M  END
$$$$
