QPN.pdb
     RDKit          3D

 25 25  0  0  1  0  0  0  0  0999 V2000
   22.2631  -15.6099  -15.0846 N   0  0  0  0  0  0  0  0  0  0  0  0
   21.9565  -16.5178  -16.1188 C   0  0  0  0  0  0  0  0  0  0  0  0
   20.7712  -16.8368  -16.3453 O   0  0  0  0  0  0  0  0  0  0  0  0
   23.0382  -17.0946  -16.9382 C   0  0  0  0  0  0  0  0  0  0  0  0
   24.4042  -16.5649  -16.4941 C   0  0  0  0  0  0  0  0  0  0  0  0
   25.5039  -17.1858  -17.3520 C   0  0  2  0  0  0  0  0  0  0  0  0
   25.1075  -17.0548  -18.7236 N   0  0  0  0  0  0  0  0  0  0  0  0
   25.8367  -18.5352  -16.9080 C   0  0  0  0  0  0  0  0  0  0  0  0
   25.4831  -19.4848  -17.6957 O   0  0  0  0  0  0  0  0  0  0  0  0
   26.4887  -18.8597  -15.7305 N   0  0  0  0  0  0  0  0  0  0  0  0
   26.8826  -18.1177  -14.5570 C   0  0  0  0  0  0  0  0  0  0  0  0
   28.3635  -18.4826  -14.4626 C   0  0  0  0  0  0  0  0  0  0  0  0
   28.3097  -19.9601  -14.7892 C   0  0  0  0  0  0  0  0  0  0  0  0
   26.9796  -20.2264  -15.3978 C   0  0  1  0  0  0  0  0  0  0  0  0
   26.0178  -20.9368  -14.5563 C   0  0  0  0  0  0  0  0  0  0  0  0
   26.1814  -22.1898  -14.4021 O   0  0  0  0  0  0  0  0  0  0  0  0
   26.1726  -20.0593  -10.2564 N   0  0  0  0  0  0  0  0  0  0  0  0
   25.6146  -21.0019  -11.1774 C   0  0  0  0  0  0  0  0  0  0  0  0
   26.3524  -21.9490  -11.5170 O   0  0  0  0  0  0  0  0  0  0  0  0
   24.2520  -20.8147  -11.6593 C   0  0  0  0  0  0  0  0  0  0  0  0
   24.0093  -21.1592  -13.0994 C   0  0  2  0  0  0  0  0  0  0  0  0
   24.9254  -20.3418  -13.9041 N   0  0  0  0  0  0  0  0  0  0  0  0
   22.6240  -20.9171  -13.5318 C   0  0  0  0  0  0  0  0  0  0  0  0
   21.6153  -21.7769  -13.0646 O   0  0  0  0  0  0  0  0  0  0  0  0
   22.2433  -19.9997  -14.2930 O   0  0  0  0  0  0  0  0  0  0  0  0
  1  2  1  0
  2  3  2  0
  2  4  1  0
  4  5  1  0
  6  8  1  0
  6  5  1  0
  6  7  1  6
  8 10  1  0
  9  8  2  0
 10 14  1  0
 10 11  1  0
 11 12  1  0
 12 13  1  0
 14 13  1  0
 15 22  1  0
 14 15  1  1
 16 15  2  0
 17 18  1  0
 18 19  2  0
 21 20  1  1
 20 18  1  0
 21 23  1  0
 21 22  1  0
 23 24  1  0
 25 23  2  0
M  END
$$$$
