QPN.pdb
     RDKit          3D

 25 25  0  0  1  0  0  0  0  0999 V2000
   22.9839  -23.9818  -14.5729 N   0  0  0  0  0  0  0  0  0  0  0  0
   24.1221  -24.5305  -13.9472 C   0  0  0  0  0  0  0  0  0  0  0  0
   24.2836  -25.7675  -13.9075 O   0  0  0  0  0  0  0  0  0  0  0  0
   25.1277  -23.6419  -13.3361 C   0  0  0  0  0  0  0  0  0  0  0  0
   24.7270  -22.1724  -13.4907 C   0  0  0  0  0  0  0  0  0  0  0  0
   25.7543  -21.2803  -12.7981 C   0  0  2  0  0  0  0  0  0  0  0  0
   25.6846  -21.5523  -11.3922 N   0  0  0  0  0  0  0  0  0  0  0  0
   25.6041  -19.8824  -13.1879 C   0  0  0  0  0  0  0  0  0  0  0  0
   24.9396  -19.1448  -12.3745 O   0  0  0  0  0  0  0  0  0  0  0  0
   26.1117  -19.3067  -14.3402 N   0  0  0  0  0  0  0  0  0  0  0  0
   26.8716  -19.7985  -15.4642 C   0  0  0  0  0  0  0  0  0  0  0  0
   28.0303  -18.8026  -15.4934 C   0  0  0  0  0  0  0  0  0  0  0  0
   27.2939  -17.5076  -15.2227 C   0  0  0  0  0  0  0  0  0  0  0  0
   25.9517  -17.8686  -14.6948 C   0  0  1  0  0  0  0  0  0  0  0  0
   24.8277  -17.6780  -15.6105 C   0  0  0  0  0  0  0  0  0  0  0  0
   24.5425  -18.6337  -16.4014 O   0  0  0  0  0  0  0  0  0  0  0  0
   19.7613  -17.1669  -16.9365 N   0  0  0  0  0  0  0  0  0  0  0  0
   20.3599  -16.0986  -16.1959 C   0  0  0  0  0  0  0  0  0  0  0  0
   19.7114  -15.0345  -16.1348 O   0  0  0  0  0  0  0  0  0  0  0  0
   21.6594  -16.3002  -15.5677 C   0  0  0  0  0  0  0  0  0  0  0  0
   22.8169  -16.5067  -16.4999 C   0  0  2  0  0  0  0  0  0  0  0  0
   24.0374  -16.5193  -15.6842 N   0  0  0  0  0  0  0  0  0  0  0  0
   22.9261  -15.4660  -17.5341 C   0  0  0  0  0  0  0  0  0  0  0  0
   22.1965  -15.6241  -18.7247 O   0  0  0  0  0  0  0  0  0  0  0  0
   23.6207  -14.4277  -17.4589 O   0  0  0  0  0  0  0  0  0  0  0  0
  1  2  1  0
  2  3  2  0
  2  4  1  0
  4  5  1  0
  6  8  1  0
  6  5  1  0
  6  7  1  1
  8 10  1  0
  9  8  2  0
 10 14  1  0
 10 11  1  0
 11 12  1  0
 12 13  1  0
 14 13  1  0
 15 22  1  0
 14 15  1  6
 16 15  2  0
 17 18  1  0
 18 19  2  0
 21 20  1  1
 20 18  1  0
 21 23  1  0
 21 22  1  0
 23 24  1  0
 25 23  2  0
M  END
$$$$
