QPN.pdb
     RDKit          3D

 25 25  0  0  1  0  0  0  0  0999 V2000
   43.3606  -11.0427   -5.4309 N   0  0  0  0  0  0  0  0  0  0  0  0
   44.4378  -11.5559   -6.1822 C   0  0  0  0  0  0  0  0  0  0  0  0
   45.3798  -12.1430   -5.6115 O   0  0  0  0  0  0  0  0  0  0  0  0
   44.4544  -11.4000   -7.6483 C   0  0  0  0  0  0  0  0  0  0  0  0
   43.2758  -10.5455   -8.1222 C   0  0  0  0  0  0  0  0  0  0  0  0
   42.2210  -11.4352   -8.7751 C   0  0  2  0  0  0  0  0  0  0  0  0
   42.8748  -12.2047   -9.7929 N   0  0  0  0  0  0  0  0  0  0  0  0
   41.0569  -10.6665   -9.2025 C   0  0  0  0  0  0  0  0  0  0  0  0
   40.9105  -10.5344  -10.4707 O   0  0  0  0  0  0  0  0  0  0  0  0
   40.1222  -10.0835   -8.3638 N   0  0  0  0  0  0  0  0  0  0  0  0
   39.9960   -9.9472   -6.9326 C   0  0  0  0  0  0  0  0  0  0  0  0
   38.5824  -10.4834   -6.7104 C   0  0  0  0  0  0  0  0  0  0  0  0
   37.8573   -9.8567   -7.8826 C   0  0  0  0  0  0  0  0  0  0  0  0
   38.8941   -9.3869   -8.8390 C   0  0  1  0  0  0  0  0  0  0  0  0
   39.1041   -7.9412   -8.9013 C   0  0  0  0  0  0  0  0  0  0  0  0
   39.8156   -7.4086   -7.9899 O   0  0  0  0  0  0  0  0  0  0  0  0
   41.5652   -4.0045  -12.2151 N   0  0  0  0  0  0  0  0  0  0  0  0
   40.6121   -4.2302  -11.1717 C   0  0  0  0  0  0  0  0  0  0  0  0
   40.3755   -3.2644  -10.4181 O   0  0  0  0  0  0  0  0  0  0  0  0
   39.9830   -5.5386  -11.0444 C   0  0  0  0  0  0  0  0  0  0  0  0
   38.9760   -5.6810   -9.9412 C   0  0  2  0  0  0  0  0  0  0  0  0
   38.5802   -7.0937   -9.8911 N   0  0  0  0  0  0  0  0  0  0  0  0
   37.7826   -4.8412  -10.1284 C   0  0  0  0  0  0  0  0  0  0  0  0
   37.7889   -3.5390   -9.6001 O   0  0  0  0  0  0  0  0  0  0  0  0
   36.7358   -5.1777  -10.7259 O   0  0  0  0  0  0  0  0  0  0  0  0
  1  2  1  0
  2  3  2  0
  2  4  1  0
  4  5  1  0
  6  8  1  0
  6  5  1  0
  6  7  1  6
  8 10  1  0
  9  8  2  0
 10 14  1  0
 10 11  1  0
 11 12  1  0
 12 13  1  0
 14 13  1  0
 15 22  1  0
 14 15  1  1
 16 15  2  0
 17 18  1  0
 18 19  2  0
 21 20  1  6
 20 18  1  0
 21 23  1  0
 21 22  1  0
 23 24  1  0
 25 23  2  0
M  END
$$$$
