QPN.pdb
     RDKit          3D

 25 25  0  0  1  0  0  0  0  0999 V2000
   26.4071  -17.9365  -17.7003 N   0  0  0  0  0  0  0  0  0  0  0  0
   25.5642  -19.0456  -17.9180 C   0  0  0  0  0  0  0  0  0  0  0  0
   24.6033  -18.9600  -18.7100 O   0  0  0  0  0  0  0  0  0  0  0  0
   25.8162  -20.3134  -17.2085 C   0  0  0  0  0  0  0  0  0  0  0  0
   27.0146  -20.1846  -16.2646 C   0  0  0  0  0  0  0  0  0  0  0  0
   27.2256  -21.4972  -15.5141 C   0  0  2  0  0  0  0  0  0  0  0  0
   27.5592  -22.5000  -16.4829 N   0  0  0  0  0  0  0  0  0  0  0  0
   26.1006  -21.8035  -14.6371 C   0  0  0  0  0  0  0  0  0  0  0  0
   25.2559  -22.6568  -15.0907 O   0  0  0  0  0  0  0  0  0  0  0  0
   25.8815  -21.2565  -13.3842 N   0  0  0  0  0  0  0  0  0  0  0  0
   26.5428  -20.2460  -12.5941 C   0  0  0  0  0  0  0  0  0  0  0  0
   26.7514  -20.9932  -11.2775 C   0  0  0  0  0  0  0  0  0  0  0  0
   25.4242  -21.7104  -11.1487 C   0  0  0  0  0  0  0  0  0  0  0  0
   24.7670  -21.6589  -12.4813 C   0  0  1  0  0  0  0  0  0  0  0  0
   23.6358  -20.7407  -12.6057 C   0  0  0  0  0  0  0  0  0  0  0  0
   23.8557  -19.6013  -13.1289 O   0  0  0  0  0  0  0  0  0  0  0  0
   19.1011  -19.9859  -14.7988 N   0  0  0  0  0  0  0  0  0  0  0  0
   20.2073  -20.7656  -15.2641 C   0  0  0  0  0  0  0  0  0  0  0  0
   20.1657  -21.1313  -16.4562 O   0  0  0  0  0  0  0  0  0  0  0  0
   21.2961  -21.0848  -14.3494 C   0  0  0  0  0  0  0  0  0  0  0  0
   21.1806  -20.5186  -12.9647 C   0  0  2  0  0  0  0  0  0  0  0  0
   22.3232  -21.0201  -12.1914 N   0  0  0  0  0  0  0  0  0  0  0  0
   19.9276  -20.8856  -12.2867 C   0  0  0  0  0  0  0  0  0  0  0  0
   18.8119  -20.0445  -12.4372 O   0  0  0  0  0  0  0  0  0  0  0  0
   19.7502  -21.8970  -11.5712 O   0  0  0  0  0  0  0  0  0  0  0  0
  1  2  1  0
  2  3  2  0
  2  4  1  0
  4  5  1  0
  6  8  1  0
  6  5  1  0
  6  7  1  6
  8 10  1  0
  9  8  2  0
 10 14  1  0
 10 11  1  0
 11 12  1  0
 12 13  1  0
 14 13  1  0
 15 22  1  0
 14 15  1  1
 16 15  2  0
 17 18  1  0
 18 19  2  0
 21 20  1  6
 20 18  1  0
 21 23  1  0
 21 22  1  0
 23 24  1  0
 25 23  2  0
M  END
$$$$
