QPN.pdb
     RDKit          3D

 25 25  0  0  1  0  0  0  0  0999 V2000
   13.0833  -12.2511  -14.6574 N   0  0  0  0  0  0  0  0  0  0  0  0
   13.5010  -11.8990  -15.9573 C   0  0  0  0  0  0  0  0  0  0  0  0
   12.9557  -12.4143  -16.9548 O   0  0  0  0  0  0  0  0  0  0  0  0
   14.5863  -10.9182  -16.1425 C   0  0  0  0  0  0  0  0  0  0  0  0
   15.0451  -10.3479  -14.7979 C   0  0  0  0  0  0  0  0  0  0  0  0
   16.5577  -10.5017  -14.6596 C   0  0  2  0  0  0  0  0  0  0  0  0
   16.8382  -11.9000  -14.5131 N   0  0  0  0  0  0  0  0  0  0  0  0
   17.0956   -9.6288  -13.6216 C   0  0  0  0  0  0  0  0  0  0  0  0
   17.4287  -10.2060  -12.5246 O   0  0  0  0  0  0  0  0  0  0  0  0
   17.2690   -8.2593  -13.7284 N   0  0  0  0  0  0  0  0  0  0  0  0
   17.0179   -7.2878  -14.7656 C   0  0  0  0  0  0  0  0  0  0  0  0
   18.3767   -6.5940  -14.8528 C   0  0  0  0  0  0  0  0  0  0  0  0
   18.7282   -6.4802  -13.3845 C   0  0  0  0  0  0  0  0  0  0  0  0
   17.8257   -7.4016  -12.6450 C   0  0  1  0  0  0  0  0  0  0  0  0
   16.7545   -6.7718  -11.8743 C   0  0  0  0  0  0  0  0  0  0  0  0
   15.6954   -6.4405  -12.4979 O   0  0  0  0  0  0  0  0  0  0  0  0
   13.7190   -4.8370   -8.0502 N   0  0  0  0  0  0  0  0  0  0  0  0
   14.6917   -5.7378   -7.5112 C   0  0  0  0  0  0  0  0  0  0  0  0
   14.6432   -5.9350   -6.2802 O   0  0  0  0  0  0  0  0  0  0  0  0
   15.6627   -6.3623   -8.4007 C   0  0  0  0  0  0  0  0  0  0  0  0
   15.6598   -5.8804   -9.8217 C   0  0  2  0  0  0  0  0  0  0  0  0
   16.8046   -6.5041  -10.4965 N   0  0  0  0  0  0  0  0  0  0  0  0
   15.7544   -4.4171   -9.9418 C   0  0  0  0  0  0  0  0  0  0  0  0
   14.5684   -3.6637   -9.9150 O   0  0  0  0  0  0  0  0  0  0  0  0
   16.8111   -3.7588  -10.0688 O   0  0  0  0  0  0  0  0  0  0  0  0
  1  2  1  0
  2  3  2  0
  2  4  1  0
  4  5  1  0
  6  8  1  0
  6  5  1  0
  6  7  1  1
  8 10  1  0
  9  8  2  0
 10 14  1  0
 10 11  1  0
 11 12  1  0
 12 13  1  0
 14 13  1  0
 15 22  1  0
 14 15  1  6
 16 15  2  0
 17 18  1  0
 18 19  2  0
 21 20  1  1
 20 18  1  0
 21 23  1  0
 21 22  1  0
 23 24  1  0
 25 23  2  0
M  END
$$$$
