QPN.pdb
     RDKit          3D

 25 25  0  0  1  0  0  0  0  0999 V2000
   20.5262  -30.4494  -14.2583 N   0  0  0  0  0  0  0  0  0  0  0  0
   19.9910  -31.4567  -13.4295 C   0  0  0  0  0  0  0  0  0  0  0  0
   19.0262  -31.2067  -12.6782 O   0  0  0  0  0  0  0  0  0  0  0  0
   20.5713  -32.8121  -13.4480 C   0  0  0  0  0  0  0  0  0  0  0  0
   21.7912  -32.8736  -14.3710 C   0  0  0  0  0  0  0  0  0  0  0  0
   22.4306  -34.2577  -14.2921 C   0  0  2  0  0  0  0  0  0  0  0  0
   21.4180  -35.2203  -14.6141 N   0  0  0  0  0  0  0  0  0  0  0  0
   23.1254  -34.4590  -13.0251 C   0  0  0  0  0  0  0  0  0  0  0  0
   22.5897  -35.3063  -12.2235 O   0  0  0  0  0  0  0  0  0  0  0  0
   24.2896  -33.8206  -12.6326 N   0  0  0  0  0  0  0  0  0  0  0  0
   25.1168  -32.7867  -13.2066 C   0  0  0  0  0  0  0  0  0  0  0  0
   26.4920  -33.4514  -13.1596 C   0  0  0  0  0  0  0  0  0  0  0  0
   26.4413  -34.1045  -11.7944 C   0  0  0  0  0  0  0  0  0  0  0  0
   25.0174  -34.1164  -11.3668 C   0  0  1  0  0  0  0  0  0  0  0  0
   24.6525  -33.1639  -10.3191 C   0  0  0  0  0  0  0  0  0  0  0  0
   23.6935  -32.3619  -10.5589 O   0  0  0  0  0  0  0  0  0  0  0  0
   22.7312  -33.6928   -5.6926 N   0  0  0  0  0  0  0  0  0  0  0  0
   22.6981  -34.5743   -6.8197 C   0  0  0  0  0  0  0  0  0  0  0  0
   21.8726  -35.5084   -6.7692 O   0  0  0  0  0  0  0  0  0  0  0  0
   23.6036  -34.3441   -7.9382 C   0  0  0  0  0  0  0  0  0  0  0  0
   24.4858  -33.1349   -7.8336 C   0  0  2  0  0  0  0  0  0  0  0  0
   25.2799  -33.0660   -9.0664 N   0  0  0  0  0  0  0  0  0  0  0  0
   25.3849  -33.1674   -6.6695 C   0  0  0  0  0  0  0  0  0  0  0  0
   24.9623  -32.5536   -5.4780 O   0  0  0  0  0  0  0  0  0  0  0  0
   26.5168  -33.6998   -6.6321 O   0  0  0  0  0  0  0  0  0  0  0  0
  1  2  1  0
  2  3  2  0
  2  4  1  0
  4  5  1  0
  6  8  1  0
  6  5  1  0
  6  7  1  1
  8 10  1  0
  9  8  2  0
 10 14  1  0
 10 11  1  0
 11 12  1  0
 12 13  1  0
 14 13  1  0
 15 22  1  0
 14 15  1  1
 16 15  2  0
 17 18  1  0
 18 19  2  0
 21 20  1  6
 20 18  1  0
 21 23  1  0
 21 22  1  0
 23 24  1  0
 25 23  2  0
M  END
$$$$
