QPN.pdb
     RDKit          3D

 25 25  0  0  1  0  0  0  0  0999 V2000
   28.9464  -18.1095  -16.8524 N   0  0  0  0  0  0  0  0  0  0  0  0
   27.5743  -17.8515  -16.6549 C   0  0  0  0  0  0  0  0  0  0  0  0
   26.9153  -17.2491  -17.5271 O   0  0  0  0  0  0  0  0  0  0  0  0
   26.9123  -18.2938  -15.4139 C   0  0  0  0  0  0  0  0  0  0  0  0
   27.9309  -18.8593  -14.4207 C   0  0  0  0  0  0  0  0  0  0  0  0
   27.9059  -20.3851  -14.4660 C   0  0  2  0  0  0  0  0  0  0  0  0
   28.3202  -20.7851  -15.7790 N   0  0  0  0  0  0  0  0  0  0  0  0
   26.6266  -20.9170  -14.0087 C   0  0  0  0  0  0  0  0  0  0  0  0
   26.0529  -21.7482  -14.8006 O   0  0  0  0  0  0  0  0  0  0  0  0
   26.0011  -20.6002  -12.8148 N   0  0  0  0  0  0  0  0  0  0  0  0
   26.2102  -19.5942  -11.8014 C   0  0  0  0  0  0  0  0  0  0  0  0
   26.2694  -20.4558  -10.5407 C   0  0  0  0  0  0  0  0  0  0  0  0
   25.1488  -21.4357  -10.8176 C   0  0  0  0  0  0  0  0  0  0  0  0
   24.8283  -21.3370  -12.2661 C   0  0  1  0  0  0  0  0  0  0  0  0
   23.5788  -20.6564  -12.6035 C   0  0  0  0  0  0  0  0  0  0  0  0
   23.5998  -19.3856  -12.6744 O   0  0  0  0  0  0  0  0  0  0  0  0
   18.8011  -19.4758  -14.3736 N   0  0  0  0  0  0  0  0  0  0  0  0
   19.3326  -20.6656  -14.9650 C   0  0  0  0  0  0  0  0  0  0  0  0
   18.6977  -21.1367  -15.9302 O   0  0  0  0  0  0  0  0  0  0  0  0
   20.5537  -21.2514  -14.4268 C   0  0  0  0  0  0  0  0  0  0  0  0
   21.1847  -20.5202  -13.2785 C   0  0  2  0  0  0  0  0  0  0  0  0
   22.3554  -21.2984  -12.8558 N   0  0  0  0  0  0  0  0  0  0  0  0
   20.2772  -20.3349  -12.1353 C   0  0  0  0  0  0  0  0  0  0  0  0
   19.3135  -19.3143  -12.2022 O   0  0  0  0  0  0  0  0  0  0  0  0
   20.2768  -21.0116  -11.0825 O   0  0  0  0  0  0  0  0  0  0  0  0
  1  2  1  0
  2  3  2  0
  2  4  1  0
  4  5  1  0
  6  8  1  0
  6  5  1  0
  6  7  1  6
  8 10  1  0
  9  8  2  0
 10 14  1  0
 10 11  1  0
 11 12  1  0
 12 13  1  0
 14 13  1  0
 15 22  1  0
 14 15  1  1
 16 15  2  0
 17 18  1  0
 18 19  2  0
 21 20  1  6
 20 18  1  0
 21 23  1  0
 21 22  1  0
 23 24  1  0
 25 23  2  0
M  END
$$$$
