QPN.pdb
     RDKit          3D

 25 25  0  0  1  0  0  0  0  0999 V2000
   27.8794  -16.1723  -18.2750 N   0  0  0  0  0  0  0  0  0  0  0  0
   26.5258  -16.0147  -18.6369 C   0  0  0  0  0  0  0  0  0  0  0  0
   26.2070  -15.2326  -19.5559 O   0  0  0  0  0  0  0  0  0  0  0  0
   25.4800  -16.7757  -17.9288 C   0  0  0  0  0  0  0  0  0  0  0  0
   26.0376  -17.4212  -16.6575 C   0  0  0  0  0  0  0  0  0  0  0  0
   26.5575  -18.8214  -16.9733 C   0  0  2  0  0  0  0  0  0  0  0  0
   26.0114  -19.2093  -18.2409 N   0  0  0  0  0  0  0  0  0  0  0  0
   26.3264  -19.7444  -15.8673 C   0  0  0  0  0  0  0  0  0  0  0  0
   25.3662  -20.5804  -16.0297 O   0  0  0  0  0  0  0  0  0  0  0  0
   27.0469  -19.7848  -14.6857 N   0  0  0  0  0  0  0  0  0  0  0  0
   28.1207  -18.9965  -14.1305 C   0  0  0  0  0  0  0  0  0  0  0  0
   29.1296  -20.0866  -13.7716 C   0  0  0  0  0  0  0  0  0  0  0  0
   28.2093  -21.1421  -13.1958 C   0  0  0  0  0  0  0  0  0  0  0  0
   26.8250  -20.7881  -13.6069 C   0  0  1  0  0  0  0  0  0  0  0  0
   25.9613  -20.2464  -12.5588 C   0  0  0  0  0  0  0  0  0  0  0  0
   26.0020  -18.9913  -12.3510 O   0  0  0  0  0  0  0  0  0  0  0  0
   22.2254  -19.3392   -9.0611 N   0  0  0  0  0  0  0  0  0  0  0  0
   21.8369  -20.2873  -10.0603 C   0  0  0  0  0  0  0  0  0  0  0  0
   20.6334  -20.6160  -10.0750 O   0  0  0  0  0  0  0  0  0  0  0  0
   22.8368  -20.8068  -10.9846 C   0  0  0  0  0  0  0  0  0  0  0  0
   24.2474  -20.3507  -10.7538 C   0  0  2  0  0  0  0  0  0  0  0  0
   25.0888  -21.0062  -11.7625 N   0  0  0  0  0  0  0  0  0  0  0  0
   24.7514  -20.6700   -9.4089 C   0  0  0  0  0  0  0  0  0  0  0  0
   24.4701  -19.7801   -8.3583 O   0  0  0  0  0  0  0  0  0  0  0  0
   25.4223  -21.6797   -9.0980 O   0  0  0  0  0  0  0  0  0  0  0  0
  1  2  1  0
  2  3  2  0
  2  4  1  0
  4  5  1  0
  6  8  1  0
  6  5  1  0
  6  7  1  6
  8 10  1  0
  9  8  2  0
 10 14  1  0
 10 11  1  0
 11 12  1  0
 12 13  1  0
 14 13  1  0
 15 22  1  0
 14 15  1  1
 16 15  2  0
 17 18  1  0
 18 19  2  0
 21 20  1  1
 20 18  1  0
 21 23  1  0
 21 22  1  0
 23 24  1  0
 25 23  2  0
M  END
$$$$
