DDL.pdb
     RDKit          3D

 25 24  0  0  1  0  0  0  0  0999 V2000
   15.6557  -12.2273  -17.4392 N   0  0  0  0  0  0  0  0  0  0  0  0
   15.8536  -11.5651  -16.1621 C   0  0  1  0  0  0  0  0  0  0  0  0
   16.3914  -12.5322  -15.1393 C   0  0  0  0  0  0  0  0  0  0  0  0
   15.3680  -13.4949  -14.7071 C   0  0  0  0  0  0  0  0  0  0  0  0
   14.1614  -13.3611  -14.9877 O   0  0  0  0  0  0  0  0  0  0  0  0
   16.6816  -10.3686  -16.3269 C   0  0  0  0  0  0  0  0  0  0  0  0
   17.7217  -10.4461  -17.0302 O   0  0  0  0  0  0  0  0  0  0  0  0
   15.7400  -14.5958  -13.9611 O   0  0  0  0  0  0  0  0  0  0  0  0
   16.3980   -9.1205  -15.7497 N   0  0  0  0  0  0  0  0  0  0  0  0
   17.2156   -7.9264  -15.9077 C   0  0  1  0  0  0  0  0  0  0  0  0
   16.4423   -6.6756  -15.6675 C   0  0  0  0  0  0  0  0  0  0  0  0
   17.2761   -5.5027  -15.9990 C   0  0  0  0  0  0  0  0  0  0  0  0
   18.3734   -5.5599  -16.6358 O   0  0  0  0  0  0  0  0  0  0  0  0
   18.4206   -8.0064  -15.0336 C   0  0  0  0  0  0  0  0  0  0  0  0
   18.3459   -8.1913  -13.7974 O   0  0  0  0  0  0  0  0  0  0  0  0
   16.8905   -4.2084  -15.6157 O   0  0  0  0  0  0  0  0  0  0  0  0
   22.9710   -9.9633  -13.1804 C   0  0  0  0  0  0  0  0  0  0  0  0
   23.0903   -9.2750  -14.5149 C   0  0  1  0  0  0  0  0  0  0  0  0
   24.0036  -10.1532  -15.3706 C   0  0  0  0  0  0  0  0  0  0  0  0
   21.7964   -9.1356  -15.2466 C   0  0  0  0  0  0  0  0  0  0  0  0
   20.9001   -8.0352  -14.7188 C   0  0  2  0  0  0  0  0  0  0  0  0
   19.7303   -7.8746  -15.5745 N   0  0  0  0  0  0  0  0  0  0  0  0
   21.5861   -6.7405  -14.5684 C   0  0  0  0  0  0  0  0  0  0  0  0
   21.5845   -5.9451  -15.5515 O   0  0  0  0  0  0  0  0  0  0  0  0
   22.2331   -6.3521  -13.3996 O   0  0  0  0  0  0  0  0  0  0  0  0
  2  1  1  6
  2  6  1  0
  2  3  1  0
  4  3  1  0
  5  4  2  0
  6  7  2  0
  8  4  1  0
  9 10  1  0
  9  6  1  0
 10 14  1  0
 10 11  1  1
 12 11  1  0
 13 12  2  0
 14 15  2  0
 16 12  1  0
 18 17  1  1
 18 19  1  0
 20 18  1  0
 21 20  1  6
 22 14  1  0
 22 21  1  0
 23 21  1  0
 24 23  2  0
 25 23  1  0
M  END
$$$$
