DDL.pdb
     RDKit          3D

 25 24  0  0  1  0  0  0  0  0999 V2000
   34.4970  -38.8411   -4.9849 N   0  0  0  0  0  0  0  0  0  0  0  0
   34.7752  -38.7306   -3.5640 C   0  0  1  0  0  0  0  0  0  0  0  0
   36.2144  -38.3492   -3.3320 C   0  0  0  0  0  0  0  0  0  0  0  0
   37.1225  -39.4836   -3.5549 C   0  0  0  0  0  0  0  0  0  0  0  0
   36.7263  -40.5851   -3.9818 O   0  0  0  0  0  0  0  0  0  0  0  0
   33.8201  -37.8247   -2.9226 C   0  0  0  0  0  0  0  0  0  0  0  0
   33.3149  -36.8972   -3.6060 O   0  0  0  0  0  0  0  0  0  0  0  0
   38.4695  -39.3409   -3.2865 O   0  0  0  0  0  0  0  0  0  0  0  0
   33.4188  -37.9141   -1.5801 N   0  0  0  0  0  0  0  0  0  0  0  0
   32.5185  -36.9813   -0.9176 C   0  0  1  0  0  0  0  0  0  0  0  0
   31.4374  -37.6770   -0.1643 C   0  0  0  0  0  0  0  0  0  0  0  0
   30.5256  -36.6807    0.4330 C   0  0  0  0  0  0  0  0  0  0  0  0
   30.2118  -36.6425    1.6631 O   0  0  0  0  0  0  0  0  0  0  0  0
   33.2898  -36.0520   -0.0435 C   0  0  0  0  0  0  0  0  0  0  0  0
   34.1481  -36.4528    0.7755 O   0  0  0  0  0  0  0  0  0  0  0  0
   29.9307  -35.6808   -0.3524 O   0  0  0  0  0  0  0  0  0  0  0  0
   36.1251  -32.0233   -1.8856 C   0  0  0  0  0  0  0  0  0  0  0  0
   35.6004  -33.0932   -0.9643 C   0  0  1  0  0  0  0  0  0  0  0  0
   36.7650  -33.4853   -0.0547 C   0  0  0  0  0  0  0  0  0  0  0  0
   34.4816  -32.6440   -0.0835 C   0  0  0  0  0  0  0  0  0  0  0  0
   33.8605  -33.7495    0.7440 C   0  0  2  0  0  0  0  0  0  0  0  0
   33.0816  -34.6454   -0.1026 N   0  0  0  0  0  0  0  0  0  0  0  0
   33.0203  -33.2552    1.8482 C   0  0  0  0  0  0  0  0  0  0  0  0
   33.5554  -32.5121    2.7205 O   0  0  0  0  0  0  0  0  0  0  0  0
   31.6701  -33.5654    1.9763 O   0  0  0  0  0  0  0  0  0  0  0  0
  2  1  1  6
  2  6  1  0
  2  3  1  0
  4  3  1  0
  5  4  2  0
  6  7  2  0
  8  4  1  0
  9 10  1  0
  9  6  1  0
 10 14  1  0
 10 11  1  1
 12 11  1  0
 13 12  2  0
 14 15  2  0
 16 12  1  0
 18 17  1  6
 18 19  1  0
 20 18  1  0
 21 20  1  6
 22 14  1  0
 22 21  1  0
 23 21  1  0
 24 23  2  0
 25 23  1  0
M  END
$$$$
