DDL.pdb
     RDKit          3D

 25 24  0  0  1  0  0  0  0  0999 V2000
   17.4855  -13.6211  -14.8545 N   0  0  0  0  0  0  0  0  0  0  0  0
   16.8689  -13.4771  -16.1614 C   0  0  1  0  0  0  0  0  0  0  0  0
   15.4097  -13.8485  -16.1046 C   0  0  0  0  0  0  0  0  0  0  0  0
   15.2011  -15.1415  -15.4370 C   0  0  0  0  0  0  0  0  0  0  0  0
   15.2971  -16.2289  -16.0377 O   0  0  0  0  0  0  0  0  0  0  0  0
   17.1099  -12.1361  -16.6979 C   0  0  0  0  0  0  0  0  0  0  0  0
   16.5578  -11.8103  -17.7802 O   0  0  0  0  0  0  0  0  0  0  0  0
   14.8861  -15.1713  -14.0928 O   0  0  0  0  0  0  0  0  0  0  0  0
   17.9244  -11.1700  -16.0857 N   0  0  0  0  0  0  0  0  0  0  0  0
   18.1428   -9.8235  -16.5943 C   0  0  1  0  0  0  0  0  0  0  0  0
   16.8668   -9.1333  -16.9341 C   0  0  0  0  0  0  0  0  0  0  0  0
   17.1558   -7.7924  -17.4811 C   0  0  0  0  0  0  0  0  0  0  0  0
   16.9170   -6.7031  -16.8732 O   0  0  0  0  0  0  0  0  0  0  0  0
   18.9575   -9.0326  -15.6282 C   0  0  0  0  0  0  0  0  0  0  0  0
   18.6480   -8.9181  -14.4203 O   0  0  0  0  0  0  0  0  0  0  0  0
   17.7327   -7.6374  -18.7515 O   0  0  0  0  0  0  0  0  0  0  0  0
   24.0990  -10.1341  -15.2692 C   0  0  0  0  0  0  0  0  0  0  0  0
   22.6958   -9.6672  -14.9831 C   0  0  1  0  0  0  0  0  0  0  0  0
   22.4773   -9.8593  -13.4821 C   0  0  0  0  0  0  0  0  0  0  0  0
   22.4603   -8.2240  -15.2845 C   0  0  0  0  0  0  0  0  0  0  0  0
   21.0351   -7.7664  -15.0557 C   0  0  2  0  0  0  0  0  0  0  0  0
   20.1426   -8.3625  -16.0428 N   0  0  0  0  0  0  0  0  0  0  0  0
   20.8798   -6.3017  -15.0670 C   0  0  0  0  0  0  0  0  0  0  0  0
   21.4872   -5.6292  -14.1850 O   0  0  0  0  0  0  0  0  0  0  0  0
   20.0994   -5.6252  -15.9992 O   0  0  0  0  0  0  0  0  0  0  0  0
  2  1  1  1
  2  6  1  0
  2  3  1  0
  4  3  1  0
  5  4  2  0
  6  7  2  0
  8  4  1  0
  9 10  1  0
  9  6  1  0
 10 14  1  0
 10 11  1  1
 12 11  1  0
 13 12  2  0
 14 15  2  0
 16 12  1  0
 18 17  1  1
 18 19  1  0
 20 18  1  0
 21 20  1  6
 22 14  1  0
 22 21  1  0
 23 21  1  0
 24 23  2  0
 25 23  1  0
M  END
$$$$
