DDL.pdb
     RDKit          3D

 25 24  0  0  1  0  0  0  0  0999 V2000
   15.9466  -24.6234    5.0664 N   0  0  0  0  0  0  0  0  0  0  0  0
   16.5905  -23.6961    4.1530 C   0  0  1  0  0  0  0  0  0  0  0  0
   16.0200  -23.8343    2.7652 C   0  0  0  0  0  0  0  0  0  0  0  0
   16.2147  -25.1885    2.2274 C   0  0  0  0  0  0  0  0  0  0  0  0
   16.8244  -26.0768    2.8533 O   0  0  0  0  0  0  0  0  0  0  0  0
   16.5261  -22.3305    4.6777 C   0  0  0  0  0  0  0  0  0  0  0  0
   17.1054  -21.4117    4.0432 O   0  0  0  0  0  0  0  0  0  0  0  0
   15.7090  -25.5063    0.9823 O   0  0  0  0  0  0  0  0  0  0  0  0
   15.8557  -21.9626    5.8553 N   0  0  0  0  0  0  0  0  0  0  0  0
   15.7229  -20.5980    6.3447 C   0  0  1  0  0  0  0  0  0  0  0  0
   14.3802  -20.3372    6.9358 C   0  0  0  0  0  0  0  0  0  0  0  0
   14.2718  -18.9150    7.3184 C   0  0  0  0  0  0  0  0  0  0  0  0
   14.7648  -17.9533    6.6512 O   0  0  0  0  0  0  0  0  0  0  0  0
   16.8189  -20.2853    7.3057 C   0  0  0  0  0  0  0  0  0  0  0  0
   17.0599  -20.9959    8.3082 O   0  0  0  0  0  0  0  0  0  0  0  0
   13.5924  -18.5286    8.4845 O   0  0  0  0  0  0  0  0  0  0  0  0
   21.6679  -19.4364    5.5607 C   0  0  0  0  0  0  0  0  0  0  0  0
   20.5231  -19.7690    6.4814 C   0  0  1  0  0  0  0  0  0  0  0  0
   21.0531  -20.8121    7.4656 C   0  0  0  0  0  0  0  0  0  0  0  0
   20.0309  -18.6108    7.2849 C   0  0  0  0  0  0  0  0  0  0  0  0
   18.7506  -18.8826    8.0462 C   0  0  2  0  0  0  0  0  0  0  0  0
   17.6535  -19.1472    7.1229 N   0  0  0  0  0  0  0  0  0  0  0  0
   18.3731  -17.7966    8.9669 C   0  0  0  0  0  0  0  0  0  0  0  0
   19.1951  -17.4642    9.8686 O   0  0  0  0  0  0  0  0  0  0  0  0
   17.1593  -17.1209    8.8914 O   0  0  0  0  0  0  0  0  0  0  0  0
  2  1  1  1
  2  6  1  0
  2  3  1  0
  4  3  1  0
  5  4  2  0
  6  7  2  0
  8  4  1  0
  9 10  1  0
  9  6  1  0
 10 14  1  0
 10 11  1  1
 12 11  1  0
 13 12  2  0
 14 15  2  0
 16 12  1  0
 18 17  1  6
 18 19  1  0
 20 18  1  0
 21 20  1  6
 22 14  1  0
 22 21  1  0
 23 21  1  0
 24 23  2  0
 25 23  1  0
M  END
$$$$
