DDL.pdb
     RDKit          3D

 25 24  0  0  1  0  0  0  0  0999 V2000
   26.9988  -21.2076  -11.5472 N   0  0  0  0  0  0  0  0  0  0  0  0
   25.5602  -21.2920  -11.7262 C   0  0  1  0  0  0  0  0  0  0  0  0
   24.8466  -20.4475  -10.7025 C   0  0  0  0  0  0  0  0  0  0  0  0
   25.1031  -20.9167   -9.3331 C   0  0  0  0  0  0  0  0  0  0  0  0
   25.7942  -21.9242   -9.0886 O   0  0  0  0  0  0  0  0  0  0  0  0
   25.1948  -20.9693  -13.1070 C   0  0  0  0  0  0  0  0  0  0  0  0
   26.0832  -20.5251  -13.8789 O   0  0  0  0  0  0  0  0  0  0  0  0
   24.5657  -20.2266   -8.2645 O   0  0  0  0  0  0  0  0  0  0  0  0
   23.9061  -21.1203  -13.6437 N   0  0  0  0  0  0  0  0  0  0  0  0
   23.5350  -20.8066  -15.0161 C   0  0  1  0  0  0  0  0  0  0  0  0
   22.3436  -21.5776  -15.4702 C   0  0  0  0  0  0  0  0  0  0  0  0
   22.3442  -21.6739  -16.9438 C   0  0  0  0  0  0  0  0  0  0  0  0
   23.2052  -21.1235  -17.6980 O   0  0  0  0  0  0  0  0  0  0  0  0
   23.3346  -19.3378  -15.1738 C   0  0  0  0  0  0  0  0  0  0  0  0
   22.5657  -18.6792  -14.4368 O   0  0  0  0  0  0  0  0  0  0  0  0
   21.3573  -22.4064  -17.6221 O   0  0  0  0  0  0  0  0  0  0  0  0
   27.4768  -16.0993  -16.7411 C   0  0  0  0  0  0  0  0  0  0  0  0
   26.2242  -16.6214  -16.0873 C   0  0  1  0  0  0  0  0  0  0  0  0
   26.0034  -15.7664  -14.8391 C   0  0  0  0  0  0  0  0  0  0  0  0
   24.9991  -16.4981  -16.9318 C   0  0  0  0  0  0  0  0  0  0  0  0
   23.7763  -17.1798  -16.3551 C   0  0  2  0  0  0  0  0  0  0  0  0
   24.0198  -18.6074  -16.1848 N   0  0  0  0  0  0  0  0  0  0  0  0
   22.5577  -16.9768  -17.1572 C   0  0  0  0  0  0  0  0  0  0  0  0
   22.0654  -15.8132  -17.2129 O   0  0  0  0  0  0  0  0  0  0  0  0
   21.9250  -18.0009  -17.8548 O   0  0  0  0  0  0  0  0  0  0  0  0
  2  1  1  6
  2  6  1  0
  2  3  1  0
  4  3  1  0
  5  4  2  0
  6  7  2  0
  8  4  1  0
  9 10  1  0
  9  6  1  0
 10 14  1  0
 10 11  1  1
 12 11  1  0
 13 12  2  0
 14 15  2  0
 16 12  1  0
 18 17  1  6
 18 19  1  0
 20 18  1  0
 21 20  1  6
 22 14  1  0
 22 21  1  0
 23 21  1  0
 24 23  2  0
 25 23  1  0
M  END
$$$$
