DDL.pdb
     RDKit          3D

 25 24  0  0  1  0  0  0  0  0999 V2000
   15.5972  -13.0390  -18.2415 N   0  0  0  0  0  0  0  0  0  0  0  0
   16.5370  -12.6334  -17.2116 C   0  0  1  0  0  0  0  0  0  0  0  0
   17.6318  -13.6573  -17.0577 C   0  0  0  0  0  0  0  0  0  0  0  0
   17.1217  -14.9246  -16.5150 C   0  0  0  0  0  0  0  0  0  0  0  0
   15.9391  -15.0695  -16.1501 O   0  0  0  0  0  0  0  0  0  0  0  0
   17.0344  -11.2813  -17.4738 C   0  0  0  0  0  0  0  0  0  0  0  0
   16.9272  -10.8132  -18.6365 O   0  0  0  0  0  0  0  0  0  0  0  0
   17.9714  -16.0069  -16.3981 O   0  0  0  0  0  0  0  0  0  0  0  0
   17.6319  -10.4537  -16.5097 N   0  0  0  0  0  0  0  0  0  0  0  0
   18.1302   -9.1092  -16.7618 C   0  0  1  0  0  0  0  0  0  0  0  0
   17.1081   -8.2393  -17.4089 C   0  0  0  0  0  0  0  0  0  0  0  0
   17.7022   -6.9258  -17.7293 C   0  0  0  0  0  0  0  0  0  0  0  0
   17.8474   -5.9812  -16.8929 O   0  0  0  0  0  0  0  0  0  0  0  0
   18.6495   -8.5063  -15.5012 C   0  0  0  0  0  0  0  0  0  0  0  0
   18.2839   -8.8937  -14.3678 O   0  0  0  0  0  0  0  0  0  0  0  0
   18.1583   -6.6339  -19.0245 O   0  0  0  0  0  0  0  0  0  0  0  0
   22.7789   -9.1274  -12.8986 C   0  0  0  0  0  0  0  0  0  0  0  0
   22.9054   -8.9119  -14.3841 C   0  0  1  0  0  0  0  0  0  0  0  0
   23.6022  -10.1539  -14.9401 C   0  0  0  0  0  0  0  0  0  0  0  0
   21.5986   -8.7810  -15.0944 C   0  0  0  0  0  0  0  0  0  0  0  0
   20.8211   -7.5313  -14.7388 C   0  0  2  0  0  0  0  0  0  0  0  0
   19.5995   -7.4471  -15.5305 N   0  0  0  0  0  0  0  0  0  0  0  0
   21.5998   -6.2909  -14.8948 C   0  0  0  0  0  0  0  0  0  0  0  0
   22.1671   -5.8083  -13.8728 O   0  0  0  0  0  0  0  0  0  0  0  0
   21.7410   -5.6274  -16.1095 O   0  0  0  0  0  0  0  0  0  0  0  0
  2  1  1  6
  2  6  1  0
  2  3  1  0
  4  3  1  0
  5  4  2  0
  6  7  2  0
  8  4  1  0
  9 10  1  0
  9  6  1  0
 10 14  1  0
 10 11  1  1
 12 11  1  0
 13 12  2  0
 14 15  2  0
 16 12  1  0
 18 17  1  1
 18 19  1  0
 20 18  1  0
 21 20  1  6
 22 14  1  0
 22 21  1  0
 23 21  1  0
 24 23  2  0
 25 23  1  0
M  END
$$$$
