DDL.pdb
     RDKit          3D

 25 24  0  0  1  0  0  0  0  0999 V2000
   31.6609  -38.0507   -1.0056 N   0  0  0  0  0  0  0  0  0  0  0  0
   31.3396  -37.8313   -2.4046 C   0  0  1  0  0  0  0  0  0  0  0  0
   31.8659  -38.9591   -3.2542 C   0  0  0  0  0  0  0  0  0  0  0  0
   33.3221  -38.8720   -3.4360 C   0  0  0  0  0  0  0  0  0  0  0  0
   33.9995  -37.9321   -2.9774 O   0  0  0  0  0  0  0  0  0  0  0  0
   29.9040  -37.5954   -2.5710 C   0  0  0  0  0  0  0  0  0  0  0  0
   29.4700  -37.2922   -3.7121 O   0  0  0  0  0  0  0  0  0  0  0  0
   33.9813  -39.8610   -4.1390 O   0  0  0  0  0  0  0  0  0  0  0  0
   28.9593  -37.6834   -1.5360 N   0  0  0  0  0  0  0  0  0  0  0  0
   27.5185  -37.5751   -1.7141 C   0  0  1  0  0  0  0  0  0  0  0  0
   26.7689  -38.5400   -0.8613 C   0  0  0  0  0  0  0  0  0  0  0  0
   26.9727  -38.2089    0.5633 C   0  0  0  0  0  0  0  0  0  0  0  0
   26.1554  -37.5393    1.2679 O   0  0  0  0  0  0  0  0  0  0  0  0
   27.0735  -36.1715   -1.4808 C   0  0  0  0  0  0  0  0  0  0  0  0
   27.6790  -35.3913   -0.7107 O   0  0  0  0  0  0  0  0  0  0  0  0
   28.1239  -38.6305    1.2473 O   0  0  0  0  0  0  0  0  0  0  0  0
   25.1201  -32.9971   -5.5495 C   0  0  0  0  0  0  0  0  0  0  0  0
   25.7700  -33.5789   -4.3215 C   0  0  1  0  0  0  0  0  0  0  0  0
   26.8898  -32.6141   -3.9307 C   0  0  0  0  0  0  0  0  0  0  0  0
   24.8564  -33.6973   -3.1465 C   0  0  0  0  0  0  0  0  0  0  0  0
   25.5110  -34.2674   -1.9059 C   0  0  2  0  0  0  0  0  0  0  0  0
   25.9229  -35.6475   -2.1340 N   0  0  0  0  0  0  0  0  0  0  0  0
   24.6589  -34.1958   -0.7067 C   0  0  0  0  0  0  0  0  0  0  0  0
   24.2288  -35.2778   -0.2132 O   0  0  0  0  0  0  0  0  0  0  0  0
   24.3063  -32.9982   -0.0927 O   0  0  0  0  0  0  0  0  0  0  0  0
  2  1  1  1
  2  6  1  0
  2  3  1  0
  4  3  1  0
  5  4  2  0
  6  7  2  0
  8  4  1  0
  9 10  1  0
  9  6  1  0
 10 14  1  0
 10 11  1  1
 12 11  1  0
 13 12  2  0
 14 15  2  0
 16 12  1  0
 18 17  1  6
 18 19  1  0
 20 18  1  0
 21 20  1  6
 22 14  1  0
 22 21  1  0
 23 21  1  0
 24 23  2  0
 25 23  1  0
M  END
$$$$
