DDL.pdb
     RDKit          3D

 25 24  0  0  1  0  0  0  0  0999 V2000
   31.4465  -37.0962   -2.6782 N   0  0  0  0  0  0  0  0  0  0  0  0
   30.7018  -38.1586   -3.3305 C   0  0  1  0  0  0  0  0  0  0  0  0
   31.1149  -39.5046   -2.7936 C   0  0  0  0  0  0  0  0  0  0  0  0
   32.3439  -39.9943   -3.4346 C   0  0  0  0  0  0  0  0  0  0  0  0
   32.9693  -39.3275   -4.2813 O   0  0  0  0  0  0  0  0  0  0  0  0
   29.2620  -37.9091   -3.2364 C   0  0  0  0  0  0  0  0  0  0  0  0
   28.6362  -37.5827   -4.2777 O   0  0  0  0  0  0  0  0  0  0  0  0
   32.8389  -41.2386   -3.0976 O   0  0  0  0  0  0  0  0  0  0  0  0
   28.5142  -38.0079   -2.0521 N   0  0  0  0  0  0  0  0  0  0  0  0
   27.0703  -37.8445   -1.9644 C   0  0  1  0  0  0  0  0  0  0  0  0
   26.4515  -38.7925   -0.9957 C   0  0  0  0  0  0  0  0  0  0  0  0
   24.9803  -38.7304   -1.1080 C   0  0  0  0  0  0  0  0  0  0  0  0
   24.1802  -39.4873   -0.4757 O   0  0  0  0  0  0  0  0  0  0  0  0
   26.7294  -36.4287   -1.6451 C   0  0  0  0  0  0  0  0  0  0  0  0
   27.3393  -35.7685   -0.7731 O   0  0  0  0  0  0  0  0  0  0  0  0
   24.3572  -37.7966   -1.9509 O   0  0  0  0  0  0  0  0  0  0  0  0
   24.8562  -32.8722   -5.5555 C   0  0  0  0  0  0  0  0  0  0  0  0
   25.5492  -33.5194   -4.3850 C   0  0  1  0  0  0  0  0  0  0  0  0
   26.6883  -32.5802   -3.9878 C   0  0  0  0  0  0  0  0  0  0  0  0
   24.6803  -33.6956   -3.1837 C   0  0  0  0  0  0  0  0  0  0  0  0
   25.3682  -34.3648   -2.0126 C   0  0  2  0  0  0  0  0  0  0  0  0
   25.6794  -35.7539   -2.3286 N   0  0  0  0  0  0  0  0  0  0  0  0
   24.5925  -34.3024   -0.7620 C   0  0  0  0  0  0  0  0  0  0  0  0
   23.9733  -35.3404   -0.3900 O   0  0  0  0  0  0  0  0  0  0  0  0
   24.5094  -33.1596    0.0271 O   0  0  0  0  0  0  0  0  0  0  0  0
  2  1  1  1
  2  6  1  0
  2  3  1  0
  4  3  1  0
  5  4  2  0
  6  7  2  0
  8  4  1  0
  9 10  1  0
  9  6  1  0
 10 14  1  0
 10 11  1  1
 12 11  1  0
 13 12  2  0
 14 15  2  0
 16 12  1  0
 18 17  1  6
 18 19  1  0
 20 18  1  0
 21 20  1  6
 22 14  1  0
 22 21  1  0
 23 21  1  0
 24 23  2  0
 25 23  1  0
M  END
$$$$
