DDL.pdb
     RDKit          3D

 25 24  0  0  1  0  0  0  0  0999 V2000
   19.1638  -11.9450  -16.6419 N   0  0  0  0  0  0  0  0  0  0  0  0
   18.6186  -10.6615  -17.0469 C   0  0  1  0  0  0  0  0  0  0  0  0
   17.1243  -10.7491  -17.2196 C   0  0  0  0  0  0  0  0  0  0  0  0
   16.7547  -11.6274  -18.3391 C   0  0  0  0  0  0  0  0  0  0  0  0
   17.0293  -11.3547  -19.5234 O   0  0  0  0  0  0  0  0  0  0  0  0
   19.0388   -9.6093  -16.1192 C   0  0  0  0  0  0  0  0  0  0  0  0
   19.4087   -9.9365  -14.9623 O   0  0  0  0  0  0  0  0  0  0  0  0
   16.0771  -12.8039  -18.0870 O   0  0  0  0  0  0  0  0  0  0  0  0
   19.0602   -8.2398  -16.4282 N   0  0  0  0  0  0  0  0  0  0  0  0
   19.4869   -7.1883  -15.5162 C   0  0  1  0  0  0  0  0  0  0  0  0
   20.8630   -7.4175  -14.9928 C   0  0  0  0  0  0  0  0  0  0  0  0
   21.2173   -6.3488  -14.0373 C   0  0  0  0  0  0  0  0  0  0  0  0
   20.4990   -6.0041  -13.0483 O   0  0  0  0  0  0  0  0  0  0  0  0
   19.3606   -5.8548  -16.1705 C   0  0  0  0  0  0  0  0  0  0  0  0
   19.9358   -5.5746  -17.2470 O   0  0  0  0  0  0  0  0  0  0  0  0
   22.4126   -5.6248  -14.1711 O   0  0  0  0  0  0  0  0  0  0  0  0
   14.6206   -3.1909  -16.0140 C   0  0  0  0  0  0  0  0  0  0  0  0
   15.9627   -3.6592  -16.5122 C   0  0  1  0  0  0  0  0  0  0  0  0
   15.9571   -3.4450  -18.0260 C   0  0  0  0  0  0  0  0  0  0  0  0
   17.1190   -2.8928  -15.9601 C   0  0  0  0  0  0  0  0  0  0  0  0
   18.4689   -3.5207  -16.2364 C   0  0  2  0  0  0  0  0  0  0  0  0
   18.5673   -4.8248  -15.5916 N   0  0  0  0  0  0  0  0  0  0  0  0
   19.6041   -2.6771  -15.8253 C   0  0  0  0  0  0  0  0  0  0  0  0
   20.3679   -3.1054  -14.9129 O   0  0  0  0  0  0  0  0  0  0  0  0
   19.8755   -1.4356  -16.3917 O   0  0  0  0  0  0  0  0  0  0  0  0
  2  1  1  1
  2  6  1  0
  2  3  1  0
  4  3  1  0
  5  4  2  0
  6  7  2  0
  8  4  1  0
  9 10  1  0
  9  6  1  0
 10 14  1  0
 10 11  1  6
 12 11  1  0
 13 12  2  0
 14 15  2  0
 16 12  1  0
 18 17  1  1
 18 19  1  0
 20 18  1  0
 21 20  1  1
 22 14  1  0
 22 21  1  0
 23 21  1  0
 24 23  2  0
 25 23  1  0
M  END
$$$$
