DDL.pdb
     RDKit          3D

 25 24  0  0  1  0  0  0  0  0999 V2000
   27.8821  -21.4384  -15.2653 N   0  0  0  0  0  0  0  0  0  0  0  0
   27.7356  -20.0349  -14.9225 C   0  0  1  0  0  0  0  0  0  0  0  0
   27.4158  -19.2188  -16.1482 C   0  0  0  0  0  0  0  0  0  0  0  0
   28.3785  -19.4617  -17.2323 C   0  0  0  0  0  0  0  0  0  0  0  0
   28.2819  -20.4309  -18.0094 O   0  0  0  0  0  0  0  0  0  0  0  0
   26.7632  -19.8693  -13.8403 C   0  0  0  0  0  0  0  0  0  0  0  0
   26.4804  -18.7056  -13.4552 O   0  0  0  0  0  0  0  0  0  0  0  0
   29.4365  -18.5925  -17.4114 O   0  0  0  0  0  0  0  0  0  0  0  0
   26.1116  -20.9287  -13.1888 N   0  0  0  0  0  0  0  0  0  0  0  0
   25.0406  -20.7730  -12.2151 C   0  0  1  0  0  0  0  0  0  0  0  0
   23.7819  -21.4438  -12.6464 C   0  0  0  0  0  0  0  0  0  0  0  0
   22.7139  -20.4381  -12.8155 C   0  0  0  0  0  0  0  0  0  0  0  0
   22.5300  -19.4499  -12.0392 O   0  0  0  0  0  0  0  0  0  0  0  0
   25.4881  -21.2489  -10.8750 C   0  0  0  0  0  0  0  0  0  0  0  0
   25.8340  -22.4333  -10.6609 O   0  0  0  0  0  0  0  0  0  0  0  0
   21.8062  -20.5183  -13.8834 O   0  0  0  0  0  0  0  0  0  0  0  0
   28.0238  -18.3499   -6.8838 C   0  0  0  0  0  0  0  0  0  0  0  0
   27.5002  -19.4618   -7.7547 C   0  0  1  0  0  0  0  0  0  0  0  0
   28.4055  -20.6676   -7.5018 C   0  0  0  0  0  0  0  0  0  0  0  0
   26.1035  -19.8808   -7.4341 C   0  0  0  0  0  0  0  0  0  0  0  0
   25.5200  -20.8888   -8.4018 C   0  0  2  0  0  0  0  0  0  0  0  0
   25.5434  -20.3638   -9.7620 N   0  0  0  0  0  0  0  0  0  0  0  0
   24.1517  -21.3104   -8.0563 C   0  0  0  0  0  0  0  0  0  0  0  0
   23.9950  -22.0767   -7.0625 O   0  0  0  0  0  0  0  0  0  0  0  0
   23.0269  -20.9066   -8.7687 O   0  0  0  0  0  0  0  0  0  0  0  0
  2  1  1  6
  2  6  1  0
  2  3  1  0
  4  3  1  0
  5  4  2  0
  6  7  2  0
  8  4  1  0
  9 10  1  0
  9  6  1  0
 10 14  1  0
 10 11  1  6
 12 11  1  0
 13 12  2  0
 14 15  2  0
 16 12  1  0
 18 17  1  1
 18 19  1  0
 20 18  1  0
 21 20  1  1
 22 14  1  0
 22 21  1  0
 23 21  1  0
 24 23  2  0
 25 23  1  0
M  END
$$$$
