DDL.pdb
     RDKit          3D

 25 24  0  0  1  0  0  0  0  0999 V2000
   23.6001  -24.2843  -13.5943 N   0  0  0  0  0  0  0  0  0  0  0  0
   22.5954  -24.0543  -14.6172 C   0  0  1  0  0  0  0  0  0  0  0  0
   22.5653  -25.1968  -15.5993 C   0  0  0  0  0  0  0  0  0  0  0  0
   23.8829  -25.4273  -16.2091 C   0  0  0  0  0  0  0  0  0  0  0  0
   24.1657  -26.4781  -16.8160 O   0  0  0  0  0  0  0  0  0  0  0  0
   21.2944  -23.7753  -14.0057 C   0  0  0  0  0  0  0  0  0  0  0  0
   20.3773  -23.3033  -14.7258 O   0  0  0  0  0  0  0  0  0  0  0  0
   24.8567  -24.4526  -16.1159 O   0  0  0  0  0  0  0  0  0  0  0  0
   20.9879  -23.9982  -12.6537 N   0  0  0  0  0  0  0  0  0  0  0  0
   19.7181  -23.6667  -12.0235 C   0  0  1  0  0  0  0  0  0  0  0  0
   19.5533  -24.3305  -10.6998 C   0  0  0  0  0  0  0  0  0  0  0  0
   19.2531  -25.7633  -10.8946 C   0  0  0  0  0  0  0  0  0  0  0  0
   18.9448  -26.2861  -12.0101 O   0  0  0  0  0  0  0  0  0  0  0  0
   19.5627  -22.1875  -11.9220 C   0  0  0  0  0  0  0  0  0  0  0  0
   20.3839  -21.4633  -11.3144 O   0  0  0  0  0  0  0  0  0  0  0  0
   19.2926  -26.6642   -9.8187 O   0  0  0  0  0  0  0  0  0  0  0  0
   21.7802  -18.7010  -14.3458 C   0  0  0  0  0  0  0  0  0  0  0  0
   20.7201  -18.9827  -13.3135 C   0  0  1  0  0  0  0  0  0  0  0  0
   20.1728  -17.6230  -12.8784 C   0  0  0  0  0  0  0  0  0  0  0  0
   19.5674  -19.7814  -13.8258 C   0  0  0  0  0  0  0  0  0  0  0  0
   18.5130  -20.0891  -12.7835 C   0  0  2  0  0  0  0  0  0  0  0  0
   18.4566  -21.5223  -12.5215 N   0  0  0  0  0  0  0  0  0  0  0  0
   17.1718  -19.5972  -13.1422 C   0  0  0  0  0  0  0  0  0  0  0  0
   16.4756  -20.2873  -13.9411 O   0  0  0  0  0  0  0  0  0  0  0  0
   16.6359  -18.4135  -12.6448 O   0  0  0  0  0  0  0  0  0  0  0  0
  2  1  1  1
  2  6  1  0
  2  3  1  0
  4  3  1  0
  5  4  2  0
  6  7  2  0
  8  4  1  0
  9 10  1  0
  9  6  1  0
 10 14  1  0
 10 11  1  1
 12 11  1  0
 13 12  2  0
 14 15  2  0
 16 12  1  0
 18 17  1  6
 18 19  1  0
 20 18  1  0
 21 20  1  6
 22 14  1  0
 22 21  1  0
 23 21  1  0
 24 23  2  0
 25 23  1  0
M  END
$$$$
