DDL.pdb
     RDKit          3D

 25 24  0  0  1  0  0  0  0  0999 V2000
   19.7261   -7.5013  -18.8828 N   0  0  0  0  0  0  0  0  0  0  0  0
   18.5511   -6.7947  -18.4045 C   0  0  1  0  0  0  0  0  0  0  0  0
   17.5106   -7.7664  -17.9108 C   0  0  0  0  0  0  0  0  0  0  0  0
   17.0076   -8.6244  -18.9934 C   0  0  0  0  0  0  0  0  0  0  0  0
   16.7853   -8.1936  -20.1412 O   0  0  0  0  0  0  0  0  0  0  0  0
   18.9270   -5.7867  -17.4111 C   0  0  0  0  0  0  0  0  0  0  0  0
   18.0318   -5.0376  -16.9421 O   0  0  0  0  0  0  0  0  0  0  0  0
   16.7667   -9.9616  -18.7470 O   0  0  0  0  0  0  0  0  0  0  0  0
   20.2329   -5.5895  -16.9344 N   0  0  0  0  0  0  0  0  0  0  0  0
   20.6060   -4.6304  -15.9046 C   0  0  1  0  0  0  0  0  0  0  0  0
   21.8113   -5.0602  -15.1413 C   0  0  0  0  0  0  0  0  0  0  0  0
   21.4777   -6.2256  -14.2978 C   0  0  0  0  0  0  0  0  0  0  0  0
   20.3874   -6.3611  -13.6608 O   0  0  0  0  0  0  0  0  0  0  0  0
   20.7848   -3.2759  -16.5011 C   0  0  0  0  0  0  0  0  0  0  0  0
   21.4752   -3.0764  -17.5267 O   0  0  0  0  0  0  0  0  0  0  0  0
   22.3791   -7.2909  -14.1453 O   0  0  0  0  0  0  0  0  0  0  0  0
   20.3462    0.8915  -19.2385 C   0  0  0  0  0  0  0  0  0  0  0  0
   19.3446    0.8540  -18.1141 C   0  0  1  0  0  0  0  0  0  0  0  0
   17.9868    1.1776  -18.7381 C   0  0  0  0  0  0  0  0  0  0  0  0
   19.2219   -0.4782  -17.4513 C   0  0  0  0  0  0  0  0  0  0  0  0
   20.3625   -0.8123  -16.5131 C   0  0  2  0  0  0  0  0  0  0  0  0
   20.1684   -2.1312  -15.9223 N   0  0  0  0  0  0  0  0  0  0  0  0
   20.5572    0.1851  -15.4469 C   0  0  0  0  0  0  0  0  0  0  0  0
   19.9057    0.0461  -14.3719 O   0  0  0  0  0  0  0  0  0  0  0  0
   21.4213    1.2689  -15.5657 O   0  0  0  0  0  0  0  0  0  0  0  0
  2  1  1  1
  2  6  1  0
  2  3  1  0
  4  3  1  0
  5  4  2  0
  6  7  2  0
  8  4  1  0
  9 10  1  0
  9  6  1  0
 10 14  1  0
 10 11  1  6
 12 11  1  0
 13 12  2  0
 14 15  2  0
 16 12  1  0
 18 17  1  6
 18 19  1  0
 20 18  1  0
 21 20  1  1
 22 14  1  0
 22 21  1  0
 23 21  1  0
 24 23  2  0
 25 23  1  0
M  END
$$$$
