DDL.pdb
     RDKit          3D

 25 24  0  0  1  0  0  0  0  0999 V2000
   14.8407  -26.0133   -1.0512 N   0  0  0  0  0  0  0  0  0  0  0  0
   15.6026  -24.7828   -0.9332 C   0  0  1  0  0  0  0  0  0  0  0  0
   14.9928  -23.6964   -1.7808 C   0  0  0  0  0  0  0  0  0  0  0  0
   15.1076  -23.9944   -3.2158 C   0  0  0  0  0  0  0  0  0  0  0  0
   15.1311  -23.1025   -4.0855 O   0  0  0  0  0  0  0  0  0  0  0  0
   15.7581  -24.4080    0.4738 C   0  0  0  0  0  0  0  0  0  0  0  0
   16.3845  -23.3532    0.7522 O   0  0  0  0  0  0  0  0  0  0  0  0
   15.1939  -25.3076   -3.6342 O   0  0  0  0  0  0  0  0  0  0  0  0
   15.2527  -25.1491    1.5539 N   0  0  0  0  0  0  0  0  0  0  0  0
   15.4066  -24.7866    2.9554 C   0  0  1  0  0  0  0  0  0  0  0  0
   14.2045  -25.1335    3.7647 C   0  0  0  0  0  0  0  0  0  0  0  0
   14.3469  -24.5856    5.1287 C   0  0  0  0  0  0  0  0  0  0  0  0
   15.2549  -23.7715    5.4833 O   0  0  0  0  0  0  0  0  0  0  0  0
   16.6442  -25.4013    3.5148 C   0  0  0  0  0  0  0  0  0  0  0  0
   16.7809  -26.6387    3.6499 O   0  0  0  0  0  0  0  0  0  0  0  0
   13.4542  -24.9457    6.1505 O   0  0  0  0  0  0  0  0  0  0  0  0
   20.8653  -24.4097    1.1525 C   0  0  0  0  0  0  0  0  0  0  0  0
   19.8996  -25.1150    2.0684 C   0  0  1  0  0  0  0  0  0  0  0  0
   20.1013  -26.6123    1.8338 C   0  0  0  0  0  0  0  0  0  0  0  0
   20.1374  -24.8575    3.5197 C   0  0  0  0  0  0  0  0  0  0  0  0
   18.9692  -25.2164    4.4137 C   0  0  2  0  0  0  0  0  0  0  0  0
   17.7431  -24.5959    3.9259 N   0  0  0  0  0  0  0  0  0  0  0  0
   19.1788  -24.8570    5.8266 C   0  0  0  0  0  0  0  0  0  0  0  0
   20.1410  -25.3970    6.4446 O   0  0  0  0  0  0  0  0  0  0  0  0
   18.3716  -23.9541    6.5112 O   0  0  0  0  0  0  0  0  0  0  0  0
  2  1  1  1
  2  6  1  0
  2  3  1  0
  4  3  1  0
  5  4  2  0
  6  7  2  0
  8  4  1  0
  9 10  1  0
  9  6  1  0
 10 14  1  0
 10 11  1  1
 12 11  1  0
 13 12  2  0
 14 15  2  0
 16 12  1  0
 18 17  1  6
 18 19  1  0
 20 18  1  0
 21 20  1  6
 22 14  1  0
 22 21  1  0
 23 21  1  0
 24 23  2  0
 25 23  1  0
M  END
$$$$
