DDL.pdb
     RDKit          3D

 25 24  0  0  1  0  0  0  0  0999 V2000
   29.3649  -34.3524   -5.9488 N   0  0  0  0  0  0  0  0  0  0  0  0
   30.2611  -35.3310   -5.3590 C   0  0  1  0  0  0  0  0  0  0  0  0
   31.6009  -35.3085   -6.0483 C   0  0  0  0  0  0  0  0  0  0  0  0
   31.5046  -35.7611   -7.4436 C   0  0  0  0  0  0  0  0  0  0  0  0
   30.4923  -36.3303   -7.8950 O   0  0  0  0  0  0  0  0  0  0  0  0
   30.3466  -35.1412   -3.9096 C   0  0  0  0  0  0  0  0  0  0  0  0
   30.2405  -33.9767   -3.4456 O   0  0  0  0  0  0  0  0  0  0  0  0
   32.5672  -35.5557   -8.3013 O   0  0  0  0  0  0  0  0  0  0  0  0
   30.5414  -36.1777   -2.9827 N   0  0  0  0  0  0  0  0  0  0  0  0
   30.5465  -36.0099   -1.5366 C   0  0  1  0  0  0  0  0  0  0  0  0
   29.7845  -37.0841   -0.8398 C   0  0  0  0  0  0  0  0  0  0  0  0
   29.5497  -36.6971    0.5659 C   0  0  0  0  0  0  0  0  0  0  0  0
   29.1235  -37.4860    1.4653 O   0  0  0  0  0  0  0  0  0  0  0  0
   31.9463  -35.9112   -1.0332 C   0  0  0  0  0  0  0  0  0  0  0  0
   32.7917  -36.8181   -1.2091 O   0  0  0  0  0  0  0  0  0  0  0  0
   29.7929  -35.3866    1.0064 O   0  0  0  0  0  0  0  0  0  0  0  0
   34.9049  -31.4234   -1.6284 C   0  0  0  0  0  0  0  0  0  0  0  0
   34.4236  -32.8400   -1.4535 C   0  0  1  0  0  0  0  0  0  0  0  0
   35.4745  -33.7345   -2.1114 C   0  0  0  0  0  0  0  0  0  0  0  0
   34.3030  -33.2712   -0.0291 C   0  0  0  0  0  0  0  0  0  0  0  0
   33.7683  -34.6763    0.1511 C   0  0  2  0  0  0  0  0  0  0  0  0
   32.3910  -34.7631   -0.3196 N   0  0  0  0  0  0  0  0  0  0  0  0
   33.8496  -35.1619    1.5393 C   0  0  0  0  0  0  0  0  0  0  0  0
   34.9887  -35.2253    2.0849 O   0  0  0  0  0  0  0  0  0  0  0  0
   32.7362  -35.5524    2.2765 O   0  0  0  0  0  0  0  0  0  0  0  0
  2  1  1  6
  2  6  1  0
  2  3  1  0
  4  3  1  0
  5  4  2  0
  6  7  2  0
  8  4  1  0
  9 10  1  0
  9  6  1  0
 10 14  1  0
 10 11  1  1
 12 11  1  0
 13 12  2  0
 14 15  2  0
 16 12  1  0
 18 17  1  1
 18 19  1  0
 20 18  1  0
 21 20  1  1
 22 14  1  0
 22 21  1  0
 23 21  1  0
 24 23  2  0
 25 23  1  0
M  END
$$$$
