DDL.pdb
     RDKit          3D

 25 24  0  0  1  0  0  0  0  0999 V2000
   17.0799  -11.9511  -14.1876 N   0  0  0  0  0  0  0  0  0  0  0  0
   16.5937  -11.5413  -15.4932 C   0  0  1  0  0  0  0  0  0  0  0  0
   15.1173  -11.8149  -15.6207 C   0  0  0  0  0  0  0  0  0  0  0  0
   14.8134  -13.2464  -15.4813 C   0  0  0  0  0  0  0  0  0  0  0  0
   13.9880  -13.8301  -16.2097 O   0  0  0  0  0  0  0  0  0  0  0  0
   16.9548  -10.1478  -15.7614 C   0  0  0  0  0  0  0  0  0  0  0  0
   16.6748   -9.6569  -16.8853 O   0  0  0  0  0  0  0  0  0  0  0  0
   15.4582  -13.9885  -14.5115 O   0  0  0  0  0  0  0  0  0  0  0  0
   17.6009   -9.3038  -14.8440 N   0  0  0  0  0  0  0  0  0  0  0  0
   17.8814   -7.8928  -15.0672 C   0  0  1  0  0  0  0  0  0  0  0  0
   16.7202   -7.0241  -14.7248 C   0  0  0  0  0  0  0  0  0  0  0  0
   17.0485   -5.6146  -15.0183 C   0  0  0  0  0  0  0  0  0  0  0  0
   17.8566   -5.2400  -15.9237 O   0  0  0  0  0  0  0  0  0  0  0  0
   19.1106   -7.4874  -14.3274 C   0  0  0  0  0  0  0  0  0  0  0  0
   19.2122   -7.5863  -13.0832 O   0  0  0  0  0  0  0  0  0  0  0  0
   16.4650   -4.5678  -14.2872 O   0  0  0  0  0  0  0  0  0  0  0  0
   23.8246   -9.1089  -16.1551 C   0  0  0  0  0  0  0  0  0  0  0  0
   22.7541   -8.6372  -15.2061 C   0  0  1  0  0  0  0  0  0  0  0  0
   23.1162   -9.2057  -13.8339 C   0  0  0  0  0  0  0  0  0  0  0  0
   22.6759   -7.1529  -15.0647 C   0  0  0  0  0  0  0  0  0  0  0  0
   21.4708   -6.6658  -14.2880 C   0  0  2  0  0  0  0  0  0  0  0  0
   20.2413   -6.9624  -15.0137 N   0  0  0  0  0  0  0  0  0  0  0  0
   21.5219   -5.2296  -13.9648 C   0  0  0  0  0  0  0  0  0  0  0  0
   20.7575   -4.4465  -14.5986 O   0  0  0  0  0  0  0  0  0  0  0  0
   22.3680   -4.6956  -12.9981 O   0  0  0  0  0  0  0  0  0  0  0  0
  2  1  1  1
  2  6  1  0
  2  3  1  0
  4  3  1  0
  5  4  2  0
  6  7  2  0
  8  4  1  0
  9 10  1  0
  9  6  1  0
 10 14  1  0
 10 11  1  1
 12 11  1  0
 13 12  2  0
 14 15  2  0
 16 12  1  0
 18 17  1  6
 18 19  1  0
 20 18  1  0
 21 20  1  6
 22 14  1  0
 22 21  1  0
 23 21  1  0
 24 23  2  0
 25 23  1  0
M  END
$$$$
