DDL.pdb
     RDKit          3D

 25 24  0  0  1  0  0  0  0  0999 V2000
   21.3085   -9.4065  -18.7361 N   0  0  0  0  0  0  0  0  0  0  0  0
   20.0792   -9.2899  -17.9719 C   0  0  1  0  0  0  0  0  0  0  0  0
   19.7594  -10.5885  -17.2778 C   0  0  0  0  0  0  0  0  0  0  0  0
   19.6955  -11.7119  -18.2238 C   0  0  0  0  0  0  0  0  0  0  0  0
   18.7437  -11.8707  -19.0120 O   0  0  0  0  0  0  0  0  0  0  0  0
   20.1459   -8.1431  -17.0639 C   0  0  0  0  0  0  0  0  0  0  0  0
   19.4218   -8.1443  -16.0352 O   0  0  0  0  0  0  0  0  0  0  0  0
   20.7210  -12.6363  -18.2542 O   0  0  0  0  0  0  0  0  0  0  0  0
   20.9706   -7.0233  -17.2575 N   0  0  0  0  0  0  0  0  0  0  0  0
   21.1351   -5.9369  -16.3025 C   0  0  1  0  0  0  0  0  0  0  0  0
   21.6975   -6.4049  -15.0045 C   0  0  0  0  0  0  0  0  0  0  0  0
   21.7787   -5.2731  -14.0594 C   0  0  0  0  0  0  0  0  0  0  0  0
   22.8137   -4.9729  -13.3874 O   0  0  0  0  0  0  0  0  0  0  0  0
   21.9576   -4.8457  -16.8986 C   0  0  0  0  0  0  0  0  0  0  0  0
   22.9888   -5.0699  -17.5727 O   0  0  0  0  0  0  0  0  0  0  0  0
   20.6763   -4.4320  -13.8406 O   0  0  0  0  0  0  0  0  0  0  0  0
   20.5091   -0.9012  -19.5597 C   0  0  0  0  0  0  0  0  0  0  0  0
   20.8774   -2.3592  -19.4740 C   0  0  1  0  0  0  0  0  0  0  0  0
   20.8664   -2.8896  -20.9079 C   0  0  0  0  0  0  0  0  0  0  0  0
   22.2398   -2.6120  -18.9180 C   0  0  0  0  0  0  0  0  0  0  0  0
   22.3418   -2.4311  -17.4181 C   0  0  2  0  0  0  0  0  0  0  0  0
   21.6009   -3.4789  -16.7257 N   0  0  0  0  0  0  0  0  0  0  0  0
   21.8844   -1.1104  -16.9535 C   0  0  0  0  0  0  0  0  0  0  0  0
   22.4736   -0.0832  -17.3974 O   0  0  0  0  0  0  0  0  0  0  0  0
   20.8378   -0.9397  -16.0529 O   0  0  0  0  0  0  0  0  0  0  0  0
  2  1  1  1
  2  6  1  0
  2  3  1  0
  4  3  1  0
  5  4  2  0
  6  7  2  0
  8  4  1  0
  9 10  1  0
  9  6  1  0
 10 14  1  0
 10 11  1  1
 12 11  1  0
 13 12  2  0
 14 15  2  0
 16 12  1  0
 18 17  1  6
 18 19  1  0
 20 18  1  0
 21 20  1  6
 22 14  1  0
 22 21  1  0
 23 21  1  0
 24 23  2  0
 25 23  1  0
M  END
$$$$
