INW.pdb
     RDKit          3D

 31 32  0  0  1  0  0  0  0  0999 V2000
    7.4108  -11.7599   19.7745 C   0  0  0  0  0  0  0  0  0  0  0  0
    7.4799  -13.2135   19.4600 C   0  0  0  0  0  0  0  0  0  0  0  0
    8.0374  -14.0621   20.5571 C   0  0  2  0  0  0  0  0  0  0  0  0
    9.3756  -13.5147   21.0462 C   0  0  0  0  0  0  0  0  0  0  0  0
    8.1116  -15.5239   20.2625 C   0  0  2  0  0  0  0  0  0  0  0  0
    6.7781  -15.9399   19.8715 N   0  0  0  0  0  0  0  0  0  0  0  0
    8.6256  -16.3430   21.3951 C   0  0  0  0  0  0  0  0  0  0  0  0
    7.8203  -16.6853   22.2830 O   0  0  0  0  0  0  0  0  0  0  0  0
   11.7188  -19.1896   19.6399 N   0  0  0  0  0  0  0  0  0  0  0  0
   11.2044  -19.4156   20.9589 C   0  0  0  0  0  0  0  0  0  0  0  0
   10.4617  -20.4251   21.0630 O   0  0  0  0  0  0  0  0  0  0  0  0
   11.5575  -18.4982   22.0554 C   0  0  0  0  0  0  0  0  0  0  0  0
   10.4814  -17.6447   22.5586 C   0  0  2  0  0  0  0  0  0  0  0  0
    9.9681  -16.7424   21.5063 N   0  0  0  0  0  0  0  0  0  0  0  0
   10.6262  -16.8630   23.7531 C   0  0  0  0  0  0  0  0  0  0  0  0
   11.0983  -15.6804   23.6635 O   0  0  0  0  0  0  0  0  0  0  0  0
   10.2838  -17.2861   25.0636 N   0  0  0  0  0  0  0  0  0  0  0  0
   10.5329  -16.5556   26.2493 C   0  0  1  0  0  0  0  0  0  0  0  0
   10.0721  -15.1467   26.3340 C   0  0  0  0  0  0  0  0  0  0  0  0
    8.6110  -14.9381   26.2316 C   0  0  0  0  0  0  0  0  0  0  0  0
    7.6571  -15.9264   25.9609 C   0  0  0  0  0  0  0  0  0  0  0  0
    6.4470  -15.3650   25.9685 N   0  0  0  0  0  0  0  0  0  0  0  0
    6.5229  -14.0641   26.2262 C   0  0  0  0  0  0  0  0  0  0  0  0
    5.5912  -13.0644   26.3330 C   0  0  0  0  0  0  0  0  0  0  0  0
    5.9643  -11.7711   26.6039 C   0  0  0  0  0  0  0  0  0  0  0  0
    7.2997  -11.4645   26.7726 C   0  0  0  0  0  0  0  0  0  0  0  0
    8.2241  -12.4943   26.6598 C   0  0  0  0  0  0  0  0  0  0  0  0
    7.8723  -13.7965   26.3901 C   0  0  0  0  0  0  0  0  0  0  0  0
   10.1498  -17.3311   27.4919 C   0  0  0  0  0  0  0  0  0  0  0  0
   10.3527  -16.8956   28.6378 O   0  0  0  0  0  0  0  0  0  0  0  0
    9.5576  -18.5631   27.3105 O   0  0  0  0  0  0  0  0  0  0  0  0
  2  3  1  0
  2  1  1  0
  3  4  1  6
  5  6  1  1
  5  3  1  0
  7  5  1  0
  8  7  2  0
  9 10  1  0
 10 12  1  0
 11 10  2  0
 13 12  1  6
 13 15  1  0
 13 14  1  0
 14  7  1  0
 15 16  2  0
 17 18  1  0
 17 15  1  0
 18 29  1  0
 18 19  1  6
 20 19  1  0
 20 28  1  0
 21 20  2  0
 22 21  1  0
 22 23  1  0
 23 24  1  0
 23 28  2  0
 24 25  2  0
 25 26  1  0
 27 26  2  0
 28 27  1  0
 29 30  2  0
 29 31  1  0
M  END
$$$$
