INW.pdb
     RDKit          3D

 31 32  0  0  1  0  0  0  0  0999 V2000
    7.2309  -11.6375   20.1897 C   0  0  0  0  0  0  0  0  0  0  0  0
    7.2742  -13.0829   19.8355 C   0  0  0  0  0  0  0  0  0  0  0  0
    7.8498  -13.9667   20.8948 C   0  0  2  0  0  0  0  0  0  0  0  0
    9.2670  -13.5326   21.2592 C   0  0  0  0  0  0  0  0  0  0  0  0
    7.7734  -15.4319   20.6188 C   0  0  2  0  0  0  0  0  0  0  0  0
    6.3665  -15.7599   20.4875 N   0  0  0  0  0  0  0  0  0  0  0  0
    8.4335  -16.2766   21.6526 C   0  0  0  0  0  0  0  0  0  0  0  0
    7.7973  -16.5319   22.6938 O   0  0  0  0  0  0  0  0  0  0  0  0
   12.1577  -20.6044   22.8972 N   0  0  0  0  0  0  0  0  0  0  0  0
   12.3404  -19.1833   22.8484 C   0  0  0  0  0  0  0  0  0  0  0  0
   13.2116  -18.7421   23.6409 O   0  0  0  0  0  0  0  0  0  0  0  0
   11.5372  -18.3679   21.9219 C   0  0  0  0  0  0  0  0  0  0  0  0
   10.3978  -17.6586   22.5035 C   0  0  2  0  0  0  0  0  0  0  0  0
    9.7321  -16.7930   21.5073 N   0  0  0  0  0  0  0  0  0  0  0  0
   10.5130  -16.8987   23.7152 C   0  0  0  0  0  0  0  0  0  0  0  0
   11.1204  -15.7763   23.6845 O   0  0  0  0  0  0  0  0  0  0  0  0
   10.0009  -17.2815   24.9820 N   0  0  0  0  0  0  0  0  0  0  0  0
   10.3613  -16.6978   26.2194 C   0  0  1  0  0  0  0  0  0  0  0  0
    9.9808  -15.2874   26.4851 C   0  0  0  0  0  0  0  0  0  0  0  0
    8.5884  -14.9197   26.1467 C   0  0  0  0  0  0  0  0  0  0  0  0
    7.5704  -15.8078   25.7791 C   0  0  0  0  0  0  0  0  0  0  0  0
    6.4514  -15.1119   25.5712 N   0  0  0  0  0  0  0  0  0  0  0  0
    6.6484  -13.8141   25.7743 C   0  0  0  0  0  0  0  0  0  0  0  0
    5.8422  -12.7091   25.6864 C   0  0  0  0  0  0  0  0  0  0  0  0
    6.3279  -11.4520   25.9489 C   0  0  0  0  0  0  0  0  0  0  0  0
    7.6509  -11.2902   26.3083 C   0  0  0  0  0  0  0  0  0  0  0  0
    8.4473  -12.4246   26.3906 C   0  0  0  0  0  0  0  0  0  0  0  0
    7.9811  -13.6928   26.1329 C   0  0  0  0  0  0  0  0  0  0  0  0
   10.0166  -17.5872   27.3951 C   0  0  0  0  0  0  0  0  0  0  0  0
   10.2094  -17.2394   28.5723 O   0  0  0  0  0  0  0  0  0  0  0  0
    9.4721  -18.8226   27.1148 O   0  0  0  0  0  0  0  0  0  0  0  0
  2  3  1  0
  2  1  1  0
  3  4  1  6
  5  6  1  1
  5  3  1  0
  7  5  1  0
  8  7  2  0
  9 10  1  0
 10 12  1  0
 11 10  2  0
 13 12  1  6
 13 15  1  0
 13 14  1  0
 14  7  1  0
 15 16  2  0
 17 18  1  0
 17 15  1  0
 18 29  1  0
 18 19  1  1
 20 19  1  0
 20 28  1  0
 21 20  2  0
 22 21  1  0
 22 23  1  0
 23 24  1  0
 23 28  2  0
 24 25  2  0
 25 26  1  0
 27 26  2  0
 28 27  1  0
 29 30  2  0
 29 31  1  0
M  END
$$$$
