INW.pdb
     RDKit          3D

 31 32  0  0  1  0  0  0  0  0999 V2000
    7.1417  -11.8978   19.7317 C   0  0  0  0  0  0  0  0  0  0  0  0
    7.6455  -13.2507   19.3677 C   0  0  0  0  0  0  0  0  0  0  0  0
    8.0978  -14.0793   20.5268 C   0  0  2  0  0  0  0  0  0  0  0  0
    9.0747  -13.3034   21.4062 C   0  0  0  0  0  0  0  0  0  0  0  0
    8.6204  -15.4345   20.1811 C   0  0  2  0  0  0  0  0  0  0  0  0
    7.5870  -16.0963   19.4076 N   0  0  0  0  0  0  0  0  0  0  0  0
    9.0185  -16.2479   21.3633 C   0  0  0  0  0  0  0  0  0  0  0  0
    8.1350  -16.9083   21.9442 O   0  0  0  0  0  0  0  0  0  0  0  0
   12.3351  -20.2054   23.4347 N   0  0  0  0  0  0  0  0  0  0  0  0
   12.6747  -18.8126   23.4447 C   0  0  0  0  0  0  0  0  0  0  0  0
   13.5028  -18.4843   24.3324 O   0  0  0  0  0  0  0  0  0  0  0  0
   12.0634  -17.8974   22.4663 C   0  0  0  0  0  0  0  0  0  0  0  0
   10.8064  -17.2658   22.8666 C   0  0  2  0  0  0  0  0  0  0  0  0
   10.3358  -16.3022   21.8493 N   0  0  0  0  0  0  0  0  0  0  0  0
   10.6432  -16.6418   24.1484 C   0  0  0  0  0  0  0  0  0  0  0  0
   11.1314  -15.4771   24.3346 O   0  0  0  0  0  0  0  0  0  0  0  0
    9.9702  -17.2071   25.2625 N   0  0  0  0  0  0  0  0  0  0  0  0
   10.1291  -16.7972   26.6073 C   0  0  1  0  0  0  0  0  0  0  0  0
    8.9276  -16.3941   27.3810 C   0  0  0  0  0  0  0  0  0  0  0  0
    7.8765  -15.6855   26.6184 C   0  0  0  0  0  0  0  0  0  0  0  0
    6.8837  -16.2861   25.8350 C   0  0  0  0  0  0  0  0  0  0  0  0
    6.1086  -15.3297   25.3213 N   0  0  0  0  0  0  0  0  0  0  0  0
    6.5136  -14.1248   25.7067 C   0  0  0  0  0  0  0  0  0  0  0  0
    6.0723  -12.8520   25.4537 C   0  0  0  0  0  0  0  0  0  0  0  0
    6.7074  -11.7595   25.9908 C   0  0  0  0  0  0  0  0  0  0  0  0
    7.8107  -11.9384   26.8009 C   0  0  0  0  0  0  0  0  0  0  0  0
    8.2383  -13.2371   27.0424 C   0  0  0  0  0  0  0  0  0  0  0  0
    7.6166  -14.3453   26.5155 C   0  0  0  0  0  0  0  0  0  0  0  0
   10.9935  -17.7542   27.4003 C   0  0  0  0  0  0  0  0  0  0  0  0
   11.3635  -17.5115   28.5614 O   0  0  0  0  0  0  0  0  0  0  0  0
   11.3682  -18.9282   26.7818 O   0  0  0  0  0  0  0  0  0  0  0  0
  2  3  1  0
  2  1  1  0
  3  4  1  6
  5  6  1  1
  5  3  1  0
  7  5  1  0
  8  7  2  0
  9 10  1  0
 10 12  1  0
 11 10  2  0
 13 12  1  6
 13 15  1  0
 13 14  1  0
 14  7  1  0
 15 16  2  0
 17 18  1  0
 17 15  1  0
 18 29  1  0
 18 19  1  1
 20 19  1  0
 20 28  1  0
 21 20  2  0
 22 21  1  0
 22 23  1  0
 23 24  1  0
 23 28  2  0
 24 25  2  0
 25 26  1  0
 27 26  2  0
 28 27  1  0
 29 30  2  0
 29 31  1  0
M  END
$$$$
