INW.pdb
     RDKit          3D

 31 32  0  0  1  0  0  0  0  0999 V2000
    7.5011  -12.0519   18.8338 C   0  0  0  0  0  0  0  0  0  0  0  0
    8.2208  -13.3396   18.6333 C   0  0  0  0  0  0  0  0  0  0  0  0
    8.4258  -14.1390   19.8798 C   0  0  2  0  0  0  0  0  0  0  0  0
    9.8271  -13.9222   20.4447 C   0  0  0  0  0  0  0  0  0  0  0  0
    8.0900  -15.5898   19.7736 C   0  0  2  0  0  0  0  0  0  0  0  0
    6.6984  -15.6686   19.3722 N   0  0  0  0  0  0  0  0  0  0  0  0
    8.3390  -16.3604   21.0235 C   0  0  0  0  0  0  0  0  0  0  0  0
    7.4756  -16.3143   21.9217 O   0  0  0  0  0  0  0  0  0  0  0  0
   10.1231  -21.4035   23.2991 N   0  0  0  0  0  0  0  0  0  0  0  0
   10.7915  -20.1507   23.1015 C   0  0  0  0  0  0  0  0  0  0  0  0
   11.7129  -19.9158   23.9246 O   0  0  0  0  0  0  0  0  0  0  0  0
   10.3790  -19.2598   22.0039 C   0  0  0  0  0  0  0  0  0  0  0  0
    9.6989  -18.0244   22.3924 C   0  0  2  0  0  0  0  0  0  0  0  0
    9.4957  -17.1299   21.2333 N   0  0  0  0  0  0  0  0  0  0  0  0
   10.1625  -17.2105   23.4794 C   0  0  0  0  0  0  0  0  0  0  0  0
   10.8864  -16.1911   23.2222 O   0  0  0  0  0  0  0  0  0  0  0  0
    9.8853  -17.4317   24.8534 N   0  0  0  0  0  0  0  0  0  0  0  0
   10.3674  -16.6396   25.9221 C   0  0  1  0  0  0  0  0  0  0  0  0
    9.9371  -15.2216   26.0149 C   0  0  0  0  0  0  0  0  0  0  0  0
    8.4962  -14.9993   26.2659 C   0  0  0  0  0  0  0  0  0  0  0  0
    7.5021  -15.9852   26.2744 C   0  0  0  0  0  0  0  0  0  0  0  0
    6.3325  -15.4094   26.5572 N   0  0  0  0  0  0  0  0  0  0  0  0
    6.4730  -14.1012   26.7396 C   0  0  0  0  0  0  0  0  0  0  0  0
    5.5989  -13.0872   27.0340 C   0  0  0  0  0  0  0  0  0  0  0  0
    6.0307  -11.7897   27.1565 C   0  0  0  0  0  0  0  0  0  0  0  0
    7.3676  -11.4932   26.9813 C   0  0  0  0  0  0  0  0  0  0  0  0
    8.2331  -12.5374   26.6840 C   0  0  0  0  0  0  0  0  0  0  0  0
    7.8221  -13.8441   26.5577 C   0  0  0  0  0  0  0  0  0  0  0  0
   10.2363  -17.3386   27.2586 C   0  0  0  0  0  0  0  0  0  0  0  0
    9.6116  -18.4041   27.3945 O   0  0  0  0  0  0  0  0  0  0  0  0
   10.8424  -16.7440   28.3450 O   0  0  0  0  0  0  0  0  0  0  0  0
  2  3  1  0
  2  1  1  0
  3  4  1  6
  5  6  1  1
  5  3  1  0
  7  5  1  0
  8  7  2  0
  9 10  1  0
 10 12  1  0
 11 10  2  0
 13 12  1  6
 13 15  1  0
 13 14  1  0
 14  7  1  0
 15 16  2  0
 17 18  1  0
 17 15  1  0
 18 29  1  0
 18 19  1  1
 20 19  1  0
 20 28  1  0
 21 20  2  0
 22 21  1  0
 22 23  1  0
 23 24  1  0
 23 28  2  0
 24 25  2  0
 25 26  1  0
 27 26  2  0
 28 27  1  0
 29 30  2  0
 29 31  1  0
M  END
$$$$
