INW.pdb
     RDKit          3D

 31 32  0  0  1  0  0  0  0  0999 V2000
    8.2973  -11.7848   22.0478 C   0  0  0  0  0  0  0  0  0  0  0  0
    7.9177  -13.2228   21.9787 C   0  0  0  0  0  0  0  0  0  0  0  0
    8.2157  -13.8832   20.6711 C   0  0  2  0  0  0  0  0  0  0  0  0
    7.6200  -13.0916   19.5099 C   0  0  0  0  0  0  0  0  0  0  0  0
    7.8659  -15.3324   20.5903 C   0  0  2  0  0  0  0  0  0  0  0  0
    6.4206  -15.4192   20.6774 N   0  0  0  0  0  0  0  0  0  0  0  0
    8.5238  -16.1714   21.6301 C   0  0  0  0  0  0  0  0  0  0  0  0
    7.8030  -16.6958   22.5017 O   0  0  0  0  0  0  0  0  0  0  0  0
   11.7197  -19.6308   23.8126 N   0  0  0  0  0  0  0  0  0  0  0  0
   12.3901  -19.0345   22.6944 C   0  0  0  0  0  0  0  0  0  0  0  0
   13.4409  -19.6276   22.3397 O   0  0  0  0  0  0  0  0  0  0  0  0
   11.8372  -17.8249   22.0623 C   0  0  0  0  0  0  0  0  0  0  0  0
   10.5728  -17.3295   22.6060 C   0  0  2  0  0  0  0  0  0  0  0  0
    9.9103  -16.3947   21.6721 N   0  0  0  0  0  0  0  0  0  0  0  0
   10.4825  -16.7533   23.9170 C   0  0  0  0  0  0  0  0  0  0  0  0
   10.8567  -15.5447   24.0873 O   0  0  0  0  0  0  0  0  0  0  0  0
   10.0014  -17.4129   25.0777 N   0  0  0  0  0  0  0  0  0  0  0  0
   10.0764  -16.9053   26.3962 C   0  0  1  0  0  0  0  0  0  0  0  0
    8.8167  -16.6560   27.1415 C   0  0  0  0  0  0  0  0  0  0  0  0
    7.8056  -15.8321   26.4432 C   0  0  0  0  0  0  0  0  0  0  0  0
    6.7445  -16.3158   25.6685 C   0  0  0  0  0  0  0  0  0  0  0  0
    6.0360  -15.2782   25.2199 N   0  0  0  0  0  0  0  0  0  0  0  0
    6.5499  -14.1280   25.6409 C   0  0  0  0  0  0  0  0  0  0  0  0
    6.2077  -12.8139   25.4547 C   0  0  0  0  0  0  0  0  0  0  0  0
    6.9458  -11.8008   26.0151 C   0  0  0  0  0  0  0  0  0  0  0  0
    8.0538  -12.1034   26.7809 C   0  0  0  0  0  0  0  0  0  0  0  0
    8.3799  -13.4418   26.9550 C   0  0  0  0  0  0  0  0  0  0  0  0
    7.6540  -14.4721   26.4037 C   0  0  0  0  0  0  0  0  0  0  0  0
   11.0732  -17.6635   27.2468 C   0  0  0  0  0  0  0  0  0  0  0  0
   11.6471  -18.6897   26.8449 O   0  0  0  0  0  0  0  0  0  0  0  0
   11.3298  -17.1719   28.5093 O   0  0  0  0  0  0  0  0  0  0  0  0
  2  3  1  0
  2  1  1  0
  3  4  1  6
  5  6  1  1
  5  3  1  0
  7  5  1  0
  8  7  2  0
  9 10  1  0
 10 12  1  0
 11 10  2  0
 13 12  1  6
 13 15  1  0
 13 14  1  0
 14  7  1  0
 15 16  2  0
 17 18  1  0
 17 15  1  0
 18 29  1  0
 18 19  1  1
 20 19  1  0
 20 28  1  0
 21 20  2  0
 22 21  1  0
 22 23  1  0
 23 24  1  0
 23 28  2  0
 24 25  2  0
 25 26  1  0
 27 26  2  0
 28 27  1  0
 29 30  2  0
 29 31  1  0
M  END
$$$$
