INW.pdb
     RDKit          3D

 31 32  0  0  1  0  0  0  0  0999 V2000
    7.4514  -11.7573   19.6777 C   0  0  0  0  0  0  0  0  0  0  0  0
    8.0095  -13.1037   19.3737 C   0  0  0  0  0  0  0  0  0  0  0  0
    8.0040  -14.0549   20.5268 C   0  0  2  0  0  0  0  0  0  0  0  0
    8.6934  -13.4438   21.7437 C   0  0  0  0  0  0  0  0  0  0  0  0
    8.5168  -15.4253   20.2301 C   0  0  2  0  0  0  0  0  0  0  0  0
    7.8287  -15.8801   19.0369 N   0  0  0  0  0  0  0  0  0  0  0  0
    8.3502  -16.3889   21.3534 C   0  0  0  0  0  0  0  0  0  0  0  0
    7.4051  -17.1997   21.2941 O   0  0  0  0  0  0  0  0  0  0  0  0
   13.1507  -19.1451   22.0520 N   0  0  0  0  0  0  0  0  0  0  0  0
   11.7255  -19.1806   21.9011 C   0  0  0  0  0  0  0  0  0  0  0  0
   11.2278  -20.3355   21.9201 O   0  0  0  0  0  0  0  0  0  0  0  0
   10.9695  -17.9273   21.7397 C   0  0  0  0  0  0  0  0  0  0  0  0
   10.0562  -17.5764   22.8271 C   0  0  2  0  0  0  0  0  0  0  0  0
    9.2043  -16.4229   22.4686 N   0  0  0  0  0  0  0  0  0  0  0  0
   10.5179  -17.3613   24.1685 C   0  0  0  0  0  0  0  0  0  0  0  0
   11.2211  -18.2656   24.7318 O   0  0  0  0  0  0  0  0  0  0  0  0
   10.2649  -16.2068   24.9539 N   0  0  0  0  0  0  0  0  0  0  0  0
   10.2807  -16.1609   26.3679 C   0  0  1  0  0  0  0  0  0  0  0  0
    8.9947  -16.2617   27.1032 C   0  0  0  0  0  0  0  0  0  0  0  0
    7.8833  -15.4399   26.5758 C   0  0  0  0  0  0  0  0  0  0  0  0
    6.6623  -15.9237   26.0906 C   0  0  0  0  0  0  0  0  0  0  0  0
    5.9080  -14.8865   25.7235 N   0  0  0  0  0  0  0  0  0  0  0  0
    6.5401  -13.7364   25.9291 C   0  0  0  0  0  0  0  0  0  0  0  0
    6.2097  -12.4234   25.7157 C   0  0  0  0  0  0  0  0  0  0  0  0
    7.0864  -11.4114   26.0195 C   0  0  0  0  0  0  0  0  0  0  0  0
    8.3247  -11.7140   26.5495 C   0  0  0  0  0  0  0  0  0  0  0  0
    8.6359  -13.0512   26.7565 C   0  0  0  0  0  0  0  0  0  0  0  0
    7.7725  -14.0803   26.4603 C   0  0  0  0  0  0  0  0  0  0  0  0
   11.3224  -17.0861   26.9601 C   0  0  0  0  0  0  0  0  0  0  0  0
   11.9821  -17.8776   26.2656 O   0  0  0  0  0  0  0  0  0  0  0  0
   11.5206  -17.0247   28.3233 O   0  0  0  0  0  0  0  0  0  0  0  0
  2  3  1  0
  2  1  1  0
  3  4  1  1
  5  6  1  6
  5  3  1  0
  7  5  1  0
  8  7  2  0
  9 10  1  0
 10 12  1  0
 11 10  2  0
 13 12  1  6
 13 15  1  0
 13 14  1  0
 14  7  1  0
 15 16  2  0
 17 18  1  0
 17 15  1  0
 18 29  1  0
 18 19  1  1
 20 19  1  0
 20 28  1  0
 21 20  2  0
 22 21  1  0
 22 23  1  0
 23 24  1  0
 23 28  2  0
 24 25  2  0
 25 26  1  0
 27 26  2  0
 28 27  1  0
 29 30  2  0
 29 31  1  0
M  END
$$$$
