INW.pdb
     RDKit          3D

 31 32  0  0  1  0  0  0  0  0999 V2000
    8.3133  -22.2804   19.3826 C   0  0  0  0  0  0  0  0  0  0  0  0
    7.5959  -21.0122   19.6886 C   0  0  0  0  0  0  0  0  0  0  0  0
    8.4765  -19.8924   20.1419 C   0  0  2  0  0  0  0  0  0  0  0  0
    8.4795  -19.7803   21.6641 C   0  0  0  0  0  0  0  0  0  0  0  0
    8.2230  -18.5733   19.4902 C   0  0  2  0  0  0  0  0  0  0  0  0
    8.5080  -18.7430   18.0780 N   0  0  0  0  0  0  0  0  0  0  0  0
    9.0106  -17.4511   20.0718 C   0  0  0  0  0  0  0  0  0  0  0  0
   10.2413  -17.4349   19.8738 O   0  0  0  0  0  0  0  0  0  0  0  0
    6.4392  -13.6633   20.1587 N   0  0  0  0  0  0  0  0  0  0  0  0
    7.7831  -14.0413   19.8323 C   0  0  0  0  0  0  0  0  0  0  0  0
    7.9542  -14.3734   18.6314 O   0  0  0  0  0  0  0  0  0  0  0  0
    8.8278  -14.0204   20.8699 C   0  0  0  0  0  0  0  0  0  0  0  0
    9.1949  -15.3136   21.4465 C   0  0  2  0  0  0  0  0  0  0  0  0
    8.4317  -16.4187   20.8290 N   0  0  0  0  0  0  0  0  0  0  0  0
    9.1984  -15.5412   22.8632 C   0  0  0  0  0  0  0  0  0  0  0  0
    8.1990  -15.1493   23.5539 O   0  0  0  0  0  0  0  0  0  0  0  0
   10.2330  -16.1805   23.5944 N   0  0  0  0  0  0  0  0  0  0  0  0
   10.3386  -16.2101   25.0050 C   0  0  1  0  0  0  0  0  0  0  0  0
   10.0023  -14.9861   25.7753 C   0  0  0  0  0  0  0  0  0  0  0  0
    8.5595  -14.7068   25.9459 C   0  0  0  0  0  0  0  0  0  0  0  0
    7.5197  -15.6311   25.7896 C   0  0  0  0  0  0  0  0  0  0  0  0
    6.3624  -15.0188   26.0450 N   0  0  0  0  0  0  0  0  0  0  0  0
    6.5539  -13.7433   26.3627 C   0  0  0  0  0  0  0  0  0  0  0  0
    5.7120  -12.7132   26.6925 C   0  0  0  0  0  0  0  0  0  0  0  0
    6.1976  -11.4593   26.9700 C   0  0  0  0  0  0  0  0  0  0  0  0
    7.5569  -11.2241   26.9177 C   0  0  0  0  0  0  0  0  0  0  0  0
    8.3891  -12.2835   26.5815 C   0  0  0  0  0  0  0  0  0  0  0  0
    7.9240  -13.5473   26.3008 C   0  0  0  0  0  0  0  0  0  0  0  0
    9.6752  -17.4319   25.6042 C   0  0  0  0  0  0  0  0  0  0  0  0
    8.9465  -18.1876   24.9393 O   0  0  0  0  0  0  0  0  0  0  0  0
    9.9068  -17.6860   26.9395 O   0  0  0  0  0  0  0  0  0  0  0  0
  2  3  1  0
  2  1  1  0
  3  4  1  1
  5  6  1  6
  5  3  1  0
  7  5  1  0
  8  7  2  0
  9 10  1  0
 10 12  1  0
 11 10  2  0
 13 12  1  1
 13 15  1  0
 13 14  1  0
 14  7  1  0
 15 16  2  0
 17 18  1  0
 17 15  1  0
 18 29  1  0
 18 19  1  1
 20 19  1  0
 20 28  1  0
 21 20  2  0
 22 21  1  0
 22 23  1  0
 23 24  1  0
 23 28  2  0
 24 25  2  0
 25 26  1  0
 27 26  2  0
 28 27  1  0
 29 30  2  0
 29 31  1  0
M  END
$$$$
