INW.pdb
     RDKit          3D

 31 32  0  0  1  0  0  0  0  0999 V2000
    7.6577  -11.5513   19.5224 C   0  0  0  0  0  0  0  0  0  0  0  0
    7.6287  -13.0125   19.2387 C   0  0  0  0  0  0  0  0  0  0  0  0
    8.0599  -13.8770   20.3795 C   0  0  2  0  0  0  0  0  0  0  0  0
    9.4229  -13.4418   20.9111 C   0  0  0  0  0  0  0  0  0  0  0  0
    8.0087  -15.3472   20.1250 C   0  0  2  0  0  0  0  0  0  0  0  0
    6.6395  -15.6616   19.7636 N   0  0  0  0  0  0  0  0  0  0  0  0
    8.4708  -16.1754   21.2733 C   0  0  0  0  0  0  0  0  0  0  0  0
    7.6927  -16.3291   22.2351 O   0  0  0  0  0  0  0  0  0  0  0  0
   11.3659  -20.9810   22.8914 N   0  0  0  0  0  0  0  0  0  0  0  0
   11.7401  -19.5973   22.8635 C   0  0  0  0  0  0  0  0  0  0  0  0
   12.5858  -19.2682   23.7343 O   0  0  0  0  0  0  0  0  0  0  0  0
   11.1413  -18.6914   21.8689 C   0  0  0  0  0  0  0  0  0  0  0  0
   10.1652  -17.7269   22.3753 C   0  0  2  0  0  0  0  0  0  0  0  0
    9.7358  -16.7852   21.3199 N   0  0  0  0  0  0  0  0  0  0  0  0
   10.4038  -16.9543   23.5607 C   0  0  0  0  0  0  0  0  0  0  0  0
   11.1398  -15.9143   23.4819 O   0  0  0  0  0  0  0  0  0  0  0  0
    9.8847  -17.2389   24.8503 N   0  0  0  0  0  0  0  0  0  0  0  0
   10.4194  -16.7611   26.0700 C   0  0  1  0  0  0  0  0  0  0  0  0
    9.9780  -15.4372   26.5770 C   0  0  0  0  0  0  0  0  0  0  0  0
    8.5478  -15.1143   26.3792 C   0  0  0  0  0  0  0  0  0  0  0  0
    7.5270  -16.0347   26.1127 C   0  0  0  0  0  0  0  0  0  0  0  0
    6.3715  -15.3749   26.0182 N   0  0  0  0  0  0  0  0  0  0  0  0
    6.5465  -14.0712   26.2033 C   0  0  0  0  0  0  0  0  0  0  0  0
    5.7008  -12.9925   26.1981 C   0  0  0  0  0  0  0  0  0  0  0  0
    6.1701  -11.7204   26.4136 C   0  0  0  0  0  0  0  0  0  0  0  0
    7.5165  -11.5162   26.6402 C   0  0  0  0  0  0  0  0  0  0  0  0
    8.3527  -12.6246   26.6408 C   0  0  0  0  0  0  0  0  0  0  0  0
    7.9037  -13.9074   26.4281 C   0  0  0  0  0  0  0  0  0  0  0  0
   10.3761  -17.8069   27.1639 C   0  0  0  0  0  0  0  0  0  0  0  0
   10.9078  -17.6326   28.2733 O   0  0  0  0  0  0  0  0  0  0  0  0
    9.7162  -18.9853   26.8860 O   0  0  0  0  0  0  0  0  0  0  0  0
  2  3  1  0
  2  1  1  0
  3  4  1  6
  5  6  1  1
  5  3  1  0
  7  5  1  0
  8  7  2  0
  9 10  1  0
 10 12  1  0
 11 10  2  0
 13 12  1  6
 13 15  1  0
 13 14  1  0
 14  7  1  0
 15 16  2  0
 17 18  1  0
 17 15  1  0
 18 29  1  0
 18 19  1  1
 20 19  1  0
 20 28  1  0
 21 20  2  0
 22 21  1  0
 22 23  1  0
 23 24  1  0
 23 28  2  0
 24 25  2  0
 25 26  1  0
 27 26  2  0
 28 27  1  0
 29 30  2  0
 29 31  1  0
M  END
$$$$
