INW.pdb
     RDKit          3D

 31 32  0  0  1  0  0  0  0  0999 V2000
    7.3139  -12.6462   20.5573 C   0  0  0  0  0  0  0  0  0  0  0  0
    7.5799  -14.0155   20.0368 C   0  0  0  0  0  0  0  0  0  0  0  0
    8.7646  -14.1180   19.1308 C   0  0  2  0  0  0  0  0  0  0  0  0
    8.6710  -13.1071   17.9911 C   0  0  0  0  0  0  0  0  0  0  0  0
    9.0717  -15.4904   18.6297 C   0  0  2  0  0  0  0  0  0  0  0  0
    7.9549  -15.8905   17.7949 N   0  0  0  0  0  0  0  0  0  0  0  0
    9.3262  -16.4846   19.7090 C   0  0  0  0  0  0  0  0  0  0  0  0
    8.6328  -17.5205   19.7263 O   0  0  0  0  0  0  0  0  0  0  0  0
   11.9914  -18.2075   19.1312 N   0  0  0  0  0  0  0  0  0  0  0  0
   12.0016  -18.7475   20.4592 C   0  0  0  0  0  0  0  0  0  0  0  0
   13.0711  -19.3273   20.7781 O   0  0  0  0  0  0  0  0  0  0  0  0
   10.8194  -18.5996   21.3246 C   0  0  0  0  0  0  0  0  0  0  0  0
   10.5394  -17.2502   21.8148 C   0  0  2  0  0  0  0  0  0  0  0  0
   10.3049  -16.3067   20.7013 N   0  0  0  0  0  0  0  0  0  0  0  0
   11.3978  -16.5896   22.7559 C   0  0  0  0  0  0  0  0  0  0  0  0
   12.6327  -16.9106   22.7961 O   0  0  0  0  0  0  0  0  0  0  0  0
   10.9985  -15.5824   23.6724 N   0  0  0  0  0  0  0  0  0  0  0  0
    9.9286  -15.6917   24.5916 C   0  0  1  0  0  0  0  0  0  0  0  0
    8.5364  -15.5731   24.0892 C   0  0  0  0  0  0  0  0  0  0  0  0
    7.5601  -14.9772   25.0274 C   0  0  0  0  0  0  0  0  0  0  0  0
    6.4810  -15.6421   25.6221 C   0  0  0  0  0  0  0  0  0  0  0  0
    5.8404  -14.7868   26.4207 N   0  0  0  0  0  0  0  0  0  0  0  0
    6.4165  -13.5900   26.4031 C   0  0  0  0  0  0  0  0  0  0  0  0
    6.1449  -12.3995   27.0256 C   0  0  0  0  0  0  0  0  0  0  0  0
    6.9234  -11.2896   26.8078 C   0  0  0  0  0  0  0  0  0  0  0  0
    8.0004  -11.3665   25.9478 C   0  0  0  0  0  0  0  0  0  0  0  0
    8.2551  -12.5833   25.3294 C   0  0  0  0  0  0  0  0  0  0  0  0
    7.4890  -13.7074   25.5340 C   0  0  0  0  0  0  0  0  0  0  0  0
   10.0788  -16.8883   25.5068 C   0  0  0  0  0  0  0  0  0  0  0  0
   10.0960  -18.0552   25.0802 O   0  0  0  0  0  0  0  0  0  0  0  0
   10.1966  -16.6397   26.8580 O   0  0  0  0  0  0  0  0  0  0  0  0
  2  3  1  0
  2  1  1  0
  3  4  1  6
  5  6  1  1
  5  3  1  0
  7  5  1  0
  8  7  2  0
  9 10  1  0
 10 12  1  0
 11 10  2  0
 13 12  1  6
 13 15  1  0
 13 14  1  0
 14  7  1  0
 15 16  2  0
 17 18  1  0
 17 15  1  0
 18 29  1  0
 18 19  1  6
 20 19  1  0
 20 28  1  0
 21 20  2  0
 22 21  1  0
 22 23  1  0
 23 24  1  0
 23 28  2  0
 24 25  2  0
 25 26  1  0
 27 26  2  0
 28 27  1  0
 29 30  2  0
 29 31  1  0
M  END
$$$$
