INW.pdb
     RDKit          3D

 31 32  0  0  1  0  0  0  0  0999 V2000
    8.0309  -12.5022   17.6347 C   0  0  0  0  0  0  0  0  0  0  0  0
    8.8506  -13.4754   18.4078 C   0  0  0  0  0  0  0  0  0  0  0  0
    8.1735  -14.0387   19.6156 C   0  0  2  0  0  0  0  0  0  0  0  0
    7.6655  -12.9252   20.5275 C   0  0  0  0  0  0  0  0  0  0  0  0
    8.9572  -15.0597   20.3723 C   0  0  2  0  0  0  0  0  0  0  0  0
    9.4944  -15.9849   19.3927 N   0  0  0  0  0  0  0  0  0  0  0  0
    8.1708  -15.7719   21.4175 C   0  0  0  0  0  0  0  0  0  0  0  0
    7.3190  -15.1214   22.0543 O   0  0  0  0  0  0  0  0  0  0  0  0
    6.3171  -19.4271   24.7532 N   0  0  0  0  0  0  0  0  0  0  0  0
    6.8014  -20.0559   23.5593 C   0  0  0  0  0  0  0  0  0  0  0  0
    6.6102  -21.2980   23.5099 O   0  0  0  0  0  0  0  0  0  0  0  0
    7.4610  -19.2511   22.5173 C   0  0  0  0  0  0  0  0  0  0  0  0
    7.6657  -17.8356   22.8240 C   0  0  2  0  0  0  0  0  0  0  0  0
    8.3464  -17.1337   21.7154 N   0  0  0  0  0  0  0  0  0  0  0  0
    8.2864  -17.4036   24.0434 C   0  0  0  0  0  0  0  0  0  0  0  0
    7.7515  -17.7268   25.1565 O   0  0  0  0  0  0  0  0  0  0  0  0
    9.4734  -16.6317   24.1376 N   0  0  0  0  0  0  0  0  0  0  0  0
   10.0893  -16.2240   25.3443 C   0  0  1  0  0  0  0  0  0  0  0  0
    9.7850  -14.8750   25.8849 C   0  0  0  0  0  0  0  0  0  0  0  0
    8.3557  -14.5876   26.1362 C   0  0  0  0  0  0  0  0  0  0  0  0
    7.3077  -15.5138   26.0715 C   0  0  0  0  0  0  0  0  0  0  0  0
    6.1687  -14.8918   26.3801 N   0  0  0  0  0  0  0  0  0  0  0  0
    6.3801  -13.6081   26.6482 C   0  0  0  0  0  0  0  0  0  0  0  0
    5.5606  -12.5670   26.9994 C   0  0  0  0  0  0  0  0  0  0  0  0
    6.0630  -11.3067   27.2098 C   0  0  0  0  0  0  0  0  0  0  0  0
    7.4166  -11.0761   27.0668 C   0  0  0  0  0  0  0  0  0  0  0  0
    8.2259  -12.1466   26.7106 C   0  0  0  0  0  0  0  0  0  0  0  0
    7.7438  -13.4170   26.4960 C   0  0  0  0  0  0  0  0  0  0  0  0
    9.9899  -17.2802   26.4244 C   0  0  0  0  0  0  0  0  0  0  0  0
    9.3243  -18.3196   26.2802 O   0  0  0  0  0  0  0  0  0  0  0  0
   10.6732  -17.0490   27.5995 O   0  0  0  0  0  0  0  0  0  0  0  0
  2  3  1  0
  2  1  1  0
  3  4  1  1
  5  6  1  6
  5  3  1  0
  7  5  1  0
  8  7  2  0
  9 10  1  0
 10 12  1  0
 11 10  2  0
 13 12  1  6
 13 15  1  0
 13 14  1  0
 14  7  1  0
 15 16  2  0
 17 18  1  0
 17 15  1  0
 18 29  1  0
 18 19  1  1
 20 19  1  0
 20 28  1  0
 21 20  2  0
 22 21  1  0
 22 23  1  0
 23 24  1  0
 23 28  2  0
 24 25  2  0
 25 26  1  0
 27 26  2  0
 28 27  1  0
 29 30  2  0
 29 31  1  0
M  END
$$$$
