INW.pdb
     RDKit          3D

 31 32  0  0  1  0  0  0  0  0999 V2000
    7.0190  -13.1789   27.4727 C   0  0  0  0  0  0  0  0  0  0  0  0
    6.4980  -14.3554   26.7237 C   0  0  0  0  0  0  0  0  0  0  0  0
    7.4465  -14.9226   25.7172 C   0  0  2  0  0  0  0  0  0  0  0  0
    8.0648  -13.8179   24.8645 C   0  0  0  0  0  0  0  0  0  0  0  0
    6.9033  -16.0313   24.8777 C   0  0  2  0  0  0  0  0  0  0  0  0
    6.3955  -17.0373   25.7912 N   0  0  0  0  0  0  0  0  0  0  0  0
    7.8934  -16.6108   23.9281 C   0  0  0  0  0  0  0  0  0  0  0  0
    8.4198  -17.7014   24.2239 O   0  0  0  0  0  0  0  0  0  0  0  0
    6.9864  -14.4053   19.8692 N   0  0  0  0  0  0  0  0  0  0  0  0
    7.4038  -15.7626   20.0661 C   0  0  0  0  0  0  0  0  0  0  0  0
    6.4810  -16.6113   19.9678 O   0  0  0  0  0  0  0  0  0  0  0  0
    8.8150  -16.0652   20.3583 C   0  0  0  0  0  0  0  0  0  0  0  0
    9.0993  -16.6153   21.6835 C   0  0  2  0  0  0  0  0  0  0  0  0
    8.2581  -15.9862   22.7234 N   0  0  0  0  0  0  0  0  0  0  0  0
   10.4337  -16.6896   22.2058 C   0  0  0  0  0  0  0  0  0  0  0  0
   11.3300  -17.2929   21.5260 O   0  0  0  0  0  0  0  0  0  0  0  0
   10.8696  -16.1399   23.4393 N   0  0  0  0  0  0  0  0  0  0  0  0
   12.1711  -16.2717   23.9782 C   0  0  1  0  0  0  0  0  0  0  0  0
   12.5812  -15.3770   25.0899 C   0  0  0  0  0  0  0  0  0  0  0  0
   11.8318  -15.5350   26.3556 C   0  0  0  0  0  0  0  0  0  0  0  0
   11.6400  -16.7340   27.0526 C   0  0  0  0  0  0  0  0  0  0  0  0
   10.9345  -16.4783   28.1555 N   0  0  0  0  0  0  0  0  0  0  0  0
   10.6384  -15.1867   28.2474 C   0  0  0  0  0  0  0  0  0  0  0  0
    9.9436  -14.4375   29.1610 C   0  0  0  0  0  0  0  0  0  0  0  0
    9.7791  -13.0847   28.9931 C   0  0  0  0  0  0  0  0  0  0  0  0
   10.3202  -12.4611   27.8867 C   0  0  0  0  0  0  0  0  0  0  0  0
   11.0197  -13.2413   26.9758 C   0  0  0  0  0  0  0  0  0  0  0  0
   11.1971  -14.5973   27.1250 C   0  0  0  0  0  0  0  0  0  0  0  0
   12.5242  -17.7129   24.2785 C   0  0  0  0  0  0  0  0  0  0  0  0
   13.6754  -18.0668   24.5843 O   0  0  0  0  0  0  0  0  0  0  0  0
   11.5087  -18.6423   24.1990 O   0  0  0  0  0  0  0  0  0  0  0  0
  2  3  1  0
  2  1  1  0
  3  4  1  6
  5  6  1  1
  5  3  1  0
  7  5  1  0
  8  7  2  0
  9 10  1  0
 10 12  1  0
 11 10  2  0
 13 12  1  6
 13 15  1  0
 13 14  1  0
 14  7  1  0
 15 16  2  0
 17 18  1  0
 17 15  1  0
 18 29  1  0
 18 19  1  1
 20 19  1  0
 20 28  1  0
 21 20  2  0
 22 21  1  0
 22 23  1  0
 23 24  1  0
 23 28  2  0
 24 25  2  0
 25 26  1  0
 27 26  2  0
 28 27  1  0
 29 30  2  0
 29 31  1  0
M  END
$$$$
