INW.pdb
     RDKit          3D

 31 32  0  0  1  0  0  0  0  0999 V2000
    7.6527  -11.8322   19.2797 C   0  0  0  0  0  0  0  0  0  0  0  0
    7.7378  -13.2800   18.9432 C   0  0  0  0  0  0  0  0  0  0  0  0
    8.1742  -14.1571   20.0724 C   0  0  2  0  0  0  0  0  0  0  0  0
    9.5112  -13.6910   20.6422 C   0  0  0  0  0  0  0  0  0  0  0  0
    8.1762  -15.6217   19.7828 C   0  0  2  0  0  0  0  0  0  0  0  0
    6.8504  -15.9537   19.2968 N   0  0  0  0  0  0  0  0  0  0  0  0
    8.5544  -16.4674   20.9489 C   0  0  0  0  0  0  0  0  0  0  0  0
    7.7109  -16.6302   21.8523 O   0  0  0  0  0  0  0  0  0  0  0  0
   12.1051  -18.1561   19.5699 N   0  0  0  0  0  0  0  0  0  0  0  0
   12.2663  -18.5779   20.9306 C   0  0  0  0  0  0  0  0  0  0  0  0
   13.4453  -18.5065   21.3624 O   0  0  0  0  0  0  0  0  0  0  0  0
   11.1017  -19.0465   21.7003 C   0  0  0  0  0  0  0  0  0  0  0  0
   10.1731  -18.0156   22.1634 C   0  0  2  0  0  0  0  0  0  0  0  0
    9.8107  -17.0838   21.0748 N   0  0  0  0  0  0  0  0  0  0  0  0
   10.4374  -17.2223   23.3295 C   0  0  0  0  0  0  0  0  0  0  0  0
   11.1596  -16.1761   23.2137 O   0  0  0  0  0  0  0  0  0  0  0  0
    9.9588  -17.4922   24.6379 N   0  0  0  0  0  0  0  0  0  0  0  0
   10.2365  -16.7138   25.7862 C   0  0  1  0  0  0  0  0  0  0  0  0
    9.8722  -15.2744   25.7824 C   0  0  0  0  0  0  0  0  0  0  0  0
    8.4238  -14.9750   25.8146 C   0  0  0  0  0  0  0  0  0  0  0  0
    7.3892  -15.9017   25.6385 C   0  0  0  0  0  0  0  0  0  0  0  0
    6.2223  -15.2659   25.7552 N   0  0  0  0  0  0  0  0  0  0  0  0
    6.4024  -13.9725   25.9982 C   0  0  0  0  0  0  0  0  0  0  0  0
    5.5487  -12.9167   26.1857 C   0  0  0  0  0  0  0  0  0  0  0  0
    6.0250  -11.6493   26.4141 C   0  0  0  0  0  0  0  0  0  0  0  0
    7.3867  -11.4267   26.4570 C   0  0  0  0  0  0  0  0  0  0  0  0
    8.2309  -12.5121   26.2643 C   0  0  0  0  0  0  0  0  0  0  0  0
    7.7752  -13.7897   26.0350 C   0  0  0  0  0  0  0  0  0  0  0  0
    9.7790  -17.3895   27.0614 C   0  0  0  0  0  0  0  0  0  0  0  0
    9.0533  -18.3982   27.0573 O   0  0  0  0  0  0  0  0  0  0  0  0
   10.1988  -16.8393   28.2540 O   0  0  0  0  0  0  0  0  0  0  0  0
  2  3  1  0
  2  1  1  0
  3  4  1  6
  5  6  1  1
  5  3  1  0
  7  5  1  0
  8  7  2  0
  9 10  1  0
 10 12  1  0
 11 10  2  0
 13 12  1  6
 13 15  1  0
 13 14  1  0
 14  7  1  0
 15 16  2  0
 17 18  1  0
 17 15  1  0
 18 29  1  0
 18 19  1  6
 20 19  1  0
 20 28  1  0
 21 20  2  0
 22 21  1  0
 22 23  1  0
 23 24  1  0
 23 28  2  0
 24 25  2  0
 25 26  1  0
 27 26  2  0
 28 27  1  0
 29 30  2  0
 29 31  1  0
M  END
$$$$
