RLW.pdb
     RDKit          3D

 34 35  0  0  1  0  0  0  0  0999 V2000
   10.9068  -15.7309   14.0366 N   0  0  0  0  0  0  0  0  0  0  0  0
   11.9640  -16.5644   14.5996 C   0  0  0  0  0  0  0  0  0  0  0  0
   13.0626  -16.6973   13.9795 N   0  0  0  0  0  0  0  0  0  0  0  0
   11.7353  -17.2172   15.8365 N   0  0  0  0  0  0  0  0  0  0  0  0
   10.6690  -18.1131   16.1077 C   0  0  0  0  0  0  0  0  0  0  0  0
   10.5571  -18.7069   17.4622 C   0  0  0  0  0  0  0  0  0  0  0  0
   11.2438  -17.8197   18.5158 C   0  0  0  0  0  0  0  0  0  0  0  0
   10.5182  -17.8356   19.8177 C   0  0  2  0  0  0  0  0  0  0  0  0
    9.1182  -18.0959   19.5790 N   0  0  0  0  0  0  0  0  0  0  0  0
   10.6047  -16.4795   20.4851 C   0  0  0  0  0  0  0  0  0  0  0  0
   11.6671  -15.8576   20.4247 O   0  0  0  0  0  0  0  0  0  0  0  0
   13.8261  -17.2913   14.2493 C   0  0  0  0  0  0  0  0  0  0  0  0
    9.2226  -12.5592   19.6884 C   0  0  2  0  0  0  0  0  0  0  0  0
    8.1461  -13.6105   20.0149 C   0  0  0  0  0  0  0  0  0  0  0  0
    6.7883  -13.0148   19.6835 C   0  0  0  0  0  0  0  0  0  0  0  0
    8.3044  -13.9168   21.4710 C   0  0  2  0  0  0  0  0  0  0  0  0
    9.5200  -14.6573   21.8948 N   0  0  0  0  0  0  0  0  0  0  0  0
    9.4839  -15.9539   21.1592 C   0  0  0  0  0  0  0  0  0  0  0  0
    9.7322  -14.8969   23.3092 O   0  0  0  0  0  0  0  0  0  0  0  0
   10.0035  -13.8805   24.0597 N   0  0  0  0  0  0  0  0  0  0  0  0
    9.6577  -16.1570   23.9127 C   0  0  1  0  0  0  0  0  0  0  0  0
    9.9058  -16.4096   25.3391 C   0  0  0  0  0  0  0  0  0  0  0  0
    8.6537  -16.7502   26.0422 C   0  0  0  0  0  0  0  0  0  0  0  0
    7.5641  -15.7982   25.8244 C   0  0  0  0  0  0  0  0  0  0  0  0
    6.3928  -16.0056   25.0859 N   0  0  0  0  0  0  0  0  0  0  0  0
    5.6423  -14.8975   25.0754 C   0  0  0  0  0  0  0  0  0  0  0  0
    6.2720  -13.9331   25.7914 C   0  0  0  0  0  0  0  0  0  0  0  0
    5.9608  -12.6339   26.1235 C   0  0  0  0  0  0  0  0  0  0  0  0
    6.7971  -11.8626   26.9091 C   0  0  0  0  0  0  0  0  0  0  0  0
    7.9707  -12.4053   27.3718 C   0  0  0  0  0  0  0  0  0  0  0  0
    8.2885  -13.6985   27.0448 C   0  0  0  0  0  0  0  0  0  0  0  0
    7.4640  -14.4892   26.2572 C   0  0  0  0  0  0  0  0  0  0  0  0
   10.9333  -17.4318   25.4470 O   0  0  0  0  0  0  0  0  0  0  0  0
   11.5739  -17.8111   26.6340 O   0  0  0  0  0  0  0  0  0  0  0  0
  1  2  1  0
  2  3  2  0
  4  2  1  0
  5  4  1  0
  6  5  1  0
  7  6  1  0
  8  7  1  0
  8  9  1  6
 10 11  2  0
 10  8  1  0
 13 12  1  6
 13 15  1  0
 14 13  1  0
 16 15  1  6
 16 17  1  0
 17 10  1  0
 18 19  2  0
 18 16  1  0
 20 18  1  0
 21 20  1  0
 21 22  1  1
 22 23  1  0
 23 31  1  0
 23 24  2  0
 24 25  1  0
 25 26  1  0
 26 27  2  0
 28 27  1  0
 29 28  2  0
 30 31  2  0
 30 29  1  0
 31 26  1  0
 32 21  1  0
 33 32  1  0
 34 32  2  0
M  END
$$$$
