RLW.pdb
     RDKit          3D

 34 35  0  0  1  0  0  0  0  0999 V2000
    8.8878  -15.8941   15.0535 N   0  0  0  0  0  0  0  0  0  0  0  0
    8.6289  -14.5452   14.5605 C   0  0  0  0  0  0  0  0  0  0  0  0
    8.9245  -14.2411   13.3650 N   0  0  0  0  0  0  0  0  0  0  0  0
    8.0518  -13.5945   15.4388 N   0  0  0  0  0  0  0  0  0  0  0  0
    7.6847  -13.8389   16.7875 C   0  0  0  0  0  0  0  0  0  0  0  0
    8.6796  -14.4488   17.7030 C   0  0  0  0  0  0  0  0  0  0  0  0
    8.4164  -14.0375   19.1625 C   0  0  0  0  0  0  0  0  0  0  0  0
    8.5801  -15.1820   20.1033 C   0  0  2  0  0  0  0  0  0  0  0  0
    7.3569  -15.9481   20.1380 N   0  0  0  0  0  0  0  0  0  0  0  0
    8.8214  -14.6767   21.5099 C   0  0  0  0  0  0  0  0  0  0  0  0
    9.8833  -14.1022   21.7576 O   0  0  0  0  0  0  0  0  0  0  0  0
    8.6651  -13.3962   12.8880 C   0  0  0  0  0  0  0  0  0  0  0  0
    4.7957  -13.7267   25.9896 C   0  0  1  0  0  0  0  0  0  0  0  0
    6.2822  -13.4921   25.6642 C   0  0  0  0  0  0  0  0  0  0  0  0
    6.5227  -11.9930   25.6088 C   0  0  0  0  0  0  0  0  0  0  0  0
    6.5227  -14.1662   24.3500 C   0  0  2  0  0  0  0  0  0  0  0  0
    7.9192  -14.2268   23.8482 N   0  0  0  0  0  0  0  0  0  0  0  0
    7.8415  -14.8690   22.5047 C   0  0  0  0  0  0  0  0  0  0  0  0
    8.9219  -14.8925   24.6572 O   0  0  0  0  0  0  0  0  0  0  0  0
    9.6072  -14.1722   25.4827 N   0  0  0  0  0  0  0  0  0  0  0  0
    9.1912  -16.2644   24.6035 C   0  0  1  0  0  0  0  0  0  0  0  0
   10.3267  -16.9138   25.2735 C   0  0  0  0  0  0  0  0  0  0  0  0
    9.8794  -17.6726   26.4577 C   0  0  0  0  0  0  0  0  0  0  0  0
    9.2927  -16.8472   27.5138 C   0  0  0  0  0  0  0  0  0  0  0  0
    7.9752  -16.8863   27.9862 N   0  0  0  0  0  0  0  0  0  0  0  0
    7.7886  -15.9594   28.9335 C   0  0  0  0  0  0  0  0  0  0  0  0
    8.9496  -15.2845   29.1231 C   0  0  0  0  0  0  0  0  0  0  0  0
    9.3349  -14.2652   29.9642 C   0  0  0  0  0  0  0  0  0  0  0  0
   10.6256  -13.7694   29.9643 C   0  0  0  0  0  0  0  0  0  0  0  0
   11.5499  -14.3070   29.1025 C   0  0  0  0  0  0  0  0  0  0  0  0
   11.1739  -15.3220   28.2608 C   0  0  0  0  0  0  0  0  0  0  0  0
    9.8841  -15.8334   28.2440 C   0  0  0  0  0  0  0  0  0  0  0  0
   11.0302  -17.7230   24.2924 O   0  0  0  0  0  0  0  0  0  0  0  0
   12.2388  -18.3955   24.5171 O   0  0  0  0  0  0  0  0  0  0  0  0
  1  2  1  0
  2  3  2  0
  4  2  1  0
  5  4  1  0
  6  5  1  0
  7  6  1  0
  8  7  1  0
  8  9  1  1
 10 11  2  0
 10  8  1  0
 13 12  1  1
 13 15  1  0
 14 13  1  0
 16 15  1  6
 16 17  1  0
 17 10  1  0
 18 19  2  0
 18 16  1  0
 20 18  1  0
 21 20  1  0
 21 22  1  6
 22 23  1  0
 23 31  1  0
 23 24  2  0
 24 25  1  0
 25 26  1  0
 26 27  2  0
 28 27  1  0
 29 28  2  0
 30 31  2  0
 30 29  1  0
 31 26  1  0
 32 21  1  0
 33 32  1  0
 34 32  2  0
M  END
$$$$
