RLW.pdb
     RDKit          3D

 34 35  0  0  1  0  0  0  0  0999 V2000
   13.6994  -19.5526   14.4336 N   0  0  0  0  0  0  0  0  0  0  0  0
   12.3844  -20.1183   14.7164 C   0  0  0  0  0  0  0  0  0  0  0  0
   12.1687  -21.3514   14.5110 N   0  0  0  0  0  0  0  0  0  0  0  0
   11.3661  -19.2678   15.2146 N   0  0  0  0  0  0  0  0  0  0  0  0
   11.5458  -18.2587   16.1958 C   0  0  0  0  0  0  0  0  0  0  0  0
   11.1172  -18.5286   17.5899 C   0  0  0  0  0  0  0  0  0  0  0  0
   11.3455  -17.3003   18.4886 C   0  0  0  0  0  0  0  0  0  0  0  0
   10.9891  -17.5743   19.9097 C   0  0  2  0  0  0  0  0  0  0  0  0
    9.7178  -18.2568   19.9583 N   0  0  0  0  0  0  0  0  0  0  0  0
   10.8194  -16.2758   20.6695 C   0  0  0  0  0  0  0  0  0  0  0  0
   11.8013  -15.5463   20.8201 O   0  0  0  0  0  0  0  0  0  0  0  0
   11.3179  -21.8449   14.7137 C   0  0  0  0  0  0  0  0  0  0  0  0
    8.7305  -12.6972   19.5577 C   0  0  2  0  0  0  0  0  0  0  0  0
    7.8460  -13.9197   19.8639 C   0  0  0  0  0  0  0  0  0  0  0  0
    6.4232  -13.5899   19.4454 C   0  0  0  0  0  0  0  0  0  0  0  0
    7.9762  -14.1584   21.3354 C   0  0  2  0  0  0  0  0  0  0  0  0
    9.2933  -14.6133   21.8492 N   0  0  0  0  0  0  0  0  0  0  0  0
    9.5571  -15.9241   21.1891 C   0  0  0  0  0  0  0  0  0  0  0  0
    9.4777  -14.7355   23.2824 O   0  0  0  0  0  0  0  0  0  0  0  0
    9.4147  -13.6581   23.9931 N   0  0  0  0  0  0  0  0  0  0  0  0
    9.7149  -15.9452   23.9441 C   0  0  1  0  0  0  0  0  0  0  0  0
    9.9994  -16.0629   25.3811 C   0  0  0  0  0  0  0  0  0  0  0  0
    8.8209  -16.5635   26.1150 C   0  0  0  0  0  0  0  0  0  0  0  0
    7.5992  -15.7907   25.8887 C   0  0  0  0  0  0  0  0  0  0  0  0
    6.4348  -16.2179   25.2392 N   0  0  0  0  0  0  0  0  0  0  0  0
    5.5362  -15.2273   25.1869 C   0  0  0  0  0  0  0  0  0  0  0  0
    6.0576  -14.1286   25.7872 C   0  0  0  0  0  0  0  0  0  0  0  0
    5.5831  -12.8604   26.0351 C   0  0  0  0  0  0  0  0  0  0  0  0
    6.3393  -11.9183   26.7076 C   0  0  0  0  0  0  0  0  0  0  0  0
    7.5983  -12.2547   27.1409 C   0  0  0  0  0  0  0  0  0  0  0  0
    8.0787  -13.5157   26.8972 C   0  0  0  0  0  0  0  0  0  0  0  0
    7.3369  -14.4755   26.2236 C   0  0  0  0  0  0  0  0  0  0  0  0
   11.1834  -16.8899   25.5431 O   0  0  0  0  0  0  0  0  0  0  0  0
   11.8379  -17.5749   24.5107 O   0  0  0  0  0  0  0  0  0  0  0  0
  1  2  1  0
  2  3  2  0
  4  2  1  0
  5  4  1  0
  6  5  1  0
  7  6  1  0
  8  7  1  0
  8  9  1  6
 10 11  2  0
 10  8  1  0
 13 12  1  6
 13 15  1  0
 14 13  1  0
 16 15  1  6
 16 17  1  0
 17 10  1  0
 18 19  2  0
 18 16  1  0
 20 18  1  0
 21 20  1  0
 21 22  1  1
 22 23  1  0
 23 31  1  0
 23 24  2  0
 24 25  1  0
 25 26  1  0
 26 27  2  0
 28 27  1  0
 29 28  2  0
 30 31  2  0
 30 29  1  0
 31 26  1  0
 32 21  1  0
 33 32  1  0
 34 32  2  0
M  END
$$$$
