RLW.pdb
     RDKit          3D

 34 35  0  0  1  0  0  0  0  0999 V2000
    9.0026  -16.1346   16.0930 N   0  0  0  0  0  0  0  0  0  0  0  0
    9.3368  -16.8962   14.8940 C   0  0  0  0  0  0  0  0  0  0  0  0
    8.8046  -16.5930   13.7832 N   0  0  0  0  0  0  0  0  0  0  0  0
   10.2539  -17.9714   14.9996 N   0  0  0  0  0  0  0  0  0  0  0  0
   11.0200  -18.2874   16.1514 C   0  0  0  0  0  0  0  0  0  0  0  0
   10.3339  -18.3982   17.4618 C   0  0  0  0  0  0  0  0  0  0  0  0
   11.1102  -17.6499   18.5600 C   0  0  0  0  0  0  0  0  0  0  0  0
   10.5333  -17.8894   19.9133 C   0  0  2  0  0  0  0  0  0  0  0  0
    9.1375  -18.2341   19.7814 N   0  0  0  0  0  0  0  0  0  0  0  0
   10.5964  -16.6250   20.7437 C   0  0  0  0  0  0  0  0  0  0  0  0
   11.6953  -16.1052   20.9466 O   0  0  0  0  0  0  0  0  0  0  0  0
    9.0902  -16.9262   12.8798 C   0  0  0  0  0  0  0  0  0  0  0  0
    8.9002  -12.8275   19.7412 C   0  0  2  0  0  0  0  0  0  0  0  0
    7.8654  -13.8763   20.1881 C   0  0  0  0  0  0  0  0  0  0  0  0
    6.4789  -13.3164   19.9191 C   0  0  0  0  0  0  0  0  0  0  0  0
    8.1237  -14.1089   21.6436 C   0  0  2  0  0  0  0  0  0  0  0  0
    9.3923  -14.7816   22.0228 N   0  0  0  0  0  0  0  0  0  0  0  0
    9.4127  -16.0674   21.2680 C   0  0  0  0  0  0  0  0  0  0  0  0
    9.6572  -15.0285   23.4271 O   0  0  0  0  0  0  0  0  0  0  0  0
    9.9672  -14.0174   24.1697 N   0  0  0  0  0  0  0  0  0  0  0  0
    9.5944  -16.2900   24.0289 C   0  0  1  0  0  0  0  0  0  0  0  0
    9.9957  -16.5688   25.4149 C   0  0  0  0  0  0  0  0  0  0  0  0
    8.8152  -16.7290   26.2861 C   0  0  0  0  0  0  0  0  0  0  0  0
    7.7339  -15.7817   26.0129 C   0  0  0  0  0  0  0  0  0  0  0  0
    6.5433  -16.0321   25.3201 N   0  0  0  0  0  0  0  0  0  0  0  0
    5.8078  -14.9172   25.2330 C   0  0  0  0  0  0  0  0  0  0  0  0
    6.4667  -13.9062   25.8518 C   0  0  0  0  0  0  0  0  0  0  0  0
    6.1809  -12.5792   26.0805 C   0  0  0  0  0  0  0  0  0  0  0  0
    7.0453  -11.7580   26.7805 C   0  0  0  0  0  0  0  0  0  0  0  0
    8.2217  -12.2782   27.2615 C   0  0  0  0  0  0  0  0  0  0  0  0
    8.5144  -13.5989   27.0372 C   0  0  0  0  0  0  0  0  0  0  0  0
    7.6615  -14.4398   26.3366 C   0  0  0  0  0  0  0  0  0  0  0  0
   10.8781  -17.7236   25.4084 O   0  0  0  0  0  0  0  0  0  0  0  0
   11.5855  -18.2060   26.5175 O   0  0  0  0  0  0  0  0  0  0  0  0
  1  2  1  0
  2  3  2  0
  4  2  1  0
  5  4  1  0
  6  5  1  0
  7  6  1  0
  8  7  1  0
  8  9  1  6
 10 11  2  0
 10  8  1  0
 13 12  1  6
 13 15  1  0
 14 13  1  0
 16 15  1  6
 16 17  1  0
 17 10  1  0
 18 19  2  0
 18 16  1  0
 20 18  1  0
 21 20  1  0
 21 22  1  1
 22 23  1  0
 23 31  1  0
 23 24  2  0
 24 25  1  0
 25 26  1  0
 26 27  2  0
 28 27  1  0
 29 28  2  0
 30 31  2  0
 30 29  1  0
 31 26  1  0
 32 21  1  0
 33 32  1  0
 34 32  2  0
M  END
$$$$
