RLW.pdb
     RDKit          3D

 34 35  0  0  1  0  0  0  0  0999 V2000
   11.4298  -21.5417   14.2224 N   0  0  0  0  0  0  0  0  0  0  0  0
   12.1311  -21.9831   15.4236 C   0  0  0  0  0  0  0  0  0  0  0  0
   13.3975  -22.0553   15.4261 N   0  0  0  0  0  0  0  0  0  0  0  0
   11.3735  -22.3291   16.5702 N   0  0  0  0  0  0  0  0  0  0  0  0
   10.7758  -21.4077   17.4686 C   0  0  0  0  0  0  0  0  0  0  0  0
   11.6077  -20.3221   18.0424 C   0  0  0  0  0  0  0  0  0  0  0  0
   10.8697  -19.6017   19.1847 C   0  0  0  0  0  0  0  0  0  0  0  0
   10.0897  -18.4301   18.6942 C   0  0  2  0  0  0  0  0  0  0  0  0
   10.6076  -18.0172   17.4113 N   0  0  0  0  0  0  0  0  0  0  0  0
   10.2578  -17.2551   19.6340 C   0  0  0  0  0  0  0  0  0  0  0  0
   11.3981  -16.8883   19.9239 O   0  0  0  0  0  0  0  0  0  0  0  0
   13.9761  -22.2727   16.2177 C   0  0  0  0  0  0  0  0  0  0  0  0
    6.1890  -13.0924   20.9703 C   0  0  1  0  0  0  0  0  0  0  0  0
    7.7014  -13.3758   20.9155 C   0  0  0  0  0  0  0  0  0  0  0  0
    8.2188  -12.9196   19.5619 C   0  0  0  0  0  0  0  0  0  0  0  0
    7.8473  -14.8504   21.1243 C   0  0  2  0  0  0  0  0  0  0  0  0
    9.2151  -15.4260   21.0663 N   0  0  0  0  0  0  0  0  0  0  0  0
    9.1222  -16.6059   20.1593 C   0  0  0  0  0  0  0  0  0  0  0  0
    9.8645  -15.8055   22.3062 O   0  0  0  0  0  0  0  0  0  0  0  0
   11.0166  -15.2824   22.5690 N   0  0  0  0  0  0  0  0  0  0  0  0
    9.3214  -16.6979   23.2369 C   0  0  1  0  0  0  0  0  0  0  0  0
    9.7610  -16.8082   24.6349 C   0  0  0  0  0  0  0  0  0  0  0  0
    9.6547  -15.5093   25.3275 C   0  0  0  0  0  0  0  0  0  0  0  0
    8.2818  -15.0412   25.5193 C   0  0  0  0  0  0  0  0  0  0  0  0
    7.1023  -15.7628   25.2995 N   0  0  0  0  0  0  0  0  0  0  0  0
    6.0316  -14.9983   25.5460 C   0  0  0  0  0  0  0  0  0  0  0  0
    6.4498  -13.7670   25.9313 C   0  0  0  0  0  0  0  0  0  0  0  0
    5.8010  -12.6159   26.3171 C   0  0  0  0  0  0  0  0  0  0  0  0
    6.4942  -11.4800   26.6926 C   0  0  0  0  0  0  0  0  0  0  0  0
    7.8673  -11.4985   26.6810 C   0  0  0  0  0  0  0  0  0  0  0  0
    8.5212  -12.6410   26.2971 C   0  0  0  0  0  0  0  0  0  0  0  0
    7.8449  -13.7911   25.9158 C   0  0  0  0  0  0  0  0  0  0  0  0
    8.9992  -17.8719   25.2676 O   0  0  0  0  0  0  0  0  0  0  0  0
    9.2637  -18.4124   26.5330 O   0  0  0  0  0  0  0  0  0  0  0  0
  1  2  1  0
  2  3  2  0
  4  2  1  0
  5  4  1  0
  6  5  1  0
  7  6  1  0
  8  7  1  0
  8  9  1  6
 10 11  2  0
 10  8  1  0
 13 12  1  1
 13 15  1  0
 14 13  1  0
 16 15  1  6
 16 17  1  0
 17 10  1  0
 18 19  2  0
 18 16  1  0
 20 18  1  0
 21 20  1  0
 21 22  1  1
 22 23  1  0
 23 31  1  0
 23 24  2  0
 24 25  1  0
 25 26  1  0
 26 27  2  0
 28 27  1  0
 29 28  2  0
 30 31  2  0
 30 29  1  0
 31 26  1  0
 32 21  1  0
 33 32  1  0
 34 32  2  0
M  END
$$$$
