RLW.pdb
     RDKit          3D

 34 35  0  0  1  0  0  0  0  0999 V2000
   11.5513  -22.1201   17.9305 N   0  0  0  0  0  0  0  0  0  0  0  0
   11.0709  -23.0806   18.9184 C   0  0  0  0  0  0  0  0  0  0  0  0
   11.8473  -23.9863   19.3498 N   0  0  0  0  0  0  0  0  0  0  0  0
    9.7328  -22.9819   19.3747 N   0  0  0  0  0  0  0  0  0  0  0  0
    8.8291  -21.9373   19.0498 C   0  0  0  0  0  0  0  0  0  0  0  0
    9.3726  -20.6191   18.6412 C   0  0  0  0  0  0  0  0  0  0  0  0
    8.9596  -19.5168   19.6327 C   0  0  0  0  0  0  0  0  0  0  0  0
    8.8955  -18.1769   18.9829 C   0  0  2  0  0  0  0  0  0  0  0  0
    9.7453  -18.1729   17.8157 N   0  0  0  0  0  0  0  0  0  0  0  0
    9.4293  -17.1124   19.9179 C   0  0  0  0  0  0  0  0  0  0  0  0
   10.6476  -17.0285   20.0841 O   0  0  0  0  0  0  0  0  0  0  0  0
   11.6145  -24.6934   20.0238 C   0  0  0  0  0  0  0  0  0  0  0  0
    7.1428  -12.0369   20.4321 C   0  0  1  0  0  0  0  0  0  0  0  0
    8.2978  -13.0507   20.3381 C   0  0  0  0  0  0  0  0  0  0  0  0
    8.2965  -13.6397   18.9377 C   0  0  0  0  0  0  0  0  0  0  0  0
    8.0291  -14.0735   21.3968 C   0  0  2  0  0  0  0  0  0  0  0  0
    8.9921  -15.1955   21.5361 N   0  0  0  0  0  0  0  0  0  0  0  0
    8.5369  -16.2439   20.5784 C   0  0  0  0  0  0  0  0  0  0  0  0
    9.1969  -15.7793   22.8477 O   0  0  0  0  0  0  0  0  0  0  0  0
    8.3996  -16.7265   23.2180 N   0  0  0  0  0  0  0  0  0  0  0  0
   10.2044  -15.3853   23.7348 C   0  0  2  0  0  0  0  0  0  0  0  0
   10.3649  -15.9150   25.0963 C   0  0  0  0  0  0  0  0  0  0  0  0
    9.0665  -15.9824   25.7947 C   0  0  0  0  0  0  0  0  0  0  0  0
    8.7130  -14.7646   26.5248 C   0  0  0  0  0  0  0  0  0  0  0  0
    9.3949  -14.1988   27.6088 N   0  0  0  0  0  0  0  0  0  0  0  0
    8.7587  -13.1046   28.0440 C   0  0  0  0  0  0  0  0  0  0  0  0
    7.6546  -12.9056   27.2819 C   0  0  0  0  0  0  0  0  0  0  0  0
    6.6660  -11.9479   27.2652 C   0  0  0  0  0  0  0  0  0  0  0  0
    5.6417  -11.9743   26.3369 C   0  0  0  0  0  0  0  0  0  0  0  0
    5.6077  -12.9827   25.4053 C   0  0  0  0  0  0  0  0  0  0  0  0
    6.5883  -13.9412   25.4156 C   0  0  0  0  0  0  0  0  0  0  0  0
    7.6242  -13.9336   26.3388 C   0  0  0  0  0  0  0  0  0  0  0  0
   11.0480  -17.1947   25.0078 O   0  0  0  0  0  0  0  0  0  0  0  0
   11.4260  -17.9859   26.1007 O   0  0  0  0  0  0  0  0  0  0  0  0
  1  2  1  0
  2  3  2  0
  4  2  1  0
  5  4  1  0
  6  5  1  0
  7  6  1  0
  8  7  1  0
  8  9  1  6
 10 11  2  0
 10  8  1  0
 13 12  1  6
 13 15  1  0
 14 13  1  0
 16 15  1  6
 16 17  1  0
 17 10  1  0
 18 19  2  0
 18 16  1  0
 20 18  1  0
 21 20  1  0
 21 22  1  6
 22 23  1  0
 23 31  1  0
 23 24  2  0
 24 25  1  0
 25 26  1  0
 26 27  2  0
 28 27  1  0
 29 28  2  0
 30 31  2  0
 30 29  1  0
 31 26  1  0
 32 21  1  0
 33 32  1  0
 34 32  2  0
M  END
$$$$
