RLW.pdb
     RDKit          3D

 34 35  0  0  1  0  0  0  0  0999 V2000
    6.3032  -17.4550   15.0225 N   0  0  0  0  0  0  0  0  0  0  0  0
    6.2447  -18.8056   15.5719 C   0  0  0  0  0  0  0  0  0  0  0  0
    5.3580  -19.6162   15.1649 N   0  0  0  0  0  0  0  0  0  0  0  0
    7.1863  -19.1834   16.5614 N   0  0  0  0  0  0  0  0  0  0  0  0
    7.9050  -18.2884   17.3956 C   0  0  0  0  0  0  0  0  0  0  0  0
    7.1497  -17.3361   18.2457 C   0  0  0  0  0  0  0  0  0  0  0  0
    8.1016  -16.4018   19.0135 C   0  0  0  0  0  0  0  0  0  0  0  0
    8.4884  -16.9649   20.3383 C   0  0  2  0  0  0  0  0  0  0  0  0
    7.3180  -17.5121   20.9828 N   0  0  0  0  0  0  0  0  0  0  0  0
    9.0154  -15.8704   21.2419 C   0  0  0  0  0  0  0  0  0  0  0  0
    9.9866  -15.2107   20.8668 O   0  0  0  0  0  0  0  0  0  0  0  0
    5.1935  -20.5408   15.5209 C   0  0  0  0  0  0  0  0  0  0  0  0
    8.4911  -13.4885   26.1842 C   0  0  1  0  0  0  0  0  0  0  0  0
    7.6959  -12.8941   25.0074 C   0  0  0  0  0  0  0  0  0  0  0  0
    6.3505  -12.4257   25.5351 C   0  0  0  0  0  0  0  0  0  0  0  0
    7.5720  -13.9954   24.0019 C   0  0  1  0  0  0  0  0  0  0  0  0
    8.8204  -14.5196   23.3916 N   0  0  0  0  0  0  0  0  0  0  0  0
    8.3972  -15.6249   22.4846 C   0  0  0  0  0  0  0  0  0  0  0  0
    9.8843  -14.9765   24.2648 O   0  0  0  0  0  0  0  0  0  0  0  0
   10.4567  -14.1037   25.0267 N   0  0  0  0  0  0  0  0  0  0  0  0
   10.3268  -16.3018   24.3376 C   0  0  1  0  0  0  0  0  0  0  0  0
   11.5671  -16.7271   25.0014 C   0  0  0  0  0  0  0  0  0  0  0  0
   11.2860  -17.6963   26.0783 C   0  0  0  0  0  0  0  0  0  0  0  0
   10.2121  -17.2914   26.9859 C   0  0  0  0  0  0  0  0  0  0  0  0
    8.8755  -17.7070   26.9553 N   0  0  0  0  0  0  0  0  0  0  0  0
    8.1730  -17.0995   27.9191 C   0  0  0  0  0  0  0  0  0  0  0  0
    8.9982  -16.2759   28.6120 C   0  0  0  0  0  0  0  0  0  0  0  0
    8.8263  -15.4410   29.6929 C   0  0  0  0  0  0  0  0  0  0  0  0
    9.8749  -14.7147   30.2263 C   0  0  0  0  0  0  0  0  0  0  0  0
   11.1227  -14.8277   29.6640 C   0  0  0  0  0  0  0  0  0  0  0  0
   11.3021  -15.6566   28.5864 C   0  0  0  0  0  0  0  0  0  0  0  0
   10.2635  -16.3934   28.0354 C   0  0  0  0  0  0  0  0  0  0  0  0
   12.4763  -17.2299   23.9852 O   0  0  0  0  0  0  0  0  0  0  0  0
   12.1592  -17.4021   22.6313 O   0  0  0  0  0  0  0  0  0  0  0  0
  1  2  1  0
  2  3  2  0
  4  2  1  0
  5  4  1  0
  6  5  1  0
  7  6  1  0
  8  7  1  0
  8  9  1  1
 10 11  2  0
 10  8  1  0
 13 12  1  1
 13 15  1  0
 14 13  1  0
 16 15  1  6
 16 17  1  0
 17 10  1  0
 18 19  2  0
 18 16  1  0
 20 18  1  0
 21 20  1  0
 21 22  1  1
 22 23  1  0
 23 31  1  0
 23 24  2  0
 24 25  1  0
 25 26  1  0
 26 27  2  0
 28 27  1  0
 29 28  2  0
 30 31  2  0
 30 29  1  0
 31 26  1  0
 32 21  1  0
 33 32  1  0
 34 32  2  0
M  END
$$$$
