RLW.pdb
     RDKit          3D

 34 35  0  0  1  0  0  0  0  0999 V2000
    8.4972  -12.3495   16.8873 N   0  0  0  0  0  0  0  0  0  0  0  0
    8.6687  -13.7970   16.9541 C   0  0  0  0  0  0  0  0  0  0  0  0
    9.5265  -14.3672   16.2136 N   0  0  0  0  0  0  0  0  0  0  0  0
    7.8617  -14.5413   17.8503 N   0  0  0  0  0  0  0  0  0  0  0  0
    6.9233  -13.9908   18.7612 C   0  0  0  0  0  0  0  0  0  0  0  0
    7.3722  -13.6422   20.1312 C   0  0  0  0  0  0  0  0  0  0  0  0
    7.2131  -14.8367   21.0885 C   0  0  0  0  0  0  0  0  0  0  0  0
    8.0127  -16.0152   20.6484 C   0  0  2  0  0  0  0  0  0  0  0  0
    7.1266  -17.1307   20.4141 N   0  0  0  0  0  0  0  0  0  0  0  0
    8.9715  -16.4383   21.7409 C   0  0  0  0  0  0  0  0  0  0  0  0
    8.6005  -17.2821   22.5590 O   0  0  0  0  0  0  0  0  0  0  0  0
    9.7031  -15.3546   16.1652 C   0  0  0  0  0  0  0  0  0  0  0  0
   14.3103  -15.0172   20.9294 C   0  0  2  0  0  0  0  0  0  0  0  0
   12.9266  -15.6858   21.0237 C   0  0  0  0  0  0  0  0  0  0  0  0
   11.9793  -14.9440   20.0962 C   0  0  0  0  0  0  0  0  0  0  0  0
   12.5242  -15.5880   22.4616 C   0  0  2  0  0  0  0  0  0  0  0  0
   11.2451  -16.2242   22.8675 N   0  0  0  0  0  0  0  0  0  0  0  0
   10.2586  -15.8675   21.8078 C   0  0  0  0  0  0  0  0  0  0  0  0
   10.6985  -15.9174   24.1752 O   0  0  0  0  0  0  0  0  0  0  0  0
   10.4061  -14.6855   24.4334 N   0  0  0  0  0  0  0  0  0  0  0  0
   10.4639  -16.8704   25.1724 C   0  0  1  0  0  0  0  0  0  0  0  0
   10.2782  -16.5536   26.5955 C   0  0  0  0  0  0  0  0  0  0  0  0
    8.8973  -16.8452   27.0271 C   0  0  0  0  0  0  0  0  0  0  0  0
    7.8856  -15.9674   26.4380 C   0  0  0  0  0  0  0  0  0  0  0  0
    6.8651  -16.3276   25.5497 N   0  0  0  0  0  0  0  0  0  0  0  0
    6.1519  -15.2525   25.1934 C   0  0  0  0  0  0  0  0  0  0  0  0
    6.6597  -14.1612   25.8183 C   0  0  0  0  0  0  0  0  0  0  0  0
    6.3197  -12.8274   25.8373 C   0  0  0  0  0  0  0  0  0  0  0  0
    7.0138  -11.9095   26.6036 C   0  0  0  0  0  0  0  0  0  0  0  0
    8.0717  -12.3379   27.3674 C   0  0  0  0  0  0  0  0  0  0  0  0
    8.4174  -13.6648   27.3535 C   0  0  0  0  0  0  0  0  0  0  0  0
    7.7349  -14.6019   26.5910 C   0  0  0  0  0  0  0  0  0  0  0  0
   11.2909  -17.2673   27.3552 O   0  0  0  0  0  0  0  0  0  0  0  0
   11.5089  -17.1362   28.7332 O   0  0  0  0  0  0  0  0  0  0  0  0
  1  2  1  0
  2  3  2  0
  4  2  1  0
  5  4  1  0
  6  5  1  0
  7  6  1  0
  8  7  1  0
  8  9  1  1
 10 11  2  0
 10  8  1  0
 13 12  1  6
 13 15  1  0
 14 13  1  0
 16 15  1  6
 16 17  1  0
 17 10  1  0
 18 19  2  0
 18 16  1  0
 20 18  1  0
 21 20  1  0
 21 22  1  1
 22 23  1  0
 23 31  1  0
 23 24  2  0
 24 25  1  0
 25 26  1  0
 26 27  2  0
 28 27  1  0
 29 28  2  0
 30 31  2  0
 30 29  1  0
 31 26  1  0
 32 21  1  0
 33 32  1  0
 34 32  2  0
M  END
$$$$
