RLW.pdb
     RDKit          3D

 34 35  0  0  1  0  0  0  0  0999 V2000
   12.0372  -19.1027   13.6263 N   0  0  0  0  0  0  0  0  0  0  0  0
   12.7662  -19.7910   14.6865 C   0  0  0  0  0  0  0  0  0  0  0  0
   13.8964  -20.3124   14.4415 N   0  0  0  0  0  0  0  0  0  0  0  0
   12.1871  -19.8664   15.9778 N   0  0  0  0  0  0  0  0  0  0  0  0
   10.9506  -19.2841   16.3587 C   0  0  0  0  0  0  0  0  0  0  0  0
   10.4885  -19.4329   17.7603 C   0  0  0  0  0  0  0  0  0  0  0  0
   10.8349  -18.1867   18.5943 C   0  0  0  0  0  0  0  0  0  0  0  0
   10.3694  -18.3118   20.0048 C   0  0  2  0  0  0  0  0  0  0  0  0
    8.9482  -18.5661   20.0160 N   0  0  0  0  0  0  0  0  0  0  0  0
   10.5883  -17.0114   20.7486 C   0  0  0  0  0  0  0  0  0  0  0  0
   11.7402  -16.5944   20.8838 O   0  0  0  0  0  0  0  0  0  0  0  0
   14.4746  -20.8065   15.0973 C   0  0  0  0  0  0  0  0  0  0  0  0
    8.8796  -12.9354   19.8970 C   0  0  2  0  0  0  0  0  0  0  0  0
    7.8939  -13.9943   20.4242 C   0  0  0  0  0  0  0  0  0  0  0  0
    6.4940  -13.4070   20.3660 C   0  0  0  0  0  0  0  0  0  0  0  0
    8.3353  -14.3021   21.8205 C   0  0  2  0  0  0  0  0  0  0  0  0
    9.6283  -15.0109   21.9977 N   0  0  0  0  0  0  0  0  0  0  0  0
    9.4860  -16.3052   21.2710 C   0  0  0  0  0  0  0  0  0  0  0  0
   10.1130  -15.2501   23.3434 O   0  0  0  0  0  0  0  0  0  0  0  0
   10.8977  -14.3677   23.8682 N   0  0  0  0  0  0  0  0  0  0  0  0
    9.7818  -16.3726   24.1102 C   0  0  1  0  0  0  0  0  0  0  0  0
   10.2542  -16.6092   25.4816 C   0  0  0  0  0  0  0  0  0  0  0  0
    9.8054  -15.5353   26.3890 C   0  0  0  0  0  0  0  0  0  0  0  0
    8.4052  -15.1477   26.2151 C   0  0  0  0  0  0  0  0  0  0  0  0
    7.3469  -15.9619   25.7938 N   0  0  0  0  0  0  0  0  0  0  0  0
    6.2131  -15.2549   25.7162 C   0  0  0  0  0  0  0  0  0  0  0  0
    6.4690  -13.9726   26.0759 C   0  0  0  0  0  0  0  0  0  0  0  0
    5.6931  -12.8418   26.1963 C   0  0  0  0  0  0  0  0  0  0  0  0
    6.2228  -11.6366   26.6187 C   0  0  0  0  0  0  0  0  0  0  0  0
    7.5590  -11.5632   26.9270 C   0  0  0  0  0  0  0  0  0  0  0  0
    8.3390  -12.6848   26.8088 C   0  0  0  0  0  0  0  0  0  0  0  0
    7.8277  -13.9035   26.3860 C   0  0  0  0  0  0  0  0  0  0  0  0
    9.8223  -17.9360   25.8878 O   0  0  0  0  0  0  0  0  0  0  0  0
    9.0546  -18.8102   25.1067 O   0  0  0  0  0  0  0  0  0  0  0  0
  1  2  1  0
  2  3  2  0
  4  2  1  0
  5  4  1  0
  6  5  1  0
  7  6  1  0
  8  7  1  0
  8  9  1  6
 10 11  2  0
 10  8  1  0
 13 12  1  6
 13 15  1  0
 14 13  1  0
 16 15  1  6
 16 17  1  0
 17 10  1  0
 18 19  2  0
 18 16  1  0
 20 18  1  0
 21 20  1  0
 21 22  1  1
 22 23  1  0
 23 31  1  0
 23 24  2  0
 24 25  1  0
 25 26  1  0
 26 27  2  0
 28 27  1  0
 29 28  2  0
 30 31  2  0
 30 29  1  0
 31 26  1  0
 32 21  1  0
 33 32  1  0
 34 32  2  0
M  END
$$$$
