RLW.pdb
     RDKit          3D

 34 35  0  0  1  0  0  0  0  0999 V2000
   10.1899  -19.7502   15.0986 N   0  0  0  0  0  0  0  0  0  0  0  0
   10.5320  -21.0100   15.7508 C   0  0  0  0  0  0  0  0  0  0  0  0
   10.0569  -22.1002   15.3094 N   0  0  0  0  0  0  0  0  0  0  0  0
   11.3920  -20.9862   16.8769 N   0  0  0  0  0  0  0  0  0  0  0  0
   11.6669  -19.8468   17.6766 C   0  0  0  0  0  0  0  0  0  0  0  0
   10.6790  -18.7411   17.7146 C   0  0  0  0  0  0  0  0  0  0  0  0
   11.1462  -17.6110   18.6491 C   0  0  0  0  0  0  0  0  0  0  0  0
   10.6583  -17.8028   20.0444 C   0  0  2  0  0  0  0  0  0  0  0  0
    9.2728  -18.2076   20.0126 N   0  0  0  0  0  0  0  0  0  0  0  0
   10.7163  -16.4959   20.8065 C   0  0  0  0  0  0  0  0  0  0  0  0
   11.8043  -15.9294   20.9267 O   0  0  0  0  0  0  0  0  0  0  0  0
   10.2387  -23.0167   15.6775 C   0  0  0  0  0  0  0  0  0  0  0  0
    8.9002  -12.5486   20.0088 C   0  0  2  0  0  0  0  0  0  0  0  0
    7.9557  -13.7065   20.3797 C   0  0  0  0  0  0  0  0  0  0  0  0
    6.5272  -13.2431   20.1495 C   0  0  0  0  0  0  0  0  0  0  0  0
    8.2388  -14.0190   21.8155 C   0  0  2  0  0  0  0  0  0  0  0  0
    9.5290  -14.6796   22.1390 N   0  0  0  0  0  0  0  0  0  0  0  0
    9.5405  -15.9526   21.3626 C   0  0  0  0  0  0  0  0  0  0  0  0
    9.8466  -14.9452   23.5288 O   0  0  0  0  0  0  0  0  0  0  0  0
   10.1538  -13.9401   24.2806 N   0  0  0  0  0  0  0  0  0  0  0  0
    9.8372  -16.2190   24.1076 C   0  0  1  0  0  0  0  0  0  0  0  0
   10.1185  -16.4883   25.5247 C   0  0  0  0  0  0  0  0  0  0  0  0
    8.9008  -16.9306   26.2316 C   0  0  0  0  0  0  0  0  0  0  0  0
    7.7448  -16.0537   26.0433 C   0  0  0  0  0  0  0  0  0  0  0  0
    6.5807  -16.3310   25.3163 N   0  0  0  0  0  0  0  0  0  0  0  0
    5.7547  -15.2780   25.3335 C   0  0  0  0  0  0  0  0  0  0  0  0
    6.3255  -14.2832   26.0573 C   0  0  0  0  0  0  0  0  0  0  0  0
    5.9291  -13.0143   26.4146 C   0  0  0  0  0  0  0  0  0  0  0  0
    6.7204  -12.1987   27.2023 C   0  0  0  0  0  0  0  0  0  0  0  0
    7.9351  -12.6652   27.6412 C   0  0  0  0  0  0  0  0  0  0  0  0
    8.3377  -13.9278   27.2890 C   0  0  0  0  0  0  0  0  0  0  0  0
    7.5596  -14.7619   26.4988 C   0  0  0  0  0  0  0  0  0  0  0  0
   11.2144  -17.4401   25.5969 O   0  0  0  0  0  0  0  0  0  0  0  0
   11.8540  -17.8479   26.7750 O   0  0  0  0  0  0  0  0  0  0  0  0
  1  2  1  0
  2  3  2  0
  4  2  1  0
  5  4  1  0
  6  5  1  0
  7  6  1  0
  8  7  1  0
  8  9  1  6
 10 11  2  0
 10  8  1  0
 13 12  1  6
 13 15  1  0
 14 13  1  0
 16 15  1  6
 16 17  1  0
 17 10  1  0
 18 19  2  0
 18 16  1  0
 20 18  1  0
 21 20  1  0
 21 22  1  1
 22 23  1  0
 23 31  1  0
 23 24  2  0
 24 25  1  0
 25 26  1  0
 26 27  2  0
 28 27  1  0
 29 28  2  0
 30 31  2  0
 30 29  1  0
 31 26  1  0
 32 21  1  0
 33 32  1  0
 34 32  2  0
M  END
$$$$
