RNN.pdb
     RDKit          3D

 28 27  0  0  1  0  0  0  0  0999 V2000
    9.5289  -14.5753   14.6917 N   0  0  0  0  0  0  0  0  0  0  0  0
    8.1269  -14.3752   14.7348 C   0  0  0  0  0  0  0  0  0  0  0  0
    7.3091  -14.8560   13.8370 N   0  0  0  0  0  0  0  0  0  0  0  0
    7.5243  -13.6241   15.7837 N   0  0  0  0  0  0  0  0  0  0  0  0
    8.1991  -13.3595   17.0525 C   0  0  0  0  0  0  0  0  0  0  0  0
    7.3704  -13.9775   18.1225 C   0  0  0  0  0  0  0  0  0  0  0  0
    7.8221  -13.8030   19.5220 C   0  0  0  0  0  0  0  0  0  0  0  0
    9.2289  -14.2669   19.7784 C   0  0  2  0  0  0  0  0  0  0  0  0
    9.7536  -15.1078   18.7268 N   0  0  0  0  0  0  0  0  0  0  0  0
    9.1678  -15.0324   21.0768 C   0  0  0  0  0  0  0  0  0  0  0  0
    8.6114  -14.4935   22.0606 O   0  0  0  0  0  0  0  0  0  0  0  0
    6.2807  -14.6542   13.9674 N   0  0  0  0  0  0  0  0  0  0  0  0
    8.0825  -19.1887   20.2936 C   0  0  0  0  0  0  0  0  0  0  0  0
    8.1019  -18.5026   21.5727 O   0  0  0  0  0  0  0  0  0  0  0  0
    7.0086  -18.0651   21.9725 C   0  0  0  0  0  0  0  0  0  0  0  0
    9.3881  -18.4085   22.2313 C   0  0  2  0  0  0  0  0  0  0  0  0
    9.8689  -17.0049   22.4560 N   0  0  0  0  0  0  0  0  0  0  0  0
    9.7268  -16.3017   21.1353 C   0  0  0  0  0  0  0  0  0  0  0  0
   11.3058  -16.8683   22.7387 O   0  0  0  0  0  0  0  0  0  0  0  0
   11.7109  -17.1360   23.9295 N   0  0  0  0  0  0  0  0  0  0  0  0
   15.9392  -14.9441   23.5594 C   0  0  0  0  0  0  0  0  0  0  0  0
   15.1354  -15.9366   24.1536 O   0  0  0  0  0  0  0  0  0  0  0  0
   15.6017  -16.6958   25.0395 C   0  0  0  0  0  0  0  0  0  0  0  0
   13.7274  -16.0785   23.7225 C   0  0  1  0  0  0  0  0  0  0  0  0
   13.7240  -16.3983   22.2591 N   0  0  0  0  0  0  0  0  0  0  0  0
   12.2992  -16.4747   21.8296 C   0  0  0  0  0  0  0  0  0  0  0  0
   14.3849  -17.6923   21.9743 O   0  0  0  0  0  0  0  0  0  0  0  0
   15.7366  -17.7483   21.7351 O   0  0  0  0  0  0  0  0  0  0  0  0
  1  2  1  0
  2  4  1  0
  3  2  2  0
  4  5  1  0
  5  6  1  0
  7  6  1  0
  8  9  1  6
  8  7  1  0
 10  8  1  0
 10 11  2  0
 13 15  1  0
 13 12  1  0
 14 13  2  0
 16 15  1  1
 16 17  1  0
 16 18  1  0
 17 10  1  0
 18 25  1  0
 19 18  2  0
 20 21  1  0
 21 23  1  0
 22 21  2  0
 24 23  1  6
 24 26  1  0
 25 24  1  0
 26 28  2  0
 26 27  1  0
M  END
$$$$
