RNN.pdb
     RDKit          3D

 28 27  0  0  1  0  0  0  0  0999 V2000
    6.8718  -13.6973   18.9164 N   0  0  0  0  0  0  0  0  0  0  0  0
    8.1366  -13.1247   19.1989 C   0  0  0  0  0  0  0  0  0  0  0  0
    8.7058  -12.2358   18.4295 N   0  0  0  0  0  0  0  0  0  0  0  0
    8.8673  -13.4963   20.3631 N   0  0  0  0  0  0  0  0  0  0  0  0
    8.2204  -13.9973   21.5738 C   0  0  0  0  0  0  0  0  0  0  0  0
    7.2012  -14.9916   21.1422 C   0  0  0  0  0  0  0  0  0  0  0  0
    6.3754  -15.6237   22.1964 C   0  0  0  0  0  0  0  0  0  0  0  0
    6.8242  -17.0044   22.5866 C   0  0  2  0  0  0  0  0  0  0  0  0
    6.0580  -18.0539   21.9545 N   0  0  0  0  0  0  0  0  0  0  0  0
    6.6615  -17.0698   24.0849 C   0  0  0  0  0  0  0  0  0  0  0  0
    5.7491  -16.3959   24.6151 O   0  0  0  0  0  0  0  0  0  0  0  0
    9.6485  -11.8702   18.7346 N   0  0  0  0  0  0  0  0  0  0  0  0
    8.8599  -21.1037   27.1080 C   0  0  0  0  0  0  0  0  0  0  0  0
    8.1563  -20.3268   26.1037 O   0  0  0  0  0  0  0  0  0  0  0  0
    8.5181  -20.5027   24.9270 C   0  0  0  0  0  0  0  0  0  0  0  0
    7.1182  -19.4409   26.5884 C   0  0  1  0  0  0  0  0  0  0  0  0
    7.3636  -17.9870   26.3099 N   0  0  0  0  0  0  0  0  0  0  0  0
    7.5239  -17.8716   24.8200 C   0  0  0  0  0  0  0  0  0  0  0  0
    8.6400  -17.4555   26.8116 O   0  0  0  0  0  0  0  0  0  0  0  0
    9.7211  -17.8512   26.2386 N   0  0  0  0  0  0  0  0  0  0  0  0
    8.5055  -13.0339   28.1671 C   0  0  0  0  0  0  0  0  0  0  0  0
    9.5529  -13.9200   27.8474 O   0  0  0  0  0  0  0  0  0  0  0  0
   10.0227  -13.9659   26.6830 C   0  0  0  0  0  0  0  0  0  0  0  0
   10.0988  -14.8022   28.9019 C   0  0  2  0  0  0  0  0  0  0  0  0
   10.1704  -16.1921   28.3479 N   0  0  0  0  0  0  0  0  0  0  0  0
    8.8054  -16.5429   27.8642 C   0  0  0  0  0  0  0  0  0  0  0  0
   10.5875  -17.1753   29.3735 O   0  0  0  0  0  0  0  0  0  0  0  0
   11.8160  -17.0732   29.9799 O   0  0  0  0  0  0  0  0  0  0  0  0
  1  2  1  0
  2  4  1  0
  3  2  2  0
  4  5  1  0
  5  6  1  0
  7  6  1  0
  8  9  1  6
  8  7  1  0
 10  8  1  0
 10 11  2  0
 13 15  1  0
 13 12  1  0
 14 13  2  0
 16 15  1  6
 16 17  1  0
 16 18  1  0
 17 10  1  0
 18 25  1  0
 19 18  2  0
 20 21  1  0
 21 23  1  0
 22 21  2  0
 24 23  1  6
 24 26  1  0
 25 24  1  0
 26 28  2  0
 26 27  1  0
M  END
$$$$
