RNN.pdb
     RDKit          3D

 28 27  0  0  1  0  0  0  0  0999 V2000
    8.1906  -12.5739   17.5494 N   0  0  0  0  0  0  0  0  0  0  0  0
    8.3926  -13.1269   18.8381 C   0  0  0  0  0  0  0  0  0  0  0  0
    8.8460  -12.4351   19.8489 N   0  0  0  0  0  0  0  0  0  0  0  0
    8.1033  -14.4957   19.1032 N   0  0  0  0  0  0  0  0  0  0  0  0
    8.2245  -15.0838   20.4354 C   0  0  0  0  0  0  0  0  0  0  0  0
    6.9396  -14.8294   21.1412 C   0  0  0  0  0  0  0  0  0  0  0  0
    6.7652  -15.4360   22.4808 C   0  0  0  0  0  0  0  0  0  0  0  0
    6.9161  -16.9316   22.5050 C   0  0  2  0  0  0  0  0  0  0  0  0
    5.8494  -17.6244   21.8190 N   0  0  0  0  0  0  0  0  0  0  0  0
    6.9287  -17.3092   23.9654 C   0  0  0  0  0  0  0  0  0  0  0  0
    5.8876  -17.1275   24.6368 O   0  0  0  0  0  0  0  0  0  0  0  0
    8.9645  -12.9461   20.7656 N   0  0  0  0  0  0  0  0  0  0  0  0
    5.9199  -20.0100   26.3363 C   0  0  0  0  0  0  0  0  0  0  0  0
    7.1473  -20.7151   26.0147 O   0  0  0  0  0  0  0  0  0  0  0  0
    7.0765  -21.9567   26.0089 C   0  0  0  0  0  0  0  0  0  0  0  0
    8.3068  -19.8925   25.7387 C   0  0  2  0  0  0  0  0  0  0  0  0
    8.0744  -18.4188   25.8995 N   0  0  0  0  0  0  0  0  0  0  0  0
    8.0880  -17.8431   24.5112 C   0  0  0  0  0  0  0  0  0  0  0  0
    9.1577  -17.6785   26.5640 O   0  0  0  0  0  0  0  0  0  0  0  0
    9.5394  -18.0853   27.7227 N   0  0  0  0  0  0  0  0  0  0  0  0
    9.8997  -13.1667   28.3924 C   0  0  0  0  0  0  0  0  0  0  0  0
    8.6766  -13.4831   27.7692 O   0  0  0  0  0  0  0  0  0  0  0  0
    7.6635  -12.7594   27.9380 C   0  0  0  0  0  0  0  0  0  0  0  0
    8.5947  -14.6833   26.9083 C   0  0  1  0  0  0  0  0  0  0  0  0
    9.9512  -15.3175   26.8722 N   0  0  0  0  0  0  0  0  0  0  0  0
    9.8340  -16.5589   26.0564 C   0  0  0  0  0  0  0  0  0  0  0  0
   10.4318  -15.6727   28.2270 O   0  0  0  0  0  0  0  0  0  0  0  0
   10.2059  -16.9263   28.7416 O   0  0  0  0  0  0  0  0  0  0  0  0
  1  2  1  0
  2  4  1  0
  3  2  2  0
  4  5  1  0
  5  6  1  0
  7  6  1  0
  8  9  1  6
  8  7  1  0
 10  8  1  0
 10 11  2  0
 13 15  1  0
 13 12  1  0
 14 13  2  0
 16 15  1  6
 16 17  1  0
 16 18  1  0
 17 10  1  0
 18 25  1  0
 19 18  2  0
 20 21  1  0
 21 23  1  0
 22 21  2  0
 24 23  1  6
 24 26  1  0
 25 24  1  0
 26 28  2  0
 26 27  1  0
M  END
$$$$
