RNN.pdb
     RDKit          3D

 28 27  0  0  1  0  0  0  0  0999 V2000
    8.6958  -13.2251   15.1243 N   0  0  0  0  0  0  0  0  0  0  0  0
    7.3671  -13.0415   15.5804 C   0  0  0  0  0  0  0  0  0  0  0  0
    6.6781  -11.9552   15.3541 N   0  0  0  0  0  0  0  0  0  0  0  0
    6.6994  -14.0558   16.3241 N   0  0  0  0  0  0  0  0  0  0  0  0
    7.3297  -15.3299   16.6623 C   0  0  0  0  0  0  0  0  0  0  0  0
    8.4548  -15.0261   17.5873 C   0  0  0  0  0  0  0  0  0  0  0  0
    8.5144  -15.7806   18.8602 C   0  0  0  0  0  0  0  0  0  0  0  0
    9.1661  -15.0334   19.9902 C   0  0  2  0  0  0  0  0  0  0  0  0
    9.8591  -13.8401   19.5612 N   0  0  0  0  0  0  0  0  0  0  0  0
   10.1384  -16.0081   20.6067 C   0  0  0  0  0  0  0  0  0  0  0  0
    9.7186  -17.1410   20.9356 O   0  0  0  0  0  0  0  0  0  0  0  0
    5.7013  -11.9144   15.7536 N   0  0  0  0  0  0  0  0  0  0  0  0
   14.6632  -15.1839   18.9714 C   0  0  0  0  0  0  0  0  0  0  0  0
   14.0343  -16.2915   19.6679 O   0  0  0  0  0  0  0  0  0  0  0  0
   13.7706  -17.2906   18.9759 C   0  0  0  0  0  0  0  0  0  0  0  0
   13.7887  -16.1038   21.0827 C   0  0  2  0  0  0  0  0  0  0  0  0
   12.4145  -16.5052   21.5324 N   0  0  0  0  0  0  0  0  0  0  0  0
   11.4583  -15.6176   20.7862 C   0  0  0  0  0  0  0  0  0  0  0  0
   12.0987  -16.2068   22.9375 O   0  0  0  0  0  0  0  0  0  0  0  0
   12.9646  -15.5439   23.6192 N   0  0  0  0  0  0  0  0  0  0  0  0
    8.7252  -14.3618   27.3515 C   0  0  0  0  0  0  0  0  0  0  0  0
    9.4438  -15.4551   26.8293 O   0  0  0  0  0  0  0  0  0  0  0  0
    9.9514  -16.3140   27.5931 C   0  0  0  0  0  0  0  0  0  0  0  0
    9.5968  -15.5842   25.3637 C   0  0  1  0  0  0  0  0  0  0  0  0
   10.8352  -16.3842   25.0987 N   0  0  0  0  0  0  0  0  0  0  0  0
   10.9302  -16.5708   23.6235 C   0  0  0  0  0  0  0  0  0  0  0  0
   10.7859  -17.7122   25.7519 O   0  0  0  0  0  0  0  0  0  0  0  0
   11.4134  -17.9220   26.9558 O   0  0  0  0  0  0  0  0  0  0  0  0
  1  2  1  0
  2  4  1  0
  3  2  2  0
  4  5  1  0
  5  6  1  0
  7  6  1  0
  8  9  1  6
  8  7  1  0
 10  8  1  0
 10 11  2  0
 13 15  1  0
 13 12  1  0
 14 13  2  0
 16 15  1  6
 16 17  1  0
 16 18  1  0
 17 10  1  0
 18 25  1  0
 19 18  2  0
 20 21  1  0
 21 23  1  0
 22 21  2  0
 24 23  1  6
 24 26  1  0
 25 24  1  0
 26 28  2  0
 26 27  1  0
M  END
$$$$
