RNN.pdb
     RDKit          3D

 28 27  0  0  1  0  0  0  0  0999 V2000
    6.6752  -13.6633   20.3427 N   0  0  0  0  0  0  0  0  0  0  0  0
    7.9361  -13.4020   19.7516 C   0  0  0  0  0  0  0  0  0  0  0  0
    8.4869  -12.2177   19.7386 N   0  0  0  0  0  0  0  0  0  0  0  0
    8.6847  -14.4411   19.1293 N   0  0  0  0  0  0  0  0  0  0  0  0
    8.0669  -15.6669   18.6284 C   0  0  0  0  0  0  0  0  0  0  0  0
    7.4564  -16.3550   19.7978 C   0  0  0  0  0  0  0  0  0  0  0  0
    8.0483  -17.6467   20.2149 C   0  0  0  0  0  0  0  0  0  0  0  0
    7.0622  -18.7784   20.2995 C   0  0  2  0  0  0  0  0  0  0  0  0
    5.9504  -18.6364   19.3874 N   0  0  0  0  0  0  0  0  0  0  0  0
    6.5706  -18.7753   21.7256 C   0  0  0  0  0  0  0  0  0  0  0  0
    5.4116  -18.3609   21.9555 O   0  0  0  0  0  0  0  0  0  0  0  0
    9.3846  -12.1119   19.1922 N   0  0  0  0  0  0  0  0  0  0  0  0
    7.8656  -21.7742   26.7386 C   0  0  0  0  0  0  0  0  0  0  0  0
    6.8846  -21.0599   25.9419 O   0  0  0  0  0  0  0  0  0  0  0  0
    5.8135  -20.7882   26.5123 C   0  0  0  0  0  0  0  0  0  0  0  0
    7.2674  -20.7481   24.5805 C   0  0  2  0  0  0  0  0  0  0  0  0
    6.9140  -19.3580   24.1396 N   0  0  0  0  0  0  0  0  0  0  0  0
    7.4156  -19.2305   22.7286 C   0  0  0  0  0  0  0  0  0  0  0  0
    7.6292  -18.2758   24.8328 O   0  0  0  0  0  0  0  0  0  0  0  0
    7.4041  -18.1163   26.0889 N   0  0  0  0  0  0  0  0  0  0  0  0
    6.3924  -13.9136   24.7472 C   0  0  0  0  0  0  0  0  0  0  0  0
    7.5800  -14.6444   24.5473 O   0  0  0  0  0  0  0  0  0  0  0  0
    8.1870  -14.5957   23.4483 C   0  0  0  0  0  0  0  0  0  0  0  0
    8.1101  -15.4755   25.6502 C   0  0  2  0  0  0  0  0  0  0  0  0
    9.2017  -16.3372   25.0937 N   0  0  0  0  0  0  0  0  0  0  0  0
    8.5509  -17.3866   24.2599 C   0  0  0  0  0  0  0  0  0  0  0  0
    9.9906  -16.9899   26.1635 O   0  0  0  0  0  0  0  0  0  0  0  0
   10.7849  -16.2434   26.9996 O   0  0  0  0  0  0  0  0  0  0  0  0
  1  2  1  0
  2  4  1  0
  3  2  2  0
  4  5  1  0
  5  6  1  0
  7  6  1  0
  8  9  1  6
  8  7  1  0
 10  8  1  0
 10 11  2  0
 13 15  1  0
 13 12  1  0
 14 13  2  0
 16 15  1  6
 16 17  1  0
 16 18  1  0
 17 10  1  0
 18 25  1  0
 19 18  2  0
 20 21  1  0
 21 23  1  0
 22 21  2  0
 24 23  1  6
 24 26  1  0
 25 24  1  0
 26 28  2  0
 26 27  1  0
M  END
$$$$
