RNN.pdb
     RDKit          3D

 28 27  0  0  1  0  0  0  0  0999 V2000
    7.3126  -13.0967   16.3226 N   0  0  0  0  0  0  0  0  0  0  0  0
    7.9118  -12.8395   17.5805 C   0  0  0  0  0  0  0  0  0  0  0  0
    7.5871  -11.8213   18.3313 N   0  0  0  0  0  0  0  0  0  0  0  0
    8.9202  -13.6986   18.1027 N   0  0  0  0  0  0  0  0  0  0  0  0
    8.9351  -14.1419   19.4950 C   0  0  0  0  0  0  0  0  0  0  0  0
    7.5198  -14.3681   19.8942 C   0  0  0  0  0  0  0  0  0  0  0  0
    7.2618  -14.7662   21.2970 C   0  0  0  0  0  0  0  0  0  0  0  0
    8.3329  -15.6321   21.8994 C   0  0  2  0  0  0  0  0  0  0  0  0
    8.5286  -16.8754   21.1893 N   0  0  0  0  0  0  0  0  0  0  0  0
    7.8803  -15.9042   23.3124 C   0  0  0  0  0  0  0  0  0  0  0  0
    7.4354  -14.9497   23.9898 O   0  0  0  0  0  0  0  0  0  0  0  0
    8.0868  -11.7289   19.2571 N   0  0  0  0  0  0  0  0  0  0  0  0
    6.6694  -18.3603   27.6172 C   0  0  0  0  0  0  0  0  0  0  0  0
    6.9233  -19.3961   26.6324 O   0  0  0  0  0  0  0  0  0  0  0  0
    6.6654  -20.5598   26.9871 C   0  0  0  0  0  0  0  0  0  0  0  0
    7.4454  -18.9542   25.3559 C   0  0  2  0  0  0  0  0  0  0  0  0
    7.6681  -17.4736   25.2558 N   0  0  0  0  0  0  0  0  0  0  0  0
    7.9715  -17.1969   23.8100 C   0  0  0  0  0  0  0  0  0  0  0  0
    8.8697  -16.9691   25.9376 O   0  0  0  0  0  0  0  0  0  0  0  0
    9.2389  -15.7627   25.6884 N   0  0  0  0  0  0  0  0  0  0  0  0
    9.6335  -13.6658   27.6000 C   0  0  0  0  0  0  0  0  0  0  0  0
    9.8449  -14.6829   28.5515 O   0  0  0  0  0  0  0  0  0  0  0  0
   10.6573  -14.5202   29.4960 C   0  0  0  0  0  0  0  0  0  0  0  0
    9.0969  -15.9531   28.4282 C   0  0  2  0  0  0  0  0  0  0  0  0
   10.0830  -17.0414   28.1334 N   0  0  0  0  0  0  0  0  0  0  0  0
    9.6669  -17.6755   26.8508 C   0  0  0  0  0  0  0  0  0  0  0  0
   10.1045  -18.0712   29.1972 O   0  0  0  0  0  0  0  0  0  0  0  0
   11.2334  -18.2690   29.9548 O   0  0  0  0  0  0  0  0  0  0  0  0
  1  2  1  0
  2  4  1  0
  3  2  2  0
  4  5  1  0
  5  6  1  0
  7  6  1  0
  8  9  1  6
  8  7  1  0
 10  8  1  0
 10 11  2  0
 13 15  1  0
 13 12  1  0
 14 13  2  0
 16 15  1  6
 16 17  1  0
 16 18  1  0
 17 10  1  0
 18 25  1  0
 19 18  2  0
 20 21  1  0
 21 23  1  0
 22 21  2  0
 24 23  1  6
 24 26  1  0
 25 24  1  0
 26 28  2  0
 26 27  1  0
M  END
$$$$
