RNN.pdb
     RDKit          3D

 28 27  0  0  1  0  0  0  0  0999 V2000
    7.2952  -13.6493   20.3820 N   0  0  0  0  0  0  0  0  0  0  0  0
    8.5172  -13.2848   19.7647 C   0  0  0  0  0  0  0  0  0  0  0  0
    9.5447  -12.8284   20.4295 N   0  0  0  0  0  0  0  0  0  0  0  0
    8.6919  -13.4017   18.3564 N   0  0  0  0  0  0  0  0  0  0  0  0
    7.9049  -14.3211   17.5377 C   0  0  0  0  0  0  0  0  0  0  0  0
    8.8051  -15.4427   17.1564 C   0  0  0  0  0  0  0  0  0  0  0  0
    8.2057  -16.7926   17.0495 C   0  0  0  0  0  0  0  0  0  0  0  0
    8.4984  -17.6917   18.2183 C   0  0  2  0  0  0  0  0  0  0  0  0
    8.1552  -17.1023   19.4923 N   0  0  0  0  0  0  0  0  0  0  0  0
    9.9805  -17.9646   18.1522 C   0  0  0  0  0  0  0  0  0  0  0  0
   10.5030  -18.1487   17.0293 O   0  0  0  0  0  0  0  0  0  0  0  0
   10.3369  -12.4165   19.8654 N   0  0  0  0  0  0  0  0  0  0  0  0
   13.9867  -15.1944   18.4842 C   0  0  0  0  0  0  0  0  0  0  0  0
   12.6320  -14.8349   18.8623 O   0  0  0  0  0  0  0  0  0  0  0  0
   12.4707  -13.6706   19.2685 C   0  0  0  0  0  0  0  0  0  0  0  0
   11.6300  -15.8712   18.7223 C   0  0  1  0  0  0  0  0  0  0  0  0
   11.9159  -17.1201   19.5035 N   0  0  0  0  0  0  0  0  0  0  0  0
   10.7102  -18.0010   19.3326 C   0  0  0  0  0  0  0  0  0  0  0  0
   11.9837  -16.9494   20.9627 O   0  0  0  0  0  0  0  0  0  0  0  0
   12.9860  -16.3040   21.4453 N   0  0  0  0  0  0  0  0  0  0  0  0
    7.8553  -16.0735   22.8579 C   0  0  0  0  0  0  0  0  0  0  0  0
    9.1934  -15.8998   23.2628 O   0  0  0  0  0  0  0  0  0  0  0  0
    9.7981  -14.8219   23.0371 C   0  0  0  0  0  0  0  0  0  0  0  0
    9.8853  -17.0054   23.9608 C   0  0  2  0  0  0  0  0  0  0  0  0
   11.2464  -17.1533   23.3530 N   0  0  0  0  0  0  0  0  0  0  0  0
   11.0519  -17.4200   21.9000 C   0  0  0  0  0  0  0  0  0  0  0  0
   12.0012  -18.2766   23.9540 O   0  0  0  0  0  0  0  0  0  0  0  0
   12.5570  -18.1545   25.2045 O   0  0  0  0  0  0  0  0  0  0  0  0
  1  2  1  0
  2  4  1  0
  3  2  2  0
  4  5  1  0
  5  6  1  0
  7  6  1  0
  8  9  1  1
  8  7  1  0
 10  8  1  0
 10 11  2  0
 13 15  1  0
 13 12  1  0
 14 13  2  0
 16 15  1  6
 16 17  1  0
 16 18  1  0
 17 10  1  0
 18 25  1  0
 19 18  2  0
 20 21  1  0
 21 23  1  0
 22 21  2  0
 24 23  1  6
 24 26  1  0
 25 24  1  0
 26 28  2  0
 26 27  1  0
M  END
$$$$
