RNN.pdb
     RDKit          3D

 28 27  0  0  1  0  0  0  0  0999 V2000
    8.5449  -14.9233   17.2301 N   0  0  0  0  0  0  0  0  0  0  0  0
    7.6622  -13.8641   16.9036 C   0  0  0  0  0  0  0  0  0  0  0  0
    7.3134  -13.5774   15.6780 N   0  0  0  0  0  0  0  0  0  0  0  0
    7.0964  -13.0408   17.9183 N   0  0  0  0  0  0  0  0  0  0  0  0
    7.5763  -13.0479   19.2985 C   0  0  0  0  0  0  0  0  0  0  0  0
    6.9725  -14.2346   19.9624 C   0  0  0  0  0  0  0  0  0  0  0  0
    7.3405  -14.4873   21.3743 C   0  0  0  0  0  0  0  0  0  0  0  0
    8.5056  -15.4209   21.5505 C   0  0  2  0  0  0  0  0  0  0  0  0
    8.2154  -16.7785   21.1496 N   0  0  0  0  0  0  0  0  0  0  0  0
    8.8397  -15.3713   23.0207 C   0  0  0  0  0  0  0  0  0  0  0  0
    9.0620  -14.2556   23.5439 O   0  0  0  0  0  0  0  0  0  0  0  0
    6.6679  -12.7524   15.5433 N   0  0  0  0  0  0  0  0  0  0  0  0
    6.2318  -16.2617   25.1839 C   0  0  0  0  0  0  0  0  0  0  0  0
    6.9474  -17.5231   25.2481 O   0  0  0  0  0  0  0  0  0  0  0  0
    6.3584  -18.5083   24.7695 C   0  0  0  0  0  0  0  0  0  0  0  0
    8.2595  -17.4864   25.8599 C   0  0  2  0  0  0  0  0  0  0  0  0
    9.2235  -16.5419   25.2040 N   0  0  0  0  0  0  0  0  0  0  0  0
    8.8880  -16.5581   23.7391 C   0  0  0  0  0  0  0  0  0  0  0  0
   10.6309  -16.9690   25.2151 O   0  0  0  0  0  0  0  0  0  0  0  0
   11.1920  -17.1564   26.3570 N   0  0  0  0  0  0  0  0  0  0  0  0
   15.2164  -19.6575   24.7705 C   0  0  0  0  0  0  0  0  0  0  0  0
   14.6465  -19.0039   23.6603 O   0  0  0  0  0  0  0  0  0  0  0  0
   15.3659  -18.6060   22.7102 C   0  0  0  0  0  0  0  0  0  0  0  0
   13.1835  -18.7885   23.6225 C   0  0  1  0  0  0  0  0  0  0  0  0
   12.8970  -17.4613   24.2553 N   0  0  0  0  0  0  0  0  0  0  0  0
   11.4387  -17.2026   24.0921 C   0  0  0  0  0  0  0  0  0  0  0  0
   13.6575  -16.3660   23.6115 O   0  0  0  0  0  0  0  0  0  0  0  0
   13.1255  -15.6777   22.5482 O   0  0  0  0  0  0  0  0  0  0  0  0
  1  2  1  0
  2  4  1  0
  3  2  2  0
  4  5  1  0
  5  6  1  0
  7  6  1  0
  8  9  1  1
  8  7  1  0
 10  8  1  0
 10 11  2  0
 13 15  1  0
 13 12  1  0
 14 13  2  0
 16 15  1  1
 16 17  1  0
 16 18  1  0
 17 10  1  0
 18 25  1  0
 19 18  2  0
 20 21  1  0
 21 23  1  0
 22 21  2  0
 24 23  1  1
 24 26  1  0
 25 24  1  0
 26 28  2  0
 26 27  1  0
M  END
$$$$
