RNN.pdb
     RDKit          3D

 28 27  0  0  1  0  0  0  0  0999 V2000
    8.3860  -11.8289   20.6531 N   0  0  0  0  0  0  0  0  0  0  0  0
    8.6451  -12.9752   19.8618 C   0  0  0  0  0  0  0  0  0  0  0  0
    9.8143  -13.5545   19.8054 N   0  0  0  0  0  0  0  0  0  0  0  0
    7.6202  -13.5685   19.0711 N   0  0  0  0  0  0  0  0  0  0  0  0
    7.6797  -14.9551   18.6140 C   0  0  0  0  0  0  0  0  0  0  0  0
    7.4356  -15.8154   19.8031 C   0  0  0  0  0  0  0  0  0  0  0  0
    7.4878  -17.2822   19.6063 C   0  0  0  0  0  0  0  0  0  0  0  0
    8.7353  -17.7689   18.9230 C   0  0  2  0  0  0  0  0  0  0  0  0
    8.5038  -18.2329   17.5742 N   0  0  0  0  0  0  0  0  0  0  0  0
    9.2481  -18.8978   19.7822 C   0  0  0  0  0  0  0  0  0  0  0  0
    8.5180  -19.3218   20.7069 O   0  0  0  0  0  0  0  0  0  0  0  0
    9.8821  -14.4450   19.2415 N   0  0  0  0  0  0  0  0  0  0  0  0
   10.0828  -23.1609   19.4581 C   0  0  0  0  0  0  0  0  0  0  0  0
   11.0212  -22.3627   18.6903 O   0  0  0  0  0  0  0  0  0  0  0  0
   11.0345  -22.5678   17.4638 C   0  0  0  0  0  0  0  0  0  0  0  0
   11.8293  -21.4238   19.4403 C   0  0  2  0  0  0  0  0  0  0  0  0
   11.0508  -20.5383   20.3684 N   0  0  0  0  0  0  0  0  0  0  0  0
   10.5048  -19.4253   19.5187 C   0  0  0  0  0  0  0  0  0  0  0  0
   11.8506  -19.8150   21.3686 O   0  0  0  0  0  0  0  0  0  0  0  0
   12.4837  -20.5094   22.2466 N   0  0  0  0  0  0  0  0  0  0  0  0
   12.1899  -17.9396   25.8620 C   0  0  0  0  0  0  0  0  0  0  0  0
   11.7614  -17.0200   24.8847 O   0  0  0  0  0  0  0  0  0  0  0  0
   11.7779  -15.7848   25.1138 C   0  0  0  0  0  0  0  0  0  0  0  0
   11.2885  -17.5247   23.5770 C   0  0  2  0  0  0  0  0  0  0  0  0
   12.4913  -17.8062   22.7298 N   0  0  0  0  0  0  0  0  0  0  0  0
   12.0027  -18.4236   21.4648 C   0  0  0  0  0  0  0  0  0  0  0  0
   13.4288  -18.7407   23.3934 O   0  0  0  0  0  0  0  0  0  0  0  0
   14.6399  -18.2966   23.8659 O   0  0  0  0  0  0  0  0  0  0  0  0
  1  2  1  0
  2  4  1  0
  3  2  2  0
  4  5  1  0
  5  6  1  0
  7  6  1  0
  8  9  1  6
  8  7  1  0
 10  8  1  0
 10 11  2  0
 13 15  1  0
 13 12  1  0
 14 13  2  0
 16 15  1  6
 16 17  1  0
 16 18  1  0
 17 10  1  0
 18 25  1  0
 19 18  2  0
 20 21  1  0
 21 23  1  0
 22 21  2  0
 24 23  1  6
 24 26  1  0
 25 24  1  0
 26 28  2  0
 26 27  1  0
M  END
$$$$
