RNN.pdb
     RDKit          3D

 28 27  0  0  1  0  0  0  0  0999 V2000
   10.0693  -13.0291   20.0883 N   0  0  0  0  0  0  0  0  0  0  0  0
    8.9993  -12.2943   19.5205 C   0  0  0  0  0  0  0  0  0  0  0  0
    8.6627  -11.0977   19.9218 N   0  0  0  0  0  0  0  0  0  0  0  0
    8.2198  -12.8344   18.4583 N   0  0  0  0  0  0  0  0  0  0  0  0
    8.5190  -14.1223   17.8364 C   0  0  0  0  0  0  0  0  0  0  0  0
    8.2203  -15.1727   18.8469 C   0  0  0  0  0  0  0  0  0  0  0  0
    8.4741  -16.5803   18.4635 C   0  0  0  0  0  0  0  0  0  0  0  0
    9.6684  -16.7705   17.5704 C   0  0  2  0  0  0  0  0  0  0  0  0
    9.3237  -17.2399   16.2479 N   0  0  0  0  0  0  0  0  0  0  0  0
   10.5368  -17.7839   18.2736 C   0  0  0  0  0  0  0  0  0  0  0  0
   10.6312  -18.9314   17.7815 O   0  0  0  0  0  0  0  0  0  0  0  0
    7.8061  -10.6664   19.4794 N   0  0  0  0  0  0  0  0  0  0  0  0
   13.8310  -13.6244   18.8094 C   0  0  0  0  0  0  0  0  0  0  0  0
   13.6883  -14.9251   18.1807 O   0  0  0  0  0  0  0  0  0  0  0  0
   14.6512  -15.3054   17.4917 C   0  0  0  0  0  0  0  0  0  0  0  0
   12.4452  -15.6252   18.4291 C   0  0  2  0  0  0  0  0  0  0  0  0
   12.5676  -16.7949   19.3611 N   0  0  0  0  0  0  0  0  0  0  0  0
   11.1986  -17.4108   19.4354 C   0  0  0  0  0  0  0  0  0  0  0  0
   12.8430  -16.4560   20.7656 O   0  0  0  0  0  0  0  0  0  0  0  0
   13.9744  -15.9095   21.0400 N   0  0  0  0  0  0  0  0  0  0  0  0
   11.1001  -17.4584   26.5619 C   0  0  0  0  0  0  0  0  0  0  0  0
   11.9433  -16.9582   25.5504 O   0  0  0  0  0  0  0  0  0  0  0  0
   13.1410  -16.6695   25.7969 C   0  0  0  0  0  0  0  0  0  0  0  0
   11.4027  -16.7744   24.1857 C   0  0  2  0  0  0  0  0  0  0  0  0
   12.5427  -16.8838   23.2202 N   0  0  0  0  0  0  0  0  0  0  0  0
   11.9852  -16.6647   21.8559 C   0  0  0  0  0  0  0  0  0  0  0  0
   13.1850  -18.2170   23.2718 O   0  0  0  0  0  0  0  0  0  0  0  0
   14.4416  -18.3664   23.8064 O   0  0  0  0  0  0  0  0  0  0  0  0
  1  2  1  0
  2  4  1  0
  3  2  2  0
  4  5  1  0
  5  6  1  0
  7  6  1  0
  8  9  1  6
  8  7  1  0
 10  8  1  0
 10 11  2  0
 13 15  1  0
 13 12  1  0
 14 13  2  0
 16 15  1  6
 16 17  1  0
 16 18  1  0
 17 10  1  0
 18 25  1  0
 19 18  2  0
 20 21  1  0
 21 23  1  0
 22 21  2  0
 24 23  1  1
 24 26  1  0
 25 24  1  0
 26 28  2  0
 26 27  1  0
M  END
$$$$
