AYE.pdb
     RDKit          3D

 27 27  0  0  1  0  0  0  0  0999 V2000
   26.7447  -20.2316  -17.8412 C   0  0  0  0  0  0  0  0  0  0  0  0
   27.5137  -20.6941  -16.6245 C   0  0  2  0  0  0  0  0  0  0  0  0
   28.1925  -21.9198  -16.9833 N   0  0  0  0  0  0  0  0  0  0  0  0
   26.6594  -20.9405  -15.4637 C   0  0  0  0  0  0  0  0  0  0  0  0
   26.1352  -22.0784  -15.3306 O   0  0  0  0  0  0  0  0  0  0  0  0
   31.1047  -22.0699  -10.7134 O   0  0  0  0  0  0  0  0  0  0  0  0
   29.8820  -21.5181  -11.0274 C   0  0  0  0  0  0  0  0  0  0  0  0
   29.8178  -20.5369  -12.0160 C   0  0  0  0  0  0  0  0  0  0  0  0
   28.6044  -19.9704  -12.3468 C   0  0  0  0  0  0  0  0  0  0  0  0
   27.4793  -20.4035  -11.6753 C   0  0  0  0  0  0  0  0  0  0  0  0
   26.1900  -19.8064  -12.0220 C   0  0  0  0  0  0  0  0  0  0  0  0
   25.6111  -20.3481  -13.3075 C   0  0  2  0  0  0  0  0  0  0  0  0
   26.3745  -19.9766  -14.4626 N   0  0  0  0  0  0  0  0  0  0  0  0
   24.1976  -19.8754  -13.4771 C   0  0  0  0  0  0  0  0  0  0  0  0
   23.9580  -18.6783  -13.6830 O   0  0  0  0  0  0  0  0  0  0  0  0
   27.5355  -21.3842  -10.6857 C   0  0  0  0  0  0  0  0  0  0  0  0
   28.7526  -21.9454  -10.3609 C   0  0  0  0  0  0  0  0  0  0  0  0
   23.1262  -20.7933  -13.4034 N   0  0  0  0  0  0  0  0  0  0  0  0
   21.7339  -20.4364  -13.4983 C   0  0  1  0  0  0  0  0  0  0  0  0
   21.1405  -21.2820  -14.6325 C   0  0  0  0  0  0  0  0  0  0  0  0
   22.1805  -22.3437  -14.9605 C   0  0  0  0  0  0  0  0  0  0  0  0
   21.7243  -23.2209  -16.0557 C   0  0  0  0  0  0  0  0  0  0  0  0
   21.5187  -24.4328  -15.8403 O   0  0  0  0  0  0  0  0  0  0  0  0
   21.0490  -20.6815  -12.2283 C   0  0  0  0  0  0  0  0  0  0  0  0
   19.7417  -20.2740  -12.0471 O   0  0  0  0  0  0  0  0  0  0  0  0
   21.5281  -22.6930  -17.3127 O   0  0  0  0  0  0  0  0  0  0  0  0
   21.6500  -21.2648  -11.2972 O   0  0  0  0  0  0  0  0  0  0  0  0
  2  1  1  6
  2  4  1  0
  3  2  1  0
  4 13  1  0
  5  4  2  0
  7  6  1  0
  8  7  2  0
  9  8  1  0
 10 16  1  0
 10  9  2  0
 11 10  1  0
 12 14  1  0
 12 11  1  1
 13 12  1  0
 14 15  2  0
 16 17  2  0
 17  7  1  0
 18 19  1  0
 18 14  1  0
 19 20  1  6
 20 21  1  0
 21 22  1  0
 22 23  2  0
 22 26  1  0
 24 25  1  0
 24 19  1  0
 27 24  2  0
M  END
$$$$
