AYE.pdb
     RDKit          3D

 27 27  0  0  1  0  0  0  0  0999 V2000
   22.5006  -11.6583  -19.5557 C   0  0  0  0  0  0  0  0  0  0  0  0
   23.7388  -12.0080  -18.7618 C   0  0  2  0  0  0  0  0  0  0  0  0
   23.6700  -13.4196  -18.4546 N   0  0  0  0  0  0  0  0  0  0  0  0
   23.8562  -11.2508  -17.5165 C   0  0  0  0  0  0  0  0  0  0  0  0
   23.1456  -11.5915  -16.5335 O   0  0  0  0  0  0  0  0  0  0  0  0
   29.4031  -13.4894  -17.2704 O   0  0  0  0  0  0  0  0  0  0  0  0
   28.5688  -12.5039  -16.7902 C   0  0  0  0  0  0  0  0  0  0  0  0
   28.4231  -11.3263  -17.5224 C   0  0  0  0  0  0  0  0  0  0  0  0
   27.5930  -10.3261  -17.0607 C   0  0  0  0  0  0  0  0  0  0  0  0
   26.9259  -10.5317  -15.8703 C   0  0  0  0  0  0  0  0  0  0  0  0
   26.0444   -9.4744  -15.3760 C   0  0  0  0  0  0  0  0  0  0  0  0
   24.7163   -9.4248  -16.0935 C   0  0  2  0  0  0  0  0  0  0  0  0
   24.7252  -10.1446  -17.3332 N   0  0  0  0  0  0  0  0  0  0  0  0
   24.3220   -8.0008  -16.3525 C   0  0  0  0  0  0  0  0  0  0  0  0
   24.6936   -7.4258  -17.3841 O   0  0  0  0  0  0  0  0  0  0  0  0
   27.0664  -11.7064  -15.1325 C   0  0  0  0  0  0  0  0  0  0  0  0
   27.8983  -12.7015  -15.6011 C   0  0  0  0  0  0  0  0  0  0  0  0
   23.5222   -7.3026  -15.4205 N   0  0  0  0  0  0  0  0  0  0  0  0
   22.9224   -6.0148  -15.6583 C   0  0  1  0  0  0  0  0  0  0  0  0
   22.0018   -6.1775  -16.8747 C   0  0  0  0  0  0  0  0  0  0  0  0
   21.3617   -4.8166  -17.1087 C   0  0  0  0  0  0  0  0  0  0  0  0
   20.3818   -4.8673  -18.2107 C   0  0  0  0  0  0  0  0  0  0  0  0
   20.7549   -5.1618  -19.3646 O   0  0  0  0  0  0  0  0  0  0  0  0
   22.1825   -5.5626  -14.4792 C   0  0  0  0  0  0  0  0  0  0  0  0
   21.9112   -4.2210  -14.2942 O   0  0  0  0  0  0  0  0  0  0  0  0
   19.0573   -4.5879  -17.9561 O   0  0  0  0  0  0  0  0  0  0  0  0
   21.7912   -6.3959  -13.6301 O   0  0  0  0  0  0  0  0  0  0  0  0
  2  1  1  1
  2  4  1  0
  3  2  1  0
  4 13  1  0
  5  4  2  0
  7  6  1  0
  8  7  2  0
  9  8  1  0
 10 16  1  0
 10  9  2  0
 11 10  1  0
 12 14  1  0
 12 11  1  6
 13 12  1  0
 14 15  2  0
 16 17  2  0
 17  7  1  0
 18 19  1  0
 18 14  1  0
 19 20  1  6
 20 21  1  0
 21 22  1  0
 22 23  2  0
 22 26  1  0
 24 25  1  0
 24 19  1  0
 27 24  2  0
M  END
$$$$
