AYE.pdb
     RDKit          3D

 27 27  0  0  1  0  0  0  0  0999 V2000
   26.2024  -33.0294   -3.5543 C   0  0  0  0  0  0  0  0  0  0  0  0
   26.7911  -33.6545   -4.7987 C   0  0  2  0  0  0  0  0  0  0  0  0
   25.8040  -34.5678   -5.3310 N   0  0  0  0  0  0  0  0  0  0  0  0
   28.0321  -34.3843   -4.5436 C   0  0  0  0  0  0  0  0  0  0  0  0
   27.9666  -35.6166   -4.2897 O   0  0  0  0  0  0  0  0  0  0  0  0
   36.0838  -37.5040   -4.4342 O   0  0  0  0  0  0  0  0  0  0  0  0
   35.0011  -36.6636   -4.5730 C   0  0  0  0  0  0  0  0  0  0  0  0
   34.8944  -35.5555   -3.7334 C   0  0  0  0  0  0  0  0  0  0  0  0
   33.8188  -34.7004   -3.8544 C   0  0  0  0  0  0  0  0  0  0  0  0
   32.8717  -34.9783   -4.8188 C   0  0  0  0  0  0  0  0  0  0  0  0
   31.7291  -34.0750   -4.9516 C   0  0  0  0  0  0  0  0  0  0  0  0
   30.4788  -34.5969   -4.2841 C   0  0  2  0  0  0  0  0  0  0  0  0
   29.3229  -33.7959   -4.5619 N   0  0  0  0  0  0  0  0  0  0  0  0
   30.6800  -34.6750   -2.7996 C   0  0  0  0  0  0  0  0  0  0  0  0
   30.5892  -33.6570   -2.1008 O   0  0  0  0  0  0  0  0  0  0  0  0
   32.9715  -36.0842   -5.6621 C   0  0  0  0  0  0  0  0  0  0  0  0
   34.0500  -36.9343   -5.5346 C   0  0  0  0  0  0  0  0  0  0  0  0
   30.9751  -35.9124   -2.1852 N   0  0  0  0  0  0  0  0  0  0  0  0
   31.2364  -36.0873   -0.7795 C   0  0  1  0  0  0  0  0  0  0  0  0
   30.2007  -37.0941   -0.2626 C   0  0  0  0  0  0  0  0  0  0  0  0
   29.0399  -36.2710    0.2772 C   0  0  0  0  0  0  0  0  0  0  0  0
   28.0429  -37.1262    0.9494 C   0  0  0  0  0  0  0  0  0  0  0  0
   27.0546  -36.6102    1.5100 O   0  0  0  0  0  0  0  0  0  0  0  0
   32.6039  -36.5614   -0.5622 C   0  0  0  0  0  0  0  0  0  0  0  0
   33.2395  -37.3295   -1.5181 O   0  0  0  0  0  0  0  0  0  0  0  0
   28.2117  -38.4932    0.9529 O   0  0  0  0  0  0  0  0  0  0  0  0
   33.2048  -36.2701    0.4973 O   0  0  0  0  0  0  0  0  0  0  0  0
  2  1  1  1
  2  4  1  0
  3  2  1  0
  4 13  1  0
  5  4  2  0
  7  6  1  0
  8  7  2  0
  9  8  1  0
 10 16  1  0
 10  9  2  0
 11 10  1  0
 12 14  1  0
 12 11  1  6
 13 12  1  0
 14 15  2  0
 16 17  2  0
 17  7  1  0
 18 19  1  0
 18 14  1  0
 19 20  1  6
 20 21  1  0
 21 22  1  0
 22 23  2  0
 22 26  1  0
 24 25  1  0
 24 19  1  0
 27 24  2  0
M  END
$$$$
