AYE.pdb
     RDKit          3D

 27 27  0  0  1  0  0  0  0  0999 V2000
   18.4664  -10.7272  -17.7237 C   0  0  0  0  0  0  0  0  0  0  0  0
   19.4576  -10.7752  -16.5831 C   0  0  2  0  0  0  0  0  0  0  0  0
   19.1926  -11.9821  -15.8316 N   0  0  0  0  0  0  0  0  0  0  0  0
   19.3616   -9.6222  -15.6891 C   0  0  0  0  0  0  0  0  0  0  0  0
   18.4043   -9.5700  -14.8717 O   0  0  0  0  0  0  0  0  0  0  0  0
   26.2374   -8.6450  -16.0555 O   0  0  0  0  0  0  0  0  0  0  0  0
   25.0195   -8.3901  -15.4640 C   0  0  0  0  0  0  0  0  0  0  0  0
   24.4979   -7.0983  -15.5219 C   0  0  0  0  0  0  0  0  0  0  0  0
   23.2802   -6.8201  -14.9366 C   0  0  0  0  0  0  0  0  0  0  0  0
   22.6118   -7.8487  -14.3045 C   0  0  0  0  0  0  0  0  0  0  0  0
   21.3202   -7.5594  -13.6821 C   0  0  0  0  0  0  0  0  0  0  0  0
   20.1789   -7.5260  -14.6708 C   0  0  2  0  0  0  0  0  0  0  0  0
   20.2822   -8.5429  -15.6759 N   0  0  0  0  0  0  0  0  0  0  0  0
   20.1089   -6.1821  -15.3338 C   0  0  0  0  0  0  0  0  0  0  0  0
   20.8069   -5.9363  -16.3264 O   0  0  0  0  0  0  0  0  0  0  0  0
   23.1269   -9.1429  -14.2425 C   0  0  0  0  0  0  0  0  0  0  0  0
   24.3450   -9.4127  -14.8302 C   0  0  0  0  0  0  0  0  0  0  0  0
   19.2449   -5.1841  -14.8306 N   0  0  0  0  0  0  0  0  0  0  0  0
   19.0541   -3.8880  -15.4293 C   0  0  1  0  0  0  0  0  0  0  0  0
   18.0242   -4.0703  -16.5516 C   0  0  0  0  0  0  0  0  0  0  0  0
   18.8104   -4.0691  -17.8548 C   0  0  0  0  0  0  0  0  0  0  0  0
   18.7325   -2.7578  -18.5268 C   0  0  0  0  0  0  0  0  0  0  0  0
   18.1462   -1.8061  -17.9721 O   0  0  0  0  0  0  0  0  0  0  0  0
   18.5982   -2.9189  -14.4318 C   0  0  0  0  0  0  0  0  0  0  0  0
   18.5544   -1.5716  -14.7325 O   0  0  0  0  0  0  0  0  0  0  0  0
   19.3101   -2.5938  -19.7664 O   0  0  0  0  0  0  0  0  0  0  0  0
   18.2445   -3.3112  -13.2962 O   0  0  0  0  0  0  0  0  0  0  0  0
  2  1  1  6
  2  4  1  0
  3  2  1  0
  4 13  1  0
  5  4  2  0
  7  6  1  0
  8  7  2  0
  9  8  1  0
 10 16  1  0
 10  9  2  0
 11 10  1  0
 12 14  1  0
 12 11  1  1
 13 12  1  0
 14 15  2  0
 16 17  2  0
 17  7  1  0
 18 19  1  0
 18 14  1  0
 19 20  1  6
 20 21  1  0
 21 22  1  0
 22 23  2  0
 22 26  1  0
 24 25  1  0
 24 19  1  0
 27 24  2  0
M  END
$$$$
