AYE.pdb
     RDKit          3D

 27 27  0  0  1  0  0  0  0  0999 V2000
   27.6902  -23.4795  -17.9331 C   0  0  0  0  0  0  0  0  0  0  0  0
   28.9665  -24.2891  -17.8960 C   0  0  2  0  0  0  0  0  0  0  0  0
   29.7468  -23.9178  -19.0558 N   0  0  0  0  0  0  0  0  0  0  0  0
   28.7327  -25.7322  -17.9166 C   0  0  0  0  0  0  0  0  0  0  0  0
   28.5069  -26.2916  -19.0227 O   0  0  0  0  0  0  0  0  0  0  0  0
   27.9462  -34.2118  -16.1692 O   0  0  0  0  0  0  0  0  0  0  0  0
   28.2972  -32.8798  -16.1438 C   0  0  0  0  0  0  0  0  0  0  0  0
   27.7674  -32.0608  -15.1474 C   0  0  0  0  0  0  0  0  0  0  0  0
   28.1049  -30.7241  -15.1025 C   0  0  0  0  0  0  0  0  0  0  0  0
   28.9695  -30.2385  -16.0623 C   0  0  0  0  0  0  0  0  0  0  0  0
   29.3308  -28.8219  -16.0195 C   0  0  0  0  0  0  0  0  0  0  0  0
   28.4440  -27.9566  -16.8832 C   0  0  2  0  0  0  0  0  0  0  0  0
   28.7421  -26.5595  -16.7641 N   0  0  0  0  0  0  0  0  0  0  0  0
   27.0027  -28.1851  -16.5356 C   0  0  0  0  0  0  0  0  0  0  0  0
   26.5293  -27.7203  -15.4902 O   0  0  0  0  0  0  0  0  0  0  0  0
   29.5033  -31.0512  -17.0616 C   0  0  0  0  0  0  0  0  0  0  0  0
   29.1609  -32.3866  -17.0994 C   0  0  0  0  0  0  0  0  0  0  0  0
   26.1720  -28.9336  -17.3991 N   0  0  0  0  0  0  0  0  0  0  0  0
   24.7774  -29.2050  -17.1622 C   0  0  1  0  0  0  0  0  0  0  0  0
   23.9956  -28.4777  -18.2638 C   0  0  0  0  0  0  0  0  0  0  0  0
   24.4407  -29.0969  -19.5809 C   0  0  0  0  0  0  0  0  0  0  0  0
   24.3017  -28.1414  -20.6967 C   0  0  0  0  0  0  0  0  0  0  0  0
   25.2424  -27.9797  -21.5007 O   0  0  0  0  0  0  0  0  0  0  0  0
   24.5200  -30.6457  -17.1803 C   0  0  0  0  0  0  0  0  0  0  0  0
   23.3500  -31.1552  -16.6519 O   0  0  0  0  0  0  0  0  0  0  0  0
   23.1299  -27.4324  -20.8426 O   0  0  0  0  0  0  0  0  0  0  0  0
   25.3650  -31.4248  -17.6777 O   0  0  0  0  0  0  0  0  0  0  0  0
  2  1  1  6
  2  4  1  0
  3  2  1  0
  4 13  1  0
  5  4  2  0
  7  6  1  0
  8  7  2  0
  9  8  1  0
 10 16  1  0
 10  9  2  0
 11 10  1  0
 12 14  1  0
 12 11  1  1
 13 12  1  0
 14 15  2  0
 16 17  2  0
 17  7  1  0
 18 19  1  0
 18 14  1  0
 19 20  1  6
 20 21  1  0
 21 22  1  0
 22 23  2  0
 22 26  1  0
 24 25  1  0
 24 19  1  0
 27 24  2  0
M  END
$$$$
