AYE.pdb
     RDKit          3D

 27 27  0  0  1  0  0  0  0  0999 V2000
   27.2356  -19.6596  -19.2130 C   0  0  0  0  0  0  0  0  0  0  0  0
   28.1163  -20.4170  -18.2454 C   0  0  2  0  0  0  0  0  0  0  0  0
   28.4856  -21.6621  -18.8820 N   0  0  0  0  0  0  0  0  0  0  0  0
   27.4569  -20.7057  -16.9727 C   0  0  0  0  0  0  0  0  0  0  0  0
   26.7663  -21.7550  -16.8749 O   0  0  0  0  0  0  0  0  0  0  0  0
   24.9593  -21.1857   -8.6685 O   0  0  0  0  0  0  0  0  0  0  0  0
   25.5682  -20.7838   -9.8371 C   0  0  0  0  0  0  0  0  0  0  0  0
   26.6315  -21.5345  -10.3373 C   0  0  0  0  0  0  0  0  0  0  0  0
   27.2562  -21.1509  -11.5058 C   0  0  0  0  0  0  0  0  0  0  0  0
   26.7976  -20.0185  -12.1475 C   0  0  0  0  0  0  0  0  0  0  0  0
   27.4562  -19.6071  -13.3869 C   0  0  0  0  0  0  0  0  0  0  0  0
   26.8685  -20.2585  -14.6163 C   0  0  2  0  0  0  0  0  0  0  0  0
   27.5400  -19.8773  -15.8241 N   0  0  0  0  0  0  0  0  0  0  0  0
   25.4118  -19.9201  -14.7337 C   0  0  0  0  0  0  0  0  0  0  0  0
   25.0585  -18.8093  -15.1510 O   0  0  0  0  0  0  0  0  0  0  0  0
   25.7350  -19.2628  -11.6536 C   0  0  0  0  0  0  0  0  0  0  0  0
   25.1159  -19.6532  -10.4847 C   0  0  0  0  0  0  0  0  0  0  0  0
   24.4291  -20.8672  -14.3687 N   0  0  0  0  0  0  0  0  0  0  0  0
   23.0092  -20.6272  -14.3984 C   0  0  1  0  0  0  0  0  0  0  0  0
   22.3881  -21.7690  -15.2134 C   0  0  0  0  0  0  0  0  0  0  0  0
   20.8954  -21.4801  -15.2814 C   0  0  0  0  0  0  0  0  0  0  0  0
   20.5791  -20.5484  -16.3810 C   0  0  0  0  0  0  0  0  0  0  0  0
   21.2482  -20.5755  -17.4340 O   0  0  0  0  0  0  0  0  0  0  0  0
   22.4642  -20.5757  -13.0410 C   0  0  0  0  0  0  0  0  0  0  0  0
   21.4425  -19.7003  -12.7289 O   0  0  0  0  0  0  0  0  0  0  0  0
   19.5433  -19.6521  -16.2359 O   0  0  0  0  0  0  0  0  0  0  0  0
   22.9257  -21.3297  -12.1539 O   0  0  0  0  0  0  0  0  0  0  0  0
  2  1  1  6
  2  4  1  0
  3  2  1  0
  4 13  1  0
  5  4  2  0
  7  6  1  0
  8  7  2  0
  9  8  1  0
 10 16  1  0
 10  9  2  0
 11 10  1  0
 12 14  1  0
 12 11  1  1
 13 12  1  0
 14 15  2  0
 16 17  2  0
 17  7  1  0
 18 19  1  0
 18 14  1  0
 19 20  1  6
 20 21  1  0
 21 22  1  0
 22 23  2  0
 22 26  1  0
 24 25  1  0
 24 19  1  0
 27 24  2  0
M  END
$$$$
