AYE.pdb
     RDKit          3D

 27 27  0  0  1  0  0  0  0  0999 V2000
   23.7081  -11.1797  -20.6644 C   0  0  0  0  0  0  0  0  0  0  0  0
   23.1299  -12.1899  -19.6996 C   0  0  2  0  0  0  0  0  0  0  0  0
   22.5238  -13.2408  -20.4870 N   0  0  0  0  0  0  0  0  0  0  0  0
   22.1241  -11.6198  -18.8045 C   0  0  0  0  0  0  0  0  0  0  0  0
   21.0154  -11.2676  -19.2884 O   0  0  0  0  0  0  0  0  0  0  0  0
   18.2079  -16.4176  -16.9666 O   0  0  0  0  0  0  0  0  0  0  0  0
   18.8825  -15.2766  -16.5911 C   0  0  0  0  0  0  0  0  0  0  0  0
   18.1528  -14.1212  -16.3140 C   0  0  0  0  0  0  0  0  0  0  0  0
   18.8072  -12.9671  -15.9362 C   0  0  0  0  0  0  0  0  0  0  0  0
   20.1838  -12.9996  -15.8451 C   0  0  0  0  0  0  0  0  0  0  0  0
   20.8828  -11.7788  -15.4450 C   0  0  0  0  0  0  0  0  0  0  0  0
   21.2474  -10.8933  -16.6130 C   0  0  2  0  0  0  0  0  0  0  0  0
   22.3097  -11.4322  -17.4106 N   0  0  0  0  0  0  0  0  0  0  0  0
   21.6394   -9.5300  -16.1251 C   0  0  0  0  0  0  0  0  0  0  0  0
   22.7956   -9.3110  -15.7403 O   0  0  0  0  0  0  0  0  0  0  0  0
   20.9203  -14.1510  -16.1206 C   0  0  0  0  0  0  0  0  0  0  0  0
   20.2584  -15.3007  -16.4976 C   0  0  0  0  0  0  0  0  0  0  0  0
   20.6914   -8.4829  -16.1004 N   0  0  0  0  0  0  0  0  0  0  0  0
   20.9707   -7.1349  -15.6763 C   0  0  1  0  0  0  0  0  0  0  0  0
   20.8156   -6.2440  -16.9156 C   0  0  0  0  0  0  0  0  0  0  0  0
   21.1219   -4.8245  -16.4600 C   0  0  0  0  0  0  0  0  0  0  0  0
   21.0336   -3.8703  -17.5820 C   0  0  0  0  0  0  0  0  0  0  0  0
   21.2012   -2.6505  -17.3787 O   0  0  0  0  0  0  0  0  0  0  0  0
   20.0602   -6.7302  -14.6043 C   0  0  0  0  0  0  0  0  0  0  0  0
   20.4134   -5.7228  -13.7279 O   0  0  0  0  0  0  0  0  0  0  0  0
   20.7657   -4.3355  -18.8505 O   0  0  0  0  0  0  0  0  0  0  0  0
   18.9519   -7.2996  -14.4782 O   0  0  0  0  0  0  0  0  0  0  0  0
  2  1  1  6
  2  4  1  0
  3  2  1  0
  4 13  1  0
  5  4  2  0
  7  6  1  0
  8  7  2  0
  9  8  1  0
 10 16  1  0
 10  9  2  0
 11 10  1  0
 12 14  1  0
 12 11  1  1
 13 12  1  0
 14 15  2  0
 16 17  2  0
 17  7  1  0
 18 19  1  0
 18 14  1  0
 19 20  1  6
 20 21  1  0
 21 22  1  0
 22 23  2  0
 22 26  1  0
 24 25  1  0
 24 19  1  0
 27 24  2  0
M  END
$$$$
