AYE.pdb
     RDKit          3D

 27 27  0  0  1  0  0  0  0  0999 V2000
   21.0135   -9.2783  -18.9978 C   0  0  0  0  0  0  0  0  0  0  0  0
   20.8079  -10.0743  -17.7290 C   0  0  2  0  0  0  0  0  0  0  0  0
   19.7570  -11.0339  -17.9871 N   0  0  0  0  0  0  0  0  0  0  0  0
   20.4307   -9.2455  -16.5850 C   0  0  0  0  0  0  0  0  0  0  0  0
   19.2216   -8.9183  -16.4490 O   0  0  0  0  0  0  0  0  0  0  0  0
   19.2258   -4.8214   -9.3439 O   0  0  0  0  0  0  0  0  0  0  0  0
   19.7954   -5.6112  -10.3184 C   0  0  0  0  0  0  0  0  0  0  0  0
   20.7942   -5.0706  -11.1274 C   0  0  0  0  0  0  0  0  0  0  0  0
   21.3786   -5.8430  -12.1095 C   0  0  0  0  0  0  0  0  0  0  0  0
   20.9455   -7.1448  -12.2576 C   0  0  0  0  0  0  0  0  0  0  0  0
   21.5617   -7.9684  -13.2974 C   0  0  0  0  0  0  0  0  0  0  0  0
   20.9241   -7.7865  -14.6545 C   0  0  2  0  0  0  0  0  0  0  0  0
   21.3413   -8.7766  -15.6035 N   0  0  0  0  0  0  0  0  0  0  0  0
   21.2381   -6.4225  -15.1941 C   0  0  0  0  0  0  0  0  0  0  0  0
   22.3626   -6.1719  -15.6474 O   0  0  0  0  0  0  0  0  0  0  0  0
   19.9473   -7.6924  -11.4526 C   0  0  0  0  0  0  0  0  0  0  0  0
   19.3681   -6.9135  -10.4730 C   0  0  0  0  0  0  0  0  0  0  0  0
   20.2520   -5.4108  -15.1897 N   0  0  0  0  0  0  0  0  0  0  0  0
   20.4343   -4.0870  -15.7275 C   0  0  1  0  0  0  0  0  0  0  0  0
   19.6964   -4.0543  -17.0722 C   0  0  0  0  0  0  0  0  0  0  0  0
   19.8226   -2.6294  -17.5919 C   0  0  0  0  0  0  0  0  0  0  0  0
   19.1255   -2.4655  -18.8820 C   0  0  0  0  0  0  0  0  0  0  0  0
   18.2973   -1.5440  -19.0313 O   0  0  0  0  0  0  0  0  0  0  0  0
   19.9161   -3.0770  -14.8037 C   0  0  0  0  0  0  0  0  0  0  0  0
   20.5271   -1.8426  -14.7003 O   0  0  0  0  0  0  0  0  0  0  0  0
   19.3955   -3.3346  -19.9159 O   0  0  0  0  0  0  0  0  0  0  0  0
   18.9114   -3.3309  -14.1005 O   0  0  0  0  0  0  0  0  0  0  0  0
  2  1  1  6
  2  4  1  0
  3  2  1  0
  4 13  1  0
  5  4  2  0
  7  6  1  0
  8  7  2  0
  9  8  1  0
 10 16  1  0
 10  9  2  0
 11 10  1  0
 12 14  1  0
 12 11  1  1
 13 12  1  0
 14 15  2  0
 16 17  2  0
 17  7  1  0
 18 19  1  0
 18 14  1  0
 19 20  1  6
 20 21  1  0
 21 22  1  0
 22 23  2  0
 22 26  1  0
 24 25  1  0
 24 19  1  0
 27 24  2  0
M  END
$$$$
