AYE.pdb
     RDKit          3D

 27 27  0  0  1  0  0  0  0  0999 V2000
   22.5407  -13.2871  -16.1853 C   0  0  0  0  0  0  0  0  0  0  0  0
   21.2409  -13.3073  -16.9573 C   0  0  2  0  0  0  0  0  0  0  0  0
   21.5440  -13.7486  -18.3009 N   0  0  0  0  0  0  0  0  0  0  0  0
   20.5873  -12.0007  -17.0172 C   0  0  0  0  0  0  0  0  0  0  0  0
   20.4515  -11.4444  -18.1394 O   0  0  0  0  0  0  0  0  0  0  0  0
   14.3020  -12.8320  -18.5314 O   0  0  0  0  0  0  0  0  0  0  0  0
   15.2230  -12.1562  -17.7612 C   0  0  0  0  0  0  0  0  0  0  0  0
   15.6148  -10.8746  -18.1463 C   0  0  0  0  0  0  0  0  0  0  0  0
   16.5356  -10.1794  -17.3903 C   0  0  0  0  0  0  0  0  0  0  0  0
   17.0437  -10.7887  -16.2613 C   0  0  0  0  0  0  0  0  0  0  0  0
   18.0204  -10.0561  -15.4560 C   0  0  0  0  0  0  0  0  0  0  0  0
   19.4057  -10.0559  -16.0578 C   0  0  2  0  0  0  0  0  0  0  0  0
   20.0882  -11.3048  -15.8862 N   0  0  0  0  0  0  0  0  0  0  0  0
   20.2300   -8.9563  -15.4564 C   0  0  0  0  0  0  0  0  0  0  0  0
   20.8096   -9.1274  -14.3757 O   0  0  0  0  0  0  0  0  0  0  0  0
   16.6569  -12.0699  -15.8698 C   0  0  0  0  0  0  0  0  0  0  0  0
   15.7358  -12.7582  -16.6312 C   0  0  0  0  0  0  0  0  0  0  0  0
   20.3523   -7.7144  -16.1186 N   0  0  0  0  0  0  0  0  0  0  0  0
   21.1719   -6.6207  -15.6636 C   0  0  1  0  0  0  0  0  0  0  0  0
   21.0417   -5.5088  -16.7126 C   0  0  0  0  0  0  0  0  0  0  0  0
   21.9384   -4.3728  -16.2418 C   0  0  0  0  0  0  0  0  0  0  0  0
   21.8676   -3.2187  -17.1584 C   0  0  0  0  0  0  0  0  0  0  0  0
   21.8414   -3.4024  -18.3925 O   0  0  0  0  0  0  0  0  0  0  0  0
   20.7412   -6.1665  -14.3406 C   0  0  0  0  0  0  0  0  0  0  0  0
   21.6598   -5.6683  -13.4375 O   0  0  0  0  0  0  0  0  0  0  0  0
   21.8308   -1.9420  -16.6425 O   0  0  0  0  0  0  0  0  0  0  0  0
   19.5316   -6.2288  -14.0223 O   0  0  0  0  0  0  0  0  0  0  0  0
  2  1  1  1
  2  4  1  0
  3  2  1  0
  4 13  1  0
  5  4  2  0
  7  6  1  0
  8  7  2  0
  9  8  1  0
 10 16  1  0
 10  9  2  0
 11 10  1  0
 12 14  1  0
 12 11  1  1
 13 12  1  0
 14 15  2  0
 16 17  2  0
 17  7  1  0
 18 19  1  0
 18 14  1  0
 19 20  1  6
 20 21  1  0
 21 22  1  0
 22 23  2  0
 22 26  1  0
 24 25  1  0
 24 19  1  0
 27 24  2  0
M  END
$$$$
