AYE.pdb
     RDKit          3D

 27 27  0  0  1  0  0  0  0  0999 V2000
   26.3216   -7.4196  -20.9894 C   0  0  0  0  0  0  0  0  0  0  0  0
   27.0105   -8.4899  -20.1736 C   0  0  2  0  0  0  0  0  0  0  0  0
   27.2934   -9.5950  -21.0627 N   0  0  0  0  0  0  0  0  0  0  0  0
   26.2015   -8.9695  -19.0541 C   0  0  0  0  0  0  0  0  0  0  0  0
   25.2312   -9.7361  -19.2951 O   0  0  0  0  0  0  0  0  0  0  0  0
   29.6621  -14.0886  -17.1699 O   0  0  0  0  0  0  0  0  0  0  0  0
   28.8887  -13.0202  -16.7720 C   0  0  0  0  0  0  0  0  0  0  0  0
   27.6200  -13.2634  -16.2472 C   0  0  0  0  0  0  0  0  0  0  0  0
   26.8281  -12.2090  -15.8423 C   0  0  0  0  0  0  0  0  0  0  0  0
   27.3299  -10.9302  -15.9741 C   0  0  0  0  0  0  0  0  0  0  0  0
   26.4945   -9.8084  -15.5464 C   0  0  0  0  0  0  0  0  0  0  0  0
   25.6512   -9.2371  -16.6615 C   0  0  2  0  0  0  0  0  0  0  0  0
   26.4340   -8.6286  -17.6968 N   0  0  0  0  0  0  0  0  0  0  0  0
   24.6865   -8.2271  -16.1140 C   0  0  0  0  0  0  0  0  0  0  0  0
   25.0637   -7.0764  -15.8559 O   0  0  0  0  0  0  0  0  0  0  0  0
   28.5974  -10.6791  -16.4979 C   0  0  0  0  0  0  0  0  0  0  0  0
   29.3828  -11.7389  -16.9003 C   0  0  0  0  0  0  0  0  0  0  0  0
   23.3375   -8.5805  -15.8879 N   0  0  0  0  0  0  0  0  0  0  0  0
   22.3072   -7.6607  -15.4792 C   0  0  1  0  0  0  0  0  0  0  0  0
   21.6600   -7.1276  -16.7640 C   0  0  0  0  0  0  0  0  0  0  0  0
   20.6315   -6.0950  -16.3255 C   0  0  0  0  0  0  0  0  0  0  0  0
   19.9231   -5.5182  -17.4841 C   0  0  0  0  0  0  0  0  0  0  0  0
   20.2580   -5.8380  -18.6429 O   0  0  0  0  0  0  0  0  0  0  0  0
   21.3285   -8.3280  -14.6197 C   0  0  0  0  0  0  0  0  0  0  0  0
   20.6438   -7.6167  -13.6538 O   0  0  0  0  0  0  0  0  0  0  0  0
   18.8932   -4.6274  -17.2767 O   0  0  0  0  0  0  0  0  0  0  0  0
   21.1080   -9.5530  -14.7586 O   0  0  0  0  0  0  0  0  0  0  0  0
  2  1  1  6
  2  4  1  0
  3  2  1  0
  4 13  1  0
  5  4  2  0
  7  6  1  0
  8  7  2  0
  9  8  1  0
 10 16  1  0
 10  9  2  0
 11 10  1  0
 12 14  1  0
 12 11  1  1
 13 12  1  0
 14 15  2  0
 16 17  2  0
 17  7  1  0
 18 19  1  0
 18 14  1  0
 19 20  1  6
 20 21  1  0
 21 22  1  0
 22 23  2  0
 22 26  1  0
 24 25  1  0
 24 19  1  0
 27 24  2  0
M  END
$$$$
