SFS.pdb
     RDKit          3D

 24 24  0  0  1  0  0  0  0  0999 V2000
    9.6735  -19.0448   20.7100 O   0  0  0  0  0  0  0  0  0  0  0  0
    8.5308  -18.3722   20.2955 C   0  0  0  0  0  0  0  0  0  0  0  0
    8.8240  -16.9139   20.0190 C   0  0  2  0  0  0  0  0  0  0  0  0
    9.8748  -16.7434   19.0575 N   0  0  0  0  0  0  0  0  0  0  0  0
    9.1394  -16.1658   21.2379 C   0  0  0  0  0  0  0  0  0  0  0  0
   10.3258  -15.8944   21.5284 O   0  0  0  0  0  0  0  0  0  0  0  0
    8.0795  -15.7521   22.0868 N   0  0  0  0  0  0  0  0  0  0  0  0
    8.2959  -15.0196   23.2998 C   0  0  1  0  0  0  0  0  0  0  0  0
    7.0152  -14.2777   23.6229 C   0  0  0  0  0  0  0  0  0  0  0  0
    7.1550  -13.5129   24.8822 C   0  0  0  0  0  0  0  0  0  0  0  0
    7.9611  -12.3786   24.9661 C   0  0  0  0  0  0  0  0  0  0  0  0
    8.0909  -11.6671   26.1379 C   0  0  0  0  0  0  0  0  0  0  0  0
    7.4073  -12.0856   27.2574 C   0  0  0  0  0  0  0  0  0  0  0  0
    6.6036  -13.2057   27.1977 C   0  0  0  0  0  0  0  0  0  0  0  0
    6.4764  -13.9128   26.0274 C   0  0  0  0  0  0  0  0  0  0  0  0
    8.6790  -15.9515   24.3719 C   0  0  0  0  0  0  0  0  0  0  0  0
    8.0143  -16.9972   24.5893 O   0  0  0  0  0  0  0  0  0  0  0  0
   12.5245  -16.1673   25.6655 O   0  0  0  0  0  0  0  0  0  0  0  0
   11.6270  -17.1989   25.7982 C   0  0  0  0  0  0  0  0  0  0  0  0
   10.2337  -16.7201   26.1710 C   0  0  2  0  0  0  0  0  0  0  0  0
    9.8070  -15.7341   25.2179 N   0  0  0  0  0  0  0  0  0  0  0  0
   10.1651  -16.1913   27.5304 C   0  0  0  0  0  0  0  0  0  0  0  0
    9.7661  -15.0262   27.7576 O   0  0  0  0  0  0  0  0  0  0  0  0
   10.5437  -16.9761   28.6039 O   0  0  0  0  0  0  0  0  0  0  0  0
  2  1  1  0
  3  2  1  0
  3  4  1  6
  5  3  1  0
  5  6  2  0
  7  5  1  0
  8  7  1  0
  9 10  1  0
  8  9  1  1
 10 15  2  0
 11 10  1  0
 11 12  2  0
 12 13  1  0
 13 14  2  0
 15 14  1  0
 16 21  1  0
 16  8  1  0
 17 16  2  0
 18 19  1  0
 20 19  1  6
 20 21  1  0
 20 22  1  0
 22 23  2  0
 22 24  1  0
M  END
$$$$
