SFS.pdb
     RDKit          3D

 24 24  0  0  1  0  0  0  0  0999 V2000
    8.7906  -15.7724   18.7555 O   0  0  0  0  0  0  0  0  0  0  0  0
    7.4687  -15.3926   18.9515 C   0  0  0  0  0  0  0  0  0  0  0  0
    7.3810  -14.0158   19.5727 C   0  0  2  0  0  0  0  0  0  0  0  0
    7.9814  -13.0078   18.7474 N   0  0  0  0  0  0  0  0  0  0  0  0
    7.9628  -13.9701   20.9159 C   0  0  0  0  0  0  0  0  0  0  0  0
    9.1032  -13.4887   21.0989 O   0  0  0  0  0  0  0  0  0  0  0  0
    7.2147  -14.4800   22.0092 N   0  0  0  0  0  0  0  0  0  0  0  0
    7.7054  -14.4761   23.3561 C   0  0  1  0  0  0  0  0  0  0  0  0
    6.5069  -14.4291   24.2814 C   0  0  0  0  0  0  0  0  0  0  0  0
    6.8148  -13.6477   25.5000 C   0  0  0  0  0  0  0  0  0  0  0  0
    7.5700  -14.1822   26.5429 C   0  0  0  0  0  0  0  0  0  0  0  0
    7.8563  -13.4549   27.6767 C   0  0  0  0  0  0  0  0  0  0  0  0
    7.3852  -12.1657   27.7849 C   0  0  0  0  0  0  0  0  0  0  0  0
    6.6356  -11.6161   26.7649 C   0  0  0  0  0  0  0  0  0  0  0  0
    6.3519  -12.3442   25.6357 C   0  0  0  0  0  0  0  0  0  0  0  0
    8.5285  -15.6750   23.5799 C   0  0  0  0  0  0  0  0  0  0  0  0
    8.1570  -16.8026   23.1638 O   0  0  0  0  0  0  0  0  0  0  0  0
   11.9491  -16.0194   22.6634 O   0  0  0  0  0  0  0  0  0  0  0  0
   11.9609  -16.5851   23.9153 C   0  0  0  0  0  0  0  0  0  0  0  0
   10.5642  -16.8224   24.4652 C   0  0  2  0  0  0  0  0  0  0  0  0
    9.7766  -15.6373   24.2698 N   0  0  0  0  0  0  0  0  0  0  0  0
   10.5721  -17.2138   25.8720 C   0  0  0  0  0  0  0  0  0  0  0  0
    9.9693  -16.5411   26.7395 O   0  0  0  0  0  0  0  0  0  0  0  0
   11.2530  -18.3470   26.2768 O   0  0  0  0  0  0  0  0  0  0  0  0
  2  1  1  0
  3  2  1  0
  3  4  1  6
  5  3  1  0
  5  6  2  0
  7  5  1  0
  8  7  1  0
  9 10  1  0
  8  9  1  1
 10 15  2  0
 11 10  1  0
 11 12  2  0
 12 13  1  0
 13 14  2  0
 15 14  1  0
 16 21  1  0
 16  8  1  0
 17 16  2  0
 18 19  1  0
 20 19  1  1
 20 21  1  0
 20 22  1  0
 22 23  2  0
 22 24  1  0
M  END
$$$$
