SFS.pdb
     RDKit          3D

 24 24  0  0  1  0  0  0  0  0999 V2000
   10.4614  -18.7910   21.1144 O   0  0  0  0  0  0  0  0  0  0  0  0
    9.3677  -18.2021   20.4922 C   0  0  0  0  0  0  0  0  0  0  0  0
    9.6057  -16.7283   20.2465 C   0  0  2  0  0  0  0  0  0  0  0  0
   10.7538  -16.4935   19.4192 N   0  0  0  0  0  0  0  0  0  0  0  0
    9.7256  -15.9660   21.4913 C   0  0  0  0  0  0  0  0  0  0  0  0
   10.8514  -15.7059   21.9717 O   0  0  0  0  0  0  0  0  0  0  0  0
    8.5460  -15.5253   22.1465 N   0  0  0  0  0  0  0  0  0  0  0  0
    8.5619  -14.8863   23.4295 C   0  0  1  0  0  0  0  0  0  0  0  0
    7.2783  -14.0932   23.5636 C   0  0  0  0  0  0  0  0  0  0  0  0
    7.1885  -13.4614   24.8989 C   0  0  0  0  0  0  0  0  0  0  0  0
    6.2965  -13.9180   25.8681 C   0  0  0  0  0  0  0  0  0  0  0  0
    6.2131  -13.3299   27.1105 C   0  0  0  0  0  0  0  0  0  0  0  0
    7.0316  -12.2626   27.4051 C   0  0  0  0  0  0  0  0  0  0  0  0
    7.9222  -11.7937   26.4611 C   0  0  0  0  0  0  0  0  0  0  0  0
    8.0027  -12.3825   25.2231 C   0  0  0  0  0  0  0  0  0  0  0  0
    8.6927  -15.9062   24.4819 C   0  0  0  0  0  0  0  0  0  0  0  0
    7.8421  -16.8252   24.6026 O   0  0  0  0  0  0  0  0  0  0  0  0
   12.2519  -17.0722   25.8798 O   0  0  0  0  0  0  0  0  0  0  0  0
   11.1094  -17.8133   26.0605 C   0  0  0  0  0  0  0  0  0  0  0  0
    9.9014  -16.9560   26.4006 C   0  0  2  0  0  0  0  0  0  0  0  0
    9.7713  -15.9189   25.4156 N   0  0  0  0  0  0  0  0  0  0  0  0
    9.9739  -16.3890   27.7443 C   0  0  0  0  0  0  0  0  0  0  0  0
    9.9055  -15.1532   27.9353 O   0  0  0  0  0  0  0  0  0  0  0  0
   10.1212  -17.2154   28.8430 O   0  0  0  0  0  0  0  0  0  0  0  0
  2  1  1  0
  3  2  1  0
  3  4  1  1
  5  3  1  0
  5  6  2  0
  7  5  1  0
  8  7  1  0
  9 10  1  0
  8  9  1  1
 10 15  2  0
 11 10  1  0
 11 12  2  0
 12 13  1  0
 13 14  2  0
 15 14  1  0
 16 21  1  0
 16  8  1  0
 17 16  2  0
 18 19  1  0
 20 19  1  6
 20 21  1  0
 20 22  1  0
 22 23  2  0
 22 24  1  0
M  END
$$$$
