SFS.pdb
     RDKit          3D

 24 24  0  0  1  0  0  0  0  0999 V2000
   11.0770  -19.7243   18.8123 O   0  0  0  0  0  0  0  0  0  0  0  0
    9.7162  -19.4900   18.9653 C   0  0  0  0  0  0  0  0  0  0  0  0
    9.3812  -18.0339   18.7269 C   0  0  2  0  0  0  0  0  0  0  0  0
    9.8236  -17.5779   17.4408 N   0  0  0  0  0  0  0  0  0  0  0  0
    9.9124  -17.1590   19.7743 C   0  0  0  0  0  0  0  0  0  0  0  0
   10.9786  -16.5286   19.5962 O   0  0  0  0  0  0  0  0  0  0  0  0
    9.2005  -17.0353   20.9962 N   0  0  0  0  0  0  0  0  0  0  0  0
    9.6580  -16.2206   22.0833 C   0  0  1  0  0  0  0  0  0  0  0  0
    8.4466  -15.5452   22.6925 C   0  0  0  0  0  0  0  0  0  0  0  0
    7.9266  -14.4902   21.7943 C   0  0  0  0  0  0  0  0  0  0  0  0
    6.7770  -14.6795   21.0287 C   0  0  0  0  0  0  0  0  0  0  0  0
    6.2934  -13.6977   20.1929 C   0  0  0  0  0  0  0  0  0  0  0  0
    6.9615  -12.4967   20.1100 C   0  0  0  0  0  0  0  0  0  0  0  0
    8.1015  -12.2871   20.8587 C   0  0  0  0  0  0  0  0  0  0  0  0
    8.5811  -13.2683   21.6911 C   0  0  0  0  0  0  0  0  0  0  0  0
   10.3694  -17.0617   23.0587 C   0  0  0  0  0  0  0  0  0  0  0  0
    9.7939  -18.0282   23.6221 O   0  0  0  0  0  0  0  0  0  0  0  0
   14.4240  -16.3993   24.0518 O   0  0  0  0  0  0  0  0  0  0  0  0
   13.9358  -17.6754   23.9082 C   0  0  0  0  0  0  0  0  0  0  0  0
   12.4550  -17.7773   24.2344 C   0  0  2  0  0  0  0  0  0  0  0  0
   11.7311  -16.8401   23.4218 N   0  0  0  0  0  0  0  0  0  0  0  0
   12.1745  -17.5607   25.6510 C   0  0  0  0  0  0  0  0  0  0  0  0
   11.4066  -16.6474   26.0315 O   0  0  0  0  0  0  0  0  0  0  0  0
   12.7580  -18.3688   26.6091 O   0  0  0  0  0  0  0  0  0  0  0  0
  2  1  1  0
  3  2  1  0
  3  4  1  6
  5  3  1  0
  5  6  2  0
  7  5  1  0
  8  7  1  0
  9 10  1  0
  8  9  1  1
 10 15  2  0
 11 10  1  0
 11 12  2  0
 12 13  1  0
 13 14  2  0
 15 14  1  0
 16 21  1  0
 16  8  1  0
 17 16  2  0
 18 19  1  0
 20 19  1  1
 20 21  1  0
 20 22  1  0
 22 23  2  0
 22 24  1  0
M  END
$$$$
