SFS.pdb
     RDKit          3D

 24 24  0  0  1  0  0  0  0  0999 V2000
    7.9963  -16.3333   19.7598 O   0  0  0  0  0  0  0  0  0  0  0  0
    6.8717  -15.6061   20.1293 C   0  0  0  0  0  0  0  0  0  0  0  0
    7.2567  -14.3023   20.7933 C   0  0  2  0  0  0  0  0  0  0  0  0
    7.8802  -13.3898   19.8789 N   0  0  0  0  0  0  0  0  0  0  0  0
    8.1178  -14.5021   21.9609 C   0  0  0  0  0  0  0  0  0  0  0  0
    9.3371  -14.2262   21.9065 O   0  0  0  0  0  0  0  0  0  0  0  0
    7.5501  -15.0138   23.1571 N   0  0  0  0  0  0  0  0  0  0  0  0
    8.2782  -15.0984   24.3890 C   0  0  1  0  0  0  0  0  0  0  0  0
    7.2745  -15.0283   25.5215 C   0  0  0  0  0  0  0  0  0  0  0  0
    7.1368  -13.6401   26.0158 C   0  0  0  0  0  0  0  0  0  0  0  0
    8.2369  -12.7927   26.1391 C   0  0  0  0  0  0  0  0  0  0  0  0
    8.1085  -11.5011   26.5991 C   0  0  0  0  0  0  0  0  0  0  0  0
    6.8614  -11.0324   26.9468 C   0  0  0  0  0  0  0  0  0  0  0  0
    5.7582  -11.8535   26.8328 C   0  0  0  0  0  0  0  0  0  0  0  0
    5.8899  -13.1410   26.3738 C   0  0  0  0  0  0  0  0  0  0  0  0
    9.0521  -16.3495   24.4145 C   0  0  0  0  0  0  0  0  0  0  0  0
    8.4805  -17.4666   24.3252 O   0  0  0  0  0  0  0  0  0  0  0  0
   12.4887  -16.8815   22.6984 O   0  0  0  0  0  0  0  0  0  0  0  0
   12.5651  -17.4172   23.9610 C   0  0  0  0  0  0  0  0  0  0  0  0
   11.1996  -17.6139   24.5986 C   0  0  2  0  0  0  0  0  0  0  0  0
   10.4730  -16.3764   24.5397 N   0  0  0  0  0  0  0  0  0  0  0  0
   11.2848  -18.1005   25.9727 C   0  0  0  0  0  0  0  0  0  0  0  0
   11.8699  -19.1726   26.2498 O   0  0  0  0  0  0  0  0  0  0  0  0
   10.7147  -17.3786   27.0049 O   0  0  0  0  0  0  0  0  0  0  0  0
  2  1  1  0
  3  2  1  0
  3  4  1  6
  5  3  1  0
  5  6  2  0
  7  5  1  0
  8  7  1  0
  9 10  1  0
  8  9  1  1
 10 15  2  0
 11 10  1  0
 11 12  2  0
 12 13  1  0
 13 14  2  0
 15 14  1  0
 16 21  1  0
 16  8  1  0
 17 16  2  0
 18 19  1  0
 20 19  1  1
 20 21  1  0
 20 22  1  0
 22 23  2  0
 22 24  1  0
M  END
$$$$
