SFS.pdb
     RDKit          3D

 24 24  0  0  1  0  0  0  0  0999 V2000
   11.1570  -18.8870   21.0493 O   0  0  0  0  0  0  0  0  0  0  0  0
    9.7743  -18.7581   21.0871 C   0  0  0  0  0  0  0  0  0  0  0  0
    9.3569  -17.3070   20.9904 C   0  0  2  0  0  0  0  0  0  0  0  0
    9.7290  -16.7167   19.7371 N   0  0  0  0  0  0  0  0  0  0  0  0
    9.8799  -16.4998   22.0948 C   0  0  0  0  0  0  0  0  0  0  0  0
   10.8795  -15.7657   21.9282 O   0  0  0  0  0  0  0  0  0  0  0  0
    9.2368  -16.5612   23.3587 N   0  0  0  0  0  0  0  0  0  0  0  0
    9.7782  -15.9502   24.5370 C   0  0  1  0  0  0  0  0  0  0  0  0
    8.6379  -15.7433   25.5125 C   0  0  0  0  0  0  0  0  0  0  0  0
    9.1309  -15.1611   26.7807 C   0  0  0  0  0  0  0  0  0  0  0  0
    9.2233  -13.7828   26.9682 C   0  0  0  0  0  0  0  0  0  0  0  0
    9.6821  -13.2413   28.1483 C   0  0  0  0  0  0  0  0  0  0  0  0
   10.0600  -14.0819   29.1712 C   0  0  0  0  0  0  0  0  0  0  0  0
    9.9770  -15.4497   29.0079 C   0  0  0  0  0  0  0  0  0  0  0  0
    9.5191  -15.9862   27.8298 C   0  0  0  0  0  0  0  0  0  0  0  0
   10.8318  -16.8126   25.0948 C   0  0  0  0  0  0  0  0  0  0  0  0
   10.6574  -18.0527   25.2153 O   0  0  0  0  0  0  0  0  0  0  0  0
   14.5271  -16.6163   24.0886 O   0  0  0  0  0  0  0  0  0  0  0  0
   14.4737  -16.6692   25.4602 C   0  0  0  0  0  0  0  0  0  0  0  0
   13.1403  -17.1844   25.9762 C   0  0  2  0  0  0  0  0  0  0  0  0
   12.0945  -16.3085   25.5267 N   0  0  0  0  0  0  0  0  0  0  0  0
   13.1138  -17.3206   27.4298 C   0  0  0  0  0  0  0  0  0  0  0  0
   12.2512  -16.7356   28.1241 O   0  0  0  0  0  0  0  0  0  0  0  0
   14.0512  -18.1068   28.0738 O   0  0  0  0  0  0  0  0  0  0  0  0
  2  1  1  0
  3  2  1  0
  3  4  1  6
  5  3  1  0
  5  6  2  0
  7  5  1  0
  8  7  1  0
  9 10  1  0
  8  9  1  1
 10 15  2  0
 11 10  1  0
 11 12  2  0
 12 13  1  0
 13 14  2  0
 15 14  1  0
 16 21  1  0
 16  8  1  0
 17 16  2  0
 18 19  1  0
 20 19  1  1
 20 21  1  0
 20 22  1  0
 22 23  2  0
 22 24  1  0
M  END
$$$$
