SFS.pdb
     RDKit          3D

 24 24  0  0  1  0  0  0  0  0999 V2000
    8.0129  -18.0624   20.6036 O   0  0  0  0  0  0  0  0  0  0  0  0
    7.0192  -17.0923   20.5631 C   0  0  0  0  0  0  0  0  0  0  0  0
    7.6134  -15.7029   20.4875 C   0  0  2  0  0  0  0  0  0  0  0  0
    8.4346  -15.5254   19.3249 N   0  0  0  0  0  0  0  0  0  0  0  0
    8.3720  -15.3527   21.6902 C   0  0  0  0  0  0  0  0  0  0  0  0
    9.6195  -15.2633   21.6516 O   0  0  0  0  0  0  0  0  0  0  0  0
    7.6722  -15.1157   22.9023 N   0  0  0  0  0  0  0  0  0  0  0  0
    8.3368  -14.8603   24.1465 C   0  0  1  0  0  0  0  0  0  0  0  0
    7.3060  -14.3178   25.1149 C   0  0  0  0  0  0  0  0  0  0  0  0
    7.9366  -13.9531   26.4031 C   0  0  0  0  0  0  0  0  0  0  0  0
    8.4569  -12.6799   26.6308 C   0  0  0  0  0  0  0  0  0  0  0  0
    9.0437  -12.3407   27.8295 C   0  0  0  0  0  0  0  0  0  0  0  0
    9.1194  -13.2827   28.8309 C   0  0  0  0  0  0  0  0  0  0  0  0
    8.6111  -14.5494   28.6278 C   0  0  0  0  0  0  0  0  0  0  0  0
    8.0266  -14.8842   27.4312 C   0  0  0  0  0  0  0  0  0  0  0  0
    8.9529  -16.1035   24.6358 C   0  0  0  0  0  0  0  0  0  0  0  0
    8.3185  -17.1898   24.6222 O   0  0  0  0  0  0  0  0  0  0  0  0
   13.0554  -16.6506   24.7934 O   0  0  0  0  0  0  0  0  0  0  0  0
   12.1157  -17.6460   24.6776 C   0  0  0  0  0  0  0  0  0  0  0  0
   10.8893  -17.3985   25.5402 C   0  0  2  0  0  0  0  0  0  0  0  0
   10.2836  -16.1569   25.1474 N   0  0  0  0  0  0  0  0  0  0  0  0
   11.1962  -17.3972   26.9679 C   0  0  0  0  0  0  0  0  0  0  0  0
   10.9451  -16.4038   27.6880 O   0  0  0  0  0  0  0  0  0  0  0  0
   11.7763  -18.5050   27.5576 O   0  0  0  0  0  0  0  0  0  0  0  0
  2  1  1  0
  3  2  1  0
  3  4  1  6
  5  3  1  0
  5  6  2  0
  7  5  1  0
  8  7  1  0
  9 10  1  0
  8  9  1  1
 10 15  2  0
 11 10  1  0
 11 12  2  0
 12 13  1  0
 13 14  2  0
 15 14  1  0
 16 21  1  0
 16  8  1  0
 17 16  2  0
 18 19  1  0
 20 19  1  6
 20 21  1  0
 20 22  1  0
 22 23  2  0
 22 24  1  0
M  END
$$$$
