SFS.pdb
     RDKit          3D

 24 24  0  0  1  0  0  0  0  0999 V2000
    9.7006  -18.7110   21.4902 O   0  0  0  0  0  0  0  0  0  0  0  0
    9.0276  -17.9627   20.5325 C   0  0  0  0  0  0  0  0  0  0  0  0
    9.6119  -16.5721   20.4144 C   0  0  2  0  0  0  0  0  0  0  0  0
   10.8816  -16.5708   19.7469 N   0  0  0  0  0  0  0  0  0  0  0  0
    9.7316  -15.9036   21.7119 C   0  0  0  0  0  0  0  0  0  0  0  0
   10.8481  -15.7810   22.2635 O   0  0  0  0  0  0  0  0  0  0  0  0
    8.5624  -15.3957   22.3365 N   0  0  0  0  0  0  0  0  0  0  0  0
    8.5771  -14.7827   23.6322 C   0  0  1  0  0  0  0  0  0  0  0  0
    7.3201  -13.9468   23.7590 C   0  0  0  0  0  0  0  0  0  0  0  0
    7.2698  -13.2706   25.0745 C   0  0  0  0  0  0  0  0  0  0  0  0
    6.2573  -13.5331   25.9961 C   0  0  0  0  0  0  0  0  0  0  0  0
    6.2107  -12.9038   27.2201 C   0  0  0  0  0  0  0  0  0  0  0  0
    7.1892  -11.9909   27.5440 C   0  0  0  0  0  0  0  0  0  0  0  0
    8.2011  -11.7153   26.6472 C   0  0  0  0  0  0  0  0  0  0  0  0
    8.2445  -12.3447   25.4275 C   0  0  0  0  0  0  0  0  0  0  0  0
    8.6519  -15.8268   24.6661 C   0  0  0  0  0  0  0  0  0  0  0  0
    7.7570  -16.7054   24.7653 O   0  0  0  0  0  0  0  0  0  0  0  0
   12.1166  -17.2784   25.8761 O   0  0  0  0  0  0  0  0  0  0  0  0
   10.9297  -17.9310   26.1055 C   0  0  0  0  0  0  0  0  0  0  0  0
    9.8187  -16.9914   26.5441 C   0  0  2  0  0  0  0  0  0  0  0  0
    9.7230  -15.9091   25.6048 N   0  0  0  0  0  0  0  0  0  0  0  0
   10.0117  -16.4857   27.9003 C   0  0  0  0  0  0  0  0  0  0  0  0
   10.0629  -15.2570   28.1371 O   0  0  0  0  0  0  0  0  0  0  0  0
   10.1431  -17.3640   28.9600 O   0  0  0  0  0  0  0  0  0  0  0  0
  2  1  1  0
  3  2  1  0
  3  4  1  1
  5  3  1  0
  5  6  2  0
  7  5  1  0
  8  7  1  0
  9 10  1  0
  8  9  1  1
 10 15  2  0
 11 10  1  0
 11 12  2  0
 12 13  1  0
 13 14  2  0
 15 14  1  0
 16 21  1  0
 16  8  1  0
 17 16  2  0
 18 19  1  0
 20 19  1  6
 20 21  1  0
 20 22  1  0
 22 23  2  0
 22 24  1  0
M  END
$$$$
