SFS.pdb
     RDKit          3D

 24 24  0  0  1  0  0  0  0  0999 V2000
    8.2190  -17.7205   20.5412 O   0  0  0  0  0  0  0  0  0  0  0  0
    8.4543  -16.6801   19.6511 C   0  0  0  0  0  0  0  0  0  0  0  0
    7.8973  -15.3747   20.1754 C   0  0  2  0  0  0  0  0  0  0  0  0
    8.1427  -14.2806   19.2807 N   0  0  0  0  0  0  0  0  0  0  0  0
    8.4015  -15.0475   21.5108 C   0  0  0  0  0  0  0  0  0  0  0  0
    9.5268  -14.5192   21.6539 O   0  0  0  0  0  0  0  0  0  0  0  0
    7.5955  -15.3380   22.6426 N   0  0  0  0  0  0  0  0  0  0  0  0
    8.0421  -15.1309   23.9889 C   0  0  1  0  0  0  0  0  0  0  0  0
    6.8145  -14.9406   24.8559 C   0  0  0  0  0  0  0  0  0  0  0  0
    6.9448  -13.7259   25.6912 C   0  0  0  0  0  0  0  0  0  0  0  0
    8.0942  -13.4681   26.4368 C   0  0  0  0  0  0  0  0  0  0  0  0
    8.2152  -12.3377   27.2140 C   0  0  0  0  0  0  0  0  0  0  0  0
    7.1745  -11.4373   27.2570 C   0  0  0  0  0  0  0  0  0  0  0  0
    6.0272  -11.6719   26.5271 C   0  0  0  0  0  0  0  0  0  0  0  0
    5.9099  -12.8001   25.7532 C   0  0  0  0  0  0  0  0  0  0  0  0
    8.8482  -16.2840   24.4194 C   0  0  0  0  0  0  0  0  0  0  0  0
    8.4903  -17.4601   24.1525 O   0  0  0  0  0  0  0  0  0  0  0  0
   13.1895  -17.9819   24.8492 O   0  0  0  0  0  0  0  0  0  0  0  0
   12.2815  -16.9626   24.6945 C   0  0  0  0  0  0  0  0  0  0  0  0
   10.9479  -17.2587   25.3603 C   0  0  2  0  0  0  0  0  0  0  0  0
   10.0639  -16.1459   25.1529 N   0  0  0  0  0  0  0  0  0  0  0  0
   11.0830  -17.5555   26.7837 C   0  0  0  0  0  0  0  0  0  0  0  0
   11.8572  -18.4510   27.1926 O   0  0  0  0  0  0  0  0  0  0  0  0
   10.3504  -16.8455   27.7168 O   0  0  0  0  0  0  0  0  0  0  0  0
  2  1  1  0
  3  2  1  0
  3  4  1  6
  5  3  1  0
  5  6  2  0
  7  5  1  0
  8  7  1  0
  9 10  1  0
  8  9  1  1
 10 15  2  0
 11 10  1  0
 11 12  2  0
 12 13  1  0
 13 14  2  0
 15 14  1  0
 16 21  1  0
 16  8  1  0
 17 16  2  0
 18 19  1  0
 20 19  1  1
 20 21  1  0
 20 22  1  0
 22 23  2  0
 22 24  1  0
M  END
$$$$
