SFS.pdb
     RDKit          3D

 24 24  0  0  1  0  0  0  0  0999 V2000
    9.1388  -18.8865   20.8051 O   0  0  0  0  0  0  0  0  0  0  0  0
    7.8987  -18.3436   20.4929 C   0  0  0  0  0  0  0  0  0  0  0  0
    8.0040  -16.8590   20.2208 C   0  0  2  0  0  0  0  0  0  0  0  0
    8.8240  -16.5723   19.0793 N   0  0  0  0  0  0  0  0  0  0  0  0
    8.4894  -16.1105   21.3823 C   0  0  0  0  0  0  0  0  0  0  0  0
    9.6746  -15.7124   21.4323 O   0  0  0  0  0  0  0  0  0  0  0  0
    7.5960  -15.8422   22.4523 N   0  0  0  0  0  0  0  0  0  0  0  0
    8.0020  -15.1779   23.6560 C   0  0  1  0  0  0  0  0  0  0  0  0
    6.7510  -14.6801   24.3502 C   0  0  0  0  0  0  0  0  0  0  0  0
    7.0969  -13.8952   25.5563 C   0  0  0  0  0  0  0  0  0  0  0  0
    7.3364  -14.5069   26.7859 C   0  0  0  0  0  0  0  0  0  0  0  0
    7.6582  -13.7764   27.9080 C   0  0  0  0  0  0  0  0  0  0  0  0
    7.7462  -12.4055   27.8150 C   0  0  0  0  0  0  0  0  0  0  0  0
    7.5131  -11.7785   26.6080 C   0  0  0  0  0  0  0  0  0  0  0  0
    7.1925  -12.5101   25.4910 C   0  0  0  0  0  0  0  0  0  0  0  0
    8.7645  -16.1136   24.4973 C   0  0  0  0  0  0  0  0  0  0  0  0
    8.3372  -17.2745   24.7262 O   0  0  0  0  0  0  0  0  0  0  0  0
   12.9110  -15.6655   25.2199 O   0  0  0  0  0  0  0  0  0  0  0  0
   12.1811  -16.8183   25.0598 C   0  0  0  0  0  0  0  0  0  0  0  0
   10.8286  -16.7572   25.7502 C   0  0  2  0  0  0  0  0  0  0  0  0
   10.0134  -15.7720   25.0963 N   0  0  0  0  0  0  0  0  0  0  0  0
   10.9381  -16.4747   27.1787 C   0  0  0  0  0  0  0  0  0  0  0  0
   11.6259  -17.1974   27.9356 O   0  0  0  0  0  0  0  0  0  0  0  0
   10.2769  -15.3918   27.7281 O   0  0  0  0  0  0  0  0  0  0  0  0
  2  1  1  0
  3  2  1  0
  3  4  1  6
  5  3  1  0
  5  6  2  0
  7  5  1  0
  8  7  1  0
  9 10  1  0
  8  9  1  1
 10 15  2  0
 11 10  1  0
 11 12  2  0
 12 13  1  0
 13 14  2  0
 15 14  1  0
 16 21  1  0
 16  8  1  0
 17 16  2  0
 18 19  1  0
 20 19  1  6
 20 21  1  0
 20 22  1  0
 22 23  2  0
 22 24  1  0
M  END
$$$$
