SFS.pdb
     RDKit          3D

 24 24  0  0  1  0  0  0  0  0999 V2000
    9.0768  -19.1151   21.6971 O   0  0  0  0  0  0  0  0  0  0  0  0
    9.7321  -18.5063   20.6342 C   0  0  0  0  0  0  0  0  0  0  0  0
    9.3299  -17.0536   20.5029 C   0  0  2  0  0  0  0  0  0  0  0  0
   10.0287  -16.3900   19.4404 N   0  0  0  0  0  0  0  0  0  0  0  0
    9.5034  -16.3100   21.7526 C   0  0  0  0  0  0  0  0  0  0  0  0
   10.6481  -16.0172   22.1646 O   0  0  0  0  0  0  0  0  0  0  0  0
    8.3541  -15.9253   22.4914 N   0  0  0  0  0  0  0  0  0  0  0  0
    8.4290  -15.1786   23.7128 C   0  0  1  0  0  0  0  0  0  0  0  0
    7.0907  -14.4996   23.9189 C   0  0  0  0  0  0  0  0  0  0  0  0
    7.1160  -13.6451   25.1270 C   0  0  0  0  0  0  0  0  0  0  0  0
    6.6720  -14.1100   26.3640 C   0  0  0  0  0  0  0  0  0  0  0  0
    6.6956  -13.3147   27.4879 C   0  0  0  0  0  0  0  0  0  0  0  0
    7.1700  -12.0259   27.3893 C   0  0  0  0  0  0  0  0  0  0  0  0
    7.6147  -11.5444   26.1749 C   0  0  0  0  0  0  0  0  0  0  0  0
    7.5897  -12.3403   25.0561 C   0  0  0  0  0  0  0  0  0  0  0  0
    8.7634  -16.0867   24.8211 C   0  0  0  0  0  0  0  0  0  0  0  0
    8.0632  -17.1046   25.0582 O   0  0  0  0  0  0  0  0  0  0  0  0
   12.5823  -16.4742   26.1270 O   0  0  0  0  0  0  0  0  0  0  0  0
   11.6129  -17.4337   26.2906 C   0  0  0  0  0  0  0  0  0  0  0  0
   10.2636  -16.8461   26.6697 C   0  0  2  0  0  0  0  0  0  0  0  0
    9.8814  -15.8760   25.6820 N   0  0  0  0  0  0  0  0  0  0  0  0
   10.2622  -16.2550   28.0050 C   0  0  0  0  0  0  0  0  0  0  0  0
    9.9593  -15.0534   28.1859 O   0  0  0  0  0  0  0  0  0  0  0  0
   10.5992  -17.0196   29.1065 O   0  0  0  0  0  0  0  0  0  0  0  0
  2  1  1  0
  3  2  1  0
  3  4  1  6
  5  3  1  0
  5  6  2  0
  7  5  1  0
  8  7  1  0
  9 10  1  0
  8  9  1  1
 10 15  2  0
 11 10  1  0
 11 12  2  0
 12 13  1  0
 13 14  2  0
 15 14  1  0
 16 21  1  0
 16  8  1  0
 17 16  2  0
 18 19  1  0
 20 19  1  6
 20 21  1  0
 20 22  1  0
 22 23  2  0
 22 24  1  0
M  END
$$$$
