SFS.pdb
     RDKit          3D

 24 24  0  0  1  0  0  0  0  0999 V2000
    7.9393  -20.2010   21.8205 O   0  0  0  0  0  0  0  0  0  0  0  0
    6.6064  -19.9116   22.0843 C   0  0  0  0  0  0  0  0  0  0  0  0
    6.2412  -18.5252   21.6007 C   0  0  2  0  0  0  0  0  0  0  0  0
    6.3762  -18.3924   20.1788 N   0  0  0  0  0  0  0  0  0  0  0  0
    7.0117  -17.4771   22.2734 C   0  0  0  0  0  0  0  0  0  0  0  0
    7.9642  -16.9139   21.6893 O   0  0  0  0  0  0  0  0  0  0  0  0
    6.6630  -17.1079   23.5989 N   0  0  0  0  0  0  0  0  0  0  0  0
    7.3671  -16.1000   24.3359 C   0  0  1  0  0  0  0  0  0  0  0  0
    6.4421  -15.5969   25.4250 C   0  0  0  0  0  0  0  0  0  0  0  0
    6.9701  -14.3533   26.0293 C   0  0  0  0  0  0  0  0  0  0  0  0
    7.9110  -14.3793   27.0576 C   0  0  0  0  0  0  0  0  0  0  0  0
    8.4021  -13.2221   27.6197 C   0  0  0  0  0  0  0  0  0  0  0  0
    7.9531  -12.0063   27.1551 C   0  0  0  0  0  0  0  0  0  0  0  0
    7.0219  -11.9564   26.1379 C   0  0  0  0  0  0  0  0  0  0  0  0
    6.5343  -13.1124   25.5797 C   0  0  0  0  0  0  0  0  0  0  0  0
    8.6062  -16.6722   24.8854 C   0  0  0  0  0  0  0  0  0  0  0  0
    8.5741  -17.6607   25.6628 O   0  0  0  0  0  0  0  0  0  0  0  0
   12.3832  -15.2795   23.6527 O   0  0  0  0  0  0  0  0  0  0  0  0
   12.1599  -16.6139   23.8909 C   0  0  0  0  0  0  0  0  0  0  0  0
   11.0978  -16.8510   24.9517 C   0  0  2  0  0  0  0  0  0  0  0  0
    9.8992  -16.1534   24.5782 N   0  0  0  0  0  0  0  0  0  0  0  0
   11.5361  -16.4513   26.2861 C   0  0  0  0  0  0  0  0  0  0  0  0
   10.8995  -15.6059   26.9557 O   0  0  0  0  0  0  0  0  0  0  0  0
   12.6748  -17.0052   26.8412 O   0  0  0  0  0  0  0  0  0  0  0  0
  2  1  1  0
  3  2  1  0
  3  4  1  6
  5  3  1  0
  5  6  2  0
  7  5  1  0
  8  7  1  0
  9 10  1  0
  8  9  1  1
 10 15  2  0
 11 10  1  0
 11 12  2  0
 12 13  1  0
 13 14  2  0
 15 14  1  0
 16 21  1  0
 16  8  1  0
 17 16  2  0
 18 19  1  0
 20 19  1  6
 20 21  1  0
 20 22  1  0
 22 23  2  0
 22 24  1  0
M  END
$$$$
