KIG.pdb
     RDKit          3D

 22 21  0  0  1  0  0  0  0  0999 V2000
    8.2625  -13.1194   20.0221 N   0  0  0  0  0  0  0  0  0  0  0  0
    7.5114  -13.9723   20.8807 C   0  0  1  0  0  0  0  0  0  0  0  0
    7.2497  -15.3426   20.3664 C   0  0  0  0  0  0  0  0  0  0  0  0
    6.6279  -15.3797   19.0159 C   0  0  0  0  0  0  0  0  0  0  0  0
    7.5761  -15.3682   17.8656 C   0  0  0  0  0  0  0  0  0  0  0  0
    6.7931  -15.7133   16.5863 C   0  0  0  0  0  0  0  0  0  0  0  0
    7.6177  -15.4599   15.4260 N   0  0  0  0  0  0  0  0  0  0  0  0
    8.1343  -13.9799   22.2327 C   0  0  0  0  0  0  0  0  0  0  0  0
    9.4120  -13.9460   22.2646 O   0  0  0  0  0  0  0  0  0  0  0  0
    5.7457  -11.1554   26.2487 C   0  0  0  0  0  0  0  0  0  0  0  0
    6.7555  -11.8433   25.4104 C   0  0  0  0  0  0  0  0  0  0  0  0
    7.0310  -13.2831   25.7012 C   0  0  2  0  0  0  0  0  0  0  0  0
    7.7638  -13.2787   27.0587 C   0  0  0  0  0  0  0  0  0  0  0  0
    7.9765  -13.9557   24.7190 C   0  0  2  0  0  0  0  0  0  0  0  0
    7.3530  -14.0219   23.4008 N   0  0  0  0  0  0  0  0  0  0  0  0
    8.1589  -15.3566   25.1786 C   0  0  0  0  0  0  0  0  0  0  0  0
    7.0737  -15.9984   25.4422 O   0  0  0  0  0  0  0  0  0  0  0  0
    9.3826  -16.0191   25.3389 N   0  0  0  0  0  0  0  0  0  0  0  0
    9.3414  -17.4005   25.8568 C   0  0  0  0  0  0  0  0  0  0  0  0
   10.6907  -17.9459   26.0142 C   0  0  0  0  0  0  0  0  0  0  0  0
   11.6700  -17.2900   25.5903 O   0  0  0  0  0  0  0  0  0  0  0  0
   10.8617  -19.1608   26.6206 O   0  0  0  0  0  0  0  0  0  0  0  0
  2  1  1  6
  3  2  1  0
  4  3  1  0
  5  4  1  0
  6  5  1  0
  7  6  1  0
  8  2  1  0
  8  9  2  0
 11 10  1  0
 12 11  1  0
 12 13  1  1
 14 15  1  6
 14 12  1  0
 15  8  1  0
 16 14  1  0
 17 16  2  0
 18 16  1  0
 19 18  1  0
 20 19  1  0
 20 22  1  0
 21 20  2  0
M  END
$$$$
