KIG.pdb
     RDKit          3D

 22 21  0  0  1  0  0  0  0  0999 V2000
    7.3660  -12.9685   19.5240 N   0  0  0  0  0  0  0  0  0  0  0  0
    7.2522  -14.0486   20.4454 C   0  0  1  0  0  0  0  0  0  0  0  0
    7.6714  -15.3815   19.9372 C   0  0  0  0  0  0  0  0  0  0  0  0
    6.6732  -16.4614   20.1592 C   0  0  0  0  0  0  0  0  0  0  0  0
    7.0869  -17.8256   19.7231 C   0  0  0  0  0  0  0  0  0  0  0  0
    5.9418  -18.8049   20.0374 C   0  0  0  0  0  0  0  0  0  0  0  0
    6.3236  -20.1437   19.6474 N   0  0  0  0  0  0  0  0  0  0  0  0
    7.9338  -13.6829   21.7172 C   0  0  0  0  0  0  0  0  0  0  0  0
    9.1504  -13.3033   21.6155 O   0  0  0  0  0  0  0  0  0  0  0  0
    6.8914  -11.4199   27.3239 C   0  0  0  0  0  0  0  0  0  0  0  0
    7.6101  -12.4088   26.4866 C   0  0  0  0  0  0  0  0  0  0  0  0
    7.0081  -12.7644   25.1658 C   0  0  2  0  0  0  0  0  0  0  0  0
    5.9288  -13.8167   25.4941 C   0  0  0  0  0  0  0  0  0  0  0  0
    7.9660  -13.4381   24.1964 C   0  0  2  0  0  0  0  0  0  0  0  0
    7.2686  -13.7546   22.9537 N   0  0  0  0  0  0  0  0  0  0  0  0
    8.3654  -14.7325   24.8063 C   0  0  0  0  0  0  0  0  0  0  0  0
    7.4421  -15.3418   25.4662 O   0  0  0  0  0  0  0  0  0  0  0  0
    9.6294  -15.3298   24.7195 N   0  0  0  0  0  0  0  0  0  0  0  0
    9.8548  -16.5548   25.5112 C   0  0  0  0  0  0  0  0  0  0  0  0
   11.2227  -17.0479   25.3432 C   0  0  0  0  0  0  0  0  0  0  0  0
   12.0104  -16.4262   24.5935 O   0  0  0  0  0  0  0  0  0  0  0  0
   11.6197  -18.1776   26.0058 O   0  0  0  0  0  0  0  0  0  0  0  0
  2  1  1  6
  3  2  1  0
  4  3  1  0
  5  4  1  0
  6  5  1  0
  7  6  1  0
  8  2  1  0
  8  9  2  0
 11 10  1  0
 12 11  1  0
 12 13  1  1
 14 15  1  6
 14 12  1  0
 15  8  1  0
 16 14  1  0
 17 16  2  0
 18 16  1  0
 19 18  1  0
 20 19  1  0
 20 22  1  0
 21 20  2  0
M  END
$$$$
