KIG.pdb
     RDKit          3D

 22 21  0  0  1  0  0  0  0  0999 V2000
    5.5209  -18.7664   23.7382 N   0  0  0  0  0  0  0  0  0  0  0  0
    5.9068  -18.1038   24.9386 C   0  0  1  0  0  0  0  0  0  0  0  0
    6.5361  -18.9602   25.9785 C   0  0  0  0  0  0  0  0  0  0  0  0
    7.5473  -19.9159   25.4529 C   0  0  0  0  0  0  0  0  0  0  0  0
    8.1246  -20.8617   26.4501 C   0  0  0  0  0  0  0  0  0  0  0  0
    9.1049  -21.7982   25.7215 C   0  0  0  0  0  0  0  0  0  0  0  0
    9.6769  -22.7343   26.6632 N   0  0  0  0  0  0  0  0  0  0  0  0
    6.7372  -16.9160   24.5987 C   0  0  0  0  0  0  0  0  0  0  0  0
    7.2959  -16.9296   23.4488 O   0  0  0  0  0  0  0  0  0  0  0  0
    5.5448  -12.1994   27.1512 C   0  0  0  0  0  0  0  0  0  0  0  0
    6.0974  -12.9135   25.9764 C   0  0  0  0  0  0  0  0  0  0  0  0
    7.4388  -13.5555   26.1253 C   0  0  2  0  0  0  0  0  0  0  0  0
    8.4496  -12.4443   25.7742 C   0  0  0  0  0  0  0  0  0  0  0  0
    7.7083  -14.6884   25.1480 C   0  0  2  0  0  0  0  0  0  0  0  0
    6.8914  -15.8464   25.4980 N   0  0  0  0  0  0  0  0  0  0  0  0
    9.1263  -15.0927   25.3290 C   0  0  0  0  0  0  0  0  0  0  0  0
    9.4791  -15.3465   26.5415 O   0  0  0  0  0  0  0  0  0  0  0  0
   10.0830  -15.2215   24.3139 N   0  0  0  0  0  0  0  0  0  0  0  0
   11.4514  -15.5989   24.7179 C   0  0  0  0  0  0  0  0  0  0  0  0
   12.3309  -15.7206   23.5541 C   0  0  0  0  0  0  0  0  0  0  0  0
   11.8546  -15.5601   22.4067 O   0  0  0  0  0  0  0  0  0  0  0  0
   13.6567  -16.0071   23.7362 O   0  0  0  0  0  0  0  0  0  0  0  0
  2  1  1  6
  3  2  1  0
  4  3  1  0
  5  4  1  0
  6  5  1  0
  7  6  1  0
  8  2  1  0
  8  9  2  0
 11 10  1  0
 12 11  1  0
 12 13  1  6
 14 15  1  1
 14 12  1  0
 15  8  1  0
 16 14  1  0
 17 16  2  0
 18 16  1  0
 19 18  1  0
 20 19  1  0
 20 22  1  0
 21 20  2  0
M  END
$$$$
