KIG.pdb
     RDKit          3D

 22 21  0  0  1  0  0  0  0  0999 V2000
    8.3774  -14.9894   19.8732 N   0  0  0  0  0  0  0  0  0  0  0  0
    7.3673  -14.9979   20.8774 C   0  0  1  0  0  0  0  0  0  0  0  0
    6.4504  -16.1683   20.8651 C   0  0  0  0  0  0  0  0  0  0  0  0
    7.1407  -17.4854   20.8912 C   0  0  0  0  0  0  0  0  0  0  0  0
    6.2606  -18.6810   20.7562 C   0  0  0  0  0  0  0  0  0  0  0  0
    7.1403  -19.9423   20.8200 C   0  0  0  0  0  0  0  0  0  0  0  0
    7.1413  -20.4690   22.1665 N   0  0  0  0  0  0  0  0  0  0  0  0
    7.9966  -14.7804   22.2087 C   0  0  0  0  0  0  0  0  0  0  0  0
    9.2060  -15.1763   22.3317 O   0  0  0  0  0  0  0  0  0  0  0  0
    6.9086  -11.5990   27.5116 C   0  0  0  0  0  0  0  0  0  0  0  0
    7.6703  -12.5570   26.6764 C   0  0  0  0  0  0  0  0  0  0  0  0
    7.1233  -12.8831   25.3244 C   0  0  2  0  0  0  0  0  0  0  0  0
    5.7755  -13.5805   25.6013 C   0  0  0  0  0  0  0  0  0  0  0  0
    7.9533  -13.8796   24.5312 C   0  0  2  0  0  0  0  0  0  0  0  0
    7.2923  -14.1734   23.2633 N   0  0  0  0  0  0  0  0  0  0  0  0
    7.9744  -15.1459   25.3080 C   0  0  0  0  0  0  0  0  0  0  0  0
    6.8749  -15.8167   25.3030 O   0  0  0  0  0  0  0  0  0  0  0  0
    9.0659  -15.6573   26.0216 N   0  0  0  0  0  0  0  0  0  0  0  0
    8.8792  -16.9502   26.7086 C   0  0  0  0  0  0  0  0  0  0  0  0
   10.0631  -17.3080   27.4914 C   0  0  0  0  0  0  0  0  0  0  0  0
   11.0722  -16.5669   27.4498 O   0  0  0  0  0  0  0  0  0  0  0  0
   10.0503  -18.4436   28.2550 O   0  0  0  0  0  0  0  0  0  0  0  0
  2  1  1  6
  3  2  1  0
  4  3  1  0
  5  4  1  0
  6  5  1  0
  7  6  1  0
  8  2  1  0
  8  9  2  0
 11 10  1  0
 12 11  1  0
 12 13  1  1
 14 15  1  6
 14 12  1  0
 15  8  1  0
 16 14  1  0
 17 16  2  0
 18 16  1  0
 19 18  1  0
 20 19  1  0
 20 22  1  0
 21 20  2  0
M  END
$$$$
