KIG.pdb
     RDKit          3D

 22 21  0  0  1  0  0  0  0  0999 V2000
    7.2644  -15.0497   20.4572 N   0  0  0  0  0  0  0  0  0  0  0  0
    6.9463  -15.6445   21.7117 C   0  0  1  0  0  0  0  0  0  0  0  0
    6.9332  -17.1311   21.7398 C   0  0  0  0  0  0  0  0  0  0  0  0
    6.1569  -17.7560   20.6359 C   0  0  0  0  0  0  0  0  0  0  0  0
    6.1348  -19.2466   20.6225 C   0  0  0  0  0  0  0  0  0  0  0  0
    5.2827  -19.7097   19.4273 C   0  0  0  0  0  0  0  0  0  0  0  0
    5.3634  -21.1475   19.2984 N   0  0  0  0  0  0  0  0  0  0  0  0
    7.8195  -15.0618   22.7670 C   0  0  0  0  0  0  0  0  0  0  0  0
    9.0355  -14.8458   22.4363 O   0  0  0  0  0  0  0  0  0  0  0  0
    5.6533  -11.4984   26.3147 C   0  0  0  0  0  0  0  0  0  0  0  0
    6.6255  -12.2149   25.4561 C   0  0  0  0  0  0  0  0  0  0  0  0
    7.3481  -13.3793   26.0524 C   0  0  2  0  0  0  0  0  0  0  0  0
    8.3448  -12.7562   27.0514 C   0  0  0  0  0  0  0  0  0  0  0  0
    8.1884  -14.1733   25.0652 C   0  0  2  0  0  0  0  0  0  0  0  0
    7.3251  -14.7695   24.0502 N   0  0  0  0  0  0  0  0  0  0  0  0
    8.8030  -15.2961   25.8195 C   0  0  0  0  0  0  0  0  0  0  0  0
    8.0620  -15.8200   26.7336 O   0  0  0  0  0  0  0  0  0  0  0  0
   10.0865  -15.8197   25.6184 N   0  0  0  0  0  0  0  0  0  0  0  0
   10.4882  -16.9667   26.4558 C   0  0  0  0  0  0  0  0  0  0  0  0
   11.8257  -17.4404   26.0961 C   0  0  0  0  0  0  0  0  0  0  0  0
   12.4530  -16.8648   25.1772 O   0  0  0  0  0  0  0  0  0  0  0  0
   12.3694  -18.5021   26.7669 O   0  0  0  0  0  0  0  0  0  0  0  0
  2  1  1  6
  3  2  1  0
  4  3  1  0
  5  4  1  0
  6  5  1  0
  7  6  1  0
  8  2  1  0
  8  9  2  0
 11 10  1  0
 12 11  1  0
 12 13  1  1
 14 15  1  6
 14 12  1  0
 15  8  1  0
 16 14  1  0
 17 16  2  0
 18 16  1  0
 19 18  1  0
 20 19  1  0
 20 22  1  0
 21 20  2  0
M  END
$$$$
