KIG.pdb
     RDKit          3D

 22 21  0  0  1  0  0  0  0  0999 V2000
    5.0929  -18.0863   25.0085 N   0  0  0  0  0  0  0  0  0  0  0  0
    6.2499  -18.2336   24.1909 C   0  0  1  0  0  0  0  0  0  0  0  0
    6.0321  -18.8784   22.8690 C   0  0  0  0  0  0  0  0  0  0  0  0
    6.3691  -20.3265   22.8327 C   0  0  0  0  0  0  0  0  0  0  0  0
    5.2186  -21.2548   22.6406 C   0  0  0  0  0  0  0  0  0  0  0  0
    5.7552  -22.6973   22.6230 C   0  0  0  0  0  0  0  0  0  0  0  0
    4.6498  -23.6291   22.6060 N   0  0  0  0  0  0  0  0  0  0  0  0
    6.9419  -16.9205   24.0779 C   0  0  0  0  0  0  0  0  0  0  0  0
    7.4590  -16.6523   22.9399 O   0  0  0  0  0  0  0  0  0  0  0  0
    5.2634  -12.5628   26.9415 C   0  0  0  0  0  0  0  0  0  0  0  0
    5.9614  -13.2544   25.8324 C   0  0  0  0  0  0  0  0  0  0  0  0
    7.3221  -13.8070   26.1092 C   0  0  2  0  0  0  0  0  0  0  0  0
    8.2701  -12.5948   26.0011 C   0  0  0  0  0  0  0  0  0  0  0  0
    7.8148  -14.8147   25.0831 C   0  0  2  0  0  0  0  0  0  0  0  0
    7.0164  -16.0339   25.1665 N   0  0  0  0  0  0  0  0  0  0  0  0
    9.2024  -15.1831   25.4649 C   0  0  0  0  0  0  0  0  0  0  0  0
    9.4247  -15.2663   26.7309 O   0  0  0  0  0  0  0  0  0  0  0  0
   10.2584  -15.4451   24.5826 N   0  0  0  0  0  0  0  0  0  0  0  0
   11.6214  -15.4731   25.1479 C   0  0  0  0  0  0  0  0  0  0  0  0
   12.6197  -15.7233   24.1071 C   0  0  0  0  0  0  0  0  0  0  0  0
   12.2531  -15.7977   22.9116 O   0  0  0  0  0  0  0  0  0  0  0  0
   13.9351  -15.8719   24.4544 O   0  0  0  0  0  0  0  0  0  0  0  0
  2  1  1  6
  3  2  1  0
  4  3  1  0
  5  4  1  0
  6  5  1  0
  7  6  1  0
  8  2  1  0
  8  9  2  0
 11 10  1  0
 12 11  1  0
 12 13  1  6
 14 15  1  1
 14 12  1  0
 15  8  1  0
 16 14  1  0
 17 16  2  0
 18 16  1  0
 19 18  1  0
 20 19  1  0
 20 22  1  0
 21 20  2  0
M  END
$$$$
