KIG.pdb
     RDKit          3D

 22 21  0  0  1  0  0  0  0  0999 V2000
    7.9039  -15.9435   20.8064 N   0  0  0  0  0  0  0  0  0  0  0  0
    7.3585  -16.3105   22.0700 C   0  0  1  0  0  0  0  0  0  0  0  0
    7.3781  -17.7629   22.3876 C   0  0  0  0  0  0  0  0  0  0  0  0
    6.7166  -18.6201   21.3680 C   0  0  0  0  0  0  0  0  0  0  0  0
    5.3094  -19.0121   21.6655 C   0  0  0  0  0  0  0  0  0  0  0  0
    4.8187  -19.9490   20.5473 C   0  0  0  0  0  0  0  0  0  0  0  0
    3.4294  -20.2841   20.7660 N   0  0  0  0  0  0  0  0  0  0  0  0
    7.9897  -15.4850   23.1358 C   0  0  0  0  0  0  0  0  0  0  0  0
    9.2659  -15.4119   23.1102 O   0  0  0  0  0  0  0  0  0  0  0  0
    8.1934  -11.2962   26.8374 C   0  0  0  0  0  0  0  0  0  0  0  0
    7.3642  -12.4956   27.1007 C   0  0  0  0  0  0  0  0  0  0  0  0
    6.8325  -13.2417   25.9200 C   0  0  2  0  0  0  0  0  0  0  0  0
    5.7800  -14.2067   26.5037 C   0  0  0  0  0  0  0  0  0  0  0  0
    7.8551  -14.1174   25.2140 C   0  0  2  0  0  0  0  0  0  0  0  0
    7.2175  -14.8279   24.1097 N   0  0  0  0  0  0  0  0  0  0  0  0
    8.2955  -15.1474   26.1899 C   0  0  0  0  0  0  0  0  0  0  0  0
    7.3923  -15.9933   26.5473 O   0  0  0  0  0  0  0  0  0  0  0  0
    9.5803  -15.2720   26.7338 N   0  0  0  0  0  0  0  0  0  0  0  0
    9.7677  -16.2700   27.8048 C   0  0  0  0  0  0  0  0  0  0  0  0
   10.9349  -17.1135   27.5422 C   0  0  0  0  0  0  0  0  0  0  0  0
   11.5596  -16.9771   26.4651 O   0  0  0  0  0  0  0  0  0  0  0  0
   11.3252  -18.0360   28.4747 O   0  0  0  0  0  0  0  0  0  0  0  0
  2  1  1  6
  3  2  1  0
  4  3  1  0
  5  4  1  0
  6  5  1  0
  7  6  1  0
  8  2  1  0
  8  9  2  0
 11 10  1  0
 12 11  1  0
 12 13  1  1
 14 15  1  6
 14 12  1  0
 15  8  1  0
 16 14  1  0
 17 16  2  0
 18 16  1  0
 19 18  1  0
 20 19  1  0
 20 22  1  0
 21 20  2  0
M  END
$$$$
