KIG.pdb
     RDKit          3D

 22 21  0  0  1  0  0  0  0  0999 V2000
    8.7714  -16.0154   20.3760 N   0  0  0  0  0  0  0  0  0  0  0  0
    8.1105  -16.5171   21.5336 C   0  0  1  0  0  0  0  0  0  0  0  0
    8.1110  -17.9956   21.6911 C   0  0  0  0  0  0  0  0  0  0  0  0
    7.3293  -18.7206   20.6542 C   0  0  0  0  0  0  0  0  0  0  0  0
    5.9229  -19.0547   21.0189 C   0  0  0  0  0  0  0  0  0  0  0  0
    5.2653  -19.7638   19.8215 C   0  0  0  0  0  0  0  0  0  0  0  0
    3.8520  -19.9364   20.0727 N   0  0  0  0  0  0  0  0  0  0  0  0
    8.6302  -15.8150   22.7389 C   0  0  0  0  0  0  0  0  0  0  0  0
    9.8893  -15.9029   22.9430 O   0  0  0  0  0  0  0  0  0  0  0  0
    6.7597  -11.6939   27.0893 C   0  0  0  0  0  0  0  0  0  0  0  0
    7.7107  -12.6763   26.5181 C   0  0  0  0  0  0  0  0  0  0  0  0
    7.2821  -13.4246   25.2975 C   0  0  2  0  0  0  0  0  0  0  0  0
    6.0627  -14.2538   25.7504 C   0  0  0  0  0  0  0  0  0  0  0  0
    8.3011  -14.4285   24.7826 C   0  0  2  0  0  0  0  0  0  0  0  0
    7.7768  -15.0992   23.5967 N   0  0  0  0  0  0  0  0  0  0  0  0
    8.4564  -15.4695   25.8311 C   0  0  0  0  0  0  0  0  0  0  0  0
    7.4196  -16.2050   26.0389 O   0  0  0  0  0  0  0  0  0  0  0  0
    9.6101  -15.7119   26.5877 N   0  0  0  0  0  0  0  0  0  0  0  0
    9.5581  -16.8159   27.5658 C   0  0  0  0  0  0  0  0  0  0  0  0
   10.7998  -16.8975   28.3366 C   0  0  0  0  0  0  0  0  0  0  0  0
   11.7508  -16.1345   28.0490 O   0  0  0  0  0  0  0  0  0  0  0  0
   10.9032  -17.8034   29.3572 O   0  0  0  0  0  0  0  0  0  0  0  0
  2  1  1  6
  3  2  1  0
  4  3  1  0
  5  4  1  0
  6  5  1  0
  7  6  1  0
  8  2  1  0
  8  9  2  0
 11 10  1  0
 12 11  1  0
 12 13  1  1
 14 15  1  6
 14 12  1  0
 15  8  1  0
 16 14  1  0
 17 16  2  0
 18 16  1  0
 19 18  1  0
 20 19  1  0
 20 22  1  0
 21 20  2  0
M  END
$$$$
