KIG.pdb
     RDKit          3D

 22 21  0  0  1  0  0  0  0  0999 V2000
    7.2087  -16.6831   20.9187 N   0  0  0  0  0  0  0  0  0  0  0  0
    6.6825  -16.5477   22.2353 C   0  0  1  0  0  0  0  0  0  0  0  0
    6.4361  -17.8173   22.9689 C   0  0  0  0  0  0  0  0  0  0  0  0
    6.0432  -18.9585   22.0998 C   0  0  0  0  0  0  0  0  0  0  0  0
    7.1527  -19.6140   21.3503 C   0  0  0  0  0  0  0  0  0  0  0  0
    6.5990  -20.8777   20.6682 C   0  0  0  0  0  0  0  0  0  0  0  0
    7.6094  -21.4502   19.8071 N   0  0  0  0  0  0  0  0  0  0  0  0
    7.5296  -15.5980   23.0075 C   0  0  0  0  0  0  0  0  0  0  0  0
    8.7455  -15.4903   22.6272 O   0  0  0  0  0  0  0  0  0  0  0  0
    6.8459  -10.9967   27.2230 C   0  0  0  0  0  0  0  0  0  0  0  0
    7.6558  -11.9268   26.4017 C   0  0  0  0  0  0  0  0  0  0  0  0
    6.9252  -12.9350   25.5752 C   0  0  2  0  0  0  0  0  0  0  0  0
    6.2045  -13.8371   26.5983 C   0  0  0  0  0  0  0  0  0  0  0  0
    7.8226  -13.8571   24.7655 C   0  0  2  0  0  0  0  0  0  0  0  0
    7.0121  -14.8666   24.0908 N   0  0  0  0  0  0  0  0  0  0  0  0
    8.6912  -14.5788   25.7309 C   0  0  0  0  0  0  0  0  0  0  0  0
    9.5399  -13.8471   26.3660 O   0  0  0  0  0  0  0  0  0  0  0  0
    8.6586  -15.9526   26.0021 N   0  0  0  0  0  0  0  0  0  0  0  0
    9.6230  -16.4699   26.9924 C   0  0  0  0  0  0  0  0  0  0  0  0
    9.4548  -17.9103   27.1907 C   0  0  0  0  0  0  0  0  0  0  0  0
    9.0611  -18.6186   26.2355 O   0  0  0  0  0  0  0  0  0  0  0  0
    9.7295  -18.4605   28.4133 O   0  0  0  0  0  0  0  0  0  0  0  0
  2  1  1  6
  3  2  1  0
  4  3  1  0
  5  4  1  0
  6  5  1  0
  7  6  1  0
  8  2  1  0
  8  9  2  0
 11 10  1  0
 12 11  1  0
 12 13  1  1
 14 15  1  1
 14 12  1  0
 15  8  1  0
 16 14  1  0
 17 16  2  0
 18 16  1  0
 19 18  1  0
 20 19  1  0
 20 22  1  0
 21 20  2  0
M  END
$$$$
