KIG.pdb
     RDKit          3D

 22 21  0  0  1  0  0  0  0  0999 V2000
    5.4655  -18.2544   22.7043 N   0  0  0  0  0  0  0  0  0  0  0  0
    6.0445  -18.0402   23.9878 C   0  0  1  0  0  0  0  0  0  0  0  0
    6.8326  -19.1731   24.5411 C   0  0  0  0  0  0  0  0  0  0  0  0
    6.0865  -20.4576   24.6151 C   0  0  0  0  0  0  0  0  0  0  0  0
    6.8212  -21.5990   25.2313 C   0  0  0  0  0  0  0  0  0  0  0  0
    5.9059  -22.8362   25.2077 C   0  0  0  0  0  0  0  0  0  0  0  0
    5.8737  -23.4446   26.5188 N   0  0  0  0  0  0  0  0  0  0  0  0
    6.8119  -16.7648   23.9737 C   0  0  0  0  0  0  0  0  0  0  0  0
    7.4269  -16.4892   22.8872 O   0  0  0  0  0  0  0  0  0  0  0  0
    5.2510  -12.3605   27.0873 C   0  0  0  0  0  0  0  0  0  0  0  0
    5.8587  -13.1044   25.9591 C   0  0  0  0  0  0  0  0  0  0  0  0
    7.1755  -13.7694   26.1984 C   0  0  2  0  0  0  0  0  0  0  0  0
    8.1981  -12.6152   26.2452 C   0  0  0  0  0  0  0  0  0  0  0  0
    7.6328  -14.6864   25.0753 C   0  0  2  0  0  0  0  0  0  0  0  0
    6.8515  -15.9193   25.0963 N   0  0  0  0  0  0  0  0  0  0  0  0
    9.0397  -15.0647   25.3665 C   0  0  0  0  0  0  0  0  0  0  0  0
    9.2279  -15.6799   26.4824 O   0  0  0  0  0  0  0  0  0  0  0  0
   10.1469  -14.8173   24.5450 N   0  0  0  0  0  0  0  0  0  0  0  0
   11.4717  -15.2205   25.0554 C   0  0  0  0  0  0  0  0  0  0  0  0
   12.0533  -16.2831   24.2335 C   0  0  0  0  0  0  0  0  0  0  0  0
   11.3543  -16.8225   23.3450 O   0  0  0  0  0  0  0  0  0  0  0  0
   13.3483  -16.6704   24.4474 O   0  0  0  0  0  0  0  0  0  0  0  0
  2  1  1  6
  3  2  1  0
  4  3  1  0
  5  4  1  0
  6  5  1  0
  7  6  1  0
  8  2  1  0
  8  9  2  0
 11 10  1  0
 12 11  1  0
 12 13  1  6
 14 15  1  1
 14 12  1  0
 15  8  1  0
 16 14  1  0
 17 16  2  0
 18 16  1  0
 19 18  1  0
 20 19  1  0
 20 22  1  0
 21 20  2  0
M  END
$$$$
