KIG.pdb
     RDKit          3D

 22 21  0  0  1  0  0  0  0  0999 V2000
    7.5863  -14.4326   20.2083 N   0  0  0  0  0  0  0  0  0  0  0  0
    7.1983  -15.2008   21.3433 C   0  0  1  0  0  0  0  0  0  0  0  0
    7.2635  -16.6772   21.1801 C   0  0  0  0  0  0  0  0  0  0  0  0
    6.5250  -17.1943   19.9973 C   0  0  0  0  0  0  0  0  0  0  0  0
    6.3983  -18.6771   19.9100 C   0  0  0  0  0  0  0  0  0  0  0  0
    5.5539  -19.0210   18.6700 C   0  0  0  0  0  0  0  0  0  0  0  0
    5.3145  -20.4461   18.6224 N   0  0  0  0  0  0  0  0  0  0  0  0
    7.9483  -14.7252   22.5379 C   0  0  0  0  0  0  0  0  0  0  0  0
    9.2039  -14.5441   22.3795 O   0  0  0  0  0  0  0  0  0  0  0  0
    5.4031  -11.5467   26.1676 C   0  0  0  0  0  0  0  0  0  0  0  0
    6.5398  -12.1211   25.4103 C   0  0  0  0  0  0  0  0  0  0  0  0
    7.1502  -13.3824   25.9300 C   0  0  2  0  0  0  0  0  0  0  0  0
    8.0535  -12.9326   27.0968 C   0  0  0  0  0  0  0  0  0  0  0  0
    8.0642  -14.0936   24.9451 C   0  0  2  0  0  0  0  0  0  0  0  0
    7.3030  -14.4920   23.7650 N   0  0  0  0  0  0  0  0  0  0  0  0
    8.5241  -15.3444   25.6017 C   0  0  0  0  0  0  0  0  0  0  0  0
    7.6061  -16.2176   25.8338 O   0  0  0  0  0  0  0  0  0  0  0  0
    9.8408  -15.6443   25.9739 N   0  0  0  0  0  0  0  0  0  0  0  0
   10.1216  -17.0245   26.4149 C   0  0  0  0  0  0  0  0  0  0  0  0
   10.4274  -17.0698   27.8456 C   0  0  0  0  0  0  0  0  0  0  0  0
   10.4330  -16.0048   28.5050 O   0  0  0  0  0  0  0  0  0  0  0  0
   10.7020  -18.2715   28.4400 O   0  0  0  0  0  0  0  0  0  0  0  0
  2  1  1  6
  3  2  1  0
  4  3  1  0
  5  4  1  0
  6  5  1  0
  7  6  1  0
  8  2  1  0
  8  9  2  0
 11 10  1  0
 12 11  1  0
 12 13  1  1
 14 15  1  6
 14 12  1  0
 15  8  1  0
 16 14  1  0
 17 16  2  0
 18 16  1  0
 19 18  1  0
 20 19  1  0
 20 22  1  0
 21 20  2  0
M  END
$$$$
