KIG.pdb
     RDKit          3D

 22 21  0  0  1  0  0  0  0  0999 V2000
    6.8970  -15.3494   20.0002 N   0  0  0  0  0  0  0  0  0  0  0  0
    6.5562  -15.7845   21.3130 C   0  0  1  0  0  0  0  0  0  0  0  0
    6.4705  -17.2562   21.5066 C   0  0  0  0  0  0  0  0  0  0  0  0
    5.9516  -17.9983   20.3268 C   0  0  0  0  0  0  0  0  0  0  0  0
    5.8435  -19.4764   20.4874 C   0  0  0  0  0  0  0  0  0  0  0  0
    5.2322  -20.0620   19.2020 C   0  0  0  0  0  0  0  0  0  0  0  0
    5.1712  -21.5030   19.3030 N   0  0  0  0  0  0  0  0  0  0  0  0
    7.4621  -15.1315   22.2973 C   0  0  0  0  0  0  0  0  0  0  0  0
    8.7061  -15.1281   22.0023 O   0  0  0  0  0  0  0  0  0  0  0  0
    7.1717  -11.3751   27.3108 C   0  0  0  0  0  0  0  0  0  0  0  0
    7.8877  -12.2467   26.3499 C   0  0  0  0  0  0  0  0  0  0  0  0
    7.0686  -12.9763   25.3348 C   0  0  2  0  0  0  0  0  0  0  0  0
    6.1476  -13.8989   26.1595 C   0  0  0  0  0  0  0  0  0  0  0  0
    7.8662  -13.8923   24.4206 C   0  0  2  0  0  0  0  0  0  0  0  0
    6.9674  -14.5548   23.4802 N   0  0  0  0  0  0  0  0  0  0  0  0
    8.4544  -14.9564   25.2744 C   0  0  0  0  0  0  0  0  0  0  0  0
    7.6221  -15.5789   26.0351 O   0  0  0  0  0  0  0  0  0  0  0  0
    9.8038  -15.3302   25.3136 N   0  0  0  0  0  0  0  0  0  0  0  0
   10.1845  -16.3913   26.2661 C   0  0  0  0  0  0  0  0  0  0  0  0
   11.6221  -16.6609   26.2094 C   0  0  0  0  0  0  0  0  0  0  0  0
   12.3359  -16.0132   25.4093 O   0  0  0  0  0  0  0  0  0  0  0  0
   12.1637  -17.6137   27.0290 O   0  0  0  0  0  0  0  0  0  0  0  0
  2  1  1  6
  3  2  1  0
  4  3  1  0
  5  4  1  0
  6  5  1  0
  7  6  1  0
  8  2  1  0
  8  9  2  0
 11 10  1  0
 12 11  1  0
 12 13  1  1
 14 15  1  6
 14 12  1  0
 15  8  1  0
 16 14  1  0
 17 16  2  0
 18 16  1  0
 19 18  1  0
 20 19  1  0
 20 22  1  0
 21 20  2  0
M  END
$$$$
