KIG.pdb
     RDKit          3D

 22 21  0  0  1  0  0  0  0  0999 V2000
    7.3461  -14.2660   19.9266 N   0  0  0  0  0  0  0  0  0  0  0  0
    6.9308  -14.9524   21.1036 C   0  0  1  0  0  0  0  0  0  0  0  0
    6.9040  -16.4363   21.0135 C   0  0  0  0  0  0  0  0  0  0  0  0
    6.3762  -16.9607   19.7258 C   0  0  0  0  0  0  0  0  0  0  0  0
    6.2640  -18.4440   19.6276 C   0  0  0  0  0  0  0  0  0  0  0  0
    5.5533  -18.7917   18.3074 C   0  0  0  0  0  0  0  0  0  0  0  0
    5.4241  -20.2266   18.1858 N   0  0  0  0  0  0  0  0  0  0  0  0
    7.7275  -14.4656   22.2629 C   0  0  0  0  0  0  0  0  0  0  0  0
    8.9673  -14.2450   22.0417 O   0  0  0  0  0  0  0  0  0  0  0  0
    5.1904  -11.4446   26.1905 C   0  0  0  0  0  0  0  0  0  0  0  0
    6.1639  -12.0178   25.2316 C   0  0  0  0  0  0  0  0  0  0  0  0
    6.9979  -13.1673   25.6967 C   0  0  2  0  0  0  0  0  0  0  0  0
    7.9147  -12.5747   26.7867 C   0  0  0  0  0  0  0  0  0  0  0  0
    7.9259  -13.7426   24.6388 C   0  0  2  0  0  0  0  0  0  0  0  0
    7.1403  -14.2635   23.5242 N   0  0  0  0  0  0  0  0  0  0  0  0
    8.6217  -14.9027   25.2530 C   0  0  0  0  0  0  0  0  0  0  0  0
    7.9006  -15.6308   26.0333 O   0  0  0  0  0  0  0  0  0  0  0  0
    9.9608  -15.2614   25.0529 N   0  0  0  0  0  0  0  0  0  0  0  0
   10.4714  -16.4202   25.8109 C   0  0  0  0  0  0  0  0  0  0  0  0
   11.8491  -16.7352   25.4295 C   0  0  0  0  0  0  0  0  0  0  0  0
   12.3861  -16.0999   24.4930 O   0  0  0  0  0  0  0  0  0  0  0  0
   12.5281  -17.7163   26.0999 O   0  0  0  0  0  0  0  0  0  0  0  0
  2  1  1  6
  3  2  1  0
  4  3  1  0
  5  4  1  0
  6  5  1  0
  7  6  1  0
  8  2  1  0
  8  9  2  0
 11 10  1  0
 12 11  1  0
 12 13  1  1
 14 15  1  6
 14 12  1  0
 15  8  1  0
 16 14  1  0
 17 16  2  0
 18 16  1  0
 19 18  1  0
 20 19  1  0
 20 22  1  0
 21 20  2  0
M  END
$$$$
