KIG.pdb
     RDKit          3D

 22 21  0  0  1  0  0  0  0  0999 V2000
    6.6596  -14.5958   20.5426 N   0  0  0  0  0  0  0  0  0  0  0  0
    6.9734  -15.4769   21.6168 C   0  0  1  0  0  0  0  0  0  0  0  0
    7.5682  -16.7839   21.2310 C   0  0  0  0  0  0  0  0  0  0  0  0
    6.7215  -17.5936   20.3148 C   0  0  0  0  0  0  0  0  0  0  0  0
    7.2101  -18.9731   20.0308 C   0  0  0  0  0  0  0  0  0  0  0  0
    6.2496  -19.6317   19.0245 C   0  0  0  0  0  0  0  0  0  0  0  0
    6.7173  -20.9612   18.7019 N   0  0  0  0  0  0  0  0  0  0  0  0
    7.7957  -14.7510   22.6232 C   0  0  0  0  0  0  0  0  0  0  0  0
    8.9553  -14.3750   22.2379 O   0  0  0  0  0  0  0  0  0  0  0  0
    5.3784  -11.4943   26.4436 C   0  0  0  0  0  0  0  0  0  0  0  0
    6.3567  -12.0568   25.4833 C   0  0  0  0  0  0  0  0  0  0  0  0
    7.2339  -13.1684   25.9610 C   0  0  2  0  0  0  0  0  0  0  0  0
    8.1832  -12.5108   26.9838 C   0  0  0  0  0  0  0  0  0  0  0  0
    8.1283  -13.7714   24.8897 C   0  0  2  0  0  0  0  0  0  0  0  0
    7.3149  -14.4987   23.9200 N   0  0  0  0  0  0  0  0  0  0  0  0
    8.9965  -14.7738   25.5595 C   0  0  0  0  0  0  0  0  0  0  0  0
    9.8116  -14.3013   26.4378 O   0  0  0  0  0  0  0  0  0  0  0  0
    8.9961  -16.1544   25.3227 N   0  0  0  0  0  0  0  0  0  0  0  0
    9.8397  -16.9912   26.1981 C   0  0  0  0  0  0  0  0  0  0  0  0
   11.1047  -17.3308   25.5448 C   0  0  0  0  0  0  0  0  0  0  0  0
   11.3506  -16.8674   24.4073 O   0  0  0  0  0  0  0  0  0  0  0  0
   11.9976  -18.1472   26.1844 O   0  0  0  0  0  0  0  0  0  0  0  0
  2  1  1  6
  3  2  1  0
  4  3  1  0
  5  4  1  0
  6  5  1  0
  7  6  1  0
  8  2  1  0
  8  9  2  0
 11 10  1  0
 12 11  1  0
 12 13  1  1
 14 15  1  6
 14 12  1  0
 15  8  1  0
 16 14  1  0
 17 16  2  0
 18 16  1  0
 19 18  1  0
 20 19  1  0
 20 22  1  0
 21 20  2  0
M  END
$$$$
