WVP.pdb
     RDKit          3D

 29 31  0  0  1  0  0  0  0  0999 V2000
    6.2908  -17.4340   23.9965 N   0  0  0  0  0  0  0  0  0  0  0  0
    7.5210  -16.7388   23.8531 C   0  0  1  0  0  0  0  0  0  0  0  0
    8.0807  -16.2038   25.1361 C   0  0  0  0  0  0  0  0  0  0  0  0
    7.1895  -15.1909   25.7391 C   0  0  0  0  0  0  0  0  0  0  0  0
    5.9981  -15.4463   26.3851 C   0  0  0  0  0  0  0  0  0  0  0  0
    5.4443  -14.3078   26.7840 N   0  0  0  0  0  0  0  0  0  0  0  0
    6.2453  -13.2810   26.4173 C   0  0  0  0  0  0  0  0  0  0  0  0
    6.1321  -11.9251   26.5932 C   0  0  0  0  0  0  0  0  0  0  0  0
    7.0923  -11.0764   26.1306 C   0  0  0  0  0  0  0  0  0  0  0  0
    8.1742  -11.6004   25.4863 C   0  0  0  0  0  0  0  0  0  0  0  0
    8.3205  -12.9522   25.2923 C   0  0  0  0  0  0  0  0  0  0  0  0
    7.3427  -13.8198   25.7621 C   0  0  0  0  0  0  0  0  0  0  0  0
    8.5237  -17.5435   23.0972 C   0  0  0  0  0  0  0  0  0  0  0  0
    8.0908  -18.3694   22.2535 O   0  0  0  0  0  0  0  0  0  0  0  0
    9.0633  -17.1690   20.5560 C   0  0  0  0  0  0  0  0  0  0  0  0
   10.4811  -17.0220   21.0061 C   0  0  2  0  0  0  0  0  0  0  0  0
   11.4674  -17.1954   19.8671 C   0  0  0  0  0  0  0  0  0  0  0  0
   10.8685  -17.8710   22.2080 C   0  0  2  0  0  0  0  0  0  0  0  0
    9.9035  -17.4345   23.2684 N   0  0  0  0  0  0  0  0  0  0  0  0
   12.2171  -17.6405   22.7048 C   0  0  0  0  0  0  0  0  0  0  0  0
   12.6837  -16.4489   22.5932 O   0  0  0  0  0  0  0  0  0  0  0  0
   13.0810  -18.5902   23.3078 N   0  0  0  0  0  0  0  0  0  0  0  0
   12.8279  -19.9817   23.6143 C   0  0  0  0  0  0  0  0  0  0  0  0
   14.1729  -20.6182   23.2703 C   0  0  0  0  0  0  0  0  0  0  0  0
   15.0662  -19.6652   24.0876 C   0  0  0  0  0  0  0  0  0  0  0  0
   14.4044  -18.3015   23.8237 C   0  0  1  0  0  0  0  0  0  0  0  0
   15.2447  -17.5179   22.8890 C   0  0  0  0  0  0  0  0  0  0  0  0
   16.2907  -16.7688   23.3898 O   0  0  0  0  0  0  0  0  0  0  0  0
   15.0365  -17.5138   21.6620 O   0  0  0  0  0  0  0  0  0  0  0  0
  2  1  1  1
  2  3  1  0
  2 13  1  0
  4 12  1  0
  4  3  1  0
  5  4  2  0
  6  5  1  0
  6  7  1  0
  7  8  1  0
  7 12  2  0
  8  9  2  0
  9 10  1  0
 11 10  2  0
 12 11  1  0
 13 14  2  0
 16 18  1  0
 16 15  1  6
 17 16  1  0
 19 13  1  0
 18 19  1  1
 20 18  1  0
 20 21  2  0
 22 26  1  0
 22 20  1  0
 23 22  1  0
 24 23  1  0
 24 25  1  0
 25 26  1  0
 26 27  1  6
 27 29  2  0
 27 28  1  0
M  END
$$$$
