WVP.pdb
     RDKit          3D

 29 31  0  0  1  0  0  0  0  0999 V2000
    5.5720  -17.7420   24.3232 N   0  0  0  0  0  0  0  0  0  0  0  0
    6.3797  -16.5899   24.1290 C   0  0  1  0  0  0  0  0  0  0  0  0
    7.3747  -16.3424   25.2218 C   0  0  0  0  0  0  0  0  0  0  0  0
    6.9464  -15.2416   26.1098 C   0  0  0  0  0  0  0  0  0  0  0  0
    5.9238  -15.3007   27.0331 C   0  0  0  0  0  0  0  0  0  0  0  0
    5.7936  -14.1288   27.6429 N   0  0  0  0  0  0  0  0  0  0  0  0
    6.7162  -13.2734   27.1455 C   0  0  0  0  0  0  0  0  0  0  0  0
    6.9995  -11.9632   27.4375 C   0  0  0  0  0  0  0  0  0  0  0  0
    8.0022  -11.3032   26.7929 C   0  0  0  0  0  0  0  0  0  0  0  0
    8.7238  -11.9708   25.8475 C   0  0  0  0  0  0  0  0  0  0  0  0
    8.4680  -13.2822   25.5295 C   0  0  0  0  0  0  0  0  0  0  0  0
    7.4458  -13.9574   26.1843 C   0  0  0  0  0  0  0  0  0  0  0  0
    7.0162  -16.5844   22.7803 C   0  0  0  0  0  0  0  0  0  0  0  0
    7.1705  -17.6918   22.2048 O   0  0  0  0  0  0  0  0  0  0  0  0
    6.7537  -13.4135   20.2172 C   0  0  0  0  0  0  0  0  0  0  0  0
    8.1073  -14.0388   20.3219 C   0  0  2  0  0  0  0  0  0  0  0  0
    8.9244  -13.8577   19.0572 C   0  0  0  0  0  0  0  0  0  0  0  0
    8.1149  -15.4889   20.7830 C   0  0  2  0  0  0  0  0  0  0  0  0
    7.4466  -15.4319   22.1233 N   0  0  0  0  0  0  0  0  0  0  0  0
    9.4408  -16.0610   20.9656 C   0  0  0  0  0  0  0  0  0  0  0  0
   10.2403  -15.4390   21.7555 O   0  0  0  0  0  0  0  0  0  0  0  0
    9.9536  -17.2409   20.3682 N   0  0  0  0  0  0  0  0  0  0  0  0
    9.2421  -18.2816   19.6575 C   0  0  0  0  0  0  0  0  0  0  0  0
   10.2233  -18.6073   18.5334 C   0  0  0  0  0  0  0  0  0  0  0  0
   11.4765  -18.8096   19.4067 C   0  0  0  0  0  0  0  0  0  0  0  0
   11.3344  -17.6762   20.4374 C   0  0  1  0  0  0  0  0  0  0  0  0
   12.3079  -16.6035   20.1286 C   0  0  0  0  0  0  0  0  0  0  0  0
   13.5412  -16.6139   20.7491 O   0  0  0  0  0  0  0  0  0  0  0  0
   12.0479  -15.6900   19.3244 O   0  0  0  0  0  0  0  0  0  0  0  0
  2  1  1  1
  2  3  1  0
  2 13  1  0
  4 12  1  0
  4  3  1  0
  5  4  2  0
  6  5  1  0
  6  7  1  0
  7  8  1  0
  7 12  2  0
  8  9  2  0
  9 10  1  0
 11 10  2  0
 12 11  1  0
 13 14  2  0
 16 18  1  0
 16 15  1  6
 17 16  1  0
 19 13  1  0
 18 19  1  1
 20 18  1  0
 20 21  2  0
 22 26  1  0
 22 20  1  0
 23 22  1  0
 24 23  1  0
 24 25  1  0
 25 26  1  0
 26 27  1  6
 27 29  2  0
 27 28  1  0
M  END
$$$$
