WVP.pdb
     RDKit          3D

 29 31  0  0  1  0  0  0  0  0999 V2000
    5.7661  -18.1571   24.6422 N   0  0  0  0  0  0  0  0  0  0  0  0
    6.2242  -16.8551   24.3076 C   0  0  1  0  0  0  0  0  0  0  0  0
    7.2483  -16.2999   25.2503 C   0  0  0  0  0  0  0  0  0  0  0  0
    6.7913  -15.0388   25.8704 C   0  0  0  0  0  0  0  0  0  0  0  0
    5.5439  -14.8119   26.4130 C   0  0  0  0  0  0  0  0  0  0  0  0
    5.4638  -13.5655   26.8626 N   0  0  0  0  0  0  0  0  0  0  0  0
    6.6422  -12.9421   26.6328 C   0  0  0  0  0  0  0  0  0  0  0  0
    7.0718  -11.6684   26.9073 C   0  0  0  0  0  0  0  0  0  0  0  0
    8.3319  -11.2683   26.5785 C   0  0  0  0  0  0  0  0  0  0  0  0
    9.1642  -12.1603   25.9688 C   0  0  0  0  0  0  0  0  0  0  0  0
    8.7681  -13.4431   25.6787 C   0  0  0  0  0  0  0  0  0  0  0  0
    7.4836  -13.8536   26.0119 C   0  0  0  0  0  0  0  0  0  0  0  0
    6.6702  -16.7762   22.8866 C   0  0  0  0  0  0  0  0  0  0  0  0
    5.7904  -16.8782   21.9938 O   0  0  0  0  0  0  0  0  0  0  0  0
    7.6024  -14.1705   19.6485 C   0  0  0  0  0  0  0  0  0  0  0  0
    7.6041  -14.7868   21.0103 C   0  0  2  0  0  0  0  0  0  0  0  0
    8.0464  -13.8105   22.0834 C   0  0  0  0  0  0  0  0  0  0  0  0
    8.3524  -16.1072   21.1207 C   0  0  2  0  0  0  0  0  0  0  0  0
    7.9956  -16.5963   22.4916 N   0  0  0  0  0  0  0  0  0  0  0  0
    9.8016  -15.9917   21.0474 C   0  0  0  0  0  0  0  0  0  0  0  0
   10.2999  -15.6090   19.9270 O   0  0  0  0  0  0  0  0  0  0  0  0
   10.7344  -16.2520   22.0837 N   0  0  0  0  0  0  0  0  0  0  0  0
   10.4876  -16.7191   23.4310 C   0  0  0  0  0  0  0  0  0  0  0  0
   11.6593  -17.6759   23.6404 C   0  0  0  0  0  0  0  0  0  0  0  0
   12.7869  -16.7166   23.2133 C   0  0  0  0  0  0  0  0  0  0  0  0
   12.1604  -16.0065   22.0006 C   0  0  1  0  0  0  0  0  0  0  0  0
   12.7766  -16.5204   20.7556 C   0  0  0  0  0  0  0  0  0  0  0  0
   14.1112  -16.2665   20.5098 O   0  0  0  0  0  0  0  0  0  0  0  0
   12.1264  -17.1761   19.9212 O   0  0  0  0  0  0  0  0  0  0  0  0
  2  1  1  1
  2  3  1  0
  2 13  1  0
  4 12  1  0
  4  3  1  0
  5  4  2  0
  6  5  1  0
  6  7  1  0
  7  8  1  0
  7 12  2  0
  8  9  2  0
  9 10  1  0
 11 10  2  0
 12 11  1  0
 13 14  2  0
 16 18  1  0
 16 15  1  6
 17 16  1  0
 19 13  1  0
 18 19  1  1
 20 18  1  0
 20 21  2  0
 22 26  1  0
 22 20  1  0
 23 22  1  0
 24 23  1  0
 24 25  1  0
 25 26  1  0
 26 27  1  6
 27 29  2  0
 27 28  1  0
M  END
$$$$
