WVP.pdb
     RDKit          3D

 29 31  0  0  1  0  0  0  0  0999 V2000
    6.4428  -18.6005   26.6476 N   0  0  0  0  0  0  0  0  0  0  0  0
    7.4401  -17.6213   26.3949 C   0  0  1  0  0  0  0  0  0  0  0  0
    8.8398  -18.0809   26.6692 C   0  0  0  0  0  0  0  0  0  0  0  0
    9.4939  -17.2498   27.7013 C   0  0  0  0  0  0  0  0  0  0  0  0
   10.2340  -17.7193   28.7660 C   0  0  0  0  0  0  0  0  0  0  0  0
   10.6565  -16.7036   29.5089 N   0  0  0  0  0  0  0  0  0  0  0  0
   10.2129  -15.5487   28.9617 C   0  0  0  0  0  0  0  0  0  0  0  0
   10.3756  -14.2384   29.3346 C   0  0  0  0  0  0  0  0  0  0  0  0
    9.8267  -13.2288   28.6026 C   0  0  0  0  0  0  0  0  0  0  0  0
    9.1091  -13.5442   27.4866 C   0  0  0  0  0  0  0  0  0  0  0  0
    8.9257  -14.8443   27.0835 C   0  0  0  0  0  0  0  0  0  0  0  0
    9.4833  -15.8758   27.8282 C   0  0  0  0  0  0  0  0  0  0  0  0
    7.3011  -17.0325   25.0317 C   0  0  0  0  0  0  0  0  0  0  0  0
    6.8210  -17.7634   24.1280 O   0  0  0  0  0  0  0  0  0  0  0  0
    6.7222  -13.0567   24.4486 C   0  0  0  0  0  0  0  0  0  0  0  0
    7.6800  -13.6895   23.4913 C   0  0  2  0  0  0  0  0  0  0  0  0
    7.7149  -12.9739   22.1545 C   0  0  0  0  0  0  0  0  0  0  0  0
    7.5154  -15.1915   23.3111 C   0  0  2  0  0  0  0  0  0  0  0  0
    7.6684  -15.7281   24.7020 N   0  0  0  0  0  0  0  0  0  0  0  0
    8.5284  -15.8171   22.4737 C   0  0  0  0  0  0  0  0  0  0  0  0
    9.7471  -15.7308   22.8705 O   0  0  0  0  0  0  0  0  0  0  0  0
    8.3202  -16.5216   21.2604 N   0  0  0  0  0  0  0  0  0  0  0  0
    7.0734  -16.8432   20.5999 C   0  0  0  0  0  0  0  0  0  0  0  0
    7.4452  -16.6392   19.1328 C   0  0  0  0  0  0  0  0  0  0  0  0
    8.7190  -17.5061   19.1212 C   0  0  0  0  0  0  0  0  0  0  0  0
    9.3634  -17.1457   20.4711 C   0  0  1  0  0  0  0  0  0  0  0  0
   10.5342  -16.2683   20.2402 C   0  0  0  0  0  0  0  0  0  0  0  0
   10.3470  -14.9030   20.1569 O   0  0  0  0  0  0  0  0  0  0  0  0
   11.6854  -16.7252   20.1186 O   0  0  0  0  0  0  0  0  0  0  0  0
  2  1  1  6
  2  3  1  0
  2 13  1  0
  4 12  1  0
  4  3  1  0
  5  4  2  0
  6  5  1  0
  6  7  1  0
  7  8  1  0
  7 12  2  0
  8  9  2  0
  9 10  1  0
 11 10  2  0
 12 11  1  0
 13 14  2  0
 16 18  1  0
 16 15  1  1
 17 16  1  0
 19 13  1  0
 18 19  1  1
 20 18  1  0
 20 21  2  0
 22 26  1  0
 22 20  1  0
 23 22  1  0
 24 23  1  0
 24 25  1  0
 25 26  1  0
 26 27  1  6
 27 29  2  0
 27 28  1  0
M  END
$$$$
