WVP.pdb
     RDKit          3D

 29 31  0  0  1  0  0  0  0  0999 V2000
    6.0102  -18.4146   24.8103 N   0  0  0  0  0  0  0  0  0  0  0  0
    6.4262  -17.0871   24.5241 C   0  0  1  0  0  0  0  0  0  0  0  0
    7.4106  -16.5240   25.5037 C   0  0  0  0  0  0  0  0  0  0  0  0
    6.9172  -15.2715   26.1132 C   0  0  0  0  0  0  0  0  0  0  0  0
    5.6433  -15.0557   26.5954 C   0  0  0  0  0  0  0  0  0  0  0  0
    5.5349  -13.8145   27.0533 N   0  0  0  0  0  0  0  0  0  0  0  0
    6.7203  -13.1836   26.8887 C   0  0  0  0  0  0  0  0  0  0  0  0
    7.1294  -11.9109   27.1972 C   0  0  0  0  0  0  0  0  0  0  0  0
    8.4024  -11.5019   26.9356 C   0  0  0  0  0  0  0  0  0  0  0  0
    9.2682  -12.3839   26.3589 C   0  0  0  0  0  0  0  0  0  0  0  0
    8.8933  -13.6652   26.0363 C   0  0  0  0  0  0  0  0  0  0  0  0
    7.5958  -14.0848   26.3011 C   0  0  0  0  0  0  0  0  0  0  0  0
    6.8963  -16.9487   23.1155 C   0  0  0  0  0  0  0  0  0  0  0  0
    7.1645  -18.0033   22.4850 O   0  0  0  0  0  0  0  0  0  0  0  0
    7.7878  -13.7974   19.3119 C   0  0  0  0  0  0  0  0  0  0  0  0
    7.3799  -14.1725   20.7002 C   0  0  2  0  0  0  0  0  0  0  0  0
    8.0365  -13.2963   21.7496 C   0  0  0  0  0  0  0  0  0  0  0  0
    7.5273  -15.6484   21.0401 C   0  0  2  0  0  0  0  0  0  0  0  0
    7.0543  -15.7279   22.4600 N   0  0  0  0  0  0  0  0  0  0  0  0
    8.8933  -16.1489   20.9925 C   0  0  0  0  0  0  0  0  0  0  0  0
    9.7286  -15.6437   21.8275 O   0  0  0  0  0  0  0  0  0  0  0  0
    9.4106  -17.1436   20.1237 N   0  0  0  0  0  0  0  0  0  0  0  0
    8.6922  -18.0875   19.2946 C   0  0  0  0  0  0  0  0  0  0  0  0
    9.5567  -18.1057   18.0357 C   0  0  0  0  0  0  0  0  0  0  0  0
   10.9128  -18.3608   18.7214 C   0  0  0  0  0  0  0  0  0  0  0  0
   10.8158  -17.4619   19.9663 C   0  0  1  0  0  0  0  0  0  0  0  0
   11.6745  -16.2692   19.7817 C   0  0  0  0  0  0  0  0  0  0  0  0
   12.9698  -16.2912   20.2588 O   0  0  0  0  0  0  0  0  0  0  0  0
   11.2631  -15.2443   19.2079 O   0  0  0  0  0  0  0  0  0  0  0  0
  2  1  1  1
  2  3  1  0
  2 13  1  0
  4 12  1  0
  4  3  1  0
  5  4  2  0
  6  5  1  0
  6  7  1  0
  7  8  1  0
  7 12  2  0
  8  9  2  0
  9 10  1  0
 11 10  2  0
 12 11  1  0
 13 14  2  0
 16 18  1  0
 16 15  1  6
 17 16  1  0
 19 13  1  0
 18 19  1  1
 20 18  1  0
 20 21  2  0
 22 26  1  0
 22 20  1  0
 23 22  1  0
 24 23  1  0
 24 25  1  0
 25 26  1  0
 26 27  1  6
 27 29  2  0
 27 28  1  0
M  END
$$$$
