WVP.pdb
     RDKit          3D

 29 31  0  0  1  0  0  0  0  0999 V2000
    5.7135  -18.3484   24.6437 N   0  0  0  0  0  0  0  0  0  0  0  0
    6.2982  -17.0656   24.4712 C   0  0  1  0  0  0  0  0  0  0  0  0
    7.2043  -16.6450   25.5882 C   0  0  0  0  0  0  0  0  0  0  0  0
    6.8151  -15.3306   26.1402 C   0  0  0  0  0  0  0  0  0  0  0  0
    5.5746  -15.0027   26.6454 C   0  0  0  0  0  0  0  0  0  0  0  0
    5.5637  -13.7340   27.0358 N   0  0  0  0  0  0  0  0  0  0  0  0
    6.7825  -13.1953   26.8024 C   0  0  0  0  0  0  0  0  0  0  0  0
    7.2850  -11.9386   27.0273 C   0  0  0  0  0  0  0  0  0  0  0  0
    8.5734  -11.6321   26.7071 C   0  0  0  0  0  0  0  0  0  0  0  0
    9.3597  -12.6010   26.1565 C   0  0  0  0  0  0  0  0  0  0  0  0
    8.8902  -13.8694   25.9172 C   0  0  0  0  0  0  0  0  0  0  0  0
    7.5769  -14.1846   26.2418 C   0  0  0  0  0  0  0  0  0  0  0  0
    6.9542  -16.9339   23.1383 C   0  0  0  0  0  0  0  0  0  0  0  0
    7.3994  -17.9809   22.6025 O   0  0  0  0  0  0  0  0  0  0  0  0
    8.3564  -13.7956   19.4767 C   0  0  0  0  0  0  0  0  0  0  0  0
    7.7069  -14.1739   20.7687 C   0  0  2  0  0  0  0  0  0  0  0  0
    8.1400  -13.2792   21.9142 C   0  0  0  0  0  0  0  0  0  0  0  0
    7.8196  -15.6448   21.1420 C   0  0  2  0  0  0  0  0  0  0  0  0
    7.1015  -15.7271   22.4549 N   0  0  0  0  0  0  0  0  0  0  0  0
    9.1815  -16.1173   21.3438 C   0  0  0  0  0  0  0  0  0  0  0  0
    9.8653  -15.5465   22.2693 O   0  0  0  0  0  0  0  0  0  0  0  0
    9.8438  -17.1492   20.6308 N   0  0  0  0  0  0  0  0  0  0  0  0
    9.2794  -18.1570   19.7591 C   0  0  0  0  0  0  0  0  0  0  0  0
   10.3330  -18.2293   18.6558 C   0  0  0  0  0  0  0  0  0  0  0  0
   11.5664  -18.4116   19.5612 C   0  0  0  0  0  0  0  0  0  0  0  0
   11.2605  -17.4432   20.7171 C   0  0  1  0  0  0  0  0  0  0  0  0
   12.1210  -16.2437   20.5965 C   0  0  0  0  0  0  0  0  0  0  0  0
   13.3433  -16.2241   21.2380 O   0  0  0  0  0  0  0  0  0  0  0  0
   11.7752  -15.2494   19.9326 O   0  0  0  0  0  0  0  0  0  0  0  0
  2  1  1  1
  2  3  1  0
  2 13  1  0
  4 12  1  0
  4  3  1  0
  5  4  2  0
  6  5  1  0
  6  7  1  0
  7  8  1  0
  7 12  2  0
  8  9  2  0
  9 10  1  0
 11 10  2  0
 12 11  1  0
 13 14  2  0
 16 18  1  0
 16 15  1  6
 17 16  1  0
 19 13  1  0
 18 19  1  1
 20 18  1  0
 20 21  2  0
 22 26  1  0
 22 20  1  0
 23 22  1  0
 24 23  1  0
 24 25  1  0
 25 26  1  0
 26 27  1  6
 27 29  2  0
 27 28  1  0
M  END
$$$$
