WVP.pdb
     RDKit          3D

 29 31  0  0  1  0  0  0  0  0999 V2000
    6.0798  -18.6383   25.2118 N   0  0  0  0  0  0  0  0  0  0  0  0
    6.7253  -17.3824   25.0581 C   0  0  1  0  0  0  0  0  0  0  0  0
    7.5050  -16.9383   26.2583 C   0  0  0  0  0  0  0  0  0  0  0  0
    7.2226  -15.5287   26.6006 C   0  0  0  0  0  0  0  0  0  0  0  0
    6.0077  -14.8917   26.4595 C   0  0  0  0  0  0  0  0  0  0  0  0
    6.1122  -13.6243   26.8401 N   0  0  0  0  0  0  0  0  0  0  0  0
    7.3838  -13.3920   27.2389 C   0  0  0  0  0  0  0  0  0  0  0  0
    7.9996  -12.2645   27.7204 C   0  0  0  0  0  0  0  0  0  0  0  0
    9.3167  -12.2804   28.0686 C   0  0  0  0  0  0  0  0  0  0  0  0
   10.0167  -13.4427   27.9298 C   0  0  0  0  0  0  0  0  0  0  0  0
    9.4331  -14.5902   27.4512 C   0  0  0  0  0  0  0  0  0  0  0  0
    8.0907  -14.5767   27.0946 C   0  0  0  0  0  0  0  0  0  0  0  0
    7.5405  -17.3311   23.8103 C   0  0  0  0  0  0  0  0  0  0  0  0
    7.8884  -18.4250   23.2967 O   0  0  0  0  0  0  0  0  0  0  0  0
    8.2129  -13.6069   21.8840 C   0  0  0  0  0  0  0  0  0  0  0  0
    7.8507  -14.8771   21.1842 C   0  0  2  0  0  0  0  0  0  0  0  0
    6.3530  -15.0238   20.9962 C   0  0  0  0  0  0  0  0  0  0  0  0
    8.4602  -16.1384   21.7786 C   0  0  2  0  0  0  0  0  0  0  0  0
    7.9364  -16.1501   23.1827 N   0  0  0  0  0  0  0  0  0  0  0  0
    9.9144  -16.1387   21.8411 C   0  0  0  0  0  0  0  0  0  0  0  0
   10.5459  -16.1024   20.7230 O   0  0  0  0  0  0  0  0  0  0  0  0
   10.7210  -16.1704   23.0074 N   0  0  0  0  0  0  0  0  0  0  0  0
   10.3103  -16.1815   24.3950 C   0  0  0  0  0  0  0  0  0  0  0  0
   11.3242  -17.1475   25.0043 C   0  0  0  0  0  0  0  0  0  0  0  0
   12.5993  -16.4844   24.4488 C   0  0  0  0  0  0  0  0  0  0  0  0
   12.1691  -16.1114   23.0195 C   0  0  1  0  0  0  0  0  0  0  0  0
   12.8060  -17.0378   22.0551 C   0  0  0  0  0  0  0  0  0  0  0  0
   14.1690  -16.9632   21.8488 O   0  0  0  0  0  0  0  0  0  0  0  0
   12.1483  -17.8842   21.4227 O   0  0  0  0  0  0  0  0  0  0  0  0
  2  1  1  1
  2  3  1  0
  2 13  1  0
  4 12  1  0
  4  3  1  0
  5  4  2  0
  6  5  1  0
  6  7  1  0
  7  8  1  0
  7 12  2  0
  8  9  2  0
  9 10  1  0
 11 10  2  0
 12 11  1  0
 13 14  2  0
 16 18  1  0
 16 15  1  1
 17 16  1  0
 19 13  1  0
 18 19  1  1
 20 18  1  0
 20 21  2  0
 22 26  1  0
 22 20  1  0
 23 22  1  0
 24 23  1  0
 24 25  1  0
 25 26  1  0
 26 27  1  6
 27 29  2  0
 27 28  1  0
M  END
$$$$
