WVP.pdb
     RDKit          3D

 29 31  0  0  1  0  0  0  0  0999 V2000
    5.9798  -18.4388   24.8819 N   0  0  0  0  0  0  0  0  0  0  0  0
    6.5712  -17.1531   24.7617 C   0  0  1  0  0  0  0  0  0  0  0  0
    7.2919  -16.6879   25.9905 C   0  0  0  0  0  0  0  0  0  0  0  0
    6.8380  -15.3468   26.4137 C   0  0  0  0  0  0  0  0  0  0  0  0
    5.5725  -15.0258   26.8576 C   0  0  0  0  0  0  0  0  0  0  0  0
    5.5027  -13.7291   27.1330 N   0  0  0  0  0  0  0  0  0  0  0  0
    6.7062  -13.1644   26.8821 C   0  0  0  0  0  0  0  0  0  0  0  0
    7.1543  -11.8737   27.0062 C   0  0  0  0  0  0  0  0  0  0  0  0
    8.4385  -11.5450   26.6911 C   0  0  0  0  0  0  0  0  0  0  0  0
    9.2758  -12.5261   26.2481 C   0  0  0  0  0  0  0  0  0  0  0  0
    8.8616  -13.8285   26.1115 C   0  0  0  0  0  0  0  0  0  0  0  0
    7.5527  -14.1665   26.4311 C   0  0  0  0  0  0  0  0  0  0  0  0
    7.4215  -17.0498   23.5409 C   0  0  0  0  0  0  0  0  0  0  0  0
    7.8379  -18.1204   23.0291 O   0  0  0  0  0  0  0  0  0  0  0  0
    6.3019  -14.4635   20.7706 C   0  0  0  0  0  0  0  0  0  0  0  0
    7.7796  -14.4846   20.9944 C   0  0  2  0  0  0  0  0  0  0  0  0
    8.5536  -14.0301   19.7719 C   0  0  0  0  0  0  0  0  0  0  0  0
    8.3309  -15.7921   21.5440 C   0  0  2  0  0  0  0  0  0  0  0  0
    7.7793  -15.8448   22.9366 N   0  0  0  0  0  0  0  0  0  0  0  0
    9.7827  -15.8493   21.6329 C   0  0  0  0  0  0  0  0  0  0  0  0
   10.4364  -15.8075   20.5279 O   0  0  0  0  0  0  0  0  0  0  0  0
   10.5649  -15.9422   22.8125 N   0  0  0  0  0  0  0  0  0  0  0  0
   10.1257  -16.0256   24.1888 C   0  0  0  0  0  0  0  0  0  0  0  0
   11.1274  -17.0225   24.7677 C   0  0  0  0  0  0  0  0  0  0  0  0
   12.4133  -16.3318   24.2741 C   0  0  0  0  0  0  0  0  0  0  0  0
   12.0125  -15.8845   22.8576 C   0  0  1  0  0  0  0  0  0  0  0  0
   12.6698  -16.7595   21.8595 C   0  0  0  0  0  0  0  0  0  0  0  0
   14.0408  -16.6985   21.7091 O   0  0  0  0  0  0  0  0  0  0  0  0
   12.0224  -17.5506   21.1497 O   0  0  0  0  0  0  0  0  0  0  0  0
  2  1  1  1
  2  3  1  0
  2 13  1  0
  4 12  1  0
  4  3  1  0
  5  4  2  0
  6  5  1  0
  6  7  1  0
  7  8  1  0
  7 12  2  0
  8  9  2  0
  9 10  1  0
 11 10  2  0
 12 11  1  0
 13 14  2  0
 16 18  1  0
 16 15  1  6
 17 16  1  0
 19 13  1  0
 18 19  1  1
 20 18  1  0
 20 21  2  0
 22 26  1  0
 22 20  1  0
 23 22  1  0
 24 23  1  0
 24 25  1  0
 25 26  1  0
 26 27  1  6
 27 29  2  0
 27 28  1  0
M  END
$$$$
