WVP.pdb
     RDKit          3D

 29 31  0  0  1  0  0  0  0  0999 V2000
    6.1664  -16.9364   25.1082 N   0  0  0  0  0  0  0  0  0  0  0  0
    6.9839  -15.9089   24.5666 C   0  0  1  0  0  0  0  0  0  0  0  0
    8.3171  -15.7640   25.2354 C   0  0  0  0  0  0  0  0  0  0  0  0
    8.2502  -14.8449   26.3907 C   0  0  0  0  0  0  0  0  0  0  0  0
    8.7923  -15.0751   27.6376 C   0  0  0  0  0  0  0  0  0  0  0  0
    8.5279  -14.0541   28.4437 N   0  0  0  0  0  0  0  0  0  0  0  0
    7.8129  -13.1318   27.7594 C   0  0  0  0  0  0  0  0  0  0  0  0
    7.3030  -11.9126   28.1278 C   0  0  0  0  0  0  0  0  0  0  0  0
    6.6087  -11.1469   27.2401 C   0  0  0  0  0  0  0  0  0  0  0  0
    6.4283  -11.6152   25.9720 C   0  0  0  0  0  0  0  0  0  0  0  0
    6.9243  -12.8307   25.5684 C   0  0  0  0  0  0  0  0  0  0  0  0
    7.6318  -13.6140   26.4714 C   0  0  0  0  0  0  0  0  0  0  0  0
    7.1105  -16.0289   23.0855 C   0  0  0  0  0  0  0  0  0  0  0  0
    6.7005  -17.0904   22.5501 O   0  0  0  0  0  0  0  0  0  0  0  0
    7.1226  -12.7640   20.7099 C   0  0  0  0  0  0  0  0  0  0  0  0
    8.0849  -13.8224   20.2763 C   0  0  2  0  0  0  0  0  0  0  0  0
    8.3121  -13.8144   18.7769 C   0  0  0  0  0  0  0  0  0  0  0  0
    7.7745  -15.2237   20.7818 C   0  0  2  0  0  0  0  0  0  0  0  0
    7.6520  -15.0403   22.2642 N   0  0  0  0  0  0  0  0  0  0  0  0
    8.8218  -16.2041   20.5349 C   0  0  0  0  0  0  0  0  0  0  0  0
    9.9588  -15.9959   21.0953 O   0  0  0  0  0  0  0  0  0  0  0  0
    8.7271  -17.3763   19.7421 N   0  0  0  0  0  0  0  0  0  0  0  0
    7.5481  -17.9988   19.1792 C   0  0  0  0  0  0  0  0  0  0  0  0
    8.0636  -18.4463   17.8131 C   0  0  0  0  0  0  0  0  0  0  0  0
    9.3247  -19.1850   18.3011 C   0  0  0  0  0  0  0  0  0  0  0  0
    9.8370  -18.2464   19.4074 C   0  0  1  0  0  0  0  0  0  0  0  0
   11.0325  -17.5187   18.9225 C   0  0  0  0  0  0  0  0  0  0  0  0
   12.2874  -17.9772   19.2704 O   0  0  0  0  0  0  0  0  0  0  0  0
   10.9406  -16.5032   18.2089 O   0  0  0  0  0  0  0  0  0  0  0  0
  2  1  1  1
  2  3  1  0
  2 13  1  0
  4 12  1  0
  4  3  1  0
  5  4  2  0
  6  5  1  0
  6  7  1  0
  7  8  1  0
  7 12  2  0
  8  9  2  0
  9 10  1  0
 11 10  2  0
 12 11  1  0
 13 14  2  0
 16 18  1  0
 16 15  1  6
 17 16  1  0
 19 13  1  0
 18 19  1  1
 20 18  1  0
 20 21  2  0
 22 26  1  0
 22 20  1  0
 23 22  1  0
 24 23  1  0
 24 25  1  0
 25 26  1  0
 26 27  1  6
 27 29  2  0
 27 28  1  0
M  END
$$$$
