WVP.pdb
     RDKit          3D

 29 31  0  0  1  0  0  0  0  0999 V2000
    6.0211  -17.8949   24.2992 N   0  0  0  0  0  0  0  0  0  0  0  0
    6.6535  -16.6591   23.9988 C   0  0  1  0  0  0  0  0  0  0  0  0
    7.7071  -16.2498   24.9827 C   0  0  0  0  0  0  0  0  0  0  0  0
    7.1908  -15.2652   25.9562 C   0  0  0  0  0  0  0  0  0  0  0  0
    6.2776  -15.5223   26.9571 C   0  0  0  0  0  0  0  0  0  0  0  0
    6.0182  -14.4093   27.6324 N   0  0  0  0  0  0  0  0  0  0  0  0
    6.7445  -13.3983   27.1029 C   0  0  0  0  0  0  0  0  0  0  0  0
    6.8411  -12.0705   27.4343 C   0  0  0  0  0  0  0  0  0  0  0  0
    7.6641  -11.2340   26.7421 C   0  0  0  0  0  0  0  0  0  0  0  0
    8.3948  -11.7417   25.7084 C   0  0  0  0  0  0  0  0  0  0  0  0
    8.3232  -13.0653   25.3486 C   0  0  0  0  0  0  0  0  0  0  0  0
    7.4843  -13.9203   26.0520 C   0  0  0  0  0  0  0  0  0  0  0  0
    7.1546  -16.6236   22.5946 C   0  0  0  0  0  0  0  0  0  0  0  0
    7.0038  -17.6586   21.8963 O   0  0  0  0  0  0  0  0  0  0  0  0
    6.1803  -13.6426   20.4493 C   0  0  0  0  0  0  0  0  0  0  0  0
    7.6152  -13.9866   20.2103 C   0  0  2  0  0  0  0  0  0  0  0  0
    8.0779  -13.5923   18.8209 C   0  0  0  0  0  0  0  0  0  0  0  0
    7.9975  -15.4234   20.5342 C   0  0  2  0  0  0  0  0  0  0  0  0
    7.7752  -15.5182   22.0133 N   0  0  0  0  0  0  0  0  0  0  0  0
    9.3888  -15.7567   20.2662 C   0  0  0  0  0  0  0  0  0  0  0  0
    9.7344  -15.8686   19.0341 O   0  0  0  0  0  0  0  0  0  0  0  0
   10.4169  -15.9694   21.2199 N   0  0  0  0  0  0  0  0  0  0  0  0
   10.3296  -15.9681   22.6644 C   0  0  0  0  0  0  0  0  0  0  0  0
   11.2726  -17.1133   23.0270 C   0  0  0  0  0  0  0  0  0  0  0  0
   12.4865  -16.6500   22.1987 C   0  0  0  0  0  0  0  0  0  0  0  0
   11.8196  -16.1531   20.9043 C   0  0  1  0  0  0  0  0  0  0  0  0
   12.0574  -17.1329   19.8193 C   0  0  0  0  0  0  0  0  0  0  0  0
   13.3432  -17.3242   19.3542 O   0  0  0  0  0  0  0  0  0  0  0  0
   11.1311  -17.7912   19.3120 O   0  0  0  0  0  0  0  0  0  0  0  0
  2  1  1  1
  2  3  1  0
  2 13  1  0
  4 12  1  0
  4  3  1  0
  5  4  2  0
  6  5  1  0
  6  7  1  0
  7  8  1  0
  7 12  2  0
  8  9  2  0
  9 10  1  0
 11 10  2  0
 12 11  1  0
 13 14  2  0
 16 18  1  0
 16 15  1  6
 17 16  1  0
 19 13  1  0
 18 19  1  1
 20 18  1  0
 20 21  2  0
 22 26  1  0
 22 20  1  0
 23 22  1  0
 24 23  1  0
 24 25  1  0
 25 26  1  0
 26 27  1  6
 27 29  2  0
 27 28  1  0
M  END
$$$$
