WVP.pdb
     RDKit          3D

 29 31  0  0  1  0  0  0  0  0999 V2000
    6.3967  -18.9111   26.9967 N   0  0  0  0  0  0  0  0  0  0  0  0
    7.3624  -17.8711   26.9426 C   0  0  1  0  0  0  0  0  0  0  0  0
    8.7830  -18.3441   27.0044 C   0  0  0  0  0  0  0  0  0  0  0  0
    9.5455  -17.6429   28.0583 C   0  0  0  0  0  0  0  0  0  0  0  0
   10.0514  -18.2166   29.2057 C   0  0  0  0  0  0  0  0  0  0  0  0
   10.6619  -17.2967   29.9427 N   0  0  0  0  0  0  0  0  0  0  0  0
   10.5775  -16.1040   29.3098 C   0  0  0  0  0  0  0  0  0  0  0  0
   11.0436  -14.8573   29.6425 C   0  0  0  0  0  0  0  0  0  0  0  0
   10.8351  -13.7899   28.8219 C   0  0  0  0  0  0  0  0  0  0  0  0
   10.1516  -13.9826   27.6575 C   0  0  0  0  0  0  0  0  0  0  0  0
    9.6706  -15.2162   27.2925 C   0  0  0  0  0  0  0  0  0  0  0  0
    9.8809  -16.3062   28.1274 C   0  0  0  0  0  0  0  0  0  0  0  0
    7.1256  -16.9592   25.7865 C   0  0  0  0  0  0  0  0  0  0  0  0
    6.5718  -17.4437   24.7666 O   0  0  0  0  0  0  0  0  0  0  0  0
    6.3583  -12.9276   26.0871 C   0  0  0  0  0  0  0  0  0  0  0  0
    7.4040  -13.3364   25.1004 C   0  0  2  0  0  0  0  0  0  0  0  0
    7.5603  -12.3296   23.9770 C   0  0  0  0  0  0  0  0  0  0  0  0
    7.2635  -14.7519   24.5596 C   0  0  2  0  0  0  0  0  0  0  0  0
    7.4785  -15.6100   25.7695 N   0  0  0  0  0  0  0  0  0  0  0  0
    8.2575  -15.1225   23.5630 C   0  0  0  0  0  0  0  0  0  0  0  0
    9.4802  -15.1804   23.9527 O   0  0  0  0  0  0  0  0  0  0  0  0
    8.0266  -15.4344   22.1987 N   0  0  0  0  0  0  0  0  0  0  0  0
    6.7702  -15.5088   21.4846 C   0  0  0  0  0  0  0  0  0  0  0  0
    7.1493  -14.8966   20.1378 C   0  0  0  0  0  0  0  0  0  0  0  0
    8.3936  -15.7625   19.8616 C   0  0  0  0  0  0  0  0  0  0  0  0
    9.0489  -15.8334   21.2519 C   0  0  1  0  0  0  0  0  0  0  0  0
   10.2483  -14.9647   21.2768 C   0  0  0  0  0  0  0  0  0  0  0  0
   11.3644  -15.3363   20.5540 O   0  0  0  0  0  0  0  0  0  0  0  0
   10.2814  -13.9067   21.9312 O   0  0  0  0  0  0  0  0  0  0  0  0
  2  1  1  6
  2  3  1  0
  2 13  1  0
  4 12  1  0
  4  3  1  0
  5  4  2  0
  6  5  1  0
  6  7  1  0
  7  8  1  0
  7 12  2  0
  8  9  2  0
  9 10  1  0
 11 10  2  0
 12 11  1  0
 13 14  2  0
 16 18  1  0
 16 15  1  6
 17 16  1  0
 19 13  1  0
 18 19  1  1
 20 18  1  0
 20 21  2  0
 22 26  1  0
 22 20  1  0
 23 22  1  0
 24 23  1  0
 24 25  1  0
 25 26  1  0
 26 27  1  6
 27 29  2  0
 27 28  1  0
M  END
$$$$
