WVP.pdb
     RDKit          3D

 29 31  0  0  1  0  0  0  0  0999 V2000
    6.3287  -17.3811   24.7868 N   0  0  0  0  0  0  0  0  0  0  0  0
    6.8248  -16.1531   24.2737 C   0  0  1  0  0  0  0  0  0  0  0  0
    8.0372  -15.6323   24.9840 C   0  0  0  0  0  0  0  0  0  0  0  0
    7.6721  -14.8482   26.1822 C   0  0  0  0  0  0  0  0  0  0  0  0
    7.4014  -15.3635   27.4324 C   0  0  0  0  0  0  0  0  0  0  0  0
    7.0867  -14.3828   28.2697 N   0  0  0  0  0  0  0  0  0  0  0  0
    7.1405  -13.2064   27.6038 C   0  0  0  0  0  0  0  0  0  0  0  0
    6.9119  -11.9155   28.0082 C   0  0  0  0  0  0  0  0  0  0  0  0
    7.0389  -10.8759   27.1368 C   0  0  0  0  0  0  0  0  0  0  0  0
    7.3994  -11.1414   25.8485 C   0  0  0  0  0  0  0  0  0  0  0  0
    7.6360  -12.4209   25.4088 C   0  0  0  0  0  0  0  0  0  0  0  0
    7.5065  -13.4829   26.2948 C   0  0  0  0  0  0  0  0  0  0  0  0
    7.0237  -16.2133   22.7969 C   0  0  0  0  0  0  0  0  0  0  0  0
    6.6171  -17.2406   22.1960 O   0  0  0  0  0  0  0  0  0  0  0  0
    7.7637  -13.6246   18.6328 C   0  0  0  0  0  0  0  0  0  0  0  0
    7.6792  -13.8392   20.1096 C   0  0  2  0  0  0  0  0  0  0  0  0
    8.6670  -12.9788   20.8737 C   0  0  0  0  0  0  0  0  0  0  0  0
    7.7496  -15.2923   20.5562 C   0  0  2  0  0  0  0  0  0  0  0  0
    7.6287  -15.2047   22.0474 N   0  0  0  0  0  0  0  0  0  0  0  0
    9.0034  -15.9630   20.2452 C   0  0  0  0  0  0  0  0  0  0  0  0
   10.0857  -15.3695   20.6006 O   0  0  0  0  0  0  0  0  0  0  0  0
    9.1671  -17.2114   19.5921 N   0  0  0  0  0  0  0  0  0  0  0  0
    8.1538  -18.1508   19.1621 C   0  0  0  0  0  0  0  0  0  0  0  0
    8.7268  -18.6269   17.8289 C   0  0  0  0  0  0  0  0  0  0  0  0
   10.1373  -18.9922   18.3303 C   0  0  0  0  0  0  0  0  0  0  0  0
   10.4416  -17.8362   19.2989 C   0  0  1  0  0  0  0  0  0  0  0  0
   11.4212  -16.9160   18.6765 C   0  0  0  0  0  0  0  0  0  0  0  0
   12.7705  -17.1689   18.8229 O   0  0  0  0  0  0  0  0  0  0  0  0
   11.0646  -15.9185   18.0233 O   0  0  0  0  0  0  0  0  0  0  0  0
  2  1  1  1
  2  3  1  0
  2 13  1  0
  4 12  1  0
  4  3  1  0
  5  4  2  0
  6  5  1  0
  6  7  1  0
  7  8  1  0
  7 12  2  0
  8  9  2  0
  9 10  1  0
 11 10  2  0
 12 11  1  0
 13 14  2  0
 16 18  1  0
 16 15  1  6
 17 16  1  0
 19 13  1  0
 18 19  1  1
 20 18  1  0
 20 21  2  0
 22 26  1  0
 22 20  1  0
 23 22  1  0
 24 23  1  0
 24 25  1  0
 25 26  1  0
 26 27  1  6
 27 29  2  0
 27 28  1  0
M  END
$$$$
