WVP.pdb
     RDKit          3D

 29 31  0  0  1  0  0  0  0  0999 V2000
    6.5223  -17.9789   26.0754 N   0  0  0  0  0  0  0  0  0  0  0  0
    7.3346  -16.9331   25.5619 C   0  0  1  0  0  0  0  0  0  0  0  0
    8.8078  -17.1846   25.6732 C   0  0  0  0  0  0  0  0  0  0  0  0
    9.3376  -16.7495   26.9823 C   0  0  0  0  0  0  0  0  0  0  0  0
    9.7254  -17.5800   28.0126 C   0  0  0  0  0  0  0  0  0  0  0  0
   10.1301  -16.8582   29.0505 N   0  0  0  0  0  0  0  0  0  0  0  0
   10.0225  -15.5463   28.7381 C   0  0  0  0  0  0  0  0  0  0  0  0
   10.3118  -14.4100   29.4504 C   0  0  0  0  0  0  0  0  0  0  0  0
   10.1214  -13.1753   28.9067 C   0  0  0  0  0  0  0  0  0  0  0  0
    9.6359  -13.0874   27.6352 C   0  0  0  0  0  0  0  0  0  0  0  0
    9.3353  -14.2033   26.8930 C   0  0  0  0  0  0  0  0  0  0  0  0
    9.5276  -15.4634   27.4449 C   0  0  0  0  0  0  0  0  0  0  0  0
    6.9344  -16.5545   24.1761 C   0  0  0  0  0  0  0  0  0  0  0  0
    5.8094  -16.0140   24.0221 O   0  0  0  0  0  0  0  0  0  0  0  0
    6.7006  -14.0296   23.2705 C   0  0  0  0  0  0  0  0  0  0  0  0
    7.7637  -14.5018   22.3318 C   0  0  2  0  0  0  0  0  0  0  0  0
    8.0018  -13.5271   21.1946 C   0  0  0  0  0  0  0  0  0  0  0  0
    7.5849  -15.9220   21.8154 C   0  0  2  0  0  0  0  0  0  0  0  0
    7.7285  -16.7618   23.0484 N   0  0  0  0  0  0  0  0  0  0  0  0
    8.5943  -16.3517   20.8586 C   0  0  0  0  0  0  0  0  0  0  0  0
    9.8062  -15.9941   21.0898 O   0  0  0  0  0  0  0  0  0  0  0  0
    8.3903  -17.1316   19.6916 N   0  0  0  0  0  0  0  0  0  0  0  0
    7.1490  -17.6264   19.1359 C   0  0  0  0  0  0  0  0  0  0  0  0
    7.3943  -17.4494   17.6389 C   0  0  0  0  0  0  0  0  0  0  0  0
    8.7587  -18.1620   17.5685 C   0  0  0  0  0  0  0  0  0  0  0  0
    9.4449  -17.6664   18.8534 C   0  0  1  0  0  0  0  0  0  0  0  0
   10.4845  -16.6707   18.5048 C   0  0  0  0  0  0  0  0  0  0  0  0
   11.7669  -17.1030   18.2318 O   0  0  0  0  0  0  0  0  0  0  0  0
   10.2371  -15.4522   18.4502 O   0  0  0  0  0  0  0  0  0  0  0  0
  2  1  1  6
  2  3  1  0
  2 13  1  0
  4 12  1  0
  4  3  1  0
  5  4  2  0
  6  5  1  0
  6  7  1  0
  7  8  1  0
  7 12  2  0
  8  9  2  0
  9 10  1  0
 11 10  2  0
 12 11  1  0
 13 14  2  0
 16 18  1  0
 16 15  1  6
 17 16  1  0
 19 13  1  0
 18 19  1  1
 20 18  1  0
 20 21  2  0
 22 26  1  0
 22 20  1  0
 23 22  1  0
 24 23  1  0
 24 25  1  0
 25 26  1  0
 26 27  1  6
 27 29  2  0
 27 28  1  0
M  END
$$$$
