WVP.pdb
     RDKit          3D

 29 31  0  0  1  0  0  0  0  0999 V2000
    5.5954  -18.1908   24.4931 N   0  0  0  0  0  0  0  0  0  0  0  0
    6.2726  -16.9516   24.3411 C   0  0  1  0  0  0  0  0  0  0  0  0
    7.0016  -16.4922   25.5671 C   0  0  0  0  0  0  0  0  0  0  0  0
    6.4428  -15.2290   26.0922 C   0  0  0  0  0  0  0  0  0  0  0  0
    5.1068  -14.9673   26.3123 C   0  0  0  0  0  0  0  0  0  0  0  0
    4.9549  -13.7291   26.7661 N   0  0  0  0  0  0  0  0  0  0  0  0
    6.1721  -13.1457   26.8578 C   0  0  0  0  0  0  0  0  0  0  0  0
    6.5581  -11.8955   27.2705 C   0  0  0  0  0  0  0  0  0  0  0  0
    7.8722  -11.5360   27.2799 C   0  0  0  0  0  0  0  0  0  0  0  0
    8.8029  -12.4450   26.8703 C   0  0  0  0  0  0  0  0  0  0  0  0
    8.4528  -13.7051   26.4506 C   0  0  0  0  0  0  0  0  0  0  0  0
    7.1137  -14.0742   26.4391 C   0  0  0  0  0  0  0  0  0  0  0  0
    7.1486  -16.9471   23.1341 C   0  0  0  0  0  0  0  0  0  0  0  0
    7.5573  -18.0571   22.7071 O   0  0  0  0  0  0  0  0  0  0  0  0
    8.9063  -13.3960   21.4967 C   0  0  0  0  0  0  0  0  0  0  0  0
    8.2417  -14.4302   20.6464 C   0  0  2  0  0  0  0  0  0  0  0  0
    6.8161  -14.0540   20.2913 C   0  0  0  0  0  0  0  0  0  0  0  0
    8.3224  -15.8534   21.1790 C   0  0  2  0  0  0  0  0  0  0  0  0
    7.5381  -15.7930   22.4547 N   0  0  0  0  0  0  0  0  0  0  0  0
    9.6681  -16.3064   21.4994 C   0  0  0  0  0  0  0  0  0  0  0  0
   10.2797  -15.6920   22.4473 O   0  0  0  0  0  0  0  0  0  0  0  0
   10.3858  -17.3619   20.8809 N   0  0  0  0  0  0  0  0  0  0  0  0
    9.8963  -18.3937   19.9919 C   0  0  0  0  0  0  0  0  0  0  0  0
   11.0453  -18.5033   18.9919 C   0  0  0  0  0  0  0  0  0  0  0  0
   12.1901  -18.6627   20.0108 C   0  0  0  0  0  0  0  0  0  0  0  0
   11.7868  -17.6585   21.1045 C   0  0  1  0  0  0  0  0  0  0  0  0
   12.6625  -16.4664   21.0269 C   0  0  0  0  0  0  0  0  0  0  0  0
   13.9795  -16.5707   21.4276 O   0  0  0  0  0  0  0  0  0  0  0  0
   12.2464  -15.3699   20.6104 O   0  0  0  0  0  0  0  0  0  0  0  0
  2  1  1  1
  2  3  1  0
  2 13  1  0
  4 12  1  0
  4  3  1  0
  5  4  2  0
  6  5  1  0
  6  7  1  0
  7  8  1  0
  7 12  2  0
  8  9  2  0
  9 10  1  0
 11 10  2  0
 12 11  1  0
 13 14  2  0
 16 18  1  0
 16 15  1  1
 17 16  1  0
 19 13  1  0
 18 19  1  1
 20 18  1  0
 20 21  2  0
 22 26  1  0
 22 20  1  0
 23 22  1  0
 24 23  1  0
 24 25  1  0
 25 26  1  0
 26 27  1  6
 27 29  2  0
 27 28  1  0
M  END
$$$$
