WVP.pdb
     RDKit          3D

 29 31  0  0  1  0  0  0  0  0999 V2000
    9.2919  -18.3456   25.6480 N   0  0  0  0  0  0  0  0  0  0  0  0
    8.6541  -17.1001   25.4043 C   0  0  1  0  0  0  0  0  0  0  0  0
    8.4086  -16.2812   26.6351 C   0  0  0  0  0  0  0  0  0  0  0  0
    7.3212  -15.3017   26.4300 C   0  0  0  0  0  0  0  0  0  0  0  0
    6.0175  -15.6015   26.0949 C   0  0  0  0  0  0  0  0  0  0  0  0
    5.3126  -14.4839   25.9674 N   0  0  0  0  0  0  0  0  0  0  0  0
    6.1215  -13.4275   26.2124 C   0  0  0  0  0  0  0  0  0  0  0  0
    5.8848  -12.0762   26.2162 C   0  0  0  0  0  0  0  0  0  0  0  0
    6.8798  -11.1918   26.5063 C   0  0  0  0  0  0  0  0  0  0  0  0
    8.1221  -11.6752   26.7948 C   0  0  0  0  0  0  0  0  0  0  0  0
    8.3952  -13.0213   26.8002 C   0  0  0  0  0  0  0  0  0  0  0  0
    7.3830  -13.9252   26.5040 C   0  0  0  0  0  0  0  0  0  0  0  0
    9.3551  -16.3205   24.3436 C   0  0  0  0  0  0  0  0  0  0  0  0
   10.3231  -15.5988   24.6952 O   0  0  0  0  0  0  0  0  0  0  0  0
   11.1876  -17.5020   21.5321 C   0  0  0  0  0  0  0  0  0  0  0  0
   11.1058  -16.0643   21.9327 C   0  0  2  0  0  0  0  0  0  0  0  0
   11.8633  -15.7802   23.2155 C   0  0  0  0  0  0  0  0  0  0  0  0
    9.6989  -15.4863   21.9810 C   0  0  2  0  0  0  0  0  0  0  0  0
    9.0041  -16.3448   22.9941 N   0  0  0  0  0  0  0  0  0  0  0  0
    8.9608  -15.5800   20.7300 C   0  0  0  0  0  0  0  0  0  0  0  0
    8.9010  -16.7363   20.1737 O   0  0  0  0  0  0  0  0  0  0  0  0
    8.2899  -14.5306   20.0514 N   0  0  0  0  0  0  0  0  0  0  0  0
    7.9623  -13.2043   20.5288 C   0  0  0  0  0  0  0  0  0  0  0  0
    8.2196  -12.3604   19.2823 C   0  0  0  0  0  0  0  0  0  0  0  0
    7.3811  -13.1931   18.2936 C   0  0  0  0  0  0  0  0  0  0  0  0
    7.7132  -14.6320   18.7255 C   0  0  1  0  0  0  0  0  0  0  0  0
    8.6223  -15.2480   17.7316 C   0  0  0  0  0  0  0  0  0  0  0  0
    8.0858  -15.8618   16.6173 O   0  0  0  0  0  0  0  0  0  0  0  0
    9.8590  -15.2295   17.8702 O   0  0  0  0  0  0  0  0  0  0  0  0
  2  1  1  1
  2  3  1  0
  2 13  1  0
  4 12  1  0
  4  3  1  0
  5  4  2  0
  6  5  1  0
  6  7  1  0
  7  8  1  0
  7 12  2  0
  8  9  2  0
  9 10  1  0
 11 10  2  0
 12 11  1  0
 13 14  2  0
 16 18  1  0
 16 15  1  1
 17 16  1  0
 19 13  1  0
 18 19  1  1
 20 18  1  0
 20 21  2  0
 22 26  1  0
 22 20  1  0
 23 22  1  0
 24 23  1  0
 24 25  1  0
 25 26  1  0
 26 27  1  6
 27 29  2  0
 27 28  1  0
M  END
$$$$
