WVP.pdb
     RDKit          3D

 29 31  0  0  1  0  0  0  0  0999 V2000
    8.6935  -18.1857   25.4168 N   0  0  0  0  0  0  0  0  0  0  0  0
    7.3885  -17.6696   25.6361 C   0  0  1  0  0  0  0  0  0  0  0  0
    7.0576  -17.4197   27.0762 C   0  0  0  0  0  0  0  0  0  0  0  0
    8.2573  -17.0468   27.8543 C   0  0  0  0  0  0  0  0  0  0  0  0
    9.0231  -17.9033   28.6170 C   0  0  0  0  0  0  0  0  0  0  0  0
   10.0109  -17.2340   29.1986 N   0  0  0  0  0  0  0  0  0  0  0  0
    9.9263  -15.9323   28.8400 C   0  0  0  0  0  0  0  0  0  0  0  0
   10.6980  -14.8438   29.1594 C   0  0  0  0  0  0  0  0  0  0  0  0
   10.4103  -13.6102   28.6578 C   0  0  0  0  0  0  0  0  0  0  0  0
    9.3365  -13.4746   27.8280 C   0  0  0  0  0  0  0  0  0  0  0  0
    8.5420  -14.5418   27.4870 C   0  0  0  0  0  0  0  0  0  0  0  0
    8.8322  -15.8006   27.9975 C   0  0  0  0  0  0  0  0  0  0  0  0
    7.1179  -16.4758   24.7841 C   0  0  0  0  0  0  0  0  0  0  0  0
    6.2265  -15.6763   25.1684 O   0  0  0  0  0  0  0  0  0  0  0  0
    9.2504  -13.7638   24.2477 C   0  0  0  0  0  0  0  0  0  0  0  0
    7.8279  -13.8322   23.7939 C   0  0  2  0  0  0  0  0  0  0  0  0
    6.8527  -13.8348   24.9555 C   0  0  0  0  0  0  0  0  0  0  0  0
    7.5174  -14.9490   22.8080 C   0  0  2  0  0  0  0  0  0  0  0  0
    7.7906  -16.1947   23.5952 N   0  0  0  0  0  0  0  0  0  0  0  0
    8.3666  -14.9687   21.6259 C   0  0  0  0  0  0  0  0  0  0  0  0
    9.4981  -15.5678   21.7310 O   0  0  0  0  0  0  0  0  0  0  0  0
    8.0820  -14.4002   20.3581 N   0  0  0  0  0  0  0  0  0  0  0  0
    6.8867  -13.7124   19.9192 C   0  0  0  0  0  0  0  0  0  0  0  0
    7.4764  -12.5984   19.0569 C   0  0  0  0  0  0  0  0  0  0  0  0
    8.3825  -13.4790   18.1750 C   0  0  0  0  0  0  0  0  0  0  0  0
    8.9450  -14.4827   19.1965 C   0  0  1  0  0  0  0  0  0  0  0  0
   10.3591  -14.1511   19.4866 C   0  0  0  0  0  0  0  0  0  0  0  0
   11.3529  -14.6820   18.6887 O   0  0  0  0  0  0  0  0  0  0  0  0
   10.6803  -13.4063   20.4305 O   0  0  0  0  0  0  0  0  0  0  0  0
  2  1  1  1
  2  3  1  0
  2 13  1  0
  4 12  1  0
  4  3  1  0
  5  4  2  0
  6  5  1  0
  6  7  1  0
  7  8  1  0
  7 12  2  0
  8  9  2  0
  9 10  1  0
 11 10  2  0
 12 11  1  0
 13 14  2  0
 16 18  1  0
 16 15  1  1
 17 16  1  0
 19 13  1  0
 18 19  1  1
 20 18  1  0
 20 21  2  0
 22 26  1  0
 22 20  1  0
 23 22  1  0
 24 23  1  0
 24 25  1  0
 25 26  1  0
 26 27  1  1
 27 29  2  0
 27 28  1  0
M  END
$$$$
