YEK.pdb
     RDKit          3D

 31 31  0  0  1  0  0  0  0  0999 V2000
   17.8742  -15.2063  -23.1512 O   0  0  0  0  0  0  0  0  0  0  0  0
   18.2950  -14.3329  -22.1549 C   0  0  0  0  0  0  0  0  0  0  0  0
   19.4678  -13.6016  -22.2769 C   0  0  0  0  0  0  0  0  0  0  0  0
   19.8768  -12.7364  -21.2810 C   0  0  0  0  0  0  0  0  0  0  0  0
   19.1412  -12.5617  -20.1266 C   0  0  0  0  0  0  0  0  0  0  0  0
   19.5675  -11.6337  -19.0419 C   0  0  0  0  0  0  0  0  0  0  0  0
   20.3208  -12.4048  -17.9916 C   0  0  2  0  0  0  0  0  0  0  0  0
   19.4417  -13.1516  -17.1249 N   0  0  0  0  0  0  0  0  0  0  0  0
   21.1268  -11.4056  -17.1801 C   0  0  0  0  0  0  0  0  0  0  0  0
   20.6132  -10.8499  -16.1854 O   0  0  0  0  0  0  0  0  0  0  0  0
   17.9710  -13.2928  -20.0073 C   0  0  0  0  0  0  0  0  0  0  0  0
   17.5605  -14.1585  -21.0024 C   0  0  0  0  0  0  0  0  0  0  0  0
   22.4549  -11.1075  -17.5516 N   0  0  0  0  0  0  0  0  0  0  0  0
   23.3432  -10.2604  -16.8385 C   0  0  1  0  0  0  0  0  0  0  0  0
   24.7285  -10.8044  -16.5822 C   0  0  0  0  0  0  0  0  0  0  0  0
   25.6288   -9.8997  -15.8161 C   0  0  0  0  0  0  0  0  0  0  0  0
   27.0034  -10.4697  -15.6504 C   0  0  0  0  0  0  0  0  0  0  0  0
   27.3209  -11.5862  -16.1175 O   0  0  0  0  0  0  0  0  0  0  0  0
   23.3033   -8.8472  -17.2481 C   0  0  0  0  0  0  0  0  0  0  0  0
   23.5914   -8.4783  -18.4298 O   0  0  0  0  0  0  0  0  0  0  0  0
   27.9770   -9.7666  -14.9648 O   0  0  0  0  0  0  0  0  0  0  0  0
   22.9440   -7.7895  -16.3717 N   0  0  0  0  0  0  0  0  0  0  0  0
   22.9647   -6.3935  -16.7947 C   0  0  1  0  0  0  0  0  0  0  0  0
   21.9927   -5.6546  -15.9145 C   0  0  0  0  0  0  0  0  0  0  0  0
   21.9161   -4.1862  -16.1280 C   0  0  0  0  0  0  0  0  0  0  0  0
   20.8922   -3.5492  -15.1710 C   0  0  0  0  0  0  0  0  0  0  0  0
   20.9463   -2.0612  -15.4095 C   0  0  0  0  0  0  0  0  0  0  0  0
   20.0309   -1.4446  -14.4416 N   0  0  0  0  0  0  0  0  0  0  0  0
   24.3126   -5.8374  -16.6090 C   0  0  0  0  0  0  0  0  0  0  0  0
   24.7571   -4.9846  -17.4192 O   0  0  0  0  0  0  0  0  0  0  0  0
   25.0690   -6.2779  -15.5251 O   0  0  0  0  0  0  0  0  0  0  0  0
  2  1  1  0
  3  2  2  0
  4  3  1  0
  5 11  1  0
  5  4  2  0
  6  5  1  0
  7  6  1  0
  7  8  1  1
  9  7  1  0
  9 10  2  0
 11 12  2  0
 12  2  1  0
 13  9  1  0
 14 13  1  0
 14 15  1  6
 15 16  1  0
 17 21  1  0
 17 16  1  0
 18 17  2  0
 19 14  1  0
 20 19  2  0
 22 19  1  0
 23 22  1  0
 23 24  1  1
 25 24  1  0
 26 27  1  0
 26 25  1  0
 28 27  1  0
 29 23  1  0
 29 31  1  0
 30 29  2  0
M  END
$$$$
