YEK.pdb
     RDKit          3D

 31 31  0  0  1  0  0  0  0  0999 V2000
   30.5494  -21.3929   -9.4139 O   0  0  0  0  0  0  0  0  0  0  0  0
   29.4462  -21.0964  -10.2061 C   0  0  0  0  0  0  0  0  0  0  0  0
   28.1783  -20.9508   -9.6616 C   0  0  0  0  0  0  0  0  0  0  0  0
   27.0888  -20.6559  -10.4577 C   0  0  0  0  0  0  0  0  0  0  0  0
   27.2121  -20.4939  -11.8226 C   0  0  0  0  0  0  0  0  0  0  0  0
   26.0481  -20.1766  -12.6965 C   0  0  0  0  0  0  0  0  0  0  0  0
   25.0905  -21.3377  -12.6948 C   0  0  2  0  0  0  0  0  0  0  0  0
   25.7186  -22.5658  -13.1179 N   0  0  0  0  0  0  0  0  0  0  0  0
   23.9460  -20.9887  -13.6303 C   0  0  0  0  0  0  0  0  0  0  0  0
   23.9640  -21.3872  -14.8148 O   0  0  0  0  0  0  0  0  0  0  0  0
   28.4786  -20.6397  -12.3634 C   0  0  0  0  0  0  0  0  0  0  0  0
   29.5693  -20.9345  -11.5687 C   0  0  0  0  0  0  0  0  0  0  0  0
   22.8644  -20.2152  -13.1589 N   0  0  0  0  0  0  0  0  0  0  0  0
   21.6067  -20.0733  -13.8015 C   0  0  1  0  0  0  0  0  0  0  0  0
   20.3910  -20.0764  -12.9053 C   0  0  0  0  0  0  0  0  0  0  0  0
   19.7674  -21.4115  -12.6944 C   0  0  0  0  0  0  0  0  0  0  0  0
   18.5808  -21.3490  -11.7834 C   0  0  0  0  0  0  0  0  0  0  0  0
   18.2200  -20.2846  -11.2337 O   0  0  0  0  0  0  0  0  0  0  0  0
   21.5772  -19.0662  -14.8745 C   0  0  0  0  0  0  0  0  0  0  0  0
   22.0614  -17.9011  -14.7206 O   0  0  0  0  0  0  0  0  0  0  0  0
   17.8377  -22.4850  -11.5195 O   0  0  0  0  0  0  0  0  0  0  0  0
   21.0143  -19.3059  -16.1558 N   0  0  0  0  0  0  0  0  0  0  0  0
   21.1117  -18.3324  -17.2380 C   0  0  1  0  0  0  0  0  0  0  0  0
   21.4548  -19.0988  -18.4871 C   0  0  0  0  0  0  0  0  0  0  0  0
   21.6166  -18.2851  -19.7198 C   0  0  0  0  0  0  0  0  0  0  0  0
   21.8462  -19.1902  -20.9438 C   0  0  0  0  0  0  0  0  0  0  0  0
   22.0648  -18.2749  -22.1221 C   0  0  0  0  0  0  0  0  0  0  0  0
   22.2329  -19.1350  -23.2997 N   0  0  0  0  0  0  0  0  0  0  0  0
   19.8183  -17.6578  -17.4181 C   0  0  0  0  0  0  0  0  0  0  0  0
   18.7732  -18.1649  -16.9366 O   0  0  0  0  0  0  0  0  0  0  0  0
   19.7879  -16.4590  -18.1273 O   0  0  0  0  0  0  0  0  0  0  0  0
  2  1  1  0
  3  2  2  0
  4  3  1  0
  5 11  1  0
  5  4  2  0
  6  5  1  0
  7  6  1  0
  7  8  1  6
  9  7  1  0
  9 10  2  0
 11 12  2  0
 12  2  1  0
 13  9  1  0
 14 13  1  0
 14 15  1  1
 15 16  1  0
 17 21  1  0
 17 16  1  0
 18 17  2  0
 19 14  1  0
 20 19  2  0
 22 19  1  0
 23 22  1  0
 23 24  1  6
 25 24  1  0
 26 27  1  0
 26 25  1  0
 28 27  1  0
 29 23  1  0
 29 31  1  0
 30 29  2  0
M  END
$$$$
