YEK.pdb
     RDKit          3D

 31 31  0  0  1  0  0  0  0  0999 V2000
   28.8210  -19.5883   -3.2802 O   0  0  0  0  0  0  0  0  0  0  0  0
   28.3125  -19.6122   -4.5738 C   0  0  0  0  0  0  0  0  0  0  0  0
   27.4276  -20.5969   -4.9890 C   0  0  0  0  0  0  0  0  0  0  0  0
   26.9282  -20.6113   -6.2767 C   0  0  0  0  0  0  0  0  0  0  0  0
   27.2852  -19.6523   -7.2025 C   0  0  0  0  0  0  0  0  0  0  0  0
   26.7572  -19.6528   -8.5956 C   0  0  0  0  0  0  0  0  0  0  0  0
   27.1873  -20.9153   -9.2928 C   0  0  2  0  0  0  0  0  0  0  0  0
   28.6225  -21.0228   -9.3945 N   0  0  0  0  0  0  0  0  0  0  0  0
   26.5660  -20.9075  -10.6786 C   0  0  0  0  0  0  0  0  0  0  0  0
   27.0120  -20.1402  -11.5586 O   0  0  0  0  0  0  0  0  0  0  0  0
   28.1685  -18.6706   -6.7855 C   0  0  0  0  0  0  0  0  0  0  0  0
   28.6689  -18.6546   -5.4980 C   0  0  0  0  0  0  0  0  0  0  0  0
   25.4862  -21.7677  -10.9691 N   0  0  0  0  0  0  0  0  0  0  0  0
   24.8091  -21.8544  -12.2138 C   0  0  1  0  0  0  0  0  0  0  0  0
   24.7764  -23.2160  -12.8665 C   0  0  0  0  0  0  0  0  0  0  0  0
   24.1570  -23.2512  -14.2196 C   0  0  0  0  0  0  0  0  0  0  0  0
   24.9783  -24.0264  -15.2027 C   0  0  0  0  0  0  0  0  0  0  0  0
   25.2106  -23.6015  -16.3563 O   0  0  0  0  0  0  0  0  0  0  0  0
   23.5389  -21.1131  -12.2732 C   0  0  0  0  0  0  0  0  0  0  0  0
   22.6676  -21.1915  -11.3512 O   0  0  0  0  0  0  0  0  0  0  0  0
   25.5123  -25.2544  -14.8575 O   0  0  0  0  0  0  0  0  0  0  0  0
   23.1828  -20.2582  -13.3494 N   0  0  0  0  0  0  0  0  0  0  0  0
   21.8293  -19.7374  -13.5084 C   0  0  1  0  0  0  0  0  0  0  0  0
   21.7116  -19.2494  -14.9274 C   0  0  0  0  0  0  0  0  0  0  0  0
   20.7416  -18.1466  -15.1524 C   0  0  0  0  0  0  0  0  0  0  0  0
   20.8245  -17.6354  -16.6021 C   0  0  0  0  0  0  0  0  0  0  0  0
   19.7600  -16.5773  -16.7480 C   0  0  0  0  0  0  0  0  0  0  0  0
   19.8968  -16.0240  -18.1008 N   0  0  0  0  0  0  0  0  0  0  0  0
   20.8528  -20.8115  -13.2783 C   0  0  0  0  0  0  0  0  0  0  0  0
   21.0555  -21.9572  -13.7553 O   0  0  0  0  0  0  0  0  0  0  0  0
   19.7148  -20.5247  -12.5275 O   0  0  0  0  0  0  0  0  0  0  0  0
  2  1  1  0
  3  2  2  0
  4  3  1  0
  5 11  1  0
  5  4  2  0
  6  5  1  0
  7  6  1  0
  7  8  1  6
  9  7  1  0
  9 10  2  0
 11 12  2  0
 12  2  1  0
 13  9  1  0
 14 13  1  0
 14 15  1  1
 15 16  1  0
 17 21  1  0
 17 16  1  0
 18 17  2  0
 19 14  1  0
 20 19  2  0
 22 19  1  0
 23 22  1  0
 23 24  1  6
 25 24  1  0
 26 27  1  0
 26 25  1  0
 28 27  1  0
 29 23  1  0
 29 31  1  0
 30 29  2  0
M  END
$$$$
