YEK.pdb
     RDKit          3D

 31 31  0  0  1  0  0  0  0  0999 V2000
   19.2885  -22.0542  -13.1370 O   0  0  0  0  0  0  0  0  0  0  0  0
   18.7849  -22.5485  -11.9393 C   0  0  0  0  0  0  0  0  0  0  0  0
   19.6202  -23.0487  -10.9507 C   0  0  0  0  0  0  0  0  0  0  0  0
   19.1093  -23.5375   -9.7641 C   0  0  0  0  0  0  0  0  0  0  0  0
   17.7530  -23.5501   -9.5105 C   0  0  0  0  0  0  0  0  0  0  0  0
   17.1845  -24.0741   -8.2371 C   0  0  0  0  0  0  0  0  0  0  0  0
   17.3573  -25.5685   -8.1900 C   0  0  2  0  0  0  0  0  0  0  0  0
   16.6498  -26.2352   -9.2562 N   0  0  0  0  0  0  0  0  0  0  0  0
   16.8418  -26.0469   -6.8438 C   0  0  0  0  0  0  0  0  0  0  0  0
   15.6176  -26.0094   -6.5947 O   0  0  0  0  0  0  0  0  0  0  0  0
   16.9215  -23.0503  -10.4988 C   0  0  0  0  0  0  0  0  0  0  0  0
   17.4306  -22.5611  -11.6861 C   0  0  0  0  0  0  0  0  0  0  0  0
   17.7473  -26.5333   -5.8775 N   0  0  0  0  0  0  0  0  0  0  0  0
   17.4959  -26.6322   -4.4839 C   0  0  1  0  0  0  0  0  0  0  0  0
   18.5598  -27.3143   -3.6569 C   0  0  0  0  0  0  0  0  0  0  0  0
   18.2565  -27.4198   -2.2033 C   0  0  0  0  0  0  0  0  0  0  0  0
   18.2669  -28.8369   -1.7201 C   0  0  0  0  0  0  0  0  0  0  0  0
   18.6865  -29.7782   -2.4295 O   0  0  0  0  0  0  0  0  0  0  0  0
   16.9287  -25.4177   -3.8759 C   0  0  0  0  0  0  0  0  0  0  0  0
   17.4550  -24.2722   -4.0385 O   0  0  0  0  0  0  0  0  0  0  0  0
   17.8052  -29.1506   -0.4548 O   0  0  0  0  0  0  0  0  0  0  0  0
   15.7613  -25.4205   -3.0677 N   0  0  0  0  0  0  0  0  0  0  0  0
   15.2472  -24.2045   -2.4470 C   0  0  1  0  0  0  0  0  0  0  0  0
   13.8032  -24.0820   -2.8533 C   0  0  0  0  0  0  0  0  0  0  0  0
   13.0854  -22.8891   -2.3341 C   0  0  0  0  0  0  0  0  0  0  0  0
   11.6316  -22.8650   -2.8400 C   0  0  0  0  0  0  0  0  0  0  0  0
   10.9965  -21.6224   -2.2685 C   0  0  0  0  0  0  0  0  0  0  0  0
    9.5736  -21.6725   -2.6260 N   0  0  0  0  0  0  0  0  0  0  0  0
   15.3356  -24.3171   -0.9841 C   0  0  0  0  0  0  0  0  0  0  0  0
   15.2438  -25.4444   -0.4345 O   0  0  0  0  0  0  0  0  0  0  0  0
   15.5211  -23.1549   -0.2387 O   0  0  0  0  0  0  0  0  0  0  0  0
  2  1  1  0
  3  2  2  0
  4  3  1  0
  5 11  1  0
  5  4  2  0
  6  5  1  0
  7  6  1  0
  7  8  1  6
  9  7  1  0
  9 10  2  0
 11 12  2  0
 12  2  1  0
 13  9  1  0
 14 13  1  0
 14 15  1  1
 15 16  1  0
 17 21  1  0
 17 16  1  0
 18 17  2  0
 19 14  1  0
 20 19  2  0
 22 19  1  0
 23 22  1  0
 23 24  1  1
 25 24  1  0
 26 27  1  0
 26 25  1  0
 28 27  1  0
 29 23  1  0
 29 31  1  0
 30 29  2  0
M  END
$$$$
