YEK.pdb
     RDKit          3D

 31 31  0  0  1  0  0  0  0  0999 V2000
   31.2354  -21.3228  -10.0540 O   0  0  0  0  0  0  0  0  0  0  0  0
   30.1105  -20.9758  -10.7933 C   0  0  0  0  0  0  0  0  0  0  0  0
   28.8279  -21.1951  -10.3116 C   0  0  0  0  0  0  0  0  0  0  0  0
   27.7168  -20.8464  -11.0544 C   0  0  0  0  0  0  0  0  0  0  0  0
   27.8323  -20.2677  -12.3018 C   0  0  0  0  0  0  0  0  0  0  0  0
   26.6452  -19.8861  -13.1170 C   0  0  0  0  0  0  0  0  0  0  0  0
   26.0460  -21.1203  -13.7359 C   0  0  2  0  0  0  0  0  0  0  0  0
   26.9495  -21.7635  -14.6589 N   0  0  0  0  0  0  0  0  0  0  0  0
   24.7765  -20.7010  -14.4564 C   0  0  0  0  0  0  0  0  0  0  0  0
   24.8291  -20.3266  -15.6477 O   0  0  0  0  0  0  0  0  0  0  0  0
   29.1135  -20.0500  -12.7802 C   0  0  0  0  0  0  0  0  0  0  0  0
   30.2258  -20.3980  -12.0388 C   0  0  0  0  0  0  0  0  0  0  0  0
   23.5398  -20.7360  -13.7782 N   0  0  0  0  0  0  0  0  0  0  0  0
   22.2725  -20.4566  -14.3536 C   0  0  1  0  0  0  0  0  0  0  0  0
   21.0640  -20.8753  -13.5504 C   0  0  0  0  0  0  0  0  0  0  0  0
   20.8338  -20.0935  -12.3048 C   0  0  0  0  0  0  0  0  0  0  0  0
   19.5605  -20.4781  -11.6173 C   0  0  0  0  0  0  0  0  0  0  0  0
   19.2218  -21.6729  -11.4651 O   0  0  0  0  0  0  0  0  0  0  0  0
   22.1641  -19.1301  -14.9821 C   0  0  0  0  0  0  0  0  0  0  0  0
   22.6571  -18.0875  -14.4479 O   0  0  0  0  0  0  0  0  0  0  0  0
   18.7086  -19.5073  -11.1230 O   0  0  0  0  0  0  0  0  0  0  0  0
   21.5096  -18.9039  -16.2216 N   0  0  0  0  0  0  0  0  0  0  0  0
   21.4340  -17.5783  -16.8260 C   0  0  1  0  0  0  0  0  0  0  0  0
   21.7147  -17.7497  -18.2947 C   0  0  0  0  0  0  0  0  0  0  0  0
   21.7460  -16.4991  -19.0963 C   0  0  0  0  0  0  0  0  0  0  0  0
   22.1298  -16.7976  -20.5570 C   0  0  0  0  0  0  0  0  0  0  0  0
   22.2566  -15.4647  -21.2507 C   0  0  0  0  0  0  0  0  0  0  0  0
   22.6940  -15.7431  -22.6240 N   0  0  0  0  0  0  0  0  0  0  0  0
   20.0833  -17.0266  -16.6476 C   0  0  0  0  0  0  0  0  0  0  0  0
   19.0902  -17.7971  -16.6101 O   0  0  0  0  0  0  0  0  0  0  0  0
   19.9409  -15.6463  -16.5235 O   0  0  0  0  0  0  0  0  0  0  0  0
  2  1  1  0
  3  2  2  0
  4  3  1  0
  5 11  1  0
  5  4  2  0
  6  5  1  0
  7  6  1  0
  7  8  1  6
  9  7  1  0
  9 10  2  0
 11 12  2  0
 12  2  1  0
 13  9  1  0
 14 13  1  0
 14 15  1  1
 15 16  1  0
 17 21  1  0
 17 16  1  0
 18 17  2  0
 19 14  1  0
 20 19  2  0
 22 19  1  0
 23 22  1  0
 23 24  1  6
 25 24  1  0
 26 27  1  0
 26 25  1  0
 28 27  1  0
 29 23  1  0
 29 31  1  0
 30 29  2  0
M  END
$$$$
