YEK.pdb
     RDKit          3D

 31 31  0  0  1  0  0  0  0  0999 V2000
   25.3165  -21.2646   -8.2654 O   0  0  0  0  0  0  0  0  0  0  0  0
   25.3719  -20.9640   -9.6214 C   0  0  0  0  0  0  0  0  0  0  0  0
   24.4934  -20.0606  -10.2022 C   0  0  0  0  0  0  0  0  0  0  0  0
   24.5571  -19.7688  -11.5508 C   0  0  0  0  0  0  0  0  0  0  0  0
   25.4922  -20.3596  -12.3760 C   0  0  0  0  0  0  0  0  0  0  0  0
   25.5748  -20.0575  -13.8325 C   0  0  0  0  0  0  0  0  0  0  0  0
   26.8586  -19.3263  -14.1193 C   0  0  2  0  0  0  0  0  0  0  0  0
   27.1147  -18.2749  -13.1649 N   0  0  0  0  0  0  0  0  0  0  0  0
   26.7516  -18.7450  -15.5184 C   0  0  0  0  0  0  0  0  0  0  0  0
   26.5674  -17.5184  -15.6726 O   0  0  0  0  0  0  0  0  0  0  0  0
   26.3678  -21.2608  -11.7938 C   0  0  0  0  0  0  0  0  0  0  0  0
   26.3056  -21.5537  -10.4453 C   0  0  0  0  0  0  0  0  0  0  0  0
   26.8611  -19.5921  -16.6412 N   0  0  0  0  0  0  0  0  0  0  0  0
   27.0300  -19.1670  -17.9850 C   0  0  1  0  0  0  0  0  0  0  0  0
   28.0126  -18.0433  -18.2149 C   0  0  0  0  0  0  0  0  0  0  0  0
   28.1505  -17.6070  -19.6314 C   0  0  0  0  0  0  0  0  0  0  0  0
   29.5536  -17.7438  -20.1360 C   0  0  0  0  0  0  0  0  0  0  0  0
   30.5111  -17.1318  -19.6125 O   0  0  0  0  0  0  0  0  0  0  0  0
   27.1040  -20.2596  -18.9685 C   0  0  0  0  0  0  0  0  0  0  0  0
   27.9346  -21.2150  -18.8552 O   0  0  0  0  0  0  0  0  0  0  0  0
   29.8354  -18.5642  -21.2130 O   0  0  0  0  0  0  0  0  0  0  0  0
   26.2657  -20.3400  -20.1117 N   0  0  0  0  0  0  0  0  0  0  0  0
   26.2808  -21.4953  -21.0023 C   0  0  1  0  0  0  0  0  0  0  0  0
   25.0875  -21.3641  -21.9103 C   0  0  0  0  0  0  0  0  0  0  0  0
   24.8383  -22.5130  -22.8189 C   0  0  0  0  0  0  0  0  0  0  0  0
   23.5878  -22.2640  -23.6816 C   0  0  0  0  0  0  0  0  0  0  0  0
   23.4363  -23.4665  -24.5789 C   0  0  0  0  0  0  0  0  0  0  0  0
   22.2461  -23.2300  -25.4049 N   0  0  0  0  0  0  0  0  0  0  0  0
   27.5107  -21.4868  -21.8072 C   0  0  0  0  0  0  0  0  0  0  0  0
   28.0327  -20.3937  -22.1447 O   0  0  0  0  0  0  0  0  0  0  0  0
   28.0700  -22.7078  -22.1778 O   0  0  0  0  0  0  0  0  0  0  0  0
  2  1  1  0
  3  2  2  0
  4  3  1  0
  5 11  1  0
  5  4  2  0
  6  5  1  0
  7  6  1  0
  7  8  1  1
  9  7  1  0
  9 10  2  0
 11 12  2  0
 12  2  1  0
 13  9  1  0
 14 13  1  0
 14 15  1  1
 15 16  1  0
 17 21  1  0
 17 16  1  0
 18 17  2  0
 19 14  1  0
 20 19  2  0
 22 19  1  0
 23 22  1  0
 23 24  1  6
 25 24  1  0
 26 27  1  0
 26 25  1  0
 28 27  1  0
 29 23  1  0
 29 31  1  0
 30 29  2  0
M  END
$$$$
