YEK.pdb
     RDKit          3D

 31 31  0  0  1  0  0  0  0  0999 V2000
   20.3204  -13.9038  -23.8364 O   0  0  0  0  0  0  0  0  0  0  0  0
   20.5091  -13.1577  -22.6788 C   0  0  0  0  0  0  0  0  0  0  0  0
   20.9629  -11.8473  -22.7244 C   0  0  0  0  0  0  0  0  0  0  0  0
   21.1470  -11.1147  -21.5680 C   0  0  0  0  0  0  0  0  0  0  0  0
   20.8890  -11.6504  -20.3228 C   0  0  0  0  0  0  0  0  0  0  0  0
   21.0826  -10.8753  -19.0653 C   0  0  0  0  0  0  0  0  0  0  0  0
   22.5470  -10.8405  -18.7199 C   0  0  2  0  0  0  0  0  0  0  0  0
   23.0542  -12.1408  -18.3540 N   0  0  0  0  0  0  0  0  0  0  0  0
   22.7222   -9.8693  -17.5654 C   0  0  0  0  0  0  0  0  0  0  0  0
   22.3780  -10.2028  -16.4111 O   0  0  0  0  0  0  0  0  0  0  0  0
   20.4361  -12.9585  -20.2801 C   0  0  0  0  0  0  0  0  0  0  0  0
   20.2515  -13.6926  -21.4355 C   0  0  0  0  0  0  0  0  0  0  0  0
   23.2741   -8.5922  -17.7995 N   0  0  0  0  0  0  0  0  0  0  0  0
   23.3653   -7.5432  -16.8474 C   0  0  1  0  0  0  0  0  0  0  0  0
   24.3128   -6.4152  -17.1805 C   0  0  0  0  0  0  0  0  0  0  0  0
   24.3742   -5.3248  -16.1690 C   0  0  0  0  0  0  0  0  0  0  0  0
   25.3562   -4.2572  -16.5406 C   0  0  0  0  0  0  0  0  0  0  0  0
   24.9927   -3.1417  -16.9752 O   0  0  0  0  0  0  0  0  0  0  0  0
   22.0756   -7.1161  -16.2810 C   0  0  0  0  0  0  0  0  0  0  0  0
   21.1269   -6.6870  -17.0099 O   0  0  0  0  0  0  0  0  0  0  0  0
   26.7153   -4.4778  -16.4117 O   0  0  0  0  0  0  0  0  0  0  0  0
   21.7838   -7.1471  -14.8918 N   0  0  0  0  0  0  0  0  0  0  0  0
   20.4793   -6.7587  -14.3665 C   0  0  1  0  0  0  0  0  0  0  0  0
   20.0458   -7.8473  -13.4218 C   0  0  0  0  0  0  0  0  0  0  0  0
   18.7609   -7.6133  -12.7132 C   0  0  0  0  0  0  0  0  0  0  0  0
   18.3306   -8.8704  -11.9358 C   0  0  0  0  0  0  0  0  0  0  0  0
   16.9939   -8.5558  -11.3127 C   0  0  0  0  0  0  0  0  0  0  0  0
   16.5242   -9.7912  -10.6738 N   0  0  0  0  0  0  0  0  0  0  0  0
   20.5964   -5.4914  -13.6313 C   0  0  0  0  0  0  0  0  0  0  0  0
   19.6436   -4.6707  -13.6388 O   0  0  0  0  0  0  0  0  0  0  0  0
   21.7766   -5.2329  -12.9375 O   0  0  0  0  0  0  0  0  0  0  0  0
  2  1  1  0
  3  2  2  0
  4  3  1  0
  5 11  1  0
  5  4  2  0
  6  5  1  0
  7  6  1  0
  7  8  1  1
  9  7  1  0
  9 10  2  0
 11 12  2  0
 12  2  1  0
 13  9  1  0
 14 13  1  0
 14 15  1  6
 15 16  1  0
 17 21  1  0
 17 16  1  0
 18 17  2  0
 19 14  1  0
 20 19  2  0
 22 19  1  0
 23 22  1  0
 23 24  1  1
 25 24  1  0
 26 27  1  0
 26 25  1  0
 28 27  1  0
 29 23  1  0
 29 31  1  0
 30 29  2  0
M  END
$$$$
