YEK.pdb
     RDKit          3D

 31 31  0  0  1  0  0  0  0  0999 V2000
   25.9551  -19.7092   -6.5622 O   0  0  0  0  0  0  0  0  0  0  0  0
   26.0863  -20.0636   -7.9000 C   0  0  0  0  0  0  0  0  0  0  0  0
   26.5230  -19.1550   -8.8533 C   0  0  0  0  0  0  0  0  0  0  0  0
   26.6500  -19.5175  -10.1801 C   0  0  0  0  0  0  0  0  0  0  0  0
   26.3499  -20.7926  -10.6141 C   0  0  0  0  0  0  0  0  0  0  0  0
   26.4801  -21.2008  -12.0409 C   0  0  0  0  0  0  0  0  0  0  0  0
   25.3284  -20.6374  -12.8292 C   0  0  2  0  0  0  0  0  0  0  0  0
   24.0923  -21.3333  -12.5656 N   0  0  0  0  0  0  0  0  0  0  0  0
   25.6842  -20.7472  -14.3017 C   0  0  0  0  0  0  0  0  0  0  0  0
   25.2921  -21.7297  -14.9673 O   0  0  0  0  0  0  0  0  0  0  0  0
   25.9143  -21.6976   -9.6606 C   0  0  0  0  0  0  0  0  0  0  0  0
   25.7867  -21.3367   -8.3333 C   0  0  0  0  0  0  0  0  0  0  0  0
   26.4568  -19.7383  -14.9147 N   0  0  0  0  0  0  0  0  0  0  0  0
   26.9260  -19.7547  -16.2543 C   0  0  1  0  0  0  0  0  0  0  0  0
   27.4932  -18.4585  -16.7826 C   0  0  0  0  0  0  0  0  0  0  0  0
   27.9709  -18.5078  -18.1915 C   0  0  0  0  0  0  0  0  0  0  0  0
   28.4902  -17.1853  -18.6641 C   0  0  0  0  0  0  0  0  0  0  0  0
   29.6409  -16.7834  -18.3815 O   0  0  0  0  0  0  0  0  0  0  0  0
   27.6935  -20.9563  -16.6199 C   0  0  0  0  0  0  0  0  0  0  0  0
   28.6402  -21.3988  -15.8966 O   0  0  0  0  0  0  0  0  0  0  0  0
   27.6994  -16.3569  -19.4391 O   0  0  0  0  0  0  0  0  0  0  0  0
   27.4457  -21.7142  -17.7947 N   0  0  0  0  0  0  0  0  0  0  0  0
   28.2202  -22.9058  -18.1243 C   0  0  1  0  0  0  0  0  0  0  0  0
   27.4242  -23.6782  -19.1418 C   0  0  0  0  0  0  0  0  0  0  0  0
   28.0360  -24.9481  -19.6114 C   0  0  0  0  0  0  0  0  0  0  0  0
   27.0496  -25.7344  -20.4939 C   0  0  0  0  0  0  0  0  0  0  0  0
   27.7438  -27.0162  -20.8802 C   0  0  0  0  0  0  0  0  0  0  0  0
   26.8013  -27.7724  -21.7137 N   0  0  0  0  0  0  0  0  0  0  0  0
   29.5110  -22.5142  -18.7083 C   0  0  0  0  0  0  0  0  0  0  0  0
   29.5614  -21.5854  -19.5545 O   0  0  0  0  0  0  0  0  0  0  0  0
   30.6572  -23.1935  -18.3013 O   0  0  0  0  0  0  0  0  0  0  0  0
  2  1  1  0
  3  2  2  0
  4  3  1  0
  5 11  1  0
  5  4  2  0
  6  5  1  0
  7  6  1  0
  7  8  1  6
  9  7  1  0
  9 10  2  0
 11 12  2  0
 12  2  1  0
 13  9  1  0
 14 13  1  0
 14 15  1  1
 15 16  1  0
 17 21  1  0
 17 16  1  0
 18 17  2  0
 19 14  1  0
 20 19  2  0
 22 19  1  0
 23 22  1  0
 23 24  1  6
 25 24  1  0
 26 27  1  0
 26 25  1  0
 28 27  1  0
 29 23  1  0
 29 31  1  0
 30 29  2  0
M  END
$$$$
