YEK.pdb
     RDKit          3D

 31 31  0  0  1  0  0  0  0  0999 V2000
   28.6703  -20.1687   -3.1971 O   0  0  0  0  0  0  0  0  0  0  0  0
   28.2047  -20.0050   -4.4967 C   0  0  0  0  0  0  0  0  0  0  0  0
   28.9590  -19.3546   -5.4627 C   0  0  0  0  0  0  0  0  0  0  0  0
   28.4869  -19.1975   -6.7512 C   0  0  0  0  0  0  0  0  0  0  0  0
   27.2509  -19.6778   -7.1330 C   0  0  0  0  0  0  0  0  0  0  0  0
   26.7255  -19.5166   -8.5177 C   0  0  0  0  0  0  0  0  0  0  0  0
   26.7194  -20.8536   -9.2089 C   0  0  2  0  0  0  0  0  0  0  0  0
   28.0400  -21.4272   -9.3029 N   0  0  0  0  0  0  0  0  0  0  0  0
   26.1405  -20.6483  -10.5980 C   0  0  0  0  0  0  0  0  0  0  0  0
   26.5275  -19.6897  -11.3004 O   0  0  0  0  0  0  0  0  0  0  0  0
   26.5001  -20.3266   -6.1670 C   0  0  0  0  0  0  0  0  0  0  0  0
   26.9706  -20.4846   -4.8779 C   0  0  0  0  0  0  0  0  0  0  0  0
   25.1669  -21.5417  -11.0921 N   0  0  0  0  0  0  0  0  0  0  0  0
   24.4764  -21.4133  -12.3258 C   0  0  1  0  0  0  0  0  0  0  0  0
   24.6104  -22.5655  -13.2929 C   0  0  0  0  0  0  0  0  0  0  0  0
   25.9940  -22.8232  -13.7779 C   0  0  0  0  0  0  0  0  0  0  0  0
   26.2804  -22.1346  -15.0763 C   0  0  0  0  0  0  0  0  0  0  0  0
   25.3964  -21.5168  -15.7104 O   0  0  0  0  0  0  0  0  0  0  0  0
   23.1170  -20.8604  -12.2123 C   0  0  0  0  0  0  0  0  0  0  0  0
   22.3894  -21.0616  -11.1897 O   0  0  0  0  0  0  0  0  0  0  0  0
   27.5515  -22.1627  -15.6203 O   0  0  0  0  0  0  0  0  0  0  0  0
   22.5101  -20.0656  -13.2202 N   0  0  0  0  0  0  0  0  0  0  0  0
   21.1933  -19.4634  -13.0422 C   0  0  1  0  0  0  0  0  0  0  0  0
   20.9797  -18.5266  -14.2007 C   0  0  0  0  0  0  0  0  0  0  0  0
   19.7299  -17.7242  -14.1602 C   0  0  0  0  0  0  0  0  0  0  0  0
   19.6856  -16.7252  -15.3307 C   0  0  0  0  0  0  0  0  0  0  0  0
   18.4602  -15.8712  -15.1229 C   0  0  0  0  0  0  0  0  0  0  0  0
   18.5137  -14.8035  -16.1289 N   0  0  0  0  0  0  0  0  0  0  0  0
   20.1610  -20.5096  -13.0628 C   0  0  0  0  0  0  0  0  0  0  0  0
   20.2999  -21.5141  -13.8064 O   0  0  0  0  0  0  0  0  0  0  0  0
   19.0429  -20.3553  -12.2461 O   0  0  0  0  0  0  0  0  0  0  0  0
  2  1  1  0
  3  2  2  0
  4  3  1  0
  5 11  1  0
  5  4  2  0
  6  5  1  0
  7  6  1  0
  7  8  1  6
  9  7  1  0
  9 10  2  0
 11 12  2  0
 12  2  1  0
 13  9  1  0
 14 13  1  0
 14 15  1  1
 15 16  1  0
 17 21  1  0
 17 16  1  0
 18 17  2  0
 19 14  1  0
 20 19  2  0
 22 19  1  0
 23 22  1  0
 23 24  1  6
 25 24  1  0
 26 27  1  0
 26 25  1  0
 28 27  1  0
 29 23  1  0
 29 31  1  0
 30 29  2  0
M  END
$$$$
