YEK.pdb
     RDKit          3D

 31 31  0  0  1  0  0  0  0  0999 V2000
   17.2926  -19.9047  -10.3727 O   0  0  0  0  0  0  0  0  0  0  0  0
   18.3235  -20.0343  -11.2962 C   0  0  0  0  0  0  0  0  0  0  0  0
   18.9419  -21.2543  -11.5290 C   0  0  0  0  0  0  0  0  0  0  0  0
   19.9653  -21.3721  -12.4491 C   0  0  0  0  0  0  0  0  0  0  0  0
   20.4159  -20.2875  -13.1736 C   0  0  0  0  0  0  0  0  0  0  0  0
   21.5189  -20.3960  -14.1691 C   0  0  0  0  0  0  0  0  0  0  0  0
   20.9534  -20.8205  -15.4976 C   0  0  2  0  0  0  0  0  0  0  0  0
   20.4019  -22.1532  -15.4571 N   0  0  0  0  0  0  0  0  0  0  0  0
   22.0776  -20.7528  -16.5166 C   0  0  0  0  0  0  0  0  0  0  0  0
   22.8069  -21.7495  -16.7090 O   0  0  0  0  0  0  0  0  0  0  0  0
   19.7970  -19.0710  -12.9393 C   0  0  0  0  0  0  0  0  0  0  0  0
   18.7733  -18.9514  -12.0195 C   0  0  0  0  0  0  0  0  0  0  0  0
   22.2954  -19.5639  -17.2442 N   0  0  0  0  0  0  0  0  0  0  0  0
   23.2050  -19.4090  -18.3229 C   0  0  1  0  0  0  0  0  0  0  0  0
   22.8314  -18.3918  -19.3749 C   0  0  0  0  0  0  0  0  0  0  0  0
   23.7830  -18.2857  -20.5147 C   0  0  0  0  0  0  0  0  0  0  0  0
   24.0111  -16.8674  -20.9369 C   0  0  0  0  0  0  0  0  0  0  0  0
   23.4771  -15.9033  -20.3445 O   0  0  0  0  0  0  0  0  0  0  0  0
   24.6237  -19.3958  -17.9310 C   0  0  0  0  0  0  0  0  0  0  0  0
   25.0693  -18.6126  -17.0346 O   0  0  0  0  0  0  0  0  0  0  0  0
   24.8320  -16.5782  -22.0115 O   0  0  0  0  0  0  0  0  0  0  0  0
   25.6026  -20.2449  -18.5113 N   0  0  0  0  0  0  0  0  0  0  0  0
   26.9943  -20.2330  -18.0739 C   0  0  1  0  0  0  0  0  0  0  0  0
   27.5080  -21.6414  -18.2087 C   0  0  0  0  0  0  0  0  0  0  0  0
   28.9175  -21.8572  -17.7914 C   0  0  0  0  0  0  0  0  0  0  0  0
   29.3096  -23.3383  -17.9418 C   0  0  0  0  0  0  0  0  0  0  0  0
   30.7151  -23.4685  -17.4112 C   0  0  0  0  0  0  0  0  0  0  0  0
   31.0226  -24.9034  -17.3770 N   0  0  0  0  0  0  0  0  0  0  0  0
   27.7799  -19.3413  -18.9387 C   0  0  0  0  0  0  0  0  0  0  0  0
   27.3721  -19.0704  -20.0970 O   0  0  0  0  0  0  0  0  0  0  0  0
   28.9705  -18.8147  -18.4427 O   0  0  0  0  0  0  0  0  0  0  0  0
  2  1  1  0
  3  2  2  0
  4  3  1  0
  5 11  1  0
  5  4  2  0
  6  5  1  0
  7  6  1  0
  7  8  1  1
  9  7  1  0
  9 10  2  0
 11 12  2  0
 12  2  1  0
 13  9  1  0
 14 13  1  0
 14 15  1  1
 15 16  1  0
 17 21  1  0
 17 16  1  0
 18 17  2  0
 19 14  1  0
 20 19  2  0
 22 19  1  0
 23 22  1  0
 23 24  1  6
 25 24  1  0
 26 27  1  0
 26 25  1  0
 28 27  1  0
 29 23  1  0
 29 31  1  0
 30 29  2  0
M  END
$$$$
