YEK.pdb
     RDKit          3D

 31 31  0  0  1  0  0  0  0  0999 V2000
   28.9809  -19.6912   -6.0652 O   0  0  0  0  0  0  0  0  0  0  0  0
   28.4152  -19.8279   -7.3276 C   0  0  0  0  0  0  0  0  0  0  0  0
   29.1294  -20.3626   -8.3902 C   0  0  0  0  0  0  0  0  0  0  0  0
   28.5577  -20.4941   -9.6407 C   0  0  0  0  0  0  0  0  0  0  0  0
   27.2579  -20.1018   -9.8874 C   0  0  0  0  0  0  0  0  0  0  0  0
   26.6256  -20.2355  -11.2297 C   0  0  0  0  0  0  0  0  0  0  0  0
   25.7289  -21.4442  -11.2418 C   0  0  2  0  0  0  0  0  0  0  0  0
   26.4697  -22.6739  -11.3857 N   0  0  0  0  0  0  0  0  0  0  0  0
   24.7581  -21.2826  -12.3986 C   0  0  0  0  0  0  0  0  0  0  0  0
   25.0550  -21.7242  -13.5294 O   0  0  0  0  0  0  0  0  0  0  0  0
   26.5473  -19.5686   -8.8251 C   0  0  0  0  0  0  0  0  0  0  0  0
   27.1174  -19.4363   -7.5739 C   0  0  0  0  0  0  0  0  0  0  0  0
   23.5222  -20.6339  -12.1928 N   0  0  0  0  0  0  0  0  0  0  0  0
   22.4173  -20.6571  -13.0838 C   0  0  1  0  0  0  0  0  0  0  0  0
   21.0622  -20.9084  -12.4660 C   0  0  0  0  0  0  0  0  0  0  0  0
   19.9293  -20.9563  -13.4304 C   0  0  0  0  0  0  0  0  0  0  0  0
   18.6056  -21.1108  -12.7478 C   0  0  0  0  0  0  0  0  0  0  0  0
   18.5000  -21.1423  -11.5015 O   0  0  0  0  0  0  0  0  0  0  0  0
   22.4384  -19.6055  -14.1134 C   0  0  0  0  0  0  0  0  0  0  0  0
   22.5784  -18.3766  -13.8208 O   0  0  0  0  0  0  0  0  0  0  0  0
   17.4431  -21.2248  -13.4880 O   0  0  0  0  0  0  0  0  0  0  0  0
   22.3070  -19.8693  -15.5024 N   0  0  0  0  0  0  0  0  0  0  0  0
   22.4084  -18.8128  -16.5034 C   0  0  1  0  0  0  0  0  0  0  0  0
   23.1442  -19.3940  -17.6808 C   0  0  0  0  0  0  0  0  0  0  0  0
   24.5762  -19.0153  -17.7982 C   0  0  0  0  0  0  0  0  0  0  0  0
   25.1901  -19.5978  -19.0841 C   0  0  0  0  0  0  0  0  0  0  0  0
   26.6481  -19.2125  -19.0790 C   0  0  0  0  0  0  0  0  0  0  0  0
   27.2454  -19.8031  -20.2828 N   0  0  0  0  0  0  0  0  0  0  0  0
   21.0634  -18.3961  -16.9248 C   0  0  0  0  0  0  0  0  0  0  0  0
   20.0892  -19.1776  -16.7781 O   0  0  0  0  0  0  0  0  0  0  0  0
   20.9050  -17.1293  -17.4825 O   0  0  0  0  0  0  0  0  0  0  0  0
  2  1  1  0
  3  2  2  0
  4  3  1  0
  5 11  1  0
  5  4  2  0
  6  5  1  0
  7  6  1  0
  7  8  1  6
  9  7  1  0
  9 10  2  0
 11 12  2  0
 12  2  1  0
 13  9  1  0
 14 13  1  0
 14 15  1  1
 15 16  1  0
 17 21  1  0
 17 16  1  0
 18 17  2  0
 19 14  1  0
 20 19  2  0
 22 19  1  0
 23 22  1  0
 23 24  1  6
 25 24  1  0
 26 27  1  0
 26 25  1  0
 28 27  1  0
 29 23  1  0
 29 31  1  0
 30 29  2  0
M  END
$$$$
