YEK.pdb
     RDKit          3D

 31 31  0  0  1  0  0  0  0  0999 V2000
   32.0725  -22.6465  -10.4977 O   0  0  0  0  0  0  0  0  0  0  0  0
   30.8975  -22.1205  -11.0220 C   0  0  0  0  0  0  0  0  0  0  0  0
   30.0431  -21.3424  -10.2540 C   0  0  0  0  0  0  0  0  0  0  0  0
   28.8779  -20.8243  -10.7849 C   0  0  0  0  0  0  0  0  0  0  0  0
   28.5137  -21.0563  -12.0956 C   0  0  0  0  0  0  0  0  0  0  0  0
   27.2606  -20.5064  -12.6845 C   0  0  0  0  0  0  0  0  0  0  0  0
   27.5972  -19.6904  -13.9035 C   0  0  2  0  0  0  0  0  0  0  0  0
   28.4536  -18.5712  -13.5936 N   0  0  0  0  0  0  0  0  0  0  0  0
   26.2903  -19.1970  -14.4994 C   0  0  0  0  0  0  0  0  0  0  0  0
   25.8533  -18.0660  -14.1961 O   0  0  0  0  0  0  0  0  0  0  0  0
   29.3682  -21.8332  -12.8599 C   0  0  0  0  0  0  0  0  0  0  0  0
   30.5339  -22.3520  -12.3306 C   0  0  0  0  0  0  0  0  0  0  0  0
   25.5727  -20.0175  -15.3951 N   0  0  0  0  0  0  0  0  0  0  0  0
   24.4031  -19.6411  -16.1060 C   0  0  1  0  0  0  0  0  0  0  0  0
   24.2459  -20.2181  -17.4928 C   0  0  0  0  0  0  0  0  0  0  0  0
   23.0638  -19.7237  -18.2505 C   0  0  0  0  0  0  0  0  0  0  0  0
   23.0007  -20.2840  -19.6377 C   0  0  0  0  0  0  0  0  0  0  0  0
   23.7579  -19.8858  -20.5506 O   0  0  0  0  0  0  0  0  0  0  0  0
   23.1718  -19.6337  -15.2996 C   0  0  0  0  0  0  0  0  0  0  0  0
   22.8833  -20.5779  -14.4991 O   0  0  0  0  0  0  0  0  0  0  0  0
   22.0884  -21.2739  -19.9541 O   0  0  0  0  0  0  0  0  0  0  0  0
   22.2143  -18.5863  -15.3450 N   0  0  0  0  0  0  0  0  0  0  0  0
   21.0259  -18.5874  -14.4988 C   0  0  1  0  0  0  0  0  0  0  0  0
   20.2854  -17.3079  -14.7819 C   0  0  0  0  0  0  0  0  0  0  0  0
   19.0086  -17.1242  -14.0445 C   0  0  0  0  0  0  0  0  0  0  0  0
   18.3058  -15.8279  -14.4865 C   0  0  0  0  0  0  0  0  0  0  0  0
   17.0008  -15.7664  -13.7334 C   0  0  0  0  0  0  0  0  0  0  0  0
   16.3315  -14.5275  -14.1483 N   0  0  0  0  0  0  0  0  0  0  0  0
   20.1715  -19.7329  -14.8427 C   0  0  0  0  0  0  0  0  0  0  0  0
   19.6008  -20.3862  -13.9323 O   0  0  0  0  0  0  0  0  0  0  0  0
   20.0169  -20.0661  -16.1865 O   0  0  0  0  0  0  0  0  0  0  0  0
  2  1  1  0
  3  2  2  0
  4  3  1  0
  5 11  1  0
  5  4  2  0
  6  5  1  0
  7  6  1  0
  7  8  1  1
  9  7  1  0
  9 10  2  0
 11 12  2  0
 12  2  1  0
 13  9  1  0
 14 13  1  0
 14 15  1  6
 15 16  1  0
 17 21  1  0
 17 16  1  0
 18 17  2  0
 19 14  1  0
 20 19  2  0
 22 19  1  0
 23 22  1  0
 23 24  1  6
 25 24  1  0
 26 27  1  0
 26 25  1  0
 28 27  1  0
 29 23  1  0
 29 31  1  0
 30 29  2  0
M  END
$$$$
