LFK.pdb
     RDKit          3D

 29 29  0  0  1  0  0  0  0  0999 V2000
   23.6701  -17.5469  -18.3083 C   0  0  0  0  0  0  0  0  0  0  0  0
   23.3308  -18.7175  -19.1526 C   0  0  2  0  0  0  0  0  0  0  0  0
   22.0833  -18.4668  -20.0003 C   0  0  0  0  0  0  0  0  0  0  0  0
   23.0857  -19.9628  -18.3787 C   0  0  0  0  0  0  0  0  0  0  0  0
   24.1513  -20.2464  -17.3904 C   0  0  2  0  0  0  0  0  0  0  0  0
   25.3026  -20.9459  -17.8353 N   0  0  0  0  0  0  0  0  0  0  0  0
   23.6061  -20.8123  -16.1087 C   0  0  0  0  0  0  0  0  0  0  0  0
   23.2150  -22.0226  -16.0745 O   0  0  0  0  0  0  0  0  0  0  0  0
   23.4963  -20.0746  -14.9173 N   0  0  0  0  0  0  0  0  0  0  0  0
   22.9737  -20.6086  -13.6662 C   0  0  1  0  0  0  0  0  0  0  0  0
   23.4809  -19.7033  -12.5890 C   0  0  0  0  0  0  0  0  0  0  0  0
   23.0527  -20.0439  -11.2250 C   0  0  0  0  0  0  0  0  0  0  0  0
   21.8261  -19.6265  -10.7288 C   0  0  0  0  0  0  0  0  0  0  0  0
   21.4204  -19.9548   -9.4499 C   0  0  0  0  0  0  0  0  0  0  0  0
   22.2171  -20.7096   -8.6158 C   0  0  0  0  0  0  0  0  0  0  0  0
   23.4300  -21.1307   -9.0868 C   0  0  0  0  0  0  0  0  0  0  0  0
   23.8286  -20.7970  -10.3702 C   0  0  0  0  0  0  0  0  0  0  0  0
   21.4892  -20.5671  -13.6892 C   0  0  0  0  0  0  0  0  0  0  0  0
   20.8712  -19.5749  -14.2142 O   0  0  0  0  0  0  0  0  0  0  0  0
   20.7671  -21.6280  -13.1284 N   0  0  0  0  0  0  0  0  0  0  0  0
   19.2432  -21.6224  -13.1104 C   0  0  1  0  0  0  0  0  0  0  0  0
   18.9328  -22.4159  -14.3203 C   0  0  0  0  0  0  0  0  0  0  0  0
   17.5554  -22.6861  -14.7288 C   0  0  0  0  0  0  0  0  0  0  0  0
   17.3593  -23.5782  -15.8903 C   0  0  0  0  0  0  0  0  0  0  0  0
   15.8954  -23.6621  -16.2453 C   0  0  0  0  0  0  0  0  0  0  0  0
   15.7664  -24.5484  -17.3947 N   0  0  0  0  0  0  0  0  0  0  0  0
   18.8541  -22.1110  -11.8025 C   0  0  0  0  0  0  0  0  0  0  0  0
   17.7570  -21.7226  -11.0891 O   0  0  0  0  0  0  0  0  0  0  0  0
   19.5951  -22.9913  -11.2220 O   0  0  0  0  0  0  0  0  0  0  0  0
  2  3  1  1
  2  1  1  0
  4  2  1  0
  5  4  1  0
  5  6  1  6
  7  5  1  0
  7  8  2  0
  9  7  1  0
 10  9  1  0
 10 11  1  1
 11 12  1  0
 12 17  2  0
 12 13  1  0
 13 14  2  0
 15 14  1  0
 16 15  2  0
 17 16  1  0
 18 10  1  0
 19 18  2  0
 20 18  1  0
 21 22  1  6
 21 20  1  0
 22 23  1  0
 23 24  1  0
 24 25  1  0
 26 25  1  0
 27 28  1  0
 27 21  1  0
 29 27  2  0
M  END
$$$$
