LFK.pdb
     RDKit          3D

 29 29  0  0  1  0  0  0  0  0999 V2000
   26.3346  -20.5369   -6.0047 C   0  0  0  0  0  0  0  0  0  0  0  0
   27.3739  -20.2428   -7.0205 C   0  0  2  0  0  0  0  0  0  0  0  0
   28.2831  -19.0917   -6.5893 C   0  0  0  0  0  0  0  0  0  0  0  0
   26.8233  -19.8840   -8.3538 C   0  0  0  0  0  0  0  0  0  0  0  0
   25.9989  -20.9621   -8.9461 C   0  0  2  0  0  0  0  0  0  0  0  0
   26.5489  -22.2689   -8.9968 N   0  0  0  0  0  0  0  0  0  0  0  0
   25.3834  -20.5564  -10.2564 C   0  0  0  0  0  0  0  0  0  0  0  0
   24.8853  -19.3922  -10.3809 O   0  0  0  0  0  0  0  0  0  0  0  0
   25.3194  -21.3989  -11.3796 N   0  0  0  0  0  0  0  0  0  0  0  0
   24.8001  -20.9955  -12.6800 C   0  0  1  0  0  0  0  0  0  0  0  0
   25.8511  -21.3692  -13.6765 C   0  0  0  0  0  0  0  0  0  0  0  0
   27.0934  -20.5870  -13.6067 C   0  0  0  0  0  0  0  0  0  0  0  0
   27.1530  -19.2845  -14.0808 C   0  0  0  0  0  0  0  0  0  0  0  0
   28.3185  -18.5467  -14.0065 C   0  0  0  0  0  0  0  0  0  0  0  0
   29.4682  -19.0744  -13.4589 C   0  0  0  0  0  0  0  0  0  0  0  0
   29.4295  -20.3570  -12.9858 C   0  0  0  0  0  0  0  0  0  0  0  0
   28.2567  -21.0891  -13.0643 C   0  0  0  0  0  0  0  0  0  0  0  0
   23.5522  -21.7462  -12.9721 C   0  0  0  0  0  0  0  0  0  0  0  0
   23.5699  -23.0218  -13.0923 O   0  0  0  0  0  0  0  0  0  0  0  0
   22.3495  -21.0431  -13.1158 N   0  0  0  0  0  0  0  0  0  0  0  0
   21.0229  -21.7751  -13.2800 C   0  0  1  0  0  0  0  0  0  0  0  0
   20.5141  -21.7748  -11.8904 C   0  0  0  0  0  0  0  0  0  0  0  0
   19.8359  -22.9380  -11.3208 C   0  0  0  0  0  0  0  0  0  0  0  0
   19.3584  -22.8245   -9.9272 C   0  0  0  0  0  0  0  0  0  0  0  0
   18.7018  -24.1112   -9.4918 C   0  0  0  0  0  0  0  0  0  0  0  0
   18.4418  -24.0162   -8.0612 N   0  0  0  0  0  0  0  0  0  0  0  0
   20.2989  -21.0686  -14.3180 C   0  0  0  0  0  0  0  0  0  0  0  0
   19.3933  -21.6116  -15.1831 O   0  0  0  0  0  0  0  0  0  0  0  0
   20.5104  -19.8071  -14.4750 O   0  0  0  0  0  0  0  0  0  0  0  0
  2  3  1  1
  2  1  1  0
  4  2  1  0
  5  4  1  0
  5  6  1  6
  7  5  1  0
  7  8  2  0
  9  7  1  0
 10  9  1  0
 10 11  1  6
 11 12  1  0
 12 17  2  0
 12 13  1  0
 13 14  2  0
 15 14  1  0
 16 15  2  0
 17 16  1  0
 18 10  1  0
 19 18  2  0
 20 18  1  0
 21 22  1  1
 21 20  1  0
 22 23  1  0
 23 24  1  0
 24 25  1  0
 26 25  1  0
 27 28  1  0
 27 21  1  0
 29 27  2  0
M  END
$$$$
