LFK.pdb
     RDKit          3D

 29 29  0  0  1  0  0  0  0  0999 V2000
   38.3716  -27.5851    2.0146 C   0  0  0  0  0  0  0  0  0  0  0  0
   38.5550  -28.1736    3.3630 C   0  0  2  0  0  0  0  0  0  0  0  0
   37.9313  -29.5656    3.4674 C   0  0  0  0  0  0  0  0  0  0  0  0
   37.9723  -27.3545    4.4581 C   0  0  0  0  0  0  0  0  0  0  0  0
   38.3939  -25.9361    4.4038 C   0  0  2  0  0  0  0  0  0  0  0  0
   39.7728  -25.6448    4.5673 N   0  0  0  0  0  0  0  0  0  0  0  0
   37.5244  -25.0486    5.2504 C   0  0  0  0  0  0  0  0  0  0  0  0
   37.8827  -24.7702    6.4392 O   0  0  0  0  0  0  0  0  0  0  0  0
   36.3123  -24.4936    4.8051 N   0  0  0  0  0  0  0  0  0  0  0  0
   35.4579  -23.6324    5.6125 C   0  0  1  0  0  0  0  0  0  0  0  0
   34.5577  -22.9264    4.6490 C   0  0  0  0  0  0  0  0  0  0  0  0
   33.5060  -22.0998    5.2578 C   0  0  0  0  0  0  0  0  0  0  0  0
   32.2156  -22.0845    4.7485 C   0  0  0  0  0  0  0  0  0  0  0  0
   31.2252  -21.3144    5.3267 C   0  0  0  0  0  0  0  0  0  0  0  0
   31.4790  -20.5309    6.4321 C   0  0  0  0  0  0  0  0  0  0  0  0
   32.7451  -20.5326    6.9490 C   0  0  0  0  0  0  0  0  0  0  0  0
   33.7316  -21.3077    6.3630 C   0  0  0  0  0  0  0  0  0  0  0  0
   34.6418  -24.4639    6.5337 C   0  0  0  0  0  0  0  0  0  0  0  0
   34.0031  -25.4861    6.0989 O   0  0  0  0  0  0  0  0  0  0  0  0
   34.5763  -24.1184    7.8894 N   0  0  0  0  0  0  0  0  0  0  0  0
   33.7609  -24.9461    8.8757 C   0  0  1  0  0  0  0  0  0  0  0  0
   34.8281  -25.5511    9.7033 C   0  0  0  0  0  0  0  0  0  0  0  0
   35.6650  -26.6395    9.2013 C   0  0  0  0  0  0  0  0  0  0  0  0
   36.7003  -27.1694   10.1126 C   0  0  0  0  0  0  0  0  0  0  0  0
   37.4662  -28.2841    9.4441 C   0  0  0  0  0  0  0  0  0  0  0  0
   38.4325  -28.7990   10.4055 N   0  0  0  0  0  0  0  0  0  0  0  0
   32.8071  -24.0339    9.4749 C   0  0  0  0  0  0  0  0  0  0  0  0
   31.4510  -24.1879    9.5035 O   0  0  0  0  0  0  0  0  0  0  0  0
   33.2432  -22.9592   10.0368 O   0  0  0  0  0  0  0  0  0  0  0  0
  2  3  1  6
  2  1  1  0
  4  2  1  0
  5  4  1  0
  5  6  1  1
  7  5  1  0
  7  8  2  0
  9  7  1  0
 10  9  1  0
 10 11  1  6
 11 12  1  0
 12 17  2  0
 12 13  1  0
 13 14  2  0
 15 14  1  0
 16 15  2  0
 17 16  1  0
 18 10  1  0
 19 18  2  0
 20 18  1  0
 21 22  1  1
 21 20  1  0
 22 23  1  0
 23 24  1  0
 24 25  1  0
 26 25  1  0
 27 28  1  0
 27 21  1  0
 29 27  2  0
M  END
$$$$
