LFK.pdb
     RDKit          3D

 29 29  0  0  1  0  0  0  0  0999 V2000
   17.8939  -12.0229  -19.4595 C   0  0  0  0  0  0  0  0  0  0  0  0
   17.2638  -12.7622  -18.3393 C   0  0  2  0  0  0  0  0  0  0  0  0
   15.7473  -12.8643  -18.5049 C   0  0  0  0  0  0  0  0  0  0  0  0
   17.5143  -12.1557  -17.0056 C   0  0  0  0  0  0  0  0  0  0  0  0
   18.9478  -11.8797  -16.7579 C   0  0  2  0  0  0  0  0  0  0  0  0
   19.7795  -12.9661  -16.3822 N   0  0  0  0  0  0  0  0  0  0  0  0
   19.1549  -10.6785  -15.8778 C   0  0  0  0  0  0  0  0  0  0  0  0
   18.8222  -10.7358  -14.6509 O   0  0  0  0  0  0  0  0  0  0  0  0
   19.7039   -9.4670  -16.3318 N   0  0  0  0  0  0  0  0  0  0  0  0
   19.8980   -8.2892  -15.4960 C   0  0  1  0  0  0  0  0  0  0  0  0
   21.3726   -8.0398  -15.4728 C   0  0  0  0  0  0  0  0  0  0  0  0
   22.1700   -9.0374  -14.7455 C   0  0  0  0  0  0  0  0  0  0  0  0
   22.1442   -9.1104  -13.3603 C   0  0  0  0  0  0  0  0  0  0  0  0
   22.8868  -10.0543  -12.6778 C   0  0  0  0  0  0  0  0  0  0  0  0
   23.6825  -10.9608  -13.3449 C   0  0  0  0  0  0  0  0  0  0  0  0
   23.7212  -10.9050  -14.7108 C   0  0  0  0  0  0  0  0  0  0  0  0
   22.9734   -9.9556  -15.3867 C   0  0  0  0  0  0  0  0  0  0  0  0
   19.2089   -7.1250  -16.1090 C   0  0  0  0  0  0  0  0  0  0  0  0
   19.2913   -6.9059  -17.3688 O   0  0  0  0  0  0  0  0  0  0  0  0
   18.4642   -6.2641  -15.2930 N   0  0  0  0  0  0  0  0  0  0  0  0
   17.6954   -5.0876  -15.8822 C   0  0  1  0  0  0  0  0  0  0  0  0
   16.3738   -5.2479  -15.2359 C   0  0  0  0  0  0  0  0  0  0  0  0
   15.3157   -4.2517  -15.3945 C   0  0  0  0  0  0  0  0  0  0  0  0
   14.0114   -4.5476  -14.7664 C   0  0  0  0  0  0  0  0  0  0  0  0
   13.0250   -3.4451  -15.0626 C   0  0  0  0  0  0  0  0  0  0  0  0
   11.7102   -3.8949  -14.6242 N   0  0  0  0  0  0  0  0  0  0  0  0
   18.4957   -3.9091  -15.6150 C   0  0  0  0  0  0  0  0  0  0  0  0
   19.5784   -3.8393  -14.7867 O   0  0  0  0  0  0  0  0  0  0  0  0
   18.1800   -2.7998  -16.1902 O   0  0  0  0  0  0  0  0  0  0  0  0
  2  3  1  6
  2  1  1  0
  4  2  1  0
  5  4  1  0
  5  6  1  1
  7  5  1  0
  7  8  2  0
  9  7  1  0
 10  9  1  0
 10 11  1  6
 11 12  1  0
 12 17  2  0
 12 13  1  0
 13 14  2  0
 15 14  1  0
 16 15  2  0
 17 16  1  0
 18 10  1  0
 19 18  2  0
 20 18  1  0
 21 22  1  1
 21 20  1  0
 22 23  1  0
 23 24  1  0
 24 25  1  0
 26 25  1  0
 27 28  1  0
 27 21  1  0
 29 27  2  0
M  END
$$$$
