LFK.pdb
     RDKit          3D

 29 29  0  0  1  0  0  0  0  0999 V2000
   22.9687  -15.9690  -20.0714 C   0  0  0  0  0  0  0  0  0  0  0  0
   24.3179  -16.5558  -20.2543 C   0  0  2  0  0  0  0  0  0  0  0  0
   24.5143  -17.1045  -21.6678 C   0  0  0  0  0  0  0  0  0  0  0  0
   24.6209  -17.6655  -19.3128 C   0  0  0  0  0  0  0  0  0  0  0  0
   24.4964  -17.2663  -17.8923 C   0  0  2  0  0  0  0  0  0  0  0  0
   25.2146  -16.1229  -17.4569 N   0  0  0  0  0  0  0  0  0  0  0  0
   24.6636  -18.4298  -16.9549 C   0  0  0  0  0  0  0  0  0  0  0  0
   24.8793  -19.5907  -17.4294 O   0  0  0  0  0  0  0  0  0  0  0  0
   24.5948  -18.3175  -15.5557 N   0  0  0  0  0  0  0  0  0  0  0  0
   24.7705  -19.4316  -14.6329 C   0  0  1  0  0  0  0  0  0  0  0  0
   25.4610  -18.8663  -13.4325 C   0  0  0  0  0  0  0  0  0  0  0  0
   25.7011  -19.8162  -12.3371 C   0  0  0  0  0  0  0  0  0  0  0  0
   24.9894  -19.7411  -11.1485 C   0  0  0  0  0  0  0  0  0  0  0  0
   25.2090  -20.6399  -10.1228 C   0  0  0  0  0  0  0  0  0  0  0  0
   26.1435  -21.6467  -10.2387 C   0  0  0  0  0  0  0  0  0  0  0  0
   26.8553  -21.7374  -11.4029 C   0  0  0  0  0  0  0  0  0  0  0  0
   26.6283  -20.8321  -12.4259 C   0  0  0  0  0  0  0  0  0  0  0  0
   23.4415  -19.9623  -14.2350 C   0  0  0  0  0  0  0  0  0  0  0  0
   22.4918  -19.1671  -13.9070 O   0  0  0  0  0  0  0  0  0  0  0  0
   23.2350  -21.3475  -14.2213 N   0  0  0  0  0  0  0  0  0  0  0  0
   21.8989  -21.9414  -13.7919 C   0  0  1  0  0  0  0  0  0  0  0  0
   21.9043  -21.6558  -12.3398 C   0  0  0  0  0  0  0  0  0  0  0  0
   20.8478  -22.1469  -11.4567 C   0  0  0  0  0  0  0  0  0  0  0  0
   20.8810  -21.6958  -10.0501 C   0  0  0  0  0  0  0  0  0  0  0  0
   19.6699  -22.2045   -9.3080 C   0  0  0  0  0  0  0  0  0  0  0  0
   19.9857  -22.2008   -7.8855 N   0  0  0  0  0  0  0  0  0  0  0  0
   20.8963  -21.3373  -14.6465 C   0  0  0  0  0  0  0  0  0  0  0  0
   20.9663  -20.1030  -15.2253 O   0  0  0  0  0  0  0  0  0  0  0  0
   19.8175  -21.9952  -14.9003 O   0  0  0  0  0  0  0  0  0  0  0  0
  2  3  1  6
  2  1  1  0
  4  2  1  0
  5  4  1  0
  5  6  1  1
  7  5  1  0
  7  8  2  0
  9  7  1  0
 10  9  1  0
 10 11  1  1
 11 12  1  0
 12 17  2  0
 12 13  1  0
 13 14  2  0
 15 14  1  0
 16 15  2  0
 17 16  1  0
 18 10  1  0
 19 18  2  0
 20 18  1  0
 21 22  1  1
 21 20  1  0
 22 23  1  0
 23 24  1  0
 24 25  1  0
 26 25  1  0
 27 28  1  0
 27 21  1  0
 29 27  2  0
M  END
$$$$
