LFK.pdb
     RDKit          3D

 29 29  0  0  1  0  0  0  0  0999 V2000
   28.5639  -18.0119  -14.8361 C   0  0  0  0  0  0  0  0  0  0  0  0
   27.1715  -18.5169  -14.9043 C   0  0  2  0  0  0  0  0  0  0  0  0
   26.1683  -17.3908  -15.1558 C   0  0  0  0  0  0  0  0  0  0  0  0
   26.7300  -19.2237  -13.6735 C   0  0  0  0  0  0  0  0  0  0  0  0
   27.6836  -20.2683  -13.2352 C   0  0  2  0  0  0  0  0  0  0  0  0
   27.9522  -21.3400  -14.1253 N   0  0  0  0  0  0  0  0  0  0  0  0
   27.4019  -20.7499  -11.8391 C   0  0  0  0  0  0  0  0  0  0  0  0
   26.6768  -21.7812  -11.6665 O   0  0  0  0  0  0  0  0  0  0  0  0
   27.8976  -20.1206  -10.6843 N   0  0  0  0  0  0  0  0  0  0  0  0
   27.5108  -20.4763   -9.3252 C   0  0  1  0  0  0  0  0  0  0  0  0
   28.4076  -19.6894   -8.4231 C   0  0  0  0  0  0  0  0  0  0  0  0
   28.1150  -19.8024   -6.9873 C   0  0  0  0  0  0  0  0  0  0  0  0
   27.4278  -18.8049   -6.3108 C   0  0  0  0  0  0  0  0  0  0  0  0
   27.1450  -18.9160   -4.9632 C   0  0  0  0  0  0  0  0  0  0  0  0
   27.5339  -20.0212   -4.2371 C   0  0  0  0  0  0  0  0  0  0  0  0
   28.2124  -21.0155   -4.8863 C   0  0  0  0  0  0  0  0  0  0  0  0
   28.4914  -20.8958   -6.2373 C   0  0  0  0  0  0  0  0  0  0  0  0
   26.0993  -20.0784   -9.0893 C   0  0  0  0  0  0  0  0  0  0  0  0
   25.7211  -18.8687   -9.2779 O   0  0  0  0  0  0  0  0  0  0  0  0
   25.1806  -21.0428   -8.6563 N   0  0  0  0  0  0  0  0  0  0  0  0
   23.7135  -20.6926   -8.4385 C   0  0  1  0  0  0  0  0  0  0  0  0
   23.1136  -21.1353   -9.7168 C   0  0  0  0  0  0  0  0  0  0  0  0
   21.6793  -21.0170   -9.9736 C   0  0  0  0  0  0  0  0  0  0  0  0
   21.1789  -21.5441  -11.2600 C   0  0  0  0  0  0  0  0  0  0  0  0
   19.7055  -21.2552  -11.4072 C   0  0  0  0  0  0  0  0  0  0  0  0
   19.3177  -21.6029  -12.7680 N   0  0  0  0  0  0  0  0  0  0  0  0
   23.3272  -21.3312   -7.1960 C   0  0  0  0  0  0  0  0  0  0  0  0
   22.2413  -21.0174   -6.4306 O   0  0  0  0  0  0  0  0  0  0  0  0
   24.0596  -22.2854   -6.7335 O   0  0  0  0  0  0  0  0  0  0  0  0
  2  3  1  1
  2  1  1  0
  4  2  1  0
  5  4  1  0
  5  6  1  6
  7  5  1  0
  7  8  2  0
  9  7  1  0
 10  9  1  0
 10 11  1  1
 11 12  1  0
 12 17  2  0
 12 13  1  0
 13 14  2  0
 15 14  1  0
 16 15  2  0
 17 16  1  0
 18 10  1  0
 19 18  2  0
 20 18  1  0
 21 22  1  6
 21 20  1  0
 22 23  1  0
 23 24  1  0
 24 25  1  0
 26 25  1  0
 27 28  1  0
 27 21  1  0
 29 27  2  0
M  END
$$$$
