LFK.pdb
     RDKit          3D

 29 29  0  0  1  0  0  0  0  0999 V2000
   17.4978  -14.3239  -19.2676 C   0  0  0  0  0  0  0  0  0  0  0  0
   18.2118  -14.7870  -18.0535 C   0  0  2  0  0  0  0  0  0  0  0  0
   17.4756  -15.9347  -17.3618 C   0  0  0  0  0  0  0  0  0  0  0  0
   18.4116  -13.7236  -17.0342 C   0  0  0  0  0  0  0  0  0  0  0  0
   19.0824  -12.5214  -17.5794 C   0  0  2  0  0  0  0  0  0  0  0  0
   20.3394  -12.6913  -18.2151 N   0  0  0  0  0  0  0  0  0  0  0  0
   19.0935  -11.3799  -16.6009 C   0  0  0  0  0  0  0  0  0  0  0  0
   18.0904  -11.1977  -15.8395 O   0  0  0  0  0  0  0  0  0  0  0  0
   20.1639  -10.4787  -16.4692 N   0  0  0  0  0  0  0  0  0  0  0  0
   20.1689   -9.3365  -15.5642 C   0  0  1  0  0  0  0  0  0  0  0  0
   21.5992   -8.9173  -15.4391 C   0  0  0  0  0  0  0  0  0  0  0  0
   21.8279   -7.6660  -14.7029 C   0  0  0  0  0  0  0  0  0  0  0  0
   22.1373   -6.4864  -15.3645 C   0  0  0  0  0  0  0  0  0  0  0  0
   22.3430   -5.3086  -14.6726 C   0  0  0  0  0  0  0  0  0  0  0  0
   22.2494   -5.2579  -13.2983 C   0  0  0  0  0  0  0  0  0  0  0  0
   21.9452   -6.4105  -12.6280 C   0  0  0  0  0  0  0  0  0  0  0  0
   21.7404   -7.5865  -13.3297 C   0  0  0  0  0  0  0  0  0  0  0  0
   19.3785   -8.2279  -16.1579 C   0  0  0  0  0  0  0  0  0  0  0  0
   19.4373   -7.9833  -17.4143 O   0  0  0  0  0  0  0  0  0  0  0  0
   18.5641   -7.4481  -15.3271 N   0  0  0  0  0  0  0  0  0  0  0  0
   17.8791   -6.1908  -15.8493 C   0  0  1  0  0  0  0  0  0  0  0  0
   16.4619   -6.6165  -15.8707 C   0  0  0  0  0  0  0  0  0  0  0  0
   15.3776   -5.6643  -16.1047 C   0  0  0  0  0  0  0  0  0  0  0  0
   14.0045   -6.2068  -16.1617 C   0  0  0  0  0  0  0  0  0  0  0  0
   13.0139   -5.0993  -16.4230 C   0  0  0  0  0  0  0  0  0  0  0  0
   11.6754   -5.6647  -16.3140 N   0  0  0  0  0  0  0  0  0  0  0  0
   18.2995   -5.1116  -14.9780 C   0  0  0  0  0  0  0  0  0  0  0  0
   18.7258   -5.2357  -13.6871 O   0  0  0  0  0  0  0  0  0  0  0  0
   18.2741   -3.9040  -15.4274 O   0  0  0  0  0  0  0  0  0  0  0  0
  2  3  1  1
  2  1  1  0
  4  2  1  0
  5  4  1  0
  5  6  1  1
  7  5  1  0
  7  8  2  0
  9  7  1  0
 10  9  1  0
 10 11  1  6
 11 12  1  0
 12 17  2  0
 12 13  1  0
 13 14  2  0
 15 14  1  0
 16 15  2  0
 17 16  1  0
 18 10  1  0
 19 18  2  0
 20 18  1  0
 21 22  1  1
 21 20  1  0
 22 23  1  0
 23 24  1  0
 24 25  1  0
 26 25  1  0
 27 28  1  0
 27 21  1  0
 29 27  2  0
M  END
$$$$
