LFK.pdb
     RDKit          3D

 29 29  0  0  1  0  0  0  0  0999 V2000
   22.9550  -19.6772  -20.7017 C   0  0  0  0  0  0  0  0  0  0  0  0
   24.1987  -19.7483  -19.8975 C   0  0  2  0  0  0  0  0  0  0  0  0
   25.3292  -20.4440  -20.6561 C   0  0  0  0  0  0  0  0  0  0  0  0
   24.0365  -20.4671  -18.6065 C   0  0  0  0  0  0  0  0  0  0  0  0
   22.9577  -19.9025  -17.7640 C   0  0  2  0  0  0  0  0  0  0  0  0
   22.8023  -18.4925  -17.7381 N   0  0  0  0  0  0  0  0  0  0  0  0
   22.9390  -20.4987  -16.3839 C   0  0  0  0  0  0  0  0  0  0  0  0
   23.3104  -21.7043  -16.2172 O   0  0  0  0  0  0  0  0  0  0  0  0
   22.5278  -19.7959  -15.2384 N   0  0  0  0  0  0  0  0  0  0  0  0
   22.4423  -20.3773  -13.9050 C   0  0  1  0  0  0  0  0  0  0  0  0
   22.8831  -19.3051  -12.9598 C   0  0  0  0  0  0  0  0  0  0  0  0
   22.8632  -19.6712  -11.5366 C   0  0  0  0  0  0  0  0  0  0  0  0
   23.9376  -20.3181  -10.9433 C   0  0  0  0  0  0  0  0  0  0  0  0
   23.9221  -20.6536   -9.6034 C   0  0  0  0  0  0  0  0  0  0  0  0
   22.8394  -20.3595   -8.8026 C   0  0  0  0  0  0  0  0  0  0  0  0
   21.7703  -19.7218   -9.3690 C   0  0  0  0  0  0  0  0  0  0  0  0
   21.7947  -19.3891  -10.7129 C   0  0  0  0  0  0  0  0  0  0  0  0
   21.0336  -20.7462  -13.6125 C   0  0  0  0  0  0  0  0  0  0  0  0
   20.0669  -20.0134  -14.0253 O   0  0  0  0  0  0  0  0  0  0  0  0
   20.7702  -21.9087  -12.8771 N   0  0  0  0  0  0  0  0  0  0  0  0
   19.3415  -22.3746  -12.6233 C   0  0  1  0  0  0  0  0  0  0  0  0
   19.5118  -23.8445  -12.6026 C   0  0  0  0  0  0  0  0  0  0  0  0
   18.3718  -24.7475  -12.4540 C   0  0  0  0  0  0  0  0  0  0  0  0
   18.6124  -26.1838  -12.7038 C   0  0  0  0  0  0  0  0  0  0  0  0
   17.3247  -26.9601  -12.5801 C   0  0  0  0  0  0  0  0  0  0  0  0
   17.6415  -28.3743  -12.7310 N   0  0  0  0  0  0  0  0  0  0  0  0
   18.8965  -21.6788  -11.4323 C   0  0  0  0  0  0  0  0  0  0  0  0
   17.6105  -21.3332  -11.1323 O   0  0  0  0  0  0  0  0  0  0  0  0
   19.7716  -21.3290  -10.5532 O   0  0  0  0  0  0  0  0  0  0  0  0
  2  3  1  6
  2  1  1  0
  4  2  1  0
  5  4  1  0
  5  6  1  1
  7  5  1  0
  7  8  2  0
  9  7  1  0
 10  9  1  0
 10 11  1  1
 11 12  1  0
 12 17  2  0
 12 13  1  0
 13 14  2  0
 15 14  1  0
 16 15  2  0
 17 16  1  0
 18 10  1  0
 19 18  2  0
 20 18  1  0
 21 22  1  1
 21 20  1  0
 22 23  1  0
 23 24  1  0
 24 25  1  0
 26 25  1  0
 27 28  1  0
 27 21  1  0
 29 27  2  0
M  END
$$$$
