LFK.pdb
     RDKit          3D

 29 29  0  0  1  0  0  0  0  0999 V2000
   27.9551  -17.5371  -17.2316 C   0  0  0  0  0  0  0  0  0  0  0  0
   28.8309  -18.4431  -16.4502 C   0  0  2  0  0  0  0  0  0  0  0  0
   29.7790  -19.2360  -17.3503 C   0  0  0  0  0  0  0  0  0  0  0  0
   28.0868  -19.4320  -15.6268 C   0  0  0  0  0  0  0  0  0  0  0  0
   27.1408  -18.7984  -14.6802 C   0  0  2  0  0  0  0  0  0  0  0  0
   27.6360  -17.7793  -13.8263 N   0  0  0  0  0  0  0  0  0  0  0  0
   26.3156  -19.8097  -13.9340 C   0  0  0  0  0  0  0  0  0  0  0  0
   26.0763  -20.9398  -14.4677 O   0  0  0  0  0  0  0  0  0  0  0  0
   25.7773  -19.5835  -12.6555 N   0  0  0  0  0  0  0  0  0  0  0  0
   24.9488  -20.5398  -11.9325 C   0  0  1  0  0  0  0  0  0  0  0  0
   25.0227  -20.1418  -10.4926 C   0  0  0  0  0  0  0  0  0  0  0  0
   26.3078  -20.4059   -9.8301 C   0  0  0  0  0  0  0  0  0  0  0  0
   27.2582  -21.2370  -10.4052 C   0  0  0  0  0  0  0  0  0  0  0  0
   28.4696  -21.4775   -9.7864 C   0  0  0  0  0  0  0  0  0  0  0  0
   28.7826  -20.9018   -8.5737 C   0  0  0  0  0  0  0  0  0  0  0  0
   27.8587  -20.0791   -7.9907 C   0  0  0  0  0  0  0  0  0  0  0  0
   26.6470  -19.8437   -8.6183 C   0  0  0  0  0  0  0  0  0  0  0  0
   23.5438  -20.4362  -12.4029 C   0  0  0  0  0  0  0  0  0  0  0  0
   23.0388  -19.2986  -12.7078 O   0  0  0  0  0  0  0  0  0  0  0  0
   22.7716  -21.5997  -12.5106 N   0  0  0  0  0  0  0  0  0  0  0  0
   21.3159  -21.5415  -12.9577 C   0  0  1  0  0  0  0  0  0  0  0  0
   21.0996  -22.9263  -13.4327 C   0  0  0  0  0  0  0  0  0  0  0  0
   19.7853  -23.3903  -13.8738 C   0  0  0  0  0  0  0  0  0  0  0  0
   19.6896  -24.7828  -14.3585 C   0  0  0  0  0  0  0  0  0  0  0  0
   18.2724  -25.0988  -14.7684 C   0  0  0  0  0  0  0  0  0  0  0  0
   18.2617  -26.4416  -15.3339 N   0  0  0  0  0  0  0  0  0  0  0  0
   20.5662  -21.0378  -11.8242 C   0  0  0  0  0  0  0  0  0  0  0  0
   19.3527  -20.4144  -11.8716 O   0  0  0  0  0  0  0  0  0  0  0  0
   21.0651  -21.1649  -10.6428 O   0  0  0  0  0  0  0  0  0  0  0  0
  2  3  1  6
  2  1  1  0
  4  2  1  0
  5  4  1  0
  5  6  1  1
  7  5  1  0
  7  8  2  0
  9  7  1  0
 10  9  1  0
 10 11  1  1
 11 12  1  0
 12 17  2  0
 12 13  1  0
 13 14  2  0
 15 14  1  0
 16 15  2  0
 17 16  1  0
 18 10  1  0
 19 18  2  0
 20 18  1  0
 21 22  1  1
 21 20  1  0
 22 23  1  0
 23 24  1  0
 24 25  1  0
 26 25  1  0
 27 28  1  0
 27 21  1  0
 29 27  2  0
M  END
$$$$
