LFK.pdb
     RDKit          3D

 29 29  0  0  1  0  0  0  0  0999 V2000
   29.1720  -18.5519  -14.9587 C   0  0  0  0  0  0  0  0  0  0  0  0
   27.7263  -18.8802  -14.9836 C   0  0  2  0  0  0  0  0  0  0  0  0
   26.8683  -17.6539  -15.2958 C   0  0  0  0  0  0  0  0  0  0  0  0
   27.2197  -19.4501  -13.7076 C   0  0  0  0  0  0  0  0  0  0  0  0
   28.0184  -20.6036  -13.2342 C   0  0  2  0  0  0  0  0  0  0  0  0
   28.1614  -21.7157  -14.1034 N   0  0  0  0  0  0  0  0  0  0  0  0
   27.6475  -21.0211  -11.8383 C   0  0  0  0  0  0  0  0  0  0  0  0
   26.8216  -21.9740  -11.6679 O   0  0  0  0  0  0  0  0  0  0  0  0
   28.1645  -20.4132  -10.6813 N   0  0  0  0  0  0  0  0  0  0  0  0
   27.6954  -20.6889   -9.3295 C   0  0  1  0  0  0  0  0  0  0  0  0
   28.6374  -19.9740   -8.4136 C   0  0  0  0  0  0  0  0  0  0  0  0
   28.2616  -19.9789   -6.9927 C   0  0  0  0  0  0  0  0  0  0  0  0
   28.6838  -20.9875   -6.1387 C   0  0  0  0  0  0  0  0  0  0  0  0
   28.3380  -20.9865   -4.8013 C   0  0  0  0  0  0  0  0  0  0  0  0
   27.5601  -19.9845   -4.2620 C   0  0  0  0  0  0  0  0  0  0  0  0
   27.1341  -18.9811   -5.0879 C   0  0  0  0  0  0  0  0  0  0  0  0
   27.4858  -18.9901   -6.4272 C   0  0  0  0  0  0  0  0  0  0  0  0
   26.3258  -20.1410   -9.1566 C   0  0  0  0  0  0  0  0  0  0  0  0
   26.0511  -18.9425   -9.5173 O   0  0  0  0  0  0  0  0  0  0  0  0
   25.3320  -20.9506   -8.5923 N   0  0  0  0  0  0  0  0  0  0  0  0
   23.8687  -20.5249   -8.6012 C   0  0  1  0  0  0  0  0  0  0  0  0
   23.5009  -20.7696  -10.0136 C   0  0  0  0  0  0  0  0  0  0  0  0
   22.1462  -20.5278  -10.5072 C   0  0  0  0  0  0  0  0  0  0  0  0
   21.8998  -20.7658  -11.9445 C   0  0  0  0  0  0  0  0  0  0  0  0
   20.4553  -20.4901  -12.2812 C   0  0  0  0  0  0  0  0  0  0  0  0
   20.3090  -20.5885  -13.7276 N   0  0  0  0  0  0  0  0  0  0  0  0
   23.2241  -21.2765   -7.5428 C   0  0  0  0  0  0  0  0  0  0  0  0
   23.7881  -22.2759   -6.8035 O   0  0  0  0  0  0  0  0  0  0  0  0
   21.9981  -21.0096   -7.2487 O   0  0  0  0  0  0  0  0  0  0  0  0
  2  3  1  1
  2  1  1  0
  4  2  1  0
  5  4  1  0
  5  6  1  6
  7  5  1  0
  7  8  2  0
  9  7  1  0
 10  9  1  0
 10 11  1  1
 11 12  1  0
 12 17  2  0
 12 13  1  0
 13 14  2  0
 15 14  1  0
 16 15  2  0
 17 16  1  0
 18 10  1  0
 19 18  2  0
 20 18  1  0
 21 22  1  6
 21 20  1  0
 22 23  1  0
 23 24  1  0
 24 25  1  0
 26 25  1  0
 27 28  1  0
 27 21  1  0
 29 27  2  0
M  END
$$$$
