LFK.pdb
     RDKit          3D

 29 29  0  0  1  0  0  0  0  0999 V2000
   28.8107  -21.7004  -19.9312 C   0  0  0  0  0  0  0  0  0  0  0  0
   29.7369  -21.9418  -18.7989 C   0  0  2  0  0  0  0  0  0  0  0  0
   30.7653  -23.0254  -19.1244 C   0  0  0  0  0  0  0  0  0  0  0  0
   29.0543  -22.3549  -17.5447 C   0  0  0  0  0  0  0  0  0  0  0  0
   28.0444  -21.3731  -17.0878 C   0  0  2  0  0  0  0  0  0  0  0  0
   28.3829  -19.9964  -17.1408 N   0  0  0  0  0  0  0  0  0  0  0  0
   27.4326  -21.7545  -15.7685 C   0  0  0  0  0  0  0  0  0  0  0  0
   27.0561  -22.9547  -15.5760 O   0  0  0  0  0  0  0  0  0  0  0  0
   27.2436  -20.8511  -14.7086 N   0  0  0  0  0  0  0  0  0  0  0  0
   26.5470  -21.1729  -13.4697 C   0  0  1  0  0  0  0  0  0  0  0  0
   27.1939  -20.3429  -12.4067 C   0  0  0  0  0  0  0  0  0  0  0  0
   26.6193  -20.4813  -11.0611 C   0  0  0  0  0  0  0  0  0  0  0  0
   25.6170  -19.6325  -10.6142 C   0  0  0  0  0  0  0  0  0  0  0  0
   25.0709  -19.7690   -9.3527 C   0  0  0  0  0  0  0  0  0  0  0  0
   25.4995  -20.7532   -8.4879 C   0  0  0  0  0  0  0  0  0  0  0  0
   26.4868  -21.6001   -8.9102 C   0  0  0  0  0  0  0  0  0  0  0  0
   27.0283  -21.4560  -10.1765 C   0  0  0  0  0  0  0  0  0  0  0  0
   25.1160  -20.7940  -13.5909 C   0  0  0  0  0  0  0  0  0  0  0  0
   24.7812  -19.6306  -14.0107 O   0  0  0  0  0  0  0  0  0  0  0  0
   24.1305  -21.7253  -13.2398 N   0  0  0  0  0  0  0  0  0  0  0  0
   22.6490  -21.3946  -13.3755 C   0  0  1  0  0  0  0  0  0  0  0  0
   22.0892  -22.7095  -13.7598 C   0  0  0  0  0  0  0  0  0  0  0  0
   20.6505  -22.9151  -13.9175 C   0  0  0  0  0  0  0  0  0  0  0  0
   20.2043  -24.2557  -14.3498 C   0  0  0  0  0  0  0  0  0  0  0  0
   18.7006  -24.2955  -14.4658 C   0  0  0  0  0  0  0  0  0  0  0  0
   18.3263  -25.6192  -14.9462 N   0  0  0  0  0  0  0  0  0  0  0  0
   22.2578  -20.7772  -12.1239 C   0  0  0  0  0  0  0  0  0  0  0  0
   22.8596  -20.9575  -10.9120 O   0  0  0  0  0  0  0  0  0  0  0  0
   21.2437  -19.9820  -12.1133 O   0  0  0  0  0  0  0  0  0  0  0  0
  2  3  1  6
  2  1  1  0
  4  2  1  0
  5  4  1  0
  5  6  1  1
  7  5  1  0
  7  8  2  0
  9  7  1  0
 10  9  1  0
 10 11  1  1
 11 12  1  0
 12 17  2  0
 12 13  1  0
 13 14  2  0
 15 14  1  0
 16 15  2  0
 17 16  1  0
 18 10  1  0
 19 18  2  0
 20 18  1  0
 21 22  1  1
 21 20  1  0
 22 23  1  0
 23 24  1  0
 24 25  1  0
 26 25  1  0
 27 28  1  0
 27 21  1  0
 29 27  2  0
M  END
$$$$
