CNK.pdb
     RDKit          3D

 24 23  0  0  1  0  0  0  0  0999 V2000
    7.7394  -14.7938   18.3985 N   0  0  0  0  0  0  0  0  0  0  0  0
    8.4492  -14.2960   19.5279 C   0  0  1  0  0  0  0  0  0  0  0  0
    8.0234  -12.9073   19.9404 C   0  0  0  0  0  0  0  0  0  0  0  0
    8.7585  -11.6410   18.8760 S   0  0  0  0  0  0  0  0  0  0  0  0
    8.3791  -15.2573   20.6494 C   0  0  0  0  0  0  0  0  0  0  0  0
    7.2705  -15.5122   21.1592 O   0  0  0  0  0  0  0  0  0  0  0  0
   11.3714  -19.8516   23.3342 N   0  0  0  0  0  0  0  0  0  0  0  0
   10.2332  -19.0459   23.1312 C   0  0  0  0  0  0  0  0  0  0  0  0
    9.2683  -19.1464   23.9123 O   0  0  0  0  0  0  0  0  0  0  0  0
   10.2138  -18.0987   21.9919 C   0  0  0  0  0  0  0  0  0  0  0  0
    9.4978  -16.8168   22.3083 C   0  0  2  0  0  0  0  0  0  0  0  0
    9.5305  -15.9109   21.1785 N   0  0  0  0  0  0  0  0  0  0  0  0
   10.0400  -16.1698   23.5361 C   0  0  0  0  0  0  0  0  0  0  0  0
   11.2838  -15.9041   23.5912 O   0  0  0  0  0  0  0  0  0  0  0  0
    9.2490  -15.8357   24.6410 N   0  0  0  0  0  0  0  0  0  0  0  0
    9.9214  -15.2929   25.9012 C   0  0  1  0  0  0  0  0  0  0  0  0
    9.2693  -13.9900   26.1610 C   0  0  0  0  0  0  0  0  0  0  0  0
    7.8280  -13.8186   26.1858 C   0  0  0  0  0  0  0  0  0  0  0  0
    7.1972  -12.5275   26.5455 C   0  0  0  0  0  0  0  0  0  0  0  0
    5.6470  -12.7248   26.4148 C   0  0  0  0  0  0  0  0  0  0  0  0
    4.9998  -11.5238   26.8518 N   0  0  0  0  0  0  0  0  0  0  0  0
    9.6841  -16.3782   26.8692 C   0  0  0  0  0  0  0  0  0  0  0  0
   10.2043  -16.2560   28.0420 O   0  0  0  0  0  0  0  0  0  0  0  0
    8.9535  -17.4912   26.6157 O   0  0  0  0  0  0  0  0  0  0  0  0
  2  1  1  6
  3  2  1  0
  3  4  1  0
  5  2  1  0
  5  6  2  0
  7  8  1  0
  8 10  1  0
  8  9  2  0
 11 10  1  6
 11 13  1  0
 11 12  1  0
 12  5  1  0
 13 15  1  0
 14 13  2  0
 15 16  1  0
 16 22  1  0
 17 18  1  0
 16 17  1  1
 19 18  1  0
 19 20  1  0
 21 20  1  0
 22 23  2  0
 22 24  1  0
M  END
$$$$
