CNK.pdb
     RDKit          3D

 24 23  0  0  1  0  0  0  0  0999 V2000
    7.5193  -17.5257   19.5547 N   0  0  0  0  0  0  0  0  0  0  0  0
    8.3629  -16.4291   19.8908 C   0  0  1  0  0  0  0  0  0  0  0  0
    7.6027  -15.1885   20.2947 C   0  0  0  0  0  0  0  0  0  0  0  0
    6.5900  -15.4771   21.7670 S   0  0  0  0  0  0  0  0  0  0  0  0
    9.3554  -16.8319   20.9103 C   0  0  0  0  0  0  0  0  0  0  0  0
    9.1442  -17.8560   21.5887 O   0  0  0  0  0  0  0  0  0  0  0  0
   14.4496  -17.3298   22.9817 N   0  0  0  0  0  0  0  0  0  0  0  0
   13.8261  -16.0662   23.0031 C   0  0  0  0  0  0  0  0  0  0  0  0
   14.1354  -15.2490   23.8906 O   0  0  0  0  0  0  0  0  0  0  0  0
   12.8170  -15.7422   21.9676 C   0  0  0  0  0  0  0  0  0  0  0  0
   11.4953  -16.4143   22.2074 C   0  0  2  0  0  0  0  0  0  0  0  0
   10.5523  -16.0966   21.1547 N   0  0  0  0  0  0  0  0  0  0  0  0
   10.9407  -16.0797   23.5493 C   0  0  0  0  0  0  0  0  0  0  0  0
   11.6398  -16.3334   24.5824 O   0  0  0  0  0  0  0  0  0  0  0  0
    9.6826  -15.4966   23.7363 N   0  0  0  0  0  0  0  0  0  0  0  0
    9.2778  -15.0318   25.1345 C   0  0  1  0  0  0  0  0  0  0  0  0
    8.2208  -14.0188   24.9181 C   0  0  0  0  0  0  0  0  0  0  0  0
    7.4383  -13.4495   26.0002 C   0  0  0  0  0  0  0  0  0  0  0  0
    6.3858  -12.4355   25.7586 C   0  0  0  0  0  0  0  0  0  0  0  0
    5.7949  -12.0484   27.1587 C   0  0  0  0  0  0  0  0  0  0  0  0
    4.7350  -11.1059   26.9573 N   0  0  0  0  0  0  0  0  0  0  0  0
    8.8861  -16.2977   25.7790 C   0  0  0  0  0  0  0  0  0  0  0  0
    8.3042  -17.1847   25.0472 O   0  0  0  0  0  0  0  0  0  0  0  0
    9.0996  -16.5970   27.0835 O   0  0  0  0  0  0  0  0  0  0  0  0
  2  1  1  1
  3  2  1  0
  3  4  1  0
  5  2  1  0
  5  6  2  0
  7  8  1  0
  8 10  1  0
  8  9  2  0
 11 10  1  6
 11 13  1  0
 11 12  1  0
 12  5  1  0
 13 15  1  0
 14 13  2  0
 15 16  1  0
 16 22  1  0
 17 18  1  0
 16 17  1  6
 19 18  1  0
 19 20  1  0
 21 20  1  0
 22 23  2  0
 22 24  1  0
M  END
$$$$
