CNK.pdb
     RDKit          3D

 24 23  0  0  1  0  0  0  0  0999 V2000
   10.0652  -16.4326   15.5347 N   0  0  0  0  0  0  0  0  0  0  0  0
   10.7288  -15.4654   16.3417 C   0  0  1  0  0  0  0  0  0  0  0  0
    9.7911  -14.6676   17.2160 C   0  0  0  0  0  0  0  0  0  0  0  0
    8.9850  -15.7120   18.4554 S   0  0  0  0  0  0  0  0  0  0  0  0
   11.8156  -16.0974   17.1203 C   0  0  0  0  0  0  0  0  0  0  0  0
   11.9558  -17.3349   17.0689 O   0  0  0  0  0  0  0  0  0  0  0  0
   14.8311  -13.0074   17.5461 N   0  0  0  0  0  0  0  0  0  0  0  0
   15.3715  -13.9866   18.4034 C   0  0  0  0  0  0  0  0  0  0  0  0
   16.0293  -13.6291   19.3987 O   0  0  0  0  0  0  0  0  0  0  0  0
   15.1429  -15.4183   18.0978 C   0  0  0  0  0  0  0  0  0  0  0  0
   13.8398  -15.9320   18.6404 C   0  0  2  0  0  0  0  0  0  0  0  0
   12.7172  -15.3502   17.9337 N   0  0  0  0  0  0  0  0  0  0  0  0
   13.7275  -15.7105   20.1096 C   0  0  0  0  0  0  0  0  0  0  0  0
   13.1760  -14.6423   20.5284 O   0  0  0  0  0  0  0  0  0  0  0  0
   14.1994  -16.6210   21.0615 N   0  0  0  0  0  0  0  0  0  0  0  0
   13.9935  -16.3206   22.5455 C   0  0  1  0  0  0  0  0  0  0  0  0
   13.2191  -17.4667   23.0718 C   0  0  0  0  0  0  0  0  0  0  0  0
   12.7699  -17.5510   24.4496 C   0  0  0  0  0  0  0  0  0  0  0  0
   11.9014  -18.6524   24.9260 C   0  0  0  0  0  0  0  0  0  0  0  0
   11.5470  -18.3401   26.4214 C   0  0  0  0  0  0  0  0  0  0  0  0
   10.6343  -19.3407   26.8883 N   0  0  0  0  0  0  0  0  0  0  0  0
   15.3782  -16.1579   23.0223 C   0  0  0  0  0  0  0  0  0  0  0  0
   16.3171  -16.6975   22.3235 O   0  0  0  0  0  0  0  0  0  0  0  0
   15.7342  -15.4770   24.1387 O   0  0  0  0  0  0  0  0  0  0  0  0
  2  1  1  1
  3  2  1  0
  3  4  1  0
  5  2  1  0
  5  6  2  0
  7  8  1  0
  8 10  1  0
  8  9  2  0
 11 10  1  6
 11 13  1  0
 11 12  1  0
 12  5  1  0
 13 15  1  0
 14 13  2  0
 15 16  1  0
 16 22  1  0
 17 18  1  0
 16 17  1  1
 19 18  1  0
 19 20  1  0
 21 20  1  0
 22 23  2  0
 22 24  1  0
M  END
$$$$
