CNK.pdb
     RDKit          3D

 24 23  0  0  1  0  0  0  0  0999 V2000
    8.8284  -18.1139   15.8438 N   0  0  0  0  0  0  0  0  0  0  0  0
    7.8117  -17.7168   16.7581 C   0  0  1  0  0  0  0  0  0  0  0  0
    7.0782  -18.8796   17.3825 C   0  0  0  0  0  0  0  0  0  0  0  0
    8.2056  -20.2341   17.7961 S   0  0  0  0  0  0  0  0  0  0  0  0
    8.3600  -16.7926   17.7739 C   0  0  0  0  0  0  0  0  0  0  0  0
    9.5958  -16.6559   17.8631 O   0  0  0  0  0  0  0  0  0  0  0  0
    8.0652  -12.0357   20.7444 N   0  0  0  0  0  0  0  0  0  0  0  0
    7.4698  -13.2410   21.1668 C   0  0  0  0  0  0  0  0  0  0  0  0
    7.3666  -13.4753   22.3857 O   0  0  0  0  0  0  0  0  0  0  0  0
    6.9811  -14.1999   20.1484 C   0  0  0  0  0  0  0  0  0  0  0  0
    8.0441  -15.1547   19.6853 C   0  0  2  0  0  0  0  0  0  0  0  0
    7.5334  -16.0450   18.6631 N   0  0  0  0  0  0  0  0  0  0  0  0
    8.6343  -15.9175   20.8211 C   0  0  0  0  0  0  0  0  0  0  0  0
    8.0634  -16.9896   21.2024 O   0  0  0  0  0  0  0  0  0  0  0  0
    9.7918  -15.5155   21.4967 N   0  0  0  0  0  0  0  0  0  0  0  0
   10.3477  -16.3994   22.6123 C   0  0  1  0  0  0  0  0  0  0  0  0
   11.8146  -16.3987   22.4162 C   0  0  0  0  0  0  0  0  0  0  0  0
   12.7248  -17.1547   23.2572 C   0  0  0  0  0  0  0  0  0  0  0  0
   14.1910  -17.1294   23.0481 C   0  0  0  0  0  0  0  0  0  0  0  0
   14.8292  -18.0030   24.1833 C   0  0  0  0  0  0  0  0  0  0  0  0
   16.2541  -17.9553   24.0437 N   0  0  0  0  0  0  0  0  0  0  0  0
    9.8218  -15.7391   23.8200 C   0  0  0  0  0  0  0  0  0  0  0  0
    9.4502  -14.5096   23.7139 O   0  0  0  0  0  0  0  0  0  0  0  0
    9.6958  -16.3342   25.0311 O   0  0  0  0  0  0  0  0  0  0  0  0
  2  1  1  1
  3  2  1  0
  3  4  1  0
  5  2  1  0
  5  6  2  0
  7  8  1  0
  8 10  1  0
  8  9  2  0
 11 10  1  1
 11 13  1  0
 11 12  1  0
 12  5  1  0
 13 15  1  0
 14 13  2  0
 15 16  1  0
 16 22  1  0
 17 18  1  0
 16 17  1  1
 19 18  1  0
 19 20  1  0
 21 20  1  0
 22 23  2  0
 22 24  1  0
M  END
$$$$
