CNK.pdb
     RDKit          3D

 24 23  0  0  1  0  0  0  0  0999 V2000
    8.0174  -15.3168   17.8338 N   0  0  0  0  0  0  0  0  0  0  0  0
    8.8286  -14.7491   18.8571 C   0  0  1  0  0  0  0  0  0  0  0  0
    8.4492  -13.3298   19.2059 C   0  0  0  0  0  0  0  0  0  0  0  0
    8.6354  -12.2221   17.7864 S   0  0  0  0  0  0  0  0  0  0  0  0
    8.8543  -15.6281   20.0460 C   0  0  0  0  0  0  0  0  0  0  0  0
    7.7799  -16.0815   20.4863 O   0  0  0  0  0  0  0  0  0  0  0  0
   10.2622  -19.8562   21.1302 N   0  0  0  0  0  0  0  0  0  0  0  0
   11.1743  -18.8100   20.8867 C   0  0  0  0  0  0  0  0  0  0  0  0
   11.8520  -18.8233   19.8418 O   0  0  0  0  0  0  0  0  0  0  0  0
   11.3037  -17.7196   21.8816 C   0  0  0  0  0  0  0  0  0  0  0  0
   10.1115  -16.8063   21.9078 C   0  0  2  0  0  0  0  0  0  0  0  0
   10.0611  -15.9833   20.7169 N   0  0  0  0  0  0  0  0  0  0  0  0
   10.0811  -15.9731   23.1427 C   0  0  0  0  0  0  0  0  0  0  0  0
   11.0723  -15.2155   23.3961 O   0  0  0  0  0  0  0  0  0  0  0  0
    9.0127  -15.9785   24.0463 N   0  0  0  0  0  0  0  0  0  0  0  0
    9.0829  -15.0903   25.2877 C   0  0  1  0  0  0  0  0  0  0  0  0
    7.7797  -14.3910   25.3413 C   0  0  0  0  0  0  0  0  0  0  0  0
    7.4211  -13.4680   26.4028 C   0  0  0  0  0  0  0  0  0  0  0  0
    6.0935  -12.8135   26.4586 C   0  0  0  0  0  0  0  0  0  0  0  0
    6.0741  -11.9300   27.7541 C   0  0  0  0  0  0  0  0  0  0  0  0
    4.7731  -11.3442   27.8825 N   0  0  0  0  0  0  0  0  0  0  0  0
    9.3752  -16.0682   26.3504 C   0  0  0  0  0  0  0  0  0  0  0  0
    9.0619  -17.2990   26.1313 O   0  0  0  0  0  0  0  0  0  0  0  0
    9.9548  -15.7662   27.5378 O   0  0  0  0  0  0  0  0  0  0  0  0
  2  1  1  6
  3  2  1  0
  3  4  1  0
  5  2  1  0
  5  6  2  0
  7  8  1  0
  8 10  1  0
  8  9  2  0
 11 10  1  6
 11 13  1  0
 11 12  1  0
 12  5  1  0
 13 15  1  0
 14 13  2  0
 15 16  1  0
 16 22  1  0
 17 18  1  0
 16 17  1  1
 19 18  1  0
 19 20  1  0
 21 20  1  0
 22 23  2  0
 22 24  1  0
M  END
$$$$
