CNK.pdb
     RDKit          3D

 24 23  0  0  1  0  0  0  0  0999 V2000
    6.7688  -14.0665   18.5574 N   0  0  0  0  0  0  0  0  0  0  0  0
    8.1585  -14.0580   18.8668 C   0  0  1  0  0  0  0  0  0  0  0  0
    8.6549  -12.7212   19.3635 C   0  0  0  0  0  0  0  0  0  0  0  0
    7.9975  -12.3342   21.0051 S   0  0  0  0  0  0  0  0  0  0  0  0
    8.4890  -15.1574   19.7990 C   0  0  0  0  0  0  0  0  0  0  0  0
    7.6005  -15.5979   20.5541 O   0  0  0  0  0  0  0  0  0  0  0  0
    9.8828  -19.8366   19.3362 N   0  0  0  0  0  0  0  0  0  0  0  0
   10.4683  -18.6002   18.9980 C   0  0  0  0  0  0  0  0  0  0  0  0
   10.4472  -18.2200   17.8122 O   0  0  0  0  0  0  0  0  0  0  0  0
   11.0948  -17.7832   20.0637 C   0  0  0  0  0  0  0  0  0  0  0  0
   10.1245  -16.8549   20.7367 C   0  0  2  0  0  0  0  0  0  0  0  0
    9.7878  -15.7409   19.8743 N   0  0  0  0  0  0  0  0  0  0  0  0
   10.6347  -16.3834   22.0548 C   0  0  0  0  0  0  0  0  0  0  0  0
   11.5406  -15.4894   22.0777 O   0  0  0  0  0  0  0  0  0  0  0  0
   10.1676  -16.8745   23.2790 N   0  0  0  0  0  0  0  0  0  0  0  0
   10.7048  -16.2723   24.5766 C   0  0  1  0  0  0  0  0  0  0  0  0
    9.6305  -16.4739   25.5743 C   0  0  0  0  0  0  0  0  0  0  0  0
    9.7431  -16.0411   26.9554 C   0  0  0  0  0  0  0  0  0  0  0  0
    9.5447  -14.6283   27.3538 C   0  0  0  0  0  0  0  0  0  0  0  0
    9.8716  -14.5356   28.8848 C   0  0  0  0  0  0  0  0  0  0  0  0
    9.6531  -13.1860   29.3130 N   0  0  0  0  0  0  0  0  0  0  0  0
   11.9601  -17.0200   24.7671 C   0  0  0  0  0  0  0  0  0  0  0  0
   12.8881  -16.4603   25.4645 O   0  0  0  0  0  0  0  0  0  0  0  0
   12.2051  -18.2554   24.2665 O   0  0  0  0  0  0  0  0  0  0  0  0
  2  1  1  1
  3  2  1  0
  3  4  1  0
  5  2  1  0
  5  6  2  0
  7  8  1  0
  8 10  1  0
  8  9  2  0
 11 10  1  6
 11 13  1  0
 11 12  1  0
 12  5  1  0
 13 15  1  0
 14 13  2  0
 15 16  1  0
 16 22  1  0
 17 18  1  0
 16 17  1  1
 19 18  1  0
 19 20  1  0
 21 20  1  0
 22 23  2  0
 22 24  1  0
M  END
$$$$
