CNK.pdb
     RDKit          3D

 24 23  0  0  1  0  0  0  0  0999 V2000
    7.8797  -15.0692   18.3259 N   0  0  0  0  0  0  0  0  0  0  0  0
    8.4348  -14.5871   19.5452 C   0  0  1  0  0  0  0  0  0  0  0  0
    7.5932  -13.5235   20.2089 C   0  0  0  0  0  0  0  0  0  0  0  0
    7.5960  -11.9824   19.2593 S   0  0  0  0  0  0  0  0  0  0  0  0
    8.7357  -15.7109   20.4581 C   0  0  0  0  0  0  0  0  0  0  0  0
    7.9657  -16.6908   20.4854 O   0  0  0  0  0  0  0  0  0  0  0  0
   13.3727  -18.3177   23.4233 N   0  0  0  0  0  0  0  0  0  0  0  0
   12.1293  -18.3633   22.7617 C   0  0  0  0  0  0  0  0  0  0  0  0
   11.4165  -19.3786   22.8734 O   0  0  0  0  0  0  0  0  0  0  0  0
   11.7014  -17.2005   21.9492 C   0  0  0  0  0  0  0  0  0  0  0  0
   10.2522  -16.8544   22.1397 C   0  0  2  0  0  0  0  0  0  0  0  0
    9.8750  -15.7248   21.3152 N   0  0  0  0  0  0  0  0  0  0  0  0
    9.9264  -16.6105   23.5731 C   0  0  0  0  0  0  0  0  0  0  0  0
   10.3771  -15.5606   24.1344 O   0  0  0  0  0  0  0  0  0  0  0  0
    9.1451  -17.4805   24.3415 N   0  0  0  0  0  0  0  0  0  0  0  0
    8.8994  -17.1564   25.8145 C   0  0  1  0  0  0  0  0  0  0  0  0
    7.6344  -17.8428   26.1593 C   0  0  0  0  0  0  0  0  0  0  0  0
    7.5900  -19.1683   26.7494 C   0  0  0  0  0  0  0  0  0  0  0  0
    6.3103  -19.8532   27.0453 C   0  0  0  0  0  0  0  0  0  0  0  0
    6.6706  -21.2213   27.7219 C   0  0  0  0  0  0  0  0  0  0  0  0
    5.4549  -21.9380   27.9683 N   0  0  0  0  0  0  0  0  0  0  0  0
   10.1355  -17.6476   26.4486 C   0  0  0  0  0  0  0  0  0  0  0  0
   10.3138  -17.3783   27.6963 O   0  0  0  0  0  0  0  0  0  0  0  0
   11.0938  -18.3666   25.8149 O   0  0  0  0  0  0  0  0  0  0  0  0
  2  1  1  6
  3  2  1  0
  3  4  1  0
  5  2  1  0
  5  6  2  0
  7  8  1  0
  8 10  1  0
  8  9  2  0
 11 10  1  1
 11 13  1  0
 11 12  1  0
 12  5  1  0
 13 15  1  0
 14 13  2  0
 15 16  1  0
 16 22  1  0
 17 18  1  0
 16 17  1  1
 19 18  1  0
 19 20  1  0
 21 20  1  0
 22 23  2  0
 22 24  1  0
M  END
$$$$
