CNK.pdb
     RDKit          3D

 24 23  0  0  1  0  0  0  0  0999 V2000
    7.7323  -13.4695   17.0418 N   0  0  0  0  0  0  0  0  0  0  0  0
    8.7861  -14.2089   17.6500 C   0  0  1  0  0  0  0  0  0  0  0  0
   10.0177  -13.3809   17.9283 C   0  0  0  0  0  0  0  0  0  0  0  0
    9.7245  -12.1710   19.2425 S   0  0  0  0  0  0  0  0  0  0  0  0
    8.2987  -14.9077   18.8587 C   0  0  0  0  0  0  0  0  0  0  0  0
    7.3476  -14.4180   19.4984 O   0  0  0  0  0  0  0  0  0  0  0  0
    8.5172  -20.3777   21.6620 N   0  0  0  0  0  0  0  0  0  0  0  0
    7.8638  -19.2049   21.2340 C   0  0  0  0  0  0  0  0  0  0  0  0
    6.7725  -18.8934   21.7472 O   0  0  0  0  0  0  0  0  0  0  0  0
    8.4928  -18.3713   20.1828 C   0  0  0  0  0  0  0  0  0  0  0  0
    8.3349  -16.8984   20.4309 C   0  0  2  0  0  0  0  0  0  0  0  0
    8.8716  -16.1255   19.3297 N   0  0  0  0  0  0  0  0  0  0  0  0
    8.9443  -16.4881   21.7272 C   0  0  0  0  0  0  0  0  0  0  0  0
   10.2113  -16.3929   21.8064 O   0  0  0  0  0  0  0  0  0  0  0  0
    8.1926  -16.1994   22.8716 N   0  0  0  0  0  0  0  0  0  0  0  0
    8.8809  -15.5461   24.0693 C   0  0  1  0  0  0  0  0  0  0  0  0
    7.8007  -14.8626   24.8150 C   0  0  0  0  0  0  0  0  0  0  0  0
    8.0368  -14.1032   26.0294 C   0  0  0  0  0  0  0  0  0  0  0  0
    6.9417  -13.4114   26.7480 C   0  0  0  0  0  0  0  0  0  0  0  0
    7.5854  -12.7083   27.9932 C   0  0  0  0  0  0  0  0  0  0  0  0
    6.5517  -12.0231   28.7102 N   0  0  0  0  0  0  0  0  0  0  0  0
    9.5319  -16.6985   24.7171 C   0  0  0  0  0  0  0  0  0  0  0  0
    8.9861  -17.8559   24.5640 O   0  0  0  0  0  0  0  0  0  0  0  0
   10.6657  -16.6282   25.4563 O   0  0  0  0  0  0  0  0  0  0  0  0
  2  1  1  1
  3  2  1  0
  3  4  1  0
  5  2  1  0
  5  6  2  0
  7  8  1  0
  8 10  1  0
  8  9  2  0
 11 10  1  6
 11 13  1  0
 11 12  1  0
 12  5  1  0
 13 15  1  0
 14 13  2  0
 15 16  1  0
 16 22  1  0
 17 18  1  0
 16 17  1  1
 19 18  1  0
 19 20  1  0
 21 20  1  0
 22 23  2  0
 22 24  1  0
M  END
$$$$
