CNK.pdb
     RDKit          3D

 24 23  0  0  1  0  0  0  0  0999 V2000
    7.8318  -14.7665   20.6231 N   0  0  0  0  0  0  0  0  0  0  0  0
    8.7283  -14.8576   19.5207 C   0  0  1  0  0  0  0  0  0  0  0  0
    9.0502  -13.5210   18.8964 C   0  0  0  0  0  0  0  0  0  0  0  0
    7.8404  -12.2583   19.3641 S   0  0  0  0  0  0  0  0  0  0  0  0
    9.9470  -15.6026   19.9036 C   0  0  0  0  0  0  0  0  0  0  0  0
    9.8939  -16.8448   19.9919 O   0  0  0  0  0  0  0  0  0  0  0  0
   13.7340  -15.5496   17.6856 N   0  0  0  0  0  0  0  0  0  0  0  0
   13.6419  -14.5099   18.6324 C   0  0  0  0  0  0  0  0  0  0  0  0
   13.5835  -13.3299   18.2380 O   0  0  0  0  0  0  0  0  0  0  0  0
   13.6170  -14.8479   20.0749 C   0  0  0  0  0  0  0  0  0  0  0  0
   12.4204  -15.6686   20.4633 C   0  0  2  0  0  0  0  0  0  0  0  0
   11.1897  -14.9599   20.1786 N   0  0  0  0  0  0  0  0  0  0  0  0
   12.4819  -16.0940   21.8900 C   0  0  0  0  0  0  0  0  0  0  0  0
   13.5567  -16.6165   22.3285 O   0  0  0  0  0  0  0  0  0  0  0  0
   11.4129  -15.9486   22.7811 N   0  0  0  0  0  0  0  0  0  0  0  0
   11.6831  -16.0075   24.2840 C   0  0  1  0  0  0  0  0  0  0  0  0
   10.5806  -15.2430   24.9088 C   0  0  0  0  0  0  0  0  0  0  0  0
   10.4937  -15.0069   26.3384 C   0  0  0  0  0  0  0  0  0  0  0  0
    9.1979  -15.0041   27.0562 C   0  0  0  0  0  0  0  0  0  0  0  0
    9.5006  -14.6092   28.5433 C   0  0  0  0  0  0  0  0  0  0  0  0
    8.2616  -14.5663   29.2611 N   0  0  0  0  0  0  0  0  0  0  0  0
   11.7312  -17.4592   24.5320 C   0  0  0  0  0  0  0  0  0  0  0  0
   12.4327  -17.8708   25.5316 O   0  0  0  0  0  0  0  0  0  0  0  0
   11.0858  -18.3901   23.7879 O   0  0  0  0  0  0  0  0  0  0  0  0
  2  1  1  1
  3  2  1  0
  3  4  1  0
  5  2  1  0
  5  6  2  0
  7  8  1  0
  8 10  1  0
  8  9  2  0
 11 10  1  1
 11 13  1  0
 11 12  1  0
 12  5  1  0
 13 15  1  0
 14 13  2  0
 15 16  1  0
 16 22  1  0
 17 18  1  0
 16 17  1  1
 19 18  1  0
 19 20  1  0
 21 20  1  0
 22 23  2  0
 22 24  1  0
M  END
$$$$
