CNK.pdb
     RDKit          3D

 24 23  0  0  1  0  0  0  0  0999 V2000
    7.9492  -14.1797   17.7255 N   0  0  0  0  0  0  0  0  0  0  0  0
    9.0297  -14.1099   18.6501 C   0  0  1  0  0  0  0  0  0  0  0  0
    9.2394  -12.7296   19.2253 C   0  0  0  0  0  0  0  0  0  0  0  0
    7.8031  -12.1802   20.1802 S   0  0  0  0  0  0  0  0  0  0  0  0
    8.8778  -15.1363   19.7037 C   0  0  0  0  0  0  0  0  0  0  0  0
    7.7506  -15.6253   19.9138 O   0  0  0  0  0  0  0  0  0  0  0  0
   10.4049  -19.9451   22.2703 N   0  0  0  0  0  0  0  0  0  0  0  0
   10.8639  -18.6359   22.5174 C   0  0  0  0  0  0  0  0  0  0  0  0
   11.2408  -18.3286   23.6641 O   0  0  0  0  0  0  0  0  0  0  0  0
   10.8864  -17.6573   21.4051 C   0  0  0  0  0  0  0  0  0  0  0  0
    9.8460  -16.5836   21.5486 C   0  0  2  0  0  0  0  0  0  0  0  0
    9.9702  -15.5958   20.4965 N   0  0  0  0  0  0  0  0  0  0  0  0
    9.8906  -15.9477   22.8954 C   0  0  0  0  0  0  0  0  0  0  0  0
   10.8675  -15.1828   23.1805 O   0  0  0  0  0  0  0  0  0  0  0  0
    8.9083  -16.1477   23.8717 N   0  0  0  0  0  0  0  0  0  0  0  0
    9.0167  -15.4015   25.2007 C   0  0  1  0  0  0  0  0  0  0  0  0
    7.6703  -14.8363   25.4417 C   0  0  0  0  0  0  0  0  0  0  0  0
    7.4310  -13.4168   25.6290 C   0  0  0  0  0  0  0  0  0  0  0  0
    6.2061  -12.9077   26.2882 C   0  0  0  0  0  0  0  0  0  0  0  0
    6.3170  -11.3436   26.3121 C   0  0  0  0  0  0  0  0  0  0  0  0
    5.1107  -10.8131   26.8738 N   0  0  0  0  0  0  0  0  0  0  0  0
    9.4835  -16.4611   26.1121 C   0  0  0  0  0  0  0  0  0  0  0  0
    9.3031  -17.6840   25.7474 O   0  0  0  0  0  0  0  0  0  0  0  0
   10.0937  -16.2408   27.3020 O   0  0  0  0  0  0  0  0  0  0  0  0
  2  1  1  1
  3  2  1  0
  3  4  1  0
  5  2  1  0
  5  6  2  0
  7  8  1  0
  8 10  1  0
  8  9  2  0
 11 10  1  1
 11 13  1  0
 11 12  1  0
 12  5  1  0
 13 15  1  0
 14 13  2  0
 15 16  1  0
 16 22  1  0
 17 18  1  0
 16 17  1  1
 19 18  1  0
 19 20  1  0
 21 20  1  0
 22 23  2  0
 22 24  1  0
M  END
$$$$
