CNK.pdb
     RDKit          3D

 24 23  0  0  1  0  0  0  0  0999 V2000
    7.6174  -14.9007   18.0401 N   0  0  0  0  0  0  0  0  0  0  0  0
    8.5048  -14.4393   19.0535 C   0  0  1  0  0  0  0  0  0  0  0  0
    8.1981  -13.0391   19.5283 C   0  0  0  0  0  0  0  0  0  0  0  0
    8.7136  -11.7967   18.3169 S   0  0  0  0  0  0  0  0  0  0  0  0
    8.5643  -15.4067   20.1704 C   0  0  0  0  0  0  0  0  0  0  0  0
    7.5127  -15.9579   20.5499 O   0  0  0  0  0  0  0  0  0  0  0  0
   10.4498  -19.7325   22.9061 N   0  0  0  0  0  0  0  0  0  0  0  0
   11.2191  -18.5522   22.8756 C   0  0  0  0  0  0  0  0  0  0  0  0
   12.0280  -18.3281   23.7958 O   0  0  0  0  0  0  0  0  0  0  0  0
   11.0455  -17.6069   21.7479 C   0  0  0  0  0  0  0  0  0  0  0  0
    9.8678  -16.6918   21.9268 C   0  0  2  0  0  0  0  0  0  0  0  0
    9.7790  -15.7404   20.8382 N   0  0  0  0  0  0  0  0  0  0  0  0
    9.9001  -16.0017   23.2470 C   0  0  0  0  0  0  0  0  0  0  0  0
   10.8057  -15.1336   23.4633 O   0  0  0  0  0  0  0  0  0  0  0  0
    8.9809  -16.2587   24.2702 N   0  0  0  0  0  0  0  0  0  0  0  0
    9.0954  -15.4882   25.5848 C   0  0  1  0  0  0  0  0  0  0  0  0
    7.7378  -14.9609   25.8475 C   0  0  0  0  0  0  0  0  0  0  0  0
    7.4603  -13.5477   26.0292 C   0  0  0  0  0  0  0  0  0  0  0  0
    6.1107  -13.0523   26.3860 C   0  0  0  0  0  0  0  0  0  0  0  0
    6.2096  -11.4905   26.4869 C   0  0  0  0  0  0  0  0  0  0  0  0
    4.9104  -10.9744   26.8000 N   0  0  0  0  0  0  0  0  0  0  0  0
    9.6151  -16.5182   26.5016 C   0  0  0  0  0  0  0  0  0  0  0  0
    9.4188  -17.7521   26.1857 O   0  0  0  0  0  0  0  0  0  0  0  0
   10.2892  -16.2599   27.6487 O   0  0  0  0  0  0  0  0  0  0  0  0
  2  1  1  6
  3  2  1  0
  3  4  1  0
  5  2  1  0
  5  6  2  0
  7  8  1  0
  8 10  1  0
  8  9  2  0
 11 10  1  6
 11 13  1  0
 11 12  1  0
 12  5  1  0
 13 15  1  0
 14 13  2  0
 15 16  1  0
 16 22  1  0
 17 18  1  0
 16 17  1  1
 19 18  1  0
 19 20  1  0
 21 20  1  0
 22 23  2  0
 22 24  1  0
M  END
$$$$
