CNK.pdb
     RDKit          3D

 24 23  0  0  1  0  0  0  0  0999 V2000
   -1.9150  -22.2186   22.4665 N   0  0  0  0  0  0  0  0  0  0  0  0
   -1.3280  -21.2584   23.3386 C   0  0  1  0  0  0  0  0  0  0  0  0
   -1.2445  -19.8749   22.7395 C   0  0  0  0  0  0  0  0  0  0  0  0
    0.4522  -19.2443   22.7523 S   0  0  0  0  0  0  0  0  0  0  0  0
   -2.0150  -21.2588   24.6481 C   0  0  0  0  0  0  0  0  0  0  0  0
   -1.4222  -20.7964   25.6424 O   0  0  0  0  0  0  0  0  0  0  0  0
   -4.9549  -18.4022   25.2340 N   0  0  0  0  0  0  0  0  0  0  0  0
   -4.8850  -19.3604   26.2649 C   0  0  0  0  0  0  0  0  0  0  0  0
   -4.5294  -19.0047   27.4043 O   0  0  0  0  0  0  0  0  0  0  0  0
   -5.2368  -20.7684   25.9661 C   0  0  0  0  0  0  0  0  0  0  0  0
   -4.0645  -21.7010   26.0763 C   0  0  2  0  0  0  0  0  0  0  0  0
   -3.3347  -21.7680   24.8269 N   0  0  0  0  0  0  0  0  0  0  0  0
   -4.4785  -23.0571   26.5342 C   0  0  0  0  0  0  0  0  0  0  0  0
   -5.1234  -23.8053   25.7311 O   0  0  0  0  0  0  0  0  0  0  0  0
   -4.1942  -23.5566   27.8100 N   0  0  0  0  0  0  0  0  0  0  0  0
   -4.7269  -24.9328   28.2065 C   0  0  1  0  0  0  0  0  0  0  0  0
   -3.8484  -25.3890   29.3067 C   0  0  0  0  0  0  0  0  0  0  0  0
   -4.1355  -26.5616   30.1128 C   0  0  0  0  0  0  0  0  0  0  0  0
   -3.2260  -27.0151   31.1905 C   0  0  0  0  0  0  0  0  0  0  0  0
   -3.7914  -28.3779   31.7216 C   0  0  0  0  0  0  0  0  0  0  0  0
   -3.0645  -28.7400   32.9017 N   0  0  0  0  0  0  0  0  0  0  0  0
   -6.1323  -24.6363   28.5356 C   0  0  0  0  0  0  0  0  0  0  0  0
   -7.0108  -25.5414   28.2709 O   0  0  0  0  0  0  0  0  0  0  0  0
   -6.5648  -23.4834   29.1017 O   0  0  0  0  0  0  0  0  0  0  0  0
  2  1  1  6
  3  2  1  0
  3  4  1  0
  5  2  1  0
  5  6  2  0
  7  8  1  0
  8 10  1  0
  8  9  2  0
 11 10  1  6
 11 13  1  0
 11 12  1  0
 12  5  1  0
 13 15  1  0
 14 13  2  0
 15 16  1  0
 16 22  1  0
 17 18  1  0
 16 17  1  1
 19 18  1  0
 19 20  1  0
 21 20  1  0
 22 23  2  0
 22 24  1  0
M  END
$$$$
