CGY.pdb
     RDKit          3D

 23 23  0  0  1  0  0  0  0  0999 V2000
    6.5097  -14.2312   19.9172 N   0  0  0  0  0  0  0  0  0  0  0  0
    7.9068  -14.4445   20.2275 C   0  0  1  0  0  0  0  0  0  0  0  0
    8.5768  -13.1426   20.6563 C   0  0  0  0  0  0  0  0  0  0  0  0
    8.5149  -11.9812   19.2816 S   0  0  0  0  0  0  0  0  0  0  0  0
    8.0050  -15.3758   21.3697 C   0  0  0  0  0  0  0  0  0  0  0  0
    7.0998  -15.4347   22.2104 O   0  0  0  0  0  0  0  0  0  0  0  0
    9.1370  -16.2293   21.5382 N   0  0  0  0  0  0  0  0  0  0  0  0
    9.2171  -17.2541   22.5335 C   0  0  0  0  0  0  0  0  0  0  0  0
    9.6732  -16.7668   23.8405 C   0  0  0  0  0  0  0  0  0  0  0  0
   10.8302  -16.3033   23.9508 O   0  0  0  0  0  0  0  0  0  0  0  0
    6.3731  -10.8230   25.9901 O   0  0  0  0  0  0  0  0  0  0  0  0
    6.7937  -12.1188   26.2660 C   0  0  0  0  0  0  0  0  0  0  0  0
    5.9791  -13.1972   25.9922 C   0  0  0  0  0  0  0  0  0  0  0  0
    6.4104  -14.4763   26.2715 C   0  0  0  0  0  0  0  0  0  0  0  0
    7.6603  -14.6911   26.8274 C   0  0  0  0  0  0  0  0  0  0  0  0
    8.1236  -16.0441   27.1264 C   0  0  0  0  0  0  0  0  0  0  0  0
    9.3235  -16.4783   26.3237 C   0  0  2  0  0  0  0  0  0  0  0  0
    8.8514  -16.7997   24.9911 N   0  0  0  0  0  0  0  0  0  0  0  0
   10.0773  -17.5780   26.9192 C   0  0  0  0  0  0  0  0  0  0  0  0
   10.8685  -17.5021   28.0297 O   0  0  0  0  0  0  0  0  0  0  0  0
    8.4637  -13.5965   27.0952 C   0  0  0  0  0  0  0  0  0  0  0  0
    8.0437  -12.3075   26.8200 C   0  0  0  0  0  0  0  0  0  0  0  0
    9.9954  -18.7182   26.3569 O   0  0  0  0  0  0  0  0  0  0  0  0
  2  5  1  0
  2  1  1  1
  3  2  1  0
  4  3  1  0
  5  6  2  0
  7  8  1  0
  7  5  1  0
  9 10  2  0
  9  8  1  0
 11 12  1  0
 12 22  2  0
 13 14  2  0
 13 12  1  0
 14 15  1  0
 15 16  1  0
 15 21  2  0
 17 18  1  0
 17 16  1  1
 18  9  1  0
 19 17  1  0
 20 19  1  0
 22 21  1  0
 23 19  2  0
M  END
$$$$
