CGY.pdb
     RDKit          3D

 23 23  0  0  1  0  0  0  0  0999 V2000
    7.8584  -14.5705   17.9783 N   0  0  0  0  0  0  0  0  0  0  0  0
    8.4935  -14.1700   19.2152 C   0  0  1  0  0  0  0  0  0  0  0  0
    8.0154  -12.7891   19.6534 C   0  0  0  0  0  0  0  0  0  0  0  0
    8.7962  -11.5487   18.6073 S   0  0  0  0  0  0  0  0  0  0  0  0
    8.1053  -15.1178   20.2795 C   0  0  0  0  0  0  0  0  0  0  0  0
    6.9375  -15.5148   20.3703 O   0  0  0  0  0  0  0  0  0  0  0  0
    9.0566  -15.6012   21.2281 N   0  0  0  0  0  0  0  0  0  0  0  0
    8.7365  -16.5249   22.2728 C   0  0  0  0  0  0  0  0  0  0  0  0
    9.3009  -16.1541   23.5757 C   0  0  0  0  0  0  0  0  0  0  0  0
   10.3161  -15.4240   23.6172 O   0  0  0  0  0  0  0  0  0  0  0  0
    5.9786  -10.9192   26.1969 O   0  0  0  0  0  0  0  0  0  0  0  0
    6.5487  -12.1687   26.4102 C   0  0  0  0  0  0  0  0  0  0  0  0
    7.8680  -12.2848   26.7943 C   0  0  0  0  0  0  0  0  0  0  0  0
    8.4192  -13.5311   27.0020 C   0  0  0  0  0  0  0  0  0  0  0  0
    7.6577  -14.6745   26.8279 C   0  0  0  0  0  0  0  0  0  0  0  0
    8.2356  -15.9986   27.0459 C   0  0  0  0  0  0  0  0  0  0  0  0
    9.3478  -16.3525   26.0918 C   0  0  2  0  0  0  0  0  0  0  0  0
    8.7393  -16.5920   24.7978 N   0  0  0  0  0  0  0  0  0  0  0  0
   10.1756  -17.4745   26.5254 C   0  0  0  0  0  0  0  0  0  0  0  0
   11.0752  -17.4603   27.5527 O   0  0  0  0  0  0  0  0  0  0  0  0
    6.3356  -14.5381   26.4421 C   0  0  0  0  0  0  0  0  0  0  0  0
    5.7696  -13.2937   26.2303 C   0  0  0  0  0  0  0  0  0  0  0  0
   10.0539  -18.5731   25.8920 O   0  0  0  0  0  0  0  0  0  0  0  0
  2  5  1  0
  2  1  1  6
  3  2  1  0
  4  3  1  0
  5  6  2  0
  7  8  1  0
  7  5  1  0
  9 10  2  0
  9  8  1  0
 11 12  1  0
 12 22  2  0
 13 14  2  0
 13 12  1  0
 14 15  1  0
 15 16  1  0
 15 21  2  0
 17 18  1  0
 17 16  1  1
 18  9  1  0
 19 17  1  0
 20 19  1  0
 22 21  1  0
 23 19  2  0
M  END
$$$$
