CGY.pdb
     RDKit          3D

 23 23  0  0  1  0  0  0  0  0999 V2000
    7.3839  -20.1304   20.4387 N   0  0  0  0  0  0  0  0  0  0  0  0
    6.3516  -19.8040   21.3987 C   0  0  1  0  0  0  0  0  0  0  0  0
    6.7301  -20.2887   22.7949 C   0  0  0  0  0  0  0  0  0  0  0  0
    5.5356  -19.6391   23.9754 S   0  0  0  0  0  0  0  0  0  0  0  0
    6.2177  -18.3351   21.4745 C   0  0  0  0  0  0  0  0  0  0  0  0
    5.1725  -17.8213   21.8905 O   0  0  0  0  0  0  0  0  0  0  0  0
    7.2804  -17.4698   21.0739 N   0  0  0  0  0  0  0  0  0  0  0  0
    7.2007  -16.0419   21.1183 C   0  0  0  0  0  0  0  0  0  0  0  0
    8.1520  -15.4311   22.0540 C   0  0  0  0  0  0  0  0  0  0  0  0
    9.1125  -14.7674   21.6037 O   0  0  0  0  0  0  0  0  0  0  0  0
   10.7597  -15.3608   30.5305 O   0  0  0  0  0  0  0  0  0  0  0  0
   10.1206  -15.1726   29.3107 C   0  0  0  0  0  0  0  0  0  0  0  0
    9.6363  -16.2478   28.5959 C   0  0  0  0  0  0  0  0  0  0  0  0
    9.0047  -16.0450   27.3875 C   0  0  0  0  0  0  0  0  0  0  0  0
    8.8504  -14.7655   26.8809 C   0  0  0  0  0  0  0  0  0  0  0  0
    8.1823  -14.5434   25.6006 C   0  0  0  0  0  0  0  0  0  0  0  0
    8.9729  -15.0039   24.4026 C   0  0  2  0  0  0  0  0  0  0  0  0
    8.0269  -15.5628   23.4567 N   0  0  0  0  0  0  0  0  0  0  0  0
   10.0506  -15.9374   24.7179 C   0  0  0  0  0  0  0  0  0  0  0  0
   11.2802  -15.6086   25.2128 O   0  0  0  0  0  0  0  0  0  0  0  0
    9.3430  -13.6990   27.6125 C   0  0  0  0  0  0  0  0  0  0  0  0
    9.9788  -13.8879   28.8264 C   0  0  0  0  0  0  0  0  0  0  0  0
    9.8323  -17.1760   24.5156 O   0  0  0  0  0  0  0  0  0  0  0  0
  2  5  1  0
  2  1  1  6
  3  2  1  0
  4  3  1  0
  5  6  2  0
  7  8  1  0
  7  5  1  0
  9 10  2  0
  9  8  1  0
 11 12  1  0
 12 22  2  0
 13 14  2  0
 13 12  1  0
 14 15  1  0
 15 16  1  0
 15 21  2  0
 17 18  1  0
 17 16  1  1
 18  9  1  0
 19 17  1  0
 20 19  1  0
 22 21  1  0
 23 19  2  0
M  END
$$$$
