CGY.pdb
     RDKit          3D

 23 23  0  0  1  0  0  0  0  0999 V2000
    5.2709  -19.2331   22.5061 N   0  0  0  0  0  0  0  0  0  0  0  0
    4.9851  -18.2382   21.4950 C   0  0  1  0  0  0  0  0  0  0  0  0
    3.4956  -17.9107   21.4556 C   0  0  0  0  0  0  0  0  0  0  0  0
    2.6721  -19.0950   20.3778 S   0  0  0  0  0  0  0  0  0  0  0  0
    5.6917  -16.9885   21.8422 C   0  0  0  0  0  0  0  0  0  0  0  0
    5.3797  -16.3527   22.8561 O   0  0  0  0  0  0  0  0  0  0  0  0
    6.7470  -16.4796   21.0264 N   0  0  0  0  0  0  0  0  0  0  0  0
    7.3833  -15.2174   21.2480 C   0  0  0  0  0  0  0  0  0  0  0  0
    8.3236  -15.2252   22.3747 C   0  0  0  0  0  0  0  0  0  0  0  0
    9.2839  -14.4231   22.3757 O   0  0  0  0  0  0  0  0  0  0  0  0
    6.2325  -10.9073   26.9499 O   0  0  0  0  0  0  0  0  0  0  0  0
    6.7126  -12.1827   26.6766 C   0  0  0  0  0  0  0  0  0  0  0  0
    5.8437  -13.2343   26.4747 C   0  0  0  0  0  0  0  0  0  0  0  0
    6.3352  -14.4934   26.2045 C   0  0  0  0  0  0  0  0  0  0  0  0
    7.7002  -14.7149   26.1331 C   0  0  0  0  0  0  0  0  0  0  0  0
    8.2280  -16.0470   25.8475 C   0  0  0  0  0  0  0  0  0  0  0  0
    9.0843  -16.1203   24.6090 C   0  0  2  0  0  0  0  0  0  0  0  0
    8.1878  -16.1102   23.4696 N   0  0  0  0  0  0  0  0  0  0  0  0
    9.9983  -17.2587   24.5784 C   0  0  0  0  0  0  0  0  0  0  0  0
   11.1627  -17.3743   25.2825 O   0  0  0  0  0  0  0  0  0  0  0  0
    8.5567  -13.6473   26.3385 C   0  0  0  0  0  0  0  0  0  0  0  0
    8.0772  -12.3786   26.6105 C   0  0  0  0  0  0  0  0  0  0  0  0
    9.6888  -18.2401   23.8274 O   0  0  0  0  0  0  0  0  0  0  0  0
  2  5  1  0
  2  1  1  1
  3  2  1  0
  4  3  1  0
  5  6  2  0
  7  8  1  0
  7  5  1  0
  9 10  2  0
  9  8  1  0
 11 12  1  0
 12 22  2  0
 13 14  2  0
 13 12  1  0
 14 15  1  0
 15 16  1  0
 15 21  2  0
 17 18  1  0
 17 16  1  1
 18  9  1  0
 19 17  1  0
 20 19  1  0
 22 21  1  0
 23 19  2  0
M  END
$$$$
