CGY.pdb
     RDKit          3D

 23 23  0  0  1  0  0  0  0  0999 V2000
    9.1255  -13.7160   19.8219 N   0  0  0  0  0  0  0  0  0  0  0  0
    7.8658  -13.7133   20.5339 C   0  0  1  0  0  0  0  0  0  0  0  0
    6.7150  -14.1024   19.6110 C   0  0  0  0  0  0  0  0  0  0  0  0
    7.2210  -15.5203   18.6230 S   0  0  0  0  0  0  0  0  0  0  0  0
    7.9210  -14.7289   21.6049 C   0  0  0  0  0  0  0  0  0  0  0  0
    7.0785  -14.7319   22.5103 O   0  0  0  0  0  0  0  0  0  0  0  0
    8.9389  -15.7298   21.6290 N   0  0  0  0  0  0  0  0  0  0  0  0
   10.2120  -15.5520   22.2573 C   0  0  0  0  0  0  0  0  0  0  0  0
   10.1876  -15.7840   23.7062 C   0  0  0  0  0  0  0  0  0  0  0  0
   11.2133  -15.5441   24.3815 O   0  0  0  0  0  0  0  0  0  0  0  0
    6.4993  -10.6604   26.5431 O   0  0  0  0  0  0  0  0  0  0  0  0
    6.7812  -12.0200   26.4796 C   0  0  0  0  0  0  0  0  0  0  0  0
    7.9521  -12.5221   27.0073 C   0  0  0  0  0  0  0  0  0  0  0  0
    8.2174  -13.8729   26.9366 C   0  0  0  0  0  0  0  0  0  0  0  0
    7.3154  -14.7361   26.3377 C   0  0  0  0  0  0  0  0  0  0  0  0
    7.5904  -16.1689   26.2590 C   0  0  0  0  0  0  0  0  0  0  0  0
    8.9883  -16.5062   25.8067 C   0  0  2  0  0  0  0  0  0  0  0  0
    9.0420  -16.2721   24.3769 N   0  0  0  0  0  0  0  0  0  0  0  0
    9.4236  -17.8548   26.1589 C   0  0  0  0  0  0  0  0  0  0  0  0
    9.8167  -18.8270   25.2841 O   0  0  0  0  0  0  0  0  0  0  0  0
    6.1457  -14.2138   25.8137 C   0  0  0  0  0  0  0  0  0  0  0  0
    5.8667  -12.8605   25.8778 C   0  0  0  0  0  0  0  0  0  0  0  0
    9.4414  -18.1620   27.3951 O   0  0  0  0  0  0  0  0  0  0  0  0
  2  5  1  0
  2  1  1  6
  3  2  1  0
  4  3  1  0
  5  6  2  0
  7  8  1  0
  7  5  1  0
  9 10  2  0
  9  8  1  0
 11 12  1  0
 12 22  2  0
 13 14  2  0
 13 12  1  0
 14 15  1  0
 15 16  1  0
 15 21  2  0
 17 18  1  0
 17 16  1  6
 18  9  1  0
 19 17  1  0
 20 19  1  0
 22 21  1  0
 23 19  2  0
M  END
$$$$
