CGY.pdb
     RDKit          3D

 23 23  0  0  1  0  0  0  0  0999 V2000
    8.3195  -14.9538   17.8735 N   0  0  0  0  0  0  0  0  0  0  0  0
    8.6822  -14.4828   19.1926 C   0  0  1  0  0  0  0  0  0  0  0  0
    7.7670  -13.3465   19.6385 C   0  0  0  0  0  0  0  0  0  0  0  0
    8.0050  -11.9455   18.5325 S   0  0  0  0  0  0  0  0  0  0  0  0
    8.5020  -15.5852   20.1591 C   0  0  0  0  0  0  0  0  0  0  0  0
    7.9948  -16.6553   19.8023 O   0  0  0  0  0  0  0  0  0  0  0  0
    8.9035  -15.4519   21.5226 N   0  0  0  0  0  0  0  0  0  0  0  0
    8.9154  -16.5362   22.4561 C   0  0  0  0  0  0  0  0  0  0  0  0
    9.9509  -16.4091   23.4883 C   0  0  0  0  0  0  0  0  0  0  0  0
   11.0486  -16.9877   23.3281 O   0  0  0  0  0  0  0  0  0  0  0  0
    6.0927  -10.9237   26.3868 O   0  0  0  0  0  0  0  0  0  0  0  0
    6.5921  -12.2207   26.3649 C   0  0  0  0  0  0  0  0  0  0  0  0
    6.1507  -13.1298   25.4266 C   0  0  0  0  0  0  0  0  0  0  0  0
    6.6555  -14.4124   25.4177 C   0  0  0  0  0  0  0  0  0  0  0  0
    7.6067  -14.8001   26.3464 C   0  0  0  0  0  0  0  0  0  0  0  0
    8.1457  -16.1581   26.3430 C   0  0  0  0  0  0  0  0  0  0  0  0
    9.6072  -16.2423   25.9835 C   0  0  2  0  0  0  0  0  0  0  0  0
    9.7573  -15.6525   24.6675 N   0  0  0  0  0  0  0  0  0  0  0  0
   10.1638  -17.5907   26.0476 C   0  0  0  0  0  0  0  0  0  0  0  0
   10.4907  -18.3772   24.9801 O   0  0  0  0  0  0  0  0  0  0  0  0
    8.0374  -13.8739   27.2803 C   0  0  0  0  0  0  0  0  0  0  0  0
    7.5395  -12.5835   27.3008 C   0  0  0  0  0  0  0  0  0  0  0  0
   10.3668  -18.0878   27.2028 O   0  0  0  0  0  0  0  0  0  0  0  0
  2  5  1  0
  2  1  1  6
  3  2  1  0
  4  3  1  0
  5  6  2  0
  7  8  1  0
  7  5  1  0
  9 10  2  0
  9  8  1  0
 11 12  1  0
 12 22  2  0
 13 14  2  0
 13 12  1  0
 14 15  1  0
 15 16  1  0
 15 21  2  0
 17 18  1  0
 17 16  1  6
 18  9  1  0
 19 17  1  0
 20 19  1  0
 22 21  1  0
 23 19  2  0
M  END
$$$$
