CGY.pdb
     RDKit          3D

 23 23  0  0  1  0  0  0  0  0999 V2000
    6.2478  -19.1572   20.2985 N   0  0  0  0  0  0  0  0  0  0  0  0
    6.3695  -18.4413   21.5501 C   0  0  1  0  0  0  0  0  0  0  0  0
    6.6111  -19.4033   22.7092 C   0  0  0  0  0  0  0  0  0  0  0  0
    5.0186  -19.9545   23.3439 S   0  0  0  0  0  0  0  0  0  0  0  0
    7.5453  -17.5504   21.4777 C   0  0  0  0  0  0  0  0  0  0  0  0
    8.6643  -18.0088   21.2183 O   0  0  0  0  0  0  0  0  0  0  0  0
    7.4288  -16.1454   21.7028 N   0  0  0  0  0  0  0  0  0  0  0  0
    8.5436  -15.2486   21.7160 C   0  0  0  0  0  0  0  0  0  0  0  0
    9.2615  -15.2255   22.9959 C   0  0  0  0  0  0  0  0  0  0  0  0
   10.3068  -14.5457   23.0987 O   0  0  0  0  0  0  0  0  0  0  0  0
    6.0544  -10.7647   26.5600 O   0  0  0  0  0  0  0  0  0  0  0  0
    6.6503  -12.0203   26.5423 C   0  0  0  0  0  0  0  0  0  0  0  0
    5.8842  -13.1647   26.6129 C   0  0  0  0  0  0  0  0  0  0  0  0
    6.4900  -14.4028   26.5942 C   0  0  0  0  0  0  0  0  0  0  0  0
    7.8676  -14.5102   26.5047 C   0  0  0  0  0  0  0  0  0  0  0  0
    8.5162  -15.8193   26.4848 C   0  0  0  0  0  0  0  0  0  0  0  0
    9.5350  -15.9878   25.3867 C   0  0  2  0  0  0  0  0  0  0  0  0
    8.8163  -15.9466   24.1282 N   0  0  0  0  0  0  0  0  0  0  0  0
   10.3570  -17.1883   25.5104 C   0  0  0  0  0  0  0  0  0  0  0  0
   11.2629  -17.4443   26.4998 O   0  0  0  0  0  0  0  0  0  0  0  0
    8.6198  -13.3506   26.4348 C   0  0  0  0  0  0  0  0  0  0  0  0
    8.0252  -12.1017   26.4525 C   0  0  0  0  0  0  0  0  0  0  0  0
   10.2234  -18.0861   24.6164 O   0  0  0  0  0  0  0  0  0  0  0  0
  2  5  1  0
  2  1  1  6
  3  2  1  0
  4  3  1  0
  5  6  2  0
  7  8  1  0
  7  5  1  0
  9 10  2  0
  9  8  1  0
 11 12  1  0
 12 22  2  0
 13 14  2  0
 13 12  1  0
 14 15  1  0
 15 16  1  0
 15 21  2  0
 17 18  1  0
 17 16  1  1
 18  9  1  0
 19 17  1  0
 20 19  1  0
 22 21  1  0
 23 19  2  0
M  END
$$$$
