CGY.pdb
     RDKit          3D

 23 23  0  0  1  0  0  0  0  0999 V2000
    6.9788  -17.1621   22.3836 N   0  0  0  0  0  0  0  0  0  0  0  0
    8.3169  -17.6978   22.2566 C   0  0  1  0  0  0  0  0  0  0  0  0
    8.5732  -18.1988   20.8386 C   0  0  0  0  0  0  0  0  0  0  0  0
    7.4992  -19.6088   20.5212 S   0  0  0  0  0  0  0  0  0  0  0  0
    9.2900  -16.6168   22.5139 C   0  0  0  0  0  0  0  0  0  0  0  0
    9.1455  -15.5055   21.9908 O   0  0  0  0  0  0  0  0  0  0  0  0
   10.4174  -16.8184   23.3662 N   0  0  0  0  0  0  0  0  0  0  0  0
   11.3538  -15.7894   23.7004 C   0  0  0  0  0  0  0  0  0  0  0  0
   11.4249  -15.5068   25.1387 C   0  0  0  0  0  0  0  0  0  0  0  0
   12.4481  -14.9574   25.6044 O   0  0  0  0  0  0  0  0  0  0  0  0
    6.1829  -11.4403   25.4621 O   0  0  0  0  0  0  0  0  0  0  0  0
    6.8931  -12.4613   26.0828 C   0  0  0  0  0  0  0  0  0  0  0  0
    6.6601  -13.7807   25.7566 C   0  0  0  0  0  0  0  0  0  0  0  0
    7.3725  -14.7821   26.3810 C   0  0  0  0  0  0  0  0  0  0  0  0
    8.3253  -14.4754   27.3379 C   0  0  0  0  0  0  0  0  0  0  0  0
    9.0837  -15.5318   28.0039 C   0  0  0  0  0  0  0  0  0  0  0  0
   10.4808  -15.7203   27.4701 C   0  0  2  0  0  0  0  0  0  0  0  0
   10.3749  -15.8328   26.0285 N   0  0  0  0  0  0  0  0  0  0  0  0
   11.2001  -16.8473   28.0572 C   0  0  0  0  0  0  0  0  0  0  0  0
   11.6055  -17.9732   27.3993 O   0  0  0  0  0  0  0  0  0  0  0  0
    8.5452  -13.1456   27.6520 C   0  0  0  0  0  0  0  0  0  0  0  0
    7.8376  -12.1306   27.0334 C   0  0  0  0  0  0  0  0  0  0  0  0
   11.4799  -16.7828   29.2984 O   0  0  0  0  0  0  0  0  0  0  0  0
  2  5  1  0
  2  1  1  6
  3  2  1  0
  4  3  1  0
  5  6  2  0
  7  8  1  0
  7  5  1  0
  9 10  2  0
  9  8  1  0
 11 12  1  0
 12 22  2  0
 13 14  2  0
 13 12  1  0
 14 15  1  0
 15 16  1  0
 15 21  2  0
 17 18  1  0
 17 16  1  1
 18  9  1  0
 19 17  1  0
 20 19  1  0
 22 21  1  0
 23 19  2  0
M  END
$$$$
