CGY.pdb
     RDKit          3D

 23 23  0  0  1  0  0  0  0  0999 V2000
    7.5823  -15.0573   19.2080 N   0  0  0  0  0  0  0  0  0  0  0  0
    7.5766  -15.3699   20.6208 C   0  0  1  0  0  0  0  0  0  0  0  0
    6.7484  -16.6202   20.9009 C   0  0  0  0  0  0  0  0  0  0  0  0
    5.0400  -16.2986   20.4314 S   0  0  0  0  0  0  0  0  0  0  0  0
    8.9589  -15.6640   21.0500 C   0  0  0  0  0  0  0  0  0  0  0  0
    9.8766  -15.7083   20.2220 O   0  0  0  0  0  0  0  0  0  0  0  0
    9.2767  -15.9042   22.4210 N   0  0  0  0  0  0  0  0  0  0  0  0
   10.5570  -15.6310   22.9985 C   0  0  0  0  0  0  0  0  0  0  0  0
   10.6196  -15.9028   24.4393 C   0  0  0  0  0  0  0  0  0  0  0  0
   11.7265  -15.8648   25.0215 O   0  0  0  0  0  0  0  0  0  0  0  0
    6.2532  -11.0884   25.7771 O   0  0  0  0  0  0  0  0  0  0  0  0
    6.7340  -12.3435   26.1314 C   0  0  0  0  0  0  0  0  0  0  0  0
    7.9202  -12.4741   26.8225 C   0  0  0  0  0  0  0  0  0  0  0  0
    8.3840  -13.7257   27.1668 C   0  0  0  0  0  0  0  0  0  0  0  0
    7.6673  -14.8598   26.8240 C   0  0  0  0  0  0  0  0  0  0  0  0
    8.1533  -16.1895   27.1854 C   0  0  0  0  0  0  0  0  0  0  0  0
    9.5081  -16.5280   26.6178 C   0  0  2  0  0  0  0  0  0  0  0  0
    9.4698  -16.2089   25.2040 N   0  0  0  0  0  0  0  0  0  0  0  0
    9.9324  -17.9043   26.8586 C   0  0  0  0  0  0  0  0  0  0  0  0
   10.1830  -18.8474   25.9033 O   0  0  0  0  0  0  0  0  0  0  0  0
    6.4792  -14.7089   26.1306 C   0  0  0  0  0  0  0  0  0  0  0  0
    6.0019  -13.4590   25.7787 C   0  0  0  0  0  0  0  0  0  0  0  0
   10.0858  -18.2679   28.0699 O   0  0  0  0  0  0  0  0  0  0  0  0
  2  5  1  0
  2  1  1  6
  3  2  1  0
  4  3  1  0
  5  6  2  0
  7  8  1  0
  7  5  1  0
  9 10  2  0
  9  8  1  0
 11 12  1  0
 12 22  2  0
 13 14  2  0
 13 12  1  0
 14 15  1  0
 15 16  1  0
 15 21  2  0
 17 18  1  0
 17 16  1  6
 18  9  1  0
 19 17  1  0
 20 19  1  0
 22 21  1  0
 23 19  2  0
M  END
$$$$
