CGY.pdb
     RDKit          3D

 23 23  0  0  1  0  0  0  0  0999 V2000
    5.0612  -18.9772   20.5279 N   0  0  0  0  0  0  0  0  0  0  0  0
    5.0951  -17.7198   21.2430 C   0  0  1  0  0  0  0  0  0  0  0  0
    4.7692  -17.9213   22.7197 C   0  0  0  0  0  0  0  0  0  0  0  0
    4.9761  -19.6637   23.1242 S   0  0  0  0  0  0  0  0  0  0  0  0
    6.4639  -17.1692   21.1754 C   0  0  0  0  0  0  0  0  0  0  0  0
    7.4178  -17.8956   20.8718 O   0  0  0  0  0  0  0  0  0  0  0  0
    6.7272  -15.7942   21.4556 N   0  0  0  0  0  0  0  0  0  0  0  0
    8.0358  -15.2160   21.4328 C   0  0  0  0  0  0  0  0  0  0  0  0
    8.7710  -15.3811   22.6921 C   0  0  0  0  0  0  0  0  0  0  0  0
    9.9299  -14.9194   22.7889 O   0  0  0  0  0  0  0  0  0  0  0  0
    6.3453  -10.6248   26.7659 O   0  0  0  0  0  0  0  0  0  0  0  0
    6.7487  -11.9471   26.6221 C   0  0  0  0  0  0  0  0  0  0  0  0
    8.0661  -12.3066   26.8143 C   0  0  0  0  0  0  0  0  0  0  0  0
    8.4507  -13.6222   26.6681 C   0  0  0  0  0  0  0  0  0  0  0  0
    7.5229  -14.5924   26.3282 C   0  0  0  0  0  0  0  0  0  0  0  0
    7.9238  -15.9886   26.1712 C   0  0  0  0  0  0  0  0  0  0  0  0
    8.9219  -16.2248   25.0665 C   0  0  2  0  0  0  0  0  0  0  0  0
    8.2186  -16.0466   23.8112 N   0  0  0  0  0  0  0  0  0  0  0  0
    9.6005  -17.5158   25.1372 C   0  0  0  0  0  0  0  0  0  0  0  0
   10.4802  -17.9099   26.1045 O   0  0  0  0  0  0  0  0  0  0  0  0
    6.2055  -14.2125   26.1394 C   0  0  0  0  0  0  0  0  0  0  0  0
    5.8056  -12.8961   26.2829 C   0  0  0  0  0  0  0  0  0  0  0  0
    9.3549  -18.3594   24.2148 O   0  0  0  0  0  0  0  0  0  0  0  0
  2  5  1  0
  2  1  1  6
  3  2  1  0
  4  3  1  0
  5  6  2  0
  7  8  1  0
  7  5  1  0
  9 10  2  0
  9  8  1  0
 11 12  1  0
 12 22  2  0
 13 14  2  0
 13 12  1  0
 14 15  1  0
 15 16  1  0
 15 21  2  0
 17 18  1  0
 17 16  1  1
 18  9  1  0
 19 17  1  0
 20 19  1  0
 22 21  1  0
 23 19  2  0
M  END
$$$$
