CGY.pdb
     RDKit          3D

 23 23  0  0  1  0  0  0  0  0999 V2000
   10.1870  -19.8356   18.0459 N   0  0  0  0  0  0  0  0  0  0  0  0
   10.4998  -18.4353   17.8586 C   0  0  1  0  0  0  0  0  0  0  0  0
   10.0146  -17.9438   16.4982 C   0  0  0  0  0  0  0  0  0  0  0  0
   11.3734  -18.0629   15.3227 S   0  0  0  0  0  0  0  0  0  0  0  0
    9.7847  -17.6457   18.8817 C   0  0  0  0  0  0  0  0  0  0  0  0
    8.5800  -17.8330   19.0896 O   0  0  0  0  0  0  0  0  0  0  0  0
   10.4549  -16.6507   19.6558 N   0  0  0  0  0  0  0  0  0  0  0  0
    9.8074  -15.8465   20.6463 C   0  0  0  0  0  0  0  0  0  0  0  0
   10.2893  -16.0960   22.0099 C   0  0  0  0  0  0  0  0  0  0  0  0
   11.3264  -16.7756   22.1775 O   0  0  0  0  0  0  0  0  0  0  0  0
   11.0228  -14.6797   30.7466 O   0  0  0  0  0  0  0  0  0  0  0  0
   10.6481  -14.6819   29.4081 C   0  0  0  0  0  0  0  0  0  0  0  0
   11.5952  -14.5782   28.4113 C   0  0  0  0  0  0  0  0  0  0  0  0
   11.2079  -14.5818   27.0884 C   0  0  0  0  0  0  0  0  0  0  0  0
    9.8700  -14.6890   26.7478 C   0  0  0  0  0  0  0  0  0  0  0  0
    9.4525  -14.6931   25.3476 C   0  0  0  0  0  0  0  0  0  0  0  0
   10.1268  -15.7451   24.5044 C   0  0  2  0  0  0  0  0  0  0  0  0
    9.6235  -15.5954   23.1530 N   0  0  0  0  0  0  0  0  0  0  0  0
    9.9645  -17.1079   25.0029 C   0  0  0  0  0  0  0  0  0  0  0  0
   10.8589  -17.7941   25.7738 O   0  0  0  0  0  0  0  0  0  0  0  0
    8.9340  -14.7921   27.7620 C   0  0  0  0  0  0  0  0  0  0  0  0
    9.3085  -14.7898   29.0937 C   0  0  0  0  0  0  0  0  0  0  0  0
    8.8917  -17.7219   24.6948 O   0  0  0  0  0  0  0  0  0  0  0  0
  2  5  1  0
  2  1  1  1
  3  2  1  0
  4  3  1  0
  5  6  2  0
  7  8  1  0
  7  5  1  0
  9 10  2  0
  9  8  1  0
 11 12  1  0
 12 22  2  0
 13 14  2  0
 13 12  1  0
 14 15  1  0
 15 16  1  0
 15 21  2  0
 17 18  1  0
 17 16  1  1
 18  9  1  0
 19 17  1  0
 20 19  1  0
 22 21  1  0
 23 19  2  0
M  END
$$$$
