CGY.pdb
     RDKit          3D

 23 23  0  0  1  0  0  0  0  0999 V2000
    5.5027  -19.5520   21.7109 N   0  0  0  0  0  0  0  0  0  0  0  0
    5.0552  -18.3899   20.9741 C   0  0  1  0  0  0  0  0  0  0  0  0
    3.5325  -18.2960   20.9730 C   0  0  0  0  0  0  0  0  0  0  0  0
    2.8672  -19.7096   20.0777 S   0  0  0  0  0  0  0  0  0  0  0  0
    5.5610  -17.1754   21.6454 C   0  0  0  0  0  0  0  0  0  0  0  0
    5.3281  -16.9783   22.8440 O   0  0  0  0  0  0  0  0  0  0  0  0
    6.3274  -16.1996   20.9391 N   0  0  0  0  0  0  0  0  0  0  0  0
    6.7918  -14.9795   21.5245 C   0  0  0  0  0  0  0  0  0  0  0  0
    7.8781  -15.1706   22.4926 C   0  0  0  0  0  0  0  0  0  0  0  0
    9.0213  -14.7397   22.2224 O   0  0  0  0  0  0  0  0  0  0  0  0
    6.6420  -10.4441   27.0960 O   0  0  0  0  0  0  0  0  0  0  0  0
    7.0162  -11.7590   26.8448 C   0  0  0  0  0  0  0  0  0  0  0  0
    8.3425  -12.1341   26.8859 C   0  0  0  0  0  0  0  0  0  0  0  0
    8.6978  -13.4421   26.6345 C   0  0  0  0  0  0  0  0  0  0  0  0
    7.7314  -14.3888   26.3395 C   0  0  0  0  0  0  0  0  0  0  0  0
    8.1010  -15.7768   26.0716 C   0  0  0  0  0  0  0  0  0  0  0  0
    8.7297  -15.9993   24.7197 C   0  0  2  0  0  0  0  0  0  0  0  0
    7.6843  -15.8279   23.7299 N   0  0  0  0  0  0  0  0  0  0  0  0
    9.4130  -17.2822   24.5800 C   0  0  0  0  0  0  0  0  0  0  0  0
   10.6070  -17.6234   25.1483 O   0  0  0  0  0  0  0  0  0  0  0  0
    6.4055  -13.9936   26.3028 C   0  0  0  0  0  0  0  0  0  0  0  0
    6.0348  -12.6846   26.5530 C   0  0  0  0  0  0  0  0  0  0  0  0
    8.8504  -18.1720   23.8628 O   0  0  0  0  0  0  0  0  0  0  0  0
  2  5  1  0
  2  1  1  1
  3  2  1  0
  4  3  1  0
  5  6  2  0
  7  8  1  0
  7  5  1  0
  9 10  2  0
  9  8  1  0
 11 12  1  0
 12 22  2  0
 13 14  2  0
 13 12  1  0
 14 15  1  0
 15 16  1  0
 15 21  2  0
 17 18  1  0
 17 16  1  1
 18  9  1  0
 19 17  1  0
 20 19  1  0
 22 21  1  0
 23 19  2  0
M  END
$$$$
