WQM.pdb
     RDKit          3D

 32 33  0  0  1  0  0  0  0  0999 V2000
   23.1422  -20.2398  -17.0035 N   0  0  0  0  0  0  0  0  0  0  0  0
   23.5465  -21.1136  -15.9298 C   0  0  1  0  0  0  0  0  0  0  0  0
   24.0494  -20.2522  -14.7967 C   0  0  0  0  0  0  0  0  0  0  0  0
   25.3196  -19.5508  -15.1699 C   0  0  0  0  0  0  0  0  0  0  0  0
   25.5179  -18.1881  -15.2512 C   0  0  0  0  0  0  0  0  0  0  0  0
   26.7887  -17.9526  -15.6178 N   0  0  0  0  0  0  0  0  0  0  0  0
   27.4534  -19.1169  -15.7860 C   0  0  0  0  0  0  0  0  0  0  0  0
   28.7494  -19.4078  -16.1498 C   0  0  0  0  0  0  0  0  0  0  0  0
   29.1408  -20.7249  -16.2371 C   0  0  0  0  0  0  0  0  0  0  0  0
   28.2089  -21.7225  -15.9532 C   0  0  0  0  0  0  0  0  0  0  0  0
   26.9102  -21.4385  -15.5885 C   0  0  0  0  0  0  0  0  0  0  0  0
   26.5307  -20.1230  -15.5047 C   0  0  0  0  0  0  0  0  0  0  0  0
   22.3877  -21.8985  -15.4567 C   0  0  0  0  0  0  0  0  0  0  0  0
   21.2353  -21.3792  -15.4528 O   0  0  0  0  0  0  0  0  0  0  0  0
   22.2498  -28.1883  -14.1390 N   0  0  0  0  0  0  0  0  0  0  0  0
   20.9813  -27.6739  -13.7956 C   0  0  0  0  0  0  0  0  0  0  0  0
   20.0933  -28.4758  -13.3722 O   0  0  0  0  0  0  0  0  0  0  0  0
   20.6480  -26.2330  -13.9111 C   0  0  0  0  0  0  0  0  0  0  0  0
   21.8508  -25.4844  -14.4030 C   0  0  0  0  0  0  0  0  0  0  0  0
   21.4983  -24.0329  -14.5474 C   0  0  2  0  0  0  0  0  0  0  0  0
   22.5949  -23.2311  -15.0121 N   0  0  0  0  0  0  0  0  0  0  0  0
   20.9290  -23.4776  -13.2787 C   0  0  0  0  0  0  0  0  0  0  0  0
   21.6724  -23.2347  -12.2690 O   0  0  0  0  0  0  0  0  0  0  0  0
   20.2982  -18.1844  -10.6950 C   0  0  0  0  0  0  0  0  0  0  0  0
   18.5451  -18.5886  -11.0250 S   0  0  0  0  0  0  0  0  0  0  0  0
   18.4072  -20.4028  -10.9162 C   0  0  0  0  0  0  0  0  0  0  0  0
   19.0506  -21.0551  -12.1100 C   0  0  0  0  0  0  0  0  0  0  0  0
   19.0587  -22.5496  -11.9115 C   0  0  2  0  0  0  0  0  0  0  0  0
   19.5513  -23.1856  -13.1055 N   0  0  0  0  0  0  0  0  0  0  0  0
   17.6781  -23.0468  -11.6607 C   0  0  0  0  0  0  0  0  0  0  0  0
   16.9387  -23.4634  -12.5964 O   0  0  0  0  0  0  0  0  0  0  0  0
   17.1377  -23.0759  -10.3835 O   0  0  0  0  0  0  0  0  0  0  0  0
  2  1  1  6
  2 13  1  0
  2  3  1  0
  3  4  1  0
  4  5  2  0
  6  5  1  0
  7  6  1  0
  8  7  2  0
  9  8  1  0
 10  9  2  0
 10 11  1  0
 11 12  2  0
 12  7  1  0
 12  4  1  0
 13 21  1  0
 14 13  2  0
 16 15  1  0
 16 18  1  0
 17 16  2  0
 19 18  1  0
 20 19  1  1
 21 20  1  0
 22 20  1  0
 23 22  2  0
 25 26  1  0
 25 24  1  0
 26 27  1  0
 28 27  1  6
 28 30  1  0
 28 29  1  0
 29 22  1  0
 30 32  1  0
 31 30  2  0
M  END
$$$$
