WQM.pdb
     RDKit          3D

 32 33  0  0  1  0  0  0  0  0999 V2000
   25.0339   -7.8882  -19.1785 N   0  0  0  0  0  0  0  0  0  0  0  0
   24.5639   -8.0863  -17.8296 C   0  0  1  0  0  0  0  0  0  0  0  0
   25.5685   -7.4599  -16.8929 C   0  0  0  0  0  0  0  0  0  0  0  0
   26.8617   -8.2162  -16.8986 C   0  0  0  0  0  0  0  0  0  0  0  0
   28.0780   -7.7698  -17.3721 C   0  0  0  0  0  0  0  0  0  0  0  0
   28.9944   -8.7375  -17.2034 N   0  0  0  0  0  0  0  0  0  0  0  0
   28.4317   -9.8237  -16.6298 C   0  0  0  0  0  0  0  0  0  0  0  0
   28.9364  -11.0497  -16.2571 C   0  0  0  0  0  0  0  0  0  0  0  0
   28.0938  -11.9737  -15.6811 C   0  0  0  0  0  0  0  0  0  0  0  0
   26.7541  -11.6357  -15.4938 C   0  0  0  0  0  0  0  0  0  0  0  0
   26.2422  -10.4105  -15.8643 C   0  0  0  0  0  0  0  0  0  0  0  0
   27.0903   -9.4974  -16.4375 C   0  0  0  0  0  0  0  0  0  0  0  0
   23.2588   -7.4181  -17.6485 C   0  0  0  0  0  0  0  0  0  0  0  0
   22.9948   -6.3664  -18.2983 O   0  0  0  0  0  0  0  0  0  0  0  0
   18.1574   -9.9006  -14.6306 N   0  0  0  0  0  0  0  0  0  0  0  0
   17.7051   -8.8289  -15.4296 C   0  0  0  0  0  0  0  0  0  0  0  0
   16.4559   -8.6256  -15.5254 O   0  0  0  0  0  0  0  0  0  0  0  0
   18.6341   -7.9326  -16.1606 C   0  0  0  0  0  0  0  0  0  0  0  0
   20.0442   -8.3911  -15.9356 C   0  0  0  0  0  0  0  0  0  0  0  0
   20.9801   -7.4679  -16.6592 C   0  0  2  0  0  0  0  0  0  0  0  0
   22.3206   -7.9759  -16.7402 N   0  0  0  0  0  0  0  0  0  0  0  0
   20.9633   -6.0935  -16.0655 C   0  0  0  0  0  0  0  0  0  0  0  0
   21.8098   -5.7458  -15.1745 O   0  0  0  0  0  0  0  0  0  0  0  0
   23.5409   -0.2783  -16.3364 C   0  0  0  0  0  0  0  0  0  0  0  0
   21.9355   -0.3800  -17.2071 S   0  0  0  0  0  0  0  0  0  0  0  0
   20.8780   -1.4775  -16.2076 C   0  0  0  0  0  0  0  0  0  0  0  0
   20.8608   -2.8667  -16.7858 C   0  0  0  0  0  0  0  0  0  0  0  0
   20.0697   -3.7711  -15.8751 C   0  0  2  0  0  0  0  0  0  0  0  0
   20.0270   -5.0950  -16.4391 N   0  0  0  0  0  0  0  0  0  0  0  0
   18.6703   -3.2802  -15.7452 C   0  0  0  0  0  0  0  0  0  0  0  0
   18.3861   -2.2418  -15.0844 O   0  0  0  0  0  0  0  0  0  0  0  0
   17.6098   -3.9426  -16.3459 O   0  0  0  0  0  0  0  0  0  0  0  0
  2  1  1  6
  2 13  1  0
  2  3  1  0
  3  4  1  0
  4  5  2  0
  6  5  1  0
  7  6  1  0
  8  7  2  0
  9  8  1  0
 10  9  2  0
 10 11  1  0
 11 12  2  0
 12  7  1  0
 12  4  1  0
 13 21  1  0
 14 13  2  0
 16 15  1  0
 16 18  1  0
 17 16  2  0
 19 18  1  0
 20 19  1  1
 21 20  1  0
 22 20  1  0
 23 22  2  0
 25 26  1  0
 25 24  1  0
 26 27  1  0
 28 27  1  6
 28 30  1  0
 28 29  1  0
 29 22  1  0
 30 32  1  0
 31 30  2  0
M  END
$$$$
