WQM.pdb
     RDKit          3D

 32 33  0  0  1  0  0  0  0  0999 V2000
   26.8779  -22.4343  -13.0600 N   0  0  0  0  0  0  0  0  0  0  0  0
   26.1049  -21.2999  -12.6179 C   0  0  1  0  0  0  0  0  0  0  0  0
   27.0675  -20.1858  -12.2845 C   0  0  0  0  0  0  0  0  0  0  0  0
   28.0051  -20.5881  -11.1874 C   0  0  0  0  0  0  0  0  0  0  0  0
   29.2949  -21.0554  -11.3326 C   0  0  0  0  0  0  0  0  0  0  0  0
   29.8071  -21.3090  -10.1169 N   0  0  0  0  0  0  0  0  0  0  0  0
   28.9005  -21.0263   -9.1558 C   0  0  0  0  0  0  0  0  0  0  0  0
   28.9385  -21.1132   -7.7819 C   0  0  0  0  0  0  0  0  0  0  0  0
   27.8284  -20.7428   -7.0566 C   0  0  0  0  0  0  0  0  0  0  0  0
   26.7001  -20.2907   -7.7397 C   0  0  0  0  0  0  0  0  0  0  0  0
   26.6551  -20.2011   -9.1146 C   0  0  0  0  0  0  0  0  0  0  0  0
   27.7666  -20.5728   -9.8276 C   0  0  0  0  0  0  0  0  0  0  0  0
   25.2078  -20.8494  -13.7017 C   0  0  0  0  0  0  0  0  0  0  0  0
   25.6324  -20.0391  -14.5741 O   0  0  0  0  0  0  0  0  0  0  0  0
   25.6004  -20.6325  -17.6486 N   0  0  0  0  0  0  0  0  0  0  0  0
   25.6810  -21.8084  -16.8724 C   0  0  0  0  0  0  0  0  0  0  0  0
   26.7555  -22.4833  -16.8991 O   0  0  0  0  0  0  0  0  0  0  0  0
   24.5579  -22.2841  -16.0279 C   0  0  0  0  0  0  0  0  0  0  0  0
   23.4097  -21.3266  -16.1458 C   0  0  0  0  0  0  0  0  0  0  0  0
   22.9658  -20.9234  -14.7702 C   0  0  2  0  0  0  0  0  0  0  0  0
   23.8758  -21.3400  -13.7407 N   0  0  0  0  0  0  0  0  0  0  0  0
   21.5758  -21.3988  -14.4806 C   0  0  0  0  0  0  0  0  0  0  0  0
   21.3583  -22.5693  -14.0183 O   0  0  0  0  0  0  0  0  0  0  0  0
   21.5858  -19.9705   -9.9470 C   0  0  0  0  0  0  0  0  0  0  0  0
   19.8556  -19.5131  -10.3247 S   0  0  0  0  0  0  0  0  0  0  0  0
   19.9239  -18.3779  -11.7490 C   0  0  0  0  0  0  0  0  0  0  0  0
   20.6515  -19.0169  -12.9009 C   0  0  0  0  0  0  0  0  0  0  0  0
   19.7231  -19.9776  -13.5996 C   0  0  2  0  0  0  0  0  0  0  0  0
   20.4204  -20.6030  -14.6930 N   0  0  0  0  0  0  0  0  0  0  0  0
   18.5492  -19.2513  -14.1571 C   0  0  0  0  0  0  0  0  0  0  0  0
   17.6342  -18.7939  -13.4160 O   0  0  0  0  0  0  0  0  0  0  0  0
   18.4055  -19.0421  -15.5208 O   0  0  0  0  0  0  0  0  0  0  0  0
  2  1  1  6
  2 13  1  0
  2  3  1  0
  3  4  1  0
  4  5  2  0
  6  5  1  0
  7  6  1  0
  8  7  2  0
  9  8  1  0
 10  9  2  0
 10 11  1  0
 11 12  2  0
 12  7  1  0
 12  4  1  0
 13 21  1  0
 14 13  2  0
 16 15  1  0
 16 18  1  0
 17 16  2  0
 19 18  1  0
 20 19  1  6
 21 20  1  0
 22 20  1  0
 23 22  2  0
 25 26  1  0
 25 24  1  0
 26 27  1  0
 28 27  1  6
 28 30  1  0
 28 29  1  0
 29 22  1  0
 30 32  1  0
 31 30  2  0
M  END
$$$$
