WQM.pdb
     RDKit          3D

 32 33  0  0  1  0  0  0  0  0999 V2000
   23.4506  -20.4200   -9.8754 N   0  0  0  0  0  0  0  0  0  0  0  0
   23.2654  -21.3443   -8.7841 C   0  0  1  0  0  0  0  0  0  0  0  0
   24.0239  -20.8115   -7.5926 C   0  0  0  0  0  0  0  0  0  0  0  0
   25.4846  -20.6738   -7.8956 C   0  0  0  0  0  0  0  0  0  0  0  0
   26.0910  -20.8220   -9.1258 C   0  0  0  0  0  0  0  0  0  0  0  0
   27.4123  -20.6227   -8.9884 N   0  0  0  0  0  0  0  0  0  0  0  0
   27.7150  -20.3442   -7.7013 C   0  0  0  0  0  0  0  0  0  0  0  0
   28.9022  -20.0688   -7.0600 C   0  0  0  0  0  0  0  0  0  0  0  0
   28.8897  -19.8192   -5.7061 C   0  0  0  0  0  0  0  0  0  0  0  0
   27.6718  -19.8538   -5.0282 C   0  0  0  0  0  0  0  0  0  0  0  0
   26.4798  -20.1287   -5.6637 C   0  0  0  0  0  0  0  0  0  0  0  0
   26.5036  -20.3761   -7.0127 C   0  0  0  0  0  0  0  0  0  0  0  0
   21.8319  -21.4337   -8.4384 C   0  0  0  0  0  0  0  0  0  0  0  0
   21.0252  -20.5610   -8.8692 O   0  0  0  0  0  0  0  0  0  0  0  0
   17.6761  -23.2408  -10.8241 N   0  0  0  0  0  0  0  0  0  0  0  0
   18.7675  -24.0969  -10.5644 C   0  0  0  0  0  0  0  0  0  0  0  0
   19.0078  -25.0413  -11.3777 O   0  0  0  0  0  0  0  0  0  0  0  0
   19.6429  -23.9343   -9.3778 C   0  0  0  0  0  0  0  0  0  0  0  0
   19.1338  -22.8004   -8.5386 C   0  0  0  0  0  0  0  0  0  0  0  0
   19.9938  -22.6724   -7.3156 C   0  0  2  0  0  0  0  0  0  0  0  0
   21.3867  -22.5069   -7.6220 N   0  0  0  0  0  0  0  0  0  0  0  0
   19.7850  -23.8188   -6.3753 C   0  0  0  0  0  0  0  0  0  0  0  0
   20.0303  -25.0208   -6.7307 O   0  0  0  0  0  0  0  0  0  0  0  0
   13.1322  -25.9728   -4.4648 C   0  0  0  0  0  0  0  0  0  0  0  0
   14.2919  -24.7770   -5.2201 S   0  0  0  0  0  0  0  0  0  0  0  0
   15.9433  -25.1762   -4.5599 C   0  0  0  0  0  0  0  0  0  0  0  0
   16.9843  -24.2645   -5.1513 C   0  0  0  0  0  0  0  0  0  0  0  0
   18.3128  -24.5396   -4.4935 C   0  0  2  0  0  0  0  0  0  0  0  0
   19.3093  -23.6608   -5.0480 N   0  0  0  0  0  0  0  0  0  0  0  0
   18.7393  -25.9421   -4.7533 C   0  0  0  0  0  0  0  0  0  0  0  0
   19.0217  -26.7384   -3.8142 O   0  0  0  0  0  0  0  0  0  0  0  0
   18.8466  -26.4412   -6.0430 O   0  0  0  0  0  0  0  0  0  0  0  0
  2  1  1  6
  2 13  1  0
  2  3  1  0
  3  4  1  0
  4  5  2  0
  6  5  1  0
  7  6  1  0
  8  7  2  0
  9  8  1  0
 10  9  2  0
 10 11  1  0
 11 12  2  0
 12  7  1  0
 12  4  1  0
 13 21  1  0
 14 13  2  0
 16 15  1  0
 16 18  1  0
 17 16  2  0
 19 18  1  0
 20 19  1  6
 21 20  1  0
 22 20  1  0
 23 22  2  0
 25 26  1  0
 25 24  1  0
 26 27  1  0
 28 27  1  6
 28 30  1  0
 28 29  1  0
 29 22  1  0
 30 32  1  0
 31 30  2  0
M  END
$$$$
