WQM.pdb
     RDKit          3D

 32 33  0  0  1  0  0  0  0  0999 V2000
   27.9161  -19.8421  -10.1541 N   0  0  0  0  0  0  0  0  0  0  0  0
   26.9182  -20.8576   -9.9242 C   0  0  1  0  0  0  0  0  0  0  0  0
   26.1707  -20.4949   -8.6639 C   0  0  0  0  0  0  0  0  0  0  0  0
   27.0823  -19.8705   -7.6522 C   0  0  0  0  0  0  0  0  0  0  0  0
   27.6357  -18.6081   -7.7061 C   0  0  0  0  0  0  0  0  0  0  0  0
   28.3964  -18.4176   -6.6154 N   0  0  0  0  0  0  0  0  0  0  0  0
   28.3722  -19.5147   -5.8272 C   0  0  0  0  0  0  0  0  0  0  0  0
   28.9736  -19.8139   -4.6249 C   0  0  0  0  0  0  0  0  0  0  0  0
   28.7520  -21.0470   -4.0540 C   0  0  0  0  0  0  0  0  0  0  0  0
   27.9238  -21.9536   -4.7144 C   0  0  0  0  0  0  0  0  0  0  0  0
   27.3186  -21.6608   -5.9179 C   0  0  0  0  0  0  0  0  0  0  0  0
   27.5462  -20.4295   -6.4779 C   0  0  0  0  0  0  0  0  0  0  0  0
   25.9657  -20.8914  -11.0531 C   0  0  0  0  0  0  0  0  0  0  0  0
   25.6383  -19.8167  -11.6325 O   0  0  0  0  0  0  0  0  0  0  0  0
   25.3122  -25.2456  -15.0850 N   0  0  0  0  0  0  0  0  0  0  0  0
   24.1254  -24.5208  -15.3253 C   0  0  0  0  0  0  0  0  0  0  0  0
   23.5690  -24.6227  -16.4615 O   0  0  0  0  0  0  0  0  0  0  0  0
   23.5052  -23.6455  -14.3006 C   0  0  0  0  0  0  0  0  0  0  0  0
   24.3536  -23.6526  -13.0640 C   0  0  0  0  0  0  0  0  0  0  0  0
   24.5912  -22.2373  -12.6255 C   0  0  2  0  0  0  0  0  0  0  0  0
   25.4332  -22.1411  -11.4666 N   0  0  0  0  0  0  0  0  0  0  0  0
   23.3026  -21.5049  -12.4133 C   0  0  0  0  0  0  0  0  0  0  0  0
   22.6446  -21.6226  -11.3250 O   0  0  0  0  0  0  0  0  0  0  0  0
   18.4719  -15.6565  -14.3124 C   0  0  0  0  0  0  0  0  0  0  0  0
   20.0707  -16.4460  -14.7199 S   0  0  0  0  0  0  0  0  0  0  0  0
   20.1883  -17.9359  -13.6767 C   0  0  0  0  0  0  0  0  0  0  0  0
   21.4718  -18.6729  -13.9490 C   0  0  0  0  0  0  0  0  0  0  0  0
   21.4963  -19.9403  -13.1328 C   0  0  2  0  0  0  0  0  0  0  0  0
   22.7272  -20.6438  -13.3832 N   0  0  0  0  0  0  0  0  0  0  0  0
   20.3690  -20.8306  -13.5238 C   0  0  0  0  0  0  0  0  0  0  0  0
   20.4546  -21.6247  -14.5025 O   0  0  0  0  0  0  0  0  0  0  0  0
   19.1684  -20.8294  -12.8292 O   0  0  0  0  0  0  0  0  0  0  0  0
  2  1  1  6
  2 13  1  0
  2  3  1  0
  3  4  1  0
  4  5  2  0
  6  5  1  0
  7  6  1  0
  8  7  2  0
  9  8  1  0
 10  9  2  0
 10 11  1  0
 11 12  2  0
 12  7  1  0
 12  4  1  0
 13 21  1  0
 14 13  2  0
 16 15  1  0
 16 18  1  0
 17 16  2  0
 19 18  1  0
 20 19  1  1
 21 20  1  0
 22 20  1  0
 23 22  2  0
 25 26  1  0
 25 24  1  0
 26 27  1  0
 28 27  1  6
 28 30  1  0
 28 29  1  0
 29 22  1  0
 30 32  1  0
 31 30  2  0
M  END
$$$$
