WQM.pdb
     RDKit          3D

 32 33  0  0  1  0  0  0  0  0999 V2000
   28.5853  -11.5536  -17.5156 N   0  0  0  0  0  0  0  0  0  0  0  0
   28.9554  -10.4485  -18.3651 C   0  0  1  0  0  0  0  0  0  0  0  0
   27.6872   -9.8473  -18.9210 C   0  0  0  0  0  0  0  0  0  0  0  0
   27.0822  -10.7295  -19.9699 C   0  0  0  0  0  0  0  0  0  0  0  0
   26.2490  -11.8091  -19.7618 C   0  0  0  0  0  0  0  0  0  0  0  0
   25.9198  -12.3424  -20.9500 N   0  0  0  0  0  0  0  0  0  0  0  0
   26.5065  -11.6539  -21.9536 C   0  0  0  0  0  0  0  0  0  0  0  0
   26.4835  -11.7984  -23.3230 C   0  0  0  0  0  0  0  0  0  0  0  0
   27.2011  -10.9183  -24.1014 C   0  0  0  0  0  0  0  0  0  0  0  0
   27.9288   -9.9074  -23.4750 C   0  0  0  0  0  0  0  0  0  0  0  0
   27.9563   -9.7567  -22.1050 C   0  0  0  0  0  0  0  0  0  0  0  0
   27.2379  -10.6392  -21.3389 C   0  0  0  0  0  0  0  0  0  0  0  0
   29.6654   -9.4221  -17.5744 C   0  0  0  0  0  0  0  0  0  0  0  0
   29.6757   -9.4956  -16.3125 O   0  0  0  0  0  0  0  0  0  0  0  0
   34.3947   -9.4066  -15.4562 N   0  0  0  0  0  0  0  0  0  0  0  0
   34.2801   -8.0006  -15.4174 C   0  0  0  0  0  0  0  0  0  0  0  0
   35.1059   -7.3414  -14.7141 O   0  0  0  0  0  0  0  0  0  0  0  0
   33.2317   -7.2656  -16.1667 C   0  0  0  0  0  0  0  0  0  0  0  0
   32.2859   -8.2495  -16.7886 C   0  0  0  0  0  0  0  0  0  0  0  0
   31.2411   -7.5011  -17.5632 C   0  0  2  0  0  0  0  0  0  0  0  0
   30.3265   -8.3654  -18.2546 N   0  0  0  0  0  0  0  0  0  0  0  0
   31.8581   -6.5125  -18.5034 C   0  0  0  0  0  0  0  0  0  0  0  0
   32.6106   -6.8910  -19.4635 O   0  0  0  0  0  0  0  0  0  0  0  0
   30.3499   -0.2805  -22.7303 C   0  0  0  0  0  0  0  0  0  0  0  0
   29.8600   -1.2102  -21.2333 S   0  0  0  0  0  0  0  0  0  0  0  0
   31.2306   -2.3548  -20.8681 C   0  0  0  0  0  0  0  0  0  0  0  0
   30.8498   -3.3007  -19.7613 C   0  0  0  0  0  0  0  0  0  0  0  0
   32.0109   -4.2187  -19.4749 C   0  0  2  0  0  0  0  0  0  0  0  0
   31.6582   -5.1114  -18.4018 N   0  0  0  0  0  0  0  0  0  0  0  0
   33.2006   -3.4322  -19.0479 C   0  0  0  0  0  0  0  0  0  0  0  0
   33.4291   -3.1750  -17.8324 O   0  0  0  0  0  0  0  0  0  0  0  0
   34.1165   -2.9438  -19.9680 O   0  0  0  0  0  0  0  0  0  0  0  0
  2  1  1  1
  2 13  1  0
  2  3  1  0
  3  4  1  0
  4  5  2  0
  6  5  1  0
  7  6  1  0
  8  7  2  0
  9  8  1  0
 10  9  2  0
 10 11  1  0
 11 12  2  0
 12  7  1  0
 12  4  1  0
 13 21  1  0
 14 13  2  0
 16 15  1  0
 16 18  1  0
 17 16  2  0
 19 18  1  0
 20 19  1  6
 21 20  1  0
 22 20  1  0
 23 22  2  0
 25 26  1  0
 25 24  1  0
 26 27  1  0
 28 27  1  1
 28 30  1  0
 28 29  1  0
 29 22  1  0
 30 32  1  0
 31 30  2  0
M  END
$$$$
