WQM.pdb
     RDKit          3D

 32 33  0  0  1  0  0  0  0  0999 V2000
   20.3854   -6.9505  -16.6622 N   0  0  0  0  0  0  0  0  0  0  0  0
   19.6597   -7.3196  -15.4719 C   0  0  1  0  0  0  0  0  0  0  0  0
   19.4276   -6.0658  -14.6640 C   0  0  0  0  0  0  0  0  0  0  0  0
   20.6704   -5.2331  -14.5840 C   0  0  0  0  0  0  0  0  0  0  0  0
   21.9549   -5.6847  -14.3621 C   0  0  0  0  0  0  0  0  0  0  0  0
   22.7926   -4.6346  -14.3583 N   0  0  0  0  0  0  0  0  0  0  0  0
   22.1108   -3.4877  -14.5713 C   0  0  0  0  0  0  0  0  0  0  0  0
   22.5032   -2.1704  -14.6566 C   0  0  0  0  0  0  0  0  0  0  0  0
   21.5521   -1.2020  -14.8877 C   0  0  0  0  0  0  0  0  0  0  0  0
   20.2201   -1.5892  -15.0282 C   0  0  0  0  0  0  0  0  0  0  0  0
   19.8202   -2.9058  -14.9441 C   0  0  0  0  0  0  0  0  0  0  0  0
   20.7759   -3.8625  -14.7134 C   0  0  0  0  0  0  0  0  0  0  0  0
   18.3524   -7.9012  -15.8399 C   0  0  0  0  0  0  0  0  0  0  0  0
   17.7486   -7.4896  -16.8714 O   0  0  0  0  0  0  0  0  0  0  0  0
   15.4665  -13.8145  -17.0379 N   0  0  0  0  0  0  0  0  0  0  0  0
   15.3851  -13.0823  -15.8342 C   0  0  0  0  0  0  0  0  0  0  0  0
   15.3778  -13.7166  -14.7349 O   0  0  0  0  0  0  0  0  0  0  0  0
   15.3078  -11.6011  -15.8063 C   0  0  0  0  0  0  0  0  0  0  0  0
   16.6315  -11.0442  -15.3742 C   0  0  0  0  0  0  0  0  0  0  0  0
   16.5519   -9.5457  -15.3636 C   0  0  2  0  0  0  0  0  0  0  0  0
   17.7968   -8.9186  -15.0198 N   0  0  0  0  0  0  0  0  0  0  0  0
   15.4458   -9.0611  -14.4784 C   0  0  0  0  0  0  0  0  0  0  0  0
   15.6135   -8.9306  -13.2190 O   0  0  0  0  0  0  0  0  0  0  0  0
    8.2482   -5.9893  -13.7367 C   0  0  0  0  0  0  0  0  0  0  0  0
    9.4578   -6.6214  -14.9544 S   0  0  0  0  0  0  0  0  0  0  0  0
   10.9209   -7.1437  -14.0012 C   0  0  0  0  0  0  0  0  0  0  0  0
   11.9725   -7.7128  -14.9150 C   0  0  0  0  0  0  0  0  0  0  0  0
   13.1417   -8.1851  -14.0886 C   0  0  2  0  0  0  0  0  0  0  0  0
   14.1562   -8.7178  -14.9603 N   0  0  0  0  0  0  0  0  0  0  0  0
   12.7164   -9.2686  -13.1605 C   0  0  0  0  0  0  0  0  0  0  0  0
   12.7299  -10.4843  -13.5033 O   0  0  0  0  0  0  0  0  0  0  0  0
   12.2843   -8.9925  -11.8716 O   0  0  0  0  0  0  0  0  0  0  0  0
  2  1  1  6
  2 13  1  0
  2  3  1  0
  3  4  1  0
  4  5  2  0
  6  5  1  0
  7  6  1  0
  8  7  2  0
  9  8  1  0
 10  9  2  0
 10 11  1  0
 11 12  2  0
 12  7  1  0
 12  4  1  0
 13 21  1  0
 14 13  2  0
 16 15  1  0
 16 18  1  0
 17 16  2  0
 19 18  1  0
 20 19  1  1
 21 20  1  0
 22 20  1  0
 23 22  2  0
 25 26  1  0
 25 24  1  0
 26 27  1  0
 28 27  1  6
 28 30  1  0
 28 29  1  0
 29 22  1  0
 30 32  1  0
 31 30  2  0
M  END
$$$$
