WQM.pdb
     RDKit          3D

 32 33  0  0  1  0  0  0  0  0999 V2000
   28.2104  -21.2204  -15.1513 N   0  0  0  0  0  0  0  0  0  0  0  0
   28.3881  -21.1517  -13.7218 C   0  0  1  0  0  0  0  0  0  0  0  0
   29.7412  -20.5390  -13.4526 C   0  0  0  0  0  0  0  0  0  0  0  0
   30.6656  -21.5257  -12.8072 C   0  0  0  0  0  0  0  0  0  0  0  0
   31.3533  -22.5451  -13.4323 C   0  0  0  0  0  0  0  0  0  0  0  0
   32.0749  -23.2115  -12.5159 N   0  0  0  0  0  0  0  0  0  0  0  0
   31.8942  -22.6711  -11.2908 C   0  0  0  0  0  0  0  0  0  0  0  0
   32.4002  -22.9838  -10.0486 C   0  0  0  0  0  0  0  0  0  0  0  0
   32.0200  -22.2294   -8.9615 C   0  0  0  0  0  0  0  0  0  0  0  0
   31.1331  -21.1712   -9.1557 C   0  0  0  0  0  0  0  0  0  0  0  0
   30.6228  -20.8526  -10.3960 C   0  0  0  0  0  0  0  0  0  0  0  0
   31.0080  -21.6108  -11.4723 C   0  0  0  0  0  0  0  0  0  0  0  0
   27.3455  -20.2908  -13.1262 C   0  0  0  0  0  0  0  0  0  0  0  0
   27.3630  -19.0445  -13.3363 O   0  0  0  0  0  0  0  0  0  0  0  0
   23.0177  -20.4802  -14.0773 N   0  0  0  0  0  0  0  0  0  0  0  0
   22.9361  -21.4923  -13.0972 C   0  0  0  0  0  0  0  0  0  0  0  0
   22.2936  -22.5527  -13.3689 O   0  0  0  0  0  0  0  0  0  0  0  0
   23.5721  -21.3628  -11.7632 C   0  0  0  0  0  0  0  0  0  0  0  0
   24.1652  -19.9920  -11.6285 C   0  0  0  0  0  0  0  0  0  0  0  0
   25.6314  -20.1200  -11.3356 C   0  0  2  0  0  0  0  0  0  0  0  0
   26.3375  -20.8868  -12.3230 N   0  0  0  0  0  0  0  0  0  0  0  0
   25.8711  -20.6654   -9.9620 C   0  0  0  0  0  0  0  0  0  0  0  0
   25.8898  -21.9234   -9.7421 O   0  0  0  0  0  0  0  0  0  0  0  0
   29.5876  -19.1227   -4.4288 C   0  0  0  0  0  0  0  0  0  0  0  0
   28.5327  -20.5739   -4.7846 S   0  0  0  0  0  0  0  0  0  0  0  0
   26.8801  -19.9205   -5.1895 C   0  0  0  0  0  0  0  0  0  0  0  0
   26.8542  -19.3796   -6.5935 C   0  0  0  0  0  0  0  0  0  0  0  0
   26.2286  -20.4040   -7.5059 C   0  0  2  0  0  0  0  0  0  0  0  0
   26.0907  -19.8449   -8.8255 N   0  0  0  0  0  0  0  0  0  0  0  0
   24.8714  -20.7729   -7.0178 C   0  0  0  0  0  0  0  0  0  0  0  0
   24.7032  -21.4765   -5.9822 O   0  0  0  0  0  0  0  0  0  0  0  0
   23.7246  -20.3595   -7.6796 O   0  0  0  0  0  0  0  0  0  0  0  0
  2  1  1  6
  2 13  1  0
  2  3  1  0
  3  4  1  0
  4  5  2  0
  6  5  1  0
  7  6  1  0
  8  7  2  0
  9  8  1  0
 10  9  2  0
 10 11  1  0
 11 12  2  0
 12  7  1  0
 12  4  1  0
 13 21  1  0
 14 13  2  0
 16 15  1  0
 16 18  1  0
 17 16  2  0
 19 18  1  0
 20 19  1  6
 21 20  1  0
 22 20  1  0
 23 22  2  0
 25 26  1  0
 25 24  1  0
 26 27  1  0
 28 27  1  1
 28 30  1  0
 28 29  1  0
 29 22  1  0
 30 32  1  0
 31 30  2  0
M  END
$$$$
