WQM.pdb
     RDKit          3D

 32 33  0  0  1  0  0  0  0  0999 V2000
   27.5571  -21.2878  -14.0361 N   0  0  0  0  0  0  0  0  0  0  0  0
   26.6252  -21.8492  -13.0894 C   0  0  1  0  0  0  0  0  0  0  0  0
   26.3786  -20.8173  -12.0155 C   0  0  0  0  0  0  0  0  0  0  0  0
   27.5285  -20.7442  -11.0579 C   0  0  0  0  0  0  0  0  0  0  0  0
   28.8708  -20.7809  -11.3740 C   0  0  0  0  0  0  0  0  0  0  0  0
   29.5887  -20.6916  -10.2421 N   0  0  0  0  0  0  0  0  0  0  0  0
   28.7698  -20.5955   -9.1717 C   0  0  0  0  0  0  0  0  0  0  0  0
   29.0094  -20.4837   -7.8201 C   0  0  0  0  0  0  0  0  0  0  0  0
   27.9412  -20.4028   -6.9552 C   0  0  0  0  0  0  0  0  0  0  0  0
   26.6493  -20.4368   -7.4787 C   0  0  0  0  0  0  0  0  0  0  0  0
   26.4023  -20.5485   -8.8303 C   0  0  0  0  0  0  0  0  0  0  0  0
   27.4737  -20.6286   -9.6831 C   0  0  0  0  0  0  0  0  0  0  0  0
   25.3463  -22.1544  -13.7630 C   0  0  0  0  0  0  0  0  0  0  0  0
   24.7292  -21.2428  -14.3844 O   0  0  0  0  0  0  0  0  0  0  0  0
   23.2961  -27.8868  -15.6038 N   0  0  0  0  0  0  0  0  0  0  0  0
   22.2301  -26.9965  -15.8539 C   0  0  0  0  0  0  0  0  0  0  0  0
   21.1870  -27.4405  -16.4246 O   0  0  0  0  0  0  0  0  0  0  0  0
   22.2835  -25.5631  -15.4752 C   0  0  0  0  0  0  0  0  0  0  0  0
   23.5529  -25.2969  -14.7223 C   0  0  0  0  0  0  0  0  0  0  0  0
   23.6275  -23.8354  -14.3905 C   0  0  2  0  0  0  0  0  0  0  0  0
   24.8326  -23.4766  -13.6973 N   0  0  0  0  0  0  0  0  0  0  0  0
   22.4185  -23.3823  -13.6322 C   0  0  0  0  0  0  0  0  0  0  0  0
   22.5268  -22.7640  -12.5199 O   0  0  0  0  0  0  0  0  0  0  0  0
   20.3969  -17.9580  -11.2981 C   0  0  0  0  0  0  0  0  0  0  0  0
   20.4438  -18.7801  -12.9313 S   0  0  0  0  0  0  0  0  0  0  0  0
   20.1771  -20.5561  -12.6201 C   0  0  0  0  0  0  0  0  0  0  0  0
   20.2904  -21.3406  -13.8993 C   0  0  0  0  0  0  0  0  0  0  0  0
   19.9939  -22.7915  -13.6168 C   0  0  2  0  0  0  0  0  0  0  0  0
   21.0904  -23.6006  -14.0813 N   0  0  0  0  0  0  0  0  0  0  0  0
   18.7658  -23.2202  -14.3410 C   0  0  0  0  0  0  0  0  0  0  0  0
   18.7831  -23.5101  -15.5703 O   0  0  0  0  0  0  0  0  0  0  0  0
   17.5414  -23.3218  -13.6970 O   0  0  0  0  0  0  0  0  0  0  0  0
  2  1  1  6
  2 13  1  0
  2  3  1  0
  3  4  1  0
  4  5  2  0
  6  5  1  0
  7  6  1  0
  8  7  2  0
  9  8  1  0
 10  9  2  0
 10 11  1  0
 11 12  2  0
 12  7  1  0
 12  4  1  0
 13 21  1  0
 14 13  2  0
 16 15  1  0
 16 18  1  0
 17 16  2  0
 19 18  1  0
 20 19  1  1
 21 20  1  0
 22 20  1  0
 23 22  2  0
 25 26  1  0
 25 24  1  0
 26 27  1  0
 28 27  1  6
 28 30  1  0
 28 29  1  0
 29 22  1  0
 30 32  1  0
 31 30  2  0
M  END
$$$$
