WQM.pdb
     RDKit          3D

 32 33  0  0  1  0  0  0  0  0999 V2000
   24.4920  -19.5237  -10.5203 N   0  0  0  0  0  0  0  0  0  0  0  0
   25.8139  -19.9975  -10.8483 C   0  0  1  0  0  0  0  0  0  0  0  0
   26.1440  -21.1337   -9.9108 C   0  0  0  0  0  0  0  0  0  0  0  0
   26.3906  -20.6358   -8.5194 C   0  0  0  0  0  0  0  0  0  0  0  0
   25.4389  -20.2410   -7.6022 C   0  0  0  0  0  0  0  0  0  0  0  0
   26.0545  -19.8591   -6.4708 N   0  0  0  0  0  0  0  0  0  0  0  0
   27.3937  -19.9849   -6.5982 C   0  0  0  0  0  0  0  0  0  0  0  0
   28.4410  -19.7301   -5.7409 C   0  0  0  0  0  0  0  0  0  0  0  0
   29.7285  -19.9641   -6.1687 C   0  0  0  0  0  0  0  0  0  0  0  0
   29.9290  -20.4527   -7.4591 C   0  0  0  0  0  0  0  0  0  0  0  0
   28.8855  -20.7100   -8.3223 C   0  0  0  0  0  0  0  0  0  0  0  0
   27.6067  -20.4733   -7.8861 C   0  0  0  0  0  0  0  0  0  0  0  0
   25.8377  -20.5005  -12.2372 C   0  0  0  0  0  0  0  0  0  0  0  0
   24.7526  -20.6766  -12.8614 O   0  0  0  0  0  0  0  0  0  0  0  0
   30.3875  -23.0132  -15.5862 N   0  0  0  0  0  0  0  0  0  0  0  0
   29.5915  -22.3823  -16.5660 C   0  0  0  0  0  0  0  0  0  0  0  0
   29.7377  -22.7212  -17.7803 O   0  0  0  0  0  0  0  0  0  0  0  0
   28.5918  -21.3390  -16.2295 C   0  0  0  0  0  0  0  0  0  0  0  0
   28.5997  -21.1050  -14.7482 C   0  0  0  0  0  0  0  0  0  0  0  0
   27.1837  -21.0325  -14.2568 C   0  0  2  0  0  0  0  0  0  0  0  0
   27.0898  -20.7783  -12.8469 N   0  0  0  0  0  0  0  0  0  0  0  0
   26.4089  -22.2573  -14.6329 C   0  0  0  0  0  0  0  0  0  0  0  0
   26.7322  -23.4094  -14.1864 O   0  0  0  0  0  0  0  0  0  0  0  0
   20.1679  -25.4893  -18.1431 C   0  0  0  0  0  0  0  0  0  0  0  0
   20.8872  -23.9038  -17.5823 S   0  0  0  0  0  0  0  0  0  0  0  0
   22.4847  -24.3110  -16.8051 C   0  0  0  0  0  0  0  0  0  0  0  0
   23.2565  -23.0574  -16.4933 C   0  0  0  0  0  0  0  0  0  0  0  0
   24.5523  -23.4301  -15.8186 C   0  0  2  0  0  0  0  0  0  0  0  0
   25.2818  -22.2319  -15.4945 N   0  0  0  0  0  0  0  0  0  0  0  0
   25.3951  -24.2499  -16.7318 C   0  0  0  0  0  0  0  0  0  0  0  0
   25.5818  -25.4842  -16.5391 O   0  0  0  0  0  0  0  0  0  0  0  0
   26.0165  -23.6943  -17.8406 O   0  0  0  0  0  0  0  0  0  0  0  0
  2  1  1  1
  2 13  1  0
  2  3  1  0
  3  4  1  0
  4  5  2  0
  6  5  1  0
  7  6  1  0
  8  7  2  0
  9  8  1  0
 10  9  2  0
 10 11  1  0
 11 12  2  0
 12  7  1  0
 12  4  1  0
 13 21  1  0
 14 13  2  0
 16 15  1  0
 16 18  1  0
 17 16  2  0
 19 18  1  0
 20 19  1  1
 21 20  1  0
 22 20  1  0
 23 22  2  0
 25 26  1  0
 25 24  1  0
 26 27  1  0
 28 27  1  6
 28 30  1  0
 28 29  1  0
 29 22  1  0
 30 32  1  0
 31 30  2  0
M  END
$$$$
