WQM.pdb
     RDKit          3D

 32 33  0  0  1  0  0  0  0  0999 V2000
   22.7382  -19.3377  -17.0465 N   0  0  0  0  0  0  0  0  0  0  0  0
   23.7892  -18.8203  -16.2054 C   0  0  1  0  0  0  0  0  0  0  0  0
   23.2866  -17.5483  -15.5665 C   0  0  0  0  0  0  0  0  0  0  0  0
   23.7217  -16.3423  -16.3416 C   0  0  0  0  0  0  0  0  0  0  0  0
   22.9697  -15.6300  -17.2527 C   0  0  0  0  0  0  0  0  0  0  0  0
   23.7109  -14.6191  -17.7356 N   0  0  0  0  0  0  0  0  0  0  0  0
   24.9410  -14.6285  -17.1767 C   0  0  0  0  0  0  0  0  0  0  0  0
   26.0442  -13.8194  -17.3341 C   0  0  0  0  0  0  0  0  0  0  0  0
   27.1816  -14.0890  -16.6067 C   0  0  0  0  0  0  0  0  0  0  0  0
   27.1779  -15.1753  -15.7327 C   0  0  0  0  0  0  0  0  0  0  0  0
   26.0773  -15.9893  -15.5700 C   0  0  0  0  0  0  0  0  0  0  0  0
   24.9493  -15.7118  -16.2997 C   0  0  0  0  0  0  0  0  0  0  0  0
   24.1094  -19.7957  -15.1430 C   0  0  0  0  0  0  0  0  0  0  0  0
   23.2264  -20.6105  -14.7500 O   0  0  0  0  0  0  0  0  0  0  0  0
   29.7970  -21.9719  -14.0895 N   0  0  0  0  0  0  0  0  0  0  0  0
   28.8866  -22.0828  -15.1621 C   0  0  0  0  0  0  0  0  0  0  0  0
   29.3106  -22.5116  -16.2790 O   0  0  0  0  0  0  0  0  0  0  0  0
   27.4547  -21.7171  -15.0329 C   0  0  0  0  0  0  0  0  0  0  0  0
   27.2007  -21.1913  -13.6516 C   0  0  0  0  0  0  0  0  0  0  0  0
   25.7740  -20.7361  -13.5561 C   0  0  2  0  0  0  0  0  0  0  0  0
   25.4132  -19.7971  -14.5805 N   0  0  0  0  0  0  0  0  0  0  0  0
   25.4614  -20.1917  -12.1967 C   0  0  0  0  0  0  0  0  0  0  0  0
   25.6914  -18.9702  -11.9027 O   0  0  0  0  0  0  0  0  0  0  0  0
   22.0968  -21.0355   -5.2402 C   0  0  0  0  0  0  0  0  0  0  0  0
   22.8041  -22.0202   -6.6097 S   0  0  0  0  0  0  0  0  0  0  0  0
   23.6894  -20.8438   -7.6840 C   0  0  0  0  0  0  0  0  0  0  0  0
   24.1824  -21.5312   -8.9286 C   0  0  0  0  0  0  0  0  0  0  0  0
   24.9209  -20.5335   -9.7844 C   0  0  2  0  0  0  0  0  0  0  0  0
   24.8987  -20.9736  -11.1550 N   0  0  0  0  0  0  0  0  0  0  0  0
   26.3429  -20.4346   -9.3552 C   0  0  0  0  0  0  0  0  0  0  0  0
   27.2190  -21.2521   -9.7551 O   0  0  0  0  0  0  0  0  0  0  0  0
   26.7735  -19.4365   -8.4935 O   0  0  0  0  0  0  0  0  0  0  0  0
  2  1  1  6
  2 13  1  0
  2  3  1  0
  3  4  1  0
  4  5  2  0
  6  5  1  0
  7  6  1  0
  8  7  2  0
  9  8  1  0
 10  9  2  0
 10 11  1  0
 11 12  2  0
 12  7  1  0
 12  4  1  0
 13 21  1  0
 14 13  2  0
 16 15  1  0
 16 18  1  0
 17 16  2  0
 19 18  1  0
 20 19  1  1
 21 20  1  0
 22 20  1  0
 23 22  2  0
 25 26  1  0
 25 24  1  0
 26 27  1  0
 28 27  1  1
 28 30  1  0
 28 29  1  0
 29 22  1  0
 30 32  1  0
 31 30  2  0
M  END
$$$$
