WQM.pdb
     RDKit          3D

 32 33  0  0  1  0  0  0  0  0999 V2000
   27.6898  -21.9935  -13.2443 N   0  0  0  0  0  0  0  0  0  0  0  0
   26.5391  -21.4247  -12.5870 C   0  0  1  0  0  0  0  0  0  0  0  0
   27.0115  -20.2565  -11.7557 C   0  0  0  0  0  0  0  0  0  0  0  0
   27.9351  -20.7045  -10.6645 C   0  0  0  0  0  0  0  0  0  0  0  0
   29.1563  -21.3272  -10.8192 C   0  0  0  0  0  0  0  0  0  0  0  0
   29.6790  -21.5713   -9.6060 N   0  0  0  0  0  0  0  0  0  0  0  0
   28.8460  -21.1312   -8.6374 C   0  0  0  0  0  0  0  0  0  0  0  0
   28.9229  -21.1456   -7.2624 C   0  0  0  0  0  0  0  0  0  0  0  0
   27.8897  -20.6079   -6.5284 C   0  0  0  0  0  0  0  0  0  0  0  0
   26.7974  -20.0652   -7.2040 C   0  0  0  0  0  0  0  0  0  0  0  0
   26.7139  -20.0473   -8.5799 C   0  0  0  0  0  0  0  0  0  0  0  0
   27.7487  -20.5859   -9.3016 C   0  0  0  0  0  0  0  0  0  0  0  0
   25.5746  -20.9368  -13.5942 C   0  0  0  0  0  0  0  0  0  0  0  0
   25.9106  -20.0166  -14.3932 O   0  0  0  0  0  0  0  0  0  0  0  0
   26.3545  -21.9871  -16.5542 N   0  0  0  0  0  0  0  0  0  0  0  0
   25.3360  -22.9635  -16.5853 C   0  0  0  0  0  0  0  0  0  0  0  0
   25.6581  -24.1731  -16.7954 O   0  0  0  0  0  0  0  0  0  0  0  0
   23.9051  -22.6289  -16.3820 C   0  0  0  0  0  0  0  0  0  0  0  0
   23.7824  -21.1790  -16.0188 C   0  0  0  0  0  0  0  0  0  0  0  0
   23.3065  -21.0687  -14.5999 C   0  0  2  0  0  0  0  0  0  0  0  0
   24.2793  -21.5165  -13.6437 N   0  0  0  0  0  0  0  0  0  0  0  0
   21.9993  -21.7719  -14.4033 C   0  0  0  0  0  0  0  0  0  0  0  0
   21.9355  -23.0457  -14.3346 O   0  0  0  0  0  0  0  0  0  0  0  0
   21.2940  -20.9519   -8.9139 C   0  0  0  0  0  0  0  0  0  0  0  0
   19.6308  -20.3099   -9.3229 S   0  0  0  0  0  0  0  0  0  0  0  0
   19.1667  -21.0640  -10.9159 C   0  0  0  0  0  0  0  0  0  0  0  0
   20.1857  -20.7362  -11.9736 C   0  0  0  0  0  0  0  0  0  0  0  0
   19.8089  -21.4344  -13.2557 C   0  0  2  0  0  0  0  0  0  0  0  0
   20.7598  -21.0922  -14.2811 N   0  0  0  0  0  0  0  0  0  0  0  0
   18.4620  -20.9924  -13.7102 C   0  0  0  0  0  0  0  0  0  0  0  0
   17.4042  -21.3837  -13.1413 O   0  0  0  0  0  0  0  0  0  0  0  0
   18.3056  -20.1271  -14.7830 O   0  0  0  0  0  0  0  0  0  0  0  0
  2  1  1  6
  2 13  1  0
  2  3  1  0
  3  4  1  0
  4  5  2  0
  6  5  1  0
  7  6  1  0
  8  7  2  0
  9  8  1  0
 10  9  2  0
 10 11  1  0
 11 12  2  0
 12  7  1  0
 12  4  1  0
 13 21  1  0
 14 13  2  0
 16 15  1  0
 16 18  1  0
 17 16  2  0
 19 18  1  0
 20 19  1  6
 21 20  1  0
 22 20  1  0
 23 22  2  0
 25 26  1  0
 25 24  1  0
 26 27  1  0
 28 27  1  1
 28 30  1  0
 28 29  1  0
 29 22  1  0
 30 32  1  0
 31 30  2  0
M  END
$$$$
