WQM.pdb
     RDKit          3D

 32 33  0  0  1  0  0  0  0  0999 V2000
   27.9674  -20.0103   -9.8396 N   0  0  0  0  0  0  0  0  0  0  0  0
   27.0711  -21.1380   -9.9088 C   0  0  1  0  0  0  0  0  0  0  0  0
   26.2772  -21.1775   -8.6255 C   0  0  0  0  0  0  0  0  0  0  0  0
   26.8651  -20.2633   -7.5946 C   0  0  0  0  0  0  0  0  0  0  0  0
   26.6407  -18.9081   -7.4674 C   0  0  0  0  0  0  0  0  0  0  0  0
   27.3482  -18.4441   -6.4240 N   0  0  0  0  0  0  0  0  0  0  0  0
   28.0433  -19.4468   -5.8435 C   0  0  0  0  0  0  0  0  0  0  0  0
   28.8986  -19.4874   -4.7648 C   0  0  0  0  0  0  0  0  0  0  0  0
   29.4671  -20.6888   -4.4059 C   0  0  0  0  0  0  0  0  0  0  0  0
   29.1566  -21.8271   -5.1488 C   0  0  0  0  0  0  0  0  0  0  0  0
   28.3014  -21.7938   -6.2295 C   0  0  0  0  0  0  0  0  0  0  0  0
   27.7406  -20.5916   -6.5786 C   0  0  0  0  0  0  0  0  0  0  0  0
   26.1396  -20.9712  -11.0433 C   0  0  0  0  0  0  0  0  0  0  0  0
   25.6517  -19.8325  -11.2947 O   0  0  0  0  0  0  0  0  0  0  0  0
   26.6790  -22.2519  -16.0451 N   0  0  0  0  0  0  0  0  0  0  0  0
   25.2864  -22.3545  -16.2493 C   0  0  0  0  0  0  0  0  0  0  0  0
   24.8081  -22.0049  -17.3718 O   0  0  0  0  0  0  0  0  0  0  0  0
   24.3624  -22.8551  -15.2023 C   0  0  0  0  0  0  0  0  0  0  0  0
   25.1389  -23.1385  -13.9509 C   0  0  0  0  0  0  0  0  0  0  0  0
   25.0132  -21.9673  -13.0213 C   0  0  2  0  0  0  0  0  0  0  0  0
   25.8088  -22.1034  -11.8340 N   0  0  0  0  0  0  0  0  0  0  0  0
   23.5823  -21.6901  -12.6782 C   0  0  0  0  0  0  0  0  0  0  0  0
   22.8996  -22.5069  -11.9725 O   0  0  0  0  0  0  0  0  0  0  0  0
   17.5639  -16.6564  -12.4039 C   0  0  0  0  0  0  0  0  0  0  0  0
   19.2756  -16.8666  -13.0134 S   0  0  0  0  0  0  0  0  0  0  0  0
   19.7424  -18.5903  -12.6489 C   0  0  0  0  0  0  0  0  0  0  0  0
   21.1628  -18.8544  -13.0700 C   0  0  0  0  0  0  0  0  0  0  0  0
   21.5287  -20.2724  -12.7116 C   0  0  2  0  0  0  0  0  0  0  0  0
   22.8914  -20.5253  -13.1013 N   0  0  0  0  0  0  0  0  0  0  0  0
   20.6553  -21.2331  -13.4402 C   0  0  0  0  0  0  0  0  0  0  0  0
   20.8658  -21.5436  -14.6464 O   0  0  0  0  0  0  0  0  0  0  0  0
   19.5664  -21.8340  -12.8260 O   0  0  0  0  0  0  0  0  0  0  0  0
  2  1  1  1
  2 13  1  0
  2  3  1  0
  3  4  1  0
  4  5  2  0
  6  5  1  0
  7  6  1  0
  8  7  2  0
  9  8  1  0
 10  9  2  0
 10 11  1  0
 11 12  2  0
 12  7  1  0
 12  4  1  0
 13 21  1  0
 14 13  2  0
 16 15  1  0
 16 18  1  0
 17 16  2  0
 19 18  1  0
 20 19  1  1
 21 20  1  0
 22 20  1  0
 23 22  2  0
 25 26  1  0
 25 24  1  0
 26 27  1  0
 28 27  1  6
 28 30  1  0
 28 29  1  0
 29 22  1  0
 30 32  1  0
 31 30  2  0
M  END
$$$$
