WQM.pdb
     RDKit          3D

 32 33  0  0  1  0  0  0  0  0999 V2000
   24.8622  -18.0053  -16.6204 N   0  0  0  0  0  0  0  0  0  0  0  0
   25.6060  -18.6268  -15.5526 C   0  0  1  0  0  0  0  0  0  0  0  0
   26.0865  -17.5352  -14.6272 C   0  0  0  0  0  0  0  0  0  0  0  0
   26.6815  -16.3947  -15.3951 C   0  0  0  0  0  0  0  0  0  0  0  0
   26.3042  -15.0694  -15.3314 C   0  0  0  0  0  0  0  0  0  0  0  0
   27.0737  -14.3553  -16.1696 N   0  0  0  0  0  0  0  0  0  0  0  0
   27.9592  -15.1603  -16.7968 C   0  0  0  0  0  0  0  0  0  0  0  0
   28.9435  -14.9182  -17.7292 C   0  0  0  0  0  0  0  0  0  0  0  0
   29.7019  -15.9704  -18.1909 C   0  0  0  0  0  0  0  0  0  0  0  0
   29.4470  -17.2492  -17.6973 C   0  0  0  0  0  0  0  0  0  0  0  0
   28.4637  -17.4988  -16.7640 C   0  0  0  0  0  0  0  0  0  0  0  0
   27.7138  -16.4433  -16.3108 C   0  0  0  0  0  0  0  0  0  0  0  0
   24.7291  -19.5442  -14.7964 C   0  0  0  0  0  0  0  0  0  0  0  0
   23.5550  -19.7725  -15.2055 O   0  0  0  0  0  0  0  0  0  0  0  0
   24.4472  -23.3931  -16.4234 N   0  0  0  0  0  0  0  0  0  0  0  0
   25.1538  -24.2165  -15.5210 C   0  0  0  0  0  0  0  0  0  0  0  0
   24.9578  -25.4700  -15.5590 O   0  0  0  0  0  0  0  0  0  0  0  0
   26.1154  -23.6722  -14.5312 C   0  0  0  0  0  0  0  0  0  0  0  0
   26.1505  -22.1772  -14.6453 C   0  0  0  0  0  0  0  0  0  0  0  0
   25.3558  -21.5819  -13.5202 C   0  0  2  0  0  0  0  0  0  0  0  0
   25.2277  -20.1550  -13.6154 N   0  0  0  0  0  0  0  0  0  0  0  0
   25.9073  -21.9822  -12.1870 C   0  0  0  0  0  0  0  0  0  0  0  0
   26.0046  -23.2108  -11.8516 O   0  0  0  0  0  0  0  0  0  0  0  0
   28.6232  -19.4323   -6.7308 C   0  0  0  0  0  0  0  0  0  0  0  0
   29.5363  -20.0307   -8.1983 S   0  0  0  0  0  0  0  0  0  0  0  0
   28.3205  -20.9024   -9.2394 C   0  0  0  0  0  0  0  0  0  0  0  0
   26.9322  -20.3831   -8.9796 C   0  0  0  0  0  0  0  0  0  0  0  0
   25.9522  -21.1430   -9.8371 C   0  0  2  0  0  0  0  0  0  0  0  0
   26.3537  -21.0484  -11.2164 N   0  0  0  0  0  0  0  0  0  0  0  0
   24.5900  -20.5554   -9.7124 C   0  0  0  0  0  0  0  0  0  0  0  0
   24.1112  -19.7877  -10.5939 O   0  0  0  0  0  0  0  0  0  0  0  0
   23.7805  -20.8248   -8.6187 O   0  0  0  0  0  0  0  0  0  0  0  0
  2  1  1  6
  2 13  1  0
  2  3  1  0
  3  4  1  0
  4  5  2  0
  6  5  1  0
  7  6  1  0
  8  7  2  0
  9  8  1  0
 10  9  2  0
 10 11  1  0
 11 12  2  0
 12  7  1  0
 12  4  1  0
 13 21  1  0
 14 13  2  0
 16 15  1  0
 16 18  1  0
 17 16  2  0
 19 18  1  0
 20 19  1  6
 21 20  1  0
 22 20  1  0
 23 22  2  0
 25 26  1  0
 25 24  1  0
 26 27  1  0
 28 27  1  1
 28 30  1  0
 28 29  1  0
 29 22  1  0
 30 32  1  0
 31 30  2  0
M  END
$$$$
