WQM.pdb
     RDKit          3D

 32 33  0  0  1  0  0  0  0  0999 V2000
   23.4296  -16.1121  -18.5238 N   0  0  0  0  0  0  0  0  0  0  0  0
   24.2859  -16.5039  -17.4316 C   0  0  1  0  0  0  0  0  0  0  0  0
   23.9359  -15.6472  -16.2389 C   0  0  0  0  0  0  0  0  0  0  0  0
   24.4584  -14.2523  -16.3999 C   0  0  0  0  0  0  0  0  0  0  0  0
   23.7116  -13.1026  -16.5530 C   0  0  0  0  0  0  0  0  0  0  0  0
   24.5429  -12.0537  -16.6681 N   0  0  0  0  0  0  0  0  0  0  0  0
   25.8288  -12.4623  -16.5969 C   0  0  0  0  0  0  0  0  0  0  0  0
   27.0277  -11.7875  -16.6597 C   0  0  0  0  0  0  0  0  0  0  0  0
   28.2023  -12.4977  -16.5532 C   0  0  0  0  0  0  0  0  0  0  0  0
   28.1380  -13.8803  -16.3847 C   0  0  0  0  0  0  0  0  0  0  0  0
   26.9416  -14.5622  -16.3209 C   0  0  0  0  0  0  0  0  0  0  0  0
   25.7773  -13.8449  -16.4283 C   0  0  0  0  0  0  0  0  0  0  0  0
   24.0481  -17.9213  -17.0894 C   0  0  0  0  0  0  0  0  0  0  0  0
   22.9117  -18.4358  -17.2938 O   0  0  0  0  0  0  0  0  0  0  0  0
   28.5180  -22.3486  -16.6187 N   0  0  0  0  0  0  0  0  0  0  0  0
   27.2912  -23.0178  -16.4219 C   0  0  0  0  0  0  0  0  0  0  0  0
   27.2836  -24.2870  -16.4180 O   0  0  0  0  0  0  0  0  0  0  0  0
   26.0121  -22.2939  -16.2198 C   0  0  0  0  0  0  0  0  0  0  0  0
   26.2725  -20.8170  -16.2277 C   0  0  0  0  0  0  0  0  0  0  0  0
   24.9616  -20.0894  -16.2906 C   0  0  2  0  0  0  0  0  0  0  0  0
   25.1102  -18.6821  -16.5330 N   0  0  0  0  0  0  0  0  0  0  0  0
   24.1369  -20.3376  -15.0657 C   0  0  0  0  0  0  0  0  0  0  0  0
   24.4280  -19.7912  -13.9486 O   0  0  0  0  0  0  0  0  0  0  0  0
   20.3422  -17.4590  -11.9552 C   0  0  0  0  0  0  0  0  0  0  0  0
   19.2876  -18.9115  -12.3068 S   0  0  0  0  0  0  0  0  0  0  0  0
   20.4159  -20.3288  -12.5076 C   0  0  0  0  0  0  0  0  0  0  0  0
   21.3319  -20.1139  -13.6821 C   0  0  0  0  0  0  0  0  0  0  0  0
   22.1884  -21.3401  -13.8712 C   0  0  2  0  0  0  0  0  0  0  0  0
   22.9949  -21.1796  -15.0530 N   0  0  0  0  0  0  0  0  0  0  0  0
   21.3345  -22.5454  -14.0564 C   0  0  0  0  0  0  0  0  0  0  0  0
   20.6191  -23.0061  -13.1228 O   0  0  0  0  0  0  0  0  0  0  0  0
   21.2844  -23.2207  -15.2670 O   0  0  0  0  0  0  0  0  0  0  0  0
  2  1  1  6
  2 13  1  0
  2  3  1  0
  3  4  1  0
  4  5  2  0
  6  5  1  0
  7  6  1  0
  8  7  2  0
  9  8  1  0
 10  9  2  0
 10 11  1  0
 11 12  2  0
 12  7  1  0
 12  4  1  0
 13 21  1  0
 14 13  2  0
 16 15  1  0
 16 18  1  0
 17 16  2  0
 19 18  1  0
 20 19  1  1
 21 20  1  0
 22 20  1  0
 23 22  2  0
 25 26  1  0
 25 24  1  0
 26 27  1  0
 28 27  1  6
 28 30  1  0
 28 29  1  0
 29 22  1  0
 30 32  1  0
 31 30  2  0
M  END
$$$$
