WQM.pdb
     RDKit          3D

 32 33  0  0  1  0  0  0  0  0999 V2000
   24.7732  -19.8949  -11.5768 N   0  0  0  0  0  0  0  0  0  0  0  0
   26.0416  -20.4932  -11.9129 C   0  0  1  0  0  0  0  0  0  0  0  0
   26.3774  -21.4998  -10.8393 C   0  0  0  0  0  0  0  0  0  0  0  0
   26.5813  -20.8324   -9.5135 C   0  0  0  0  0  0  0  0  0  0  0  0
   25.6209  -20.2044   -8.7480 C   0  0  0  0  0  0  0  0  0  0  0  0
   26.1947  -19.7300   -7.6299 N   0  0  0  0  0  0  0  0  0  0  0  0
   27.5144  -20.0199   -7.6187 C   0  0  0  0  0  0  0  0  0  0  0  0
   28.5201  -19.7585   -6.7149 C   0  0  0  0  0  0  0  0  0  0  0  0
   29.7971  -20.1933   -6.9898 C   0  0  0  0  0  0  0  0  0  0  0  0
   30.0295  -20.8858   -8.1774 C   0  0  0  0  0  0  0  0  0  0  0  0
   29.0278  -21.1511   -9.0865 C   0  0  0  0  0  0  0  0  0  0  0  0
   27.7591  -20.7132   -8.8028 C   0  0  0  0  0  0  0  0  0  0  0  0
   25.9398  -21.1926  -13.2102 C   0  0  0  0  0  0  0  0  0  0  0  0
   24.8177  -21.6146  -13.6112 O   0  0  0  0  0  0  0  0  0  0  0  0
   30.7221  -22.2787  -17.3987 N   0  0  0  0  0  0  0  0  0  0  0  0
   29.5233  -22.6856  -18.0226 C   0  0  0  0  0  0  0  0  0  0  0  0
   29.5677  -23.0802  -19.2281 O   0  0  0  0  0  0  0  0  0  0  0  0
   28.2154  -22.6690  -17.3226 C   0  0  0  0  0  0  0  0  0  0  0  0
   28.3914  -22.0710  -15.9586 C   0  0  0  0  0  0  0  0  0  0  0  0
   27.0518  -21.9780  -15.2887 C   0  0  2  0  0  0  0  0  0  0  0  0
   27.1147  -21.3781  -13.9858 N   0  0  0  0  0  0  0  0  0  0  0  0
   26.3727  -23.3112  -15.2321 C   0  0  0  0  0  0  0  0  0  0  0  0
   26.3976  -24.0234  -14.1722 O   0  0  0  0  0  0  0  0  0  0  0  0
   20.2715  -23.9276  -15.0191 C   0  0  0  0  0  0  0  0  0  0  0  0
   21.2241  -25.1794  -14.0858 S   0  0  0  0  0  0  0  0  0  0  0  0
   22.6206  -25.6624  -15.1528 C   0  0  0  0  0  0  0  0  0  0  0  0
   23.6204  -24.5424  -15.2554 C   0  0  0  0  0  0  0  0  0  0  0  0
   24.7534  -24.9723  -16.1524 C   0  0  2  0  0  0  0  0  0  0  0  0
   25.6658  -23.8724  -16.3269 N   0  0  0  0  0  0  0  0  0  0  0  0
   24.2349  -25.3581  -17.4935 C   0  0  0  0  0  0  0  0  0  0  0  0
   23.6660  -26.4678  -17.6950 O   0  0  0  0  0  0  0  0  0  0  0  0
   24.3527  -24.5139  -18.5879 O   0  0  0  0  0  0  0  0  0  0  0  0
  2  1  1  1
  2 13  1  0
  2  3  1  0
  3  4  1  0
  4  5  2  0
  6  5  1  0
  7  6  1  0
  8  7  2  0
  9  8  1  0
 10  9  2  0
 10 11  1  0
 11 12  2  0
 12  7  1  0
 12  4  1  0
 13 21  1  0
 14 13  2  0
 16 15  1  0
 16 18  1  0
 17 16  2  0
 19 18  1  0
 20 19  1  1
 21 20  1  0
 22 20  1  0
 23 22  2  0
 25 26  1  0
 25 24  1  0
 26 27  1  0
 28 27  1  1
 28 30  1  0
 28 29  1  0
 29 22  1  0
 30 32  1  0
 31 30  2  0
M  END
$$$$
