WQM.pdb
     RDKit          3D

 32 33  0  0  1  0  0  0  0  0999 V2000
   26.4589  -22.3573  -14.5409 N   0  0  0  0  0  0  0  0  0  0  0  0
   25.5276  -21.2747  -14.3401 C   0  0  1  0  0  0  0  0  0  0  0  0
   26.2819  -20.1248  -13.7177 C   0  0  0  0  0  0  0  0  0  0  0  0
   26.7362  -20.4606  -12.3301 C   0  0  0  0  0  0  0  0  0  0  0  0
   28.0195  -20.7763  -11.9344 C   0  0  0  0  0  0  0  0  0  0  0  0
   28.0225  -21.0161  -10.6126 N   0  0  0  0  0  0  0  0  0  0  0  0
   26.7787  -20.8711  -10.1051 C   0  0  0  0  0  0  0  0  0  0  0  0
   26.2681  -21.0036   -8.8329 C   0  0  0  0  0  0  0  0  0  0  0  0
   24.9248  -20.7855   -8.6244 C   0  0  0  0  0  0  0  0  0  0  0  0
   24.1246  -20.4365   -9.7116 C   0  0  0  0  0  0  0  0  0  0  0  0
   24.6289  -20.3020  -10.9875 C   0  0  0  0  0  0  0  0  0  0  0  0
   25.9685  -20.5218  -11.1841 C   0  0  0  0  0  0  0  0  0  0  0  0
   24.9759  -20.8383  -15.6393 C   0  0  0  0  0  0  0  0  0  0  0  0
   25.3320  -21.4224  -16.7022 O   0  0  0  0  0  0  0  0  0  0  0  0
   20.5744  -21.0035  -19.1854 N   0  0  0  0  0  0  0  0  0  0  0  0
   20.4563  -21.1518  -17.7869 C   0  0  0  0  0  0  0  0  0  0  0  0
   19.3352  -21.4993  -17.3039 O   0  0  0  0  0  0  0  0  0  0  0  0
   21.5921  -20.9168  -16.8621 C   0  0  0  0  0  0  0  0  0  0  0  0
   22.7812  -20.4490  -17.6471 C   0  0  0  0  0  0  0  0  0  0  0  0
   23.4526  -19.3339  -16.9002 C   0  0  2  0  0  0  0  0  0  0  0  0
   24.0495  -19.7624  -15.6667 N   0  0  0  0  0  0  0  0  0  0  0  0
   22.5190  -18.1856  -16.6728 C   0  0  0  0  0  0  0  0  0  0  0  0
   21.8615  -18.0714  -15.5837 O   0  0  0  0  0  0  0  0  0  0  0  0
   26.3398  -15.6978  -14.3428 C   0  0  0  0  0  0  0  0  0  0  0  0
   26.7244  -15.0866  -16.0233 S   0  0  0  0  0  0  0  0  0  0  0  0
   25.1242  -14.8584  -16.8655 C   0  0  0  0  0  0  0  0  0  0  0  0
   24.3726  -16.1603  -16.9358 C   0  0  0  0  0  0  0  0  0  0  0  0
   23.0364  -15.9243  -17.5931 C   0  0  2  0  0  0  0  0  0  0  0  0
   22.2985  -17.1600  -17.6281 N   0  0  0  0  0  0  0  0  0  0  0  0
   23.2232  -15.4593  -18.9949 C   0  0  0  0  0  0  0  0  0  0  0  0
   23.2483  -14.2320  -19.2930 O   0  0  0  0  0  0  0  0  0  0  0  0
   23.3791  -16.3552  -20.0424 O   0  0  0  0  0  0  0  0  0  0  0  0
  2  1  1  6
  2 13  1  0
  2  3  1  0
  3  4  1  0
  4  5  2  0
  6  5  1  0
  7  6  1  0
  8  7  2  0
  9  8  1  0
 10  9  2  0
 10 11  1  0
 11 12  2  0
 12  7  1  0
 12  4  1  0
 13 21  1  0
 14 13  2  0
 16 15  1  0
 16 18  1  0
 17 16  2  0
 19 18  1  0
 20 19  1  1
 21 20  1  0
 22 20  1  0
 23 22  2  0
 25 26  1  0
 25 24  1  0
 26 27  1  0
 28 27  1  6
 28 30  1  0
 28 29  1  0
 29 22  1  0
 30 32  1  0
 31 30  2  0
M  END
$$$$
