WQM.pdb
     RDKit          3D

 32 33  0  0  1  0  0  0  0  0999 V2000
   27.2499  -19.0810  -11.4794 N   0  0  0  0  0  0  0  0  0  0  0  0
   26.9506  -20.4603  -11.7755 C   0  0  1  0  0  0  0  0  0  0  0  0
   26.0744  -20.9919  -10.6672 C   0  0  0  0  0  0  0  0  0  0  0  0
   26.6254  -20.6351   -9.3205 C   0  0  0  0  0  0  0  0  0  0  0  0
   25.9995  -19.8906   -8.3423 C   0  0  0  0  0  0  0  0  0  0  0  0
   26.8167  -19.7886   -7.2810 N   0  0  0  0  0  0  0  0  0  0  0  0
   27.9756  -20.4427   -7.5147 C   0  0  0  0  0  0  0  0  0  0  0  0
   29.1105  -20.6308   -6.7576 C   0  0  0  0  0  0  0  0  0  0  0  0
   30.1516  -21.3632   -7.2823 C   0  0  0  0  0  0  0  0  0  0  0  0
   30.0211  -21.8913   -8.5661 C   0  0  0  0  0  0  0  0  0  0  0  0
   28.8881  -21.7071   -9.3294 C   0  0  0  0  0  0  0  0  0  0  0  0
   27.8568  -20.9756   -8.7971 C   0  0  0  0  0  0  0  0  0  0  0  0
   26.2149  -20.5522  -13.0535 C   0  0  0  0  0  0  0  0  0  0  0  0
   25.4669  -19.6009  -13.4187 O   0  0  0  0  0  0  0  0  0  0  0  0
   26.5617  -20.5325  -18.0329 N   0  0  0  0  0  0  0  0  0  0  0  0
   27.7738  -20.7362  -17.3394 C   0  0  0  0  0  0  0  0  0  0  0  0
   28.7640  -19.9904  -17.6117 O   0  0  0  0  0  0  0  0  0  0  0  0
   27.9331  -21.7884  -16.3058 C   0  0  0  0  0  0  0  0  0  0  0  0
   26.6376  -22.5270  -16.1472 C   0  0  0  0  0  0  0  0  0  0  0  0
   25.7764  -21.7973  -15.1584 C   0  0  2  0  0  0  0  0  0  0  0  0
   26.3647  -21.7174  -13.8511 N   0  0  0  0  0  0  0  0  0  0  0  0
   24.4003  -22.3837  -15.0913 C   0  0  0  0  0  0  0  0  0  0  0  0
   24.2043  -23.5659  -14.6494 O   0  0  0  0  0  0  0  0  0  0  0  0
   19.8885  -19.2130  -12.7722 C   0  0  0  0  0  0  0  0  0  0  0  0
   18.7767  -20.6083  -13.1754 S   0  0  0  0  0  0  0  0  0  0  0  0
   19.7484  -21.7590  -14.2018 C   0  0  0  0  0  0  0  0  0  0  0  0
   21.1455  -21.2375  -14.4038 C   0  0  0  0  0  0  0  0  0  0  0  0
   21.9165  -22.2095  -15.2605 C   0  0  2  0  0  0  0  0  0  0  0  0
   23.2355  -21.6866  -15.5042 N   0  0  0  0  0  0  0  0  0  0  0  0
   21.2420  -22.3897  -16.5754 C   0  0  0  0  0  0  0  0  0  0  0  0
   21.5898  -21.7359  -17.5987 O   0  0  0  0  0  0  0  0  0  0  0  0
   20.1970  -23.2873  -16.7383 O   0  0  0  0  0  0  0  0  0  0  0  0
  2  1  1  1
  2 13  1  0
  2  3  1  0
  3  4  1  0
  4  5  2  0
  6  5  1  0
  7  6  1  0
  8  7  2  0
  9  8  1  0
 10  9  2  0
 10 11  1  0
 11 12  2  0
 12  7  1  0
 12  4  1  0
 13 21  1  0
 14 13  2  0
 16 15  1  0
 16 18  1  0
 17 16  2  0
 19 18  1  0
 20 19  1  6
 21 20  1  0
 22 20  1  0
 23 22  2  0
 25 26  1  0
 25 24  1  0
 26 27  1  0
 28 27  1  1
 28 30  1  0
 28 29  1  0
 29 22  1  0
 30 32  1  0
 31 30  2  0
M  END
$$$$
