THT.pdb
     RDKit          3D

 25 25  0  0  1  0  0  0  0  0999 V2000
   44.6978  -10.6610   -8.9146 C   0  0  0  0  0  0  0  0  0  0  0  0
   44.2691  -10.7909   -7.4834 C   0  0  1  0  0  0  0  0  0  0  0  0
   45.3366  -11.1464   -6.6638 O   0  0  0  0  0  0  0  0  0  0  0  0
   43.6438   -9.5385   -6.9414 C   0  0  2  0  0  0  0  0  0  0  0  0
   43.3546   -9.5847   -5.5433 N   0  0  0  0  0  0  0  0  0  0  0  0
   42.4316   -9.2152   -7.7549 C   0  0  0  0  0  0  0  0  0  0  0  0
   42.3901   -9.3567   -9.0028 O   0  0  0  0  0  0  0  0  0  0  0  0
   41.2787   -8.7316   -7.1194 N   0  0  0  0  0  0  0  0  0  0  0  0
   40.0181   -8.5767   -7.8925 C   0  0  1  0  0  0  0  0  0  0  0  0
   38.8932   -8.9812   -7.0144 C   0  0  0  0  0  0  0  0  0  0  0  0
   38.4683  -10.3686   -6.9868 C   0  0  0  0  0  0  0  0  0  0  0  0
   38.9388  -11.3982   -7.8266 C   0  0  0  0  0  0  0  0  0  0  0  0
   38.3261  -12.5417   -7.5157 N   0  0  0  0  0  0  0  0  0  0  0  0
   37.4834  -12.2743   -6.5084 C   0  0  0  0  0  0  0  0  0  0  0  0
   37.5856  -10.9735   -6.2106 N   0  0  0  0  0  0  0  0  0  0  0  0
   39.9622   -7.1098   -8.1368 C   0  0  0  0  0  0  0  0  0  0  0  0
   39.9853   -6.3591   -7.0796 O   0  0  0  0  0  0  0  0  0  0  0  0
   42.1559   -4.9122  -10.1786 C   0  0  0  0  0  0  0  0  0  0  0  0
   40.7444   -4.5756  -10.5488 C   0  0  1  0  0  0  0  0  0  0  0  0
   40.4242   -5.3130  -11.7113 O   0  0  0  0  0  0  0  0  0  0  0  0
   39.8035   -5.0007   -9.4332 C   0  0  2  0  0  0  0  0  0  0  0  0
   39.8945   -6.4668   -9.3718 N   0  0  0  0  0  0  0  0  0  0  0  0
   38.4145   -4.5850   -9.6981 C   0  0  0  0  0  0  0  0  0  0  0  0
   37.4391   -5.5020   -9.9782 O   0  0  0  0  0  0  0  0  0  0  0  0
   38.1141   -3.3640   -9.6674 O   0  0  0  0  0  0  0  0  0  0  0  0
  2  1  1  6
  3  2  1  0
  4  2  1  0
  4  5  1  1
  4  6  1  0
  6  7  2  0
  8  6  1  0
  8  9  1  0
  9 16  1  0
 10 11  1  0
  9 10  1  1
 11 15  1  0
 12 11  2  0
 12 13  1  0
 13 14  1  0
 15 14  2  0
 16 17  2  0
 19 18  1  1
 19 21  1  0
 20 19  1  0
 21 23  1  0
 22 16  1  0
 21 22  1  6
 23 25  2  0
 23 24  1  0
M  END
$$$$
