THT.pdb
     RDKit          3D

 25 25  0  0  1  0  0  0  0  0999 V2000
   21.7493  -22.8268  -14.0377 C   0  0  0  0  0  0  0  0  0  0  0  0
   20.7939  -21.6735  -13.9608 C   0  0  1  0  0  0  0  0  0  0  0  0
   19.4728  -22.1102  -13.9231 O   0  0  0  0  0  0  0  0  0  0  0  0
   21.0400  -20.7848  -12.7763 C   0  0  2  0  0  0  0  0  0  0  0  0
   20.0665  -19.7537  -12.6041 N   0  0  0  0  0  0  0  0  0  0  0  0
   22.4283  -20.2366  -12.8664 C   0  0  0  0  0  0  0  0  0  0  0  0
   22.6916  -19.1322  -13.4048 O   0  0  0  0  0  0  0  0  0  0  0  0
   23.4991  -20.9691  -12.3339 N   0  0  0  0  0  0  0  0  0  0  0  0
   24.8834  -20.4368  -12.4384 C   0  0  1  0  0  0  0  0  0  0  0  0
   25.7104  -21.1149  -11.4104 C   0  0  0  0  0  0  0  0  0  0  0  0
   27.1496  -20.9284  -11.4108 C   0  0  0  0  0  0  0  0  0  0  0  0
   27.8877  -20.1623  -12.3355 C   0  0  0  0  0  0  0  0  0  0  0  0
   29.1842  -20.2181  -12.0262 N   0  0  0  0  0  0  0  0  0  0  0  0
   29.2951  -20.9925  -10.9379 C   0  0  0  0  0  0  0  0  0  0  0  0
   28.0701  -21.4040  -10.5897 N   0  0  0  0  0  0  0  0  0  0  0  0
   25.3037  -20.8821  -13.7948 C   0  0  0  0  0  0  0  0  0  0  0  0
   25.1333  -22.1411  -14.0548 O   0  0  0  0  0  0  0  0  0  0  0  0
   24.1411  -20.2368  -17.1895 C   0  0  0  0  0  0  0  0  0  0  0  0
   25.6050  -19.9216  -17.1708 C   0  0  1  0  0  0  0  0  0  0  0  0
   25.7378  -18.5435  -16.8866 O   0  0  0  0  0  0  0  0  0  0  0  0
   26.2881  -20.7103  -16.0653 C   0  0  2  0  0  0  0  0  0  0  0  0
   25.8499  -20.0924  -14.8053 N   0  0  0  0  0  0  0  0  0  0  0  0
   27.7566  -20.6554  -16.1786 C   0  0  0  0  0  0  0  0  0  0  0  0
   28.4245  -21.3846  -17.1235 O   0  0  0  0  0  0  0  0  0  0  0  0
   28.4140  -19.9252  -15.3933 O   0  0  0  0  0  0  0  0  0  0  0  0
  2  1  1  1
  3  2  1  0
  4  2  1  0
  4  5  1  6
  4  6  1  0
  6  7  2  0
  8  6  1  0
  8  9  1  0
  9 16  1  0
 10 11  1  0
  9 10  1  1
 11 15  1  0
 12 11  2  0
 12 13  1  0
 13 14  1  0
 15 14  2  0
 16 17  2  0
 19 18  1  1
 19 21  1  0
 20 19  1  0
 21 23  1  0
 22 16  1  0
 21 22  1  1
 23 25  2  0
 23 24  1  0
M  END
$$$$
