THT.pdb
     RDKit          3D

 25 25  0  0  1  0  0  0  0  0999 V2000
   21.4474  -10.3011  -21.5745 C   0  0  0  0  0  0  0  0  0  0  0  0
   22.1777  -11.0987  -20.5355 C   0  0  1  0  0  0  0  0  0  0  0  0
   23.0829  -11.9820  -21.1170 O   0  0  0  0  0  0  0  0  0  0  0  0
   22.9115  -10.2418  -19.5453 C   0  0  2  0  0  0  0  0  0  0  0  0
   23.9484  -10.9216  -18.8360 N   0  0  0  0  0  0  0  0  0  0  0  0
   21.9167   -9.6154  -18.6212 C   0  0  0  0  0  0  0  0  0  0  0  0
   20.8655   -9.0591  -19.0265 O   0  0  0  0  0  0  0  0  0  0  0  0
   22.1456   -9.6376  -17.2377 N   0  0  0  0  0  0  0  0  0  0  0  0
   21.1555   -9.0227  -16.3145 C   0  0  1  0  0  0  0  0  0  0  0  0
   20.8290  -10.0210  -15.2670 C   0  0  0  0  0  0  0  0  0  0  0  0
   19.6728  -10.8822  -15.4330 C   0  0  0  0  0  0  0  0  0  0  0  0
   18.7522  -10.8404  -16.4996 C   0  0  0  0  0  0  0  0  0  0  0  0
   17.8206  -11.7784  -16.3210 N   0  0  0  0  0  0  0  0  0  0  0  0
   18.1173  -12.4141  -15.1790 C   0  0  0  0  0  0  0  0  0  0  0  0
   19.2246  -11.8628  -14.6680 N   0  0  0  0  0  0  0  0  0  0  0  0
   21.9225   -7.8975  -15.7143 C   0  0  0  0  0  0  0  0  0  0  0  0
   23.1556   -8.1546  -15.4058 O   0  0  0  0  0  0  0  0  0  0  0  0
   22.7621   -4.6028  -17.0489 C   0  0  0  0  0  0  0  0  0  0  0  0
   22.2147   -4.3576  -15.6767 C   0  0  1  0  0  0  0  0  0  0  0  0
   20.8412   -4.0550  -15.8166 O   0  0  0  0  0  0  0  0  0  0  0  0
   22.3482   -5.6169  -14.8358 C   0  0  2  0  0  0  0  0  0  0  0  0
   21.4585   -6.6082  -15.4582 N   0  0  0  0  0  0  0  0  0  0  0  0
   21.9553   -5.3855  -13.4342 C   0  0  0  0  0  0  0  0  0  0  0  0
   20.8790   -6.0245  -12.8828 O   0  0  0  0  0  0  0  0  0  0  0  0
   22.6192   -4.5855  -12.7262 O   0  0  0  0  0  0  0  0  0  0  0  0
  2  1  1  6
  3  2  1  0
  4  2  1  0
  4  5  1  1
  4  6  1  0
  6  7  2  0
  8  6  1  0
  8  9  1  0
  9 16  1  0
 10 11  1  0
  9 10  1  1
 11 15  1  0
 12 11  2  0
 12 13  1  0
 13 14  1  0
 15 14  2  0
 16 17  2  0
 19 18  1  6
 19 21  1  0
 20 19  1  0
 21 23  1  0
 22 16  1  0
 21 22  1  6
 23 25  2  0
 23 24  1  0
M  END
$$$$
