THT.pdb
     RDKit          3D

 25 25  0  0  1  0  0  0  0  0999 V2000
   23.6841  -11.2152  -15.2405 C   0  0  0  0  0  0  0  0  0  0  0  0
   23.0948  -12.2567  -16.1444 C   0  0  1  0  0  0  0  0  0  0  0  0
   23.6294  -13.5155  -15.8849 O   0  0  0  0  0  0  0  0  0  0  0  0
   21.5992  -12.3408  -16.0473 C   0  0  2  0  0  0  0  0  0  0  0  0
   21.0251  -13.4335  -16.7662 N   0  0  0  0  0  0  0  0  0  0  0  0
   21.0158  -11.0279  -16.4617 C   0  0  0  0  0  0  0  0  0  0  0  0
   20.5876  -10.8079  -17.6224 O   0  0  0  0  0  0  0  0  0  0  0  0
   20.9323   -9.9816  -15.5316 N   0  0  0  0  0  0  0  0  0  0  0  0
   20.2463   -8.7156  -15.9024 C   0  0  1  0  0  0  0  0  0  0  0  0
   18.8776   -8.7558  -15.3320 C   0  0  0  0  0  0  0  0  0  0  0  0
   18.0312   -7.5799  -15.4160 C   0  0  0  0  0  0  0  0  0  0  0  0
   18.3820   -6.3437  -15.9952 C   0  0  0  0  0  0  0  0  0  0  0  0
   17.3566   -5.4965  -15.8920 N   0  0  0  0  0  0  0  0  0  0  0  0
   16.3677   -6.1512  -15.2679 C   0  0  0  0  0  0  0  0  0  0  0  0
   16.7928   -7.3904  -14.9942 N   0  0  0  0  0  0  0  0  0  0  0  0
   21.0552   -7.6859  -15.1952 C   0  0  0  0  0  0  0  0  0  0  0  0
   21.4959   -8.0202  -14.0223 O   0  0  0  0  0  0  0  0  0  0  0  0
   24.1774   -6.1542  -16.2921 C   0  0  0  0  0  0  0  0  0  0  0  0
   23.3176   -5.0226  -15.8202 C   0  0  1  0  0  0  0  0  0  0  0  0
   22.6677   -4.4834  -16.9536 O   0  0  0  0  0  0  0  0  0  0  0  0
   22.2605   -5.5438  -14.8601 C   0  0  2  0  0  0  0  0  0  0  0  0
   21.3890   -6.4153  -15.6616 N   0  0  0  0  0  0  0  0  0  0  0  0
   21.4769   -4.4494  -14.2595 C   0  0  0  0  0  0  0  0  0  0  0  0
   22.0309   -3.5981  -13.3435 O   0  0  0  0  0  0  0  0  0  0  0  0
   20.2743   -4.2904  -14.5920 O   0  0  0  0  0  0  0  0  0  0  0  0
  2  1  1  1
  3  2  1  0
  4  2  1  0
  4  5  1  6
  4  6  1  0
  6  7  2  0
  8  6  1  0
  8  9  1  0
  9 16  1  0
 10 11  1  0
  9 10  1  1
 11 15  1  0
 12 11  2  0
 12 13  1  0
 13 14  1  0
 15 14  2  0
 16 17  2  0
 19 18  1  6
 19 21  1  0
 20 19  1  0
 21 23  1  0
 22 16  1  0
 21 22  1  6
 23 25  2  0
 23 24  1  0
M  END
$$$$
