THT.pdb
     RDKit          3D

 25 25  0  0  1  0  0  0  0  0999 V2000
   19.0002   -9.9424  -19.1531 C   0  0  0  0  0  0  0  0  0  0  0  0
   18.9012  -11.4189  -18.9104 C   0  0  1  0  0  0  0  0  0  0  0  0
   18.3708  -12.0805  -20.0142 O   0  0  0  0  0  0  0  0  0  0  0  0
   20.2194  -12.0467  -18.5618 C   0  0  2  0  0  0  0  0  0  0  0  0
   20.1710  -13.4661  -18.4085 N   0  0  0  0  0  0  0  0  0  0  0  0
   20.7685  -11.3694  -17.3470 C   0  0  0  0  0  0  0  0  0  0  0  0
   20.4752  -11.7236  -16.1776 O   0  0  0  0  0  0  0  0  0  0  0  0
   21.6511  -10.2896  -17.4944 N   0  0  0  0  0  0  0  0  0  0  0  0
   22.2212   -9.6309  -16.2895 C   0  0  1  0  0  0  0  0  0  0  0  0
   23.6990   -9.7245  -16.3761 C   0  0  0  0  0  0  0  0  0  0  0  0
   24.3560  -10.9844  -16.0814 C   0  0  0  0  0  0  0  0  0  0  0  0
   23.7230  -12.1754  -15.6718 C   0  0  0  0  0  0  0  0  0  0  0  0
   24.6394  -13.1284  -15.4933 N   0  0  0  0  0  0  0  0  0  0  0  0
   25.8315  -12.5844  -15.7751 C   0  0  0  0  0  0  0  0  0  0  0  0
   25.6375  -11.3067  -16.1230 N   0  0  0  0  0  0  0  0  0  0  0  0
   21.7968   -8.2146  -16.4592 C   0  0  0  0  0  0  0  0  0  0  0  0
   22.0844   -7.6709  -17.6008 O   0  0  0  0  0  0  0  0  0  0  0  0
   18.6400   -6.9178  -16.8640 C   0  0  0  0  0  0  0  0  0  0  0  0
   19.2138   -6.0240  -15.8082 C   0  0  1  0  0  0  0  0  0  0  0  0
   18.8148   -6.5397  -14.5542 O   0  0  0  0  0  0  0  0  0  0  0  0
   20.7320   -6.0502  -15.8799 C   0  0  2  0  0  0  0  0  0  0  0  0
   21.1241   -7.4232  -15.5295 N   0  0  0  0  0  0  0  0  0  0  0  0
   21.3425   -5.0891  -14.9440 C   0  0  0  0  0  0  0  0  0  0  0  0
   21.2579   -3.7403  -15.1544 O   0  0  0  0  0  0  0  0  0  0  0  0
   21.9548   -5.5119  -13.9298 O   0  0  0  0  0  0  0  0  0  0  0  0
  2  1  1  6
  3  2  1  0
  4  2  1  0
  4  5  1  1
  4  6  1  0
  6  7  2  0
  8  6  1  0
  8  9  1  0
  9 16  1  0
 10 11  1  0
  9 10  1  6
 11 15  1  0
 12 11  2  0
 12 13  1  0
 13 14  1  0
 15 14  2  0
 16 17  2  0
 19 18  1  6
 19 21  1  0
 20 19  1  0
 21 23  1  0
 22 16  1  0
 21 22  1  1
 23 25  2  0
 23 24  1  0
M  END
$$$$
