THT.pdb
     RDKit          3D

 25 25  0  0  1  0  0  0  0  0999 V2000
   22.2646  -10.2139  -19.7567 C   0  0  0  0  0  0  0  0  0  0  0  0
   22.0979  -11.6064  -19.2255 C   0  0  1  0  0  0  0  0  0  0  0  0
   23.0163  -12.4817  -19.7982 O   0  0  0  0  0  0  0  0  0  0  0  0
   22.2267  -11.6847  -17.7320 C   0  0  2  0  0  0  0  0  0  0  0  0
   22.2040  -13.0143  -17.2101 N   0  0  0  0  0  0  0  0  0  0  0  0
   21.1752  -10.8207  -17.1126 C   0  0  0  0  0  0  0  0  0  0  0  0
   19.9607  -11.1414  -17.0806 O   0  0  0  0  0  0  0  0  0  0  0  0
   21.5364   -9.5943  -16.5360 N   0  0  0  0  0  0  0  0  0  0  0  0
   20.4829   -8.6821  -16.0179 C   0  0  1  0  0  0  0  0  0  0  0  0
   19.9116   -9.2953  -14.7940 C   0  0  0  0  0  0  0  0  0  0  0  0
   20.7546   -9.4892  -13.6288 C   0  0  0  0  0  0  0  0  0  0  0  0
   22.0297  -10.0897  -13.6168 C   0  0  0  0  0  0  0  0  0  0  0  0
   22.5074  -10.0962  -12.3711 N   0  0  0  0  0  0  0  0  0  0  0  0
   21.5807   -9.5211  -11.5923 C   0  0  0  0  0  0  0  0  0  0  0  0
   20.5456   -9.1677  -12.3636 N   0  0  0  0  0  0  0  0  0  0  0  0
   21.2552   -7.4628  -15.6550 C   0  0  0  0  0  0  0  0  0  0  0  0
   22.5326   -7.6270  -15.5027 O   0  0  0  0  0  0  0  0  0  0  0  0
   19.6660   -3.6250  -15.4891 C   0  0  0  0  0  0  0  0  0  0  0  0
   21.0423   -3.8747  -16.0240 C   0  0  1  0  0  0  0  0  0  0  0  0
   21.8118   -2.7166  -15.7703 O   0  0  0  0  0  0  0  0  0  0  0  0
   21.6760   -5.0455  -15.2901 C   0  0  2  0  0  0  0  0  0  0  0  0
   20.7531   -6.1756  -15.4701 N   0  0  0  0  0  0  0  0  0  0  0  0
   21.8609   -4.7593  -13.8561 C   0  0  0  0  0  0  0  0  0  0  0  0
   22.9042   -3.9940  -13.4127 O   0  0  0  0  0  0  0  0  0  0  0  0
   21.0463   -5.2256  -13.0188 O   0  0  0  0  0  0  0  0  0  0  0  0
  2  1  1  6
  3  2  1  0
  4  2  1  0
  4  5  1  1
  4  6  1  0
  6  7  2  0
  8  6  1  0
  8  9  1  0
  9 16  1  0
 10 11  1  0
  9 10  1  1
 11 15  1  0
 12 11  2  0
 12 13  1  0
 13 14  1  0
 15 14  2  0
 16 17  2  0
 19 18  1  1
 19 21  1  0
 20 19  1  0
 21 23  1  0
 22 16  1  0
 21 22  1  1
 23 25  2  0
 23 24  1  0
M  END
$$$$
