THT.pdb
     RDKit          3D

 25 25  0  0  1  0  0  0  0  0999 V2000
   24.4386  -19.8069   -9.8719 C   0  0  0  0  0  0  0  0  0  0  0  0
   25.9154  -20.0655   -9.9025 C   0  0  1  0  0  0  0  0  0  0  0  0
   26.4541  -20.0857   -8.6192 O   0  0  0  0  0  0  0  0  0  0  0  0
   26.2729  -21.3491  -10.5937 C   0  0  2  0  0  0  0  0  0  0  0  0
   27.6637  -21.6720  -10.5490 N   0  0  0  0  0  0  0  0  0  0  0  0
   25.7525  -21.3021  -11.9947 C   0  0  0  0  0  0  0  0  0  0  0  0
   26.5041  -21.2349  -12.9995 O   0  0  0  0  0  0  0  0  0  0  0  0
   24.3689  -21.3332  -12.2220 N   0  0  0  0  0  0  0  0  0  0  0  0
   23.8491  -21.3731  -13.6145 C   0  0  1  0  0  0  0  0  0  0  0  0
   22.4109  -21.7308  -13.5532 C   0  0  0  0  0  0  0  0  0  0  0  0
   21.6395  -21.8123  -14.7797 C   0  0  0  0  0  0  0  0  0  0  0  0
   22.0747  -21.4212  -16.0621 C   0  0  0  0  0  0  0  0  0  0  0  0
   21.1020  -21.6400  -16.9486 N   0  0  0  0  0  0  0  0  0  0  0  0
   20.0650  -22.1560  -16.2743 C   0  0  0  0  0  0  0  0  0  0  0  0
   20.4087  -22.2493  -14.9841 N   0  0  0  0  0  0  0  0  0  0  0  0
   23.9969  -19.9607  -14.0595 C   0  0  0  0  0  0  0  0  0  0  0  0
   23.5173  -19.0618  -13.2572 O   0  0  0  0  0  0  0  0  0  0  0  0
   26.9091  -17.8166  -14.6098 C   0  0  0  0  0  0  0  0  0  0  0  0
   26.0850  -17.7549  -15.8587 C   0  0  1  0  0  0  0  0  0  0  0  0
   26.5748  -18.7468  -16.7386 O   0  0  0  0  0  0  0  0  0  0  0  0
   24.6338  -18.0710  -15.5350 C   0  0  2  0  0  0  0  0  0  0  0  0
   24.5965  -19.5096  -15.2343 N   0  0  0  0  0  0  0  0  0  0  0  0
   23.7392  -17.7610  -16.6645 C   0  0  0  0  0  0  0  0  0  0  0  0
   23.5056  -16.4705  -17.0530 O   0  0  0  0  0  0  0  0  0  0  0  0
   23.1765  -18.6977  -17.2875 O   0  0  0  0  0  0  0  0  0  0  0  0
  2  1  1  1
  3  2  1  0
  4  2  1  0
  4  5  1  6
  4  6  1  0
  6  7  2  0
  8  6  1  0
  8  9  1  0
  9 16  1  0
 10 11  1  0
  9 10  1  1
 11 15  1  0
 12 11  2  0
 12 13  1  0
 13 14  1  0
 15 14  2  0
 16 17  2  0
 19 18  1  1
 19 21  1  0
 20 19  1  0
 21 23  1  0
 22 16  1  0
 21 22  1  6
 23 25  2  0
 23 24  1  0
M  END
$$$$
