THT.pdb
     RDKit          3D

 25 25  0  0  1  0  0  0  0  0999 V2000
   24.6660   -8.7494  -19.2443 C   0  0  0  0  0  0  0  0  0  0  0  0
   24.0341   -9.9869  -19.8083 C   0  0  1  0  0  0  0  0  0  0  0  0
   24.9689  -10.7781  -20.4699 O   0  0  0  0  0  0  0  0  0  0  0  0
   23.3481  -10.8230  -18.7672 C   0  0  2  0  0  0  0  0  0  0  0  0
   22.8661  -12.0790  -19.2475 N   0  0  0  0  0  0  0  0  0  0  0  0
   22.2638  -10.0101  -18.1353 C   0  0  0  0  0  0  0  0  0  0  0  0
   21.2515   -9.6154  -18.7666 O   0  0  0  0  0  0  0  0  0  0  0  0
   22.3588   -9.6608  -16.7804 N   0  0  0  0  0  0  0  0  0  0  0  0
   21.3055   -8.8149  -16.1593 C   0  0  1  0  0  0  0  0  0  0  0  0
   20.7063   -9.5828  -15.0406 C   0  0  0  0  0  0  0  0  0  0  0  0
   19.5833  -10.4654  -15.2974 C   0  0  0  0  0  0  0  0  0  0  0  0
   18.9657  -10.6820  -16.5457 C   0  0  0  0  0  0  0  0  0  0  0  0
   17.9684  -11.5566  -16.4036 N   0  0  0  0  0  0  0  0  0  0  0  0
   17.9312  -11.9027  -15.1093 C   0  0  0  0  0  0  0  0  0  0  0  0
   18.9026  -11.2400  -14.4702 N   0  0  0  0  0  0  0  0  0  0  0  0
   22.0837   -7.6667  -15.6203 C   0  0  0  0  0  0  0  0  0  0  0  0
   23.2090   -7.9646  -15.0487 O   0  0  0  0  0  0  0  0  0  0  0  0
   23.8604   -4.9760  -17.1357 C   0  0  0  0  0  0  0  0  0  0  0  0
   22.9521   -4.3229  -16.1402 C   0  0  1  0  0  0  0  0  0  0  0  0
   21.7660   -3.9649  -16.8205 O   0  0  0  0  0  0  0  0  0  0  0  0
   22.5981   -5.3103  -15.0400 C   0  0  2  0  0  0  0  0  0  0  0  0
   21.7340   -6.3182  -15.6715 N   0  0  0  0  0  0  0  0  0  0  0  0
   21.8912   -4.6578  -13.9233 C   0  0  0  0  0  0  0  0  0  0  0  0
   20.5859   -4.9516  -13.6396 O   0  0  0  0  0  0  0  0  0  0  0  0
   22.4953   -3.8131  -13.2136 O   0  0  0  0  0  0  0  0  0  0  0  0
  2  1  1  1
  3  2  1  0
  4  2  1  0
  4  5  1  6
  4  6  1  0
  6  7  2  0
  8  6  1  0
  8  9  1  0
  9 16  1  0
 10 11  1  0
  9 10  1  1
 11 15  1  0
 12 11  2  0
 12 13  1  0
 13 14  1  0
 15 14  2  0
 16 17  2  0
 19 18  1  6
 19 21  1  0
 20 19  1  0
 21 23  1  0
 22 16  1  0
 21 22  1  6
 23 25  2  0
 23 24  1  0
M  END
$$$$
