THT.pdb
     RDKit          3D

 25 25  0  0  1  0  0  0  0  0999 V2000
   22.2811   -9.6652  -19.5257 C   0  0  0  0  0  0  0  0  0  0  0  0
   21.7418  -11.0626  -19.5990 C   0  0  1  0  0  0  0  0  0  0  0  0
   22.5534  -11.8797  -20.3809 O   0  0  0  0  0  0  0  0  0  0  0  0
   21.5760  -11.6999  -18.2501 C   0  0  2  0  0  0  0  0  0  0  0  0
   21.1263  -13.0551  -18.2927 N   0  0  0  0  0  0  0  0  0  0  0  0
   20.6819  -10.8378  -17.4175 C   0  0  0  0  0  0  0  0  0  0  0  0
   19.4488  -11.0484  -17.2990 O   0  0  0  0  0  0  0  0  0  0  0  0
   21.2204   -9.7407  -16.7297 N   0  0  0  0  0  0  0  0  0  0  0  0
   20.3527   -8.9313  -15.8337 C   0  0  1  0  0  0  0  0  0  0  0  0
   19.8964   -9.8086  -14.7281 C   0  0  0  0  0  0  0  0  0  0  0  0
   19.0900   -9.2520  -13.6575 C   0  0  0  0  0  0  0  0  0  0  0  0
   18.6392   -7.9197  -13.5638 C   0  0  0  0  0  0  0  0  0  0  0  0
   17.9247   -7.7687  -12.4474 N   0  0  0  0  0  0  0  0  0  0  0  0
   17.9061   -8.9577  -11.8292 C   0  0  0  0  0  0  0  0  0  0  0  0
   18.6069   -9.8256  -12.5689 N   0  0  0  0  0  0  0  0  0  0  0  0
   21.2934   -7.9061  -15.3058 C   0  0  0  0  0  0  0  0  0  0  0  0
   22.3624   -8.3622  -14.7305 O   0  0  0  0  0  0  0  0  0  0  0  0
   23.5524   -5.8578  -16.8069 C   0  0  0  0  0  0  0  0  0  0  0  0
   22.8014   -4.8989  -15.9355 C   0  0  1  0  0  0  0  0  0  0  0  0
   21.7715   -4.3316  -16.7198 O   0  0  0  0  0  0  0  0  0  0  0  0
   22.1673   -5.6462  -14.7736 C   0  0  2  0  0  0  0  0  0  0  0  0
   21.1480   -6.5212  -15.3710 N   0  0  0  0  0  0  0  0  0  0  0  0
   21.5472   -4.7271  -13.8025 C   0  0  0  0  0  0  0  0  0  0  0  0
   20.1889   -4.6561  -13.6582 O   0  0  0  0  0  0  0  0  0  0  0  0
   22.2764   -3.9909  -13.0897 O   0  0  0  0  0  0  0  0  0  0  0  0
  2  1  1  1
  3  2  1  0
  4  2  1  0
  4  5  1  6
  4  6  1  0
  6  7  2  0
  8  6  1  0
  8  9  1  0
  9 16  1  0
 10 11  1  0
  9 10  1  1
 11 15  1  0
 12 11  2  0
 12 13  1  0
 13 14  1  0
 15 14  2  0
 16 17  2  0
 19 18  1  6
 19 21  1  0
 20 19  1  0
 21 23  1  0
 22 16  1  0
 21 22  1  6
 23 25  2  0
 23 24  1  0
M  END
$$$$
