MGP.pdb
     RDKit          3D

 20 20  0  0  1  0  0  0  0  0999 V2000
   33.0850   -8.8357   -9.8399 C   0  0  0  0  0  0  0  0  0  0  0  0
   32.9122   -7.8643  -11.3676 S   0  0  0  0  0  0  0  0  0  0  0  0
   33.9432   -8.6004  -12.6575 C   0  0  0  0  0  0  0  0  0  0  0  0
   33.8872   -7.8135  -13.9296 C   0  0  0  0  0  0  0  0  0  0  0  0
   34.7091   -8.4935  -15.0130 C   0  0  2  0  0  0  0  0  0  0  0  0
   36.0824   -8.4714  -14.6130 N   0  0  0  0  0  0  0  0  0  0  0  0
   34.4805   -7.8046  -16.3132 C   0  0  0  0  0  0  0  0  0  0  0  0
   35.2918   -6.9411  -16.7336 O   0  0  0  0  0  0  0  0  0  0  0  0
   33.3580   -8.0778  -17.1330 N   0  0  0  0  0  0  0  0  0  0  0  0
   33.1698   -7.3770  -18.4222 C   0  0  0  0  0  0  0  0  0  0  0  0
   32.4620   -6.1138  -18.1662 C   0  0  0  0  0  0  0  0  0  0  0  0
   31.8502   -5.9681  -17.0316 O   0  0  0  0  0  0  0  0  0  0  0  0
   32.3912   -5.0383  -19.0673 N   0  0  0  0  0  0  0  0  0  0  0  0
   33.2325   -4.9403  -20.2423 C   0  0  0  0  0  0  0  0  0  0  0  0
   32.3801   -4.2217  -21.2376 C   0  0  0  0  0  0  0  0  0  0  0  0
   31.1762   -3.7144  -20.5040 C   0  0  0  0  0  0  0  0  0  0  0  0
   31.5757   -3.8906  -19.0236 C   0  0  1  0  0  0  0  0  0  0  0  0
   30.3286   -3.9828  -18.2178 C   0  0  0  0  0  0  0  0  0  0  0  0
   29.9125   -3.0415  -17.4928 O   0  0  0  0  0  0  0  0  0  0  0  0
   29.5880   -5.1478  -18.2593 O   0  0  0  0  0  0  0  0  0  0  0  0
  2  1  1  0
  3  2  1  0
  4  5  1  0
  4  3  1  0
  5  6  1  1
  7  8  2  0
  7  5  1  0
  9  7  1  0
 10  9  1  0
 10 11  1  0
 11 13  1  0
 12 11  2  0
 13 14  1  0
 13 17  1  0
 14 15  1  0
 15 16  1  0
 17 18  1  1
 17 16  1  0
 18 20  1  0
 19 18  2  0
M  END
$$$$
