MGP.pdb
     RDKit          3D

 20 20  0  0  1  0  0  0  0  0999 V2000
   16.3279  -22.0269  -14.2942 C   0  0  0  0  0  0  0  0  0  0  0  0
   17.5903  -21.8341  -12.9992 S   0  0  0  0  0  0  0  0  0  0  0  0
   19.1543  -22.5227  -13.5894 C   0  0  0  0  0  0  0  0  0  0  0  0
   20.2690  -22.2790  -12.6206 C   0  0  0  0  0  0  0  0  0  0  0  0
   21.1182  -21.1011  -13.0711 C   0  0  2  0  0  0  0  0  0  0  0  0
   21.3134  -21.2049  -14.4845 N   0  0  0  0  0  0  0  0  0  0  0  0
   22.4009  -21.0980  -12.3149 C   0  0  0  0  0  0  0  0  0  0  0  0
   22.4092  -20.9613  -11.0652 O   0  0  0  0  0  0  0  0  0  0  0  0
   23.6592  -21.2454  -12.9488 N   0  0  0  0  0  0  0  0  0  0  0  0
   24.9098  -21.2721  -12.1588 C   0  0  0  0  0  0  0  0  0  0  0  0
   25.9884  -20.6963  -12.9756 C   0  0  0  0  0  0  0  0  0  0  0  0
   25.7216  -20.3547  -14.1983 O   0  0  0  0  0  0  0  0  0  0  0  0
   27.3049  -20.4873  -12.5318 N   0  0  0  0  0  0  0  0  0  0  0  0
   27.6634  -20.4373  -11.1293 C   0  0  0  0  0  0  0  0  0  0  0  0
   29.0522  -20.9878  -11.0918 C   0  0  0  0  0  0  0  0  0  0  0  0
   29.5240  -21.0937  -12.5100 C   0  0  0  0  0  0  0  0  0  0  0  0
   28.4752  -20.2676  -13.2843 C   0  0  1  0  0  0  0  0  0  0  0  0
   28.4659  -20.7408  -14.6946 C   0  0  0  0  0  0  0  0  0  0  0  0
   28.1232  -21.9071  -15.0218 O   0  0  0  0  0  0  0  0  0  0  0  0
   28.8489  -19.8706  -15.6965 O   0  0  0  0  0  0  0  0  0  0  0  0
  2  1  1  0
  3  2  1  0
  4  5  1  0
  4  3  1  0
  5  6  1  6
  7  8  2  0
  7  5  1  0
  9  7  1  0
 10  9  1  0
 10 11  1  0
 11 13  1  0
 12 11  2  0
 13 14  1  0
 13 17  1  0
 14 15  1  0
 15 16  1  0
 17 18  1  6
 17 16  1  0
 18 20  1  0
 19 18  2  0
M  END
$$$$
