MGP.pdb
     RDKit          3D

 20 20  0  0  1  0  0  0  0  0999 V2000
   14.8937  -17.8963  -16.7899 C   0  0  0  0  0  0  0  0  0  0  0  0
   16.5457  -17.9069  -16.0293 S   0  0  0  0  0  0  0  0  0  0  0  0
   17.5213  -16.5469  -16.7127 C   0  0  0  0  0  0  0  0  0  0  0  0
   16.8956  -15.2171  -16.4284 C   0  0  0  0  0  0  0  0  0  0  0  0
   17.7382  -14.0958  -17.0152 C   0  0  2  0  0  0  0  0  0  0  0  0
   19.1165  -14.4095  -16.7949 N   0  0  0  0  0  0  0  0  0  0  0  0
   17.3398  -12.8015  -16.3961 C   0  0  0  0  0  0  0  0  0  0  0  0
   16.2146  -12.2946  -16.6357 O   0  0  0  0  0  0  0  0  0  0  0  0
   18.1897  -12.0826  -15.5199 N   0  0  0  0  0  0  0  0  0  0  0  0
   17.7349  -10.8299  -14.8777 C   0  0  0  0  0  0  0  0  0  0  0  0
   18.3134   -9.6943  -15.6112 C   0  0  0  0  0  0  0  0  0  0  0  0
   19.4757   -9.8462  -16.1667 O   0  0  0  0  0  0  0  0  0  0  0  0
   17.7003   -8.4387  -15.7568 N   0  0  0  0  0  0  0  0  0  0  0  0
   16.2905   -8.2184  -15.5078 C   0  0  0  0  0  0  0  0  0  0  0  0
   16.2283   -6.8126  -15.0043 C   0  0  0  0  0  0  0  0  0  0  0  0
   17.5788   -6.2032  -15.2271 C   0  0  0  0  0  0  0  0  0  0  0  0
   18.2616   -7.2152  -16.1716 C   0  0  1  0  0  0  0  0  0  0  0  0
   19.7339   -7.0656  -16.0201 C   0  0  0  0  0  0  0  0  0  0  0  0
   20.3827   -7.6039  -15.0852 O   0  0  0  0  0  0  0  0  0  0  0  0
   20.4287   -6.3046  -16.9396 O   0  0  0  0  0  0  0  0  0  0  0  0
  2  1  1  0
  3  2  1  0
  4  5  1  0
  4  3  1  0
  5  6  1  1
  7  8  2  0
  7  5  1  0
  9  7  1  0
 10  9  1  0
 10 11  1  0
 11 13  1  0
 12 11  2  0
 13 14  1  0
 13 17  1  0
 14 15  1  0
 15 16  1  0
 17 18  1  1
 17 16  1  0
 18 20  1  0
 19 18  2  0
M  END
$$$$
