MGP.pdb
     RDKit          3D

 20 20  0  0  1  0  0  0  0  0999 V2000
   23.0570  -22.1789  -14.4079 C   0  0  0  0  0  0  0  0  0  0  0  0
   22.5608  -22.0035  -16.1488 S   0  0  0  0  0  0  0  0  0  0  0  0
   23.5904  -20.7418  -16.9340 C   0  0  0  0  0  0  0  0  0  0  0  0
   24.1262  -19.7627  -15.9367 C   0  0  0  0  0  0  0  0  0  0  0  0
   25.6450  -19.8209  -15.8963 C   0  0  2  0  0  0  0  0  0  0  0  0
   26.0557  -21.1117  -16.3563 N   0  0  0  0  0  0  0  0  0  0  0  0
   26.1147  -19.5298  -14.5136 C   0  0  0  0  0  0  0  0  0  0  0  0
   25.7389  -18.4913  -13.9131 O   0  0  0  0  0  0  0  0  0  0  0  0
   26.9946  -20.3897  -13.8112 N   0  0  0  0  0  0  0  0  0  0  0  0
   27.3833  -20.1020  -12.4130 C   0  0  0  0  0  0  0  0  0  0  0  0
   26.5601  -20.9321  -11.5211 C   0  0  0  0  0  0  0  0  0  0  0  0
   25.6186  -21.6546  -12.0449 O   0  0  0  0  0  0  0  0  0  0  0  0
   26.7118  -21.0027  -10.1262 N   0  0  0  0  0  0  0  0  0  0  0  0
   28.0016  -20.9324   -9.4709 C   0  0  0  0  0  0  0  0  0  0  0  0
   27.7073  -20.2680   -8.1650 C   0  0  0  0  0  0  0  0  0  0  0  0
   26.2167  -20.2152   -8.0220 C   0  0  0  0  0  0  0  0  0  0  0  0
   25.7305  -21.1732   -9.1301 C   0  0  1  0  0  0  0  0  0  0  0  0
   24.3371  -20.7944   -9.4877 C   0  0  0  0  0  0  0  0  0  0  0  0
   24.0544  -19.7347  -10.1058 O   0  0  0  0  0  0  0  0  0  0  0  0
   23.3009  -21.6345   -9.1300 O   0  0  0  0  0  0  0  0  0  0  0  0
  2  1  1  0
  3  2  1  0
  4  5  1  0
  4  3  1  0
  5  6  1  1
  7  8  2  0
  7  5  1  0
  9  7  1  0
 10  9  1  0
 10 11  1  0
 11 13  1  0
 12 11  2  0
 13 14  1  0
 13 17  1  0
 14 15  1  0
 15 16  1  0
 17 18  1  6
 17 16  1  0
 18 20  1  0
 19 18  2  0
M  END
$$$$
