MGP.pdb
     RDKit          3D

 20 20  0  0  1  0  0  0  0  0999 V2000
   22.5942  -19.6208  -10.6735 C   0  0  0  0  0  0  0  0  0  0  0  0
   23.1621  -21.0731   -9.7375 S   0  0  0  0  0  0  0  0  0  0  0  0
   24.7453  -20.6902   -8.9530 C   0  0  0  0  0  0  0  0  0  0  0  0
   25.6445  -19.9162   -9.8657 C   0  0  0  0  0  0  0  0  0  0  0  0
   25.8952  -20.6914  -11.1494 C   0  0  2  0  0  0  0  0  0  0  0  0
   26.4339  -21.9703  -10.8018 N   0  0  0  0  0  0  0  0  0  0  0  0
   26.8041  -19.9078  -12.0310 C   0  0  0  0  0  0  0  0  0  0  0  0
   27.8353  -19.3598  -11.5654 O   0  0  0  0  0  0  0  0  0  0  0  0
   26.5623  -19.7389  -13.4166 N   0  0  0  0  0  0  0  0  0  0  0  0
   27.6526  -19.3457  -14.3360 C   0  0  0  0  0  0  0  0  0  0  0  0
   27.6946  -20.3085  -15.4466 C   0  0  0  0  0  0  0  0  0  0  0  0
   27.6219  -21.5737  -15.1697 O   0  0  0  0  0  0  0  0  0  0  0  0
   27.8128  -19.9621  -16.8031 N   0  0  0  0  0  0  0  0  0  0  0  0
   27.7475  -18.5939  -17.2738 C   0  0  0  0  0  0  0  0  0  0  0  0
   28.6471  -18.5793  -18.4671 C   0  0  0  0  0  0  0  0  0  0  0  0
   28.9911  -20.0040  -18.7786 C   0  0  0  0  0  0  0  0  0  0  0  0
   27.9786  -20.7971  -17.9253 C   0  0  1  0  0  0  0  0  0  0  0  0
   28.5447  -22.1504  -17.6782 C   0  0  0  0  0  0  0  0  0  0  0  0
   29.4054  -22.3789  -16.7885 O   0  0  0  0  0  0  0  0  0  0  0  0
   28.1144  -23.2091  -18.4538 O   0  0  0  0  0  0  0  0  0  0  0  0
  2  1  1  0
  3  2  1  0
  4  5  1  0
  4  3  1  0
  5  6  1  1
  7  8  2  0
  7  5  1  0
  9  7  1  0
 10  9  1  0
 10 11  1  0
 11 13  1  0
 12 11  2  0
 13 14  1  0
 13 17  1  0
 14 15  1  0
 15 16  1  0
 17 18  1  1
 17 16  1  0
 18 20  1  0
 19 18  2  0
M  END
$$$$
