MGP.pdb
     RDKit          3D

 20 20  0  0  1  0  0  0  0  0999 V2000
   21.5495  -12.7353  -21.6225 C   0  0  0  0  0  0  0  0  0  0  0  0
   20.3720  -13.6607  -20.5908 S   0  0  0  0  0  0  0  0  0  0  0  0
   20.7880  -13.4125  -18.8490 C   0  0  0  0  0  0  0  0  0  0  0  0
   21.2849  -12.0247  -18.5891 C   0  0  0  0  0  0  0  0  0  0  0  0
   21.1845  -11.6916  -17.1090 C   0  0  2  0  0  0  0  0  0  0  0  0
   19.8081  -11.7660  -16.7260 N   0  0  0  0  0  0  0  0  0  0  0  0
   21.7752  -10.3470  -16.8633 C   0  0  0  0  0  0  0  0  0  0  0  0
   23.0083  -10.1509  -17.0096 O   0  0  0  0  0  0  0  0  0  0  0  0
   20.9961   -9.2352  -16.4584 N   0  0  0  0  0  0  0  0  0  0  0  0
   21.6297   -7.9333  -16.1549 C   0  0  0  0  0  0  0  0  0  0  0  0
   20.7697   -7.2065  -15.2092 C   0  0  0  0  0  0  0  0  0  0  0  0
   19.5491   -7.6145  -15.0459 O   0  0  0  0  0  0  0  0  0  0  0  0
   21.1694   -6.0868  -14.4606 N   0  0  0  0  0  0  0  0  0  0  0  0
   22.5571   -5.7075  -14.2932 C   0  0  0  0  0  0  0  0  0  0  0  0
   22.5138   -4.2173  -14.1878 C   0  0  0  0  0  0  0  0  0  0  0  0
   21.0745   -3.8261  -14.0451 C   0  0  0  0  0  0  0  0  0  0  0  0
   20.3812   -5.1703  -13.7374 C   0  0  1  0  0  0  0  0  0  0  0  0
   18.9524   -5.0530  -14.1344 C   0  0  0  0  0  0  0  0  0  0  0  0
   18.5745   -5.0548  -15.3352 O   0  0  0  0  0  0  0  0  0  0  0  0
   17.9904   -4.9360  -13.1503 O   0  0  0  0  0  0  0  0  0  0  0  0
  2  1  1  0
  3  2  1  0
  4  5  1  0
  4  3  1  0
  5  6  1  6
  7  8  2  0
  7  5  1  0
  9  7  1  0
 10  9  1  0
 10 11  1  0
 11 13  1  0
 12 11  2  0
 13 14  1  0
 13 17  1  0
 14 15  1  0
 15 16  1  0
 17 18  1  6
 17 16  1  0
 18 20  1  0
 19 18  2  0
M  END
$$$$
