MGP.pdb
     RDKit          3D

 20 20  0  0  1  0  0  0  0  0999 V2000
   19.1314  -24.0544   -9.8083 C   0  0  0  0  0  0  0  0  0  0  0  0
   17.8867  -23.3049  -10.9022 S   0  0  0  0  0  0  0  0  0  0  0  0
   18.3934  -21.6175  -11.3074 C   0  0  0  0  0  0  0  0  0  0  0  0
   19.8747  -21.4386  -11.1877 C   0  0  0  0  0  0  0  0  0  0  0  0
   20.4966  -21.2156  -12.5571 C   0  0  2  0  0  0  0  0  0  0  0  0
   20.0166  -22.2357  -13.4379 N   0  0  0  0  0  0  0  0  0  0  0  0
   21.9804  -21.2182  -12.4330 C   0  0  0  0  0  0  0  0  0  0  0  0
   22.5600  -20.4321  -11.6415 O   0  0  0  0  0  0  0  0  0  0  0  0
   22.8063  -22.0894  -13.1854 N   0  0  0  0  0  0  0  0  0  0  0  0
   24.2804  -22.0100  -13.0904 C   0  0  0  0  0  0  0  0  0  0  0  0
   24.7351  -20.8487  -13.8693 C   0  0  0  0  0  0  0  0  0  0  0  0
   23.9045  -20.3000  -14.7012 O   0  0  0  0  0  0  0  0  0  0  0  0
   26.0173  -20.2804  -13.7860 N   0  0  0  0  0  0  0  0  0  0  0  0
   26.9240  -20.5434  -12.6876 C   0  0  0  0  0  0  0  0  0  0  0  0
   28.2796  -20.4659  -13.3121 C   0  0  0  0  0  0  0  0  0  0  0  0
   28.0993  -19.9103  -14.6919 C   0  0  0  0  0  0  0  0  0  0  0  0
   26.6510  -19.3777  -14.6621 C   0  0  1  0  0  0  0  0  0  0  0  0
   26.1476  -19.3335  -16.0612 C   0  0  0  0  0  0  0  0  0  0  0  0
   25.8456  -20.3682  -16.7117 O   0  0  0  0  0  0  0  0  0  0  0  0
   26.0022  -18.1090  -16.6832 O   0  0  0  0  0  0  0  0  0  0  0  0
  2  1  1  0
  3  2  1  0
  4  5  1  0
  4  3  1  0
  5  6  1  6
  7  8  2  0
  7  5  1  0
  9  7  1  0
 10  9  1  0
 10 11  1  0
 11 13  1  0
 12 11  2  0
 13 14  1  0
 13 17  1  0
 14 15  1  0
 15 16  1  0
 17 18  1  6
 17 16  1  0
 18 20  1  0
 19 18  2  0
M  END
$$$$
