MGP.pdb
     RDKit          3D

 20 20  0  0  1  0  0  0  0  0999 V2000
   15.8577  -12.9017  -21.3905 C   0  0  0  0  0  0  0  0  0  0  0  0
   16.2524  -11.5984  -20.1850 S   0  0  0  0  0  0  0  0  0  0  0  0
   15.5123  -12.0221  -18.5909 C   0  0  0  0  0  0  0  0  0  0  0  0
   15.8142  -10.9924  -17.5473 C   0  0  0  0  0  0  0  0  0  0  0  0
   17.1445  -11.2906  -16.8741 C   0  0  2  0  0  0  0  0  0  0  0  0
   17.0432  -12.5623  -16.2267 N   0  0  0  0  0  0  0  0  0  0  0  0
   17.4771  -10.1909  -15.9269 C   0  0  0  0  0  0  0  0  0  0  0  0
   16.8162  -10.0326  -14.8693 O   0  0  0  0  0  0  0  0  0  0  0  0
   18.5360   -9.2791  -16.1598 N   0  0  0  0  0  0  0  0  0  0  0  0
   18.8149   -8.1795  -15.2103 C   0  0  0  0  0  0  0  0  0  0  0  0
   20.0188   -7.4673  -15.6637 C   0  0  0  0  0  0  0  0  0  0  0  0
   20.7607   -8.0244  -16.5704 O   0  0  0  0  0  0  0  0  0  0  0  0
   20.4377   -6.2153  -15.1831 N   0  0  0  0  0  0  0  0  0  0  0  0
   19.5661   -5.3248  -14.4446 C   0  0  0  0  0  0  0  0  0  0  0  0
   20.4881   -4.6100  -13.5106 C   0  0  0  0  0  0  0  0  0  0  0  0
   21.8875   -4.9408  -13.9316 C   0  0  0  0  0  0  0  0  0  0  0  0
   21.6867   -5.5793  -15.3223 C   0  0  1  0  0  0  0  0  0  0  0  0
   22.8581   -6.4526  -15.6017 C   0  0  0  0  0  0  0  0  0  0  0  0
   23.0561   -7.5423  -15.0032 O   0  0  0  0  0  0  0  0  0  0  0  0
   23.7749   -6.0597  -16.5569 O   0  0  0  0  0  0  0  0  0  0  0  0
  2  1  1  0
  3  2  1  0
  4  5  1  0
  4  3  1  0
  5  6  1  1
  7  8  2  0
  7  5  1  0
  9  7  1  0
 10  9  1  0
 10 11  1  0
 11 13  1  0
 12 11  2  0
 13 14  1  0
 13 17  1  0
 14 15  1  0
 15 16  1  0
 17 18  1  1
 17 16  1  0
 18 20  1  0
 19 18  2  0
M  END
$$$$
