MGP.pdb
     RDKit          3D

 20 20  0  0  1  0  0  0  0  0999 V2000
   23.8763  -23.9272  -14.1312 C   0  0  0  0  0  0  0  0  0  0  0  0
   22.7977  -23.4444  -15.5136 S   0  0  0  0  0  0  0  0  0  0  0  0
   22.0393  -21.8457  -15.1429 C   0  0  0  0  0  0  0  0  0  0  0  0
   21.7124  -21.7100  -13.6885 C   0  0  0  0  0  0  0  0  0  0  0  0
   22.5623  -20.6225  -13.0509 C   0  0  2  0  0  0  0  0  0  0  0  0
   23.7266  -20.4324  -13.8602 N   0  0  0  0  0  0  0  0  0  0  0  0
   22.8946  -21.0105  -11.6523 C   0  0  0  0  0  0  0  0  0  0  0  0
   22.0706  -21.6497  -10.9502 O   0  0  0  0  0  0  0  0  0  0  0  0
   24.1334  -20.6871  -11.0459 N   0  0  0  0  0  0  0  0  0  0  0  0
   25.3561  -21.4601  -11.3556 C   0  0  0  0  0  0  0  0  0  0  0  0
   26.3079  -20.5715  -12.0387 C   0  0  0  0  0  0  0  0  0  0  0  0
   25.8460  -19.7148  -12.8963 O   0  0  0  0  0  0  0  0  0  0  0  0
   27.6982  -20.5795  -11.8363 N   0  0  0  0  0  0  0  0  0  0  0  0
   28.3054  -20.9034  -10.5619 C   0  0  0  0  0  0  0  0  0  0  0  0
   29.6001  -21.5509  -10.9332 C   0  0  0  0  0  0  0  0  0  0  0  0
   29.7936  -21.3407  -12.4040 C   0  0  0  0  0  0  0  0  0  0  0  0
   28.7326  -20.2718  -12.7415 C   0  0  1  0  0  0  0  0  0  0  0  0
   28.4127  -20.3815  -14.1901 C   0  0  0  0  0  0  0  0  0  0  0  0
   28.7819  -19.5273  -15.0380 O   0  0  0  0  0  0  0  0  0  0  0  0
   27.6786  -21.4636  -14.6346 O   0  0  0  0  0  0  0  0  0  0  0  0
  2  1  1  0
  3  2  1  0
  4  5  1  0
  4  3  1  0
  5  6  1  6
  7  8  2  0
  7  5  1  0
  9  7  1  0
 10  9  1  0
 10 11  1  0
 11 13  1  0
 12 11  2  0
 13 14  1  0
 13 17  1  0
 14 15  1  0
 15 16  1  0
 17 18  1  6
 17 16  1  0
 18 20  1  0
 19 18  2  0
M  END
$$$$
