MGP.pdb
     RDKit          3D

 20 20  0  0  1  0  0  0  0  0999 V2000
   29.3380  -18.3611  -23.1716 C   0  0  0  0  0  0  0  0  0  0  0  0
   28.1195  -17.1454  -22.5844 S   0  0  0  0  0  0  0  0  0  0  0  0
   27.5133  -17.6523  -20.9583 C   0  0  0  0  0  0  0  0  0  0  0  0
   28.2264  -18.8679  -20.4540 C   0  0  0  0  0  0  0  0  0  0  0  0
   27.2938  -19.7194  -19.6073 C   0  0  2  0  0  0  0  0  0  0  0  0
   26.6202  -18.8608  -18.6822 N   0  0  0  0  0  0  0  0  0  0  0  0
   28.0784  -20.7880  -18.9293 C   0  0  0  0  0  0  0  0  0  0  0  0
   28.7461  -21.6169  -19.5982 O   0  0  0  0  0  0  0  0  0  0  0  0
   28.1156  -20.9280  -17.5200 N   0  0  0  0  0  0  0  0  0  0  0  0
   28.9209  -21.9930  -16.8830 C   0  0  0  0  0  0  0  0  0  0  0  0
   28.2541  -23.2827  -17.1157 C   0  0  0  0  0  0  0  0  0  0  0  0
   26.9707  -23.2888  -17.3042 O   0  0  0  0  0  0  0  0  0  0  0  0
   28.9053  -24.5272  -17.1465 N   0  0  0  0  0  0  0  0  0  0  0  0
   30.3401  -24.6605  -17.2930 C   0  0  0  0  0  0  0  0  0  0  0  0
   30.6684  -25.8979  -16.5221 C   0  0  0  0  0  0  0  0  0  0  0  0
   29.3699  -26.5616  -16.1778 C   0  0  0  0  0  0  0  0  0  0  0  0
   28.3565  -25.8226  -17.0774 C   0  0  1  0  0  0  0  0  0  0  0  0
   27.0108  -25.9500  -16.4563 C   0  0  0  0  0  0  0  0  0  0  0  0
   26.7183  -25.4315  -15.3470 O   0  0  0  0  0  0  0  0  0  0  0  0
   26.0325  -26.6669  -17.1169 O   0  0  0  0  0  0  0  0  0  0  0  0
  2  1  1  0
  3  2  1  0
  4  5  1  0
  4  3  1  0
  5  6  1  1
  7  8  2  0
  7  5  1  0
  9  7  1  0
 10  9  1  0
 10 11  1  0
 11 13  1  0
 12 11  2  0
 13 14  1  0
 13 17  1  0
 14 15  1  0
 15 16  1  0
 17 18  1  1
 17 16  1  0
 18 20  1  0
 19 18  2  0
M  END
$$$$
