MGP.pdb
     RDKit          3D

 20 20  0  0  1  0  0  0  0  0999 V2000
   25.9103  -16.7871  -17.8584 C   0  0  0  0  0  0  0  0  0  0  0  0
   27.2657  -16.7911  -16.6458 S   0  0  0  0  0  0  0  0  0  0  0  0
   27.0478  -18.1874  -15.5183 C   0  0  0  0  0  0  0  0  0  0  0  0
   25.6441  -18.7068  -15.5423 C   0  0  0  0  0  0  0  0  0  0  0  0
   25.5327  -19.9785  -14.7166 C   0  0  2  0  0  0  0  0  0  0  0  0
   24.2095  -20.4994  -14.8735 N   0  0  0  0  0  0  0  0  0  0  0  0
   25.8645  -19.6771  -13.2966 C   0  0  0  0  0  0  0  0  0  0  0  0
   25.0992  -18.9682  -12.5949 O   0  0  0  0  0  0  0  0  0  0  0  0
   27.0382  -20.1623  -12.6691 N   0  0  0  0  0  0  0  0  0  0  0  0
   27.3866  -19.7552  -11.2901 C   0  0  0  0  0  0  0  0  0  0  0  0
   26.5848  -20.5550  -10.3522 C   0  0  0  0  0  0  0  0  0  0  0  0
   25.5521  -21.1922  -10.8108 O   0  0  0  0  0  0  0  0  0  0  0  0
   26.8499  -20.6824   -8.9784 N   0  0  0  0  0  0  0  0  0  0  0  0
   28.1337  -20.3576   -8.3918 C   0  0  0  0  0  0  0  0  0  0  0  0
   27.7914  -19.8700   -7.0213 C   0  0  0  0  0  0  0  0  0  0  0  0
   26.3427  -20.1763   -6.7923 C   0  0  0  0  0  0  0  0  0  0  0  0
   26.0087  -21.1441   -7.9472 C   0  0  1  0  0  0  0  0  0  0  0  0
   24.5434  -21.0776   -8.1948 C   0  0  0  0  0  0  0  0  0  0  0  0
   24.0029  -20.1497   -8.8520 O   0  0  0  0  0  0  0  0  0  0  0  0
   23.7313  -22.0717   -7.6852 O   0  0  0  0  0  0  0  0  0  0  0  0
  2  1  1  0
  3  2  1  0
  4  5  1  0
  4  3  1  0
  5  6  1  1
  7  8  2  0
  7  5  1  0
  9  7  1  0
 10  9  1  0
 10 11  1  0
 11 13  1  0
 12 11  2  0
 13 14  1  0
 13 17  1  0
 14 15  1  0
 15 16  1  0
 17 18  1  6
 17 16  1  0
 18 20  1  0
 19 18  2  0
M  END
$$$$
