KKR.pdb
     RDKit          3D

 30 29  0  0  1  0  0  0  0  0999 V2000
    8.6483  -18.8312   20.2243 N   0  0  0  0  0  0  0  0  0  0  0  0
    9.8306  -18.7784   21.0154 C   0  0  1  0  0  0  0  0  0  0  0  0
   11.0237  -18.7853   20.0841 C   0  0  0  0  0  0  0  0  0  0  0  0
   10.4892  -19.2300   18.7274 C   0  0  0  0  0  0  0  0  0  0  0  0
   11.5607  -19.3842   17.6927 C   0  0  0  0  0  0  0  0  0  0  0  0
   10.9893  -19.8200   16.3717 C   0  0  0  0  0  0  0  0  0  0  0  0
   11.2981  -18.8132   15.3689 N   0  0  0  0  0  0  0  0  0  0  0  0
    9.8117  -17.5463   21.8572 C   0  0  0  0  0  0  0  0  0  0  0  0
   10.7924  -17.2464   22.5865 O   0  0  0  0  0  0  0  0  0  0  0  0
    8.6888  -16.7123   21.8359 N   0  0  0  0  0  0  0  0  0  0  0  0
    8.4031  -15.5675   22.6579 C   0  0  1  0  0  0  0  0  0  0  0  0
    7.7392  -14.4038   21.9498 C   0  0  0  0  0  0  0  0  0  0  0  0
    8.4086  -14.0833   20.6383 C   0  0  0  0  0  0  0  0  0  0  0  0
    7.6732  -13.0210   19.8644 C   0  0  0  0  0  0  0  0  0  0  0  0
    8.2295  -12.8030   18.4971 C   0  0  0  0  0  0  0  0  0  0  0  0
    7.3392  -11.9103   17.7450 N   0  0  0  0  0  0  0  0  0  0  0  0
    7.8450  -15.8923   23.9636 C   0  0  0  0  0  0  0  0  0  0  0  0
    6.5841  -15.9439   24.1615 O   0  0  0  0  0  0  0  0  0  0  0  0
    8.6095  -21.4084   28.7242 N   0  0  0  0  0  0  0  0  0  0  0  0
    7.3447  -21.9826   28.4840 C   0  0  0  0  0  0  0  0  0  0  0  0
    7.0680  -23.1130   29.0282 N   0  0  0  0  0  0  0  0  0  0  0  0
    6.4145  -21.2942   27.6467 N   0  0  0  0  0  0  0  0  0  0  0  0
    6.9853  -20.5023   26.5793 C   0  0  0  0  0  0  0  0  0  0  0  0
    7.3777  -19.1038   27.0591 C   0  0  0  0  0  0  0  0  0  0  0  0
    7.7880  -18.3088   25.8539 C   0  0  0  0  0  0  0  0  0  0  0  0
    8.2010  -16.9326   26.2424 C   0  0  2  0  0  0  0  0  0  0  0  0
    8.6493  -16.1661   25.0757 N   0  0  0  0  0  0  0  0  0  0  0  0
    9.3555  -16.9783   27.1638 C   0  0  0  0  0  0  0  0  0  0  0  0
   10.5327  -16.6692   26.8468 O   0  0  0  0  0  0  0  0  0  0  0  0
    9.2042  -17.3877   28.5109 O   0  0  0  0  0  0  0  0  0  0  0  0
  2  1  1  6
  2  3  1  0
  3  4  1  0
  4  5  1  0
  5  6  1  0
  6  7  1  0
  8  9  2  0
  8  2  1  0
 10  8  1  0
 11 10  1  0
 11 17  1  0
 11 12  1  6
 13 14  1  0
 13 12  1  0
 15 16  1  0
 15 14  1  0
 17 18  2  0
 19 20  1  0
 20 21  2  0
 20 22  1  0
 22 23  1  0
 24 23  1  0
 24 25  1  0
 26 25  1  6
 27 17  1  0
 27 26  1  0
 28 30  1  0
 28 26  1  0
 29 28  2  0
M  END
$$$$
