KKR.pdb
     RDKit          3D

 30 29  0  0  1  0  0  0  0  0999 V2000
    6.0878  -18.3820   22.6367 N   0  0  0  0  0  0  0  0  0  0  0  0
    5.7144  -17.8620   21.3653 C   0  0  1  0  0  0  0  0  0  0  0  0
    4.2104  -17.6936   21.3461 C   0  0  0  0  0  0  0  0  0  0  0  0
    3.6357  -19.0459   21.7523 C   0  0  0  0  0  0  0  0  0  0  0  0
    2.2338  -19.2600   21.2712 C   0  0  0  0  0  0  0  0  0  0  0  0
    1.6621  -20.5459   21.8011 C   0  0  0  0  0  0  0  0  0  0  0  0
    0.3059  -20.7012   21.3001 N   0  0  0  0  0  0  0  0  0  0  0  0
    6.4050  -16.5586   21.1382 C   0  0  0  0  0  0  0  0  0  0  0  0
    6.1382  -15.8522   20.1316 O   0  0  0  0  0  0  0  0  0  0  0  0
    7.3624  -16.1151   22.0567 N   0  0  0  0  0  0  0  0  0  0  0  0
    7.9619  -14.8131   22.1728 C   0  0  1  0  0  0  0  0  0  0  0  0
    7.0132  -13.6410   22.0223 C   0  0  0  0  0  0  0  0  0  0  0  0
    6.7146  -13.3370   20.5768 C   0  0  0  0  0  0  0  0  0  0  0  0
    7.9639  -13.0831   19.7750 C   0  0  0  0  0  0  0  0  0  0  0  0
    7.6835  -12.7142   18.3566 C   0  0  0  0  0  0  0  0  0  0  0  0
    8.9518  -12.5206   17.6432 N   0  0  0  0  0  0  0  0  0  0  0  0
    8.9222  -14.6911   23.2611 C   0  0  0  0  0  0  0  0  0  0  0  0
    8.8575  -13.7397   24.1111 O   0  0  0  0  0  0  0  0  0  0  0  0
    6.3918  -20.8237   27.2790 N   0  0  0  0  0  0  0  0  0  0  0  0
    7.4393  -20.5688   28.1873 C   0  0  0  0  0  0  0  0  0  0  0  0
    7.3965  -21.1195   29.3472 N   0  0  0  0  0  0  0  0  0  0  0  0
    8.5103  -19.7101   27.7927 N   0  0  0  0  0  0  0  0  0  0  0  0
    8.3098  -18.9649   26.5694 C   0  0  0  0  0  0  0  0  0  0  0  0
    9.5067  -18.0674   26.2500 C   0  0  0  0  0  0  0  0  0  0  0  0
    9.1709  -17.2854   25.0137 C   0  0  0  0  0  0  0  0  0  0  0  0
   10.2404  -16.2975   24.7048 C   0  0  2  0  0  0  0  0  0  0  0  0
    9.9691  -15.6019   23.4429 N   0  0  0  0  0  0  0  0  0  0  0  0
   11.5384  -16.9793   24.5195 C   0  0  0  0  0  0  0  0  0  0  0  0
   12.0499  -17.2460   23.4019 O   0  0  0  0  0  0  0  0  0  0  0  0
   12.3169  -17.3904   25.6286 O   0  0  0  0  0  0  0  0  0  0  0  0
  2  1  1  1
  2  3  1  0
  3  4  1  0
  4  5  1  0
  5  6  1  0
  6  7  1  0
  8  9  2  0
  8  2  1  0
 10  8  1  0
 11 10  1  0
 11 17  1  0
 11 12  1  1
 13 14  1  0
 13 12  1  0
 15 16  1  0
 15 14  1  0
 17 18  2  0
 19 20  1  0
 20 21  2  0
 20 22  1  0
 22 23  1  0
 24 23  1  0
 24 25  1  0
 26 25  1  6
 27 17  1  0
 27 26  1  0
 28 30  1  0
 28 26  1  0
 29 28  2  0
M  END
$$$$
