KKR.pdb
     RDKit          3D

 30 29  0  0  1  0  0  0  0  0999 V2000
    3.7039  -22.3268   23.8362 N   0  0  0  0  0  0  0  0  0  0  0  0
    4.8531  -21.8052   23.1777 C   0  0  1  0  0  0  0  0  0  0  0  0
    4.4721  -21.4762   21.7504 C   0  0  0  0  0  0  0  0  0  0  0  0
    5.1364  -22.5423   20.8867 C   0  0  0  0  0  0  0  0  0  0  0  0
    4.9464  -22.3154   19.4187 C   0  0  0  0  0  0  0  0  0  0  0  0
    5.6896  -23.3383   18.6046 C   0  0  0  0  0  0  0  0  0  0  0  0
    5.4962  -23.0487   17.1928 N   0  0  0  0  0  0  0  0  0  0  0  0
    5.3327  -20.5908   23.9006 C   0  0  0  0  0  0  0  0  0  0  0  0
    4.9101  -19.4462   23.5929 O   0  0  0  0  0  0  0  0  0  0  0  0
    6.2648  -20.7257   24.9349 N   0  0  0  0  0  0  0  0  0  0  0  0
    7.0300  -19.7027   25.5951 C   0  0  1  0  0  0  0  0  0  0  0  0
    7.5546  -20.0637   26.9702 C   0  0  0  0  0  0  0  0  0  0  0  0
    8.4224  -18.9757   27.5481 C   0  0  0  0  0  0  0  0  0  0  0  0
    8.9418  -19.3243   28.9181 C   0  0  0  0  0  0  0  0  0  0  0  0
    9.8901  -18.3077   29.4601 C   0  0  0  0  0  0  0  0  0  0  0  0
   10.4741  -18.8042   30.7121 N   0  0  0  0  0  0  0  0  0  0  0  0
    7.9841  -19.0185   24.7330 C   0  0  0  0  0  0  0  0  0  0  0  0
    8.9838  -19.6271   24.2209 O   0  0  0  0  0  0  0  0  0  0  0  0
    6.8455  -12.4101   19.3067 N   0  0  0  0  0  0  0  0  0  0  0  0
    8.1183  -12.8759   18.9195 C   0  0  0  0  0  0  0  0  0  0  0  0
    8.5977  -12.4922   17.7910 N   0  0  0  0  0  0  0  0  0  0  0  0
    8.8324  -13.7562   19.7886 N   0  0  0  0  0  0  0  0  0  0  0  0
    8.0749  -14.3200   20.8843 C   0  0  0  0  0  0  0  0  0  0  0  0
    8.9509  -15.1843   21.7930 C   0  0  0  0  0  0  0  0  0  0  0  0
    8.0500  -15.8535   22.7896 C   0  0  0  0  0  0  0  0  0  0  0  0
    8.7624  -16.9556   23.4917 C   0  0  2  0  0  0  0  0  0  0  0  0
    7.8668  -17.6610   24.4137 N   0  0  0  0  0  0  0  0  0  0  0  0
    9.8578  -16.4172   24.3249 C   0  0  0  0  0  0  0  0  0  0  0  0
    9.7576  -16.1550   25.5509 O   0  0  0  0  0  0  0  0  0  0  0  0
   11.1361  -16.1530   23.7760 O   0  0  0  0  0  0  0  0  0  0  0  0
  2  1  1  1
  2  3  1  0
  3  4  1  0
  4  5  1  0
  5  6  1  0
  6  7  1  0
  8  9  2  0
  8  2  1  0
 10  8  1  0
 11 10  1  0
 11 17  1  0
 11 12  1  1
 13 14  1  0
 13 12  1  0
 15 16  1  0
 15 14  1  0
 17 18  2  0
 19 20  1  0
 20 21  2  0
 20 22  1  0
 22 23  1  0
 24 23  1  0
 24 25  1  0
 26 25  1  1
 27 17  1  0
 27 26  1  0
 28 30  1  0
 28 26  1  0
 29 28  2  0
M  END
$$$$
