KKR.pdb
     RDKit          3D

 30 29  0  0  1  0  0  0  0  0999 V2000
    7.0622  -15.5297   18.7371 N   0  0  0  0  0  0  0  0  0  0  0  0
    8.2903  -14.8462   18.9630 C   0  0  1  0  0  0  0  0  0  0  0  0
    8.0266  -13.3584   18.8760 C   0  0  0  0  0  0  0  0  0  0  0  0
    7.6319  -13.0903   17.4281 C   0  0  0  0  0  0  0  0  0  0  0  0
    8.6650  -13.5402   16.4418 C   0  0  0  0  0  0  0  0  0  0  0  0
    8.2841  -13.1620   15.0371 C   0  0  0  0  0  0  0  0  0  0  0  0
    9.2342  -13.7605   14.1132 N   0  0  0  0  0  0  0  0  0  0  0  0
    8.8288  -15.2201   20.3037 C   0  0  0  0  0  0  0  0  0  0  0  0
    9.4163  -14.3719   21.0240 O   0  0  0  0  0  0  0  0  0  0  0  0
    8.6788  -16.5314   20.7671 N   0  0  0  0  0  0  0  0  0  0  0  0
    9.6659  -17.5738   20.8517 C   0  0  1  0  0  0  0  0  0  0  0  0
   10.3221  -17.9604   19.5417 C   0  0  0  0  0  0  0  0  0  0  0  0
   11.3041  -19.0906   19.7128 C   0  0  0  0  0  0  0  0  0  0  0  0
   11.3990  -19.9578   18.4852 C   0  0  0  0  0  0  0  0  0  0  0  0
   12.2538  -21.1642   18.6861 C   0  0  0  0  0  0  0  0  0  0  0  0
   12.4802  -21.8222   17.3935 N   0  0  0  0  0  0  0  0  0  0  0  0
   10.5765  -17.4457   21.9814 C   0  0  0  0  0  0  0  0  0  0  0  0
   11.4923  -18.3070   22.2074 O   0  0  0  0  0  0  0  0  0  0  0  0
   10.5025  -15.2834   30.2110 N   0  0  0  0  0  0  0  0  0  0  0  0
    9.7210  -14.7450   29.1687 C   0  0  0  0  0  0  0  0  0  0  0  0
    9.0218  -13.6930   29.4032 N   0  0  0  0  0  0  0  0  0  0  0  0
    9.7297  -15.3824   27.8905 N   0  0  0  0  0  0  0  0  0  0  0  0
   10.5926  -16.5361   27.7614 C   0  0  0  0  0  0  0  0  0  0  0  0
   11.4776  -16.4452   26.5170 C   0  0  0  0  0  0  0  0  0  0  0  0
   10.5738  -16.3894   25.3200 C   0  0  0  0  0  0  0  0  0  0  0  0
   11.3631  -16.2470   24.0662 C   0  0  2  0  0  0  0  0  0  0  0  0
   10.5058  -16.3785   22.8841 N   0  0  0  0  0  0  0  0  0  0  0  0
   12.3667  -17.3266   23.9597 C   0  0  0  0  0  0  0  0  0  0  0  0
   13.6106  -17.1520   24.0237 O   0  0  0  0  0  0  0  0  0  0  0  0
   11.9774  -18.6751   23.7722 O   0  0  0  0  0  0  0  0  0  0  0  0
  2  1  1  1
  2  3  1  0
  3  4  1  0
  4  5  1  0
  5  6  1  0
  6  7  1  0
  8  9  2  0
  8  2  1  0
 10  8  1  0
 11 10  1  0
 11 17  1  0
 11 12  1  6
 13 14  1  0
 13 12  1  0
 15 16  1  0
 15 14  1  0
 17 18  2  0
 19 20  1  0
 20 21  2  0
 20 22  1  0
 22 23  1  0
 24 23  1  0
 24 25  1  0
 26 25  1  1
 27 17  1  0
 27 26  1  0
 28 30  1  0
 28 26  1  0
 29 28  2  0
M  END
$$$$
