KKR.pdb
     RDKit          3D

 30 29  0  0  1  0  0  0  0  0999 V2000
    5.2937  -22.5141   22.1803 N   0  0  0  0  0  0  0  0  0  0  0  0
    6.5762  -21.9007   22.2515 C   0  0  1  0  0  0  0  0  0  0  0  0
    6.7441  -21.0127   21.0374 C   0  0  0  0  0  0  0  0  0  0  0  0
    7.5418  -21.8328   20.0299 C   0  0  0  0  0  0  0  0  0  0  0  0
    7.8181  -21.0958   18.7559 C   0  0  0  0  0  0  0  0  0  0  0  0
    8.6701  -21.9121   17.8236 C   0  0  0  0  0  0  0  0  0  0  0  0
    8.8702  -21.1656   16.5918 N   0  0  0  0  0  0  0  0  0  0  0  0
    6.6815  -21.1120   23.5142 C   0  0  0  0  0  0  0  0  0  0  0  0
    5.8056  -20.2620   23.8205 O   0  0  0  0  0  0  0  0  0  0  0  0
    7.7684  -21.3199   24.3698 N   0  0  0  0  0  0  0  0  0  0  0  0
    8.2137  -20.5097   25.4712 C   0  0  1  0  0  0  0  0  0  0  0  0
    8.9062  -21.2560   26.5937 C   0  0  0  0  0  0  0  0  0  0  0  0
    9.3310  -20.3346   27.7079 C   0  0  0  0  0  0  0  0  0  0  0  0
   10.1092  -21.0522   28.7793 C   0  0  0  0  0  0  0  0  0  0  0  0
   10.6536  -20.1333   29.8213 C   0  0  0  0  0  0  0  0  0  0  0  0
   11.3819  -20.9149   30.8283 N   0  0  0  0  0  0  0  0  0  0  0  0
    8.8531  -19.2618   25.0764 C   0  0  0  0  0  0  0  0  0  0  0  0
   10.0350  -19.2360   24.5924 O   0  0  0  0  0  0  0  0  0  0  0  0
    8.3216  -11.6998   19.4091 N   0  0  0  0  0  0  0  0  0  0  0  0
    7.9235  -12.9328   19.9644 C   0  0  0  0  0  0  0  0  0  0  0  0
    7.0969  -13.6656   19.3086 N   0  0  0  0  0  0  0  0  0  0  0  0
    8.4481  -13.3275   21.2330 N   0  0  0  0  0  0  0  0  0  0  0  0
    7.9279  -14.5615   21.7796 C   0  0  0  0  0  0  0  0  0  0  0  0
    8.5650  -14.8961   23.1295 C   0  0  0  0  0  0  0  0  0  0  0  0
    8.0040  -16.2125   23.5827 C   0  0  0  0  0  0  0  0  0  0  0  0
    8.7869  -16.7569   24.7254 C   0  0  2  0  0  0  0  0  0  0  0  0
    8.2174  -18.0213   25.2016 N   0  0  0  0  0  0  0  0  0  0  0  0
    8.7357  -15.8318   25.8767 C   0  0  0  0  0  0  0  0  0  0  0  0
    7.9390  -15.9410   26.8437 O   0  0  0  0  0  0  0  0  0  0  0  0
    9.6124  -14.7235   25.9676 O   0  0  0  0  0  0  0  0  0  0  0  0
  2  1  1  6
  2  3  1  0
  3  4  1  0
  4  5  1  0
  5  6  1  0
  6  7  1  0
  8  9  2  0
  8  2  1  0
 10  8  1  0
 11 10  1  0
 11 17  1  0
 11 12  1  6
 13 14  1  0
 13 12  1  0
 15 16  1  0
 15 14  1  0
 17 18  2  0
 19 20  1  0
 20 21  2  0
 20 22  1  0
 22 23  1  0
 24 23  1  0
 24 25  1  0
 26 25  1  6
 27 17  1  0
 27 26  1  0
 28 30  1  0
 28 26  1  0
 29 28  2  0
M  END
$$$$
