KKR.pdb
     RDKit          3D

 30 29  0  0  1  0  0  0  0  0999 V2000
   12.9621  -18.1781   19.0113 N   0  0  0  0  0  0  0  0  0  0  0  0
   12.8329  -18.6502   20.3480 C   0  0  1  0  0  0  0  0  0  0  0  0
   14.2072  -19.0425   20.8461 C   0  0  0  0  0  0  0  0  0  0  0  0
   14.3838  -20.5085   20.4668 C   0  0  0  0  0  0  0  0  0  0  0  0
   15.7349  -21.0504   20.8184 C   0  0  0  0  0  0  0  0  0  0  0  0
   15.8330  -22.5197   20.5136 C   0  0  0  0  0  0  0  0  0  0  0  0
   17.1411  -23.0011   20.9281 N   0  0  0  0  0  0  0  0  0  0  0  0
   12.2373  -17.5787   21.1990 C   0  0  0  0  0  0  0  0  0  0  0  0
   12.9620  -16.8592   21.9342 O   0  0  0  0  0  0  0  0  0  0  0  0
   10.8541  -17.3703   21.1798 N   0  0  0  0  0  0  0  0  0  0  0  0
   10.1325  -16.1272   21.1359 C   0  0  1  0  0  0  0  0  0  0  0  0
    9.2749  -15.9124   19.9051 C   0  0  0  0  0  0  0  0  0  0  0  0
    8.5839  -14.5733   19.9239 C   0  0  0  0  0  0  0  0  0  0  0  0
    7.7309  -14.3518   18.7026 C   0  0  0  0  0  0  0  0  0  0  0  0
    7.2988  -12.9328   18.5406 C   0  0  0  0  0  0  0  0  0  0  0  0
    6.6111  -12.7764   17.2532 N   0  0  0  0  0  0  0  0  0  0  0  0
    9.5037  -15.7552   22.3961 C   0  0  0  0  0  0  0  0  0  0  0  0
    8.9054  -14.6363   22.5441 O   0  0  0  0  0  0  0  0  0  0  0  0
    9.7257  -16.4795   29.9766 N   0  0  0  0  0  0  0  0  0  0  0  0
    9.7384  -15.0759   30.1060 C   0  0  0  0  0  0  0  0  0  0  0  0
   10.2027  -14.5612   31.1877 N   0  0  0  0  0  0  0  0  0  0  0  0
    9.2369  -14.2729   29.0365 N   0  0  0  0  0  0  0  0  0  0  0  0
    9.8151  -14.5169   27.7333 C   0  0  0  0  0  0  0  0  0  0  0  0
    8.7401  -14.6629   26.6548 C   0  0  0  0  0  0  0  0  0  0  0  0
    9.4310  -15.0140   25.3695 C   0  0  0  0  0  0  0  0  0  0  0  0
    8.8715  -16.2665   24.7921 C   0  0  2  0  0  0  0  0  0  0  0  0
    9.5154  -16.5941   23.5162 N   0  0  0  0  0  0  0  0  0  0  0  0
    7.4346  -16.1012   24.4889 C   0  0  0  0  0  0  0  0  0  0  0  0
    6.9660  -15.9200   23.3360 O   0  0  0  0  0  0  0  0  0  0  0  0
    6.4588  -16.1379   25.5144 O   0  0  0  0  0  0  0  0  0  0  0  0
  2  1  1  6
  2  3  1  0
  3  4  1  0
  4  5  1  0
  5  6  1  0
  6  7  1  0
  8  9  2  0
  8  2  1  0
 10  8  1  0
 11 10  1  0
 11 17  1  0
 11 12  1  6
 13 14  1  0
 13 12  1  0
 15 16  1  0
 15 14  1  0
 17 18  2  0
 19 20  1  0
 20 21  2  0
 20 22  1  0
 22 23  1  0
 24 23  1  0
 24 25  1  0
 26 25  1  6
 27 17  1  0
 27 26  1  0
 28 30  1  0
 28 26  1  0
 29 28  2  0
M  END
$$$$
