KKR.pdb
     RDKit          3D

 30 29  0  0  1  0  0  0  0  0999 V2000
    8.3959  -20.5144   17.2832 N   0  0  0  0  0  0  0  0  0  0  0  0
    7.9392  -20.1502   18.5813 C   0  0  1  0  0  0  0  0  0  0  0  0
    8.3492  -21.2388   19.5497 C   0  0  0  0  0  0  0  0  0  0  0  0
    7.6813  -22.5141   19.0483 C   0  0  0  0  0  0  0  0  0  0  0  0
    7.9631  -23.7060   19.9100 C   0  0  0  0  0  0  0  0  0  0  0  0
    7.2402  -24.9268   19.4116 C   0  0  0  0  0  0  0  0  0  0  0  0
    7.7487  -26.0951   20.1123 N   0  0  0  0  0  0  0  0  0  0  0  0
    8.5313  -18.8357   18.9668 C   0  0  0  0  0  0  0  0  0  0  0  0
    9.6932  -18.5181   18.6025 O   0  0  0  0  0  0  0  0  0  0  0  0
    7.7851  -17.9432   19.7437 N   0  0  0  0  0  0  0  0  0  0  0  0
    8.1878  -16.6785   20.2971 C   0  0  1  0  0  0  0  0  0  0  0  0
    7.0608  -15.7206   20.6267 C   0  0  0  0  0  0  0  0  0  0  0  0
    7.5726  -14.3587   21.0193 C   0  0  0  0  0  0  0  0  0  0  0  0
    8.0504  -13.5626   19.8335 C   0  0  0  0  0  0  0  0  0  0  0  0
    8.4606  -12.1728   20.1892 C   0  0  0  0  0  0  0  0  0  0  0  0
    8.8386  -11.4486   18.9695 N   0  0  0  0  0  0  0  0  0  0  0  0
    9.2305  -16.7730   21.3099 C   0  0  0  0  0  0  0  0  0  0  0  0
    9.0853  -17.4866   22.3595 O   0  0  0  0  0  0  0  0  0  0  0  0
   13.7295  -13.9318   17.8143 N   0  0  0  0  0  0  0  0  0  0  0  0
   14.9760  -14.2474   18.3918 C   0  0  0  0  0  0  0  0  0  0  0  0
   15.9505  -14.5664   17.6177 N   0  0  0  0  0  0  0  0  0  0  0  0
   15.1170  -14.2039   19.8126 N   0  0  0  0  0  0  0  0  0  0  0  0
   14.3746  -15.1983   20.5556 C   0  0  0  0  0  0  0  0  0  0  0  0
   12.8834  -14.8627   20.6176 C   0  0  0  0  0  0  0  0  0  0  0  0
   12.4483  -14.9903   22.0484 C   0  0  0  0  0  0  0  0  0  0  0  0
   11.5034  -16.1281   22.2154 C   0  0  2  0  0  0  0  0  0  0  0  0
   10.4484  -16.0928   21.1979 N   0  0  0  0  0  0  0  0  0  0  0  0
   10.8114  -16.0406   23.5182 C   0  0  0  0  0  0  0  0  0  0  0  0
    9.9421  -15.1787   23.8068 O   0  0  0  0  0  0  0  0  0  0  0  0
   11.0931  -16.9548   24.5623 O   0  0  0  0  0  0  0  0  0  0  0  0
  2  1  1  6
  2  3  1  0
  3  4  1  0
  4  5  1  0
  5  6  1  0
  6  7  1  0
  8  9  2  0
  8  2  1  0
 10  8  1  0
 11 10  1  0
 11 17  1  0
 11 12  1  1
 13 14  1  0
 13 12  1  0
 15 16  1  0
 15 14  1  0
 17 18  2  0
 19 20  1  0
 20 21  2  0
 20 22  1  0
 22 23  1  0
 24 23  1  0
 24 25  1  0
 26 25  1  6
 27 17  1  0
 27 26  1  0
 28 30  1  0
 28 26  1  0
 29 28  2  0
M  END
$$$$
