KKR.pdb
     RDKit          3D

 30 29  0  0  1  0  0  0  0  0999 V2000
    9.9664  -14.6407   17.5831 N   0  0  0  0  0  0  0  0  0  0  0  0
    9.1607  -13.9422   18.5262 C   0  0  1  0  0  0  0  0  0  0  0  0
    7.8905  -13.5033   17.8301 C   0  0  0  0  0  0  0  0  0  0  0  0
    8.1450  -13.6976   16.3396 C   0  0  0  0  0  0  0  0  0  0  0  0
    6.9591  -14.2413   15.6043 C   0  0  0  0  0  0  0  0  0  0  0  0
    7.2368  -14.3665   14.1317 C   0  0  0  0  0  0  0  0  0  0  0  0
    6.0386  -14.8511   13.4653 N   0  0  0  0  0  0  0  0  0  0  0  0
    8.8597  -14.8362   19.6826 C   0  0  0  0  0  0  0  0  0  0  0  0
    8.0930  -14.4613   20.6073 O   0  0  0  0  0  0  0  0  0  0  0  0
    9.4372  -16.1091   19.7403 N   0  0  0  0  0  0  0  0  0  0  0  0
    9.2298  -17.1475   20.7133 C   0  0  1  0  0  0  0  0  0  0  0  0
    9.8437  -18.4912   20.3760 C   0  0  0  0  0  0  0  0  0  0  0  0
    9.5701  -19.5215   21.4412 C   0  0  0  0  0  0  0  0  0  0  0  0
   10.1641  -20.8641   21.1055 C   0  0  0  0  0  0  0  0  0  0  0  0
    9.8682  -21.9072   22.1306 C   0  0  0  0  0  0  0  0  0  0  0  0
   10.5717  -23.1475   21.7815 N   0  0  0  0  0  0  0  0  0  0  0  0
    9.4088  -16.7187   22.0938 C   0  0  0  0  0  0  0  0  0  0  0  0
   10.5683  -16.5132   22.5888 O   0  0  0  0  0  0  0  0  0  0  0  0
    6.7084  -10.8634   25.6972 N   0  0  0  0  0  0  0  0  0  0  0  0
    6.3156  -11.3225   26.9707 C   0  0  0  0  0  0  0  0  0  0  0  0
    6.3528  -10.5031   27.9595 N   0  0  0  0  0  0  0  0  0  0  0  0
    5.8912  -12.6779   27.1226 N   0  0  0  0  0  0  0  0  0  0  0  0
    5.8979  -13.4843   25.9218 C   0  0  0  0  0  0  0  0  0  0  0  0
    7.2526  -14.1593   25.7002 C   0  0  0  0  0  0  0  0  0  0  0  0
    7.1626  -14.9521   24.4289 C   0  0  0  0  0  0  0  0  0  0  0  0
    8.4127  -15.7257   24.1972 C   0  0  2  0  0  0  0  0  0  0  0  0
    8.3293  -16.5065   22.9589 N   0  0  0  0  0  0  0  0  0  0  0  0
    8.6231  -16.7082   25.2809 C   0  0  0  0  0  0  0  0  0  0  0  0
    8.0766  -17.8398   25.3327 O   0  0  0  0  0  0  0  0  0  0  0  0
    9.4845  -16.4278   26.3692 O   0  0  0  0  0  0  0  0  0  0  0  0
  2  1  1  6
  2  3  1  0
  3  4  1  0
  4  5  1  0
  5  6  1  0
  6  7  1  0
  8  9  2  0
  8  2  1  0
 10  8  1  0
 11 10  1  0
 11 17  1  0
 11 12  1  6
 13 14  1  0
 13 12  1  0
 15 16  1  0
 15 14  1  0
 17 18  2  0
 19 20  1  0
 20 21  2  0
 20 22  1  0
 22 23  1  0
 24 23  1  0
 24 25  1  0
 26 25  1  1
 27 17  1  0
 27 26  1  0
 28 30  1  0
 28 26  1  0
 29 28  2  0
M  END
$$$$
