KKR.pdb
     RDKit          3D

 30 29  0  0  1  0  0  0  0  0999 V2000
    4.9010  -19.4109   19.7389 N   0  0  0  0  0  0  0  0  0  0  0  0
    6.1500  -18.8440   20.1199 C   0  0  1  0  0  0  0  0  0  0  0  0
    6.4294  -17.6634   19.2151 C   0  0  0  0  0  0  0  0  0  0  0  0
    6.1808  -18.1599   17.7953 C   0  0  0  0  0  0  0  0  0  0  0  0
    7.0290  -17.4702   16.7718 C   0  0  0  0  0  0  0  0  0  0  0  0
    8.1468  -18.3574   16.2975 C   0  0  0  0  0  0  0  0  0  0  0  0
    8.9389  -17.6341   15.3158 N   0  0  0  0  0  0  0  0  0  0  0  0
    6.0903  -18.4237   21.5506 C   0  0  0  0  0  0  0  0  0  0  0  0
    5.7051  -17.2691   21.8698 O   0  0  0  0  0  0  0  0  0  0  0  0
    6.4673  -19.3252   22.5517 N   0  0  0  0  0  0  0  0  0  0  0  0
    6.9347  -19.0470   23.8828 C   0  0  1  0  0  0  0  0  0  0  0  0
    6.8464  -20.2009   24.8611 C   0  0  0  0  0  0  0  0  0  0  0  0
    7.2988  -19.8066   26.2434 C   0  0  0  0  0  0  0  0  0  0  0  0
    7.2372  -20.9551   27.2157 C   0  0  0  0  0  0  0  0  0  0  0  0
    7.7036  -20.5880   28.5847 C   0  0  0  0  0  0  0  0  0  0  0  0
    7.7692  -21.7951   29.4175 N   0  0  0  0  0  0  0  0  0  0  0  0
    8.1784  -18.2906   23.9348 C   0  0  0  0  0  0  0  0  0  0  0  0
    9.2698  -18.7584   23.4638 O   0  0  0  0  0  0  0  0  0  0  0  0
    9.3531  -12.1881   18.9644 N   0  0  0  0  0  0  0  0  0  0  0  0
    8.3139  -12.7472   19.7355 C   0  0  0  0  0  0  0  0  0  0  0  0
    7.1673  -12.1677   19.7366 N   0  0  0  0  0  0  0  0  0  0  0  0
    8.5661  -13.9343   20.4888 N   0  0  0  0  0  0  0  0  0  0  0  0
    9.4438  -13.7888   21.6292 C   0  0  0  0  0  0  0  0  0  0  0  0
    9.6746  -15.1235   22.3403 C   0  0  0  0  0  0  0  0  0  0  0  0
    9.3130  -14.9368   23.7850 C   0  0  0  0  0  0  0  0  0  0  0  0
    9.4804  -16.2076   24.5416 C   0  0  2  0  0  0  0  0  0  0  0  0
    8.2557  -17.0127   24.5001 N   0  0  0  0  0  0  0  0  0  0  0  0
    9.7337  -15.9306   25.9709 C   0  0  0  0  0  0  0  0  0  0  0  0
   10.7264  -15.2941   26.4083 O   0  0  0  0  0  0  0  0  0  0  0  0
    8.8426  -16.3806   26.9752 O   0  0  0  0  0  0  0  0  0  0  0  0
  2  1  1  6
  2  3  1  0
  3  4  1  0
  4  5  1  0
  5  6  1  0
  6  7  1  0
  8  9  2  0
  8  2  1  0
 10  8  1  0
 11 10  1  0
 11 17  1  0
 11 12  1  6
 13 14  1  0
 13 12  1  0
 15 16  1  0
 15 14  1  0
 17 18  2  0
 19 20  1  0
 20 21  2  0
 20 22  1  0
 22 23  1  0
 24 23  1  0
 24 25  1  0
 26 25  1  6
 27 17  1  0
 27 26  1  0
 28 30  1  0
 28 26  1  0
 29 28  2  0
M  END
$$$$
