KKR.pdb
     RDKit          3D

 30 29  0  0  1  0  0  0  0  0999 V2000
    8.3983  -17.4948   16.1751 N   0  0  0  0  0  0  0  0  0  0  0  0
    9.2497  -16.7459   17.0357 C   0  0  1  0  0  0  0  0  0  0  0  0
    8.7065  -15.3363   17.1290 C   0  0  0  0  0  0  0  0  0  0  0  0
    8.8466  -14.7436   15.7315 C   0  0  0  0  0  0  0  0  0  0  0  0
    8.2264  -13.3868   15.6009 C   0  0  0  0  0  0  0  0  0  0  0  0
    8.3775  -12.8464   14.2057 C   0  0  0  0  0  0  0  0  0  0  0  0
    7.0643  -12.7653   13.5864 N   0  0  0  0  0  0  0  0  0  0  0  0
    9.2958  -17.3952   18.3787 C   0  0  0  0  0  0  0  0  0  0  0  0
    8.2543  -17.8656   18.9055 O   0  0  0  0  0  0  0  0  0  0  0  0
   10.5132  -17.4827   19.0622 N   0  0  0  0  0  0  0  0  0  0  0  0
   10.7812  -18.0604   20.3515 C   0  0  1  0  0  0  0  0  0  0  0  0
   11.5956  -19.3383   20.3385 C   0  0  0  0  0  0  0  0  0  0  0  0
   10.8865  -20.4536   19.6145 C   0  0  0  0  0  0  0  0  0  0  0  0
    9.8765  -21.1517   20.4867 C   0  0  0  0  0  0  0  0  0  0  0  0
    9.2175  -22.3064   19.8091 C   0  0  0  0  0  0  0  0  0  0  0  0
    8.2402  -22.9138   20.7208 N   0  0  0  0  0  0  0  0  0  0  0  0
   11.1679  -17.0951   21.3714 C   0  0  0  0  0  0  0  0  0  0  0  0
   12.1365  -16.2814   21.1938 O   0  0  0  0  0  0  0  0  0  0  0  0
   11.7748  -15.6392   28.4356 N   0  0  0  0  0  0  0  0  0  0  0  0
   10.6057  -15.1002   29.0096 C   0  0  0  0  0  0  0  0  0  0  0  0
   10.4644  -15.1543   30.2854 N   0  0  0  0  0  0  0  0  0  0  0  0
    9.6184  -14.5139   28.1599 N   0  0  0  0  0  0  0  0  0  0  0  0
    9.2498  -15.2812   26.9905 C   0  0  0  0  0  0  0  0  0  0  0  0
   10.3194  -15.2006   25.8998 C   0  0  0  0  0  0  0  0  0  0  0  0
    9.8582  -16.0455   24.7482 C   0  0  0  0  0  0  0  0  0  0  0  0
   10.8606  -16.0346   23.6480 C   0  0  2  0  0  0  0  0  0  0  0  0
   10.5075  -16.9989   22.6015 N   0  0  0  0  0  0  0  0  0  0  0  0
   12.1866  -16.4510   24.1505 C   0  0  0  0  0  0  0  0  0  0  0  0
   12.5171  -17.6412   24.3874 O   0  0  0  0  0  0  0  0  0  0  0  0
   13.2061  -15.5021   24.4062 O   0  0  0  0  0  0  0  0  0  0  0  0
  2  1  1  6
  2  3  1  0
  3  4  1  0
  4  5  1  0
  5  6  1  0
  6  7  1  0
  8  9  2  0
  8  2  1  0
 10  8  1  0
 11 10  1  0
 11 17  1  0
 11 12  1  6
 13 14  1  0
 13 12  1  0
 15 16  1  0
 15 14  1  0
 17 18  2  0
 19 20  1  0
 20 21  2  0
 20 22  1  0
 22 23  1  0
 24 23  1  0
 24 25  1  0
 26 25  1  1
 27 17  1  0
 27 26  1  0
 28 30  1  0
 28 26  1  0
 29 28  2  0
M  END
$$$$
