KKR.pdb
     RDKit          3D

 30 29  0  0  1  0  0  0  0  0999 V2000
    5.0272  -16.7788   21.1348 N   0  0  0  0  0  0  0  0  0  0  0  0
    6.3496  -16.7563   21.6612 C   0  0  1  0  0  0  0  0  0  0  0  0
    6.8861  -15.3469   21.5327 C   0  0  0  0  0  0  0  0  0  0  0  0
    7.3040  -15.1926   20.0748 C   0  0  0  0  0  0  0  0  0  0  0  0
    7.9192  -13.8607   19.7749 C   0  0  0  0  0  0  0  0  0  0  0  0
    8.2752  -13.7359   18.3192 C   0  0  0  0  0  0  0  0  0  0  0  0
    8.8549  -12.4229   18.0862 N   0  0  0  0  0  0  0  0  0  0  0  0
    6.3253  -17.1952   23.0874 C   0  0  0  0  0  0  0  0  0  0  0  0
    5.5607  -16.6435   23.9207 O   0  0  0  0  0  0  0  0  0  0  0  0
    7.1636  -18.2345   23.5047 N   0  0  0  0  0  0  0  0  0  0  0  0
    7.4386  -18.6863   24.8419 C   0  0  1  0  0  0  0  0  0  0  0  0
    7.3186  -20.1804   25.0646 C   0  0  0  0  0  0  0  0  0  0  0  0
    7.5167  -20.5544   26.5109 C   0  0  0  0  0  0  0  0  0  0  0  0
    7.4930  -22.0450   26.7255 C   0  0  0  0  0  0  0  0  0  0  0  0
    7.7473  -22.4358   28.1429 C   0  0  0  0  0  0  0  0  0  0  0  0
    7.5712  -23.8860   28.2880 N   0  0  0  0  0  0  0  0  0  0  0  0
    8.6039  -18.0647   25.4561 C   0  0  0  0  0  0  0  0  0  0  0  0
    9.7686  -18.1642   24.9409 O   0  0  0  0  0  0  0  0  0  0  0  0
    5.5028  -11.7629   27.0757 N   0  0  0  0  0  0  0  0  0  0  0  0
    6.2165  -11.7069   25.8615 C   0  0  0  0  0  0  0  0  0  0  0  0
    5.8028  -10.9131   24.9398 N   0  0  0  0  0  0  0  0  0  0  0  0
    7.3714  -12.5303   25.6932 N   0  0  0  0  0  0  0  0  0  0  0  0
    7.6832  -13.4196   26.7905 C   0  0  0  0  0  0  0  0  0  0  0  0
    8.9424  -14.2426   26.5124 C   0  0  0  0  0  0  0  0  0  0  0  0
    9.1253  -15.1941   27.6587 C   0  0  0  0  0  0  0  0  0  0  0  0
    9.6188  -16.5137   27.1785 C   0  0  2  0  0  0  0  0  0  0  0  0
    8.5218  -17.3245   26.6410 N   0  0  0  0  0  0  0  0  0  0  0  0
   10.1868  -17.2936   28.2979 C   0  0  0  0  0  0  0  0  0  0  0  0
   11.2497  -17.0008   28.9031 O   0  0  0  0  0  0  0  0  0  0  0  0
    9.5472  -18.4624   28.7775 O   0  0  0  0  0  0  0  0  0  0  0  0
  2  1  1  1
  2  3  1  0
  3  4  1  0
  4  5  1  0
  5  6  1  0
  6  7  1  0
  8  9  2  0
  8  2  1  0
 10  8  1  0
 11 10  1  0
 11 17  1  0
 11 12  1  6
 13 14  1  0
 13 12  1  0
 15 16  1  0
 15 14  1  0
 17 18  2  0
 19 20  1  0
 20 21  2  0
 20 22  1  0
 22 23  1  0
 24 23  1  0
 24 25  1  0
 26 25  1  1
 27 17  1  0
 27 26  1  0
 28 30  1  0
 28 26  1  0
 29 28  2  0
M  END
$$$$
