CIW.pdb
     RDKit          3D

 29 30  0  0  1  0  0  0  0  0999 V2000
   19.4529   -9.8152  -23.5247 N   0  0  0  0  0  0  0  0  0  0  0  0
   19.2596   -9.7224  -22.0906 C   0  0  1  0  0  0  0  0  0  0  0  0
   19.9512  -10.8938  -21.4262 C   0  0  0  0  0  0  0  0  0  0  0  0
   18.8517  -12.3356  -21.4337 S   0  0  0  0  0  0  0  0  0  0  0  0
   19.8325   -8.4267  -21.6446 C   0  0  0  0  0  0  0  0  0  0  0  0
   20.5815   -7.7484  -22.3915 O   0  0  0  0  0  0  0  0  0  0  0  0
   18.5344   -3.4856  -19.8049 C   0  0  0  0  0  0  0  0  0  0  0  0
   19.1190   -4.5190  -18.8751 C   0  0  0  0  0  0  0  0  0  0  0  0
   18.7368   -5.9303  -19.2487 C   0  0  2  0  0  0  0  0  0  0  0  0
   18.1574   -6.6919  -18.1038 C   0  0  0  0  0  0  0  0  0  0  0  0
   19.9317   -6.5884  -19.8958 C   0  0  2  0  0  0  0  0  0  0  0  0
   19.5406   -7.9123  -20.3335 N   0  0  0  0  0  0  0  0  0  0  0  0
   21.0955   -6.6421  -18.9691 C   0  0  0  0  0  0  0  0  0  0  0  0
   21.7610   -5.6000  -18.7669 O   0  0  0  0  0  0  0  0  0  0  0  0
   21.5079   -7.8169  -18.2878 N   0  0  0  0  0  0  0  0  0  0  0  0
   22.6727   -7.8166  -17.4255 C   0  0  1  0  0  0  0  0  0  0  0  0
   23.9215   -7.3699  -18.1582 C   0  0  0  0  0  0  0  0  0  0  0  0
   25.0546   -8.2890  -17.9241 C   0  0  0  0  0  0  0  0  0  0  0  0
   26.0518   -8.6065  -18.8178 C   0  0  0  0  0  0  0  0  0  0  0  0
   26.9115   -9.4870  -18.2250 N   0  0  0  0  0  0  0  0  0  0  0  0
   26.5021   -9.7478  -16.9800 C   0  0  0  0  0  0  0  0  0  0  0  0
   27.0251  -10.5616  -15.9949 C   0  0  0  0  0  0  0  0  0  0  0  0
   26.4032  -10.6587  -14.7748 C   0  0  0  0  0  0  0  0  0  0  0  0
   25.2538   -9.9288  -14.5626 C   0  0  0  0  0  0  0  0  0  0  0  0
   24.7293   -9.1080  -15.5613 C   0  0  0  0  0  0  0  0  0  0  0  0
   25.3355   -8.9999  -16.7803 C   0  0  0  0  0  0  0  0  0  0  0  0
   22.4516   -6.9898  -16.2097 C   0  0  0  0  0  0  0  0  0  0  0  0
   22.8327   -7.3802  -14.9482 O   0  0  0  0  0  0  0  0  0  0  0  0
   21.8903   -5.8890  -16.3610 O   0  0  0  0  0  0  0  0  0  0  0  0
  2  3  1  0
  2  1  1  6
  3  4  1  0
  5  6  2  0
  5  2  1  0
  8  7  1  0
  9 10  1  1
  9  8  1  0
 11 12  1  1
 11  9  1  0
 12  5  1  0
 13 11  1  0
 14 13  2  0
 15 13  1  0
 16 15  1  0
 16 17  1  6
 17 18  1  0
 18 26  1  0
 18 19  2  0
 19 20  1  0
 21 20  1  0
 21 22  2  0
 23 22  1  0
 24 23  2  0
 25 26  2  0
 25 24  1  0
 26 21  1  0
 27 16  1  0
 28 27  1  0
 29 27  2  0
M  END
$$$$
