CIW.pdb
     RDKit          3D

 29 30  0  0  1  0  0  0  0  0999 V2000
   22.4585  -19.2608  -15.1138 N   0  0  0  0  0  0  0  0  0  0  0  0
   22.8828  -18.9403  -13.7647 C   0  0  1  0  0  0  0  0  0  0  0  0
   21.6699  -18.9312  -12.8588 C   0  0  0  0  0  0  0  0  0  0  0  0
   20.8421  -17.3214  -12.9638 S   0  0  0  0  0  0  0  0  0  0  0  0
   23.8668  -19.9718  -13.3479 C   0  0  0  0  0  0  0  0  0  0  0  0
   23.5922  -21.1973  -13.3935 O   0  0  0  0  0  0  0  0  0  0  0  0
   28.6134  -20.0279  -15.1456 C   0  0  0  0  0  0  0  0  0  0  0  0
   27.3021  -20.1687  -14.4143 C   0  0  0  0  0  0  0  0  0  0  0  0
   27.4704  -20.2680  -12.9179 C   0  0  2  0  0  0  0  0  0  0  0  0
   28.5239  -21.2475  -12.5210 C   0  0  0  0  0  0  0  0  0  0  0  0
   26.1147  -20.5265  -12.3055 C   0  0  2  0  0  0  0  0  0  0  0  0
   25.1709  -19.5887  -12.8773 N   0  0  0  0  0  0  0  0  0  0  0  0
   26.1557  -20.4221  -10.8211 C   0  0  0  0  0  0  0  0  0  0  0  0
   27.0054  -19.6719  -10.2870 O   0  0  0  0  0  0  0  0  0  0  0  0
   25.2802  -21.1288   -9.9560 N   0  0  0  0  0  0  0  0  0  0  0  0
   25.4497  -21.0882   -8.5173 C   0  0  1  0  0  0  0  0  0  0  0  0
   25.4326  -19.6703   -7.9834 C   0  0  0  0  0  0  0  0  0  0  0  0
   26.7506  -19.2677   -7.4501 C   0  0  0  0  0  0  0  0  0  0  0  0
   27.6429  -18.3998   -8.0371 C   0  0  0  0  0  0  0  0  0  0  0  0
   28.7419  -18.2870   -7.2337 N   0  0  0  0  0  0  0  0  0  0  0  0
   28.5880  -19.0527   -6.1494 C   0  0  0  0  0  0  0  0  0  0  0  0
   29.4078  -19.2752   -5.0609 C   0  0  0  0  0  0  0  0  0  0  0  0
   29.0116  -20.1254   -4.0584 C   0  0  0  0  0  0  0  0  0  0  0  0
   27.7854  -20.7446   -4.1674 C   0  0  0  0  0  0  0  0  0  0  0  0
   26.9608  -20.5164   -5.2693 C   0  0  0  0  0  0  0  0  0  0  0  0
   27.3396  -19.6738   -6.2751 C   0  0  0  0  0  0  0  0  0  0  0  0
   24.4340  -21.9241   -7.8242 C   0  0  0  0  0  0  0  0  0  0  0  0
   24.5571  -22.3402   -6.5201 O   0  0  0  0  0  0  0  0  0  0  0  0
   23.4254  -22.2551   -8.4746 O   0  0  0  0  0  0  0  0  0  0  0  0
  2  3  1  0
  2  1  1  6
  3  4  1  0
  5  6  2  0
  5  2  1  0
  8  7  1  0
  9 10  1  6
  9  8  1  0
 11 12  1  6
 11  9  1  0
 12  5  1  0
 13 11  1  0
 14 13  2  0
 15 13  1  0
 16 15  1  0
 16 17  1  1
 17 18  1  0
 18 26  1  0
 18 19  2  0
 19 20  1  0
 21 20  1  0
 21 22  2  0
 23 22  1  0
 24 23  2  0
 25 26  2  0
 25 24  1  0
 26 21  1  0
 27 16  1  0
 28 27  1  0
 29 27  2  0
M  END
$$$$
