CIW.pdb
     RDKit          3D

 29 30  0  0  1  0  0  0  0  0999 V2000
   18.7265  -12.0568  -21.2222 N   0  0  0  0  0  0  0  0  0  0  0  0
   19.5604  -11.7151  -20.0862 C   0  0  1  0  0  0  0  0  0  0  0  0
   20.6467  -10.7651  -20.5439 C   0  0  0  0  0  0  0  0  0  0  0  0
   22.0098  -11.7066  -21.2808 S   0  0  0  0  0  0  0  0  0  0  0  0
   18.6862  -11.0902  -19.0610 C   0  0  0  0  0  0  0  0  0  0  0  0
   17.9217  -10.1340  -19.3448 O   0  0  0  0  0  0  0  0  0  0  0  0
   16.3267  -14.3897  -16.3345 C   0  0  0  0  0  0  0  0  0  0  0  0
   16.3539  -12.9225  -16.6819 C   0  0  0  0  0  0  0  0  0  0  0  0
   17.3138  -12.1327  -15.8262 C   0  0  2  0  0  0  0  0  0  0  0  0
   16.7116  -11.7065  -14.5291 C   0  0  0  0  0  0  0  0  0  0  0  0
   17.8691  -11.0020  -16.6584 C   0  0  2  0  0  0  0  0  0  0  0  0
   18.6938  -11.5695  -17.7048 N   0  0  0  0  0  0  0  0  0  0  0  0
   18.6344  -10.0340  -15.8257 C   0  0  0  0  0  0  0  0  0  0  0  0
   19.7763  -10.3509  -15.4187 O   0  0  0  0  0  0  0  0  0  0  0  0
   18.1469   -8.7533  -15.4560 N   0  0  0  0  0  0  0  0  0  0  0  0
   18.9431   -7.8493  -14.6503 C   0  0  1  0  0  0  0  0  0  0  0  0
   20.2877   -7.5576  -15.2849 C   0  0  0  0  0  0  0  0  0  0  0  0
   21.0368   -6.5270  -14.5364 C   0  0  0  0  0  0  0  0  0  0  0  0
   21.4786   -6.6160  -13.2361 C   0  0  0  0  0  0  0  0  0  0  0  0
   22.1299   -5.4600  -12.9114 N   0  0  0  0  0  0  0  0  0  0  0  0
   22.1226   -4.6293  -13.9581 C   0  0  0  0  0  0  0  0  0  0  0  0
   22.6427   -3.3613  -14.1252 C   0  0  0  0  0  0  0  0  0  0  0  0
   22.4985   -2.7065  -15.3233 C   0  0  0  0  0  0  0  0  0  0  0  0
   21.8270   -3.3433  -16.3443 C   0  0  0  0  0  0  0  0  0  0  0  0
   21.3034   -4.6246  -16.1703 C   0  0  0  0  0  0  0  0  0  0  0  0
   21.4380   -5.2900  -14.9852 C   0  0  0  0  0  0  0  0  0  0  0  0
   18.2119   -6.5872  -14.3622 C   0  0  0  0  0  0  0  0  0  0  0  0
   17.4249   -5.9399  -15.2845 O   0  0  0  0  0  0  0  0  0  0  0  0
   18.3302   -6.1055  -13.2203 O   0  0  0  0  0  0  0  0  0  0  0  0
  2  3  1  0
  2  1  1  6
  3  4  1  0
  5  6  2  0
  5  2  1  0
  8  7  1  0
  9 10  1  1
  9  8  1  0
 11 12  1  6
 11  9  1  0
 12  5  1  0
 13 11  1  0
 14 13  2  0
 15 13  1  0
 16 15  1  0
 16 17  1  6
 17 18  1  0
 18 26  1  0
 18 19  2  0
 19 20  1  0
 21 20  1  0
 21 22  2  0
 23 22  1  0
 24 23  2  0
 25 26  2  0
 25 24  1  0
 26 21  1  0
 27 16  1  0
 28 27  1  0
 29 27  2  0
M  END
$$$$
