CIW.pdb
     RDKit          3D

 29 30  0  0  1  0  0  0  0  0999 V2000
   26.2349  -15.9482  -16.5901 N   0  0  0  0  0  0  0  0  0  0  0  0
   26.6437  -16.2877  -15.2409 C   0  0  1  0  0  0  0  0  0  0  0  0
   26.0248  -15.2973  -14.2776 C   0  0  0  0  0  0  0  0  0  0  0  0
   26.8187  -13.6789  -14.4727 S   0  0  0  0  0  0  0  0  0  0  0  0
   26.1832  -17.6733  -14.9689 C   0  0  0  0  0  0  0  0  0  0  0  0
   24.9899  -18.0177  -15.1597 O   0  0  0  0  0  0  0  0  0  0  0  0
   28.5837  -21.6183  -17.0058 C   0  0  0  0  0  0  0  0  0  0  0  0
   27.6047  -20.7542  -16.2515 C   0  0  0  0  0  0  0  0  0  0  0  0
   27.6457  -20.9823  -14.7603 C   0  0  2  0  0  0  0  0  0  0  0  0
   27.4136  -22.4090  -14.3897 C   0  0  0  0  0  0  0  0  0  0  0  0
   26.6987  -20.0051  -14.1061 C   0  0  2  0  0  0  0  0  0  0  0  0
   27.1018  -18.6641  -14.4755 N   0  0  0  0  0  0  0  0  0  0  0  0
   26.6690  -20.1778  -12.6278 C   0  0  0  0  0  0  0  0  0  0  0  0
   27.7513  -20.2139  -11.9975 O   0  0  0  0  0  0  0  0  0  0  0  0
   25.4744  -20.3064  -11.8724 N   0  0  0  0  0  0  0  0  0  0  0  0
   25.5027  -20.7306  -10.4869 C   0  0  1  0  0  0  0  0  0  0  0  0
   26.5152  -19.9494   -9.6744 C   0  0  0  0  0  0  0  0  0  0  0  0
   26.5341  -20.3782   -8.2604 C   0  0  0  0  0  0  0  0  0  0  0  0
   25.8721  -21.4576   -7.7214 C   0  0  0  0  0  0  0  0  0  0  0  0
   26.1438  -21.5188   -6.3841 N   0  0  0  0  0  0  0  0  0  0  0  0
   26.9580  -20.5156   -6.0432 C   0  0  0  0  0  0  0  0  0  0  0  0
   27.5091  -20.1546   -4.8299 C   0  0  0  0  0  0  0  0  0  0  0  0
   28.3314  -19.0586   -4.7418 C   0  0  0  0  0  0  0  0  0  0  0  0
   28.5889  -18.3360   -5.8865 C   0  0  0  0  0  0  0  0  0  0  0  0
   28.0296  -18.7050   -7.1101 C   0  0  0  0  0  0  0  0  0  0  0  0
   27.2098  -19.7922   -7.2151 C   0  0  0  0  0  0  0  0  0  0  0  0
   24.1547  -20.6520   -9.8644 C   0  0  0  0  0  0  0  0  0  0  0  0
   23.7621  -21.4355   -8.8056 O   0  0  0  0  0  0  0  0  0  0  0  0
   23.3523  -19.8276  -10.3400 O   0  0  0  0  0  0  0  0  0  0  0  0
  2  3  1  0
  2  1  1  6
  3  4  1  0
  5  6  2  0
  5  2  1  0
  8  7  1  0
  9 10  1  6
  9  8  1  0
 11 12  1  1
 11  9  1  0
 12  5  1  0
 13 11  1  0
 14 13  2  0
 15 13  1  0
 16 15  1  0
 16 17  1  1
 17 18  1  0
 18 26  1  0
 18 19  2  0
 19 20  1  0
 21 20  1  0
 21 22  2  0
 23 22  1  0
 24 23  2  0
 25 26  2  0
 25 24  1  0
 26 21  1  0
 27 16  1  0
 28 27  1  0
 29 27  2  0
M  END
$$$$
