CIW.pdb
     RDKit          3D

 29 30  0  0  1  0  0  0  0  0999 V2000
   27.6240  -17.9522  -16.6540 N   0  0  0  0  0  0  0  0  0  0  0  0
   27.5520  -19.1587  -15.8530 C   0  0  1  0  0  0  0  0  0  0  0  0
   28.9398  -19.4976  -15.3518 C   0  0  0  0  0  0  0  0  0  0  0  0
   28.8847  -21.0389  -14.3984 S   0  0  0  0  0  0  0  0  0  0  0  0
   26.6161  -18.8953  -14.7302 C   0  0  0  0  0  0  0  0  0  0  0  0
   26.6539  -17.8189  -14.0828 O   0  0  0  0  0  0  0  0  0  0  0  0
   22.9829  -19.6382  -16.0271 C   0  0  0  0  0  0  0  0  0  0  0  0
   22.7785  -19.2360  -14.5881 C   0  0  0  0  0  0  0  0  0  0  0  0
   23.3791  -20.2175  -13.6117 C   0  0  2  0  0  0  0  0  0  0  0  0
   22.4754  -20.5107  -12.4610 C   0  0  0  0  0  0  0  0  0  0  0  0
   24.7481  -19.7162  -13.2188 C   0  0  2  0  0  0  0  0  0  0  0  0
   25.6341  -19.8763  -14.3531 N   0  0  0  0  0  0  0  0  0  0  0  0
   25.2668  -20.4257  -12.0173 C   0  0  0  0  0  0  0  0  0  0  0  0
   25.5762  -21.6361  -12.1116 O   0  0  0  0  0  0  0  0  0  0  0  0
   25.4367  -19.8101  -10.7498 N   0  0  0  0  0  0  0  0  0  0  0  0
   25.8868  -20.5685   -9.5997 C   0  0  1  0  0  0  0  0  0  0  0  0
   26.9426  -19.8249   -8.8071 C   0  0  0  0  0  0  0  0  0  0  0  0
   26.9887  -20.2711   -7.3991 C   0  0  0  0  0  0  0  0  0  0  0  0
   26.2334  -21.2708   -6.8300 C   0  0  0  0  0  0  0  0  0  0  0  0
   26.5699  -21.3812   -5.5107 N   0  0  0  0  0  0  0  0  0  0  0  0
   27.5161  -20.4867   -5.2105 C   0  0  0  0  0  0  0  0  0  0  0  0
   28.1732  -20.2096   -4.0283 C   0  0  0  0  0  0  0  0  0  0  0  0
   29.1245  -19.2208   -3.9804 C   0  0  0  0  0  0  0  0  0  0  0  0
   29.4025  -18.5193   -5.1335 C   0  0  0  0  0  0  0  0  0  0  0  0
   28.7357  -18.8031   -6.3255 C   0  0  0  0  0  0  0  0  0  0  0  0
   27.7870  -19.7834   -6.3904 C   0  0  0  0  0  0  0  0  0  0  0  0
   24.7499  -20.9596   -8.7249 C   0  0  0  0  0  0  0  0  0  0  0  0
   24.8136  -21.9861   -7.8132 O   0  0  0  0  0  0  0  0  0  0  0  0
   23.6925  -20.3124   -8.8377 O   0  0  0  0  0  0  0  0  0  0  0  0
  2  3  1  0
  2  1  1  6
  3  4  1  0
  5  6  2  0
  5  2  1  0
  8  7  1  0
  9 10  1  1
  9  8  1  0
 11 12  1  6
 11  9  1  0
 12  5  1  0
 13 11  1  0
 14 13  2  0
 15 13  1  0
 16 15  1  0
 16 17  1  1
 17 18  1  0
 18 26  1  0
 18 19  2  0
 19 20  1  0
 21 20  1  0
 21 22  2  0
 23 22  1  0
 24 23  2  0
 25 26  2  0
 25 24  1  0
 26 21  1  0
 27 16  1  0
 28 27  1  0
 29 27  2  0
M  END
$$$$
