CIW.pdb
     RDKit          3D

 29 30  0  0  1  0  0  0  0  0999 V2000
   28.2828  -21.2845  -14.4458 N   0  0  0  0  0  0  0  0  0  0  0  0
   27.6138  -20.2691  -13.6558 C   0  0  1  0  0  0  0  0  0  0  0  0
   26.7408  -19.4345  -14.5685 C   0  0  0  0  0  0  0  0  0  0  0  0
   27.7837  -18.4071  -15.6384 S   0  0  0  0  0  0  0  0  0  0  0  0
   26.8095  -20.9659  -12.6196 C   0  0  0  0  0  0  0  0  0  0  0  0
   26.3968  -22.1407  -12.7891 O   0  0  0  0  0  0  0  0  0  0  0  0
   27.8461  -19.5753   -7.4998 C   0  0  0  0  0  0  0  0  0  0  0  0
   27.4305  -20.3492   -8.7256 C   0  0  0  0  0  0  0  0  0  0  0  0
   25.9631  -20.2013   -9.0455 C   0  0  2  0  0  0  0  0  0  0  0  0
   25.0829  -20.6101   -7.9120 C   0  0  0  0  0  0  0  0  0  0  0  0
   25.6867  -20.9229  -10.3426 C   0  0  2  0  0  0  0  0  0  0  0  0
   26.4805  -20.3057  -11.3848 N   0  0  0  0  0  0  0  0  0  0  0  0
   24.2368  -20.9068  -10.6797 C   0  0  0  0  0  0  0  0  0  0  0  0
   23.4218  -21.4341   -9.8875 O   0  0  0  0  0  0  0  0  0  0  0  0
   23.7078  -20.3231  -11.8603 N   0  0  0  0  0  0  0  0  0  0  0  0
   22.2810  -20.2990  -12.1133 C   0  0  1  0  0  0  0  0  0  0  0  0
   21.9341  -20.8877  -13.4657 C   0  0  0  0  0  0  0  0  0  0  0  0
   22.6111  -20.1718  -14.5669 C   0  0  0  0  0  0  0  0  0  0  0  0
   23.8455  -20.4653  -15.0999 C   0  0  0  0  0  0  0  0  0  0  0  0
   24.1168  -19.5754  -16.1002 N   0  0  0  0  0  0  0  0  0  0  0  0
   23.0995  -18.7188  -16.2296 C   0  0  0  0  0  0  0  0  0  0  0  0
   22.9016  -17.6539  -17.0859 C   0  0  0  0  0  0  0  0  0  0  0  0
   21.7464  -16.9153  -17.0163 C   0  0  0  0  0  0  0  0  0  0  0  0
   20.7992  -17.2625  -16.0776 C   0  0  0  0  0  0  0  0  0  0  0  0
   21.0041  -18.3394  -15.2147 C   0  0  0  0  0  0  0  0  0  0  0  0
   22.1474  -19.0845  -15.2706 C   0  0  0  0  0  0  0  0  0  0  0  0
   21.5233  -20.9821  -11.0317 C   0  0  0  0  0  0  0  0  0  0  0  0
   20.1528  -20.9522  -10.9313 O   0  0  0  0  0  0  0  0  0  0  0  0
   22.1809  -21.6094  -10.1809 O   0  0  0  0  0  0  0  0  0  0  0  0
  2  3  1  0
  2  1  1  6
  3  4  1  0
  5  6  2  0
  5  2  1  0
  8  7  1  0
  9 10  1  1
  9  8  1  0
 11 12  1  6
 11  9  1  0
 12  5  1  0
 13 11  1  0
 14 13  2  0
 15 13  1  0
 16 15  1  0
 16 17  1  6
 17 18  1  0
 18 26  1  0
 18 19  2  0
 19 20  1  0
 21 20  1  0
 21 22  2  0
 23 22  1  0
 24 23  2  0
 25 26  2  0
 25 24  1  0
 26 21  1  0
 27 16  1  0
 28 27  1  0
 29 27  2  0
M  END
$$$$
