CIW.pdb
     RDKit          3D

 29 30  0  0  1  0  0  0  0  0999 V2000
   27.2346  -20.4471  -16.9093 N   0  0  0  0  0  0  0  0  0  0  0  0
   27.1163  -21.3763  -15.8025 C   0  0  1  0  0  0  0  0  0  0  0  0
   28.5004  -21.8422  -15.4038 C   0  0  0  0  0  0  0  0  0  0  0  0
   29.1499  -22.9730  -16.6636 S   0  0  0  0  0  0  0  0  0  0  0  0
   26.4396  -20.6628  -14.6894 C   0  0  0  0  0  0  0  0  0  0  0  0
   26.6380  -19.4403  -14.4765 O   0  0  0  0  0  0  0  0  0  0  0  0
   21.3532  -20.8019  -14.1441 C   0  0  0  0  0  0  0  0  0  0  0  0
   22.8250  -20.5098  -13.9928 C   0  0  0  0  0  0  0  0  0  0  0  0
   23.4131  -21.0891  -12.7294 C   0  0  2  0  0  0  0  0  0  0  0  0
   22.6491  -20.7004  -11.5080 C   0  0  0  0  0  0  0  0  0  0  0  0
   24.8808  -20.7373  -12.6864 C   0  0  2  0  0  0  0  0  0  0  0  0
   25.5317  -21.3614  -13.8195 N   0  0  0  0  0  0  0  0  0  0  0  0
   25.5059  -21.1537  -11.4011 C   0  0  0  0  0  0  0  0  0  0  0  0
   25.5662  -22.3733  -11.1206 O   0  0  0  0  0  0  0  0  0  0  0  0
   26.0475  -20.2438  -10.4561 N   0  0  0  0  0  0  0  0  0  0  0  0
   26.6474  -20.7096   -9.2218 C   0  0  1  0  0  0  0  0  0  0  0  0
   27.7967  -19.8265   -8.7803 C   0  0  0  0  0  0  0  0  0  0  0  0
   28.4493  -20.3429   -7.5592 C   0  0  0  0  0  0  0  0  0  0  0  0
   29.1596  -21.5157   -7.4419 C   0  0  0  0  0  0  0  0  0  0  0  0
   29.6043  -21.6352   -6.1558 N   0  0  0  0  0  0  0  0  0  0  0  0
   29.2045  -20.5795   -5.4408 C   0  0  0  0  0  0  0  0  0  0  0  0
   29.3982  -20.2439   -4.1156 C   0  0  0  0  0  0  0  0  0  0  0  0
   28.8736  -19.0790   -3.6127 C   0  0  0  0  0  0  0  0  0  0  0  0
   28.1554  -18.2622   -4.4587 C   0  0  0  0  0  0  0  0  0  0  0  0
   27.9626  -18.6058   -5.7970 C   0  0  0  0  0  0  0  0  0  0  0  0
   28.4776  -19.7607   -6.3131 C   0  0  0  0  0  0  0  0  0  0  0  0
   25.6369  -20.8392   -8.1388 C   0  0  0  0  0  0  0  0  0  0  0  0
   25.6797  -21.8191   -7.1759 O   0  0  0  0  0  0  0  0  0  0  0  0
   24.7105  -20.0080   -8.1184 O   0  0  0  0  0  0  0  0  0  0  0  0
  2  3  1  0
  2  1  1  6
  3  4  1  0
  5  6  2  0
  5  2  1  0
  8  7  1  0
  9 10  1  1
  9  8  1  0
 11 12  1  6
 11  9  1  0
 12  5  1  0
 13 11  1  0
 14 13  2  0
 15 13  1  0
 16 15  1  0
 16 17  1  1
 17 18  1  0
 18 26  1  0
 18 19  2  0
 19 20  1  0
 21 20  1  0
 21 22  2  0
 23 22  1  0
 24 23  2  0
 25 26  2  0
 25 24  1  0
 26 21  1  0
 27 16  1  0
 28 27  1  0
 29 27  2  0
M  END
$$$$
