CIW.pdb
     RDKit          3D

 29 30  0  0  1  0  0  0  0  0999 V2000
   19.9279  -20.8854  -13.0463 N   0  0  0  0  0  0  0  0  0  0  0  0
   21.0189  -19.9627  -12.7990 C   0  0  1  0  0  0  0  0  0  0  0  0
   20.5945  -18.9772  -11.7310 C   0  0  0  0  0  0  0  0  0  0  0  0
   19.6184  -17.6465  -12.4820 S   0  0  0  0  0  0  0  0  0  0  0  0
   22.1928  -20.7632  -12.3666 C   0  0  0  0  0  0  0  0  0  0  0  0
   22.0763  -21.7103  -11.5488 O   0  0  0  0  0  0  0  0  0  0  0  0
   25.4433  -22.6091  -15.9425 C   0  0  0  0  0  0  0  0  0  0  0  0
   24.7130  -22.2992  -14.6599 C   0  0  0  0  0  0  0  0  0  0  0  0
   25.5269  -21.4573  -13.7079 C   0  0  2  0  0  0  0  0  0  0  0  0
   26.8717  -22.0408  -13.4292 C   0  0  0  0  0  0  0  0  0  0  0  0
   24.6927  -21.1947  -12.4772 C   0  0  2  0  0  0  0  0  0  0  0  0
   23.5046  -20.4704  -12.8787 N   0  0  0  0  0  0  0  0  0  0  0  0
   25.4620  -20.4497  -11.4432 C   0  0  0  0  0  0  0  0  0  0  0  0
   25.7902  -19.2614  -11.6674 O   0  0  0  0  0  0  0  0  0  0  0  0
   25.8550  -21.0068  -10.1984 N   0  0  0  0  0  0  0  0  0  0  0  0
   26.7697  -20.3088   -9.3172 C   0  0  1  0  0  0  0  0  0  0  0  0
   26.4307  -20.5291   -7.8570 C   0  0  0  0  0  0  0  0  0  0  0  0
   27.2503  -19.6795   -6.9681 C   0  0  0  0  0  0  0  0  0  0  0  0
   27.4570  -18.3244   -7.0899 C   0  0  0  0  0  0  0  0  0  0  0  0
   28.2708  -17.9094   -6.0742 N   0  0  0  0  0  0  0  0  0  0  0  0
   28.5954  -18.9509   -5.3026 C   0  0  0  0  0  0  0  0  0  0  0  0
   29.3817  -19.0434   -4.1714 C   0  0  0  0  0  0  0  0  0  0  0  0
   29.5618  -20.2547   -3.5508 C   0  0  0  0  0  0  0  0  0  0  0  0
   28.9424  -21.3648   -4.0828 C   0  0  0  0  0  0  0  0  0  0  0  0
   28.1489  -21.2659   -5.2259 C   0  0  0  0  0  0  0  0  0  0  0  0
   27.9593  -20.0688   -5.8554 C   0  0  0  0  0  0  0  0  0  0  0  0
   28.1828  -20.6810   -9.5916 C   0  0  0  0  0  0  0  0  0  0  0  0
   29.1991  -19.7631   -9.7085 O   0  0  0  0  0  0  0  0  0  0  0  0
   28.4408  -21.8921   -9.7192 O   0  0  0  0  0  0  0  0  0  0  0  0
  2  3  1  0
  2  1  1  1
  3  4  1  0
  5  6  2  0
  5  2  1  0
  8  7  1  0
  9 10  1  1
  9  8  1  0
 11 12  1  6
 11  9  1  0
 12  5  1  0
 13 11  1  0
 14 13  2  0
 15 13  1  0
 16 15  1  0
 16 17  1  1
 17 18  1  0
 18 26  1  0
 18 19  2  0
 19 20  1  0
 21 20  1  0
 21 22  2  0
 23 22  1  0
 24 23  2  0
 25 26  2  0
 25 24  1  0
 26 21  1  0
 27 16  1  0
 28 27  1  0
 29 27  2  0
M  END
$$$$
