CIW.pdb
     RDKit          3D

 29 30  0  0  1  0  0  0  0  0999 V2000
   24.8496  -17.2043  -15.9854 N   0  0  0  0  0  0  0  0  0  0  0  0
   25.9317  -17.7637  -15.1989 C   0  0  1  0  0  0  0  0  0  0  0  0
   26.7791  -16.6323  -14.6569 C   0  0  0  0  0  0  0  0  0  0  0  0
   27.7236  -15.8763  -16.0074 S   0  0  0  0  0  0  0  0  0  0  0  0
   25.3232  -18.5618  -14.1041 C   0  0  0  0  0  0  0  0  0  0  0  0
   24.4078  -18.0940  -13.3814 O   0  0  0  0  0  0  0  0  0  0  0  0
   24.1117  -23.5918  -14.8557 C   0  0  0  0  0  0  0  0  0  0  0  0
   24.2209  -22.2071  -14.2685 C   0  0  0  0  0  0  0  0  0  0  0  0
   25.2132  -22.1253  -13.1345 C   0  0  2  0  0  0  0  0  0  0  0  0
   24.9012  -23.0754  -12.0270 C   0  0  0  0  0  0  0  0  0  0  0  0
   25.3241  -20.6817  -12.7063 C   0  0  2  0  0  0  0  0  0  0  0  0
   25.7719  -19.9031  -13.8423 N   0  0  0  0  0  0  0  0  0  0  0  0
   26.2393  -20.5246  -11.5427 C   0  0  0  0  0  0  0  0  0  0  0  0
   27.4700  -20.6895  -11.7099 O   0  0  0  0  0  0  0  0  0  0  0  0
   25.8016  -20.1946  -10.2336 N   0  0  0  0  0  0  0  0  0  0  0  0
   26.7370  -20.0913   -9.1315 C   0  0  1  0  0  0  0  0  0  0  0  0
   26.3597  -18.9842   -8.1683 C   0  0  0  0  0  0  0  0  0  0  0  0
   27.4194  -18.7412   -7.1676 C   0  0  0  0  0  0  0  0  0  0  0  0
   28.3580  -17.7352   -7.1942 C   0  0  0  0  0  0  0  0  0  0  0  0
   29.1577  -17.8489   -6.0926 N   0  0  0  0  0  0  0  0  0  0  0  0
   28.7664  -18.8937   -5.3574 C   0  0  0  0  0  0  0  0  0  0  0  0
   29.2486  -19.4122   -4.1721 C   0  0  0  0  0  0  0  0  0  0  0  0
   28.6586  -20.5166   -3.6089 C   0  0  0  0  0  0  0  0  0  0  0  0
   27.5825  -21.0877   -4.2528 C   0  0  0  0  0  0  0  0  0  0  0  0
   27.0990  -20.5599   -5.4503 C   0  0  0  0  0  0  0  0  0  0  0  0
   27.6742  -19.4621   -6.0239 C   0  0  0  0  0  0  0  0  0  0  0  0
   26.8813  -21.3860   -8.4148 C   0  0  0  0  0  0  0  0  0  0  0  0
   28.0960  -21.9562   -8.1173 O   0  0  0  0  0  0  0  0  0  0  0  0
   25.8364  -21.9706   -8.0739 O   0  0  0  0  0  0  0  0  0  0  0  0
  2  3  1  0
  2  1  1  6
  3  4  1  0
  5  6  2  0
  5  2  1  0
  8  7  1  0
  9 10  1  1
  9  8  1  0
 11 12  1  6
 11  9  1  0
 12  5  1  0
 13 11  1  0
 14 13  2  0
 15 13  1  0
 16 15  1  0
 16 17  1  1
 17 18  1  0
 18 26  1  0
 18 19  2  0
 19 20  1  0
 21 20  1  0
 21 22  2  0
 23 22  1  0
 24 23  2  0
 25 26  2  0
 25 24  1  0
 26 21  1  0
 27 16  1  0
 28 27  1  0
 29 27  2  0
M  END
$$$$
