CIW.pdb
     RDKit          3D

 29 30  0  0  1  0  0  0  0  0999 V2000
   28.9237  -20.9267  -14.7906 N   0  0  0  0  0  0  0  0  0  0  0  0
   28.2505  -20.0369  -13.8645 C   0  0  1  0  0  0  0  0  0  0  0  0
   27.5581  -18.9441  -14.6507 C   0  0  0  0  0  0  0  0  0  0  0  0
   28.7959  -17.8254  -15.3606 S   0  0  0  0  0  0  0  0  0  0  0  0
   27.2789  -20.8497  -13.0890 C   0  0  0  0  0  0  0  0  0  0  0  0
   26.7608  -21.8887  -13.5699 O   0  0  0  0  0  0  0  0  0  0  0  0
   27.1935  -19.9888   -7.7292 C   0  0  0  0  0  0  0  0  0  0  0  0
   27.0098  -20.6821   -9.0558 C   0  0  0  0  0  0  0  0  0  0  0  0
   25.6767  -20.3829   -9.6966 C   0  0  2  0  0  0  0  0  0  0  0  0
   24.5240  -20.8482   -8.8711 C   0  0  0  0  0  0  0  0  0  0  0  0
   25.6962  -20.9268  -11.1049 C   0  0  2  0  0  0  0  0  0  0  0  0
   26.9041  -20.4630  -11.7553 N   0  0  0  0  0  0  0  0  0  0  0  0
   24.4799  -20.5254  -11.8636 C   0  0  0  0  0  0  0  0  0  0  0  0
   24.3204  -19.3194  -12.1639 O   0  0  0  0  0  0  0  0  0  0  0  0
   23.4715  -21.4348  -12.2762 N   0  0  0  0  0  0  0  0  0  0  0  0
   22.4102  -21.0246  -13.1738 C   0  0  1  0  0  0  0  0  0  0  0  0
   22.6259  -21.5411  -14.5818 C   0  0  0  0  0  0  0  0  0  0  0  0
   21.5670  -21.0815  -15.5043 C   0  0  0  0  0  0  0  0  0  0  0  0
   21.4168  -19.8119  -16.0136 C   0  0  0  0  0  0  0  0  0  0  0  0
   20.3205  -19.7904  -16.8282 N   0  0  0  0  0  0  0  0  0  0  0  0
   19.7593  -21.0026  -16.8609 C   0  0  0  0  0  0  0  0  0  0  0  0
   18.6494  -21.4809  -17.5284 C   0  0  0  0  0  0  0  0  0  0  0  0
   18.2731  -22.7943  -17.3932 C   0  0  0  0  0  0  0  0  0  0  0  0
   19.0261  -23.6139  -16.5808 C   0  0  0  0  0  0  0  0  0  0  0  0
   20.1467  -23.1257  -15.9085 C   0  0  0  0  0  0  0  0  0  0  0  0
   20.5348  -21.8221  -16.0320 C   0  0  0  0  0  0  0  0  0  0  0  0
   21.0748  -21.4321  -12.6624 C   0  0  0  0  0  0  0  0  0  0  0  0
   19.9426  -20.6660  -12.8054 O   0  0  0  0  0  0  0  0  0  0  0  0
   20.9967  -22.5276  -12.0764 O   0  0  0  0  0  0  0  0  0  0  0  0
  2  3  1  0
  2  1  1  6
  3  4  1  0
  5  6  2  0
  5  2  1  0
  8  7  1  0
  9 10  1  1
  9  8  1  0
 11 12  1  6
 11  9  1  0
 12  5  1  0
 13 11  1  0
 14 13  2  0
 15 13  1  0
 16 15  1  0
 16 17  1  6
 17 18  1  0
 18 26  1  0
 18 19  2  0
 19 20  1  0
 21 20  1  0
 21 22  2  0
 23 22  1  0
 24 23  2  0
 25 26  2  0
 25 24  1  0
 26 21  1  0
 27 16  1  0
 28 27  1  0
 29 27  2  0
M  END
$$$$
