CIW.pdb
     RDKit          3D

 29 30  0  0  1  0  0  0  0  0999 V2000
   28.1799  -20.4431  -15.7016 N   0  0  0  0  0  0  0  0  0  0  0  0
   27.5937  -19.6184  -14.6629 C   0  0  1  0  0  0  0  0  0  0  0  0
   26.9329  -18.4174  -15.3054 C   0  0  0  0  0  0  0  0  0  0  0  0
   28.2027  -17.2804  -15.9237 S   0  0  0  0  0  0  0  0  0  0  0  0
   26.6095  -20.4546  -13.9294 C   0  0  0  0  0  0  0  0  0  0  0  0
   26.0039  -21.4012  -14.4920 O   0  0  0  0  0  0  0  0  0  0  0  0
   27.1700  -20.4329   -8.5724 C   0  0  0  0  0  0  0  0  0  0  0  0
   26.8194  -20.8795   -9.9695 C   0  0  0  0  0  0  0  0  0  0  0  0
   25.4004  -20.5418  -10.3566 C   0  0  2  0  0  0  0  0  0  0  0  0
   24.3913  -21.2045   -9.4796 C   0  0  0  0  0  0  0  0  0  0  0  0
   25.2313  -20.8272  -11.8296 C   0  0  2  0  0  0  0  0  0  0  0  0
   26.3232  -20.1983  -12.5433 N   0  0  0  0  0  0  0  0  0  0  0  0
   23.9104  -20.3573  -12.3300 C   0  0  0  0  0  0  0  0  0  0  0  0
   23.6709  -19.1277  -12.3538 O   0  0  0  0  0  0  0  0  0  0  0  0
   22.8866  -21.2260  -12.7901 N   0  0  0  0  0  0  0  0  0  0  0  0
   21.8096  -20.7409  -13.6297 C   0  0  1  0  0  0  0  0  0  0  0  0
   22.3232  -20.1466  -14.9254 C   0  0  0  0  0  0  0  0  0  0  0  0
   21.2308  -19.5722  -15.7379 C   0  0  0  0  0  0  0  0  0  0  0  0
   20.2990  -18.6479  -15.3239 C   0  0  0  0  0  0  0  0  0  0  0  0
   19.4610  -18.3693  -16.3662 N   0  0  0  0  0  0  0  0  0  0  0  0
   19.8212  -19.0825  -17.4372 C   0  0  0  0  0  0  0  0  0  0  0  0
   19.2955  -19.1503  -18.7121 C   0  0  0  0  0  0  0  0  0  0  0  0
   19.8598  -19.9786  -19.6504 C   0  0  0  0  0  0  0  0  0  0  0  0
   20.9545  -20.7331  -19.2882 C   0  0  0  0  0  0  0  0  0  0  0  0
   21.4819  -20.6610  -17.9987 C   0  0  0  0  0  0  0  0  0  0  0  0
   20.9328  -19.8423  -17.0535 C   0  0  0  0  0  0  0  0  0  0  0  0
   20.8064  -21.8046  -13.8996 C   0  0  0  0  0  0  0  0  0  0  0  0
   19.4532  -21.6293  -13.7349 O   0  0  0  0  0  0  0  0  0  0  0  0
   21.2324  -22.9055  -14.2949 O   0  0  0  0  0  0  0  0  0  0  0  0
  2  3  1  0
  2  1  1  6
  3  4  1  0
  5  6  2  0
  5  2  1  0
  8  7  1  0
  9 10  1  1
  9  8  1  0
 11 12  1  6
 11  9  1  0
 12  5  1  0
 13 11  1  0
 14 13  2  0
 15 13  1  0
 16 15  1  0
 16 17  1  6
 17 18  1  0
 18 26  1  0
 18 19  2  0
 19 20  1  0
 21 20  1  0
 21 22  2  0
 23 22  1  0
 24 23  2  0
 25 26  2  0
 25 24  1  0
 26 21  1  0
 27 16  1  0
 28 27  1  0
 29 27  2  0
M  END
$$$$
