CIW.pdb
     RDKit          3D

 29 30  0  0  1  0  0  0  0  0999 V2000
   28.6876  -21.6562  -15.3970 N   0  0  0  0  0  0  0  0  0  0  0  0
   28.0745  -20.5571  -14.6767 C   0  0  1  0  0  0  0  0  0  0  0  0
   27.5436  -19.5518  -15.6764 C   0  0  0  0  0  0  0  0  0  0  0  0
   28.9283  -18.6957  -16.4748 S   0  0  0  0  0  0  0  0  0  0  0  0
   26.9847  -21.1222  -13.8408 C   0  0  0  0  0  0  0  0  0  0  0  0
   26.2402  -22.0408  -14.2662 O   0  0  0  0  0  0  0  0  0  0  0  0
   27.4712  -20.4724   -8.4530 C   0  0  0  0  0  0  0  0  0  0  0  0
   27.0959  -21.0139   -9.8095 C   0  0  0  0  0  0  0  0  0  0  0  0
   25.7874  -20.4634  -10.3215 C   0  0  2  0  0  0  0  0  0  0  0  0
   24.6479  -20.7340   -9.3968 C   0  0  0  0  0  0  0  0  0  0  0  0
   25.5816  -20.9663  -11.7302 C   0  0  2  0  0  0  0  0  0  0  0  0
   26.7532  -20.6264  -12.5106 N   0  0  0  0  0  0  0  0  0  0  0  0
   24.3420  -20.4067  -12.3355 C   0  0  0  0  0  0  0  0  0  0  0  0
   24.2271  -19.1641  -12.4481 O   0  0  0  0  0  0  0  0  0  0  0  0
   23.2630  -21.2022  -12.8017 N   0  0  0  0  0  0  0  0  0  0  0  0
   22.1904  -20.6279  -13.5890 C   0  0  1  0  0  0  0  0  0  0  0  0
   22.4946  -20.6613  -15.0730 C   0  0  0  0  0  0  0  0  0  0  0  0
   21.4301  -20.0136  -15.8672 C   0  0  0  0  0  0  0  0  0  0  0  0
   21.1545  -18.6666  -15.9259 C   0  0  0  0  0  0  0  0  0  0  0  0
   20.0994  -18.4687  -16.7706 N   0  0  0  0  0  0  0  0  0  0  0  0
   19.6859  -19.6422  -17.2579 C   0  0  0  0  0  0  0  0  0  0  0  0
   18.6694  -19.9630  -18.1355 C   0  0  0  0  0  0  0  0  0  0  0  0
   18.4439  -21.2714  -18.4849 C   0  0  0  0  0  0  0  0  0  0  0  0
   19.2518  -22.2461  -17.9408 C   0  0  0  0  0  0  0  0  0  0  0  0
   20.2775  -21.9167  -17.0544 C   0  0  0  0  0  0  0  0  0  0  0  0
   20.5154  -20.6203  -16.6965 C   0  0  0  0  0  0  0  0  0  0  0  0
   20.8894  -21.2886  -13.3033 C   0  0  0  0  0  0  0  0  0  0  0  0
   19.6892  -20.6194  -13.2778 O   0  0  0  0  0  0  0  0  0  0  0  0
   20.9070  -22.5127  -13.0776 O   0  0  0  0  0  0  0  0  0  0  0  0
  2  3  1  0
  2  1  1  6
  3  4  1  0
  5  6  2  0
  5  2  1  0
  8  7  1  0
  9 10  1  1
  9  8  1  0
 11 12  1  6
 11  9  1  0
 12  5  1  0
 13 11  1  0
 14 13  2  0
 15 13  1  0
 16 15  1  0
 16 17  1  6
 17 18  1  0
 18 26  1  0
 18 19  2  0
 19 20  1  0
 21 20  1  0
 21 22  2  0
 23 22  1  0
 24 23  2  0
 25 26  2  0
 25 24  1  0
 26 21  1  0
 27 16  1  0
 28 27  1  0
 29 27  2  0
M  END
$$$$
