CIW.pdb
     RDKit          3D

 29 30  0  0  1  0  0  0  0  0999 V2000
   30.5567  -21.7477  -11.8895 N   0  0  0  0  0  0  0  0  0  0  0  0
   29.9300  -20.6368  -11.1997 C   0  0  1  0  0  0  0  0  0  0  0  0
   29.1446  -19.8180  -12.2019 C   0  0  0  0  0  0  0  0  0  0  0  0
   30.2857  -18.8602  -13.2353 S   0  0  0  0  0  0  0  0  0  0  0  0
   29.0478  -21.2034  -10.1478 C   0  0  0  0  0  0  0  0  0  0  0  0
   28.4015  -22.2648  -10.3347 O   0  0  0  0  0  0  0  0  0  0  0  0
   27.5710  -20.4506   -4.1628 C   0  0  0  0  0  0  0  0  0  0  0  0
   27.2198  -20.8143   -5.5836 C   0  0  0  0  0  0  0  0  0  0  0  0
   28.2397  -20.3290   -6.5846 C   0  0  2  0  0  0  0  0  0  0  0  0
   28.4730  -18.8575   -6.5012 C   0  0  0  0  0  0  0  0  0  0  0  0
   27.8306  -20.8201   -7.9525 C   0  0  2  0  0  0  0  0  0  0  0  0
   28.9106  -20.5438   -8.8769 N   0  0  0  0  0  0  0  0  0  0  0  0
   26.5562  -20.1943   -8.4002 C   0  0  0  0  0  0  0  0  0  0  0  0
   26.5084  -18.9513   -8.5503 O   0  0  0  0  0  0  0  0  0  0  0  0
   25.3711  -20.9261   -8.6729 N   0  0  0  0  0  0  0  0  0  0  0  0
   24.4370  -20.4921   -9.6923 C   0  0  1  0  0  0  0  0  0  0  0  0
   24.7265  -21.1294  -11.0361 C   0  0  0  0  0  0  0  0  0  0  0  0
   23.8412  -20.6037  -12.0961 C   0  0  0  0  0  0  0  0  0  0  0  0
   24.0501  -19.4745  -12.8543 C   0  0  0  0  0  0  0  0  0  0  0  0
   23.0073  -19.3285  -13.7246 N   0  0  0  0  0  0  0  0  0  0  0  0
   22.1339  -20.3250  -13.5527 C   0  0  0  0  0  0  0  0  0  0  0  0
   20.9394  -20.6152  -14.1814 C   0  0  0  0  0  0  0  0  0  0  0  0
   20.2147  -21.7218  -13.8137 C   0  0  0  0  0  0  0  0  0  0  0  0
   20.7074  -22.5269  -12.8097 C   0  0  0  0  0  0  0  0  0  0  0  0
   21.9149  -22.2292  -12.1777 C   0  0  0  0  0  0  0  0  0  0  0  0
   22.6482  -21.1326  -12.5313 C   0  0  0  0  0  0  0  0  0  0  0  0
   23.0291  -20.7409   -9.2840 C   0  0  0  0  0  0  0  0  0  0  0  0
   21.9763  -19.9464   -9.6708 O   0  0  0  0  0  0  0  0  0  0  0  0
   22.8108  -21.7248   -8.5533 O   0  0  0  0  0  0  0  0  0  0  0  0
  2  3  1  0
  2  1  1  6
  3  4  1  0
  5  6  2  0
  5  2  1  0
  8  7  1  0
  9 10  1  6
  9  8  1  0
 11 12  1  6
 11  9  1  0
 12  5  1  0
 13 11  1  0
 14 13  2  0
 15 13  1  0
 16 15  1  0
 16 17  1  6
 17 18  1  0
 18 26  1  0
 18 19  2  0
 19 20  1  0
 21 20  1  0
 21 22  2  0
 23 22  1  0
 24 23  2  0
 25 26  2  0
 25 24  1  0
 26 21  1  0
 27 16  1  0
 28 27  1  0
 29 27  2  0
M  END
$$$$
