CIW.pdb
     RDKit          3D

 29 30  0  0  1  0  0  0  0  0999 V2000
   21.1047  -18.4478  -14.5904 N   0  0  0  0  0  0  0  0  0  0  0  0
   22.2916  -18.1127  -13.8278 C   0  0  1  0  0  0  0  0  0  0  0  0
   21.9357  -17.0513  -12.8087 C   0  0  0  0  0  0  0  0  0  0  0  0
   20.6703  -17.6906  -11.6784 S   0  0  0  0  0  0  0  0  0  0  0  0
   22.7698  -19.3576  -13.1740 C   0  0  0  0  0  0  0  0  0  0  0  0
   21.9680  -20.2387  -12.7741 O   0  0  0  0  0  0  0  0  0  0  0  0
   25.6328  -20.9038  -15.7495 C   0  0  0  0  0  0  0  0  0  0  0  0
   25.1361  -21.7283  -14.5886 C   0  0  0  0  0  0  0  0  0  0  0  0
   25.7788  -21.3462  -13.2777 C   0  0  2  0  0  0  0  0  0  0  0  0
   26.5745  -22.4587  -12.6810 C   0  0  0  0  0  0  0  0  0  0  0  0
   24.7083  -20.7878  -12.3711 C   0  0  2  0  0  0  0  0  0  0  0  0
   24.1767  -19.5866  -12.9809 N   0  0  0  0  0  0  0  0  0  0  0  0
   25.2339  -20.5188  -11.0046 C   0  0  0  0  0  0  0  0  0  0  0  0
   26.2018  -19.7350  -10.8682 O   0  0  0  0  0  0  0  0  0  0  0  0
   24.7012  -21.1022   -9.8255 N   0  0  0  0  0  0  0  0  0  0  0  0
   25.3853  -20.9853   -8.5532 C   0  0  1  0  0  0  0  0  0  0  0  0
   25.3691  -19.5640   -8.0283 C   0  0  0  0  0  0  0  0  0  0  0  0
   26.6979  -19.1443   -7.5368 C   0  0  0  0  0  0  0  0  0  0  0  0
   27.5865  -18.3141   -8.1810 C   0  0  0  0  0  0  0  0  0  0  0  0
   28.6987  -18.1684   -7.4015 N   0  0  0  0  0  0  0  0  0  0  0  0
   28.5571  -18.8766   -6.2772 C   0  0  0  0  0  0  0  0  0  0  0  0
   29.3924  -19.0492   -5.1916 C   0  0  0  0  0  0  0  0  0  0  0  0
   29.0066  -19.8442   -4.1408 C   0  0  0  0  0  0  0  0  0  0  0  0
   27.7748  -20.4592   -4.1991 C   0  0  0  0  0  0  0  0  0  0  0  0
   26.9345  -20.2816   -5.2984 C   0  0  0  0  0  0  0  0  0  0  0  0
   27.3028  -19.4942   -6.3518 C   0  0  0  0  0  0  0  0  0  0  0  0
   24.8276  -21.9252   -7.5452 C   0  0  0  0  0  0  0  0  0  0  0  0
   25.5863  -22.5298   -6.5715 O   0  0  0  0  0  0  0  0  0  0  0  0
   23.6075  -22.1658   -7.6010 O   0  0  0  0  0  0  0  0  0  0  0  0
  2  3  1  0
  2  1  1  1
  3  4  1  0
  5  6  2  0
  5  2  1  0
  8  7  1  0
  9 10  1  1
  9  8  1  0
 11 12  1  6
 11  9  1  0
 12  5  1  0
 13 11  1  0
 14 13  2  0
 15 13  1  0
 16 15  1  0
 16 17  1  1
 17 18  1  0
 18 26  1  0
 18 19  2  0
 19 20  1  0
 21 20  1  0
 21 22  2  0
 23 22  1  0
 24 23  2  0
 25 26  2  0
 25 24  1  0
 26 21  1  0
 27 16  1  0
 28 27  1  0
 29 27  2  0
M  END
$$$$
