CIW.pdb
     RDKit          3D

 29 30  0  0  1  0  0  0  0  0999 V2000
   26.9177  -16.3645  -18.0849 N   0  0  0  0  0  0  0  0  0  0  0  0
   27.2252  -16.6296  -16.6928 C   0  0  1  0  0  0  0  0  0  0  0  0
   26.6658  -15.5070  -15.8451 C   0  0  0  0  0  0  0  0  0  0  0  0
   27.1509  -15.7491  -14.1149 S   0  0  0  0  0  0  0  0  0  0  0  0
   26.6129  -17.9361  -16.3402 C   0  0  0  0  0  0  0  0  0  0  0  0
   25.4268  -18.2106  -16.6516 O   0  0  0  0  0  0  0  0  0  0  0  0
   28.7313  -22.0209  -18.0429 C   0  0  0  0  0  0  0  0  0  0  0  0
   27.7968  -21.0628  -17.3479 C   0  0  0  0  0  0  0  0  0  0  0  0
   27.7231  -21.2893  -15.8577 C   0  0  2  0  0  0  0  0  0  0  0  0
   27.3323  -22.6859  -15.5064 C   0  0  0  0  0  0  0  0  0  0  0  0
   26.8359  -20.2235  -15.2606 C   0  0  2  0  0  0  0  0  0  0  0  0
   27.3710  -18.9284  -15.6264 N   0  0  0  0  0  0  0  0  0  0  0  0
   26.7234  -20.3694  -13.7834 C   0  0  0  0  0  0  0  0  0  0  0  0
   27.7651  -20.3399  -13.0878 O   0  0  0  0  0  0  0  0  0  0  0  0
   25.4920  -20.5428  -13.0993 N   0  0  0  0  0  0  0  0  0  0  0  0
   25.4545  -20.8375  -11.6808 C   0  0  1  0  0  0  0  0  0  0  0  0
   26.0222  -19.7044  -10.8503 C   0  0  0  0  0  0  0  0  0  0  0  0
   25.8762  -19.9578   -9.4018 C   0  0  0  0  0  0  0  0  0  0  0  0
   24.7273  -20.3391   -8.7473 C   0  0  0  0  0  0  0  0  0  0  0  0
   25.0020  -20.4732   -7.4159 N   0  0  0  0  0  0  0  0  0  0  0  0
   26.2885  -20.1911   -7.1905 C   0  0  0  0  0  0  0  0  0  0  0  0
   27.0351  -20.1834   -6.0291 C   0  0  0  0  0  0  0  0  0  0  0  0
   28.3667  -19.8509   -6.0645 C   0  0  0  0  0  0  0  0  0  0  0  0
   28.9319  -19.5282   -7.2791 C   0  0  0  0  0  0  0  0  0  0  0  0
   28.1732  -19.5374   -8.4497 C   0  0  0  0  0  0  0  0  0  0  0  0
   26.8476  -19.8658   -8.4321 C   0  0  0  0  0  0  0  0  0  0  0  0
   24.0800  -21.1826  -11.2311 C   0  0  0  0  0  0  0  0  0  0  0  0
   23.7998  -22.2292  -10.3855 O   0  0  0  0  0  0  0  0  0  0  0  0
   23.1460  -20.4756  -11.6525 O   0  0  0  0  0  0  0  0  0  0  0  0
  2  3  1  0
  2  1  1  6
  3  4  1  0
  5  6  2  0
  5  2  1  0
  8  7  1  0
  9 10  1  6
  9  8  1  0
 11 12  1  1
 11  9  1  0
 12  5  1  0
 13 11  1  0
 14 13  2  0
 15 13  1  0
 16 15  1  0
 16 17  1  1
 17 18  1  0
 18 26  1  0
 18 19  2  0
 19 20  1  0
 21 20  1  0
 21 22  2  0
 23 22  1  0
 24 23  2  0
 25 26  2  0
 25 24  1  0
 26 21  1  0
 27 16  1  0
 28 27  1  0
 29 27  2  0
M  END
$$$$
