HYA.pdb
     RDKit          3D

 28 29  0  0  1  0  0  0  0  0999 V2000
   10.1017  -17.6374   18.9935 N   0  0  0  0  0  0  0  0  0  0  0  0
    9.0726  -17.8662   19.9668 C   0  0  1  0  0  0  0  0  0  0  0  0
    9.0400  -19.3318   20.3481 C   0  0  0  0  0  0  0  0  0  0  0  0
    8.5228  -20.1422   19.2023 C   0  0  0  0  0  0  0  0  0  0  0  0
    7.4231  -19.8226   18.4361 C   0  0  0  0  0  0  0  0  0  0  0  0
    7.2614  -20.7773   17.5043 N   0  0  0  0  0  0  0  0  0  0  0  0
    8.2310  -21.6639   17.6852 C   0  0  0  0  0  0  0  0  0  0  0  0
    9.0057  -21.2913   18.7138 N   0  0  0  0  0  0  0  0  0  0  0  0
    9.2709  -16.9983   21.1512 C   0  0  0  0  0  0  0  0  0  0  0  0
   10.4388  -16.8505   21.6315 O   0  0  0  0  0  0  0  0  0  0  0  0
    7.0263  -11.6067   27.8260 O   0  0  0  0  0  0  0  0  0  0  0  0
    7.0732  -12.3175   26.6393 C   0  0  0  0  0  0  0  0  0  0  0  0
    7.7764  -11.9034   25.5294 C   0  0  0  0  0  0  0  0  0  0  0  0
    7.7817  -12.6597   24.3768 C   0  0  0  0  0  0  0  0  0  0  0  0
    7.0828  -13.8480   24.3098 C   0  0  0  0  0  0  0  0  0  0  0  0
    7.1042  -14.6451   23.0561 C   0  0  0  0  0  0  0  0  0  0  0  0
    8.2869  -15.5390   22.9530 C   0  0  2  0  0  0  0  0  0  0  0  0
    8.1567  -16.3336   21.7473 N   0  0  0  0  0  0  0  0  0  0  0  0
    8.5569  -16.3828   24.1038 C   0  0  0  0  0  0  0  0  0  0  0  0
    7.7447  -17.2978   24.3880 O   0  0  0  0  0  0  0  0  0  0  0  0
    6.3855  -14.2624   25.4047 C   0  0  0  0  0  0  0  0  0  0  0  0
    6.3813  -13.5044   26.5572 C   0  0  0  0  0  0  0  0  0  0  0  0
   11.5744  -17.5515   25.7616 C   0  0  0  0  0  0  0  0  0  0  0  0
   10.1356  -17.1174   25.9321 C   0  0  2  0  0  0  0  0  0  0  0  0
    9.6949  -16.2187   24.9181 N   0  0  0  0  0  0  0  0  0  0  0  0
   10.0298  -16.4583   27.2546 C   0  0  0  0  0  0  0  0  0  0  0  0
   10.2940  -17.1009   28.2991 O   0  0  0  0  0  0  0  0  0  0  0  0
    9.6433  -15.1340   27.3923 O   0  0  0  0  0  0  0  0  0  0  0  0
  2  1  1  6
  3  2  1  0
  4  3  1  0
  5  4  2  0
  6  5  1  0
  7  6  1  0
  7  8  2  0
  8  4  1  0
  9 18  1  0
  9  2  1  0
 10  9  2  0
 12 11  1  0
 13 12  2  0
 14 13  1  0
 15 21  1  0
 15 14  2  0
 17 16  1  1
 16 15  1  0
 17 18  1  0
 19 25  1  0
 19 17  1  0
 20 19  2  0
 21 22  2  0
 22 12  1  0
 24 23  1  6
 24 26  1  0
 24 25  1  0
 26 28  1  0
 27 26  2  0
M  END
$$$$
