HYA.pdb
     RDKit          3D

 28 29  0  0  1  0  0  0  0  0999 V2000
    8.5566  -16.6790   20.6954 N   0  0  0  0  0  0  0  0  0  0  0  0
    8.6304  -15.4982   21.5072 C   0  0  1  0  0  0  0  0  0  0  0  0
    7.5025  -14.5534   21.1470 C   0  0  0  0  0  0  0  0  0  0  0  0
    7.6812  -14.0619   19.7456 C   0  0  0  0  0  0  0  0  0  0  0  0
    8.4276  -12.9634   19.3785 C   0  0  0  0  0  0  0  0  0  0  0  0
    8.3577  -12.8281   18.0434 N   0  0  0  0  0  0  0  0  0  0  0  0
    7.5912  -13.8125   17.5935 C   0  0  0  0  0  0  0  0  0  0  0  0
    7.1726  -14.5708   18.6166 N   0  0  0  0  0  0  0  0  0  0  0  0
    8.6085  -15.8509   22.9461 C   0  0  0  0  0  0  0  0  0  0  0  0
    7.7833  -16.7225   23.3654 O   0  0  0  0  0  0  0  0  0  0  0  0
   11.4571  -16.6680   31.2462 O   0  0  0  0  0  0  0  0  0  0  0  0
   11.3200  -16.3619   29.9033 C   0  0  0  0  0  0  0  0  0  0  0  0
   11.3985  -17.2980   28.8957 C   0  0  0  0  0  0  0  0  0  0  0  0
   11.2527  -16.9261   27.5763 C   0  0  0  0  0  0  0  0  0  0  0  0
   11.0248  -15.6079   27.2363 C   0  0  0  0  0  0  0  0  0  0  0  0
   10.8710  -15.2322   25.8071 C   0  0  0  0  0  0  0  0  0  0  0  0
    9.5133  -15.5136   25.2724 C   0  0  2  0  0  0  0  0  0  0  0  0
    9.5087  -15.2150   23.8537 N   0  0  0  0  0  0  0  0  0  0  0  0
    8.4083  -14.8538   25.9451 C   0  0  0  0  0  0  0  0  0  0  0  0
    8.0044  -15.3145   27.0417 O   0  0  0  0  0  0  0  0  0  0  0  0
   10.9462  -14.6777   28.2290 C   0  0  0  0  0  0  0  0  0  0  0  0
   11.0924  -15.0517   29.5486 C   0  0  0  0  0  0  0  0  0  0  0  0
    6.4266  -11.6624   25.3153 C   0  0  0  0  0  0  0  0  0  0  0  0
    6.8423  -12.8801   26.1102 C   0  0  2  0  0  0  0  0  0  0  0  0
    7.7673  -13.7148   25.4189 N   0  0  0  0  0  0  0  0  0  0  0  0
    5.6124  -13.6499   26.4094 C   0  0  0  0  0  0  0  0  0  0  0  0
    5.4398  -14.7815   25.8960 O   0  0  0  0  0  0  0  0  0  0  0  0
    4.6222  -13.1648   27.2498 O   0  0  0  0  0  0  0  0  0  0  0  0
  2  1  1  6
  3  2  1  0
  4  3  1  0
  5  4  2  0
  6  5  1  0
  7  6  1  0
  7  8  2  0
  8  4  1  0
  9 18  1  0
  9  2  1  0
 10  9  2  0
 12 11  1  0
 13 12  2  0
 14 13  1  0
 15 21  1  0
 15 14  2  0
 17 16  1  1
 16 15  1  0
 17 18  1  0
 19 25  1  0
 19 17  1  0
 20 19  2  0
 21 22  2  0
 22 12  1  0
 24 23  1  6
 24 26  1  0
 24 25  1  0
 26 28  1  0
 27 26  2  0
M  END
$$$$
