HYA.pdb
     RDKit          3D

 28 29  0  0  1  0  0  0  0  0999 V2000
   10.4473  -17.6645   19.0631 N   0  0  0  0  0  0  0  0  0  0  0  0
   11.5157  -16.7135   19.1761 C   0  0  1  0  0  0  0  0  0  0  0  0
   11.5612  -15.8397   17.9396 C   0  0  0  0  0  0  0  0  0  0  0  0
   11.7594  -16.6901   16.7252 C   0  0  0  0  0  0  0  0  0  0  0  0
   12.9443  -17.2925   16.3624 C   0  0  0  0  0  0  0  0  0  0  0  0
   12.7442  -17.9724   15.2207 N   0  0  0  0  0  0  0  0  0  0  0  0
   11.4734  -17.7983   14.8833 C   0  0  0  0  0  0  0  0  0  0  0  0
   10.8620  -17.0211   15.7883 N   0  0  0  0  0  0  0  0  0  0  0  0
   11.3687  -15.9062   20.4098 C   0  0  0  0  0  0  0  0  0  0  0  0
   12.2913  -15.0974   20.7433 O   0  0  0  0  0  0  0  0  0  0  0  0
    7.5634  -12.6996   17.0443 O   0  0  0  0  0  0  0  0  0  0  0  0
    7.8603  -13.1232   18.3281 C   0  0  0  0  0  0  0  0  0  0  0  0
    8.7972  -12.5151   19.1345 C   0  0  0  0  0  0  0  0  0  0  0  0
    9.0453  -12.9878   20.4055 C   0  0  0  0  0  0  0  0  0  0  0  0
    8.3605  -14.0805   20.8977 C   0  0  0  0  0  0  0  0  0  0  0  0
    8.6458  -14.5709   22.2708 C   0  0  0  0  0  0  0  0  0  0  0  0
    9.9770  -15.2201   22.3938 C   0  0  2  0  0  0  0  0  0  0  0  0
   10.1984  -16.0375   21.2170 N   0  0  0  0  0  0  0  0  0  0  0  0
   10.2100  -15.9834   23.6071 C   0  0  0  0  0  0  0  0  0  0  0  0
   10.0039  -15.4338   24.7176 O   0  0  0  0  0  0  0  0  0  0  0  0
    7.4325  -14.6859   20.1043 C   0  0  0  0  0  0  0  0  0  0  0  0
    7.1856  -14.2115   18.8328 C   0  0  0  0  0  0  0  0  0  0  0  0
   10.7462  -19.6296   24.4127 C   0  0  0  0  0  0  0  0  0  0  0  0
   10.8397  -18.1542   24.7321 C   0  0  2  0  0  0  0  0  0  0  0  0
   10.6588  -17.3189   23.5922 N   0  0  0  0  0  0  0  0  0  0  0  0
   12.1824  -17.9146   25.3105 C   0  0  0  0  0  0  0  0  0  0  0  0
   12.5226  -18.4955   26.3691 O   0  0  0  0  0  0  0  0  0  0  0  0
   13.0997  -17.0582   24.7211 O   0  0  0  0  0  0  0  0  0  0  0  0
  2  1  1  6
  3  2  1  0
  4  3  1  0
  5  4  2  0
  6  5  1  0
  7  6  1  0
  7  8  2  0
  8  4  1  0
  9 18  1  0
  9  2  1  0
 10  9  2  0
 12 11  1  0
 13 12  2  0
 14 13  1  0
 15 21  1  0
 15 14  2  0
 17 16  1  1
 16 15  1  0
 17 18  1  0
 19 25  1  0
 19 17  1  0
 20 19  2  0
 21 22  2  0
 22 12  1  0
 24 23  1  6
 24 26  1  0
 24 25  1  0
 26 28  1  0
 27 26  2  0
M  END
$$$$
