HYA.pdb
     RDKit          3D

 28 29  0  0  1  0  0  0  0  0999 V2000
   10.2551  -17.3987   19.3572 N   0  0  0  0  0  0  0  0  0  0  0  0
    9.0178  -17.3540   20.0825 C   0  0  1  0  0  0  0  0  0  0  0  0
    8.4542  -18.7525   20.2272 C   0  0  0  0  0  0  0  0  0  0  0  0
    7.9943  -19.2539   18.8951 C   0  0  0  0  0  0  0  0  0  0  0  0
    7.3574  -18.4949   17.9376 C   0  0  0  0  0  0  0  0  0  0  0  0
    7.0966  -19.2783   16.8774 N   0  0  0  0  0  0  0  0  0  0  0  0
    7.5573  -20.4879   17.1664 C   0  0  0  0  0  0  0  0  0  0  0  0
    8.1058  -20.4886   18.3895 N   0  0  0  0  0  0  0  0  0  0  0  0
    9.2073  -16.7029   21.3999 C   0  0  0  0  0  0  0  0  0  0  0  0
   10.3065  -16.8531   22.0210 O   0  0  0  0  0  0  0  0  0  0  0  0
    7.0889  -11.8598   28.5216 O   0  0  0  0  0  0  0  0  0  0  0  0
    7.1856  -12.4082   27.2544 C   0  0  0  0  0  0  0  0  0  0  0  0
    8.2484  -12.1867   26.4064 C   0  0  0  0  0  0  0  0  0  0  0  0
    8.2829  -12.7641   25.1551 C   0  0  0  0  0  0  0  0  0  0  0  0
    7.2534  -13.5766   24.7247 C   0  0  0  0  0  0  0  0  0  0  0  0
    7.3138  -14.1873   23.3717 C   0  0  0  0  0  0  0  0  0  0  0  0
    8.2675  -15.3239   23.2864 C   0  0  2  0  0  0  0  0  0  0  0  0
    8.1615  -15.9126   21.9658 N   0  0  0  0  0  0  0  0  0  0  0  0
    8.1510  -16.3393   24.3181 C   0  0  0  0  0  0  0  0  0  0  0  0
    7.0535  -16.9329   24.4626 O   0  0  0  0  0  0  0  0  0  0  0  0
    6.1995  -13.7991   25.5595 C   0  0  0  0  0  0  0  0  0  0  0  0
    6.1668  -13.2205   26.8112 C   0  0  0  0  0  0  0  0  0  0  0  0
   10.3083  -18.7757   25.8596 C   0  0  0  0  0  0  0  0  0  0  0  0
    9.2234  -17.7530   26.1141 C   0  0  2  0  0  0  0  0  0  0  0  0
    9.2198  -16.6887   25.1670 N   0  0  0  0  0  0  0  0  0  0  0  0
    9.4477  -17.2038   27.4717 C   0  0  0  0  0  0  0  0  0  0  0  0
    9.7241  -15.9891   27.6195 O   0  0  0  0  0  0  0  0  0  0  0  0
    9.3637  -17.9897   28.6107 O   0  0  0  0  0  0  0  0  0  0  0  0
  2  1  1  1
  3  2  1  0
  4  3  1  0
  5  4  2  0
  6  5  1  0
  7  6  1  0
  7  8  2  0
  8  4  1  0
  9 18  1  0
  9  2  1  0
 10  9  2  0
 12 11  1  0
 13 12  2  0
 14 13  1  0
 15 21  1  0
 15 14  2  0
 17 16  1  1
 16 15  1  0
 17 18  1  0
 19 25  1  0
 19 17  1  0
 20 19  2  0
 21 22  2  0
 22 12  1  0
 24 23  1  6
 24 26  1  0
 24 25  1  0
 26 28  1  0
 27 26  2  0
M  END
$$$$
