HYA.pdb
     RDKit          3D

 28 29  0  0  1  0  0  0  0  0999 V2000
    9.8055  -16.9029   18.8982 N   0  0  0  0  0  0  0  0  0  0  0  0
    9.5671  -17.5821   20.1394 C   0  0  1  0  0  0  0  0  0  0  0  0
   10.4945  -18.7735   20.2617 C   0  0  0  0  0  0  0  0  0  0  0  0
   10.2978  -19.6906   19.0966 C   0  0  0  0  0  0  0  0  0  0  0  0
   11.0022  -19.6341   17.9137 C   0  0  0  0  0  0  0  0  0  0  0  0
   10.5553  -20.6098   17.1050 N   0  0  0  0  0  0  0  0  0  0  0  0
    9.6018  -21.2538   17.7646 C   0  0  0  0  0  0  0  0  0  0  0  0
    9.4340  -20.7064   18.9767 N   0  0  0  0  0  0  0  0  0  0  0  0
    9.7199  -16.6517   21.2823 C   0  0  0  0  0  0  0  0  0  0  0  0
   10.8286  -16.0557   21.4614 O   0  0  0  0  0  0  0  0  0  0  0  0
    7.0720  -11.3737   27.8866 O   0  0  0  0  0  0  0  0  0  0  0  0
    7.1539  -12.2421   26.8118 C   0  0  0  0  0  0  0  0  0  0  0  0
    7.8195  -11.9477   25.6422 C   0  0  0  0  0  0  0  0  0  0  0  0
    7.8631  -12.8586   24.6085 C   0  0  0  0  0  0  0  0  0  0  0  0
    7.2408  -14.0854   24.7229 C   0  0  0  0  0  0  0  0  0  0  0  0
    7.3022  -15.0501   23.5947 C   0  0  0  0  0  0  0  0  0  0  0  0
    8.6901  -15.4431   23.2375 C   0  0  2  0  0  0  0  0  0  0  0  0
    8.6284  -16.4275   22.1749 N   0  0  0  0  0  0  0  0  0  0  0  0
    9.5269  -15.9096   24.3290 C   0  0  0  0  0  0  0  0  0  0  0  0
   10.2043  -15.0713   24.9741 O   0  0  0  0  0  0  0  0  0  0  0  0
    6.5810  -14.3819   25.8777 C   0  0  0  0  0  0  0  0  0  0  0  0
    6.5384  -13.4691   26.9110 C   0  0  0  0  0  0  0  0  0  0  0  0
   11.8327  -17.5395   25.7042 C   0  0  0  0  0  0  0  0  0  0  0  0
   10.3444  -17.7910   25.8010 C   0  0  2  0  0  0  0  0  0  0  0  0
    9.6120  -17.2670   24.6969 N   0  0  0  0  0  0  0  0  0  0  0  0
    9.8720  -17.1542   27.0524 C   0  0  0  0  0  0  0  0  0  0  0  0
    9.9337  -15.9082   27.1846 O   0  0  0  0  0  0  0  0  0  0  0  0
    9.3536  -17.8900   28.1069 O   0  0  0  0  0  0  0  0  0  0  0  0
  2  1  1  6
  3  2  1  0
  4  3  1  0
  5  4  2  0
  6  5  1  0
  7  6  1  0
  7  8  2  0
  8  4  1  0
  9 18  1  0
  9  2  1  0
 10  9  2  0
 12 11  1  0
 13 12  2  0
 14 13  1  0
 15 21  1  0
 15 14  2  0
 17 16  1  1
 16 15  1  0
 17 18  1  0
 19 25  1  0
 19 17  1  0
 20 19  2  0
 21 22  2  0
 22 12  1  0
 24 23  1  6
 24 26  1  0
 24 25  1  0
 26 28  1  0
 27 26  2  0
M  END
$$$$
