HYA.pdb
     RDKit          3D

 28 29  0  0  1  0  0  0  0  0999 V2000
    9.3638  -18.0402   20.9102 N   0  0  0  0  0  0  0  0  0  0  0  0
   10.6172  -17.4899   21.3402 C   0  0  1  0  0  0  0  0  0  0  0  0
   11.3653  -16.9212   20.1522 C   0  0  0  0  0  0  0  0  0  0  0  0
   10.7851  -17.4595   18.8830 C   0  0  0  0  0  0  0  0  0  0  0  0
   10.4969  -18.7850   18.6410 C   0  0  0  0  0  0  0  0  0  0  0  0
    9.9909  -18.8911   17.4007 N   0  0  0  0  0  0  0  0  0  0  0  0
    9.9650  -17.6688   16.8866 C   0  0  0  0  0  0  0  0  0  0  0  0
   10.4447  -16.7879   17.7759 N   0  0  0  0  0  0  0  0  0  0  0  0
   10.4062  -16.4683   22.3924 C   0  0  0  0  0  0  0  0  0  0  0  0
   11.4057  -15.8427   22.8681 O   0  0  0  0  0  0  0  0  0  0  0  0
    6.1649  -10.7688   27.6283 O   0  0  0  0  0  0  0  0  0  0  0  0
    6.4841  -11.7090   26.6638 C   0  0  0  0  0  0  0  0  0  0  0  0
    5.8735  -12.9401   26.5671 C   0  0  0  0  0  0  0  0  0  0  0  0
    6.2390  -13.8317   25.5813 C   0  0  0  0  0  0  0  0  0  0  0  0
    7.2245  -13.5104   24.6699 C   0  0  0  0  0  0  0  0  0  0  0  0
    7.6006  -14.4884   23.6167 C   0  0  0  0  0  0  0  0  0  0  0  0
    8.8380  -15.2458   23.9386 C   0  0  2  0  0  0  0  0  0  0  0  0
    9.0888  -16.1901   22.8673 N   0  0  0  0  0  0  0  0  0  0  0  0
    8.8687  -15.9073   25.2310 C   0  0  0  0  0  0  0  0  0  0  0  0
    9.0076  -15.2091   26.2659 O   0  0  0  0  0  0  0  0  0  0  0  0
    7.8319  -12.2939   24.7609 C   0  0  0  0  0  0  0  0  0  0  0  0
    7.4648  -11.4030   25.7480 C   0  0  0  0  0  0  0  0  0  0  0  0
    8.0335  -19.3766   26.4759 C   0  0  0  0  0  0  0  0  0  0  0  0
    8.6808  -18.0159   26.6070 C   0  0  2  0  0  0  0  0  0  0  0  0
    8.7488  -17.3038   25.3749 N   0  0  0  0  0  0  0  0  0  0  0  0
   10.0507  -18.2299   27.1287 C   0  0  0  0  0  0  0  0  0  0  0  0
   11.0437  -17.8758   26.4487 O   0  0  0  0  0  0  0  0  0  0  0  0
   10.2895  -18.8170   28.3617 O   0  0  0  0  0  0  0  0  0  0  0  0
  2  1  1  6
  3  2  1  0
  4  3  1  0
  5  4  2  0
  6  5  1  0
  7  6  1  0
  7  8  2  0
  8  4  1  0
  9 18  1  0
  9  2  1  0
 10  9  2  0
 12 11  1  0
 13 12  2  0
 14 13  1  0
 15 21  1  0
 15 14  2  0
 17 16  1  6
 16 15  1  0
 17 18  1  0
 19 25  1  0
 19 17  1  0
 20 19  2  0
 21 22  2  0
 22 12  1  0
 24 23  1  6
 24 26  1  0
 24 25  1  0
 26 28  1  0
 27 26  2  0
M  END
$$$$
