HYA.pdb
     RDKit          3D

 28 29  0  0  1  0  0  0  0  0999 V2000
    8.6890  -16.5593   19.2871 N   0  0  0  0  0  0  0  0  0  0  0  0
    8.0236  -16.9149   20.5076 C   0  0  1  0  0  0  0  0  0  0  0  0
    7.7615  -18.4065   20.5363 C   0  0  0  0  0  0  0  0  0  0  0  0
    6.7381  -18.7612   19.5047 C   0  0  0  0  0  0  0  0  0  0  0  0
    5.3820  -18.5492   19.6258 C   0  0  0  0  0  0  0  0  0  0  0  0
    4.7805  -18.9917   18.5086 N   0  0  0  0  0  0  0  0  0  0  0  0
    5.7333  -19.4646   17.7165 C   0  0  0  0  0  0  0  0  0  0  0  0
    6.9286  -19.3313   18.3084 N   0  0  0  0  0  0  0  0  0  0  0  0
    8.8150  -16.4771   21.6812 C   0  0  0  0  0  0  0  0  0  0  0  0
   10.0832  -16.4335   21.6011 O   0  0  0  0  0  0  0  0  0  0  0  0
   10.1654  -14.1114   30.1320 O   0  0  0  0  0  0  0  0  0  0  0  0
    9.6213  -14.3671   28.8852 C   0  0  0  0  0  0  0  0  0  0  0  0
    9.0341  -15.5646   28.5402 C   0  0  0  0  0  0  0  0  0  0  0  0
    8.5104  -15.7544   27.2792 C   0  0  0  0  0  0  0  0  0  0  0  0
    8.5630  -14.7490   26.3350 C   0  0  0  0  0  0  0  0  0  0  0  0
    7.9916  -14.9780   24.9829 C   0  0  0  0  0  0  0  0  0  0  0  0
    8.8883  -15.7636   24.0957 C   0  0  2  0  0  0  0  0  0  0  0  0
    8.1560  -16.1072   22.8925 N   0  0  0  0  0  0  0  0  0  0  0  0
    9.5029  -16.9410   24.6831 C   0  0  0  0  0  0  0  0  0  0  0  0
    8.7727  -17.9153   24.9921 O   0  0  0  0  0  0  0  0  0  0  0  0
    9.1427  -13.5623   26.6709 C   0  0  0  0  0  0  0  0  0  0  0  0
    9.6662  -13.3742   27.9332 C   0  0  0  0  0  0  0  0  0  0  0  0
   12.9489  -18.3274   24.5897 C   0  0  0  0  0  0  0  0  0  0  0  0
   11.5979  -18.2258   25.2620 C   0  0  2  0  0  0  0  0  0  0  0  0
   10.8880  -17.0381   24.9222 N   0  0  0  0  0  0  0  0  0  0  0  0
   11.8317  -18.2587   26.7245 C   0  0  0  0  0  0  0  0  0  0  0  0
   11.4807  -17.2885   27.4382 O   0  0  0  0  0  0  0  0  0  0  0  0
   12.4344  -19.3374   27.3532 O   0  0  0  0  0  0  0  0  0  0  0  0
  2  1  1  6
  3  2  1  0
  4  3  1  0
  5  4  2  0
  6  5  1  0
  7  6  1  0
  7  8  2  0
  8  4  1  0
  9 18  1  0
  9  2  1  0
 10  9  2  0
 12 11  1  0
 13 12  2  0
 14 13  1  0
 15 21  1  0
 15 14  2  0
 17 16  1  1
 16 15  1  0
 17 18  1  0
 19 25  1  0
 19 17  1  0
 20 19  2  0
 21 22  2  0
 22 12  1  0
 24 23  1  6
 24 26  1  0
 24 25  1  0
 26 28  1  0
 27 26  2  0
M  END
$$$$
