HYA.pdb
     RDKit          3D

 28 29  0  0  1  0  0  0  0  0999 V2000
   10.6407  -16.8837   19.0271 N   0  0  0  0  0  0  0  0  0  0  0  0
    9.3307  -16.7191   19.5889 C   0  0  1  0  0  0  0  0  0  0  0  0
    8.5670  -18.0247   19.5077 C   0  0  0  0  0  0  0  0  0  0  0  0
    8.0441  -18.2205   18.1201 C   0  0  0  0  0  0  0  0  0  0  0  0
    8.2337  -17.3491   17.0697 C   0  0  0  0  0  0  0  0  0  0  0  0
    7.6233  -17.8524   15.9835 N   0  0  0  0  0  0  0  0  0  0  0  0
    7.0707  -19.0020   16.3469 C   0  0  0  0  0  0  0  0  0  0  0  0
    7.3179  -19.2391   17.6429 N   0  0  0  0  0  0  0  0  0  0  0  0
    9.4180  -16.2235   20.9825 C   0  0  0  0  0  0  0  0  0  0  0  0
   10.4052  -16.5635   21.7080 O   0  0  0  0  0  0  0  0  0  0  0  0
    6.8919  -11.9337   28.3246 O   0  0  0  0  0  0  0  0  0  0  0  0
    6.9685  -12.4409   27.0390 C   0  0  0  0  0  0  0  0  0  0  0  0
    6.1775  -13.4695   26.5764 C   0  0  0  0  0  0  0  0  0  0  0  0
    6.3046  -13.9283   25.2827 C   0  0  0  0  0  0  0  0  0  0  0  0
    7.2268  -13.3669   24.4228 C   0  0  0  0  0  0  0  0  0  0  0  0
    7.3446  -13.8789   23.0330 C   0  0  0  0  0  0  0  0  0  0  0  0
    8.4204  -14.8917   22.8733 C   0  0  2  0  0  0  0  0  0  0  0  0
    8.3994  -15.3703   21.5049 N   0  0  0  0  0  0  0  0  0  0  0  0
    8.4033  -16.0005   23.8111 C   0  0  0  0  0  0  0  0  0  0  0  0
    7.5010  -16.8681   23.7071 O   0  0  0  0  0  0  0  0  0  0  0  0
    8.0119  -12.3491   24.8750 C   0  0  0  0  0  0  0  0  0  0  0  0
    7.8834  -11.8913   26.1699 C   0  0  0  0  0  0  0  0  0  0  0  0
   10.4467  -18.2747   25.3874 C   0  0  0  0  0  0  0  0  0  0  0  0
    9.4306  -17.2211   25.7680 C   0  0  2  0  0  0  0  0  0  0  0  0
    9.3589  -16.1456   24.8363 N   0  0  0  0  0  0  0  0  0  0  0  0
    9.8198  -16.6960   27.0975 C   0  0  0  0  0  0  0  0  0  0  0  0
   10.1037  -15.4817   27.2342 O   0  0  0  0  0  0  0  0  0  0  0  0
    9.8855  -17.5044   28.2219 O   0  0  0  0  0  0  0  0  0  0  0  0
  2  1  1  1
  3  2  1  0
  4  3  1  0
  5  4  2  0
  6  5  1  0
  7  6  1  0
  7  8  2  0
  8  4  1  0
  9 18  1  0
  9  2  1  0
 10  9  2  0
 12 11  1  0
 13 12  2  0
 14 13  1  0
 15 21  1  0
 15 14  2  0
 17 16  1  1
 16 15  1  0
 17 18  1  0
 19 25  1  0
 19 17  1  0
 20 19  2  0
 21 22  2  0
 22 12  1  0
 24 23  1  6
 24 26  1  0
 24 25  1  0
 26 28  1  0
 27 26  2  0
M  END
$$$$
