HYA.pdb
     RDKit          3D

 28 29  0  0  1  0  0  0  0  0999 V2000
   11.2178  -14.7867   19.1071 N   0  0  0  0  0  0  0  0  0  0  0  0
    9.8663  -14.7136   19.5832 C   0  0  1  0  0  0  0  0  0  0  0  0
    9.0394  -15.8188   18.9593 C   0  0  0  0  0  0  0  0  0  0  0  0
    8.4516  -15.3448   17.6681 C   0  0  0  0  0  0  0  0  0  0  0  0
    8.6340  -14.0915   17.1253 C   0  0  0  0  0  0  0  0  0  0  0  0
    7.9585  -14.0276   15.9654 N   0  0  0  0  0  0  0  0  0  0  0  0
    7.3737  -15.2052   15.7918 C   0  0  0  0  0  0  0  0  0  0  0  0
    7.6643  -16.0163   16.8187 N   0  0  0  0  0  0  0  0  0  0  0  0
    9.8294  -14.7733   21.0632 C   0  0  0  0  0  0  0  0  0  0  0  0
   10.8967  -15.0232   21.7073 O   0  0  0  0  0  0  0  0  0  0  0  0
    6.9190  -12.4192   29.0545 O   0  0  0  0  0  0  0  0  0  0  0  0
    7.0790  -12.6393   27.6974 C   0  0  0  0  0  0  0  0  0  0  0  0
    8.0006  -11.9730   26.9199 C   0  0  0  0  0  0  0  0  0  0  0  0
    8.1089  -12.2401   25.5719 C   0  0  0  0  0  0  0  0  0  0  0  0
    7.2964  -13.1808   24.9719 C   0  0  0  0  0  0  0  0  0  0  0  0
    7.4324  -13.4507   23.5172 C   0  0  0  0  0  0  0  0  0  0  0  0
    8.5523  -14.3737   23.1971 C   0  0  2  0  0  0  0  0  0  0  0  0
    8.6026  -14.5514   21.7590 N   0  0  0  0  0  0  0  0  0  0  0  0
    8.5428  -15.6562   23.8783 C   0  0  0  0  0  0  0  0  0  0  0  0
    7.4386  -16.1784   24.1713 O   0  0  0  0  0  0  0  0  0  0  0  0
    6.3830  -13.8429   25.7361 C   0  0  0  0  0  0  0  0  0  0  0  0
    6.2760  -13.5744   27.0849 C   0  0  0  0  0  0  0  0  0  0  0  0
   11.1369  -18.2373   24.8829 C   0  0  0  0  0  0  0  0  0  0  0  0
    9.8001  -17.5390   24.9959 C   0  0  2  0  0  0  0  0  0  0  0  0
    9.7231  -16.3425   24.2261 N   0  0  0  0  0  0  0  0  0  0  0  0
    9.5920  -17.2183   26.4272 C   0  0  0  0  0  0  0  0  0  0  0  0
    9.5298  -16.0220   26.7997 O   0  0  0  0  0  0  0  0  0  0  0  0
    9.4599  -18.2028   27.3943 O   0  0  0  0  0  0  0  0  0  0  0  0
  2  1  1  6
  3  2  1  0
  4  3  1  0
  5  4  2  0
  6  5  1  0
  7  6  1  0
  7  8  2  0
  8  4  1  0
  9 18  1  0
  9  2  1  0
 10  9  2  0
 12 11  1  0
 13 12  2  0
 14 13  1  0
 15 21  1  0
 15 14  2  0
 17 16  1  6
 16 15  1  0
 17 18  1  0
 19 25  1  0
 19 17  1  0
 20 19  2  0
 21 22  2  0
 22 12  1  0
 24 23  1  1
 24 26  1  0
 24 25  1  0
 26 28  1  0
 27 26  2  0
M  END
$$$$
