HYA.pdb
     RDKit          3D

 28 29  0  0  1  0  0  0  0  0999 V2000
    8.5613  -16.3825   20.9189 N   0  0  0  0  0  0  0  0  0  0  0  0
    9.9456  -16.0145   20.8329 C   0  0  1  0  0  0  0  0  0  0  0  0
   10.1028  -14.8050   19.9347 C   0  0  0  0  0  0  0  0  0  0  0  0
    8.7965  -14.4876   19.2788 C   0  0  0  0  0  0  0  0  0  0  0  0
    7.7749  -13.7630   19.8531 C   0  0  0  0  0  0  0  0  0  0  0  0
    6.7637  -13.6809   18.9720 N   0  0  0  0  0  0  0  0  0  0  0  0
    7.1444  -14.3345   17.8826 C   0  0  0  0  0  0  0  0  0  0  0  0
    8.3779  -14.8305   18.0542 N   0  0  0  0  0  0  0  0  0  0  0  0
   10.5060  -15.7689   22.1824 C   0  0  0  0  0  0  0  0  0  0  0  0
   11.7450  -15.5135   22.3096 O   0  0  0  0  0  0  0  0  0  0  0  0
   10.6255  -14.8397   30.9914 O   0  0  0  0  0  0  0  0  0  0  0  0
   10.2661  -14.8708   29.6551 C   0  0  0  0  0  0  0  0  0  0  0  0
   10.3406  -13.7780   28.8195 C   0  0  0  0  0  0  0  0  0  0  0  0
    9.9666  -13.8767   27.4964 C   0  0  0  0  0  0  0  0  0  0  0  0
    9.5094  -15.0723   26.9800 C   0  0  0  0  0  0  0  0  0  0  0  0
    9.1123  -15.1532   25.5506 C   0  0  0  0  0  0  0  0  0  0  0  0
   10.1792  -15.7106   24.6791 C   0  0  2  0  0  0  0  0  0  0  0  0
    9.6586  -15.8193   23.3303 N   0  0  0  0  0  0  0  0  0  0  0  0
   10.7705  -16.9652   25.1097 C   0  0  0  0  0  0  0  0  0  0  0  0
   11.3997  -16.9969   26.1965 O   0  0  0  0  0  0  0  0  0  0  0  0
    9.4337  -16.1565   27.8020 C   0  0  0  0  0  0  0  0  0  0  0  0
    9.8084  -16.0559   29.1258 C   0  0  0  0  0  0  0  0  0  0  0  0
   10.9254  -20.5032   23.7032 C   0  0  0  0  0  0  0  0  0  0  0  0
   11.1412  -19.4371   24.7541 C   0  0  2  0  0  0  0  0  0  0  0  0
   10.6686  -18.1527   24.3584 N   0  0  0  0  0  0  0  0  0  0  0  0
   12.5978  -19.3671   25.0156 C   0  0  0  0  0  0  0  0  0  0  0  0
   13.0740  -19.8807   26.0564 O   0  0  0  0  0  0  0  0  0  0  0  0
   13.4771  -18.7457   24.1422 O   0  0  0  0  0  0  0  0  0  0  0  0
  2  1  1  1
  3  2  1  0
  4  3  1  0
  5  4  2  0
  6  5  1  0
  7  6  1  0
  7  8  2  0
  8  4  1  0
  9 18  1  0
  9  2  1  0
 10  9  2  0
 12 11  1  0
 13 12  2  0
 14 13  1  0
 15 21  1  0
 15 14  2  0
 17 16  1  1
 16 15  1  0
 17 18  1  0
 19 25  1  0
 19 17  1  0
 20 19  2  0
 21 22  2  0
 22 12  1  0
 24 23  1  6
 24 26  1  0
 24 25  1  0
 26 28  1  0
 27 26  2  0
M  END
$$$$
