HYA.pdb
     RDKit          3D

 28 29  0  0  1  0  0  0  0  0999 V2000
    9.6928  -15.6117   19.9836 N   0  0  0  0  0  0  0  0  0  0  0  0
    8.8172  -16.3885   20.8135 C   0  0  1  0  0  0  0  0  0  0  0  0
    8.9335  -17.8555   20.4547 C   0  0  0  0  0  0  0  0  0  0  0  0
    8.2864  -18.1059   19.1296 C   0  0  0  0  0  0  0  0  0  0  0  0
    7.7335  -17.1376   18.3202 C   0  0  0  0  0  0  0  0  0  0  0  0
    7.2487  -17.7312   17.2164 N   0  0  0  0  0  0  0  0  0  0  0  0
    7.4925  -19.0294   17.3354 C   0  0  0  0  0  0  0  0  0  0  0  0
    8.1227  -19.2724   18.4933 N   0  0  0  0  0  0  0  0  0  0  0  0
    9.1094  -16.1522   22.2468 C   0  0  0  0  0  0  0  0  0  0  0  0
   10.2696  -15.7656   22.5945 O   0  0  0  0  0  0  0  0  0  0  0  0
    7.0406  -10.1548   26.4777 O   0  0  0  0  0  0  0  0  0  0  0  0
    7.0895  -11.5024   26.1655 C   0  0  0  0  0  0  0  0  0  0  0  0
    8.1987  -12.1223   25.6334 C   0  0  0  0  0  0  0  0  0  0  0  0
    8.1813  -13.4702   25.3448 C   0  0  0  0  0  0  0  0  0  0  0  0
    7.0524  -14.2278   25.5827 C   0  0  0  0  0  0  0  0  0  0  0  0
    7.0586  -15.6788   25.2632 C   0  0  0  0  0  0  0  0  0  0  0  0
    8.3293  -16.1341   24.6416 C   0  0  2  0  0  0  0  0  0  0  0  0
    8.0936  -16.3580   23.2287 N   0  0  0  0  0  0  0  0  0  0  0  0
    8.9652  -17.2888   25.2510 C   0  0  0  0  0  0  0  0  0  0  0  0
    8.2620  -18.2927   25.5262 O   0  0  0  0  0  0  0  0  0  0  0  0
    5.9523  -13.6198   26.1090 C   0  0  0  0  0  0  0  0  0  0  0  0
    5.9715  -12.2709   26.3972 C   0  0  0  0  0  0  0  0  0  0  0  0
   12.5246  -18.3723   25.9642 C   0  0  0  0  0  0  0  0  0  0  0  0
   11.0283  -18.4073   26.1821 C   0  0  2  0  0  0  0  0  0  0  0  0
   10.3418  -17.3320   25.5479 N   0  0  0  0  0  0  0  0  0  0  0  0
   10.7961  -18.3462   27.6439 C   0  0  0  0  0  0  0  0  0  0  0  0
   11.2554  -19.2437   28.3905 O   0  0  0  0  0  0  0  0  0  0  0  0
   10.0781  -17.3189   28.2366 O   0  0  0  0  0  0  0  0  0  0  0  0
  2  1  1  6
  3  2  1  0
  4  3  1  0
  5  4  2  0
  6  5  1  0
  7  6  1  0
  7  8  2  0
  8  4  1  0
  9 18  1  0
  9  2  1  0
 10  9  2  0
 12 11  1  0
 13 12  2  0
 14 13  1  0
 15 21  1  0
 15 14  2  0
 17 16  1  1
 16 15  1  0
 17 18  1  0
 19 25  1  0
 19 17  1  0
 20 19  2  0
 21 22  2  0
 22 12  1  0
 24 23  1  1
 24 26  1  0
 24 25  1  0
 26 28  1  0
 27 26  2  0
M  END
$$$$
