HYA.pdb
     RDKit          3D

 28 29  0  0  1  0  0  0  0  0999 V2000
   10.3083  -16.8997   18.8235 N   0  0  0  0  0  0  0  0  0  0  0  0
    9.0487  -16.6902   19.4780 C   0  0  1  0  0  0  0  0  0  0  0  0
    8.2451  -17.9742   19.4728 C   0  0  0  0  0  0  0  0  0  0  0  0
    7.6236  -18.1776   18.1275 C   0  0  0  0  0  0  0  0  0  0  0  0
    7.8387  -17.3801   17.0246 C   0  0  0  0  0  0  0  0  0  0  0  0
    7.1169  -17.8661   16.0006 N   0  0  0  0  0  0  0  0  0  0  0  0
    6.4724  -18.9334   16.4526 C   0  0  0  0  0  0  0  0  0  0  0  0
    6.7704  -19.1353   17.7438 N   0  0  0  0  0  0  0  0  0  0  0  0
    9.2530  -16.1796   20.8538 C   0  0  0  0  0  0  0  0  0  0  0  0
   10.3644  -16.3796   21.4381 O   0  0  0  0  0  0  0  0  0  0  0  0
    7.1664  -12.0822   28.4444 O   0  0  0  0  0  0  0  0  0  0  0  0
    7.1442  -12.5280   27.1341 C   0  0  0  0  0  0  0  0  0  0  0  0
    6.2897  -12.0320   26.1741 C   0  0  0  0  0  0  0  0  0  0  0  0
    6.3189  -12.5207   24.8854 C   0  0  0  0  0  0  0  0  0  0  0  0
    7.2048  -13.5173   24.5291 C   0  0  0  0  0  0  0  0  0  0  0  0
    7.2170  -14.0273   23.1336 C   0  0  0  0  0  0  0  0  0  0  0  0
    8.3733  -14.9156   22.8469 C   0  0  2  0  0  0  0  0  0  0  0  0
    8.2076  -15.4683   21.5169 N   0  0  0  0  0  0  0  0  0  0  0  0
    8.6331  -15.9654   23.8163 C   0  0  0  0  0  0  0  0  0  0  0  0
    7.7563  -16.8444   24.0070 O   0  0  0  0  0  0  0  0  0  0  0  0
    8.0524  -14.0116   25.4747 C   0  0  0  0  0  0  0  0  0  0  0  0
    8.0217  -13.5214   26.7637 C   0  0  0  0  0  0  0  0  0  0  0  0
   11.7684  -17.3773   25.2466 C   0  0  0  0  0  0  0  0  0  0  0  0
   10.2737  -17.1579   25.3199 C   0  0  2  0  0  0  0  0  0  0  0  0
    9.8305  -16.0406   24.5549 N   0  0  0  0  0  0  0  0  0  0  0  0
    9.9305  -16.9461   26.7455 C   0  0  0  0  0  0  0  0  0  0  0  0
    9.3886  -15.8744   27.1081 O   0  0  0  0  0  0  0  0  0  0  0  0
   10.1872  -17.9004   27.7178 O   0  0  0  0  0  0  0  0  0  0  0  0
  2  1  1  1
  3  2  1  0
  4  3  1  0
  5  4  2  0
  6  5  1  0
  7  6  1  0
  7  8  2  0
  8  4  1  0
  9 18  1  0
  9  2  1  0
 10  9  2  0
 12 11  1  0
 13 12  2  0
 14 13  1  0
 15 21  1  0
 15 14  2  0
 17 16  1  1
 16 15  1  0
 17 18  1  0
 19 25  1  0
 19 17  1  0
 20 19  2  0
 21 22  2  0
 22 12  1  0
 24 23  1  1
 24 26  1  0
 24 25  1  0
 26 28  1  0
 27 26  2  0
M  END
$$$$
