CCT.pdb
     RDKit          3D

 20 19  0  0  1  0  0  0  0  0999 V2000
    8.1949  -15.1070   15.2796 N   0  0  0  0  0  0  0  0  0  0  0  0
    8.4624  -14.5090   16.5725 C   0  0  1  0  0  0  0  0  0  0  0  0
    7.7471  -13.1786   16.7012 C   0  0  0  0  0  0  0  0  0  0  0  0
    8.1693  -12.5271   18.3572 S   0  0  0  0  0  0  0  0  0  0  0  0
    8.1156  -15.4351   17.6828 C   0  0  0  0  0  0  0  0  0  0  0  0
    7.2747  -16.3504   17.4968 O   0  0  0  0  0  0  0  0  0  0  0  0
    8.7023  -15.3375   18.9830 N   0  0  0  0  0  0  0  0  0  0  0  0
    8.5461  -16.4157   19.9399 C   0  0  1  0  0  0  0  0  0  0  0  0
    9.1750  -17.6973   19.3954 C   0  0  0  0  0  0  0  0  0  0  0  0
    9.0920  -19.0368   20.6143 S   0  0  0  0  0  0  0  0  0  0  0  0
    9.2197  -16.1076   21.2249 C   0  0  0  0  0  0  0  0  0  0  0  0
   10.4493  -15.8514   21.2183 O   0  0  0  0  0  0  0  0  0  0  0  0
    8.8457  -14.7722   26.0117 C   0  0  0  0  0  0  0  0  0  0  0  0
    8.2575  -15.4684   24.8344 C   0  0  1  0  0  0  0  0  0  0  0  0
    7.1478  -14.7394   24.3654 O   0  0  0  0  0  0  0  0  0  0  0  0
    9.1964  -15.6196   23.6709 C   0  0  2  0  0  0  0  0  0  0  0  0
    8.5502  -16.0851   22.4734 N   0  0  0  0  0  0  0  0  0  0  0  0
   10.3488  -16.4929   23.9873 C   0  0  0  0  0  0  0  0  0  0  0  0
   10.2612  -17.7428   23.8723 O   0  0  0  0  0  0  0  0  0  0  0  0
   11.5638  -15.9795   24.4201 O   0  0  0  0  0  0  0  0  0  0  0  0
  2  3  1  0
  2  1  1  6
  4  3  1  0
  5  6  2  0
  5  2  1  0
  7  5  1  0
  8  7  1  0
  9 10  1  0
  8  9  1  6
 11  8  1  0
 11 12  2  0
 14 13  1  1
 14 15  1  0
 16 17  1  6
 16 14  1  0
 17 11  1  0
 18 16  1  0
 19 18  2  0
 20 18  1  0
M  END
$$$$
