CCT.pdb
     RDKit          3D

 20 19  0  0  1  0  0  0  0  0999 V2000
    7.9556  -13.6580   19.8552 N   0  0  0  0  0  0  0  0  0  0  0  0
    7.2216  -14.3397   20.9028 C   0  0  1  0  0  0  0  0  0  0  0  0
    6.9352  -15.7740   20.5045 C   0  0  0  0  0  0  0  0  0  0  0  0
    6.0678  -16.5368   21.9224 S   0  0  0  0  0  0  0  0  0  0  0  0
    7.9313  -14.2571   22.2068 C   0  0  0  0  0  0  0  0  0  0  0  0
    9.1835  -14.3564   22.2469 O   0  0  0  0  0  0  0  0  0  0  0  0
    7.2483  -14.0660   23.4482 N   0  0  0  0  0  0  0  0  0  0  0  0
    7.9897  -14.0262   24.6937 C   0  0  1  0  0  0  0  0  0  0  0  0
    7.1883  -13.2800   25.7592 C   0  0  0  0  0  0  0  0  0  0  0  0
    8.0506  -13.2897   27.3539 S   0  0  0  0  0  0  0  0  0  0  0  0
    8.2531  -15.3889   25.2165 C   0  0  0  0  0  0  0  0  0  0  0  0
    7.3020  -16.2067   25.2832 O   0  0  0  0  0  0  0  0  0  0  0  0
   10.9838  -19.3228   25.8739 C   0  0  0  0  0  0  0  0  0  0  0  0
   10.7425  -17.9453   25.3631 C   0  0  1  0  0  0  0  0  0  0  0  0
   10.2492  -18.0138   24.0460 O   0  0  0  0  0  0  0  0  0  0  0  0
    9.7404  -17.1563   26.1578 C   0  0  2  0  0  0  0  0  0  0  0  0
    9.5287  -15.8275   25.6500 N   0  0  0  0  0  0  0  0  0  0  0  0
   10.0875  -17.0913   27.5952 C   0  0  0  0  0  0  0  0  0  0  0  0
   10.4988  -16.0201   28.1113 O   0  0  0  0  0  0  0  0  0  0  0  0
    9.9765  -18.1955   28.4293 O   0  0  0  0  0  0  0  0  0  0  0  0
  2  3  1  0
  2  1  1  6
  4  3  1  0
  5  6  2  0
  5  2  1  0
  7  5  1  0
  8  7  1  0
  9 10  1  0
  8  9  1  1
 11  8  1  0
 11 12  2  0
 14 13  1  1
 14 15  1  0
 16 17  1  6
 16 14  1  0
 17 11  1  0
 18 16  1  0
 19 18  2  0
 20 18  1  0
M  END
$$$$
