CCT.pdb
     RDKit          3D

 20 19  0  0  1  0  0  0  0  0999 V2000
    8.4975  -17.1723   15.7700 N   0  0  0  0  0  0  0  0  0  0  0  0
    8.0370  -17.7037   17.0376 C   0  0  1  0  0  0  0  0  0  0  0  0
    8.3463  -19.1843   17.1372 C   0  0  0  0  0  0  0  0  0  0  0  0
    6.8673  -20.0606   16.5128 S   0  0  0  0  0  0  0  0  0  0  0  0
    8.5987  -16.9411   18.1837 C   0  0  0  0  0  0  0  0  0  0  0  0
    9.6871  -16.3261   18.0550 O   0  0  0  0  0  0  0  0  0  0  0  0
    7.9506  -16.8683   19.4561 N   0  0  0  0  0  0  0  0  0  0  0  0
    8.5328  -16.0888   20.5312 C   0  0  1  0  0  0  0  0  0  0  0  0
    7.4365  -15.5840   21.4682 C   0  0  0  0  0  0  0  0  0  0  0  0
    8.1436  -14.7496   22.9141 S   0  0  0  0  0  0  0  0  0  0  0  0
    9.4699  -16.8982   21.3476 C   0  0  0  0  0  0  0  0  0  0  0  0
    9.0842  -18.0087   21.7900 O   0  0  0  0  0  0  0  0  0  0  0  0
   12.9509  -17.9090   20.1434 C   0  0  0  0  0  0  0  0  0  0  0  0
   13.0491  -17.4484   21.5558 C   0  0  1  0  0  0  0  0  0  0  0  0
   13.5951  -16.1508   21.5884 O   0  0  0  0  0  0  0  0  0  0  0  0
   11.7333  -17.3802   22.2784 C   0  0  2  0  0  0  0  0  0  0  0  0
   10.7892  -16.4879   21.6613 N   0  0  0  0  0  0  0  0  0  0  0  0
   11.8933  -17.0267   23.7067 C   0  0  0  0  0  0  0  0  0  0  0  0
   11.4113  -15.9583   24.1644 O   0  0  0  0  0  0  0  0  0  0  0  0
   12.5739  -17.8474   24.5959 O   0  0  0  0  0  0  0  0  0  0  0  0
  2  3  1  0
  2  1  1  6
  4  3  1  0
  5  6  2  0
  5  2  1  0
  7  5  1  0
  8  7  1  0
  9 10  1  0
  8  9  1  1
 11  8  1  0
 11 12  2  0
 14 13  1  6
 14 15  1  0
 16 17  1  6
 16 14  1  0
 17 11  1  0
 18 16  1  0
 19 18  2  0
 20 18  1  0
M  END
$$$$
