CCT.pdb
     RDKit          3D

 20 19  0  0  1  0  0  0  0  0999 V2000
    8.4781  -12.6273   19.9134 N   0  0  0  0  0  0  0  0  0  0  0  0
    7.5878  -13.4463   20.7118 C   0  0  1  0  0  0  0  0  0  0  0  0
    7.4012  -14.8079   20.0723 C   0  0  0  0  0  0  0  0  0  0  0  0
    6.5944  -14.5104   18.4581 S   0  0  0  0  0  0  0  0  0  0  0  0
    8.0608  -13.5535   22.1173 C   0  0  0  0  0  0  0  0  0  0  0  0
    9.2759  -13.7688   22.3557 O   0  0  0  0  0  0  0  0  0  0  0  0
    7.1855  -13.4215   23.2401 N   0  0  0  0  0  0  0  0  0  0  0  0
    7.7075  -13.5076   24.5901 C   0  0  1  0  0  0  0  0  0  0  0  0
    6.7363  -12.8544   25.5722 C   0  0  0  0  0  0  0  0  0  0  0  0
    7.3357  -12.9948   27.2774 S   0  0  0  0  0  0  0  0  0  0  0  0
    7.8842  -14.9165   25.0187 C   0  0  0  0  0  0  0  0  0  0  0  0
    6.8640  -15.6161   25.2363 O   0  0  0  0  0  0  0  0  0  0  0  0
    9.6358  -17.7784   23.2529 C   0  0  0  0  0  0  0  0  0  0  0  0
   10.1427  -17.7069   24.6510 C   0  0  1  0  0  0  0  0  0  0  0  0
   11.4136  -17.1003   24.6580 O   0  0  0  0  0  0  0  0  0  0  0  0
    9.2782  -16.9063   25.5836 C   0  0  2  0  0  0  0  0  0  0  0  0
    9.1502  -15.5264   25.1993 N   0  0  0  0  0  0  0  0  0  0  0  0
    9.7359  -16.9922   26.9885 C   0  0  0  0  0  0  0  0  0  0  0  0
    9.7386  -18.0921   27.5996 O   0  0  0  0  0  0  0  0  0  0  0  0
   10.1776  -15.8772   27.6878 O   0  0  0  0  0  0  0  0  0  0  0  0
  2  3  1  0
  2  1  1  6
  4  3  1  0
  5  6  2  0
  5  2  1  0
  7  5  1  0
  8  7  1  0
  9 10  1  0
  8  9  1  1
 11  8  1  0
 11 12  2  0
 14 13  1  6
 14 15  1  0
 16 17  1  6
 16 14  1  0
 17 11  1  0
 18 16  1  0
 19 18  2  0
 20 18  1  0
M  END
$$$$
