CCT.pdb
     RDKit          3D

 20 19  0  0  1  0  0  0  0  0999 V2000
    7.9149  -17.4060   15.7996 N   0  0  0  0  0  0  0  0  0  0  0  0
    7.2698  -17.7277   17.0572 C   0  0  1  0  0  0  0  0  0  0  0  0
    7.3075  -19.2224   17.3070 C   0  0  0  0  0  0  0  0  0  0  0  0
    6.6429  -19.4779   18.9916 S   0  0  0  0  0  0  0  0  0  0  0  0
    7.8631  -16.9615   18.1848 C   0  0  0  0  0  0  0  0  0  0  0  0
    9.1105  -16.9316   18.3356 O   0  0  0  0  0  0  0  0  0  0  0  0
    7.0707  -16.2388   19.1304 N   0  0  0  0  0  0  0  0  0  0  0  0
    7.7023  -15.5354   20.2298 C   0  0  1  0  0  0  0  0  0  0  0  0
    6.6751  -14.6731   20.9618 C   0  0  0  0  0  0  0  0  0  0  0  0
    7.3712  -13.9747   22.4832 S   0  0  0  0  0  0  0  0  0  0  0  0
    8.2740  -16.4762   21.2238 C   0  0  0  0  0  0  0  0  0  0  0  0
    7.5831  -17.4563   21.5976 O   0  0  0  0  0  0  0  0  0  0  0  0
   12.5147  -16.5794   22.3108 C   0  0  0  0  0  0  0  0  0  0  0  0
   11.5472  -17.7098   22.2589 C   0  0  1  0  0  0  0  0  0  0  0  0
   11.9537  -18.7159   23.1564 O   0  0  0  0  0  0  0  0  0  0  0  0
   10.1404  -17.3394   22.6355 C   0  0  2  0  0  0  0  0  0  0  0  0
    9.5679  -16.3328   21.7827 N   0  0  0  0  0  0  0  0  0  0  0  0
   10.0290  -16.9170   24.0497 C   0  0  0  0  0  0  0  0  0  0  0  0
    9.7822  -15.7197   24.3474 O   0  0  0  0  0  0  0  0  0  0  0  0
   10.1898  -17.8112   25.0993 O   0  0  0  0  0  0  0  0  0  0  0  0
  2  3  1  0
  2  1  1  6
  4  3  1  0
  5  6  2  0
  5  2  1  0
  7  5  1  0
  8  7  1  0
  9 10  1  0
  8  9  1  1
 11  8  1  0
 11 12  2  0
 14 13  1  1
 14 15  1  0
 16 17  1  6
 16 14  1  0
 17 11  1  0
 18 16  1  0
 19 18  2  0
 20 18  1  0
M  END
$$$$
