CCT.pdb
     RDKit          3D

 20 19  0  0  1  0  0  0  0  0999 V2000
    9.8530  -17.5209   16.9335 N   0  0  0  0  0  0  0  0  0  0  0  0
    9.5939  -18.1879   18.1940 C   0  0  1  0  0  0  0  0  0  0  0  0
    9.7628  -19.6872   18.0468 C   0  0  0  0  0  0  0  0  0  0  0  0
   11.4437  -19.9507   17.3757 S   0  0  0  0  0  0  0  0  0  0  0  0
   10.4417  -17.6385   19.2849 C   0  0  0  0  0  0  0  0  0  0  0  0
   11.4824  -16.9917   19.0054 O   0  0  0  0  0  0  0  0  0  0  0  0
   10.1284  -17.8108   20.6692 N   0  0  0  0  0  0  0  0  0  0  0  0
   10.9819  -17.2357   21.6906 C   0  0  1  0  0  0  0  0  0  0  0  0
   10.1344  -16.6957   22.8414 C   0  0  0  0  0  0  0  0  0  0  0  0
   11.1771  -16.1004   24.1997 S   0  0  0  0  0  0  0  0  0  0  0  0
   11.9064  -18.2450   22.2620 C   0  0  0  0  0  0  0  0  0  0  0  0
   11.4307  -19.3186   22.7079 O   0  0  0  0  0  0  0  0  0  0  0  0
   14.7322  -19.8843   20.3566 C   0  0  0  0  0  0  0  0  0  0  0  0
   15.2540  -19.4162   21.6701 C   0  0  1  0  0  0  0  0  0  0  0  0
   15.9603  -18.2112   21.4911 O   0  0  0  0  0  0  0  0  0  0  0  0
   14.1918  -19.1442   22.6977 C   0  0  2  0  0  0  0  0  0  0  0  0
   13.3101  -18.0674   22.3353 N   0  0  0  0  0  0  0  0  0  0  0  0
   14.7597  -18.8930   24.0413 C   0  0  0  0  0  0  0  0  0  0  0  0
   14.6660  -17.7594   24.5791 O   0  0  0  0  0  0  0  0  0  0  0  0
   15.4135  -19.8841   24.7607 O   0  0  0  0  0  0  0  0  0  0  0  0
  2  3  1  0
  2  1  1  6
  4  3  1  0
  5  6  2  0
  5  2  1  0
  7  5  1  0
  8  7  1  0
  9 10  1  0
  8  9  1  1
 11  8  1  0
 11 12  2  0
 14 13  1  6
 14 15  1  0
 16 17  1  6
 16 14  1  0
 17 11  1  0
 18 16  1  0
 19 18  2  0
 20 18  1  0
M  END
$$$$
