CCT.pdb
     RDKit          3D

 20 19  0  0  1  0  0  0  0  0999 V2000
    8.5643  -16.2201   16.9416 N   0  0  0  0  0  0  0  0  0  0  0  0
    7.7351  -16.5605   18.0806 C   0  0  1  0  0  0  0  0  0  0  0  0
    7.5512  -18.0623   18.1746 C   0  0  0  0  0  0  0  0  0  0  0  0
    6.1222  -18.4719   17.1091 S   0  0  0  0  0  0  0  0  0  0  0  0
    8.2792  -15.9882   19.3404 C   0  0  0  0  0  0  0  0  0  0  0  0
    9.5128  -15.7748   19.4511 O   0  0  0  0  0  0  0  0  0  0  0  0
    7.4536  -15.6596   20.4605 N   0  0  0  0  0  0  0  0  0  0  0  0
    8.0432  -15.1303   21.6748 C   0  0  1  0  0  0  0  0  0  0  0  0
    6.9867  -14.3887   22.4925 C   0  0  0  0  0  0  0  0  0  0  0  0
    7.6225  -13.9384   24.1295 S   0  0  0  0  0  0  0  0  0  0  0  0
    8.5856  -16.2102   22.5346 C   0  0  0  0  0  0  0  0  0  0  0  0
    7.8627  -17.2066   22.7845 O   0  0  0  0  0  0  0  0  0  0  0  0
   11.1886  -18.5481   21.7827 C   0  0  0  0  0  0  0  0  0  0  0  0
   11.5485  -17.9939   23.1169 C   0  0  1  0  0  0  0  0  0  0  0  0
   12.5736  -17.0402   22.9668 O   0  0  0  0  0  0  0  0  0  0  0  0
   10.4182  -17.3032   23.8265 C   0  0  2  0  0  0  0  0  0  0  0  0
    9.8858  -16.1840   23.0969 N   0  0  0  0  0  0  0  0  0  0  0  0
   10.7897  -16.8757   25.1940 C   0  0  0  0  0  0  0  0  0  0  0  0
   10.8052  -15.6570   25.5066 O   0  0  0  0  0  0  0  0  0  0  0  0
   11.1338  -17.7883   26.1819 O   0  0  0  0  0  0  0  0  0  0  0  0
  2  3  1  0
  2  1  1  6
  4  3  1  0
  5  6  2  0
  5  2  1  0
  7  5  1  0
  8  7  1  0
  9 10  1  0
  8  9  1  1
 11  8  1  0
 11 12  2  0
 14 13  1  6
 14 15  1  0
 16 17  1  6
 16 14  1  0
 17 11  1  0
 18 16  1  0
 19 18  2  0
 20 18  1  0
M  END
$$$$
