CCT.pdb
     RDKit          3D

 20 19  0  0  1  0  0  0  0  0999 V2000
    8.1872  -17.2685   16.8479 N   0  0  0  0  0  0  0  0  0  0  0  0
    7.5734  -17.2780   18.1610 C   0  0  1  0  0  0  0  0  0  0  0  0
    7.1676  -18.6863   18.5481 C   0  0  0  0  0  0  0  0  0  0  0  0
    5.8703  -19.1909   17.3617 S   0  0  0  0  0  0  0  0  0  0  0  0
    8.4591  -16.6557   19.1803 C   0  0  0  0  0  0  0  0  0  0  0  0
    9.7070  -16.6987   19.0374 O   0  0  0  0  0  0  0  0  0  0  0  0
    7.9545  -15.9947   20.3433 N   0  0  0  0  0  0  0  0  0  0  0  0
    8.8658  -15.3944   21.2981 C   0  0  1  0  0  0  0  0  0  0  0  0
    8.1333  -14.3505   22.1397 C   0  0  0  0  0  0  0  0  0  0  0  0
    6.7113  -15.0797   22.9959 S   0  0  0  0  0  0  0  0  0  0  0  0
    9.4192  -16.4032   22.2339 C   0  0  0  0  0  0  0  0  0  0  0  0
    8.6935  -17.3665   22.5850 O   0  0  0  0  0  0  0  0  0  0  0  0
   12.6190  -18.4216   21.6796 C   0  0  0  0  0  0  0  0  0  0  0  0
   12.6217  -17.8859   23.0687 C   0  0  1  0  0  0  0  0  0  0  0  0
   13.4909  -16.7805   23.1428 O   0  0  0  0  0  0  0  0  0  0  0  0
   11.2803  -17.4122   23.5529 C   0  0  2  0  0  0  0  0  0  0  0  0
   10.7329  -16.3437   22.7611 N   0  0  0  0  0  0  0  0  0  0  0  0
   11.3049  -17.0143   24.9784 C   0  0  0  0  0  0  0  0  0  0  0  0
   11.0628  -15.8281   25.3209 O   0  0  0  0  0  0  0  0  0  0  0  0
   11.5925  -17.9204   25.9901 O   0  0  0  0  0  0  0  0  0  0  0  0
  2  3  1  0
  2  1  1  6
  4  3  1  0
  5  6  2  0
  5  2  1  0
  7  5  1  0
  8  7  1  0
  9 10  1  0
  8  9  1  1
 11  8  1  0
 11 12  2  0
 14 13  1  6
 14 15  1  0
 16 17  1  6
 16 14  1  0
 17 11  1  0
 18 16  1  0
 19 18  2  0
 20 18  1  0
M  END
$$$$
