CCT.pdb
     RDKit          3D

 20 19  0  0  1  0  0  0  0  0999 V2000
   -0.9577  -27.9764   31.1112 N   0  0  0  0  0  0  0  0  0  0  0  0
   -1.4121  -26.6810   30.6460 C   0  0  1  0  0  0  0  0  0  0  0  0
   -0.7726  -26.3399   29.3146 C   0  0  0  0  0  0  0  0  0  0  0  0
    0.8878  -25.6760   29.6980 S   0  0  0  0  0  0  0  0  0  0  0  0
   -2.8961  -26.6156   30.5818 C   0  0  0  0  0  0  0  0  0  0  0  0
   -3.5317  -27.4519   29.8917 O   0  0  0  0  0  0  0  0  0  0  0  0
   -3.6576  -25.6276   31.2805 N   0  0  0  0  0  0  0  0  0  0  0  0
   -5.1028  -25.6006   31.1662 C   0  0  1  0  0  0  0  0  0  0  0  0
   -5.7430  -25.8293   32.5345 C   0  0  0  0  0  0  0  0  0  0  0  0
   -5.3615  -27.4845   33.1680 S   0  0  0  0  0  0  0  0  0  0  0  0
   -5.5871  -24.2901   30.6683 C   0  0  0  0  0  0  0  0  0  0  0  0
   -5.0970  -23.2395   31.1518 O   0  0  0  0  0  0  0  0  0  0  0  0
   -7.9352  -21.5600   27.2562 C   0  0  0  0  0  0  0  0  0  0  0  0
   -7.6022  -22.8984   27.8171 C   0  0  1  0  0  0  0  0  0  0  0  0
   -6.6584  -23.5327   26.9865 O   0  0  0  0  0  0  0  0  0  0  0  0
   -7.0065  -22.8618   29.1962 C   0  0  2  0  0  0  0  0  0  0  0  0
   -6.5811  -24.1520   29.6682 N   0  0  0  0  0  0  0  0  0  0  0  0
   -7.9168  -22.2439   30.1863 C   0  0  0  0  0  0  0  0  0  0  0  0
   -8.8090  -22.9250   30.7548 O   0  0  0  0  0  0  0  0  0  0  0  0
   -7.8291  -20.9014   30.5287 O   0  0  0  0  0  0  0  0  0  0  0  0
  2  3  1  0
  2  1  1  6
  4  3  1  0
  5  6  2  0
  5  2  1  0
  7  5  1  0
  8  7  1  0
  9 10  1  0
  8  9  1  1
 11  8  1  0
 11 12  2  0
 14 13  1  6
 14 15  1  0
 16 17  1  1
 16 14  1  0
 17 11  1  0
 18 16  1  0
 19 18  2  0
 20 18  1  0
M  END
$$$$
