CCT.pdb
     RDKit          3D

 20 19  0  0  1  0  0  0  0  0999 V2000
    7.9787  -12.8154   20.3725 N   0  0  0  0  0  0  0  0  0  0  0  0
    7.1874  -13.6270   21.2759 C   0  0  1  0  0  0  0  0  0  0  0  0
    6.8850  -14.9753   20.6526 C   0  0  0  0  0  0  0  0  0  0  0  0
    6.1117  -14.6295   19.0317 S   0  0  0  0  0  0  0  0  0  0  0  0
    7.8451  -13.7638   22.6023 C   0  0  0  0  0  0  0  0  0  0  0  0
    9.0967  -13.8506   22.6761 O   0  0  0  0  0  0  0  0  0  0  0  0
    7.1114  -13.8030   23.8289 N   0  0  0  0  0  0  0  0  0  0  0  0
    7.8073  -13.9234   25.0952 C   0  0  1  0  0  0  0  0  0  0  0  0
    6.8977  -13.4792   26.2396 C   0  0  0  0  0  0  0  0  0  0  0  0
    6.7986  -11.6714   26.3337 S   0  0  0  0  0  0  0  0  0  0  0  0
    8.2045  -15.3260   25.3691 C   0  0  0  0  0  0  0  0  0  0  0  0
    7.3154  -16.2128   25.3982 O   0  0  0  0  0  0  0  0  0  0  0  0
   11.5451  -18.9325   25.2687 C   0  0  0  0  0  0  0  0  0  0  0  0
   11.1554  -17.5080   25.0793 C   0  0  1  0  0  0  0  0  0  0  0  0
   10.9382  -17.2599   23.7103 O   0  0  0  0  0  0  0  0  0  0  0  0
    9.8953  -17.1098   25.7945 C   0  0  2  0  0  0  0  0  0  0  0  0
    9.5426  -15.7288   25.6025 N   0  0  0  0  0  0  0  0  0  0  0  0
    9.9495  -17.4139   27.2420 C   0  0  0  0  0  0  0  0  0  0  0  0
   10.2232  -16.5159   28.0797 O   0  0  0  0  0  0  0  0  0  0  0  0
    9.7039  -18.6880   27.7356 O   0  0  0  0  0  0  0  0  0  0  0  0
  2  3  1  0
  2  1  1  6
  4  3  1  0
  5  6  2  0
  5  2  1  0
  7  5  1  0
  8  7  1  0
  9 10  1  0
  8  9  1  1
 11  8  1  0
 11 12  2  0
 14 13  1  6
 14 15  1  0
 16 17  1  1
 16 14  1  0
 17 11  1  0
 18 16  1  0
 19 18  2  0
 20 18  1  0
M  END
$$$$
