CCT.pdb
     RDKit          3D

 20 19  0  0  1  0  0  0  0  0999 V2000
    8.8053  -14.8343   20.5693 N   0  0  0  0  0  0  0  0  0  0  0  0
    7.9827  -15.0973   21.7334 C   0  0  1  0  0  0  0  0  0  0  0  0
    7.2879  -16.4381   21.6016 C   0  0  0  0  0  0  0  0  0  0  0  0
    6.2757  -16.3443   20.0812 S   0  0  0  0  0  0  0  0  0  0  0  0
    8.7715  -15.0022   22.9901 C   0  0  0  0  0  0  0  0  0  0  0  0
    9.9795  -15.3489   23.0003 O   0  0  0  0  0  0  0  0  0  0  0  0
    8.2155  -14.5257   24.2181 N   0  0  0  0  0  0  0  0  0  0  0  0
    9.0245  -14.4827   25.4206 C   0  0  1  0  0  0  0  0  0  0  0  0
    8.3583  -13.5956   26.4713 C   0  0  0  0  0  0  0  0  0  0  0  0
    9.3398  -13.5340   27.9943 S   0  0  0  0  0  0  0  0  0  0  0  0
    9.1839  -15.8297   26.0204 C   0  0  0  0  0  0  0  0  0  0  0  0
    8.1718  -16.5643   26.1379 O   0  0  0  0  0  0  0  0  0  0  0  0
   11.8612  -19.8417   26.7490 C   0  0  0  0  0  0  0  0  0  0  0  0
   11.6912  -18.4395   26.2781 C   0  0  1  0  0  0  0  0  0  0  0  0
   11.4255  -18.4388   24.8952 O   0  0  0  0  0  0  0  0  0  0  0  0
   10.5608  -17.6981   26.9343 C   0  0  2  0  0  0  0  0  0  0  0  0
   10.4244  -16.3425   26.4738 N   0  0  0  0  0  0  0  0  0  0  0  0
   10.6584  -17.7155   28.4111 C   0  0  0  0  0  0  0  0  0  0  0  0
   11.0037  -16.6859   29.0466 O   0  0  0  0  0  0  0  0  0  0  0  0
   10.3770  -18.8544   29.1535 O   0  0  0  0  0  0  0  0  0  0  0  0
  2  3  1  0
  2  1  1  6
  4  3  1  0
  5  6  2  0
  5  2  1  0
  7  5  1  0
  8  7  1  0
  9 10  1  0
  8  9  1  1
 11  8  1  0
 11 12  2  0
 14 13  1  1
 14 15  1  0
 16 17  1  6
 16 14  1  0
 17 11  1  0
 18 16  1  0
 19 18  2  0
 20 18  1  0
M  END
$$$$
