CCT.pdb
     RDKit          3D

 20 19  0  0  1  0  0  0  0  0999 V2000
    8.1151  -13.9358   19.9548 N   0  0  0  0  0  0  0  0  0  0  0  0
    7.2361  -14.0025   21.1054 C   0  0  1  0  0  0  0  0  0  0  0  0
    6.2283  -15.1227   20.9403 C   0  0  0  0  0  0  0  0  0  0  0  0
    7.1912  -16.6771   20.8981 S   0  0  0  0  0  0  0  0  0  0  0  0
    8.0055  -14.1303   22.3713 C   0  0  0  0  0  0  0  0  0  0  0  0
    9.2306  -14.4084   22.3356 O   0  0  0  0  0  0  0  0  0  0  0  0
    7.4112  -13.9493   23.6591 N   0  0  0  0  0  0  0  0  0  0  0  0
    8.2092  -14.0946   24.8610 C   0  0  1  0  0  0  0  0  0  0  0  0
    7.5147  -13.4129   26.0390 C   0  0  0  0  0  0  0  0  0  0  0  0
    5.7370  -13.7685   26.0463 S   0  0  0  0  0  0  0  0  0  0  0  0
    8.3937  -15.5204   25.2254 C   0  0  0  0  0  0  0  0  0  0  0  0
    7.4456  -16.3220   25.0350 O   0  0  0  0  0  0  0  0  0  0  0  0
   10.1960  -18.0800   23.6428 C   0  0  0  0  0  0  0  0  0  0  0  0
   10.6749  -18.1183   25.0521 C   0  0  1  0  0  0  0  0  0  0  0  0
   11.9192  -17.4651   25.1419 O   0  0  0  0  0  0  0  0  0  0  0  0
    9.7617  -17.4424   26.0356 C   0  0  2  0  0  0  0  0  0  0  0  0
    9.5898  -16.0373   25.7817 N   0  0  0  0  0  0  0  0  0  0  0  0
   10.1931  -17.6468   27.4366 C   0  0  0  0  0  0  0  0  0  0  0  0
   10.5348  -16.6718   28.1547 O   0  0  0  0  0  0  0  0  0  0  0  0
   10.2398  -18.9078   28.0153 O   0  0  0  0  0  0  0  0  0  0  0  0
  2  3  1  0
  2  1  1  6
  4  3  1  0
  5  6  2  0
  5  2  1  0
  7  5  1  0
  8  7  1  0
  9 10  1  0
  8  9  1  1
 11  8  1  0
 11 12  2  0
 14 13  1  6
 14 15  1  0
 16 17  1  6
 16 14  1  0
 17 11  1  0
 18 16  1  0
 19 18  2  0
 20 18  1  0
M  END
$$$$
