CCT.pdb
     RDKit          3D

 20 19  0  0  1  0  0  0  0  0999 V2000
    8.6934  -17.9120   16.3199 N   0  0  0  0  0  0  0  0  0  0  0  0
    7.8194  -17.3745   17.3437 C   0  0  1  0  0  0  0  0  0  0  0  0
    7.0015  -18.4812   17.9793 C   0  0  0  0  0  0  0  0  0  0  0  0
    7.6838  -20.0540   17.3424 S   0  0  0  0  0  0  0  0  0  0  0  0
    8.5811  -16.5960   18.3558 C   0  0  0  0  0  0  0  0  0  0  0  0
    9.8129  -16.7964   18.5045 O   0  0  0  0  0  0  0  0  0  0  0  0
    7.9721  -15.6071   19.1897 N   0  0  0  0  0  0  0  0  0  0  0  0
    8.7663  -14.8738   20.1561 C   0  0  1  0  0  0  0  0  0  0  0  0
    8.0193  -13.6197   20.6075 C   0  0  0  0  0  0  0  0  0  0  0  0
    7.5880  -12.5697   19.1940 S   0  0  0  0  0  0  0  0  0  0  0  0
    9.0366  -15.6842   21.3686 C   0  0  0  0  0  0  0  0  0  0  0  0
    8.0652  -16.1241   22.0323 O   0  0  0  0  0  0  0  0  0  0  0  0
   10.7046  -18.9571   21.3481 C   0  0  0  0  0  0  0  0  0  0  0  0
   11.3613  -18.1520   22.4145 C   0  0  1  0  0  0  0  0  0  0  0  0
   12.5919  -17.6596   21.9390 O   0  0  0  0  0  0  0  0  0  0  0  0
   10.5671  -16.9600   22.8690 C   0  0  2  0  0  0  0  0  0  0  0  0
   10.3406  -15.9947   21.8273 N   0  0  0  0  0  0  0  0  0  0  0  0
   11.1742  -16.2936   24.0429 C   0  0  0  0  0  0  0  0  0  0  0  0
   11.7401  -15.1756   23.9285 O   0  0  0  0  0  0  0  0  0  0  0  0
   11.1476  -16.8643   25.3082 O   0  0  0  0  0  0  0  0  0  0  0  0
  2  3  1  0
  2  1  1  6
  4  3  1  0
  5  6  2  0
  5  2  1  0
  7  5  1  0
  8  7  1  0
  9 10  1  0
  8  9  1  1
 11  8  1  0
 11 12  2  0
 14 13  1  6
 14 15  1  0
 16 17  1  6
 16 14  1  0
 17 11  1  0
 18 16  1  0
 19 18  2  0
 20 18  1  0
M  END
$$$$
