CCT.pdb
     RDKit          3D

 20 19  0  0  1  0  0  0  0  0999 V2000
    9.4733  -15.0299   20.3075 N   0  0  0  0  0  0  0  0  0  0  0  0
    8.6136  -15.5462   21.3541 C   0  0  1  0  0  0  0  0  0  0  0  0
    8.3078  -17.0117   21.1163 C   0  0  0  0  0  0  0  0  0  0  0  0
    6.5551  -17.0929   20.5999 S   0  0  0  0  0  0  0  0  0  0  0  0
    9.1963  -15.3125   22.7019 C   0  0  0  0  0  0  0  0  0  0  0  0
   10.4161  -15.5369   22.9055 O   0  0  0  0  0  0  0  0  0  0  0  0
    8.4241  -14.8343   23.8060 N   0  0  0  0  0  0  0  0  0  0  0  0
    9.0248  -14.7071   25.1196 C   0  0  1  0  0  0  0  0  0  0  0  0
    8.1497  -13.8319   26.0156 C   0  0  0  0  0  0  0  0  0  0  0  0
    8.8450  -13.7019   27.6848 S   0  0  0  0  0  0  0  0  0  0  0  0
    9.1595  -16.0239   25.7887 C   0  0  0  0  0  0  0  0  0  0  0  0
    8.1781  -16.8078   25.7866 O   0  0  0  0  0  0  0  0  0  0  0  0
   11.6711  -19.9291   27.1766 C   0  0  0  0  0  0  0  0  0  0  0  0
   11.5306  -18.6051   26.5102 C   0  0  1  0  0  0  0  0  0  0  0  0
   11.2371  -18.7961   25.1463 O   0  0  0  0  0  0  0  0  0  0  0  0
   10.4346  -17.7427   27.0699 C   0  0  2  0  0  0  0  0  0  0  0  0
   10.3433  -16.4544   26.4373 N   0  0  0  0  0  0  0  0  0  0  0  0
   10.5462  -17.5715   28.5358 C   0  0  0  0  0  0  0  0  0  0  0  0
   10.9069  -16.4725   29.0310 O   0  0  0  0  0  0  0  0  0  0  0  0
   10.2617  -18.6028   29.4206 O   0  0  0  0  0  0  0  0  0  0  0  0
  2  3  1  0
  2  1  1  6
  4  3  1  0
  5  6  2  0
  5  2  1  0
  7  5  1  0
  8  7  1  0
  9 10  1  0
  8  9  1  1
 11  8  1  0
 11 12  2  0
 14 13  1  1
 14 15  1  0
 16 17  1  6
 16 14  1  0
 17 11  1  0
 18 16  1  0
 19 18  2  0
 20 18  1  0
M  END
$$$$
