CCT.pdb
     RDKit          3D

 20 19  0  0  1  0  0  0  0  0999 V2000
    8.0979  -12.9249   17.8565 N   0  0  0  0  0  0  0  0  0  0  0  0
    7.8378  -14.1845   18.5249 C   0  0  1  0  0  0  0  0  0  0  0  0
    8.2631  -15.3478   17.6510 C   0  0  0  0  0  0  0  0  0  0  0  0
    6.7574  -15.9124   16.7797 S   0  0  0  0  0  0  0  0  0  0  0  0
    8.4808  -14.2327   19.8646 C   0  0  0  0  0  0  0  0  0  0  0  0
    9.7045  -13.9720   19.9829 O   0  0  0  0  0  0  0  0  0  0  0  0
    7.7635  -14.5681   21.0551 N   0  0  0  0  0  0  0  0  0  0  0  0
    8.4528  -14.6455   22.3284 C   0  0  1  0  0  0  0  0  0  0  0  0
    7.4500  -14.5419   23.4765 C   0  0  0  0  0  0  0  0  0  0  0  0
    7.3217  -12.8381   24.0824 S   0  0  0  0  0  0  0  0  0  0  0  0
    9.1679  -15.9355   22.4850 C   0  0  0  0  0  0  0  0  0  0  0  0
    8.5945  -16.9937   22.1257 O   0  0  0  0  0  0  0  0  0  0  0  0
   13.3487  -18.4995   22.7052 C   0  0  0  0  0  0  0  0  0  0  0  0
   12.6031  -17.2125   22.6385 C   0  0  1  0  0  0  0  0  0  0  0  0
   12.5921  -16.7458   21.3100 O   0  0  0  0  0  0  0  0  0  0  0  0
   11.1680  -17.3043   23.0746 C   0  0  2  0  0  0  0  0  0  0  0  0
   10.4743  -16.0456   23.0222 N   0  0  0  0  0  0  0  0  0  0  0  0
   11.0266  -17.8956   24.4241 C   0  0  0  0  0  0  0  0  0  0  0  0
   10.7747  -17.1719   25.4220 O   0  0  0  0  0  0  0  0  0  0  0  0
   11.1637  -19.2589   24.6479 O   0  0  0  0  0  0  0  0  0  0  0  0
  2  3  1  0
  2  1  1  6
  4  3  1  0
  5  6  2  0
  5  2  1  0
  7  5  1  0
  8  7  1  0
  9 10  1  0
  8  9  1  1
 11  8  1  0
 11 12  2  0
 14 13  1  6
 14 15  1  0
 16 17  1  1
 16 14  1  0
 17 11  1  0
 18 16  1  0
 19 18  2  0
 20 18  1  0
M  END
$$$$
