CCT.pdb
     RDKit          3D

 20 19  0  0  1  0  0  0  0  0999 V2000
    9.9409  -17.6320   18.4020 N   0  0  0  0  0  0  0  0  0  0  0  0
   10.3561  -18.0863   19.7143 C   0  0  1  0  0  0  0  0  0  0  0  0
   11.1073  -19.3988   19.6095 C   0  0  0  0  0  0  0  0  0  0  0  0
    9.8577  -20.6753   19.2170 S   0  0  0  0  0  0  0  0  0  0  0  0
   11.1493  -17.0481   20.4239 C   0  0  0  0  0  0  0  0  0  0  0  0
   11.6760  -16.1090   19.7756 O   0  0  0  0  0  0  0  0  0  0  0  0
   11.3500  -17.0614   21.8394 N   0  0  0  0  0  0  0  0  0  0  0  0
   12.2253  -16.0890   22.4644 C   0  0  1  0  0  0  0  0  0  0  0  0
   11.5887  -15.5559   23.7470 C   0  0  0  0  0  0  0  0  0  0  0  0
   11.0752  -16.9114   24.8359 S   0  0  0  0  0  0  0  0  0  0  0  0
   13.5296  -16.6884   22.8378 C   0  0  0  0  0  0  0  0  0  0  0  0
   13.5770  -17.9131   23.1128 O   0  0  0  0  0  0  0  0  0  0  0  0
   18.4938  -16.4736   22.8678 C   0  0  0  0  0  0  0  0  0  0  0  0
   17.1663  -15.8931   22.5248 C   0  0  1  0  0  0  0  0  0  0  0  0
   16.9669  -15.9701   21.1330 O   0  0  0  0  0  0  0  0  0  0  0  0
   16.0003  -16.5910   23.1663 C   0  0  2  0  0  0  0  0  0  0  0  0
   14.7386  -15.9527   22.9034 N   0  0  0  0  0  0  0  0  0  0  0  0
   16.1790  -16.7600   24.6258 C   0  0  0  0  0  0  0  0  0  0  0  0
   15.7188  -15.9126   25.4341 O   0  0  0  0  0  0  0  0  0  0  0  0
   16.8542  -17.8475   25.1632 O   0  0  0  0  0  0  0  0  0  0  0  0
  2  3  1  0
  2  1  1  6
  4  3  1  0
  5  6  2  0
  5  2  1  0
  7  5  1  0
  8  7  1  0
  9 10  1  0
  8  9  1  1
 11  8  1  0
 11 12  2  0
 14 13  1  6
 14 15  1  0
 16 17  1  1
 16 14  1  0
 17 11  1  0
 18 16  1  0
 19 18  2  0
 20 18  1  0
M  END
$$$$
