KYS.pdb
     RDKit          3D

 28 28  0  0  1  0  0  0  0  0999 V2000
   10.4351  -16.6933   18.8736 N   0  0  0  0  0  0  0  0  0  0  0  0
    9.2709  -16.8402   19.6589 C   0  0  1  0  0  0  0  0  0  0  0  0
    8.5937  -18.1558   19.6593 C   0  0  0  0  0  0  0  0  0  0  0  0
    9.3163  -19.3434   19.1982 C   0  0  0  0  0  0  0  0  0  0  0  0
    8.5622  -20.4506   18.5709 C   0  0  0  0  0  0  0  0  0  0  0  0
    9.4081  -21.6477   18.2033 C   0  0  0  0  0  0  0  0  0  0  0  0
    8.5297  -22.6258   17.5782 N   0  0  0  0  0  0  0  0  0  0  0  0
    9.4679  -16.2646   21.0036 C   0  0  0  0  0  0  0  0  0  0  0  0
   10.5520  -16.3777   21.6435 O   0  0  0  0  0  0  0  0  0  0  0  0
    6.8786  -11.7937   28.1856 O   0  0  0  0  0  0  0  0  0  0  0  0
    6.9535  -12.4017   26.9331 C   0  0  0  0  0  0  0  0  0  0  0  0
    6.2322  -13.5301   26.6309 C   0  0  0  0  0  0  0  0  0  0  0  0
    6.3744  -14.0560   25.3658 C   0  0  0  0  0  0  0  0  0  0  0  0
    7.2056  -13.4725   24.4457 C   0  0  0  0  0  0  0  0  0  0  0  0
    7.3126  -14.0993   23.1060 C   0  0  0  0  0  0  0  0  0  0  0  0
    8.5052  -15.0200   22.9687 C   0  0  2  0  0  0  0  0  0  0  0  0
    8.4315  -15.5616   21.6203 N   0  0  0  0  0  0  0  0  0  0  0  0
    8.4721  -16.1151   23.9635 C   0  0  0  0  0  0  0  0  0  0  0  0
    7.7840  -17.1560   23.8149 O   0  0  0  0  0  0  0  0  0  0  0  0
    7.9159  -12.3551   24.7543 C   0  0  0  0  0  0  0  0  0  0  0  0
    7.7961  -11.8058   26.0079 C   0  0  0  0  0  0  0  0  0  0  0  0
   11.3531  -17.8267   24.9000 O   0  0  0  0  0  0  0  0  0  0  0  0
   10.1393  -18.3320   25.3540 C   0  0  0  0  0  0  0  0  0  0  0  0
    9.4006  -17.2113   26.0462 C   0  0  2  0  0  0  0  0  0  0  0  0
    9.2350  -16.0599   25.1815 N   0  0  0  0  0  0  0  0  0  0  0  0
   10.0400  -16.8818   27.3210 C   0  0  0  0  0  0  0  0  0  0  0  0
   10.4011  -15.7210   27.6179 O   0  0  0  0  0  0  0  0  0  0  0  0
   10.2625  -17.8877   28.2506 O   0  0  0  0  0  0  0  0  0  0  0  0
  2  1  1  1
  2  3  1  0
  3  4  1  0
  4  5  1  0
  5  6  1  0
  6  7  1  0
  8  2  1  0
  9  8  2  0
 10 11  1  0
 11 21  2  0
 11 12  1  0
 12 13  2  0
 13 14  1  0
 14 15  1  0
 16 15  1  1
 16 17  1  0
 17  8  1  0
 18 16  1  0
 18 19  2  0
 20 14  2  0
 21 20  1  0
 22 23  1  0
 24 23  1  6
 24 25  1  0
 25 18  1  0
 26 24  1  0
 27 26  2  0
 28 26  1  0
M  END
$$$$
