KYS.pdb
     RDKit          3D

 28 28  0  0  1  0  0  0  0  0999 V2000
    7.1243  -16.4821   21.6913 N   0  0  0  0  0  0  0  0  0  0  0  0
    7.7048  -15.1988   21.7900 C   0  0  1  0  0  0  0  0  0  0  0  0
    6.9801  -14.0593   21.1853 C   0  0  0  0  0  0  0  0  0  0  0  0
    7.6614  -13.1993   20.2150 C   0  0  0  0  0  0  0  0  0  0  0  0
    7.7930  -13.6531   18.8134 C   0  0  0  0  0  0  0  0  0  0  0  0
    8.5071  -12.6755   17.9089 C   0  0  0  0  0  0  0  0  0  0  0  0
    8.4838  -13.2305   16.5634 N   0  0  0  0  0  0  0  0  0  0  0  0
    8.1883  -14.9448   23.1611 C   0  0  0  0  0  0  0  0  0  0  0  0
    7.9972  -13.8490   23.7614 O   0  0  0  0  0  0  0  0  0  0  0  0
    5.9551  -10.5502   26.5053 O   0  0  0  0  0  0  0  0  0  0  0  0
    6.3917  -11.8656   26.3527 C   0  0  0  0  0  0  0  0  0  0  0  0
    5.5940  -12.8340   25.7954 C   0  0  0  0  0  0  0  0  0  0  0  0
    6.1162  -14.1041   25.6881 C   0  0  0  0  0  0  0  0  0  0  0  0
    7.3847  -14.3872   26.1225 C   0  0  0  0  0  0  0  0  0  0  0  0
    7.8763  -15.7790   25.9804 C   0  0  0  0  0  0  0  0  0  0  0  0
    9.2071  -15.8745   25.2671 C   0  0  2  0  0  0  0  0  0  0  0  0
    8.8900  -15.9367   23.8484 N   0  0  0  0  0  0  0  0  0  0  0  0
    9.9653  -17.0778   25.6761 C   0  0  0  0  0  0  0  0  0  0  0  0
   10.2382  -17.3421   26.8739 O   0  0  0  0  0  0  0  0  0  0  0  0
    8.1673  -13.4214   26.6731 C   0  0  0  0  0  0  0  0  0  0  0  0
    7.6757  -12.1442   26.7942 C   0  0  0  0  0  0  0  0  0  0  0  0
   11.8686  -19.3606   22.8724 O   0  0  0  0  0  0  0  0  0  0  0  0
   11.4277  -20.1422   23.9351 C   0  0  0  0  0  0  0  0  0  0  0  0
   11.1740  -19.2271   25.1094 C   0  0  2  0  0  0  0  0  0  0  0  0
   10.4458  -18.0366   24.7177 N   0  0  0  0  0  0  0  0  0  0  0  0
   12.4238  -18.9282   25.8102 C   0  0  0  0  0  0  0  0  0  0  0  0
   12.8018  -17.7603   26.0534 O   0  0  0  0  0  0  0  0  0  0  0  0
   13.2353  -19.9728   26.2294 O   0  0  0  0  0  0  0  0  0  0  0  0
  2  1  1  1
  2  3  1  0
  3  4  1  0
  4  5  1  0
  5  6  1  0
  6  7  1  0
  8  2  1  0
  9  8  2  0
 10 11  1  0
 11 21  2  0
 11 12  1  0
 12 13  2  0
 13 14  1  0
 14 15  1  0
 16 15  1  1
 16 17  1  0
 17  8  1  0
 18 16  1  0
 18 19  2  0
 20 14  2  0
 21 20  1  0
 22 23  1  0
 24 23  1  6
 24 25  1  0
 25 18  1  0
 26 24  1  0
 27 26  2  0
 28 26  1  0
M  END
$$$$
