KYS.pdb
     RDKit          3D

 28 28  0  0  1  0  0  0  0  0999 V2000
    6.6348  -14.7800   21.0253 N   0  0  0  0  0  0  0  0  0  0  0  0
    7.8348  -15.5068   21.1842 C   0  0  1  0  0  0  0  0  0  0  0  0
    8.8271  -15.4592   20.0876 C   0  0  0  0  0  0  0  0  0  0  0  0
    8.4130  -15.7831   18.7205 C   0  0  0  0  0  0  0  0  0  0  0  0
    9.3465  -16.5142   17.8361 C   0  0  0  0  0  0  0  0  0  0  0  0
    8.8583  -16.6742   16.4150 C   0  0  0  0  0  0  0  0  0  0  0  0
    9.9061  -17.3559   15.6690 N   0  0  0  0  0  0  0  0  0  0  0  0
    8.4096  -15.2856   22.5255 C   0  0  0  0  0  0  0  0  0  0  0  0
    9.1855  -14.3226   22.7865 O   0  0  0  0  0  0  0  0  0  0  0  0
    6.4651  -10.3346   26.6299 O   0  0  0  0  0  0  0  0  0  0  0  0
    6.6728  -11.6952   26.4068 C   0  0  0  0  0  0  0  0  0  0  0  0
    5.7102  -12.4914   25.8371 C   0  0  0  0  0  0  0  0  0  0  0  0
    6.0110  -13.8236   25.6582 C   0  0  0  0  0  0  0  0  0  0  0  0
    7.2262  -14.3322   26.0360 C   0  0  0  0  0  0  0  0  0  0  0  0
    7.4756  -15.7776   25.8181 C   0  0  0  0  0  0  0  0  0  0  0  0
    8.6547  -16.0521   24.9108 C   0  0  2  0  0  0  0  0  0  0  0  0
    8.1025  -16.1604   23.5691 N   0  0  0  0  0  0  0  0  0  0  0  0
    9.3533  -17.3034   25.2802 C   0  0  0  0  0  0  0  0  0  0  0  0
    8.7525  -18.3315   25.6813 O   0  0  0  0  0  0  0  0  0  0  0  0
    8.1731  -13.5357   26.5993 C   0  0  0  0  0  0  0  0  0  0  0  0
    7.9042  -12.2021   26.7913 C   0  0  0  0  0  0  0  0  0  0  0  0
   13.5052  -17.7358   24.8165 O   0  0  0  0  0  0  0  0  0  0  0  0
   12.7067  -18.8708   24.7233 C   0  0  0  0  0  0  0  0  0  0  0  0
   11.4787  -18.6444   25.5729 C   0  0  2  0  0  0  0  0  0  0  0  0
   10.7842  -17.4271   25.2031 N   0  0  0  0  0  0  0  0  0  0  0  0
   11.8183  -18.6993   26.9956 C   0  0  0  0  0  0  0  0  0  0  0  0
   11.5649  -17.7656   27.7893 O   0  0  0  0  0  0  0  0  0  0  0  0
   12.4481  -19.8275   27.5017 O   0  0  0  0  0  0  0  0  0  0  0  0
  2  1  1  6
  2  3  1  0
  3  4  1  0
  4  5  1  0
  5  6  1  0
  6  7  1  0
  8  2  1  0
  9  8  2  0
 10 11  1  0
 11 21  2  0
 11 12  1  0
 12 13  2  0
 13 14  1  0
 14 15  1  0
 16 15  1  1
 16 17  1  0
 17  8  1  0
 18 16  1  0
 18 19  2  0
 20 14  2  0
 21 20  1  0
 22 23  1  0
 24 23  1  6
 24 25  1  0
 25 18  1  0
 26 24  1  0
 27 26  2  0
 28 26  1  0
M  END
$$$$
