KYS.pdb
     RDKit          3D

 28 28  0  0  1  0  0  0  0  0999 V2000
    7.7032  -17.3097   19.4412 N   0  0  0  0  0  0  0  0  0  0  0  0
    9.0322  -16.8330   19.4443 C   0  0  1  0  0  0  0  0  0  0  0  0
    9.5469  -16.2003   18.2098 C   0  0  0  0  0  0  0  0  0  0  0  0
    9.2729  -16.8175   16.9101 C   0  0  0  0  0  0  0  0  0  0  0  0
   10.1795  -17.8711   16.4042 C   0  0  0  0  0  0  0  0  0  0  0  0
    9.7288  -18.5093   15.1107 C   0  0  0  0  0  0  0  0  0  0  0  0
   10.7012  -19.5378   14.7708 N   0  0  0  0  0  0  0  0  0  0  0  0
    9.3131  -16.0677   20.6747 C   0  0  0  0  0  0  0  0  0  0  0  0
   10.4811  -15.7235   21.0140 O   0  0  0  0  0  0  0  0  0  0  0  0
    7.1639  -11.7538   28.0753 O   0  0  0  0  0  0  0  0  0  0  0  0
    7.2016  -12.3589   26.8197 C   0  0  0  0  0  0  0  0  0  0  0  0
    8.0054  -11.8872   25.8116 C   0  0  0  0  0  0  0  0  0  0  0  0
    7.9719  -12.5540   24.6068 C   0  0  0  0  0  0  0  0  0  0  0  0
    7.1653  -13.6467   24.4243 C   0  0  0  0  0  0  0  0  0  0  0  0
    7.1775  -14.3089   23.0975 C   0  0  0  0  0  0  0  0  0  0  0  0
    8.4523  -15.0758   22.8224 C   0  0  2  0  0  0  0  0  0  0  0  0
    8.2658  -15.6952   21.5191 N   0  0  0  0  0  0  0  0  0  0  0  0
    8.7047  -16.1102   23.8502 C   0  0  0  0  0  0  0  0  0  0  0  0
    7.8473  -16.9643   24.1885 O   0  0  0  0  0  0  0  0  0  0  0  0
    6.3727  -14.1064   25.4287 C   0  0  0  0  0  0  0  0  0  0  0  0
    6.3832  -13.4636   26.6429 C   0  0  0  0  0  0  0  0  0  0  0  0
   12.4371  -17.3321   24.7048 O   0  0  0  0  0  0  0  0  0  0  0  0
   11.3698  -18.1424   25.0777 C   0  0  0  0  0  0  0  0  0  0  0  0
   10.2366  -17.2445   25.5139 C   0  0  2  0  0  0  0  0  0  0  0  0
    9.9639  -16.2078   24.5383 N   0  0  0  0  0  0  0  0  0  0  0  0
   10.4846  -16.7155   26.8560 C   0  0  0  0  0  0  0  0  0  0  0  0
   10.4519  -15.4926   27.1192 O   0  0  0  0  0  0  0  0  0  0  0  0
   10.7696  -17.5942   27.8916 O   0  0  0  0  0  0  0  0  0  0  0  0
  2  1  1  6
  2  3  1  0
  3  4  1  0
  4  5  1  0
  5  6  1  0
  6  7  1  0
  8  2  1  0
  9  8  2  0
 10 11  1  0
 11 21  2  0
 11 12  1  0
 12 13  2  0
 13 14  1  0
 14 15  1  0
 16 15  1  1
 16 17  1  0
 17  8  1  0
 18 16  1  0
 18 19  2  0
 20 14  2  0
 21 20  1  0
 22 23  1  0
 24 23  1  6
 24 25  1  0
 25 18  1  0
 26 24  1  0
 27 26  2  0
 28 26  1  0
M  END
$$$$
