KYS.pdb
     RDKit          3D

 28 28  0  0  1  0  0  0  0  0999 V2000
    7.7468  -13.0165   19.5969 N   0  0  0  0  0  0  0  0  0  0  0  0
    7.5185  -14.1378   20.4240 C   0  0  1  0  0  0  0  0  0  0  0  0
    7.3758  -15.4611   19.7777 C   0  0  0  0  0  0  0  0  0  0  0  0
    6.9576  -15.5425   18.3764 C   0  0  0  0  0  0  0  0  0  0  0  0
    6.6558  -16.8653   17.7872 C   0  0  0  0  0  0  0  0  0  0  0  0
    6.3839  -16.8354   16.3010 C   0  0  0  0  0  0  0  0  0  0  0  0
    6.0061  -18.1829   15.9005 N   0  0  0  0  0  0  0  0  0  0  0  0
    8.4313  -14.1300   21.5837 C   0  0  0  0  0  0  0  0  0  0  0  0
    9.6763  -13.9417   21.4726 O   0  0  0  0  0  0  0  0  0  0  0  0
   10.2364  -15.3746   30.1698 O   0  0  0  0  0  0  0  0  0  0  0  0
    9.6650  -15.0355   28.9440 C   0  0  0  0  0  0  0  0  0  0  0  0
    9.6910  -13.7498   28.4631 C   0  0  0  0  0  0  0  0  0  0  0  0
    9.0991  -13.5155   27.2417 C   0  0  0  0  0  0  0  0  0  0  0  0
    8.5071  -14.5297   26.5354 C   0  0  0  0  0  0  0  0  0  0  0  0
    7.8842  -14.2001   25.2307 C   0  0  0  0  0  0  0  0  0  0  0  0
    8.7597  -14.5425   24.0453 C   0  0  2  0  0  0  0  0  0  0  0  0
    7.9281  -14.3374   22.8691 N   0  0  0  0  0  0  0  0  0  0  0  0
    9.2353  -15.9429   24.0990 C   0  0  0  0  0  0  0  0  0  0  0  0
    8.4875  -16.9298   23.8844 O   0  0  0  0  0  0  0  0  0  0  0  0
    8.4864  -15.7999   27.0199 C   0  0  0  0  0  0  0  0  0  0  0  0
    9.0684  -16.0666   28.2355 C   0  0  0  0  0  0  0  0  0  0  0  0
   12.2558  -19.3042   23.2551 O   0  0  0  0  0  0  0  0  0  0  0  0
   11.7912  -17.9987   23.1346 C   0  0  0  0  0  0  0  0  0  0  0  0
   11.0868  -17.6370   24.4205 C   0  0  2  0  0  0  0  0  0  0  0  0
   10.6020  -16.2711   24.4040 N   0  0  0  0  0  0  0  0  0  0  0  0
   11.9387  -17.9273   25.5749 C   0  0  0  0  0  0  0  0  0  0  0  0
   12.2547  -17.0595   26.4193 O   0  0  0  0  0  0  0  0  0  0  0  0
   12.4247  -19.2146   25.7550 O   0  0  0  0  0  0  0  0  0  0  0  0
  2  1  1  6
  2  3  1  0
  3  4  1  0
  4  5  1  0
  5  6  1  0
  6  7  1  0
  8  2  1  0
  9  8  2  0
 10 11  1  0
 11 21  2  0
 11 12  1  0
 12 13  2  0
 13 14  1  0
 14 15  1  0
 16 15  1  1
 16 17  1  0
 17  8  1  0
 18 16  1  0
 18 19  2  0
 20 14  2  0
 21 20  1  0
 22 23  1  0
 24 23  1  6
 24 25  1  0
 25 18  1  0
 26 24  1  0
 27 26  2  0
 28 26  1  0
M  END
$$$$
