KYS.pdb
     RDKit          3D

 28 28  0  0  1  0  0  0  0  0999 V2000
    6.9844  -15.4584   18.9775 N   0  0  0  0  0  0  0  0  0  0  0  0
    8.1904  -14.7242   18.9760 C   0  0  1  0  0  0  0  0  0  0  0  0
    8.2971  -13.5638   18.0642 C   0  0  0  0  0  0  0  0  0  0  0  0
    7.6557  -13.6142   16.7484 C   0  0  0  0  0  0  0  0  0  0  0  0
    8.2536  -14.4492   15.6838 C   0  0  0  0  0  0  0  0  0  0  0  0
    7.4675  -14.4662   14.3933 C   0  0  0  0  0  0  0  0  0  0  0  0
    8.1400  -15.3847   13.4861 N   0  0  0  0  0  0  0  0  0  0  0  0
    8.6400  -14.4492   20.3547 C   0  0  0  0  0  0  0  0  0  0  0  0
    9.7591  -13.9233   20.6167 O   0  0  0  0  0  0  0  0  0  0  0  0
    7.6900  -12.6218   28.8593 O   0  0  0  0  0  0  0  0  0  0  0  0
    7.5494  -12.8731   27.4950 C   0  0  0  0  0  0  0  0  0  0  0  0
    8.1114  -12.0558   26.5458 C   0  0  0  0  0  0  0  0  0  0  0  0
    7.9158  -12.3885   25.2236 C   0  0  0  0  0  0  0  0  0  0  0  0
    7.1869  -13.4944   24.8720 C   0  0  0  0  0  0  0  0  0  0  0  0
    7.0133  -13.7854   23.4283 C   0  0  0  0  0  0  0  0  0  0  0  0
    8.1742  -14.5464   22.8267 C   0  0  2  0  0  0  0  0  0  0  0  0
    7.8171  -14.7736   21.4346 N   0  0  0  0  0  0  0  0  0  0  0  0
    8.4017  -15.8368   23.5147 C   0  0  0  0  0  0  0  0  0  0  0  0
    7.5309  -16.7402   23.5833 O   0  0  0  0  0  0  0  0  0  0  0  0
    6.6341  -14.2978   25.8193 C   0  0  0  0  0  0  0  0  0  0  0  0
    6.8110  -13.9934   27.1473 C   0  0  0  0  0  0  0  0  0  0  0  0
   11.9641  -17.5466   23.7227 O   0  0  0  0  0  0  0  0  0  0  0  0
   10.8269  -18.2921   24.0152 C   0  0  0  0  0  0  0  0  0  0  0  0
    9.8912  -17.4162   24.8140 C   0  0  2  0  0  0  0  0  0  0  0  0
    9.6501  -16.1462   24.1583 N   0  0  0  0  0  0  0  0  0  0  0  0
   10.3710  -17.2677   26.1889 C   0  0  0  0  0  0  0  0  0  0  0  0
   10.5731  -16.1525   26.7194 O   0  0  0  0  0  0  0  0  0  0  0  0
   10.6170  -18.4018   26.9497 O   0  0  0  0  0  0  0  0  0  0  0  0
  2  1  1  1
  2  3  1  0
  3  4  1  0
  4  5  1  0
  5  6  1  0
  6  7  1  0
  8  2  1  0
  9  8  2  0
 10 11  1  0
 11 21  2  0
 11 12  1  0
 12 13  2  0
 13 14  1  0
 14 15  1  0
 16 15  1  1
 16 17  1  0
 17  8  1  0
 18 16  1  0
 18 19  2  0
 20 14  2  0
 21 20  1  0
 22 23  1  0
 24 23  1  6
 24 25  1  0
 25 18  1  0
 26 24  1  0
 27 26  2  0
 28 26  1  0
M  END
$$$$
