KYS.pdb
     RDKit          3D

 28 28  0  0  1  0  0  0  0  0999 V2000
    8.3087  -12.5129   19.5604 N   0  0  0  0  0  0  0  0  0  0  0  0
    8.1355  -13.7758   20.1676 C   0  0  1  0  0  0  0  0  0  0  0  0
    8.2285  -14.9782   19.3104 C   0  0  0  0  0  0  0  0  0  0  0  0
    7.5548  -14.9956   18.0099 C   0  0  0  0  0  0  0  0  0  0  0  0
    7.4361  -16.2731   17.2738 C   0  0  0  0  0  0  0  0  0  0  0  0
    6.6085  -16.1879   16.0123 C   0  0  0  0  0  0  0  0  0  0  0  0
    6.4519  -17.5423   15.5023 N   0  0  0  0  0  0  0  0  0  0  0  0
    8.9119  -13.8680   21.4194 C   0  0  0  0  0  0  0  0  0  0  0  0
   10.1591  -13.6684   21.4667 O   0  0  0  0  0  0  0  0  0  0  0  0
    9.8536  -15.2428   30.0996 O   0  0  0  0  0  0  0  0  0  0  0  0
    9.3709  -14.9883   28.8164 C   0  0  0  0  0  0  0  0  0  0  0  0
    8.7163  -15.9480   28.0848 C   0  0  0  0  0  0  0  0  0  0  0  0
    8.2773  -15.5992   26.8267 C   0  0  0  0  0  0  0  0  0  0  0  0
    8.4878  -14.3407   26.3268 C   0  0  0  0  0  0  0  0  0  0  0  0
    7.9923  -14.0405   24.9617 C   0  0  0  0  0  0  0  0  0  0  0  0
    8.9636  -14.4363   23.8713 C   0  0  2  0  0  0  0  0  0  0  0  0
    8.2696  -14.1883   22.6168 N   0  0  0  0  0  0  0  0  0  0  0  0
    9.3504  -15.8614   23.9700 C   0  0  0  0  0  0  0  0  0  0  0  0
    8.5259  -16.8043   23.8701 O   0  0  0  0  0  0  0  0  0  0  0  0
    9.1371  -13.3970   27.0590 C   0  0  0  0  0  0  0  0  0  0  0  0
    9.5875  -13.7133   28.3178 C   0  0  0  0  0  0  0  0  0  0  0  0
   13.1077  -17.1696   23.2278 O   0  0  0  0  0  0  0  0  0  0  0  0
   12.0624  -18.0868   23.2538 C   0  0  0  0  0  0  0  0  0  0  0  0
   11.0957  -17.6571   24.3316 C   0  0  2  0  0  0  0  0  0  0  0  0
   10.7130  -16.2664   24.1894 N   0  0  0  0  0  0  0  0  0  0  0  0
   11.6291  -17.9705   25.6582 C   0  0  0  0  0  0  0  0  0  0  0  0
   11.7590  -17.1097   26.5571 O   0  0  0  0  0  0  0  0  0  0  0  0
   12.0116  -19.2727   25.9473 O   0  0  0  0  0  0  0  0  0  0  0  0
  2  1  1  6
  2  3  1  0
  3  4  1  0
  4  5  1  0
  5  6  1  0
  6  7  1  0
  8  2  1  0
  9  8  2  0
 10 11  1  0
 11 21  2  0
 11 12  1  0
 12 13  2  0
 13 14  1  0
 14 15  1  0
 16 15  1  1
 16 17  1  0
 17  8  1  0
 18 16  1  0
 18 19  2  0
 20 14  2  0
 21 20  1  0
 22 23  1  0
 24 23  1  6
 24 25  1  0
 25 18  1  0
 26 24  1  0
 27 26  2  0
 28 26  1  0
M  END
$$$$
