KYS.pdb
     RDKit          3D

 28 28  0  0  1  0  0  0  0  0999 V2000
   10.2485  -16.7598   18.9038 N   0  0  0  0  0  0  0  0  0  0  0  0
    9.1479  -16.9345   19.7709 C   0  0  1  0  0  0  0  0  0  0  0  0
    8.5653  -18.2893   19.8909 C   0  0  0  0  0  0  0  0  0  0  0  0
    7.5386  -18.7239   18.9410 C   0  0  0  0  0  0  0  0  0  0  0  0
    7.9518  -19.3056   17.6452 C   0  0  0  0  0  0  0  0  0  0  0  0
    6.8027  -19.7417   16.7660 C   0  0  0  0  0  0  0  0  0  0  0  0
    7.3722  -20.2583   15.5300 N   0  0  0  0  0  0  0  0  0  0  0  0
    9.3867  -16.2656   21.0647 C   0  0  0  0  0  0  0  0  0  0  0  0
   10.4756  -16.3707   21.6979 O   0  0  0  0  0  0  0  0  0  0  0  0
    6.6236  -11.9272   28.2683 O   0  0  0  0  0  0  0  0  0  0  0  0
    6.8128  -12.4228   26.9788 C   0  0  0  0  0  0  0  0  0  0  0  0
    7.7562  -11.8967   26.1314 C   0  0  0  0  0  0  0  0  0  0  0  0
    7.8666  -12.4553   24.8772 C   0  0  0  0  0  0  0  0  0  0  0  0
    7.0632  -13.4968   24.4925 C   0  0  0  0  0  0  0  0  0  0  0  0
    7.2352  -14.0420   23.1243 C   0  0  0  0  0  0  0  0  0  0  0  0
    8.4646  -14.9113   22.9759 C   0  0  2  0  0  0  0  0  0  0  0  0
    8.3867  -15.4785   21.6383 N   0  0  0  0  0  0  0  0  0  0  0  0
    8.5012  -15.9897   23.9887 C   0  0  0  0  0  0  0  0  0  0  0  0
    7.6243  -16.8863   24.0678 O   0  0  0  0  0  0  0  0  0  0  0  0
    6.1317  -14.0110   25.3389 C   0  0  0  0  0  0  0  0  0  0  0  0
    5.9967  -13.4762   26.5972 C   0  0  0  0  0  0  0  0  0  0  0  0
   11.1652  -18.2835   24.6126 O   0  0  0  0  0  0  0  0  0  0  0  0
    9.9883  -18.4690   25.3304 C   0  0  0  0  0  0  0  0  0  0  0  0
    9.6089  -17.1444   25.9486 C   0  0  2  0  0  0  0  0  0  0  0  0
    9.5562  -16.0842   24.9617 N   0  0  0  0  0  0  0  0  0  0  0  0
   10.4864  -16.8315   27.0776 C   0  0  0  0  0  0  0  0  0  0  0  0
   11.1312  -15.7621   27.1587 O   0  0  0  0  0  0  0  0  0  0  0  0
   10.6200  -17.7491   28.1100 O   0  0  0  0  0  0  0  0  0  0  0  0
  2  1  1  1
  2  3  1  0
  3  4  1  0
  4  5  1  0
  5  6  1  0
  6  7  1  0
  8  2  1  0
  9  8  2  0
 10 11  1  0
 11 21  2  0
 11 12  1  0
 12 13  2  0
 13 14  1  0
 14 15  1  0
 16 15  1  1
 16 17  1  0
 17  8  1  0
 18 16  1  0
 18 19  2  0
 20 14  2  0
 21 20  1  0
 22 23  1  0
 24 23  1  6
 24 25  1  0
 25 18  1  0
 26 24  1  0
 27 26  2  0
 28 26  1  0
M  END
$$$$
