KYS.pdb
     RDKit          3D

 28 28  0  0  1  0  0  0  0  0999 V2000
    8.4561  -13.7160   18.0751 N   0  0  0  0  0  0  0  0  0  0  0  0
    8.2907  -14.8063   18.9568 C   0  0  1  0  0  0  0  0  0  0  0  0
    8.7195  -16.1452   18.4954 C   0  0  0  0  0  0  0  0  0  0  0  0
    7.9714  -16.8197   17.4321 C   0  0  0  0  0  0  0  0  0  0  0  0
    8.3781  -18.1783   17.0115 C   0  0  0  0  0  0  0  0  0  0  0  0
    7.6193  -18.7119   15.8185 C   0  0  0  0  0  0  0  0  0  0  0  0
    8.0976  -20.0637   15.5677 N   0  0  0  0  0  0  0  0  0  0  0  0
    8.7562  -14.4601   20.3139 C   0  0  0  0  0  0  0  0  0  0  0  0
    9.9014  -13.9756   20.5409 O   0  0  0  0  0  0  0  0  0  0  0  0
    7.6291  -12.8544   28.9251 O   0  0  0  0  0  0  0  0  0  0  0  0
    7.4787  -13.0199   27.5488 C   0  0  0  0  0  0  0  0  0  0  0  0
    6.7602  -12.1326   26.7864 C   0  0  0  0  0  0  0  0  0  0  0  0
    6.6696  -12.3831   25.4350 C   0  0  0  0  0  0  0  0  0  0  0  0
    7.2749  -13.4779   24.8756 C   0  0  0  0  0  0  0  0  0  0  0  0
    7.1280  -13.6858   23.4147 C   0  0  0  0  0  0  0  0  0  0  0  0
    8.3055  -14.4014   22.7899 C   0  0  2  0  0  0  0  0  0  0  0  0
    7.9197  -14.6661   21.4122 N   0  0  0  0  0  0  0  0  0  0  0  0
    8.6127  -15.6692   23.4889 C   0  0  0  0  0  0  0  0  0  0  0  0
    7.7960  -16.6204   23.5744 O   0  0  0  0  0  0  0  0  0  0  0  0
    7.9844  -14.3510   25.6389 C   0  0  0  0  0  0  0  0  0  0  0  0
    8.0939  -14.1293   26.9903 C   0  0  0  0  0  0  0  0  0  0  0  0
   11.5095  -17.5785   22.9344 O   0  0  0  0  0  0  0  0  0  0  0  0
   11.4623  -17.7644   24.3120 C   0  0  0  0  0  0  0  0  0  0  0  0
   10.1887  -17.1326   24.8214 C   0  0  2  0  0  0  0  0  0  0  0  0
    9.8823  -15.8994   24.1243 N   0  0  0  0  0  0  0  0  0  0  0  0
   10.2388  -16.9703   26.2753 C   0  0  0  0  0  0  0  0  0  0  0  0
   10.0102  -15.8791   26.8437 O   0  0  0  0  0  0  0  0  0  0  0  0
   10.5517  -18.0629   27.0714 O   0  0  0  0  0  0  0  0  0  0  0  0
  2  1  1  6
  2  3  1  0
  3  4  1  0
  4  5  1  0
  5  6  1  0
  6  7  1  0
  8  2  1  0
  9  8  2  0
 10 11  1  0
 11 21  2  0
 11 12  1  0
 12 13  2  0
 13 14  1  0
 14 15  1  0
 16 15  1  1
 16 17  1  0
 17  8  1  0
 18 16  1  0
 18 19  2  0
 20 14  2  0
 21 20  1  0
 22 23  1  0
 24 23  1  6
 24 25  1  0
 25 18  1  0
 26 24  1  0
 27 26  2  0
 28 26  1  0
M  END
$$$$
