KYS.pdb
     RDKit          3D

 28 28  0  0  1  0  0  0  0  0999 V2000
    8.4431  -17.6963   17.4694 N   0  0  0  0  0  0  0  0  0  0  0  0
    9.0120  -18.3824   18.5645 C   0  0  1  0  0  0  0  0  0  0  0  0
    9.7348  -19.6450   18.2945 C   0  0  0  0  0  0  0  0  0  0  0  0
    9.2516  -20.8969   18.8815 C   0  0  0  0  0  0  0  0  0  0  0  0
   10.0502  -22.1305   18.7126 C   0  0  0  0  0  0  0  0  0  0  0  0
    9.4456  -23.3548   19.3599 C   0  0  0  0  0  0  0  0  0  0  0  0
   10.5050  -24.0230   20.1017 N   0  0  0  0  0  0  0  0  0  0  0  0
    9.7387  -17.4504   19.4485 C   0  0  0  0  0  0  0  0  0  0  0  0
   10.7396  -16.7820   19.0625 O   0  0  0  0  0  0  0  0  0  0  0  0
    6.9129  -11.8027   18.6078 O   0  0  0  0  0  0  0  0  0  0  0  0
    7.4468  -12.7044   19.5275 C   0  0  0  0  0  0  0  0  0  0  0  0
    8.7317  -12.5859   19.9966 C   0  0  0  0  0  0  0  0  0  0  0  0
    9.1670  -13.5269   20.9033 C   0  0  0  0  0  0  0  0  0  0  0  0
    8.3461  -14.5423   21.3194 C   0  0  0  0  0  0  0  0  0  0  0  0
    8.8867  -15.5220   22.2925 C   0  0  0  0  0  0  0  0  0  0  0  0
    9.9836  -16.3925   21.7197 C   0  0  2  0  0  0  0  0  0  0  0  0
    9.3275  -17.2799   20.7716 N   0  0  0  0  0  0  0  0  0  0  0  0
   10.6664  -17.1797   22.7706 C   0  0  0  0  0  0  0  0  0  0  0  0
   10.0693  -18.0057   23.5055 O   0  0  0  0  0  0  0  0  0  0  0  0
    7.0751  -14.6513   20.8492 C   0  0  0  0  0  0  0  0  0  0  0  0
    6.6105  -13.7284   19.9438 C   0  0  0  0  0  0  0  0  0  0  0  0
   14.6976  -16.5290   23.7938 O   0  0  0  0  0  0  0  0  0  0  0  0
   14.2505  -17.8456   23.8295 C   0  0  0  0  0  0  0  0  0  0  0  0
   12.7558  -17.8217   24.0446 C   0  0  2  0  0  0  0  0  0  0  0  0
   12.0763  -17.0498   23.0233 N   0  0  0  0  0  0  0  0  0  0  0  0
   12.4370  -17.3788   25.4029 C   0  0  0  0  0  0  0  0  0  0  0  0
   11.6829  -16.4087   25.6399 O   0  0  0  0  0  0  0  0  0  0  0  0
   12.9862  -18.0525   26.4846 O   0  0  0  0  0  0  0  0  0  0  0  0
  2  1  1  6
  2  3  1  0
  3  4  1  0
  4  5  1  0
  5  6  1  0
  6  7  1  0
  8  2  1  0
  9  8  2  0
 10 11  1  0
 11 21  2  0
 11 12  1  0
 12 13  2  0
 13 14  1  0
 14 15  1  0
 16 15  1  1
 16 17  1  0
 17  8  1  0
 18 16  1  0
 18 19  2  0
 20 14  2  0
 21 20  1  0
 22 23  1  0
 24 23  1  6
 24 25  1  0
 25 18  1  0
 26 24  1  0
 27 26  2  0
 28 26  1  0
M  END
$$$$
