KYS.pdb
     RDKit          3D

 28 28  0  0  1  0  0  0  0  0999 V2000
   11.7701  -20.9119   21.1502 N   0  0  0  0  0  0  0  0  0  0  0  0
   13.0868  -20.6977   20.6876 C   0  0  1  0  0  0  0  0  0  0  0  0
   13.4427  -21.2040   19.3436 C   0  0  0  0  0  0  0  0  0  0  0  0
   12.3921  -21.4064   18.3433 C   0  0  0  0  0  0  0  0  0  0  0  0
   12.7369  -22.0341   17.0490 C   0  0  0  0  0  0  0  0  0  0  0  0
   11.5845  -22.1226   16.0755 C   0  0  0  0  0  0  0  0  0  0  0  0
   12.0761  -22.7892   14.8785 N   0  0  0  0  0  0  0  0  0  0  0  0
   13.5124  -19.3070   20.9386 C   0  0  0  0  0  0  0  0  0  0  0  0
   12.9064  -18.3087   20.4551 O   0  0  0  0  0  0  0  0  0  0  0  0
    9.4933  -18.0339   25.2872 O   0  0  0  0  0  0  0  0  0  0  0  0
   10.8209  -17.9142   24.8784 C   0  0  0  0  0  0  0  0  0  0  0  0
   11.3118  -16.7498   24.3416 C   0  0  0  0  0  0  0  0  0  0  0  0
   12.6374  -16.7310   23.9680 C   0  0  0  0  0  0  0  0  0  0  0  0
   13.4338  -17.8348   24.1273 C   0  0  0  0  0  0  0  0  0  0  0  0
   14.8495  -17.7417   23.6958 C   0  0  0  0  0  0  0  0  0  0  0  0
   15.0178  -17.7261   22.1923 C   0  0  2  0  0  0  0  0  0  0  0  0
   14.6277  -19.0523   21.7385 N   0  0  0  0  0  0  0  0  0  0  0  0
   16.4153  -17.4399   21.7983 C   0  0  0  0  0  0  0  0  0  0  0  0
   17.3911  -18.1336   22.1799 O   0  0  0  0  0  0  0  0  0  0  0  0
   12.9386  -18.9835   24.6599 C   0  0  0  0  0  0  0  0  0  0  0  0
   11.6201  -19.0346   25.0428 C   0  0  0  0  0  0  0  0  0  0  0  0
   17.5066  -14.1058   19.3946 O   0  0  0  0  0  0  0  0  0  0  0  0
   18.1261  -15.3317   19.1756 C   0  0  0  0  0  0  0  0  0  0  0  0
   18.1054  -16.1001   20.4755 C   0  0  2  0  0  0  0  0  0  0  0  0
   16.7532  -16.3352   20.9415 N   0  0  0  0  0  0  0  0  0  0  0  0
   18.9490  -15.4444   21.4760 C   0  0  0  0  0  0  0  0  0  0  0  0
   18.5103  -15.0523   22.5805 O   0  0  0  0  0  0  0  0  0  0  0  0
   20.2945  -15.2413   21.2038 O   0  0  0  0  0  0  0  0  0  0  0  0
  2  1  1  6
  2  3  1  0
  3  4  1  0
  4  5  1  0
  5  6  1  0
  6  7  1  0
  8  2  1  0
  9  8  2  0
 10 11  1  0
 11 21  2  0
 11 12  1  0
 12 13  2  0
 13 14  1  0
 14 15  1  0
 16 15  1  1
 16 17  1  0
 17  8  1  0
 18 16  1  0
 18 19  2  0
 20 14  2  0
 21 20  1  0
 22 23  1  0
 24 23  1  6
 24 25  1  0
 25 18  1  0
 26 24  1  0
 27 26  2  0
 28 26  1  0
M  END
$$$$
