SPE.pdb
     RDKit          3D

 23 23  0  0  1  0  0  0  0  0999 V2000
   24.2671  -12.8833  -20.0830 O   0  0  0  0  0  0  0  0  0  0  0  0
   23.7000  -11.9942  -19.1664 C   0  0  0  0  0  0  0  0  0  0  0  0
   23.8558  -12.5628  -17.7491 C   0  0  2  0  0  0  0  0  0  0  0  0
   22.8756  -13.6445  -17.6739 N   0  0  0  0  0  0  0  0  0  0  0  0
   23.5786  -11.5039  -16.7316 C   0  0  0  0  0  0  0  0  0  0  0  0
   22.3554  -11.1868  -16.6450 O   0  0  0  0  0  0  0  0  0  0  0  0
   24.6176  -10.9384  -15.9629 N   0  0  0  0  0  0  0  0  0  0  0  0
   25.7953  -11.7450  -15.5749 C   0  0  0  0  0  0  0  0  0  0  0  0
   26.8838  -10.8341  -16.1059 C   0  0  0  0  0  0  0  0  0  0  0  0
   26.3750   -9.4668  -15.6708 C   0  0  0  0  0  0  0  0  0  0  0  0
   24.8654   -9.6638  -15.3933 C   0  0  1  0  0  0  0  0  0  0  0  0
   24.1224   -8.5177  -15.9121 C   0  0  0  0  0  0  0  0  0  0  0  0
   24.1403   -8.2152  -17.1124 O   0  0  0  0  0  0  0  0  0  0  0  0
   23.3399   -7.6924  -15.0608 N   0  0  0  0  0  0  0  0  0  0  0  0
   22.5929   -6.5601  -15.5751 C   0  0  1  0  0  0  0  0  0  0  0  0
   21.1409   -6.5909  -15.2563 C   0  0  0  0  0  0  0  0  0  0  0  0
   20.3146   -5.4809  -15.8183 C   0  0  0  0  0  0  0  0  0  0  0  0
   18.8828   -5.5535  -15.4912 C   0  0  0  0  0  0  0  0  0  0  0  0
   18.4454   -6.5408  -14.8526 O   0  0  0  0  0  0  0  0  0  0  0  0
   23.2142   -5.2780  -15.1771 C   0  0  0  0  0  0  0  0  0  0  0  0
   24.0616   -5.1824  -14.0870 O   0  0  0  0  0  0  0  0  0  0  0  0
   17.9788   -4.5506  -15.8700 O   0  0  0  0  0  0  0  0  0  0  0  0
   22.9741   -4.2522  -15.8386 O   0  0  0  0  0  0  0  0  0  0  0  0
  2  1  1  0
  3  2  1  0
  3  4  1  1
  5  3  1  0
  5  6  2  0
  7  5  1  0
  8  7  1  0
  9 10  1  0
  9  8  1  0
 10 11  1  0
 11  7  1  0
 11 12  1  6
 12 14  1  0
 13 12  2  0
 14 15  1  0
 15 16  1  1
 16 17  1  0
 17 18  1  0
 18 22  1  0
 19 18  2  0
 20 21  1  0
 20 15  1  0
 23 20  2  0
M  END
$$$$
