SPE.pdb
     RDKit          3D

 23 23  0  0  1  0  0  0  0  0999 V2000
   23.1793  -12.9660  -20.2067 O   0  0  0  0  0  0  0  0  0  0  0  0
   22.6637  -11.9591  -19.3866 C   0  0  0  0  0  0  0  0  0  0  0  0
   21.9411  -12.6003  -18.1937 C   0  0  2  0  0  0  0  0  0  0  0  0
   20.7201  -13.1686  -18.7620 N   0  0  0  0  0  0  0  0  0  0  0  0
   21.6316  -11.5680  -17.1582 C   0  0  0  0  0  0  0  0  0  0  0  0
   20.8025  -10.6914  -17.5432 O   0  0  0  0  0  0  0  0  0  0  0  0
   22.2341  -11.6076  -15.8833 N   0  0  0  0  0  0  0  0  0  0  0  0
   22.5894  -12.8990  -15.2553 C   0  0  0  0  0  0  0  0  0  0  0  0
   24.0507  -12.6206  -14.9663 C   0  0  0  0  0  0  0  0  0  0  0  0
   23.9898  -11.1936  -14.4391 C   0  0  0  0  0  0  0  0  0  0  0  0
   22.6327  -10.6358  -14.9308 C   0  0  1  0  0  0  0  0  0  0  0  0
   22.8084   -9.2570  -15.3810 C   0  0  0  0  0  0  0  0  0  0  0  0
   23.4065   -8.9822  -16.4296 O   0  0  0  0  0  0  0  0  0  0  0  0
   22.2989   -8.1609  -14.6347 N   0  0  0  0  0  0  0  0  0  0  0  0
   22.3843   -6.7991  -15.1275 C   0  0  1  0  0  0  0  0  0  0  0  0
   21.5096   -6.5167  -16.2962 C   0  0  0  0  0  0  0  0  0  0  0  0
   21.5244   -5.1153  -16.8127 C   0  0  0  0  0  0  0  0  0  0  0  0
   20.6265   -4.8699  -17.9511 C   0  0  0  0  0  0  0  0  0  0  0  0
   19.9776   -5.8248  -18.4417 O   0  0  0  0  0  0  0  0  0  0  0  0
   22.1792   -5.8177  -14.0398 C   0  0  0  0  0  0  0  0  0  0  0  0
   22.7213   -4.5453  -14.0899 O   0  0  0  0  0  0  0  0  0  0  0  0
   20.4669   -3.5957  -18.5146 O   0  0  0  0  0  0  0  0  0  0  0  0
   21.4987   -6.1384  -13.0490 O   0  0  0  0  0  0  0  0  0  0  0  0
  2  1  1  0
  3  2  1  0
  3  4  1  6
  5  3  1  0
  5  6  2  0
  7  5  1  0
  8  7  1  0
  9 10  1  0
  9  8  1  0
 10 11  1  0
 11  7  1  0
 11 12  1  6
 12 14  1  0
 13 12  2  0
 14 15  1  0
 15 16  1  6
 16 17  1  0
 17 18  1  0
 18 22  1  0
 19 18  2  0
 20 21  1  0
 20 15  1  0
 23 20  2  0
M  END
$$$$
