SPE.pdb
     RDKit          3D

 23 23  0  0  1  0  0  0  0  0999 V2000
   14.9003  -14.3309  -11.1139 O   0  0  0  0  0  0  0  0  0  0  0  0
   15.4233  -13.0469  -11.2872 C   0  0  0  0  0  0  0  0  0  0  0  0
   14.3466  -12.1421  -11.9023 C   0  0  2  0  0  0  0  0  0  0  0  0
   14.1951  -12.6259  -13.2733 N   0  0  0  0  0  0  0  0  0  0  0  0
   14.7891  -10.7150  -11.8734 C   0  0  0  0  0  0  0  0  0  0  0  0
   15.7465  -10.4612  -12.6627 O   0  0  0  0  0  0  0  0  0  0  0  0
   14.1673   -9.7737  -11.0263 N   0  0  0  0  0  0  0  0  0  0  0  0
   12.7464   -9.9245  -10.6435 C   0  0  0  0  0  0  0  0  0  0  0  0
   12.9051   -9.8594   -9.1378 C   0  0  0  0  0  0  0  0  0  0  0  0
   13.9042   -8.7206   -8.9864 C   0  0  0  0  0  0  0  0  0  0  0  0
   14.5802   -8.5855  -10.3718 C   0  0  1  0  0  0  0  0  0  0  0  0
   16.0119   -8.3555  -10.1936 C   0  0  0  0  0  0  0  0  0  0  0  0
   16.7106   -9.0947   -9.4879 O   0  0  0  0  0  0  0  0  0  0  0  0
   16.6741   -7.2685  -10.8245 N   0  0  0  0  0  0  0  0  0  0  0  0
   18.0312   -6.8958  -10.4720 C   0  0  1  0  0  0  0  0  0  0  0  0
   18.9526   -6.7762  -11.6327 C   0  0  0  0  0  0  0  0  0  0  0  0
   20.3579   -6.3743  -11.3256 C   0  0  0  0  0  0  0  0  0  0  0  0
   21.2208   -6.2051  -12.5041 C   0  0  0  0  0  0  0  0  0  0  0  0
   21.3837   -7.1673  -13.2924 O   0  0  0  0  0  0  0  0  0  0  0  0
   18.0551   -5.6825   -9.6261 C   0  0  0  0  0  0  0  0  0  0  0  0
   17.0843   -4.7012   -9.7259 O   0  0  0  0  0  0  0  0  0  0  0  0
   21.8751   -4.9964  -12.7828 O   0  0  0  0  0  0  0  0  0  0  0  0
   18.9707   -5.5347   -8.7970 O   0  0  0  0  0  0  0  0  0  0  0  0
  2  1  1  0
  3  2  1  0
  3  4  1  6
  5  3  1  0
  5  6  2  0
  7  5  1  0
  8  7  1  0
  9 10  1  0
  9  8  1  0
 10 11  1  0
 11  7  1  0
 11 12  1  1
 12 14  1  0
 13 12  2  0
 14 15  1  0
 15 16  1  6
 16 17  1  0
 17 18  1  0
 18 22  1  0
 19 18  2  0
 20 21  1  0
 20 15  1  0
 23 20  2  0
M  END
$$$$
