SPE.pdb
     RDKit          3D

 23 23  0  0  1  0  0  0  0  0999 V2000
   23.9654   -5.9231  -19.2630 O   0  0  0  0  0  0  0  0  0  0  0  0
   22.8328   -6.3602  -18.5713 C   0  0  0  0  0  0  0  0  0  0  0  0
   23.2609   -7.3410  -17.4707 C   0  0  2  0  0  0  0  0  0  0  0  0
   23.7749   -8.5046  -18.1907 N   0  0  0  0  0  0  0  0  0  0  0  0
   22.0910   -7.7028  -16.6140 C   0  0  0  0  0  0  0  0  0  0  0  0
   21.2899   -8.5170  -17.1612 O   0  0  0  0  0  0  0  0  0  0  0  0
   21.9357   -7.1599  -15.3212 N   0  0  0  0  0  0  0  0  0  0  0  0
   23.1163   -6.8373  -14.4904 C   0  0  0  0  0  0  0  0  0  0  0  0
   22.7912   -5.3902  -14.1796 C   0  0  0  0  0  0  0  0  0  0  0  0
   21.3014   -5.4718  -13.8765 C   0  0  0  0  0  0  0  0  0  0  0  0
   20.8299   -6.8033  -14.5085 C   0  0  1  0  0  0  0  0  0  0  0  0
   19.5338   -6.6034  -15.1524 C   0  0  0  0  0  0  0  0  0  0  0  0
   19.3322   -5.6717  -15.9422 O   0  0  0  0  0  0  0  0  0  0  0  0
   18.4381   -7.4725  -14.9027 N   0  0  0  0  0  0  0  0  0  0  0  0
   17.2199   -7.4064  -15.6878 C   0  0  1  0  0  0  0  0  0  0  0  0
   16.5859   -8.7267  -15.9435 C   0  0  0  0  0  0  0  0  0  0  0  0
   15.8956   -9.3670  -14.7840 C   0  0  0  0  0  0  0  0  0  0  0  0
   15.2618  -10.6597  -15.0828 C   0  0  0  0  0  0  0  0  0  0  0  0
   15.3557  -11.1403  -16.2378 O   0  0  0  0  0  0  0  0  0  0  0  0
   16.2593   -6.4394  -15.1130 C   0  0  0  0  0  0  0  0  0  0  0  0
   15.2948   -5.8177  -15.8866 O   0  0  0  0  0  0  0  0  0  0  0  0
   14.5489  -11.3828  -14.1155 O   0  0  0  0  0  0  0  0  0  0  0  0
   16.3130   -6.1744  -13.8987 O   0  0  0  0  0  0  0  0  0  0  0  0
  2  1  1  0
  3  2  1  0
  3  4  1  6
  5  3  1  0
  5  6  2  0
  7  5  1  0
  8  7  1  0
  9 10  1  0
  9  8  1  0
 10 11  1  0
 11  7  1  0
 11 12  1  6
 12 14  1  0
 13 12  2  0
 14 15  1  0
 15 16  1  1
 16 17  1  0
 17 18  1  0
 18 22  1  0
 19 18  2  0
 20 21  1  0
 20 15  1  0
 23 20  2  0
M  END
$$$$
