SPE.pdb
     RDKit          3D

 23 23  0  0  1  0  0  0  0  0999 V2000
   14.8850  -13.1595  -17.8380 O   0  0  0  0  0  0  0  0  0  0  0  0
   15.9092  -12.4104  -17.2531 C   0  0  0  0  0  0  0  0  0  0  0  0
   16.8866  -13.3586  -16.5446 C   0  0  2  0  0  0  0  0  0  0  0  0
   16.0962  -13.9809  -15.4841 N   0  0  0  0  0  0  0  0  0  0  0  0
   18.0411  -12.5915  -15.9858 C   0  0  0  0  0  0  0  0  0  0  0  0
   17.7151  -11.7618  -15.0861 O   0  0  0  0  0  0  0  0  0  0  0  0
   19.3555  -12.8062  -16.4509 N   0  0  0  0  0  0  0  0  0  0  0  0
   19.7670  -14.1292  -16.9690 C   0  0  0  0  0  0  0  0  0  0  0  0
   20.3029  -13.6923  -18.3175 C   0  0  0  0  0  0  0  0  0  0  0  0
   21.0805  -12.4380  -17.9437 C   0  0  0  0  0  0  0  0  0  0  0  0
   20.5225  -12.0089  -16.5656 C   0  0  1  0  0  0  0  0  0  0  0  0
   20.3738  -10.5559  -16.5325 C   0  0  0  0  0  0  0  0  0  0  0  0
   19.6044   -9.9592  -17.2972 O   0  0  0  0  0  0  0  0  0  0  0  0
   21.1073   -9.7545  -15.6172 N   0  0  0  0  0  0  0  0  0  0  0  0
   21.0586   -8.3053  -15.6656 C   0  0  1  0  0  0  0  0  0  0  0  0
   21.6317   -7.6348  -14.4688 C   0  0  0  0  0  0  0  0  0  0  0  0
   21.6594   -6.1417  -14.4943 C   0  0  0  0  0  0  0  0  0  0  0  0
   22.2778   -5.5176  -13.3152 C   0  0  0  0  0  0  0  0  0  0  0  0
   22.5621   -6.2267  -12.3200 O   0  0  0  0  0  0  0  0  0  0  0  0
   21.6488   -7.7872  -16.9192 C   0  0  0  0  0  0  0  0  0  0  0  0
   22.7868   -8.3430  -17.4771 O   0  0  0  0  0  0  0  0  0  0  0  0
   22.5644   -4.1460  -13.2605 O   0  0  0  0  0  0  0  0  0  0  0  0
   21.1101   -6.8251  -17.4952 O   0  0  0  0  0  0  0  0  0  0  0  0
  2  1  1  0
  3  2  1  0
  3  4  1  1
  5  3  1  0
  5  6  2  0
  7  5  1  0
  8  7  1  0
  9 10  1  0
  9  8  1  0
 10 11  1  0
 11  7  1  0
 11 12  1  6
 12 14  1  0
 13 12  2  0
 14 15  1  0
 15 16  1  1
 16 17  1  0
 17 18  1  0
 18 22  1  0
 19 18  2  0
 20 21  1  0
 20 15  1  0
 23 20  2  0
M  END
$$$$
