SPE.pdb
     RDKit          3D

 23 23  0  0  1  0  0  0  0  0999 V2000
   24.4624  -16.3201  -16.1470 O   0  0  0  0  0  0  0  0  0  0  0  0
   25.6532  -16.5843  -15.4654 C   0  0  0  0  0  0  0  0  0  0  0  0
   26.4153  -17.6996  -16.1946 C   0  0  2  0  0  0  0  0  0  0  0  0
   26.2550  -17.3909  -17.6143 N   0  0  0  0  0  0  0  0  0  0  0  0
   25.8319  -19.0335  -15.8571 C   0  0  0  0  0  0  0  0  0  0  0  0
   24.8045  -19.3280  -16.5367 O   0  0  0  0  0  0  0  0  0  0  0  0
   26.4076  -19.8533  -14.8639 N   0  0  0  0  0  0  0  0  0  0  0  0
   27.8758  -19.9168  -14.6942 C   0  0  0  0  0  0  0  0  0  0  0  0
   27.9519  -19.5843  -13.2176 C   0  0  0  0  0  0  0  0  0  0  0  0
   26.8068  -20.4178  -12.6590 C   0  0  0  0  0  0  0  0  0  0  0  0
   25.9042  -20.7360  -13.8750 C   0  0  1  0  0  0  0  0  0  0  0  0
   24.5017  -20.6108  -13.4851 C   0  0  0  0  0  0  0  0  0  0  0  0
   24.1247  -19.7691  -12.6592 O   0  0  0  0  0  0  0  0  0  0  0  0
   23.4990  -21.4519  -14.0375 N   0  0  0  0  0  0  0  0  0  0  0  0
   22.0900  -21.2342  -13.7687 C   0  0  1  0  0  0  0  0  0  0  0  0
   21.5761  -19.9183  -14.2321 C   0  0  0  0  0  0  0  0  0  0  0  0
   20.1038  -19.6999  -14.1080 C   0  0  0  0  0  0  0  0  0  0  0  0
   19.6176  -18.4402  -14.6902 C   0  0  0  0  0  0  0  0  0  0  0  0
   18.7322  -18.4726  -15.5784 O   0  0  0  0  0  0  0  0  0  0  0  0
   21.2651  -22.3534  -14.2740 C   0  0  0  0  0  0  0  0  0  0  0  0
   21.5812  -23.0272  -15.4408 O   0  0  0  0  0  0  0  0  0  0  0  0
   20.1112  -17.1915  -14.2859 O   0  0  0  0  0  0  0  0  0  0  0  0
   20.2576  -22.7058  -13.6351 O   0  0  0  0  0  0  0  0  0  0  0  0
  2  1  1  0
  3  2  1  0
  3  4  1  6
  5  3  1  0
  5  6  2  0
  7  5  1  0
  8  7  1  0
  9 10  1  0
  9  8  1  0
 10 11  1  0
 11  7  1  0
 11 12  1  1
 12 14  1  0
 13 12  2  0
 14 15  1  0
 15 16  1  6
 16 17  1  0
 17 18  1  0
 18 22  1  0
 19 18  2  0
 20 21  1  0
 20 15  1  0
 23 20  2  0
M  END
$$$$
