SPE.pdb
     RDKit          3D

 23 23  0  0  1  0  0  0  0  0999 V2000
   21.8448  -12.1131  -20.2941 O   0  0  0  0  0  0  0  0  0  0  0  0
   21.3189  -11.2725  -19.3096 C   0  0  0  0  0  0  0  0  0  0  0  0
   21.2297  -12.0417  -17.9842 C   0  0  2  0  0  0  0  0  0  0  0  0
   20.0223  -12.8562  -18.1090 N   0  0  0  0  0  0  0  0  0  0  0  0
   21.1288  -11.0892  -16.8369 C   0  0  0  0  0  0  0  0  0  0  0  0
   20.0441  -10.4359  -16.8098 O   0  0  0  0  0  0  0  0  0  0  0  0
   22.1730  -10.9637  -15.8968 N   0  0  0  0  0  0  0  0  0  0  0  0
   22.9872  -12.1369  -15.5107 C   0  0  0  0  0  0  0  0  0  0  0  0
   24.3622  -11.5678  -15.7973 C   0  0  0  0  0  0  0  0  0  0  0  0
   24.2342  -10.1620  -15.2270 C   0  0  0  0  0  0  0  0  0  0  0  0
   22.7122   -9.8986  -15.1317 C   0  0  1  0  0  0  0  0  0  0  0  0
   22.4286   -8.5294  -15.5555 C   0  0  0  0  0  0  0  0  0  0  0  0
   22.6782   -8.1342  -16.7019 O   0  0  0  0  0  0  0  0  0  0  0  0
   21.8497   -7.5821  -14.6693 N   0  0  0  0  0  0  0  0  0  0  0  0
   21.5857   -6.2164  -15.0815 C   0  0  1  0  0  0  0  0  0  0  0  0
   20.1418   -5.8861  -15.2114 C   0  0  0  0  0  0  0  0  0  0  0  0
   19.8160   -4.4964  -15.6513 C   0  0  0  0  0  0  0  0  0  0  0  0
   18.3788   -4.2110  -15.7734 C   0  0  0  0  0  0  0  0  0  0  0  0
   17.5476   -5.1238  -15.5507 O   0  0  0  0  0  0  0  0  0  0  0  0
   22.2944   -5.2458  -14.2189 C   0  0  0  0  0  0  0  0  0  0  0  0
   22.6258   -5.5376  -12.9073 O   0  0  0  0  0  0  0  0  0  0  0  0
   17.8974   -2.9439  -16.1333 O   0  0  0  0  0  0  0  0  0  0  0  0
   22.6065   -4.1336  -14.6805 O   0  0  0  0  0  0  0  0  0  0  0  0
  2  1  1  0
  3  2  1  0
  3  4  1  6
  5  3  1  0
  5  6  2  0
  7  5  1  0
  8  7  1  0
  9 10  1  0
  9  8  1  0
 10 11  1  0
 11  7  1  0
 11 12  1  6
 12 14  1  0
 13 12  2  0
 14 15  1  0
 15 16  1  1
 16 17  1  0
 17 18  1  0
 18 22  1  0
 19 18  2  0
 20 21  1  0
 20 15  1  0
 23 20  2  0
M  END
$$$$
