SPE.pdb
     RDKit          3D

 23 23  0  0  1  0  0  0  0  0999 V2000
   21.0996  -12.1025  -19.6950 O   0  0  0  0  0  0  0  0  0  0  0  0
   21.0646  -11.1370  -18.6856 C   0  0  0  0  0  0  0  0  0  0  0  0
   20.6093  -11.7935  -17.3748 C   0  0  2  0  0  0  0  0  0  0  0  0
   19.2752  -12.3151  -17.6655 N   0  0  0  0  0  0  0  0  0  0  0  0
   20.5722  -10.7836  -16.2738 C   0  0  0  0  0  0  0  0  0  0  0  0
   19.5407  -10.0487  -16.2898 O   0  0  0  0  0  0  0  0  0  0  0  0
   21.6149  -10.6943  -15.3279 N   0  0  0  0  0  0  0  0  0  0  0  0
   22.3479  -11.9041  -14.8950 C   0  0  0  0  0  0  0  0  0  0  0  0
   23.7592  -11.4353  -15.1864 C   0  0  0  0  0  0  0  0  0  0  0  0
   23.7185  -10.0057  -14.6643 C   0  0  0  0  0  0  0  0  0  0  0  0
   22.2162   -9.6411  -14.5932 C   0  0  1  0  0  0  0  0  0  0  0  0
   22.0257   -8.2716  -15.0649 C   0  0  0  0  0  0  0  0  0  0  0  0
   22.3751   -7.9151  -16.1978 O   0  0  0  0  0  0  0  0  0  0  0  0
   21.4273   -7.2792  -14.2433 N   0  0  0  0  0  0  0  0  0  0  0  0
   21.2351   -5.9190  -14.7101 C   0  0  1  0  0  0  0  0  0  0  0  0
   19.8320   -5.4355  -14.6214 C   0  0  0  0  0  0  0  0  0  0  0  0
   19.5929   -4.0160  -15.0199 C   0  0  0  0  0  0  0  0  0  0  0  0
   18.1935   -3.5761  -14.9189 C   0  0  0  0  0  0  0  0  0  0  0  0
   17.3147   -4.3939  -14.5543 O   0  0  0  0  0  0  0  0  0  0  0  0
   22.1787   -4.9859  -14.0565 C   0  0  0  0  0  0  0  0  0  0  0  0
   22.6448   -3.8497  -14.6946 O   0  0  0  0  0  0  0  0  0  0  0  0
   17.8001   -2.2637  -15.2178 O   0  0  0  0  0  0  0  0  0  0  0  0
   22.5668   -5.2222  -12.8984 O   0  0  0  0  0  0  0  0  0  0  0  0
  2  1  1  0
  3  2  1  0
  3  4  1  6
  5  3  1  0
  5  6  2  0
  7  5  1  0
  8  7  1  0
  9 10  1  0
  9  8  1  0
 10 11  1  0
 11  7  1  0
 11 12  1  6
 12 14  1  0
 13 12  2  0
 14 15  1  0
 15 16  1  1
 16 17  1  0
 17 18  1  0
 18 22  1  0
 19 18  2  0
 20 21  1  0
 20 15  1  0
 23 20  2  0
M  END
$$$$
