SPE.pdb
     RDKit          3D

 23 23  0  0  1  0  0  0  0  0999 V2000
   22.3000   -6.3793  -13.7462 O   0  0  0  0  0  0  0  0  0  0  0  0
   22.2734   -7.3337  -14.7664 C   0  0  0  0  0  0  0  0  0  0  0  0
   23.3935   -7.0298  -15.7711 C   0  0  2  0  0  0  0  0  0  0  0  0
   23.0247   -5.7435  -16.3594 N   0  0  0  0  0  0  0  0  0  0  0  0
   23.4658   -8.1033  -16.8083 C   0  0  0  0  0  0  0  0  0  0  0  0
   22.5679   -8.0156  -17.6972 O   0  0  0  0  0  0  0  0  0  0  0  0
   24.4607   -9.1022  -16.7587 N   0  0  0  0  0  0  0  0  0  0  0  0
   25.7763   -8.8282  -16.1404 C   0  0  0  0  0  0  0  0  0  0  0  0
   25.8139   -9.9812  -15.1577 C   0  0  0  0  0  0  0  0  0  0  0  0
   25.2887  -11.1263  -16.0125 C   0  0  0  0  0  0  0  0  0  0  0  0
   24.5540  -10.4485  -17.1938 C   0  0  1  0  0  0  0  0  0  0  0  0
   23.3163  -11.1719  -17.4757 C   0  0  0  0  0  0  0  0  0  0  0  0
   22.3781  -11.2029  -16.6686 O   0  0  0  0  0  0  0  0  0  0  0  0
   23.1289  -11.8769  -18.6947 N   0  0  0  0  0  0  0  0  0  0  0  0
   21.9160  -12.6270  -18.9614 C   0  0  1  0  0  0  0  0  0  0  0  0
   21.6513  -12.8666  -20.4047 C   0  0  0  0  0  0  0  0  0  0  0  0
   20.3527  -13.5236  -20.7409 C   0  0  0  0  0  0  0  0  0  0  0  0
   20.1514  -13.7915  -22.1726 C   0  0  0  0  0  0  0  0  0  0  0  0
   20.6869  -13.0393  -23.0220 O   0  0  0  0  0  0  0  0  0  0  0  0
   21.8757  -13.8830  -18.1810 C   0  0  0  0  0  0  0  0  0  0  0  0
   20.6975  -14.3766  -17.6487 O   0  0  0  0  0  0  0  0  0  0  0  0
   19.3756  -14.8668  -22.6290 O   0  0  0  0  0  0  0  0  0  0  0  0
   22.9279  -14.5203  -17.9958 O   0  0  0  0  0  0  0  0  0  0  0  0
  2  1  1  0
  3  2  1  0
  3  4  1  6
  5  3  1  0
  5  6  2  0
  7  5  1  0
  8  7  1  0
  9 10  1  0
  9  8  1  0
 10 11  1  0
 11  7  1  0
 11 12  1  1
 12 14  1  0
 13 12  2  0
 14 15  1  0
 15 16  1  6
 16 17  1  0
 17 18  1  0
 18 22  1  0
 19 18  2  0
 20 21  1  0
 20 15  1  0
 23 20  2  0
M  END
$$$$
