SPE.pdb
     RDKit          3D

 23 23  0  0  1  0  0  0  0  0999 V2000
   24.1837  -10.7679  -19.8724 O   0  0  0  0  0  0  0  0  0  0  0  0
   23.7558  -12.0693  -19.5977 C   0  0  0  0  0  0  0  0  0  0  0  0
   24.3826  -12.5386  -18.2774 C   0  0  2  0  0  0  0  0  0  0  0  0
   23.9007  -13.9077  -18.1044 N   0  0  0  0  0  0  0  0  0  0  0  0
   23.9423  -11.6592  -17.1522 C   0  0  0  0  0  0  0  0  0  0  0  0
   22.6898  -11.4771  -17.1066 O   0  0  0  0  0  0  0  0  0  0  0  0
   24.8741  -11.1047  -16.2498 N   0  0  0  0  0  0  0  0  0  0  0  0
   26.1153  -11.8313  -15.9038 C   0  0  0  0  0  0  0  0  0  0  0  0
   27.1186  -10.7450  -16.2355 C   0  0  0  0  0  0  0  0  0  0  0  0
   26.4398   -9.5150  -15.6488 C   0  0  0  0  0  0  0  0  0  0  0  0
   24.9504   -9.9063  -15.4957 C   0  0  1  0  0  0  0  0  0  0  0  0
   24.1088   -8.7815  -15.8971 C   0  0  0  0  0  0  0  0  0  0  0  0
   24.1072   -8.3461  -17.0560 O   0  0  0  0  0  0  0  0  0  0  0  0
   23.2477   -8.1310  -14.9732 N   0  0  0  0  0  0  0  0  0  0  0  0
   22.4033   -7.0206  -15.3717 C   0  0  1  0  0  0  0  0  0  0  0  0
   20.9620   -7.3638  -15.4967 C   0  0  0  0  0  0  0  0  0  0  0  0
   20.0639   -6.2826  -16.0020 C   0  0  0  0  0  0  0  0  0  0  0  0
   18.6398   -6.6438  -16.0616 C   0  0  0  0  0  0  0  0  0  0  0  0
   18.2836   -7.8030  -15.7406 O   0  0  0  0  0  0  0  0  0  0  0  0
   22.6127   -5.8436  -14.5004 C   0  0  0  0  0  0  0  0  0  0  0  0
   22.4706   -4.5499  -14.9710 O   0  0  0  0  0  0  0  0  0  0  0  0
   17.6549   -5.7320  -16.4681 O   0  0  0  0  0  0  0  0  0  0  0  0
   22.9237   -6.0146  -13.3081 O   0  0  0  0  0  0  0  0  0  0  0  0
  2  1  1  0
  3  2  1  0
  3  4  1  1
  5  3  1  0
  5  6  2  0
  7  5  1  0
  8  7  1  0
  9 10  1  0
  9  8  1  0
 10 11  1  0
 11  7  1  0
 11 12  1  6
 12 14  1  0
 13 12  2  0
 14 15  1  0
 15 16  1  1
 16 17  1  0
 17 18  1  0
 18 22  1  0
 19 18  2  0
 20 21  1  0
 20 15  1  0
 23 20  2  0
M  END
$$$$
