MQD.pdb
     RDKit          3D

 26 25  0  0  1  0  0  0  0  0999 V2000
    7.9682  -11.5364   28.2788 C   0  0  0  0  0  0  0  0  0  0  0  0
    6.4843  -11.8997   27.3323 S   0  0  0  0  0  0  0  0  0  0  0  0
    6.8251  -12.3720   25.6361 C   0  0  0  0  0  0  0  0  0  0  0  0
    6.1183  -13.6537   25.2278 C   0  0  0  0  0  0  0  0  0  0  0  0
    7.0940  -14.8333   25.3082 C   0  0  2  0  0  0  0  0  0  0  0  0
    8.4027  -14.2875   25.6178 N   0  0  0  0  0  0  0  0  0  0  0  0
    7.1531  -15.4776   23.9928 C   0  0  0  0  0  0  0  0  0  0  0  0
    6.1363  -16.1451   23.6288 O   0  0  0  0  0  0  0  0  0  0  0  0
    8.1215  -13.9797   18.2728 N   0  0  0  0  0  0  0  0  0  0  0  0
    7.8289  -13.3283   19.4955 C   0  0  0  0  0  0  0  0  0  0  0  0
    7.7370  -12.0819   19.5094 O   0  0  0  0  0  0  0  0  0  0  0  0
    7.6436  -14.1524   20.7093 C   0  0  0  0  0  0  0  0  0  0  0  0
    8.4468  -15.3927   20.7326 C   0  0  0  0  0  0  0  0  0  0  0  0
    8.2879  -16.3090   21.8961 C   0  0  2  0  0  0  0  0  0  0  0  0
    8.2430  -15.4214   23.0932 N   0  0  0  0  0  0  0  0  0  0  0  0
    9.3720  -17.2956   22.0737 C   0  0  0  0  0  0  0  0  0  0  0  0
    9.4781  -18.2463   21.2315 O   0  0  0  0  0  0  0  0  0  0  0  0
   10.3388  -17.3057   23.1028 N   0  0  0  0  0  0  0  0  0  0  0  0
   11.3658  -18.3247   23.1757 C   0  0  1  0  0  0  0  0  0  0  0  0
   12.7251  -17.7716   23.4994 C   0  0  0  0  0  0  0  0  0  0  0  0
   13.1334  -16.6725   22.6120 C   0  0  0  0  0  0  0  0  0  0  0  0
   12.9416  -16.6690   21.3631 O   0  0  0  0  0  0  0  0  0  0  0  0
   11.0127  -19.2918   24.2317 C   0  0  0  0  0  0  0  0  0  0  0  0
   11.7074  -20.3062   24.4223 O   0  0  0  0  0  0  0  0  0  0  0  0
   13.7678  -15.5655   23.1576 O   0  0  0  0  0  0  0  0  0  0  0  0
    9.9024  -19.0681   25.0137 O   0  0  0  0  0  0  0  0  0  0  0  0
  2  1  1  0
  3  2  1  0
  4  3  1  0
  4  5  1  0
  5  6  1  6
  5  7  1  0
  7  8  2  0
  9 10  1  0
 10 11  2  0
 10 12  1  0
 12 13  1  0
 14 13  1  6
 15  7  1  0
 15 14  1  0
 16 14  1  0
 16 17  2  0
 18 16  1  0
 19 18  1  0
 20 21  1  0
 19 20  1  1
 21 25  1  0
 22 21  2  0
 23 19  1  0
 23 26  1  0
 24 23  2  0
M  END
$$$$
