MQD.pdb
     RDKit          3D

 26 25  0  0  1  0  0  0  0  0999 V2000
    9.0994  -12.6629   27.8124 C   0  0  0  0  0  0  0  0  0  0  0  0
    7.3196  -12.4170   27.8462 S   0  0  0  0  0  0  0  0  0  0  0  0
    6.4368  -13.4800   26.7029 C   0  0  0  0  0  0  0  0  0  0  0  0
    7.3497  -14.1266   25.6745 C   0  0  0  0  0  0  0  0  0  0  0  0
    6.5339  -15.0515   24.7641 C   0  0  2  0  0  0  0  0  0  0  0  0
    6.1111  -16.1825   25.5694 N   0  0  0  0  0  0  0  0  0  0  0  0
    7.4085  -15.5383   23.6931 C   0  0  0  0  0  0  0  0  0  0  0  0
    7.6604  -16.7825   23.6718 O   0  0  0  0  0  0  0  0  0  0  0  0
    7.7741  -12.5155   17.8415 N   0  0  0  0  0  0  0  0  0  0  0  0
    7.4225  -13.7889   18.3512 C   0  0  0  0  0  0  0  0  0  0  0  0
    7.1761  -14.7144   17.5481 O   0  0  0  0  0  0  0  0  0  0  0  0
    7.3608  -13.9715   19.8174 C   0  0  0  0  0  0  0  0  0  0  0  0
    8.6513  -14.3301   20.4419 C   0  0  0  0  0  0  0  0  0  0  0  0
    8.6505  -15.3779   21.5007 C   0  0  2  0  0  0  0  0  0  0  0  0
    7.9967  -14.7442   22.6813 N   0  0  0  0  0  0  0  0  0  0  0  0
    9.9837  -15.8706   21.9005 C   0  0  0  0  0  0  0  0  0  0  0  0
   10.6689  -16.5354   21.0561 O   0  0  0  0  0  0  0  0  0  0  0  0
   10.6089  -15.6814   23.1523 N   0  0  0  0  0  0  0  0  0  0  0  0
   11.8859  -16.2881   23.4675 C   0  0  1  0  0  0  0  0  0  0  0  0
   12.9122  -15.2953   23.9361 C   0  0  0  0  0  0  0  0  0  0  0  0
   14.2829  -15.8279   23.9311 C   0  0  0  0  0  0  0  0  0  0  0  0
   14.5807  -16.9993   23.5628 O   0  0  0  0  0  0  0  0  0  0  0  0
   11.6975  -17.2791   24.5434 C   0  0  0  0  0  0  0  0  0  0  0  0
   10.6803  -17.2540   25.2592 O   0  0  0  0  0  0  0  0  0  0  0  0
   15.3245  -15.0131   24.3514 O   0  0  0  0  0  0  0  0  0  0  0  0
   12.6584  -18.2412   24.7562 O   0  0  0  0  0  0  0  0  0  0  0  0
  2  1  1  0
  3  2  1  0
  4  3  1  0
  4  5  1  0
  5  6  1  1
  5  7  1  0
  7  8  2  0
  9 10  1  0
 10 11  2  0
 10 12  1  0
 12 13  1  0
 14 13  1  6
 15  7  1  0
 15 14  1  0
 16 14  1  0
 16 17  2  0
 18 16  1  0
 19 18  1  0
 20 21  1  0
 19 20  1  1
 21 25  1  0
 22 21  2  0
 23 19  1  0
 23 26  1  0
 24 23  2  0
M  END
$$$$
