MQD.pdb
     RDKit          3D

 26 25  0  0  1  0  0  0  0  0999 V2000
    7.2016  -11.1164   26.5688 C   0  0  0  0  0  0  0  0  0  0  0  0
    5.9056  -12.3421   26.3511 S   0  0  0  0  0  0  0  0  0  0  0  0
    6.0080  -13.2093   24.7845 C   0  0  0  0  0  0  0  0  0  0  0  0
    6.5818  -14.6096   24.9224 C   0  0  0  0  0  0  0  0  0  0  0  0
    8.0027  -14.6476   24.3483 C   0  0  2  0  0  0  0  0  0  0  0  0
    7.8959  -14.4039   22.9216 N   0  0  0  0  0  0  0  0  0  0  0  0
    8.5514  -15.9911   24.5555 C   0  0  0  0  0  0  0  0  0  0  0  0
    8.6238  -16.4088   25.7522 O   0  0  0  0  0  0  0  0  0  0  0  0
    7.9777  -21.2110   21.3798 N   0  0  0  0  0  0  0  0  0  0  0  0
    8.7109  -20.1949   20.7204 C   0  0  0  0  0  0  0  0  0  0  0  0
    8.8544  -20.2606   19.4806 O   0  0  0  0  0  0  0  0  0  0  0  0
    9.2787  -19.0944   21.5289 C   0  0  0  0  0  0  0  0  0  0  0  0
    8.9487  -19.1620   22.9678 C   0  0  0  0  0  0  0  0  0  0  0  0
    9.6028  -18.1861   23.8836 C   0  0  2  0  0  0  0  0  0  0  0  0
    9.0075  -16.8632   23.5397 N   0  0  0  0  0  0  0  0  0  0  0  0
   11.0715  -18.0949   23.7622 C   0  0  0  0  0  0  0  0  0  0  0  0
   11.6397  -18.6589   22.7705 O   0  0  0  0  0  0  0  0  0  0  0  0
   11.9482  -17.4300   24.6471 N   0  0  0  0  0  0  0  0  0  0  0  0
   13.2817  -17.9267   24.9176 C   0  0  1  0  0  0  0  0  0  0  0  0
   14.3490  -16.8848   24.7340 C   0  0  0  0  0  0  0  0  0  0  0  0
   14.3185  -16.2465   23.4097 C   0  0  0  0  0  0  0  0  0  0  0  0
   13.8764  -16.8089   22.3681 O   0  0  0  0  0  0  0  0  0  0  0  0
   13.3487  -18.3951   26.3144 C   0  0  0  0  0  0  0  0  0  0  0  0
   12.3684  -18.2778   27.0716 O   0  0  0  0  0  0  0  0  0  0  0  0
   14.7983  -14.9515   23.2740 O   0  0  0  0  0  0  0  0  0  0  0  0
   14.5088  -18.9680   26.7836 O   0  0  0  0  0  0  0  0  0  0  0  0
  2  1  1  0
  3  2  1  0
  4  3  1  0
  4  5  1  0
  5  6  1  6
  5  7  1  0
  7  8  2  0
  9 10  1  0
 10 11  2  0
 10 12  1  0
 12 13  1  0
 14 13  1  6
 15  7  1  0
 15 14  1  0
 16 14  1  0
 16 17  2  0
 18 16  1  0
 19 18  1  0
 20 21  1  0
 19 20  1  1
 21 25  1  0
 22 21  2  0
 23 19  1  0
 23 26  1  0
 24 23  2  0
M  END
$$$$
