MQD.pdb
     RDKit          3D

 26 25  0  0  1  0  0  0  0  0999 V2000
    7.0271  -12.3890   18.4653 C   0  0  0  0  0  0  0  0  0  0  0  0
    7.2790  -12.2281   20.2374 S   0  0  0  0  0  0  0  0  0  0  0  0
    7.8452  -13.7433   21.0119 C   0  0  0  0  0  0  0  0  0  0  0  0
    8.8581  -14.4954   20.1649 C   0  0  0  0  0  0  0  0  0  0  0  0
    9.1598  -15.8565   20.8023 C   0  0  2  0  0  0  0  0  0  0  0  0
    9.2299  -15.6524   22.2375 N   0  0  0  0  0  0  0  0  0  0  0  0
   10.4703  -16.3112   20.3279 C   0  0  0  0  0  0  0  0  0  0  0  0
   10.5182  -16.8343   19.1722 O   0  0  0  0  0  0  0  0  0  0  0  0
   16.2905  -14.2887   18.6006 N   0  0  0  0  0  0  0  0  0  0  0  0
   14.9328  -14.3398   18.2019 C   0  0  0  0  0  0  0  0  0  0  0  0
   14.3906  -13.3006   17.7682 O   0  0  0  0  0  0  0  0  0  0  0  0
   14.2102  -15.6251   18.3157 C   0  0  0  0  0  0  0  0  0  0  0  0
   13.0229  -15.5813   19.1945 C   0  0  0  0  0  0  0  0  0  0  0  0
   12.9882  -16.4929   20.3719 C   0  0  2  0  0  0  0  0  0  0  0  0
   11.6862  -16.2184   21.0444 N   0  0  0  0  0  0  0  0  0  0  0  0
   14.0793  -16.3027   21.3484 C   0  0  0  0  0  0  0  0  0  0  0  0
   15.2804  -16.4991   20.9698 O   0  0  0  0  0  0  0  0  0  0  0  0
   13.9405  -15.9127   22.6984 N   0  0  0  0  0  0  0  0  0  0  0  0
   14.7379  -16.5078   23.7510 C   0  0  1  0  0  0  0  0  0  0  0  0
   14.2822  -17.8892   24.1286 C   0  0  0  0  0  0  0  0  0  0  0  0
   13.4410  -17.9160   25.3343 C   0  0  0  0  0  0  0  0  0  0  0  0
   13.4873  -18.8317   26.2038 O   0  0  0  0  0  0  0  0  0  0  0  0
   16.1384  -16.6061   23.2993 C   0  0  0  0  0  0  0  0  0  0  0  0
   17.0602  -16.1162   23.9762 O   0  0  0  0  0  0  0  0  0  0  0  0
   12.5369  -16.8853   25.5489 O   0  0  0  0  0  0  0  0  0  0  0  0
   16.4268  -17.2469   22.1159 O   0  0  0  0  0  0  0  0  0  0  0  0
  2  1  1  0
  3  2  1  0
  4  3  1  0
  4  5  1  0
  5  6  1  1
  5  7  1  0
  7  8  2  0
  9 10  1  0
 10 11  2  0
 10 12  1  0
 12 13  1  0
 14 13  1  6
 15  7  1  0
 15 14  1  0
 16 14  1  0
 16 17  2  0
 18 16  1  0
 19 18  1  0
 20 21  1  0
 19 20  1  6
 21 25  1  0
 22 21  2  0
 23 19  1  0
 23 26  1  0
 24 23  2  0
M  END
$$$$
