MQD.pdb
     RDKit          3D

 26 25  0  0  1  0  0  0  0  0999 V2000
    7.3608  -10.9813   26.5351 C   0  0  0  0  0  0  0  0  0  0  0  0
    6.3256  -12.0367   27.5569 S   0  0  0  0  0  0  0  0  0  0  0  0
    5.9530  -13.6158   26.7927 C   0  0  0  0  0  0  0  0  0  0  0  0
    6.9473  -13.9948   25.7078 C   0  0  0  0  0  0  0  0  0  0  0  0
    6.5299  -15.3203   25.0606 C   0  0  2  0  0  0  0  0  0  0  0  0
    6.6040  -16.3420   26.0888 N   0  0  0  0  0  0  0  0  0  0  0  0
    7.4938  -15.6454   24.0051 C   0  0  0  0  0  0  0  0  0  0  0  0
    8.1061  -16.7534   24.1015 O   0  0  0  0  0  0  0  0  0  0  0  0
    7.8230  -12.5084   18.7208 N   0  0  0  0  0  0  0  0  0  0  0  0
    8.2657  -13.7656   18.2426 C   0  0  0  0  0  0  0  0  0  0  0  0
    8.7074  -13.8473   17.0763 O   0  0  0  0  0  0  0  0  0  0  0  0
    8.1866  -14.9337   19.1461 C   0  0  0  0  0  0  0  0  0  0  0  0
    7.7836  -14.6078   20.5300 C   0  0  0  0  0  0  0  0  0  0  0  0
    8.3407  -15.4359   21.6357 C   0  0  2  0  0  0  0  0  0  0  0  0
    7.8020  -14.8336   22.8888 N   0  0  0  0  0  0  0  0  0  0  0  0
    9.8146  -15.4690   21.7172 C   0  0  0  0  0  0  0  0  0  0  0  0
   10.4697  -15.9759   20.7485 O   0  0  0  0  0  0  0  0  0  0  0  0
   10.6086  -14.9849   22.7797 N   0  0  0  0  0  0  0  0  0  0  0  0
   11.7305  -15.7393   23.2998 C   0  0  1  0  0  0  0  0  0  0  0  0
   11.3288  -17.0565   23.9014 C   0  0  0  0  0  0  0  0  0  0  0  0
   12.4709  -17.8561   24.3687 C   0  0  0  0  0  0  0  0  0  0  0  0
   13.6769  -17.5022   24.2391 O   0  0  0  0  0  0  0  0  0  0  0  0
   12.6757  -16.0177   22.2026 C   0  0  0  0  0  0  0  0  0  0  0  0
   13.7673  -15.4242   22.1383 O   0  0  0  0  0  0  0  0  0  0  0  0
   12.2324  -19.0734   24.9907 O   0  0  0  0  0  0  0  0  0  0  0  0
   12.3451  -16.9445   21.2403 O   0  0  0  0  0  0  0  0  0  0  0  0
  2  1  1  0
  3  2  1  0
  4  3  1  0
  4  5  1  0
  5  6  1  1
  5  7  1  0
  7  8  2  0
  9 10  1  0
 10 11  2  0
 10 12  1  0
 12 13  1  0
 14 13  1  6
 15  7  1  0
 15 14  1  0
 16 14  1  0
 16 17  2  0
 18 16  1  0
 19 18  1  0
 20 21  1  0
 19 20  1  6
 21 25  1  0
 22 21  2  0
 23 19  1  0
 23 26  1  0
 24 23  2  0
M  END
$$$$
