MQD.pdb
     RDKit          3D

 26 25  0  0  1  0  0  0  0  0999 V2000
    8.8168  -12.3254   21.3991 C   0  0  0  0  0  0  0  0  0  0  0  0
    7.7674  -12.3385   19.9403 S   0  0  0  0  0  0  0  0  0  0  0  0
    8.2110  -13.6149   18.7611 C   0  0  0  0  0  0  0  0  0  0  0  0
    8.8592  -14.8230   19.4162 C   0  0  0  0  0  0  0  0  0  0  0  0
    9.3986  -15.7711   18.3392 C   0  0  2  0  0  0  0  0  0  0  0  0
    8.2687  -16.1877   17.5291 N   0  0  0  0  0  0  0  0  0  0  0  0
    9.9633  -16.9515   19.0001 C   0  0  0  0  0  0  0  0  0  0  0  0
    9.1765  -17.6480   19.7125 O   0  0  0  0  0  0  0  0  0  0  0  0
    9.4510  -20.1286   17.2160 N   0  0  0  0  0  0  0  0  0  0  0  0
   10.4381  -20.4827   18.1674 C   0  0  0  0  0  0  0  0  0  0  0  0
   10.0768  -20.9628   19.2632 O   0  0  0  0  0  0  0  0  0  0  0  0
   11.8605  -20.2688   17.8237 C   0  0  0  0  0  0  0  0  0  0  0  0
   12.5835  -19.3728   18.7502 C   0  0  0  0  0  0  0  0  0  0  0  0
   11.7821  -18.5554   19.7033 C   0  0  2  0  0  0  0  0  0  0  0  0
   11.3075  -17.3828   18.9142 N   0  0  0  0  0  0  0  0  0  0  0  0
   12.5167  -18.0681   20.8878 C   0  0  0  0  0  0  0  0  0  0  0  0
   13.1773  -18.9056   21.5854 O   0  0  0  0  0  0  0  0  0  0  0  0
   12.5754  -16.7354   21.3507 N   0  0  0  0  0  0  0  0  0  0  0  0
   13.3619  -16.3632   22.5087 C   0  0  1  0  0  0  0  0  0  0  0  0
   14.1135  -15.0752   22.3235 C   0  0  0  0  0  0  0  0  0  0  0  0
   15.1970  -15.1699   21.3339 C   0  0  0  0  0  0  0  0  0  0  0  0
   15.5129  -16.2380   20.7373 O   0  0  0  0  0  0  0  0  0  0  0  0
   12.4656  -16.1961   23.6679 C   0  0  0  0  0  0  0  0  0  0  0  0
   11.2304  -16.2531   23.5295 O   0  0  0  0  0  0  0  0  0  0  0  0
   15.9274  -14.0319   21.0227 O   0  0  0  0  0  0  0  0  0  0  0  0
   13.0030  -15.9747   24.9155 O   0  0  0  0  0  0  0  0  0  0  0  0
  2  1  1  0
  3  2  1  0
  4  3  1  0
  4  5  1  0
  5  6  1  6
  5  7  1  0
  7  8  2  0
  9 10  1  0
 10 11  2  0
 10 12  1  0
 12 13  1  0
 14 13  1  6
 15  7  1  0
 15 14  1  0
 16 14  1  0
 16 17  2  0
 18 16  1  0
 19 18  1  0
 20 21  1  0
 19 20  1  6
 21 25  1  0
 22 21  2  0
 23 19  1  0
 23 26  1  0
 24 23  2  0
M  END
$$$$
