MQD.pdb
     RDKit          3D

 26 25  0  0  1  0  0  0  0  0999 V2000
    5.6107  -11.6578   26.9092 C   0  0  0  0  0  0  0  0  0  0  0  0
    7.3225  -11.9352   27.3805 S   0  0  0  0  0  0  0  0  0  0  0  0
    7.6406  -13.6104   27.9366 C   0  0  0  0  0  0  0  0  0  0  0  0
    7.9371  -14.5651   26.7922 C   0  0  0  0  0  0  0  0  0  0  0  0
    6.7466  -14.6051   25.8273 C   0  0  2  0  0  0  0  0  0  0  0  0
    5.8078  -15.5838   26.3444 N   0  0  0  0  0  0  0  0  0  0  0  0
    7.2250  -15.0593   24.5181 C   0  0  0  0  0  0  0  0  0  0  0  0
    7.3355  -16.3121   24.3448 O   0  0  0  0  0  0  0  0  0  0  0  0
    6.7627  -13.6363   18.8386 N   0  0  0  0  0  0  0  0  0  0  0  0
    8.1506  -13.8967   18.7339 C   0  0  0  0  0  0  0  0  0  0  0  0
    8.6361  -14.1434   17.6090 O   0  0  0  0  0  0  0  0  0  0  0  0
    8.9707  -13.8660   19.9641 C   0  0  0  0  0  0  0  0  0  0  0  0
    8.1957  -13.6842   21.2091 C   0  0  0  0  0  0  0  0  0  0  0  0
    8.1870  -14.7977   22.1984 C   0  0  2  0  0  0  0  0  0  0  0  0
    7.5745  -14.2248   23.4310 N   0  0  0  0  0  0  0  0  0  0  0  0
    9.5138  -15.3500   22.5370 C   0  0  0  0  0  0  0  0  0  0  0  0
   10.2909  -14.6643   23.2790 O   0  0  0  0  0  0  0  0  0  0  0  0
   10.0375  -16.5937   22.1212 N   0  0  0  0  0  0  0  0  0  0  0  0
   11.3354  -17.0617   22.5623 C   0  0  1  0  0  0  0  0  0  0  0  0
   11.3333  -18.5062   22.9768 C   0  0  0  0  0  0  0  0  0  0  0  0
   12.6769  -19.0338   23.2574 C   0  0  0  0  0  0  0  0  0  0  0  0
   13.5474  -19.2498   22.3674 O   0  0  0  0  0  0  0  0  0  0  0  0
   12.3028  -16.9138   21.4589 C   0  0  0  0  0  0  0  0  0  0  0  0
   11.9236  -16.9366   20.2742 O   0  0  0  0  0  0  0  0  0  0  0  0
   13.0295  -19.3178   24.5691 O   0  0  0  0  0  0  0  0  0  0  0  0
   13.6389  -16.7489   21.7449 O   0  0  0  0  0  0  0  0  0  0  0  0
  2  1  1  0
  3  2  1  0
  4  3  1  0
  4  5  1  0
  5  6  1  1
  5  7  1  0
  7  8  2  0
  9 10  1  0
 10 11  2  0
 10 12  1  0
 12 13  1  0
 14 13  1  6
 15  7  1  0
 15 14  1  0
 16 14  1  0
 16 17  2  0
 18 16  1  0
 19 18  1  0
 20 21  1  0
 19 20  1  6
 21 25  1  0
 22 21  2  0
 23 19  1  0
 23 26  1  0
 24 23  2  0
M  END
$$$$
