MQD.pdb
     RDKit          3D

 26 25  0  0  1  0  0  0  0  0999 V2000
    6.5829  -12.2930   27.2575 C   0  0  0  0  0  0  0  0  0  0  0  0
    7.2648  -11.1951   26.0089 S   0  0  0  0  0  0  0  0  0  0  0  0
    7.2946  -11.9206   24.3690 C   0  0  0  0  0  0  0  0  0  0  0  0
    7.5297  -13.4217   24.3928 C   0  0  0  0  0  0  0  0  0  0  0  0
    7.6518  -13.9512   22.9594 C   0  0  2  0  0  0  0  0  0  0  0  0
    6.4062  -13.6439   22.2807 N   0  0  0  0  0  0  0  0  0  0  0  0
    7.8099  -15.4076   23.0143 C   0  0  0  0  0  0  0  0  0  0  0  0
    6.8057  -16.0850   23.3945 O   0  0  0  0  0  0  0  0  0  0  0  0
   10.7177  -19.4917   19.0468 N   0  0  0  0  0  0  0  0  0  0  0  0
   10.3763  -18.1245   19.1848 C   0  0  0  0  0  0  0  0  0  0  0  0
   10.1718  -17.4457   18.1555 O   0  0  0  0  0  0  0  0  0  0  0  0
   10.2756  -17.5546   20.5457 C   0  0  0  0  0  0  0  0  0  0  0  0
    9.1432  -18.0726   21.3414 C   0  0  0  0  0  0  0  0  0  0  0  0
    9.0097  -17.6136   22.7521 C   0  0  2  0  0  0  0  0  0  0  0  0
    8.9825  -16.1246   22.6810 N   0  0  0  0  0  0  0  0  0  0  0  0
   10.1013  -18.0286   23.6557 C   0  0  0  0  0  0  0  0  0  0  0  0
   10.2530  -19.2698   23.9023 O   0  0  0  0  0  0  0  0  0  0  0  0
   11.0292  -17.1797   24.2978 N   0  0  0  0  0  0  0  0  0  0  0  0
   12.0911  -17.7022   25.1330 C   0  0  1  0  0  0  0  0  0  0  0  0
   13.3266  -16.8467   25.1223 C   0  0  0  0  0  0  0  0  0  0  0  0
   13.8749  -16.6319   23.7749 C   0  0  0  0  0  0  0  0  0  0  0  0
   13.7388  -17.4502   22.8217 O   0  0  0  0  0  0  0  0  0  0  0  0
   11.6144  -17.7829   26.5263 C   0  0  0  0  0  0  0  0  0  0  0  0
   10.5063  -17.3166   26.8467 O   0  0  0  0  0  0  0  0  0  0  0  0
   14.5865  -15.4696   23.5137 O   0  0  0  0  0  0  0  0  0  0  0  0
   12.4051  -18.3809   27.4810 O   0  0  0  0  0  0  0  0  0  0  0  0
  2  1  1  0
  3  2  1  0
  4  3  1  0
  4  5  1  0
  5  6  1  6
  5  7  1  0
  7  8  2  0
  9 10  1  0
 10 11  2  0
 10 12  1  0
 12 13  1  0
 14 13  1  6
 15  7  1  0
 15 14  1  0
 16 14  1  0
 16 17  2  0
 18 16  1  0
 19 18  1  0
 20 21  1  0
 19 20  1  1
 21 25  1  0
 22 21  2  0
 23 19  1  0
 23 26  1  0
 24 23  2  0
M  END
$$$$
