MQD.pdb
     RDKit          3D

 26 25  0  0  1  0  0  0  0  0999 V2000
    7.8984  -11.1426   26.9298 C   0  0  0  0  0  0  0  0  0  0  0  0
    7.9656  -12.6608   27.8891 S   0  0  0  0  0  0  0  0  0  0  0  0
    7.0320  -14.0041   27.1539 C   0  0  0  0  0  0  0  0  0  0  0  0
    7.5546  -14.4047   25.7844 C   0  0  0  0  0  0  0  0  0  0  0  0
    6.6208  -15.4453   25.1560 C   0  0  2  0  0  0  0  0  0  0  0  0
    6.7296  -16.6551   25.9503 N   0  0  0  0  0  0  0  0  0  0  0  0
    7.0915  -15.7314   23.7975 C   0  0  0  0  0  0  0  0  0  0  0  0
    7.2636  -16.9509   23.4892 O   0  0  0  0  0  0  0  0  0  0  0  0
    8.5242  -11.7124   19.2098 N   0  0  0  0  0  0  0  0  0  0  0  0
    8.5448  -12.9597   18.5399 C   0  0  0  0  0  0  0  0  0  0  0  0
    9.2021  -13.0671   17.4823 O   0  0  0  0  0  0  0  0  0  0  0  0
    7.7849  -14.0873   19.1213 C   0  0  0  0  0  0  0  0  0  0  0  0
    7.5405  -13.9730   20.5743 C   0  0  0  0  0  0  0  0  0  0  0  0
    7.7233  -15.1899   21.4137 C   0  0  2  0  0  0  0  0  0  0  0  0
    7.3711  -14.7687   22.7998 N   0  0  0  0  0  0  0  0  0  0  0  0
    9.0882  -15.7531   21.4181 C   0  0  0  0  0  0  0  0  0  0  0  0
    9.4389  -16.5148   20.4582 O   0  0  0  0  0  0  0  0  0  0  0  0
   10.0840  -15.5354   22.3952 N   0  0  0  0  0  0  0  0  0  0  0  0
   11.3679  -16.2038   22.3391 C   0  0  1  0  0  0  0  0  0  0  0  0
   12.5140  -15.2627   22.0960 C   0  0  0  0  0  0  0  0  0  0  0  0
   12.7531  -14.9917   20.6707 C   0  0  0  0  0  0  0  0  0  0  0  0
   12.2471  -15.6690   19.7316 O   0  0  0  0  0  0  0  0  0  0  0  0
   11.6136  -16.8865   23.6231 C   0  0  0  0  0  0  0  0  0  0  0  0
   12.6304  -17.5844   23.7872 O   0  0  0  0  0  0  0  0  0  0  0  0
   13.5795  -13.9354   20.3144 O   0  0  0  0  0  0  0  0  0  0  0  0
   10.7072  -16.7490   24.6496 O   0  0  0  0  0  0  0  0  0  0  0  0
  2  1  1  0
  3  2  1  0
  4  3  1  0
  4  5  1  0
  5  6  1  1
  5  7  1  0
  7  8  2  0
  9 10  1  0
 10 11  2  0
 10 12  1  0
 12 13  1  0
 14 13  1  6
 15  7  1  0
 15 14  1  0
 16 14  1  0
 16 17  2  0
 18 16  1  0
 19 18  1  0
 20 21  1  0
 19 20  1  1
 21 25  1  0
 22 21  2  0
 23 19  1  0
 23 26  1  0
 24 23  2  0
M  END
$$$$
