MQD.pdb
     RDKit          3D

 26 25  0  0  1  0  0  0  0  0999 V2000
    8.2910  -12.3787   28.0082 C   0  0  0  0  0  0  0  0  0  0  0  0
    6.6144  -12.0034   27.4813 S   0  0  0  0  0  0  0  0  0  0  0  0
    6.3081  -12.4009   25.7595 C   0  0  0  0  0  0  0  0  0  0  0  0
    6.0833  -13.8858   25.5284 C   0  0  0  0  0  0  0  0  0  0  0  0
    7.4283  -14.5862   25.3042 C   0  0  2  0  0  0  0  0  0  0  0  0
    8.4669  -13.5883   25.4829 N   0  0  0  0  0  0  0  0  0  0  0  0
    7.4750  -15.0703   23.9213 C   0  0  0  0  0  0  0  0  0  0  0  0
    6.7175  -16.0445   23.6230 O   0  0  0  0  0  0  0  0  0  0  0  0
    8.1391  -12.0867   18.7224 N   0  0  0  0  0  0  0  0  0  0  0  0
    8.2253  -13.3960   18.1904 C   0  0  0  0  0  0  0  0  0  0  0  0
    8.1877  -13.5484   16.9504 O   0  0  0  0  0  0  0  0  0  0  0  0
    8.3564  -14.5328   19.1271 C   0  0  0  0  0  0  0  0  0  0  0  0
    8.3493  -14.1505   20.5546 C   0  0  0  0  0  0  0  0  0  0  0  0
    8.3842  -15.2380   21.5718 C   0  0  2  0  0  0  0  0  0  0  0  0
    8.2895  -14.5477   22.8899 N   0  0  0  0  0  0  0  0  0  0  0  0
    9.6004  -16.0752   21.5575 C   0  0  0  0  0  0  0  0  0  0  0  0
    9.7024  -16.9913   20.6772 O   0  0  0  0  0  0  0  0  0  0  0  0
   10.7017  -15.9724   22.4353 N   0  0  0  0  0  0  0  0  0  0  0  0
   11.8480  -16.8515   22.3283 C   0  0  1  0  0  0  0  0  0  0  0  0
   13.1370  -16.1158   22.0925 C   0  0  0  0  0  0  0  0  0  0  0  0
   13.1753  -15.4052   20.8057 C   0  0  0  0  0  0  0  0  0  0  0  0
   12.9009  -15.9443   19.6963 O   0  0  0  0  0  0  0  0  0  0  0  0
   11.9906  -17.6142   23.5826 C   0  0  0  0  0  0  0  0  0  0  0  0
   11.1915  -17.4480   24.5215 O   0  0  0  0  0  0  0  0  0  0  0  0
   13.5311  -14.0641   20.7863 O   0  0  0  0  0  0  0  0  0  0  0  0
   13.0194  -18.5189   23.7138 O   0  0  0  0  0  0  0  0  0  0  0  0
  2  1  1  0
  3  2  1  0
  4  3  1  0
  4  5  1  0
  5  6  1  6
  5  7  1  0
  7  8  2  0
  9 10  1  0
 10 11  2  0
 10 12  1  0
 12 13  1  0
 14 13  1  6
 15  7  1  0
 15 14  1  0
 16 14  1  0
 16 17  2  0
 18 16  1  0
 19 18  1  0
 20 21  1  0
 19 20  1  1
 21 25  1  0
 22 21  2  0
 23 19  1  0
 23 26  1  0
 24 23  2  0
M  END
$$$$
