MQD.pdb
     RDKit          3D

 26 25  0  0  1  0  0  0  0  0999 V2000
    7.6745  -11.4525   19.8752 C   0  0  0  0  0  0  0  0  0  0  0  0
    7.3970  -12.8495   18.7793 S   0  0  0  0  0  0  0  0  0  0  0  0
    7.7342  -14.4325   19.5519 C   0  0  0  0  0  0  0  0  0  0  0  0
    8.6697  -14.3192   20.7440 C   0  0  0  0  0  0  0  0  0  0  0  0
    8.9712  -15.7147   21.3022 C   0  0  2  0  0  0  0  0  0  0  0  0
    8.8399  -16.6540   20.2035 N   0  0  0  0  0  0  0  0  0  0  0  0
    7.9643  -16.0362   22.3179 C   0  0  0  0  0  0  0  0  0  0  0  0
    7.9376  -15.3079   23.3575 O   0  0  0  0  0  0  0  0  0  0  0  0
    2.6356  -19.1723   21.7673 N   0  0  0  0  0  0  0  0  0  0  0  0
    3.6748  -18.8847   20.8497 C   0  0  0  0  0  0  0  0  0  0  0  0
    3.4678  -19.0552   19.6290 O   0  0  0  0  0  0  0  0  0  0  0  0
    4.9666  -18.3928   21.3755 C   0  0  0  0  0  0  0  0  0  0  0  0
    4.9690  -18.1187   22.8276 C   0  0  0  0  0  0  0  0  0  0  0  0
    6.1431  -17.4063   23.4046 C   0  0  2  0  0  0  0  0  0  0  0  0
    7.0198  -17.0861   22.2419 N   0  0  0  0  0  0  0  0  0  0  0  0
    6.9237  -18.1763   24.3934 C   0  0  0  0  0  0  0  0  0  0  0  0
    6.3360  -18.5976   25.4430 O   0  0  0  0  0  0  0  0  0  0  0  0
    8.2922  -18.5130   24.3058 N   0  0  0  0  0  0  0  0  0  0  0  0
    8.9368  -19.3525   25.2947 C   0  0  1  0  0  0  0  0  0  0  0  0
    9.2061  -20.7463   24.8015 C   0  0  0  0  0  0  0  0  0  0  0  0
    9.9639  -21.5666   25.7581 C   0  0  0  0  0  0  0  0  0  0  0  0
    9.5687  -21.8256   26.9300 O   0  0  0  0  0  0  0  0  0  0  0  0
   10.2309  -18.7519   25.6685 C   0  0  0  0  0  0  0  0  0  0  0  0
   10.8830  -18.0845   24.8456 O   0  0  0  0  0  0  0  0  0  0  0  0
   11.1867  -22.0966   25.3715 O   0  0  0  0  0  0  0  0  0  0  0  0
   10.7207  -18.9328   26.9419 O   0  0  0  0  0  0  0  0  0  0  0  0
  2  1  1  0
  3  2  1  0
  4  3  1  0
  4  5  1  0
  5  6  1  6
  5  7  1  0
  7  8  2  0
  9 10  1  0
 10 11  2  0
 10 12  1  0
 12 13  1  0
 14 13  1  6
 15  7  1  0
 15 14  1  0
 16 14  1  0
 16 17  2  0
 18 16  1  0
 19 18  1  0
 20 21  1  0
 19 20  1  6
 21 25  1  0
 22 21  2  0
 23 19  1  0
 23 26  1  0
 24 23  2  0
M  END
$$$$
