DIN.pdb
     RDKit          3D

 25 24  0  0  1  0  0  0  0  0999 V2000
    8.3957  -15.0655   20.4135 N   0  0  0  0  0  0  0  0  0  0  0  0
    7.8537  -15.9285   21.4483 C   0  0  1  0  0  0  0  0  0  0  0  0
    8.0966  -17.3874   21.1271 C   0  0  0  0  0  0  0  0  0  0  0  0
    7.4994  -17.7632   19.8203 C   0  0  0  0  0  0  0  0  0  0  0  0
    6.6820  -17.0517   19.1837 O   0  0  0  0  0  0  0  0  0  0  0  0
    8.4532  -15.5326   22.7326 C   0  0  0  0  0  0  0  0  0  0  0  0
    9.7079  -15.6090   22.9537 O   0  0  0  0  0  0  0  0  0  0  0  0
    7.8760  -18.9843   19.2738 O   0  0  0  0  0  0  0  0  0  0  0  0
    6.0414  -11.7469   25.9839 C   0  0  0  0  0  0  0  0  0  0  0  0
    7.0983  -12.4746   25.1573 C   0  0  0  0  0  0  0  0  0  0  0  0
    7.4146  -13.7469   25.8584 C   0  0  2  0  0  0  0  0  0  0  0  0
    8.0962  -13.3953   27.1882 C   0  0  0  0  0  0  0  0  0  0  0  0
    8.2673  -14.7214   25.1080 C   0  0  2  0  0  0  0  0  0  0  0  0
    7.6756  -15.0378   23.8157 N   0  0  0  0  0  0  0  0  0  0  0  0
    8.5500  -15.9538   25.8790 C   0  0  0  0  0  0  0  0  0  0  0  0
    7.5598  -16.6913   26.1984 O   0  0  0  0  0  0  0  0  0  0  0  0
   10.7384  -20.8281   26.7196 N   0  0  0  0  0  0  0  0  0  0  0  0
   11.5693  -19.6466   26.6991 C   0  0  0  0  0  0  0  0  0  0  0  0
   12.6943  -19.7860   27.2166 O   0  0  0  0  0  0  0  0  0  0  0  0
   11.0846  -18.3990   26.1040 C   0  0  0  0  0  0  0  0  0  0  0  0
   10.1167  -17.6055   26.9285 C   0  0  2  0  0  0  0  0  0  0  0  0
    9.8436  -16.3322   26.2706 N   0  0  0  0  0  0  0  0  0  0  0  0
   10.5858  -17.3977   28.3079 C   0  0  0  0  0  0  0  0  0  0  0  0
   11.1686  -16.3833   28.7156 O   0  0  0  0  0  0  0  0  0  0  0  0
   10.3934  -18.3882   29.2993 O   0  0  0  0  0  0  0  0  0  0  0  0
  2  3  1  0
  2  1  1  6
  3  4  1  0
  4  5  2  0
  4  8  1  0
  6  2  1  0
  7  6  2  0
  9 10  1  0
 11 10  1  0
 11 13  1  0
 11 12  1  1
 13 15  1  0
 13 14  1  6
 14  6  1  0
 15 16  2  0
 18 17  1  0
 18 19  2  0
 21 20  1  6
 20 18  1  0
 22 21  1  0
 22 15  1  0
 23 21  1  0
 24 23  2  0
 25 23  1  0
M  END
$$$$
