DIN.pdb
     RDKit          3D

 25 24  0  0  1  0  0  0  0  0999 V2000
    8.1866  -14.9695   20.1979 N   0  0  0  0  0  0  0  0  0  0  0  0
    7.5490  -15.6453   21.3143 C   0  0  1  0  0  0  0  0  0  0  0  0
    7.5856  -17.1479   21.1377 C   0  0  0  0  0  0  0  0  0  0  0  0
    6.8096  -17.5744   19.9453 C   0  0  0  0  0  0  0  0  0  0  0  0
    5.5917  -17.8835   19.9657 O   0  0  0  0  0  0  0  0  0  0  0  0
    8.2179  -15.2123   22.5516 C   0  0  0  0  0  0  0  0  0  0  0  0
    9.4728  -14.9862   22.6071 O   0  0  0  0  0  0  0  0  0  0  0  0
    7.4844  -17.6319   18.7317 O   0  0  0  0  0  0  0  0  0  0  0  0
    5.8521  -11.8447   26.1168 C   0  0  0  0  0  0  0  0  0  0  0  0
    6.8582  -12.5040   25.1772 C   0  0  0  0  0  0  0  0  0  0  0  0
    7.3350  -13.7483   25.8363 C   0  0  2  0  0  0  0  0  0  0  0  0
    8.1023  -13.3460   27.1037 C   0  0  0  0  0  0  0  0  0  0  0  0
    8.1919  -14.6507   25.0050 C   0  0  2  0  0  0  0  0  0  0  0  0
    7.5118  -15.0164   23.7704 N   0  0  0  0  0  0  0  0  0  0  0  0
    8.6441  -15.8547   25.7392 C   0  0  0  0  0  0  0  0  0  0  0  0
    7.7490  -16.6506   26.1775 O   0  0  0  0  0  0  0  0  0  0  0  0
   10.8583  -18.2062   23.9883 N   0  0  0  0  0  0  0  0  0  0  0  0
   11.9930  -18.1039   24.8765 C   0  0  0  0  0  0  0  0  0  0  0  0
   13.0929  -18.3762   24.3578 O   0  0  0  0  0  0  0  0  0  0  0  0
   11.8172  -17.7066   26.2753 C   0  0  0  0  0  0  0  0  0  0  0  0
   10.4232  -17.3435   26.6893 C   0  0  2  0  0  0  0  0  0  0  0  0
    9.9970  -16.1461   25.9728 N   0  0  0  0  0  0  0  0  0  0  0  0
   10.2937  -17.1631   28.1441 C   0  0  0  0  0  0  0  0  0  0  0  0
   10.3729  -16.0776   28.7359 O   0  0  0  0  0  0  0  0  0  0  0  0
   10.0616  -18.2676   28.9968 O   0  0  0  0  0  0  0  0  0  0  0  0
  2  3  1  0
  2  1  1  6
  3  4  1  0
  4  5  2  0
  4  8  1  0
  6  2  1  0
  7  6  2  0
  9 10  1  0
 11 10  1  0
 11 13  1  0
 11 12  1  1
 13 15  1  0
 13 14  1  6
 14  6  1  0
 15 16  2  0
 18 17  1  0
 18 19  2  0
 21 20  1  1
 20 18  1  0
 22 21  1  0
 22 15  1  0
 23 21  1  0
 24 23  2  0
 25 23  1  0
M  END
$$$$
