DIN.pdb
     RDKit          3D

 25 24  0  0  1  0  0  0  0  0999 V2000
    8.4605  -15.0676   20.2561 N   0  0  0  0  0  0  0  0  0  0  0  0
    7.7609  -15.6765   21.3738 C   0  0  1  0  0  0  0  0  0  0  0  0
    7.7312  -17.1841   21.2452 C   0  0  0  0  0  0  0  0  0  0  0  0
    7.1188  -17.6083   19.9603 C   0  0  0  0  0  0  0  0  0  0  0  0
    7.4754  -18.6196   19.3050 O   0  0  0  0  0  0  0  0  0  0  0  0
    8.4148  -15.2352   22.6161 C   0  0  0  0  0  0  0  0  0  0  0  0
    9.6795  -15.0914   22.7091 O   0  0  0  0  0  0  0  0  0  0  0  0
    6.0838  -16.8284   19.4582 O   0  0  0  0  0  0  0  0  0  0  0  0
    5.9369  -11.7231   26.0181 C   0  0  0  0  0  0  0  0  0  0  0  0
    6.9559  -12.4019   25.1066 C   0  0  0  0  0  0  0  0  0  0  0  0
    7.4587  -13.6062   25.8188 C   0  0  2  0  0  0  0  0  0  0  0  0
    8.2105  -13.1336   27.0710 C   0  0  0  0  0  0  0  0  0  0  0  0
    8.3402  -14.5219   25.0288 C   0  0  2  0  0  0  0  0  0  0  0  0
    7.6822  -14.9388   23.7985 N   0  0  0  0  0  0  0  0  0  0  0  0
    8.8011  -15.6938   25.8083 C   0  0  0  0  0  0  0  0  0  0  0  0
    7.9144  -16.4030   26.3892 O   0  0  0  0  0  0  0  0  0  0  0  0
   12.8882  -20.0106   25.8929 N   0  0  0  0  0  0  0  0  0  0  0  0
   12.5671  -18.8351   26.6689 C   0  0  0  0  0  0  0  0  0  0  0  0
   12.8644  -18.9053   27.8770 O   0  0  0  0  0  0  0  0  0  0  0  0
   11.9390  -17.6704   26.0409 C   0  0  0  0  0  0  0  0  0  0  0  0
   10.5787  -17.2988   26.5487 C   0  0  2  0  0  0  0  0  0  0  0  0
   10.1540  -16.0449   25.9354 N   0  0  0  0  0  0  0  0  0  0  0  0
   10.5265  -17.2133   28.0170 C   0  0  0  0  0  0  0  0  0  0  0  0
   10.6420  -16.1687   28.6730 O   0  0  0  0  0  0  0  0  0  0  0  0
   10.3340  -18.3706   28.8073 O   0  0  0  0  0  0  0  0  0  0  0  0
  2  3  1  0
  2  1  1  6
  3  4  1  0
  4  5  2  0
  4  8  1  0
  6  2  1  0
  7  6  2  0
  9 10  1  0
 11 10  1  0
 11 13  1  0
 11 12  1  1
 13 15  1  0
 13 14  1  6
 14  6  1  0
 15 16  2  0
 18 17  1  0
 18 19  2  0
 21 20  1  1
 20 18  1  0
 22 21  1  0
 22 15  1  0
 23 21  1  0
 24 23  2  0
 25 23  1  0
M  END
$$$$
