DIN.pdb
     RDKit          3D

 25 24  0  0  1  0  0  0  0  0999 V2000
    8.6117  -15.6642   20.7245 N   0  0  0  0  0  0  0  0  0  0  0  0
    7.9299  -16.0476   21.9482 C   0  0  1  0  0  0  0  0  0  0  0  0
    7.9590  -17.5481   22.1440 C   0  0  0  0  0  0  0  0  0  0  0  0
    7.4426  -18.2625   20.9488 C   0  0  0  0  0  0  0  0  0  0  0  0
    6.2681  -18.1591   20.5137 O   0  0  0  0  0  0  0  0  0  0  0  0
    8.5594  -15.3267   23.0660 C   0  0  0  0  0  0  0  0  0  0  0  0
    9.8196  -15.1364   23.1336 O   0  0  0  0  0  0  0  0  0  0  0  0
    8.3245  -19.0982   20.2740 O   0  0  0  0  0  0  0  0  0  0  0  0
    5.6836  -11.6636   26.1806 C   0  0  0  0  0  0  0  0  0  0  0  0
    6.7770  -12.2385   25.2842 C   0  0  0  0  0  0  0  0  0  0  0  0
    7.4583  -13.3170   26.0477 C   0  0  2  0  0  0  0  0  0  0  0  0
    8.1600  -12.6717   27.2509 C   0  0  0  0  0  0  0  0  0  0  0  0
    8.4447  -14.1452   25.2856 C   0  0  2  0  0  0  0  0  0  0  0  0
    7.8066  -14.7925   24.1480 N   0  0  0  0  0  0  0  0  0  0  0  0
    9.1459  -15.1348   26.1355 C   0  0  0  0  0  0  0  0  0  0  0  0
    9.9046  -14.6888   27.0586 O   0  0  0  0  0  0  0  0  0  0  0  0
   10.2027  -21.1333   26.6465 N   0  0  0  0  0  0  0  0  0  0  0  0
    9.7942  -19.9351   27.3424 C   0  0  0  0  0  0  0  0  0  0  0  0
   10.0505  -19.9221   28.5618 O   0  0  0  0  0  0  0  0  0  0  0  0
    9.1308  -18.8420   26.6278 C   0  0  0  0  0  0  0  0  0  0  0  0
    9.7357  -17.4808   26.7935 C   0  0  2  0  0  0  0  0  0  0  0  0
    9.0148  -16.5215   25.9634 N   0  0  0  0  0  0  0  0  0  0  0  0
   11.1764  -17.4613   26.4938 C   0  0  0  0  0  0  0  0  0  0  0  0
   12.0795  -17.4796   27.3417 O   0  0  0  0  0  0  0  0  0  0  0  0
   11.6417  -17.4171   25.1587 O   0  0  0  0  0  0  0  0  0  0  0  0
  2  3  1  0
  2  1  1  6
  3  4  1  0
  4  5  2  0
  4  8  1  0
  6  2  1  0
  7  6  2  0
  9 10  1  0
 11 10  1  0
 11 13  1  0
 11 12  1  1
 13 15  1  0
 13 14  1  6
 14  6  1  0
 15 16  2  0
 18 17  1  0
 18 19  2  0
 21 20  1  6
 20 18  1  0
 22 21  1  0
 22 15  1  0
 23 21  1  0
 24 23  2  0
 25 23  1  0
M  END
$$$$
