DIN.pdb
     RDKit          3D

 25 24  0  0  1  0  0  0  0  0999 V2000
    8.3531  -15.4163   20.2944 N   0  0  0  0  0  0  0  0  0  0  0  0
    7.5349  -15.7741   21.4398 C   0  0  1  0  0  0  0  0  0  0  0  0
    7.2174  -17.2538   21.4448 C   0  0  0  0  0  0  0  0  0  0  0  0
    6.6655  -17.6960   20.1388 C   0  0  0  0  0  0  0  0  0  0  0  0
    7.0372  -17.2492   19.0245 O   0  0  0  0  0  0  0  0  0  0  0  0
    8.2453  -15.3517   22.6574 C   0  0  0  0  0  0  0  0  0  0  0  0
    9.5182  -15.3727   22.7482 O   0  0  0  0  0  0  0  0  0  0  0  0
    5.6730  -18.6686   20.1615 O   0  0  0  0  0  0  0  0  0  0  0  0
    5.9745  -11.6209   25.9864 C   0  0  0  0  0  0  0  0  0  0  0  0
    7.0384  -12.2948   25.1241 C   0  0  0  0  0  0  0  0  0  0  0  0
    7.4662  -13.5318   25.8291 C   0  0  2  0  0  0  0  0  0  0  0  0
    8.2645  -13.1137   27.0719 C   0  0  0  0  0  0  0  0  0  0  0  0
    8.2726  -14.5048   25.0275 C   0  0  2  0  0  0  0  0  0  0  0  0
    7.5621  -14.8911   23.8166 N   0  0  0  0  0  0  0  0  0  0  0  0
    8.6809  -15.6960   25.8069 C   0  0  0  0  0  0  0  0  0  0  0  0
    7.7585  -16.4051   26.3293 O   0  0  0  0  0  0  0  0  0  0  0  0
   11.5024  -19.7370   27.7158 N   0  0  0  0  0  0  0  0  0  0  0  0
   12.2443  -19.0186   26.7057 C   0  0  0  0  0  0  0  0  0  0  0  0
   13.3466  -19.5179   26.4082 O   0  0  0  0  0  0  0  0  0  0  0  0
   11.7027  -17.7982   26.1032 C   0  0  0  0  0  0  0  0  0  0  0  0
   10.4014  -17.3067   26.6613 C   0  0  2  0  0  0  0  0  0  0  0  0
   10.0218  -16.0654   25.9949 N   0  0  0  0  0  0  0  0  0  0  0  0
   10.4423  -17.1313   28.1219 C   0  0  0  0  0  0  0  0  0  0  0  0
   10.6710  -16.0615   28.7036 O   0  0  0  0  0  0  0  0  0  0  0  0
   10.2141  -18.2223   28.9929 O   0  0  0  0  0  0  0  0  0  0  0  0
  2  3  1  0
  2  1  1  6
  3  4  1  0
  4  5  2  0
  4  8  1  0
  6  2  1  0
  7  6  2  0
  9 10  1  0
 11 10  1  0
 11 13  1  0
 11 12  1  1
 13 15  1  0
 13 14  1  6
 14  6  1  0
 15 16  2  0
 18 17  1  0
 18 19  2  0
 21 20  1  6
 20 18  1  0
 22 21  1  0
 22 15  1  0
 23 21  1  0
 24 23  2  0
 25 23  1  0
M  END
$$$$
