DIN.pdb
     RDKit          3D

 25 24  0  0  1  0  0  0  0  0999 V2000
    7.0567  -15.8300   21.0650 N   0  0  0  0  0  0  0  0  0  0  0  0
    8.4509  -16.1937   21.2475 C   0  0  1  0  0  0  0  0  0  0  0  0
    9.2679  -15.8650   20.0166 C   0  0  0  0  0  0  0  0  0  0  0  0
    8.7964  -16.6264   18.8318 C   0  0  0  0  0  0  0  0  0  0  0  0
    7.6413  -17.1069   18.7118 O   0  0  0  0  0  0  0  0  0  0  0  0
    8.9487  -15.5037   22.4482 C   0  0  0  0  0  0  0  0  0  0  0  0
   10.1936  -15.3317   22.6710 O   0  0  0  0  0  0  0  0  0  0  0  0
    9.7000  -16.8142   17.7926 O   0  0  0  0  0  0  0  0  0  0  0  0
    7.0780  -11.7308   26.8913 C   0  0  0  0  0  0  0  0  0  0  0  0
    8.1302  -12.7724   26.5203 C   0  0  0  0  0  0  0  0  0  0  0  0
    7.6461  -13.4830   25.3075 C   0  0  2  0  0  0  0  0  0  0  0  0
    6.3051  -14.1454   25.6531 C   0  0  0  0  0  0  0  0  0  0  0  0
    8.5698  -14.5086   24.7289 C   0  0  2  0  0  0  0  0  0  0  0  0
    8.0767  -14.9814   23.4429 N   0  0  0  0  0  0  0  0  0  0  0  0
    8.8244  -15.6406   25.6492 C   0  0  0  0  0  0  0  0  0  0  0  0
    7.9218  -16.5362   25.7483 O   0  0  0  0  0  0  0  0  0  0  0  0
   11.4620  -19.3703   28.2622 N   0  0  0  0  0  0  0  0  0  0  0  0
   11.9652  -18.9167   26.9862 C   0  0  0  0  0  0  0  0  0  0  0  0
   12.8531  -19.6340   26.4861 O   0  0  0  0  0  0  0  0  0  0  0  0
   11.4418  -17.6986   26.3636 C   0  0  0  0  0  0  0  0  0  0  0  0
   10.3503  -16.9917   27.1088 C   0  0  2  0  0  0  0  0  0  0  0  0
    9.9985  -15.7609   26.4087 N   0  0  0  0  0  0  0  0  0  0  0  0
   10.7066  -16.7190   28.5104 C   0  0  0  0  0  0  0  0  0  0  0  0
   11.0100  -15.6066   28.9636 O   0  0  0  0  0  0  0  0  0  0  0  0
   10.7275  -17.7568   29.4714 O   0  0  0  0  0  0  0  0  0  0  0  0
  2  3  1  0
  2  1  1  6
  3  4  1  0
  4  5  2  0
  4  8  1  0
  6  2  1  0
  7  6  2  0
  9 10  1  0
 11 10  1  0
 11 13  1  0
 11 12  1  1
 13 15  1  0
 13 14  1  6
 14  6  1  0
 15 16  2  0
 18 17  1  0
 18 19  2  0
 21 20  1  6
 20 18  1  0
 22 21  1  0
 22 15  1  0
 23 21  1  0
 24 23  2  0
 25 23  1  0
M  END
$$$$
