DIN.pdb
     RDKit          3D

 25 24  0  0  1  0  0  0  0  0999 V2000
    7.8939  -13.8022   19.6843 N   0  0  0  0  0  0  0  0  0  0  0  0
    7.1980  -14.5554   20.7128 C   0  0  1  0  0  0  0  0  0  0  0  0
    7.0424  -16.0078   20.3169 C   0  0  0  0  0  0  0  0  0  0  0  0
    6.9443  -16.1621   18.8430 C   0  0  0  0  0  0  0  0  0  0  0  0
    7.4408  -17.1182   18.1958 O   0  0  0  0  0  0  0  0  0  0  0  0
    7.9394  -14.3972   21.9741 C   0  0  0  0  0  0  0  0  0  0  0  0
    9.2147  -14.4084   22.0235 O   0  0  0  0  0  0  0  0  0  0  0  0
    6.2558  -15.1787   18.1426 O   0  0  0  0  0  0  0  0  0  0  0  0
    5.7442  -11.6024   26.1400 C   0  0  0  0  0  0  0  0  0  0  0  0
    6.8009  -12.0376   25.1281 C   0  0  0  0  0  0  0  0  0  0  0  0
    7.2516  -13.4011   25.5125 C   0  0  2  0  0  0  0  0  0  0  0  0
    8.0980  -13.2759   26.7871 C   0  0  0  0  0  0  0  0  0  0  0  0
    8.0239  -14.1586   24.4784 C   0  0  2  0  0  0  0  0  0  0  0  0
    7.2857  -14.2212   23.2248 N   0  0  0  0  0  0  0  0  0  0  0  0
    8.4195  -15.5123   24.9303 C   0  0  0  0  0  0  0  0  0  0  0  0
    7.5132  -16.4086   24.9755 O   0  0  0  0  0  0  0  0  0  0  0  0
   12.9282  -19.2495   25.1299 N   0  0  0  0  0  0  0  0  0  0  0  0
   11.5374  -19.0956   24.7711 C   0  0  0  0  0  0  0  0  0  0  0  0
   10.8961  -20.1606   24.6835 O   0  0  0  0  0  0  0  0  0  0  0  0
   10.9657  -17.7676   24.5366 C   0  0  0  0  0  0  0  0  0  0  0  0
   10.1261  -17.2045   25.6432 C   0  0  2  0  0  0  0  0  0  0  0  0
    9.7302  -15.8402   25.3102 N   0  0  0  0  0  0  0  0  0  0  0  0
   10.8032  -17.2546   26.9489 C   0  0  0  0  0  0  0  0  0  0  0  0
   11.4056  -16.3080   27.4744 O   0  0  0  0  0  0  0  0  0  0  0  0
   10.8102  -18.4402   27.7203 O   0  0  0  0  0  0  0  0  0  0  0  0
  2  3  1  0
  2  1  1  6
  3  4  1  0
  4  5  2  0
  4  8  1  0
  6  2  1  0
  7  6  2  0
  9 10  1  0
 11 10  1  0
 11 13  1  0
 11 12  1  1
 13 15  1  0
 13 14  1  6
 14  6  1  0
 15 16  2  0
 18 17  1  0
 18 19  2  0
 21 20  1  6
 20 18  1  0
 22 21  1  0
 22 15  1  0
 23 21  1  0
 24 23  2  0
 25 23  1  0
M  END
$$$$
