DIN.pdb
     RDKit          3D

 25 24  0  0  1  0  0  0  0  0999 V2000
   33.3289  -11.1295   43.8023 N   0  0  0  0  0  0  0  0  0  0  0  0
   34.3541  -10.9267   42.7938 C   0  0  1  0  0  0  0  0  0  0  0  0
   33.7502  -10.4697   41.4835 C   0  0  0  0  0  0  0  0  0  0  0  0
   32.4664  -11.1629   41.2054 C   0  0  0  0  0  0  0  0  0  0  0  0
   31.3887  -10.9271   41.8073 O   0  0  0  0  0  0  0  0  0  0  0  0
   35.3312   -9.9625   43.3242 C   0  0  0  0  0  0  0  0  0  0  0  0
   35.9867  -10.1745   44.3986 O   0  0  0  0  0  0  0  0  0  0  0  0
   32.4679  -12.1347   40.2119 O   0  0  0  0  0  0  0  0  0  0  0  0
   36.3925   -4.3485   41.9688 C   0  0  0  0  0  0  0  0  0  0  0  0
   36.0496   -5.6346   42.7160 C   0  0  0  0  0  0  0  0  0  0  0  0
   36.8741   -6.7241   42.1300 C   0  0  2  0  0  0  0  0  0  0  0  0
   36.3929   -6.9575   40.6911 C   0  0  0  0  0  0  0  0  0  0  0  0
   36.8726   -8.0254   42.8692 C   0  0  2  0  0  0  0  0  0  0  0  0
   35.6119   -8.7281   42.6761 N   0  0  0  0  0  0  0  0  0  0  0  0
   37.1796   -7.8711   44.3097 C   0  0  0  0  0  0  0  0  0  0  0  0
   36.1976   -7.7344   45.1120 O   0  0  0  0  0  0  0  0  0  0  0  0
   40.5125   -5.3831   48.1360 N   0  0  0  0  0  0  0  0  0  0  0  0
   40.8458   -6.6077   47.4460 C   0  0  0  0  0  0  0  0  0  0  0  0
   41.6335   -7.3568   48.0554 O   0  0  0  0  0  0  0  0  0  0  0  0
   40.2770   -6.9057   46.1296 C   0  0  0  0  0  0  0  0  0  0  0  0
   38.8210   -7.2602   46.1034 C   0  0  2  0  0  0  0  0  0  0  0  0
   38.4881   -7.8636   44.8173 N   0  0  0  0  0  0  0  0  0  0  0  0
   37.9524   -6.1064   46.3864 C   0  0  0  0  0  0  0  0  0  0  0  0
   36.7474   -6.1750   46.6660 O   0  0  0  0  0  0  0  0  0  0  0  0
   38.4612   -4.7869   46.3541 O   0  0  0  0  0  0  0  0  0  0  0  0
  2  3  1  0
  2  1  1  1
  3  4  1  0
  4  5  2  0
  4  8  1  0
  6  2  1  0
  7  6  2  0
  9 10  1  0
 11 10  1  0
 11 13  1  0
 11 12  1  6
 13 15  1  0
 13 14  1  1
 14  6  1  0
 15 16  2  0
 18 17  1  0
 18 19  2  0
 21 20  1  6
 20 18  1  0
 22 21  1  0
 22 15  1  0
 23 21  1  0
 24 23  2  0
 25 23  1  0
M  END
$$$$
