DIN.pdb
     RDKit          3D

 25 24  0  0  1  0  0  0  0  0999 V2000
    9.5705  -15.5967   20.2130 N   0  0  0  0  0  0  0  0  0  0  0  0
    8.6015  -16.0227   21.2076 C   0  0  1  0  0  0  0  0  0  0  0  0
    8.4511  -17.5286   21.2153 C   0  0  0  0  0  0  0  0  0  0  0  0
    7.8130  -18.0178   19.9666 C   0  0  0  0  0  0  0  0  0  0  0  0
    8.4436  -18.3508   18.9318 O   0  0  0  0  0  0  0  0  0  0  0  0
    9.0286  -15.4979   22.5144 C   0  0  0  0  0  0  0  0  0  0  0  0
   10.2490  -15.5042   22.8879 O   0  0  0  0  0  0  0  0  0  0  0  0
    6.4263  -18.1097   19.9520 O   0  0  0  0  0  0  0  0  0  0  0  0
    6.9056  -11.9586   27.0702 C   0  0  0  0  0  0  0  0  0  0  0  0
    7.9068  -13.0611   26.7357 C   0  0  0  0  0  0  0  0  0  0  0  0
    7.5695  -13.5739   25.3816 C   0  0  2  0  0  0  0  0  0  0  0  0
    6.1606  -14.1799   25.4446 C   0  0  0  0  0  0  0  0  0  0  0  0
    8.5145  -14.5784   24.8003 C   0  0  2  0  0  0  0  0  0  0  0  0
    8.1106  -14.9477   23.4509 N   0  0  0  0  0  0  0  0  0  0  0  0
    8.6777  -15.7780   25.6532 C   0  0  0  0  0  0  0  0  0  0  0  0
    7.6349  -16.4648   25.9130 O   0  0  0  0  0  0  0  0  0  0  0  0
   12.3450  -17.9594   24.2093 N   0  0  0  0  0  0  0  0  0  0  0  0
   11.2721  -18.4562   25.0394 C   0  0  0  0  0  0  0  0  0  0  0  0
   10.4067  -19.1211   24.4378 O   0  0  0  0  0  0  0  0  0  0  0  0
   11.2438  -18.1749   26.4766 C   0  0  0  0  0  0  0  0  0  0  0  0
   10.0649  -17.3949   26.9745 C   0  0  2  0  0  0  0  0  0  0  0  0
    9.9142  -16.1785   26.1829 N   0  0  0  0  0  0  0  0  0  0  0  0
   10.1578  -17.0832   28.4098 C   0  0  0  0  0  0  0  0  0  0  0  0
   10.2236  -17.9240   29.3173 O   0  0  0  0  0  0  0  0  0  0  0  0
   10.1774  -15.7437   28.8641 O   0  0  0  0  0  0  0  0  0  0  0  0
  2  3  1  0
  2  1  1  6
  3  4  1  0
  4  5  2  0
  4  8  1  0
  6  2  1  0
  7  6  2  0
  9 10  1  0
 11 10  1  0
 11 13  1  0
 11 12  1  1
 13 15  1  0
 13 14  1  6
 14  6  1  0
 15 16  2  0
 18 17  1  0
 18 19  2  0
 21 20  1  6
 20 18  1  0
 22 21  1  0
 22 15  1  0
 23 21  1  0
 24 23  2  0
 25 23  1  0
M  END
$$$$
