DIN.pdb
     RDKit          3D

 25 24  0  0  1  0  0  0  0  0999 V2000
    8.7996  -17.4685   16.8123 N   0  0  0  0  0  0  0  0  0  0  0  0
   10.1887  -17.0558   16.9099 C   0  0  1  0  0  0  0  0  0  0  0  0
   10.6403  -16.3515   15.6488 C   0  0  0  0  0  0  0  0  0  0  0  0
   10.5443  -17.2424   14.4643 C   0  0  0  0  0  0  0  0  0  0  0  0
    9.4881  -17.4460   13.8144 O   0  0  0  0  0  0  0  0  0  0  0  0
   10.3295  -16.2072   18.1039 C   0  0  0  0  0  0  0  0  0  0  0  0
   11.4518  -15.7205   18.4682 O   0  0  0  0  0  0  0  0  0  0  0  0
   11.7049  -17.8887   14.0558 O   0  0  0  0  0  0  0  0  0  0  0  0
    6.8007  -12.3709   19.7636 C   0  0  0  0  0  0  0  0  0  0  0  0
    8.1115  -13.0874   19.4505 C   0  0  0  0  0  0  0  0  0  0  0  0
    8.2473  -14.2104   20.4152 C   0  0  2  0  0  0  0  0  0  0  0  0
    8.3569  -13.6109   21.8241 C   0  0  0  0  0  0  0  0  0  0  0  0
    9.3931  -15.1452   20.1850 C   0  0  2  0  0  0  0  0  0  0  0  0
    9.2247  -15.8713   18.9340 N   0  0  0  0  0  0  0  0  0  0  0  0
    9.6135  -16.0771   21.3147 C   0  0  0  0  0  0  0  0  0  0  0  0
    8.7223  -16.9631   21.5324 O   0  0  0  0  0  0  0  0  0  0  0  0
   12.2049  -19.3078   21.6480 N   0  0  0  0  0  0  0  0  0  0  0  0
   12.8747  -18.1121   22.1047 C   0  0  0  0  0  0  0  0  0  0  0  0
   13.8677  -17.7758   21.4310 O   0  0  0  0  0  0  0  0  0  0  0  0
   12.3884  -17.3813   23.2772 C   0  0  0  0  0  0  0  0  0  0  0  0
   10.9509  -16.9583   23.2432 C   0  0  2  0  0  0  0  0  0  0  0  0
   10.7436  -16.0202   22.1451 N   0  0  0  0  0  0  0  0  0  0  0  0
   10.4995  -16.3843   24.5210 C   0  0  0  0  0  0  0  0  0  0  0  0
   10.2224  -15.1910   24.7061 O   0  0  0  0  0  0  0  0  0  0  0  0
   10.3481  -17.1950   25.6702 O   0  0  0  0  0  0  0  0  0  0  0  0
  2  3  1  0
  2  1  1  6
  3  4  1  0
  4  5  2  0
  4  8  1  0
  6  2  1  0
  7  6  2  0
  9 10  1  0
 11 10  1  0
 11 13  1  0
 11 12  1  1
 13 15  1  0
 13 14  1  6
 14  6  1  0
 15 16  2  0
 18 17  1  0
 18 19  2  0
 21 20  1  1
 20 18  1  0
 22 21  1  0
 22 15  1  0
 23 21  1  0
 24 23  2  0
 25 23  1  0
M  END
$$$$
