DIN.pdb
     RDKit          3D

 25 24  0  0  1  0  0  0  0  0999 V2000
   10.0513  -16.0521   13.7284 N   0  0  0  0  0  0  0  0  0  0  0  0
    9.5504  -16.6013   14.9762 C   0  0  1  0  0  0  0  0  0  0  0  0
    9.9005  -18.0677   15.1085 C   0  0  0  0  0  0  0  0  0  0  0  0
    9.0540  -18.9106   14.2261 C   0  0  0  0  0  0  0  0  0  0  0  0
    8.8281  -20.1321   14.4167 O   0  0  0  0  0  0  0  0  0  0  0  0
   10.0956  -15.7956   16.0804 C   0  0  0  0  0  0  0  0  0  0  0  0
   11.2992  -15.3710   16.0874 O   0  0  0  0  0  0  0  0  0  0  0  0
    8.4781  -18.2984   13.1192 O   0  0  0  0  0  0  0  0  0  0  0  0
    6.5800  -12.9633   19.3845 C   0  0  0  0  0  0  0  0  0  0  0  0
    7.7062  -13.2501   18.3950 C   0  0  0  0  0  0  0  0  0  0  0  0
    8.7449  -14.0322   19.1158 C   0  0  2  0  0  0  0  0  0  0  0  0
    9.3413  -13.1311   20.2061 C   0  0  0  0  0  0  0  0  0  0  0  0
    9.8509  -14.5931   18.2780 C   0  0  2  0  0  0  0  0  0  0  0  0
    9.3187  -15.4350   17.2158 N   0  0  0  0  0  0  0  0  0  0  0  0
   10.8660  -15.3203   19.0742 C   0  0  0  0  0  0  0  0  0  0  0  0
   10.5988  -16.5185   19.4197 O   0  0  0  0  0  0  0  0  0  0  0  0
   16.5307  -16.1237   20.3901 N   0  0  0  0  0  0  0  0  0  0  0  0
   15.4713  -15.3507   20.9960 C   0  0  0  0  0  0  0  0  0  0  0  0
   15.5579  -15.2183   22.2321 O   0  0  0  0  0  0  0  0  0  0  0  0
   14.3954  -14.7838   20.1796 C   0  0  0  0  0  0  0  0  0  0  0  0
   13.0688  -15.4766   20.2607 C   0  0  2  0  0  0  0  0  0  0  0  0
   12.0881  -14.7493   19.4618 N   0  0  0  0  0  0  0  0  0  0  0  0
   12.6018  -15.6447   21.6461 C   0  0  0  0  0  0  0  0  0  0  0  0
   11.9314  -14.8150   22.2762 O   0  0  0  0  0  0  0  0  0  0  0  0
   12.9038  -16.8163   22.3791 O   0  0  0  0  0  0  0  0  0  0  0  0
  2  3  1  0
  2  1  1  6
  3  4  1  0
  4  5  2  0
  4  8  1  0
  6  2  1  0
  7  6  2  0
  9 10  1  0
 11 10  1  0
 11 13  1  0
 11 12  1  1
 13 15  1  0
 13 14  1  6
 14  6  1  0
 15 16  2  0
 18 17  1  0
 18 19  2  0
 21 20  1  1
 20 18  1  0
 22 21  1  0
 22 15  1  0
 23 21  1  0
 24 23  2  0
 25 23  1  0
M  END
$$$$
