DIN.pdb
     RDKit          3D

 25 24  0  0  1  0  0  0  0  0999 V2000
    9.5216  -18.0463   16.5875 N   0  0  0  0  0  0  0  0  0  0  0  0
    8.4243  -17.7994   17.5065 C   0  0  1  0  0  0  0  0  0  0  0  0
    7.7751  -19.0945   17.9443 C   0  0  0  0  0  0  0  0  0  0  0  0
    8.0581  -20.1951   16.9880 C   0  0  0  0  0  0  0  0  0  0  0  0
    8.7448  -20.0671   15.9432 O   0  0  0  0  0  0  0  0  0  0  0  0
    8.9472  -17.0251   18.6435 C   0  0  0  0  0  0  0  0  0  0  0  0
   10.1661  -17.0952   19.0154 O   0  0  0  0  0  0  0  0  0  0  0  0
    7.5237  -21.4451   17.2769 O   0  0  0  0  0  0  0  0  0  0  0  0
    6.7538  -12.0949   20.1709 C   0  0  0  0  0  0  0  0  0  0  0  0
    7.7967  -13.1330   19.7654 C   0  0  0  0  0  0  0  0  0  0  0  0
    7.8043  -14.1896   20.8113 C   0  0  2  0  0  0  0  0  0  0  0  0
    8.2521  -13.5440   22.1301 C   0  0  0  0  0  0  0  0  0  0  0  0
    8.6553  -15.3889   20.5337 C   0  0  2  0  0  0  0  0  0  0  0  0
    8.1300  -16.1457   19.4060 N   0  0  0  0  0  0  0  0  0  0  0  0
    8.8328  -16.2575   21.7200 C   0  0  0  0  0  0  0  0  0  0  0  0
    7.8083  -16.8802   22.1551 O   0  0  0  0  0  0  0  0  0  0  0  0
   10.8622  -19.6396   25.1324 N   0  0  0  0  0  0  0  0  0  0  0  0
   11.5001  -19.5719   23.8380 C   0  0  0  0  0  0  0  0  0  0  0  0
   12.3066  -20.4918   23.6006 O   0  0  0  0  0  0  0  0  0  0  0  0
   11.1918  -18.4850   22.9058 C   0  0  0  0  0  0  0  0  0  0  0  0
   10.2689  -17.4194   23.4147 C   0  0  2  0  0  0  0  0  0  0  0  0
   10.0631  -16.4147   22.3768 N   0  0  0  0  0  0  0  0  0  0  0  0
   10.7504  -16.8012   24.6605 C   0  0  0  0  0  0  0  0  0  0  0  0
   10.9670  -17.4087   25.7183 O   0  0  0  0  0  0  0  0  0  0  0  0
   11.0064  -15.4119   24.7322 O   0  0  0  0  0  0  0  0  0  0  0  0
  2  3  1  0
  2  1  1  6
  3  4  1  0
  4  5  2  0
  4  8  1  0
  6  2  1  0
  7  6  2  0
  9 10  1  0
 11 10  1  0
 11 13  1  0
 11 12  1  1
 13 15  1  0
 13 14  1  6
 14  6  1  0
 15 16  2  0
 18 17  1  0
 18 19  2  0
 21 20  1  6
 20 18  1  0
 22 21  1  0
 22 15  1  0
 23 21  1  0
 24 23  2  0
 25 23  1  0
M  END
$$$$
