VCQ.pdb
     RDKit          3D

 23 22  0  0  1  0  0  0  0  0999 V2000
    9.0959  -19.9511   18.9459 C   0  0  0  0  0  0  0  0  0  0  0  0
    7.7356  -19.4196   18.5991 C   0  0  2  0  0  0  0  0  0  0  0  0
    7.1448  -20.2894   17.5165 C   0  0  0  0  0  0  0  0  0  0  0  0
    7.8222  -17.9710   18.0974 C   0  0  2  0  0  0  0  0  0  0  0  0
    8.7257  -17.9828   16.9726 N   0  0  0  0  0  0  0  0  0  0  0  0
    8.3441  -17.0782   19.1385 C   0  0  0  0  0  0  0  0  0  0  0  0
    9.6102  -16.9061   19.1707 O   0  0  0  0  0  0  0  0  0  0  0  0
    7.5138  -16.4164   20.0857 N   0  0  0  0  0  0  0  0  0  0  0  0
    8.1693  -15.5135   21.0178 C   0  0  1  0  0  0  0  0  0  0  0  0
    7.0210  -14.7756   21.6976 C   0  0  0  0  0  0  0  0  0  0  0  0
    7.7092  -13.5466   22.8167 S   0  0  0  0  0  0  0  0  0  0  0  0
    8.9231  -16.2465   22.0426 C   0  0  0  0  0  0  0  0  0  0  0  0
    8.3753  -17.2415   22.6428 O   0  0  0  0  0  0  0  0  0  0  0  0
   14.3636  -18.5370   23.3531 N   0  0  0  0  0  0  0  0  0  0  0  0
   14.0162  -18.0265   22.0877 C   0  0  0  0  0  0  0  0  0  0  0  0
   14.5564  -18.3998   21.0234 O   0  0  0  0  0  0  0  0  0  0  0  0
   12.9464  -16.9816   21.9917 C   0  0  0  0  0  0  0  0  0  0  0  0
   12.4218  -16.6177   23.3486 C   0  0  0  0  0  0  0  0  0  0  0  0
   10.9594  -16.7951   23.4384 C   0  0  2  0  0  0  0  0  0  0  0  0
   10.2371  -15.9796   22.4644 N   0  0  0  0  0  0  0  0  0  0  0  0
   10.3812  -16.5244   24.7513 C   0  0  0  0  0  0  0  0  0  0  0  0
   10.3918  -17.4412   25.7746 O   0  0  0  0  0  0  0  0  0  0  0  0
    9.8363  -15.4186   25.0022 O   0  0  0  0  0  0  0  0  0  0  0  0
  2  1  1  6
  2  4  1  0
  3  2  1  0
  4  5  1  6
  6  4  1  0
  7  6  2  0
  8  6  1  0
  9  8  1  0
  9 12  1  0
  9 10  1  1
 11 10  1  0
 12 13  2  0
 12 20  1  0
 14 15  1  0
 15 16  2  0
 17 15  1  0
 17 18  1  0
 19 18  1  1
 19 21  1  0
 20 19  1  0
 21 22  1  0
 23 21  2  0
M  END
$$$$
