VCQ.pdb
     RDKit          3D

 23 22  0  0  1  0  0  0  0  0999 V2000
    7.8318  -12.7508   27.1133 C   0  0  0  0  0  0  0  0  0  0  0  0
    7.1007  -12.1805   25.9329 C   0  0  2  0  0  0  0  0  0  0  0  0
    6.3013  -10.9876   26.3971 C   0  0  0  0  0  0  0  0  0  0  0  0
    6.1526  -13.2201   25.3179 C   0  0  2  0  0  0  0  0  0  0  0  0
    5.3479  -13.7291   26.4018 N   0  0  0  0  0  0  0  0  0  0  0  0
    6.9002  -14.3217   24.7006 C   0  0  0  0  0  0  0  0  0  0  0  0
    7.1208  -15.3493   25.4278 O   0  0  0  0  0  0  0  0  0  0  0  0
    7.3742  -14.2866   23.3594 N   0  0  0  0  0  0  0  0  0  0  0  0
    8.2231  -15.3871   22.9327 C   0  0  1  0  0  0  0  0  0  0  0  0
    8.4636  -15.1239   21.4501 C   0  0  0  0  0  0  0  0  0  0  0  0
    9.5349  -16.4160   20.8027 S   0  0  0  0  0  0  0  0  0  0  0  0
    9.5182  -15.3718   23.6242 C   0  0  0  0  0  0  0  0  0  0  0  0
   10.0015  -14.2570   24.0414 O   0  0  0  0  0  0  0  0  0  0  0  0
   11.4865  -16.8901   29.8540 N   0  0  0  0  0  0  0  0  0  0  0  0
   11.0795  -16.1247   28.7445 C   0  0  0  0  0  0  0  0  0  0  0  0
   10.2067  -15.2314   28.8081 O   0  0  0  0  0  0  0  0  0  0  0  0
   11.7135  -16.3794   27.4109 C   0  0  0  0  0  0  0  0  0  0  0  0
   10.6947  -16.3424   26.3111 C   0  0  0  0  0  0  0  0  0  0  0  0
   11.3121  -16.5254   24.9832 C   0  0  2  0  0  0  0  0  0  0  0  0
   10.3311  -16.4846   23.9009 N   0  0  0  0  0  0  0  0  0  0  0  0
   12.0896  -17.7506   24.8240 C   0  0  0  0  0  0  0  0  0  0  0  0
   13.3383  -17.9185   25.3722 O   0  0  0  0  0  0  0  0  0  0  0  0
   11.6387  -18.7211   24.1624 O   0  0  0  0  0  0  0  0  0  0  0  0
  2  1  1  1
  2  4  1  0
  3  2  1  0
  4  5  1  1
  6  4  1  0
  7  6  2  0
  8  6  1  0
  9  8  1  0
  9 12  1  0
  9 10  1  6
 11 10  1  0
 12 13  2  0
 12 20  1  0
 14 15  1  0
 15 16  2  0
 17 15  1  0
 17 18  1  0
 19 18  1  1
 19 21  1  0
 20 19  1  0
 21 22  1  0
 23 21  2  0
M  END
$$$$
