VCQ.pdb
     RDKit          3D

 23 22  0  0  1  0  0  0  0  0999 V2000
    7.1881  -13.1421   18.1085 C   0  0  0  0  0  0  0  0  0  0  0  0
    7.6803  -13.1393   19.5265 C   0  0  2  0  0  0  0  0  0  0  0  0
    9.1709  -12.9039   19.5141 C   0  0  0  0  0  0  0  0  0  0  0  0
    7.3824  -14.4789   20.2153 C   0  0  2  0  0  0  0  0  0  0  0  0
    5.9661  -14.7087   20.0639 N   0  0  0  0  0  0  0  0  0  0  0  0
    7.7234  -14.4305   21.6417 C   0  0  0  0  0  0  0  0  0  0  0  0
    7.2512  -13.4527   22.3160 O   0  0  0  0  0  0  0  0  0  0  0  0
    8.5377  -15.4061   22.2819 N   0  0  0  0  0  0  0  0  0  0  0  0
    8.7544  -15.2472   23.7107 C   0  0  1  0  0  0  0  0  0  0  0  0
    7.3927  -15.5377   24.3325 C   0  0  0  0  0  0  0  0  0  0  0  0
    7.5707  -15.5613   26.1225 S   0  0  0  0  0  0  0  0  0  0  0  0
    9.7193  -16.2275   24.2245 C   0  0  0  0  0  0  0  0  0  0  0  0
    9.4357  -17.4796   24.1814 O   0  0  0  0  0  0  0  0  0  0  0  0
   15.6897  -15.2805   23.2704 N   0  0  0  0  0  0  0  0  0  0  0  0
   15.7321  -16.6127   23.7241 C   0  0  0  0  0  0  0  0  0  0  0  0
   16.7787  -17.2964   23.7532 O   0  0  0  0  0  0  0  0  0  0  0  0
   14.4680  -17.2613   24.2004 C   0  0  0  0  0  0  0  0  0  0  0  0
   13.3405  -16.2741   24.2554 C   0  0  0  0  0  0  0  0  0  0  0  0
   12.0995  -16.8848   24.7705 C   0  0  2  0  0  0  0  0  0  0  0  0
   10.9788  -15.9471   24.7821 N   0  0  0  0  0  0  0  0  0  0  0  0
   12.2011  -17.4630   26.1071 C   0  0  0  0  0  0  0  0  0  0  0  0
   12.7613  -18.6945   26.3468 O   0  0  0  0  0  0  0  0  0  0  0  0
   11.7681  -16.8447   27.1136 O   0  0  0  0  0  0  0  0  0  0  0  0
  2  1  1  6
  2  4  1  0
  3  2  1  0
  4  5  1  1
  6  4  1  0
  7  6  2  0
  8  6  1  0
  9  8  1  0
  9 12  1  0
  9 10  1  1
 11 10  1  0
 12 13  2  0
 12 20  1  0
 14 15  1  0
 15 16  2  0
 17 15  1  0
 17 18  1  0
 19 18  1  1
 19 21  1  0
 20 19  1  0
 21 22  1  0
 23 21  2  0
M  END
$$$$
