VCQ.pdb
     RDKit          3D

 23 22  0  0  1  0  0  0  0  0999 V2000
    7.0862  -14.6897   18.6109 C   0  0  0  0  0  0  0  0  0  0  0  0
    7.6768  -14.7640   19.9888 C   0  0  2  0  0  0  0  0  0  0  0  0
    7.0110  -15.8952   20.7334 C   0  0  0  0  0  0  0  0  0  0  0  0
    7.4555  -13.4512   20.7540 C   0  0  2  0  0  0  0  0  0  0  0  0
    8.0589  -12.4095   19.9589 N   0  0  0  0  0  0  0  0  0  0  0  0
    8.0920  -13.4926   22.0756 C   0  0  0  0  0  0  0  0  0  0  0  0
    9.3698  -13.4895   22.1020 O   0  0  0  0  0  0  0  0  0  0  0  0
    7.3573  -13.5347   23.2934 N   0  0  0  0  0  0  0  0  0  0  0  0
    8.1252  -13.6672   24.5208 C   0  0  1  0  0  0  0  0  0  0  0  0
    7.1548  -13.2462   25.6192 C   0  0  0  0  0  0  0  0  0  0  0  0
    5.6523  -14.2234   25.4650 S   0  0  0  0  0  0  0  0  0  0  0  0
    8.5254  -15.0592   24.7618 C   0  0  0  0  0  0  0  0  0  0  0  0
    7.7759  -16.0159   24.3456 O   0  0  0  0  0  0  0  0  0  0  0  0
   13.5019  -17.4707   23.1233 N   0  0  0  0  0  0  0  0  0  0  0  0
   12.5951  -18.5458   23.1874 C   0  0  0  0  0  0  0  0  0  0  0  0
   12.7423  -19.6091   22.5458 O   0  0  0  0  0  0  0  0  0  0  0  0
   11.3856  -18.4283   24.0643 C   0  0  0  0  0  0  0  0  0  0  0  0
   11.3918  -17.1357   24.8246 C   0  0  0  0  0  0  0  0  0  0  0  0
   10.1041  -16.8906   25.5029 C   0  0  2  0  0  0  0  0  0  0  0  0
    9.6881  -15.4920   25.4225 N   0  0  0  0  0  0  0  0  0  0  0  0
   10.0593  -17.2810   26.9088 C   0  0  0  0  0  0  0  0  0  0  0  0
   10.1452  -16.3748   27.9380 O   0  0  0  0  0  0  0  0  0  0  0  0
    9.9404  -18.4887   27.2409 O   0  0  0  0  0  0  0  0  0  0  0  0
  2  1  1  6
  2  4  1  0
  3  2  1  0
  4  5  1  6
  6  4  1  0
  7  6  2  0
  8  6  1  0
  9  8  1  0
  9 12  1  0
  9 10  1  1
 11 10  1  0
 12 13  2  0
 12 20  1  0
 14 15  1  0
 15 16  2  0
 17 15  1  0
 17 18  1  0
 19 18  1  1
 19 21  1  0
 20 19  1  0
 21 22  1  0
 23 21  2  0
M  END
$$$$
