VCQ.pdb
     RDKit          3D

 23 22  0  0  1  0  0  0  0  0999 V2000
    8.3141  -12.8226   17.8178 C   0  0  0  0  0  0  0  0  0  0  0  0
    7.7845  -13.3199   19.1314 C   0  0  2  0  0  0  0  0  0  0  0  0
    8.4309  -12.5242   20.2389 C   0  0  0  0  0  0  0  0  0  0  0  0
    8.1010  -14.8100   19.3239 C   0  0  2  0  0  0  0  0  0  0  0  0
    7.4281  -15.5105   18.2571 N   0  0  0  0  0  0  0  0  0  0  0  0
    7.6087  -15.2950   20.6184 C   0  0  0  0  0  0  0  0  0  0  0  0
    6.3515  -15.5029   20.7174 O   0  0  0  0  0  0  0  0  0  0  0  0
    8.4577  -15.5351   21.7347 N   0  0  0  0  0  0  0  0  0  0  0  0
    7.8231  -16.0090   22.9540 C   0  0  1  0  0  0  0  0  0  0  0  0
    7.1993  -17.3433   22.5594 C   0  0  0  0  0  0  0  0  0  0  0  0
    6.4534  -18.0839   24.0194 S   0  0  0  0  0  0  0  0  0  0  0  0
    8.8062  -16.2511   24.0174 C   0  0  0  0  0  0  0  0  0  0  0  0
    9.8910  -16.8836   23.7465 O   0  0  0  0  0  0  0  0  0  0  0  0
    9.2890  -13.7014   29.8223 N   0  0  0  0  0  0  0  0  0  0  0  0
   10.3615  -14.6136   29.8141 C   0  0  0  0  0  0  0  0  0  0  0  0
   11.1256  -14.7858   30.7889 O   0  0  0  0  0  0  0  0  0  0  0  0
   10.6159  -15.4288   28.5827 C   0  0  0  0  0  0  0  0  0  0  0  0
    9.5699  -15.1737   27.5389 C   0  0  0  0  0  0  0  0  0  0  0  0
    9.7657  -16.0201   26.3458 C   0  0  2  0  0  0  0  0  0  0  0  0
    8.6993  -15.8520   25.3609 N   0  0  0  0  0  0  0  0  0  0  0  0
    9.8938  -17.4494   26.6135 C   0  0  0  0  0  0  0  0  0  0  0  0
   11.1084  -18.0838   26.7138 O   0  0  0  0  0  0  0  0  0  0  0  0
    8.8755  -18.1729   26.7635 O   0  0  0  0  0  0  0  0  0  0  0  0
  2  1  1  6
  2  4  1  0
  3  2  1  0
  4  5  1  6
  6  4  1  0
  7  6  2  0
  8  6  1  0
  9  8  1  0
  9 12  1  0
  9 10  1  6
 11 10  1  0
 12 13  2  0
 12 20  1  0
 14 15  1  0
 15 16  2  0
 17 15  1  0
 17 18  1  0
 19 18  1  1
 19 21  1  0
 20 19  1  0
 21 22  1  0
 23 21  2  0
M  END
$$$$
