VCQ.pdb
     RDKit          3D

 23 22  0  0  1  0  0  0  0  0999 V2000
    9.0485  -17.3883   22.1775 C   0  0  0  0  0  0  0  0  0  0  0  0
    7.6941  -16.8607   21.8030 C   0  0  2  0  0  0  0  0  0  0  0  0
    7.2293  -17.5782   20.5593 C   0  0  0  0  0  0  0  0  0  0  0  0
    7.7479  -15.3508   21.5293 C   0  0  2  0  0  0  0  0  0  0  0  0
    8.7344  -15.1593   20.4941 N   0  0  0  0  0  0  0  0  0  0  0  0
    8.1442  -14.6067   22.7304 C   0  0  0  0  0  0  0  0  0  0  0  0
    9.3951  -14.4060   22.8994 O   0  0  0  0  0  0  0  0  0  0  0  0
    7.2114  -14.1150   23.6857 N   0  0  0  0  0  0  0  0  0  0  0  0
    7.7590  -13.4860   24.8767 C   0  0  1  0  0  0  0  0  0  0  0  0
    6.5529  -12.8393   25.5492 C   0  0  0  0  0  0  0  0  0  0  0  0
    7.0958  -12.0577   27.0759 S   0  0  0  0  0  0  0  0  0  0  0  0
    8.3303  -14.4763   25.7981 C   0  0  0  0  0  0  0  0  0  0  0  0
    7.6197  -15.4789   26.1722 O   0  0  0  0  0  0  0  0  0  0  0  0
   14.0935  -16.4257   26.1969 N   0  0  0  0  0  0  0  0  0  0  0  0
   13.1017  -16.7070   25.2379 C   0  0  0  0  0  0  0  0  0  0  0  0
   13.3530  -17.1719   24.1045 O   0  0  0  0  0  0  0  0  0  0  0  0
   11.6658  -16.4421   25.5747 C   0  0  0  0  0  0  0  0  0  0  0  0
   11.5308  -15.8613   26.9507 C   0  0  0  0  0  0  0  0  0  0  0  0
   10.1367  -15.4833   27.2536 C   0  0  2  0  0  0  0  0  0  0  0  0
    9.6254  -14.4600   26.3442 N   0  0  0  0  0  0  0  0  0  0  0  0
    9.9031  -15.0148   28.6163 C   0  0  0  0  0  0  0  0  0  0  0  0
    9.5095  -13.7308   28.9067 O   0  0  0  0  0  0  0  0  0  0  0  0
   10.0587  -15.7836   29.5999 O   0  0  0  0  0  0  0  0  0  0  0  0
  2  1  1  6
  2  4  1  0
  3  2  1  0
  4  5  1  6
  6  4  1  0
  7  6  2  0
  8  6  1  0
  9  8  1  0
  9 12  1  0
  9 10  1  1
 11 10  1  0
 12 13  2  0
 12 20  1  0
 14 15  1  0
 15 16  2  0
 17 15  1  0
 17 18  1  0
 19 18  1  6
 19 21  1  0
 20 19  1  0
 21 22  1  0
 23 21  2  0
M  END
$$$$
