VCQ.pdb
     RDKit          3D

 23 22  0  0  1  0  0  0  0  0999 V2000
    7.3528  -18.2156   20.7462 C   0  0  0  0  0  0  0  0  0  0  0  0
    7.7941  -17.3762   21.9097 C   0  0  2  0  0  0  0  0  0  0  0  0
    7.1090  -17.8867   23.1538 C   0  0  0  0  0  0  0  0  0  0  0  0
    7.4261  -15.9010   21.6951 C   0  0  2  0  0  0  0  0  0  0  0  0
    8.1273  -15.4748   20.5084 N   0  0  0  0  0  0  0  0  0  0  0  0
    7.8436  -15.0777   22.8358 C   0  0  0  0  0  0  0  0  0  0  0  0
    9.0994  -14.8933   22.9865 O   0  0  0  0  0  0  0  0  0  0  0  0
    6.9257  -14.4943   23.7532 N   0  0  0  0  0  0  0  0  0  0  0  0
    7.4914  -13.7368   24.8578 C   0  0  1  0  0  0  0  0  0  0  0  0
    6.2851  -13.0809   25.5210 C   0  0  0  0  0  0  0  0  0  0  0  0
    6.8336  -12.2495   27.0191 S   0  0  0  0  0  0  0  0  0  0  0  0
    8.1423  -14.6140   25.8389 C   0  0  0  0  0  0  0  0  0  0  0  0
    7.5058  -15.6284   26.3038 O   0  0  0  0  0  0  0  0  0  0  0  0
   13.3643  -18.8301   26.8330 N   0  0  0  0  0  0  0  0  0  0  0  0
   12.0504  -18.4187   27.1277 C   0  0  0  0  0  0  0  0  0  0  0  0
   11.0440  -19.1320   26.9225 O   0  0  0  0  0  0  0  0  0  0  0  0
   11.8271  -17.0595   27.7179 C   0  0  0  0  0  0  0  0  0  0  0  0
   11.1924  -16.1347   26.7225 C   0  0  0  0  0  0  0  0  0  0  0  0
   10.0475  -15.4053   27.3016 C   0  0  2  0  0  0  0  0  0  0  0  0
    9.4426  -14.4722   26.3536 N   0  0  0  0  0  0  0  0  0  0  0  0
   10.3398  -14.6612   28.5231 C   0  0  0  0  0  0  0  0  0  0  0  0
   10.5027  -15.2676   29.7453 O   0  0  0  0  0  0  0  0  0  0  0  0
   10.4540  -13.4085   28.5053 O   0  0  0  0  0  0  0  0  0  0  0  0
  2  1  1  6
  2  4  1  0
  3  2  1  0
  4  5  1  6
  6  4  1  0
  7  6  2  0
  8  6  1  0
  9  8  1  0
  9 12  1  0
  9 10  1  1
 11 10  1  0
 12 13  2  0
 12 20  1  0
 14 15  1  0
 15 16  2  0
 17 15  1  0
 17 18  1  0
 19 18  1  6
 19 21  1  0
 20 19  1  0
 21 22  1  0
 23 21  2  0
M  END
$$$$
