VCQ.pdb
     RDKit          3D

 23 22  0  0  1  0  0  0  0  0999 V2000
    7.3266  -12.1614   20.5254 C   0  0  0  0  0  0  0  0  0  0  0  0
    8.0943  -13.1954   19.7542 C   0  0  2  0  0  0  0  0  0  0  0  0
    7.6423  -13.1506   18.3150 C   0  0  0  0  0  0  0  0  0  0  0  0
    7.8477  -14.6008   20.3214 C   0  0  2  0  0  0  0  0  0  0  0  0
    6.4316  -14.8474   20.1972 N   0  0  0  0  0  0  0  0  0  0  0  0
    8.2390  -14.6802   21.7335 C   0  0  0  0  0  0  0  0  0  0  0  0
    8.0184  -13.6473   22.4533 O   0  0  0  0  0  0  0  0  0  0  0  0
    8.8382  -15.8336   22.3124 N   0  0  0  0  0  0  0  0  0  0  0  0
    9.3172  -15.7102   23.6796 C   0  0  1  0  0  0  0  0  0  0  0  0
    8.0462  -15.6040   24.5155 C   0  0  0  0  0  0  0  0  0  0  0  0
    7.0396  -17.0655   24.2201 S   0  0  0  0  0  0  0  0  0  0  0  0
   10.0554  -16.9060   24.1048 C   0  0  0  0  0  0  0  0  0  0  0  0
    9.8000  -18.0384   23.5546 O   0  0  0  0  0  0  0  0  0  0  0  0
   14.4877  -15.5370   24.6788 N   0  0  0  0  0  0  0  0  0  0  0  0
   14.2333  -16.3005   23.5235 C   0  0  0  0  0  0  0  0  0  0  0  0
   14.5486  -15.9306   22.3713 O   0  0  0  0  0  0  0  0  0  0  0  0
   13.5504  -17.6272   23.6621 C   0  0  0  0  0  0  0  0  0  0  0  0
   13.2904  -17.9544   25.1022 C   0  0  0  0  0  0  0  0  0  0  0  0
   11.8532  -18.1570   25.3693 C   0  0  2  0  0  0  0  0  0  0  0  0
   11.0591  -16.9631   25.0873 N   0  0  0  0  0  0  0  0  0  0  0  0
   11.5290  -18.5885   26.7257 C   0  0  0  0  0  0  0  0  0  0  0  0
   12.0127  -19.7517   27.2743 O   0  0  0  0  0  0  0  0  0  0  0  0
   10.7759  -17.8991   27.4609 O   0  0  0  0  0  0  0  0  0  0  0  0
  2  1  1  1
  2  4  1  0
  3  2  1  0
  4  5  1  1
  6  4  1  0
  7  6  2  0
  8  6  1  0
  9  8  1  0
  9 12  1  0
  9 10  1  1
 11 10  1  0
 12 13  2  0
 12 20  1  0
 14 15  1  0
 15 16  2  0
 17 15  1  0
 17 18  1  0
 19 18  1  1
 19 21  1  0
 20 19  1  0
 21 22  1  0
 23 21  2  0
M  END
$$$$
