VCQ.pdb
     RDKit          3D

 23 22  0  0  1  0  0  0  0  0999 V2000
    6.5033  -14.7883   18.9895 C   0  0  0  0  0  0  0  0  0  0  0  0
    7.1697  -14.8904   20.3306 C   0  0  2  0  0  0  0  0  0  0  0  0
    6.3448  -15.8024   21.2054 C   0  0  0  0  0  0  0  0  0  0  0  0
    7.2817  -13.5112   20.9961 C   0  0  2  0  0  0  0  0  0  0  0  0
    7.9728  -12.6609   20.0575 N   0  0  0  0  0  0  0  0  0  0  0  0
    8.0448  -13.5851   22.2473 C   0  0  0  0  0  0  0  0  0  0  0  0
    9.2973  -13.8192   22.1474 O   0  0  0  0  0  0  0  0  0  0  0  0
    7.4559  -13.4102   23.5308 N   0  0  0  0  0  0  0  0  0  0  0  0
    8.3314  -13.5582   24.6820 C   0  0  1  0  0  0  0  0  0  0  0  0
    7.5575  -12.9160   25.8283 C   0  0  0  0  0  0  0  0  0  0  0  0
    5.8010  -13.2075   25.5711 S   0  0  0  0  0  0  0  0  0  0  0  0
    8.5613  -14.9709   25.0095 C   0  0  0  0  0  0  0  0  0  0  0  0
    7.6846  -15.8497   24.6789 O   0  0  0  0  0  0  0  0  0  0  0  0
   13.6107  -19.8283   24.3369 N   0  0  0  0  0  0  0  0  0  0  0  0
   12.4530  -19.1548   23.9027 C   0  0  0  0  0  0  0  0  0  0  0  0
   12.2377  -18.8576   22.7073 O   0  0  0  0  0  0  0  0  0  0  0  0
   11.4145  -18.7660   24.9106 C   0  0  0  0  0  0  0  0  0  0  0  0
   11.0101  -17.3314   24.7454 C   0  0  0  0  0  0  0  0  0  0  0  0
    9.9865  -16.9317   25.7306 C   0  0  2  0  0  0  0  0  0  0  0  0
    9.6814  -15.5038   25.6708 N   0  0  0  0  0  0  0  0  0  0  0  0
   10.3021  -17.2546   27.1188 C   0  0  0  0  0  0  0  0  0  0  0  0
   10.5160  -18.5396   27.5559 O   0  0  0  0  0  0  0  0  0  0  0  0
   10.3900  -16.3503   27.9891 O   0  0  0  0  0  0  0  0  0  0  0  0
  2  1  1  6
  2  4  1  0
  3  2  1  0
  4  5  1  6
  6  4  1  0
  7  6  2  0
  8  6  1  0
  9  8  1  0
  9 12  1  0
  9 10  1  1
 11 10  1  0
 12 13  2  0
 12 20  1  0
 14 15  1  0
 15 16  2  0
 17 15  1  0
 17 18  1  0
 19 18  1  6
 19 21  1  0
 20 19  1  0
 21 22  1  0
 23 21  2  0
M  END
$$$$
