VCQ.pdb
     RDKit          3D

 23 22  0  0  1  0  0  0  0  0999 V2000
    7.5440  -14.7254   17.7968 C   0  0  0  0  0  0  0  0  0  0  0  0
    8.0408  -14.7871   19.2119 C   0  0  2  0  0  0  0  0  0  0  0  0
    7.4481  -16.0072   19.8733 C   0  0  0  0  0  0  0  0  0  0  0  0
    7.6281  -13.5326   19.9953 C   0  0  2  0  0  0  0  0  0  0  0  0
    8.2654  -12.4157   19.3409 N   0  0  0  0  0  0  0  0  0  0  0  0
    8.0760  -13.6061   21.3908 C   0  0  0  0  0  0  0  0  0  0  0  0
    9.3205  -13.4136   21.6092 O   0  0  0  0  0  0  0  0  0  0  0  0
    7.1983  -13.8764   22.4777 N   0  0  0  0  0  0  0  0  0  0  0  0
    7.7921  -13.9364   23.8035 C   0  0  1  0  0  0  0  0  0  0  0  0
    6.6559  -13.5461   24.7426 C   0  0  0  0  0  0  0  0  0  0  0  0
    7.2576  -13.6222   26.4363 S   0  0  0  0  0  0  0  0  0  0  0  0
    8.2278  -15.2975   24.1406 C   0  0  0  0  0  0  0  0  0  0  0  0
    7.3690  -16.2527   24.1579 O   0  0  0  0  0  0  0  0  0  0  0  0
   13.2863  -18.6741   22.9921 N   0  0  0  0  0  0  0  0  0  0  0  0
   12.6988  -17.5820   22.3253 C   0  0  0  0  0  0  0  0  0  0  0  0
   13.0778  -17.1752   21.2051 O   0  0  0  0  0  0  0  0  0  0  0  0
   11.5597  -16.8576   22.9757 C   0  0  0  0  0  0  0  0  0  0  0  0
   11.2657  -17.4200   24.3345 C   0  0  0  0  0  0  0  0  0  0  0  0
    9.9044  -17.0763   24.7891 C   0  0  2  0  0  0  0  0  0  0  0  0
    9.5360  -15.7012   24.4592 N   0  0  0  0  0  0  0  0  0  0  0  0
    9.6608  -17.2649   26.2161 C   0  0  0  0  0  0  0  0  0  0  0  0
    9.7514  -18.4893   26.8330 O   0  0  0  0  0  0  0  0  0  0  0  0
    9.3492  -16.2938   26.9527 O   0  0  0  0  0  0  0  0  0  0  0  0
  2  1  1  6
  2  4  1  0
  3  2  1  0
  4  5  1  6
  6  4  1  0
  7  6  2  0
  8  6  1  0
  9  8  1  0
  9 12  1  0
  9 10  1  1
 11 10  1  0
 12 13  2  0
 12 20  1  0
 14 15  1  0
 15 16  2  0
 17 15  1  0
 17 18  1  0
 19 18  1  1
 19 21  1  0
 20 19  1  0
 21 22  1  0
 23 21  2  0
M  END
$$$$
