VCQ.pdb
     RDKit          3D

 23 22  0  0  1  0  0  0  0  0999 V2000
    7.0518  -12.4497   19.9188 C   0  0  0  0  0  0  0  0  0  0  0  0
    7.7268  -13.6011   20.6057 C   0  0  2  0  0  0  0  0  0  0  0  0
    8.8119  -13.0538   21.5004 C   0  0  0  0  0  0  0  0  0  0  0  0
    8.3476  -14.5644   19.5838 C   0  0  2  0  0  0  0  0  0  0  0  0
    7.2819  -14.9563   18.6937 N   0  0  0  0  0  0  0  0  0  0  0  0
    8.9011  -15.7534   20.2422 C   0  0  0  0  0  0  0  0  0  0  0  0
    8.0691  -16.6537   20.6038 O   0  0  0  0  0  0  0  0  0  0  0  0
   10.2915  -15.9335   20.4849 N   0  0  0  0  0  0  0  0  0  0  0  0
   10.6969  -17.1950   21.0833 C   0  0  1  0  0  0  0  0  0  0  0  0
   11.7606  -17.7370   20.1346 C   0  0  0  0  0  0  0  0  0  0  0  0
   12.3140  -19.3366   20.7442 S   0  0  0  0  0  0  0  0  0  0  0  0
   11.3081  -16.9966   22.4035 C   0  0  0  0  0  0  0  0  0  0  0  0
   11.9523  -15.9123   22.6479 O   0  0  0  0  0  0  0  0  0  0  0  0
    9.9838  -19.4385   28.0454 N   0  0  0  0  0  0  0  0  0  0  0  0
   11.1812  -18.7494   28.3168 C   0  0  0  0  0  0  0  0  0  0  0  0
   11.7260  -18.7340   29.4424 O   0  0  0  0  0  0  0  0  0  0  0  0
   11.8518  -17.9900   27.2127 C   0  0  0  0  0  0  0  0  0  0  0  0
   11.1504  -18.2042   25.9047 C   0  0  0  0  0  0  0  0  0  0  0  0
   11.9122  -17.6403   24.7734 C   0  0  2  0  0  0  0  0  0  0  0  0
   11.2687  -17.8925   23.4859 N   0  0  0  0  0  0  0  0  0  0  0  0
   13.2953  -18.0953   24.6686 C   0  0  0  0  0  0  0  0  0  0  0  0
   14.3491  -17.4152   25.2298 O   0  0  0  0  0  0  0  0  0  0  0  0
   13.5837  -19.1492   24.0449 O   0  0  0  0  0  0  0  0  0  0  0  0
  2  1  1  6
  2  4  1  0
  3  2  1  0
  4  5  1  6
  6  4  1  0
  7  6  2  0
  8  6  1  0
  9  8  1  0
  9 12  1  0
  9 10  1  6
 11 10  1  0
 12 13  2  0
 12 20  1  0
 14 15  1  0
 15 16  2  0
 17 15  1  0
 17 18  1  0
 19 18  1  1
 19 21  1  0
 20 19  1  0
 21 22  1  0
 23 21  2  0
M  END
$$$$
