VCQ.pdb
     RDKit          3D

 23 22  0  0  1  0  0  0  0  0999 V2000
    7.8550  -12.4584   18.7088 C   0  0  0  0  0  0  0  0  0  0  0  0
    7.8337  -13.5013   19.7881 C   0  0  2  0  0  0  0  0  0  0  0  0
    8.2406  -12.8515   21.0881 C   0  0  0  0  0  0  0  0  0  0  0  0
    8.8045  -14.6466   19.4661 C   0  0  2  0  0  0  0  0  0  0  0  0
    8.3479  -15.2318   18.2289 N   0  0  0  0  0  0  0  0  0  0  0  0
    8.7963  -15.6635   20.5240 C   0  0  0  0  0  0  0  0  0  0  0  0
    8.0100  -16.6582   20.3633 O   0  0  0  0  0  0  0  0  0  0  0  0
    9.6099  -15.5831   21.6886 N   0  0  0  0  0  0  0  0  0  0  0  0
    9.5918  -16.7284   22.5841 C   0  0  1  0  0  0  0  0  0  0  0  0
   10.0899  -17.8856   21.7250 C   0  0  0  0  0  0  0  0  0  0  0  0
   10.3685  -19.3114   22.7861 S   0  0  0  0  0  0  0  0  0  0  0  0
   10.5188  -16.5510   23.7089 C   0  0  0  0  0  0  0  0  0  0  0  0
   11.7289  -16.1843   23.4820 O   0  0  0  0  0  0  0  0  0  0  0  0
   10.5578  -13.6709   28.9691 N   0  0  0  0  0  0  0  0  0  0  0  0
    9.4228  -13.8518   28.1559 C   0  0  0  0  0  0  0  0  0  0  0  0
    8.3046  -13.3555   28.4152 O   0  0  0  0  0  0  0  0  0  0  0  0
    9.5416  -14.6784   26.9116 C   0  0  0  0  0  0  0  0  0  0  0  0
   10.9750  -14.9989   26.6094 C   0  0  0  0  0  0  0  0  0  0  0  0
   11.1427  -16.3929   26.1546 C   0  0  2  0  0  0  0  0  0  0  0  0
   10.2264  -16.7406   25.0706 N   0  0  0  0  0  0  0  0  0  0  0  0
   10.9960  -17.4067   27.1946 C   0  0  0  0  0  0  0  0  0  0  0  0
   10.0358  -18.3885   27.1494 O   0  0  0  0  0  0  0  0  0  0  0  0
   11.7574  -17.4205   28.1960 O   0  0  0  0  0  0  0  0  0  0  0  0
  2  1  1  6
  2  4  1  0
  3  2  1  0
  4  5  1  6
  6  4  1  0
  7  6  2  0
  8  6  1  0
  9  8  1  0
  9 12  1  0
  9 10  1  6
 11 10  1  0
 12 13  2  0
 12 20  1  0
 14 15  1  0
 15 16  2  0
 17 15  1  0
 17 18  1  0
 19 18  1  1
 19 21  1  0
 20 19  1  0
 21 22  1  0
 23 21  2  0
M  END
$$$$
