NHD.pdb
     RDKit          3D

 27 27  0  0  1  0  0  0  0  0999 V2000
   13.7770  -15.0942   15.8773 N   0  0  0  0  0  0  0  0  0  0  0  0
   14.3686  -14.8907   17.1355 C   0  0  0  0  0  0  0  0  0  0  0  0
   15.6000  -15.1489   17.2920 O   0  0  0  0  0  0  0  0  0  0  0  0
   13.5227  -14.3827   18.2370 C   0  0  0  0  0  0  0  0  0  0  0  0
   13.3774  -15.3939   19.3678 C   0  0  2  0  0  0  0  0  0  0  0  0
   12.8457  -16.6513   18.8031 N   0  0  0  0  0  0  0  0  0  0  0  0
   12.3249  -14.8581   20.2629 C   0  0  0  0  0  0  0  0  0  0  0  0
   12.5286  -13.8013   20.9364 O   0  0  0  0  0  0  0  0  0  0  0  0
   11.0584  -15.4786   20.4182 N   0  0  0  0  0  0  0  0  0  0  0  0
   10.2014  -15.0444   21.5232 C   0  0  1  0  0  0  0  0  0  0  0  0
    8.7738  -15.1865   20.9719 C   0  0  0  0  0  0  0  0  0  0  0  0
    8.5380  -14.2670   19.8456 C   0  0  0  0  0  0  0  0  0  0  0  0
    9.3795  -13.3157   19.3583 C   0  0  0  0  0  0  0  0  0  0  0  0
    8.7558  -12.7235   18.3332 N   0  0  0  0  0  0  0  0  0  0  0  0
    7.5439  -13.3036   18.1899 C   0  0  0  0  0  0  0  0  0  0  0  0
    7.4038  -14.2648   19.1294 N   0  0  0  0  0  0  0  0  0  0  0  0
   10.3770  -15.8814   22.7134 C   0  0  0  0  0  0  0  0  0  0  0  0
    9.5732  -15.7773   23.6754 O   0  0  0  0  0  0  0  0  0  0  0  0
   11.4358  -16.8024   22.7948 N   0  0  0  0  0  0  0  0  0  0  0  0
   11.6861  -17.6700   23.9102 C   0  0  1  0  0  0  0  0  0  0  0  0
   11.3305  -19.1396   23.6307 C   0  0  0  0  0  0  0  0  0  0  0  0
   12.0253  -19.6777   22.4663 C   0  0  0  0  0  0  0  0  0  0  0  0
   13.2579  -19.9397   22.5161 O   0  0  0  0  0  0  0  0  0  0  0  0
   13.0448  -17.5430   24.4664 C   0  0  0  0  0  0  0  0  0  0  0  0
   13.9041  -16.8737   23.8450 O   0  0  0  0  0  0  0  0  0  0  0  0
   11.3692  -19.9276   21.2579 O   0  0  0  0  0  0  0  0  0  0  0  0
   13.4171  -18.1350   25.6571 O   0  0  0  0  0  0  0  0  0  0  0  0
  2  3  2  0
  2  1  1  0
  4  2  1  0
  5  4  1  0
  5  7  1  0
  5  6  1  6
  7  8  2  0
  9 10  1  0
  9  7  1  0
 11 12  1  0
 10 11  1  6
 12 16  1  0
 13 14  1  0
 13 12  2  0
 14 15  1  0
 15 16  2  0
 17 10  1  0
 17 18  2  0
 19 17  1  0
 20 19  1  0
 20 24  1  0
 20 21  1  6
 22 23  2  0
 22 21  1  0
 24 25  2  0
 24 27  1  0
 26 22  1  0
M  END
$$$$
