NHD.pdb
     RDKit          3D

 27 27  0  0  1  0  0  0  0  0999 V2000
   15.5907  -18.3676   15.8614 N   0  0  0  0  0  0  0  0  0  0  0  0
   14.5212  -17.4686   15.7113 C   0  0  0  0  0  0  0  0  0  0  0  0
   13.8286  -17.4989   14.6499 O   0  0  0  0  0  0  0  0  0  0  0  0
   14.2469  -16.5125   16.8056 C   0  0  0  0  0  0  0  0  0  0  0  0
   12.8538  -15.9028   16.7048 C   0  0  2  0  0  0  0  0  0  0  0  0
   12.9014  -14.7901   15.7342 N   0  0  0  0  0  0  0  0  0  0  0  0
   12.5771  -15.2941   18.0273 C   0  0  0  0  0  0  0  0  0  0  0  0
   13.2519  -14.2976   18.4317 O   0  0  0  0  0  0  0  0  0  0  0  0
   11.5677  -15.7767   18.8998 N   0  0  0  0  0  0  0  0  0  0  0  0
   11.3692  -15.0937   20.1798 C   0  0  1  0  0  0  0  0  0  0  0  0
    9.8439  -15.0807   20.3681 C   0  0  0  0  0  0  0  0  0  0  0  0
    9.1849  -14.2289   19.3632 C   0  0  0  0  0  0  0  0  0  0  0  0
    9.0537  -12.8749   19.3778 C   0  0  0  0  0  0  0  0  0  0  0  0
    8.3907  -12.5298   18.2680 N   0  0  0  0  0  0  0  0  0  0  0  0
    8.1169  -13.6581   17.5768 C   0  0  0  0  0  0  0  0  0  0  0  0
    8.6091  -14.7184   18.2550 N   0  0  0  0  0  0  0  0  0  0  0  0
   12.0162  -15.8052   21.2857 C   0  0  0  0  0  0  0  0  0  0  0  0
   11.8017  -17.0337   21.4499 O   0  0  0  0  0  0  0  0  0  0  0  0
   12.8765  -15.1303   22.1692 N   0  0  0  0  0  0  0  0  0  0  0  0
   13.8497  -15.7637   23.0125 C   0  0  1  0  0  0  0  0  0  0  0  0
   15.1363  -14.9393   23.1836 C   0  0  0  0  0  0  0  0  0  0  0  0
   16.1074  -15.5829   24.0617 C   0  0  0  0  0  0  0  0  0  0  0  0
   16.6290  -16.6868   23.7457 O   0  0  0  0  0  0  0  0  0  0  0  0
   13.3129  -16.1973   24.3146 C   0  0  0  0  0  0  0  0  0  0  0  0
   14.0422  -16.8585   25.0916 O   0  0  0  0  0  0  0  0  0  0  0  0
   16.5031  -15.0158   25.2761 O   0  0  0  0  0  0  0  0  0  0  0  0
   12.0269  -15.9023   24.7221 O   0  0  0  0  0  0  0  0  0  0  0  0
  2  3  2  0
  2  1  1  0
  4  2  1  0
  5  4  1  0
  5  7  1  0
  5  6  1  6
  7  8  2  0
  9 10  1  0
  9  7  1  0
 11 12  1  0
 10 11  1  1
 12 16  1  0
 13 14  1  0
 13 12  2  0
 14 15  1  0
 15 16  2  0
 17 10  1  0
 17 18  2  0
 19 17  1  0
 20 19  1  0
 20 24  1  0
 20 21  1  1
 22 23  2  0
 22 21  1  0
 24 25  2  0
 24 27  1  0
 26 22  1  0
M  END
$$$$
