NHD.pdb
     RDKit          3D

 27 27  0  0  1  0  0  0  0  0999 V2000
   14.9782  -15.6063   14.6142 N   0  0  0  0  0  0  0  0  0  0  0  0
   15.0156  -14.3429   15.2281 C   0  0  0  0  0  0  0  0  0  0  0  0
   15.6339  -13.3936   14.6589 O   0  0  0  0  0  0  0  0  0  0  0  0
   14.3296  -14.1711   16.5268 C   0  0  0  0  0  0  0  0  0  0  0  0
   13.8224  -15.4924   17.0920 C   0  0  2  0  0  0  0  0  0  0  0  0
   12.7231  -15.9759   16.2314 N   0  0  0  0  0  0  0  0  0  0  0  0
   13.2161  -15.1698   18.4051 C   0  0  0  0  0  0  0  0  0  0  0  0
   13.8945  -14.5770   19.2997 O   0  0  0  0  0  0  0  0  0  0  0  0
   11.8752  -15.4967   18.7341 N   0  0  0  0  0  0  0  0  0  0  0  0
   11.4075  -15.2291   20.0956 C   0  0  1  0  0  0  0  0  0  0  0  0
    9.8933  -15.4850   20.0316 C   0  0  0  0  0  0  0  0  0  0  0  0
    9.1772  -14.3352   19.4530 C   0  0  0  0  0  0  0  0  0  0  0  0
    9.6706  -13.0952   19.1890 C   0  0  0  0  0  0  0  0  0  0  0  0
    8.6714  -12.3748   18.6666 N   0  0  0  0  0  0  0  0  0  0  0  0
    7.5746  -13.1620   18.6085 C   0  0  0  0  0  0  0  0  0  0  0  0
    7.8847  -14.3831   19.0973 N   0  0  0  0  0  0  0  0  0  0  0  0
   12.0368  -16.1190   21.0753 C   0  0  0  0  0  0  0  0  0  0  0  0
   12.0683  -17.3588   20.8646 O   0  0  0  0  0  0  0  0  0  0  0  0
   12.6077  -15.6038   22.2520 N   0  0  0  0  0  0  0  0  0  0  0  0
   13.2945  -16.3838   23.2416 C   0  0  1  0  0  0  0  0  0  0  0  0
   14.5406  -15.6853   23.8108 C   0  0  0  0  0  0  0  0  0  0  0  0
   15.2929  -16.5322   24.7301 C   0  0  0  0  0  0  0  0  0  0  0  0
   14.7680  -17.5636   25.2314 O   0  0  0  0  0  0  0  0  0  0  0  0
   12.4186  -16.8795   24.3179 C   0  0  0  0  0  0  0  0  0  0  0  0
   12.8769  -17.6855   25.1623 O   0  0  0  0  0  0  0  0  0  0  0  0
   16.6122  -16.2482   25.0931 O   0  0  0  0  0  0  0  0  0  0  0  0
   11.0995  -16.4895   24.4395 O   0  0  0  0  0  0  0  0  0  0  0  0
  2  3  2  0
  2  1  1  0
  4  2  1  0
  5  4  1  0
  5  7  1  0
  5  6  1  6
  7  8  2  0
  9 10  1  0
  9  7  1  0
 11 12  1  0
 10 11  1  6
 12 16  1  0
 13 14  1  0
 13 12  2  0
 14 15  1  0
 15 16  2  0
 17 10  1  0
 17 18  2  0
 19 17  1  0
 20 19  1  0
 20 24  1  0
 20 21  1  1
 22 23  2  0
 22 21  1  0
 24 25  2  0
 24 27  1  0
 26 22  1  0
M  END
$$$$
