NHD.pdb
     RDKit          3D

 27 27  0  0  1  0  0  0  0  0999 V2000
    8.8951  -19.7853   16.1194 N   0  0  0  0  0  0  0  0  0  0  0  0
    9.6548  -20.3572   17.1540 C   0  0  0  0  0  0  0  0  0  0  0  0
    9.9477  -21.5896   17.1013 O   0  0  0  0  0  0  0  0  0  0  0  0
   10.0824  -19.4916   18.2741 C   0  0  0  0  0  0  0  0  0  0  0  0
    9.5535  -18.0687   18.1397 C   0  0  2  0  0  0  0  0  0  0  0  0
   10.2348  -17.4244   16.9980 N   0  0  0  0  0  0  0  0  0  0  0  0
   10.0013  -17.3493   19.3554 C   0  0  0  0  0  0  0  0  0  0  0  0
   11.2204  -17.0259   19.5002 O   0  0  0  0  0  0  0  0  0  0  0  0
    9.1172  -16.9887   20.4049 N   0  0  0  0  0  0  0  0  0  0  0  0
    9.6600  -16.2583   21.5521 C   0  0  1  0  0  0  0  0  0  0  0  0
    8.6101  -15.1733   21.8397 C   0  0  0  0  0  0  0  0  0  0  0  0
    8.6639  -14.0938   20.8391 C   0  0  0  0  0  0  0  0  0  0  0  0
    9.5124  -13.9812   19.7817 C   0  0  0  0  0  0  0  0  0  0  0  0
    9.2001  -12.8478   19.1428 N   0  0  0  0  0  0  0  0  0  0  0  0
    8.1703  -12.2686   19.7984 C   0  0  0  0  0  0  0  0  0  0  0  0
    7.8334  -13.0405   20.8553 N   0  0  0  0  0  0  0  0  0  0  0  0
    9.8340  -17.1257   22.7205 C   0  0  0  0  0  0  0  0  0  0  0  0
    8.9019  -17.8927   23.0747 O   0  0  0  0  0  0  0  0  0  0  0  0
   11.0332  -17.1119   23.4538 N   0  0  0  0  0  0  0  0  0  0  0  0
   11.3344  -17.9847   24.5525 C   0  0  1  0  0  0  0  0  0  0  0  0
   12.6949  -18.6882   24.4165 C   0  0  0  0  0  0  0  0  0  0  0  0
   13.0025  -19.5487   25.5537 C   0  0  0  0  0  0  0  0  0  0  0  0
   12.2144  -20.4728   25.8937 O   0  0  0  0  0  0  0  0  0  0  0  0
   11.1897  -17.3466   25.8729 C   0  0  0  0  0  0  0  0  0  0  0  0
   11.6076  -16.1761   26.0399 O   0  0  0  0  0  0  0  0  0  0  0  0
   14.1682  -19.3954   26.3091 O   0  0  0  0  0  0  0  0  0  0  0  0
   10.6057  -17.9887   26.9469 O   0  0  0  0  0  0  0  0  0  0  0  0
  2  3  2  0
  2  1  1  0
  4  2  1  0
  5  4  1  0
  5  7  1  0
  5  6  1  6
  7  8  2  0
  9 10  1  0
  9  7  1  0
 11 12  1  0
 10 11  1  1
 12 16  1  0
 13 14  1  0
 13 12  2  0
 14 15  1  0
 15 16  2  0
 17 10  1  0
 17 18  2  0
 19 17  1  0
 20 19  1  0
 20 24  1  0
 20 21  1  6
 22 23  2  0
 22 21  1  0
 24 25  2  0
 24 27  1  0
 26 22  1  0
M  END
$$$$
