NHD.pdb
     RDKit          3D

 27 27  0  0  1  0  0  0  0  0999 V2000
   16.0148  -16.6594   14.9941 N   0  0  0  0  0  0  0  0  0  0  0  0
   16.0650  -17.0381   16.3464 C   0  0  0  0  0  0  0  0  0  0  0  0
   16.6751  -18.1007   16.6717 O   0  0  0  0  0  0  0  0  0  0  0  0
   15.3949  -16.1761   17.3437 C   0  0  0  0  0  0  0  0  0  0  0  0
   14.5837  -15.0620   16.6930 C   0  0  2  0  0  0  0  0  0  0  0  0
   15.4801  -13.9127   16.4521 N   0  0  0  0  0  0  0  0  0  0  0  0
   13.6022  -14.6218   17.7123 C   0  0  0  0  0  0  0  0  0  0  0  0
   13.9887  -14.0182   18.7603 O   0  0  0  0  0  0  0  0  0  0  0  0
   12.2068  -14.8436   17.5825 N   0  0  0  0  0  0  0  0  0  0  0  0
   11.3377  -14.4855   18.7052 C   0  0  1  0  0  0  0  0  0  0  0  0
    9.9322  -14.4161   18.0871 C   0  0  0  0  0  0  0  0  0  0  0  0
    8.9281  -13.9963   19.0797 C   0  0  0  0  0  0  0  0  0  0  0  0
    9.1361  -13.6549   20.3800 C   0  0  0  0  0  0  0  0  0  0  0  0
    7.9448  -13.3401   20.9017 N   0  0  0  0  0  0  0  0  0  0  0  0
    7.0131  -13.4853   19.9338 C   0  0  0  0  0  0  0  0  0  0  0  0
    7.6206  -13.8939   18.7979 N   0  0  0  0  0  0  0  0  0  0  0  0
   11.3797  -15.4898   19.7717 C   0  0  0  0  0  0  0  0  0  0  0  0
   11.2597  -16.7093   19.4876 O   0  0  0  0  0  0  0  0  0  0  0  0
   11.5526  -15.1070   21.1132 N   0  0  0  0  0  0  0  0  0  0  0  0
   11.6563  -16.0150   22.2197 C   0  0  1  0  0  0  0  0  0  0  0  0
   12.7778  -15.6481   23.2057 C   0  0  0  0  0  0  0  0  0  0  0  0
   14.0551  -16.2642   22.8635 C   0  0  0  0  0  0  0  0  0  0  0  0
   14.2033  -16.8745   21.7698 O   0  0  0  0  0  0  0  0  0  0  0  0
   10.3800  -16.2441   22.9197 C   0  0  0  0  0  0  0  0  0  0  0  0
   10.3015  -17.1605   23.7721 O   0  0  0  0  0  0  0  0  0  0  0  0
   15.1609  -16.2074   23.7161 O   0  0  0  0  0  0  0  0  0  0  0  0
    9.2535  -15.4835   22.6761 O   0  0  0  0  0  0  0  0  0  0  0  0
  2  3  2  0
  2  1  1  0
  4  2  1  0
  5  4  1  0
  5  7  1  0
  5  6  1  1
  7  8  2  0
  9 10  1  0
  9  7  1  0
 11 12  1  0
 10 11  1  6
 12 16  1  0
 13 14  1  0
 13 12  2  0
 14 15  1  0
 15 16  2  0
 17 10  1  0
 17 18  2  0
 19 17  1  0
 20 19  1  0
 20 24  1  0
 20 21  1  1
 22 23  2  0
 22 21  1  0
 24 25  2  0
 24 27  1  0
 26 22  1  0
M  END
$$$$
