NHD.pdb
     RDKit          3D

 27 27  0  0  1  0  0  0  0  0999 V2000
   14.6801  -16.0296   17.0024 N   0  0  0  0  0  0  0  0  0  0  0  0
   15.1829  -15.4187   18.1636 C   0  0  0  0  0  0  0  0  0  0  0  0
   16.4342  -15.2577   18.2888 O   0  0  0  0  0  0  0  0  0  0  0  0
   14.2240  -14.9879   19.2037 C   0  0  0  0  0  0  0  0  0  0  0  0
   12.7862  -15.3473   18.8488 C   0  0  2  0  0  0  0  0  0  0  0  0
   12.3731  -14.5274   17.6914 N   0  0  0  0  0  0  0  0  0  0  0  0
   11.9586  -14.9022   19.9947 C   0  0  0  0  0  0  0  0  0  0  0  0
   12.3260  -13.9212   20.7121 O   0  0  0  0  0  0  0  0  0  0  0  0
   10.7372  -15.5302   20.3509 N   0  0  0  0  0  0  0  0  0  0  0  0
   10.0026  -15.0170   21.5089 C   0  0  1  0  0  0  0  0  0  0  0  0
    8.5346  -15.0144   21.0537 C   0  0  0  0  0  0  0  0  0  0  0  0
    8.3625  -14.2669   19.7962 C   0  0  0  0  0  0  0  0  0  0  0  0
    8.2064  -12.9244   19.6413 C   0  0  0  0  0  0  0  0  0  0  0  0
    8.0887  -12.6886   18.3295 N   0  0  0  0  0  0  0  0  0  0  0  0
    8.1719  -13.8722   17.6830 C   0  0  0  0  0  0  0  0  0  0  0  0
    8.3421  -14.8576   18.5920 N   0  0  0  0  0  0  0  0  0  0  0  0
   10.1723  -15.8717   22.6873 C   0  0  0  0  0  0  0  0  0  0  0  0
    9.4658  -15.6754   23.7095 O   0  0  0  0  0  0  0  0  0  0  0  0
   11.1178  -16.9118   22.6908 N   0  0  0  0  0  0  0  0  0  0  0  0
   11.3923  -17.7687   23.8088 C   0  0  1  0  0  0  0  0  0  0  0  0
   11.6865  -19.2227   23.4041 C   0  0  0  0  0  0  0  0  0  0  0  0
   10.5067  -20.0781   23.4721 C   0  0  0  0  0  0  0  0  0  0  0  0
    9.3891  -19.6680   23.0555 O   0  0  0  0  0  0  0  0  0  0  0  0
   12.4277  -17.2445   24.7169 C   0  0  0  0  0  0  0  0  0  0  0  0
   13.4764  -16.7527   24.2361 O   0  0  0  0  0  0  0  0  0  0  0  0
   10.5562  -21.3744   23.9919 O   0  0  0  0  0  0  0  0  0  0  0  0
   12.2913  -17.2701   26.0908 O   0  0  0  0  0  0  0  0  0  0  0  0
  2  3  2  0
  2  1  1  0
  4  2  1  0
  5  4  1  0
  5  7  1  0
  5  6  1  6
  7  8  2  0
  9 10  1  0
  9  7  1  0
 11 12  1  0
 10 11  1  6
 12 16  1  0
 13 14  1  0
 13 12  2  0
 14 15  1  0
 15 16  2  0
 17 10  1  0
 17 18  2  0
 19 17  1  0
 20 19  1  0
 20 24  1  0
 20 21  1  6
 22 23  2  0
 22 21  1  0
 24 25  2  0
 24 27  1  0
 26 22  1  0
M  END
$$$$
