NHD.pdb
     RDKit          3D

 27 27  0  0  1  0  0  0  0  0999 V2000
   11.3761  -18.4204   14.9369 N   0  0  0  0  0  0  0  0  0  0  0  0
   12.4542  -18.3987   15.8378 C   0  0  0  0  0  0  0  0  0  0  0  0
   13.6007  -18.7695   15.4437 O   0  0  0  0  0  0  0  0  0  0  0  0
   12.2049  -17.9438   17.2227 C   0  0  0  0  0  0  0  0  0  0  0  0
   10.7302  -17.6593   17.4810 C   0  0  2  0  0  0  0  0  0  0  0  0
   10.2456  -16.7300   16.4397 N   0  0  0  0  0  0  0  0  0  0  0  0
   10.6751  -16.9180   18.7630 C   0  0  0  0  0  0  0  0  0  0  0  0
   11.7442  -16.5560   19.3442 O   0  0  0  0  0  0  0  0  0  0  0  0
    9.4552  -16.5777   19.4027 N   0  0  0  0  0  0  0  0  0  0  0  0
    9.5146  -15.8951   20.6967 C   0  0  1  0  0  0  0  0  0  0  0  0
    8.0962  -15.3373   20.8946 C   0  0  0  0  0  0  0  0  0  0  0  0
    7.7516  -14.3597   19.8481 C   0  0  0  0  0  0  0  0  0  0  0  0
    7.9694  -13.0169   19.8600 C   0  0  0  0  0  0  0  0  0  0  0  0
    7.4994  -12.5297   18.7058 N   0  0  0  0  0  0  0  0  0  0  0  0
    6.9982  -13.5605   17.9902 C   0  0  0  0  0  0  0  0  0  0  0  0
    7.1527  -14.7016   18.6975 N   0  0  0  0  0  0  0  0  0  0  0  0
    9.8604  -16.8140   21.7848 C   0  0  0  0  0  0  0  0  0  0  0  0
    9.8587  -18.0552   21.5798 O   0  0  0  0  0  0  0  0  0  0  0  0
   10.1951  -16.3252   23.0595 N   0  0  0  0  0  0  0  0  0  0  0  0
   11.1619  -16.9180   23.9389 C   0  0  1  0  0  0  0  0  0  0  0  0
   12.5739  -16.9873   23.3341 C   0  0  0  0  0  0  0  0  0  0  0  0
   13.5629  -17.5171   24.2666 C   0  0  0  0  0  0  0  0  0  0  0  0
   13.3084  -18.5357   24.9653 O   0  0  0  0  0  0  0  0  0  0  0  0
   11.1836  -16.3196   25.2854 C   0  0  0  0  0  0  0  0  0  0  0  0
   10.7109  -15.1706   25.4559 O   0  0  0  0  0  0  0  0  0  0  0  0
   14.8221  -16.9326   24.4274 O   0  0  0  0  0  0  0  0  0  0  0  0
   11.7068  -16.9774   26.3811 O   0  0  0  0  0  0  0  0  0  0  0  0
  2  3  2  0
  2  1  1  0
  4  2  1  0
  5  4  1  0
  5  7  1  0
  5  6  1  6
  7  8  2  0
  9 10  1  0
  9  7  1  0
 11 12  1  0
 10 11  1  1
 12 16  1  0
 13 14  1  0
 13 12  2  0
 14 15  1  0
 15 16  2  0
 17 10  1  0
 17 18  2  0
 19 17  1  0
 20 19  1  0
 20 24  1  0
 20 21  1  6
 22 23  2  0
 22 21  1  0
 24 25  2  0
 24 27  1  0
 26 22  1  0
M  END
$$$$
