NHD.pdb
     RDKit          3D

 27 27  0  0  1  0  0  0  0  0999 V2000
   15.2805  -15.5369   17.2277 N   0  0  0  0  0  0  0  0  0  0  0  0
   14.6516  -14.2905   17.3871 C   0  0  0  0  0  0  0  0  0  0  0  0
   15.1735  -13.2600   16.8645 O   0  0  0  0  0  0  0  0  0  0  0  0
   13.3972  -14.2300   18.1679 C   0  0  0  0  0  0  0  0  0  0  0  0
   12.9632  -15.6013   18.6716 C   0  0  2  0  0  0  0  0  0  0  0  0
   12.0446  -16.1934   17.6776 N   0  0  0  0  0  0  0  0  0  0  0  0
   12.1582  -15.3532   19.8909 C   0  0  0  0  0  0  0  0  0  0  0  0
   12.6903  -14.8321   20.9191 O   0  0  0  0  0  0  0  0  0  0  0  0
   10.7795  -15.6759   19.9809 N   0  0  0  0  0  0  0  0  0  0  0  0
   10.0949  -15.4557   21.2564 C   0  0  1  0  0  0  0  0  0  0  0  0
    8.6429  -15.1481   20.8573 C   0  0  0  0  0  0  0  0  0  0  0  0
    8.5728  -14.0273   19.9041 C   0  0  0  0  0  0  0  0  0  0  0  0
    8.6600  -12.6972   20.1763 C   0  0  0  0  0  0  0  0  0  0  0  0
    8.5482  -12.0471   19.0122 N   0  0  0  0  0  0  0  0  0  0  0  0
    8.3944  -12.9659   18.0334 C   0  0  0  0  0  0  0  0  0  0  0  0
    8.4087  -14.2000   18.5841 N   0  0  0  0  0  0  0  0  0  0  0  0
   10.1497  -16.6396   22.1184 C   0  0  0  0  0  0  0  0  0  0  0  0
   10.2264  -17.7850   21.6040 O   0  0  0  0  0  0  0  0  0  0  0  0
   10.1174  -16.5120   23.5180 N   0  0  0  0  0  0  0  0  0  0  0  0
   10.8978  -17.2956   24.4325 C   0  0  1  0  0  0  0  0  0  0  0  0
   12.4001  -17.2976   24.1048 C   0  0  0  0  0  0  0  0  0  0  0  0
   13.1756  -18.1357   25.0128 C   0  0  0  0  0  0  0  0  0  0  0  0
   14.3815  -17.8667   25.2659 O   0  0  0  0  0  0  0  0  0  0  0  0
   10.6579  -16.9666   25.8488 C   0  0  0  0  0  0  0  0  0  0  0  0
   10.5778  -15.7643   26.1963 O   0  0  0  0  0  0  0  0  0  0  0  0
   12.6285  -19.2589   25.6390 O   0  0  0  0  0  0  0  0  0  0  0  0
   10.5142  -17.9362   26.8215 O   0  0  0  0  0  0  0  0  0  0  0  0
  2  3  2  0
  2  1  1  0
  4  2  1  0
  5  4  1  0
  5  7  1  0
  5  6  1  6
  7  8  2  0
  9 10  1  0
  9  7  1  0
 11 12  1  0
 10 11  1  6
 12 16  1  0
 13 14  1  0
 13 12  2  0
 14 15  1  0
 15 16  2  0
 17 10  1  0
 17 18  2  0
 19 17  1  0
 20 19  1  0
 20 24  1  0
 20 21  1  6
 22 23  2  0
 22 21  1  0
 24 25  2  0
 24 27  1  0
 26 22  1  0
M  END
$$$$
