NHD.pdb
     RDKit          3D

 27 27  0  0  1  0  0  0  0  0999 V2000
   10.9855  -18.3186   14.4973 N   0  0  0  0  0  0  0  0  0  0  0  0
   10.5050  -16.9986   14.5312 C   0  0  0  0  0  0  0  0  0  0  0  0
   10.3700  -16.3585   13.4452 O   0  0  0  0  0  0  0  0  0  0  0  0
   10.1768  -16.4028   15.8443 C   0  0  0  0  0  0  0  0  0  0  0  0
   10.3944  -17.3802   16.9932 C   0  0  2  0  0  0  0  0  0  0  0  0
    9.1462  -18.1434   17.1982 N   0  0  0  0  0  0  0  0  0  0  0  0
   10.5823  -16.5501   18.2063 C   0  0  0  0  0  0  0  0  0  0  0  0
   11.6239  -15.8373   18.3440 O   0  0  0  0  0  0  0  0  0  0  0  0
    9.6343  -16.5038   19.2609 N   0  0  0  0  0  0  0  0  0  0  0  0
    9.9270  -15.6633   20.4236 C   0  0  1  0  0  0  0  0  0  0  0  0
    8.5556  -15.1128   20.8461 C   0  0  0  0  0  0  0  0  0  0  0  0
    8.0193  -14.1766   19.8432 C   0  0  0  0  0  0  0  0  0  0  0  0
    8.2428  -12.8378   19.7519 C   0  0  0  0  0  0  0  0  0  0  0  0
    7.5599  -12.3944   18.6900 N   0  0  0  0  0  0  0  0  0  0  0  0
    6.9232  -13.4480   18.1329 C   0  0  0  0  0  0  0  0  0  0  0  0
    7.2061  -14.5595   18.8476 N   0  0  0  0  0  0  0  0  0  0  0  0
   10.5298  -16.4315   21.5164 C   0  0  0  0  0  0  0  0  0  0  0  0
   10.2575  -17.6527   21.6471 O   0  0  0  0  0  0  0  0  0  0  0  0
   11.4114  -15.8196   22.4243 N   0  0  0  0  0  0  0  0  0  0  0  0
   12.3269  -16.5200   23.2792 C   0  0  1  0  0  0  0  0  0  0  0  0
   13.7075  -15.8494   23.3728 C   0  0  0  0  0  0  0  0  0  0  0  0
   14.6341  -16.5807   24.2299 C   0  0  0  0  0  0  0  0  0  0  0  0
   15.4304  -17.4284   23.7420 O   0  0  0  0  0  0  0  0  0  0  0  0
   11.7818  -16.8147   24.6161 C   0  0  0  0  0  0  0  0  0  0  0  0
   10.8910  -16.0730   25.0949 O   0  0  0  0  0  0  0  0  0  0  0  0
   14.6860  -16.3797   25.6119 O   0  0  0  0  0  0  0  0  0  0  0  0
   12.2131  -17.8859   25.3734 O   0  0  0  0  0  0  0  0  0  0  0  0
  2  3  2  0
  2  1  1  0
  4  2  1  0
  5  4  1  0
  5  7  1  0
  5  6  1  1
  7  8  2  0
  9 10  1  0
  9  7  1  0
 11 12  1  0
 10 11  1  1
 12 16  1  0
 13 14  1  0
 13 12  2  0
 14 15  1  0
 15 16  2  0
 17 10  1  0
 17 18  2  0
 19 17  1  0
 20 19  1  0
 20 24  1  0
 20 21  1  1
 22 23  2  0
 22 21  1  0
 24 25  2  0
 24 27  1  0
 26 22  1  0
M  END
$$$$
