NHD.pdb
     RDKit          3D

 27 27  0  0  1  0  0  0  0  0999 V2000
   14.0728  -14.4403   15.7957 N   0  0  0  0  0  0  0  0  0  0  0  0
   14.5025  -14.6318   17.1198 C   0  0  0  0  0  0  0  0  0  0  0  0
   15.7023  -14.9773   17.3396 O   0  0  0  0  0  0  0  0  0  0  0  0
   13.5282  -14.4243   18.2127 C   0  0  0  0  0  0  0  0  0  0  0  0
   13.3188  -15.6823   19.0470 C   0  0  2  0  0  0  0  0  0  0  0  0
   12.6769  -16.7047   18.1954 N   0  0  0  0  0  0  0  0  0  0  0  0
   12.3282  -15.3221   20.0887 C   0  0  0  0  0  0  0  0  0  0  0  0
   12.6340  -14.5093   21.0148 O   0  0  0  0  0  0  0  0  0  0  0  0
   11.0120  -15.8512   20.1139 N   0  0  0  0  0  0  0  0  0  0  0  0
   10.1628  -15.5501   21.2681 C   0  0  1  0  0  0  0  0  0  0  0  0
    8.7444  -15.4684   20.6819 C   0  0  0  0  0  0  0  0  0  0  0  0
    8.6276  -14.3708   19.7066 C   0  0  0  0  0  0  0  0  0  0  0  0
    8.4299  -13.0492   19.9613 C   0  0  0  0  0  0  0  0  0  0  0  0
    8.3910  -12.4203   18.7809 N   0  0  0  0  0  0  0  0  0  0  0  0
    8.5634  -13.3436   17.8095 C   0  0  0  0  0  0  0  0  0  0  0  0
    8.7108  -14.5594   18.3811 N   0  0  0  0  0  0  0  0  0  0  0  0
   10.2357  -16.5986   22.2895 C   0  0  0  0  0  0  0  0  0  0  0  0
   10.3008  -17.8061   21.9430 O   0  0  0  0  0  0  0  0  0  0  0  0
   10.2335  -16.2717   23.6567 N   0  0  0  0  0  0  0  0  0  0  0  0
   10.5419  -17.1847   24.7201 C   0  0  1  0  0  0  0  0  0  0  0  0
   11.9127  -16.9259   25.3669 C   0  0  0  0  0  0  0  0  0  0  0  0
   12.2217  -17.8715   26.4340 C   0  0  0  0  0  0  0  0  0  0  0  0
   11.7806  -17.6915   27.6017 O   0  0  0  0  0  0  0  0  0  0  0  0
    9.4803  -17.2907   25.7365 C   0  0  0  0  0  0  0  0  0  0  0  0
    8.5812  -16.4176   25.7808 O   0  0  0  0  0  0  0  0  0  0  0  0
   13.0075  -19.0067   26.2179 O   0  0  0  0  0  0  0  0  0  0  0  0
    9.4309  -18.3228   26.6526 O   0  0  0  0  0  0  0  0  0  0  0  0
  2  3  2  0
  2  1  1  0
  4  2  1  0
  5  4  1  0
  5  7  1  0
  5  6  1  6
  7  8  2  0
  9 10  1  0
  9  7  1  0
 11 12  1  0
 10 11  1  6
 12 16  1  0
 13 14  1  0
 13 12  2  0
 14 15  1  0
 15 16  2  0
 17 10  1  0
 17 18  2  0
 19 17  1  0
 20 19  1  0
 20 24  1  0
 20 21  1  1
 22 23  2  0
 22 21  1  0
 24 25  2  0
 24 27  1  0
 26 22  1  0
M  END
$$$$
