NHD.pdb
     RDKit          3D

 27 27  0  0  1  0  0  0  0  0999 V2000
   15.7245  -13.2344   16.4971 N   0  0  0  0  0  0  0  0  0  0  0  0
   15.5205  -14.2267   17.4709 C   0  0  0  0  0  0  0  0  0  0  0  0
   16.3406  -15.1896   17.5579 O   0  0  0  0  0  0  0  0  0  0  0  0
   14.3451  -14.1085   18.3604 C   0  0  0  0  0  0  0  0  0  0  0  0
   13.7393  -15.4648   18.7011 C   0  0  2  0  0  0  0  0  0  0  0  0
   12.8843  -15.8896   17.5736 N   0  0  0  0  0  0  0  0  0  0  0  0
   12.8328  -15.2309   19.8498 C   0  0  0  0  0  0  0  0  0  0  0  0
   13.2468  -14.6207   20.8833 O   0  0  0  0  0  0  0  0  0  0  0  0
   11.4820  -15.6648   19.8642 N   0  0  0  0  0  0  0  0  0  0  0  0
   10.6955  -15.4519   21.0808 C   0  0  1  0  0  0  0  0  0  0  0  0
    9.2373  -15.4685   20.5952 C   0  0  0  0  0  0  0  0  0  0  0  0
    8.9616  -14.3467   19.6813 C   0  0  0  0  0  0  0  0  0  0  0  0
    8.7609  -13.0406   20.0046 C   0  0  0  0  0  0  0  0  0  0  0  0
    8.5490  -12.3782   18.8614 N   0  0  0  0  0  0  0  0  0  0  0  0
    8.6190  -13.2659   17.8450 C   0  0  0  0  0  0  0  0  0  0  0  0
    8.8754  -14.4926   18.3507 N   0  0  0  0  0  0  0  0  0  0  0  0
   10.9187  -16.5108   22.0691 C   0  0  0  0  0  0  0  0  0  0  0  0
   11.3218  -17.6418   21.6939 O   0  0  0  0  0  0  0  0  0  0  0  0
   10.6872  -16.2787   23.4360 N   0  0  0  0  0  0  0  0  0  0  0  0
   10.8917  -17.2429   24.4791 C   0  0  1  0  0  0  0  0  0  0  0  0
   11.0635  -16.6091   25.8695 C   0  0  0  0  0  0  0  0  0  0  0  0
   11.2683  -17.5996   26.9208 C   0  0  0  0  0  0  0  0  0  0  0  0
   10.3698  -17.8257   27.7765 O   0  0  0  0  0  0  0  0  0  0  0  0
    9.8824  -18.3165   24.4997 C   0  0  0  0  0  0  0  0  0  0  0  0
    8.7450  -18.1013   24.0175 O   0  0  0  0  0  0  0  0  0  0  0  0
   12.4505  -18.3370   27.0285 O   0  0  0  0  0  0  0  0  0  0  0  0
   10.1382  -19.5648   25.0319 O   0  0  0  0  0  0  0  0  0  0  0  0
  2  3  2  0
  2  1  1  0
  4  2  1  0
  5  4  1  0
  5  7  1  0
  5  6  1  6
  7  8  2  0
  9 10  1  0
  9  7  1  0
 11 12  1  0
 10 11  1  6
 12 16  1  0
 13 14  1  0
 13 12  2  0
 14 15  1  0
 15 16  2  0
 17 10  1  0
 17 18  2  0
 19 17  1  0
 20 19  1  0
 20 24  1  0
 20 21  1  1
 22 23  2  0
 22 21  1  0
 24 25  2  0
 24 27  1  0
 26 22  1  0
M  END
$$$$
