NHD.pdb
     RDKit          3D

 27 27  0  0  1  0  0  0  0  0999 V2000
    6.2357  -19.4160   16.3360 N   0  0  0  0  0  0  0  0  0  0  0  0
    7.2375  -19.8988   17.1950 C   0  0  0  0  0  0  0  0  0  0  0  0
    7.2271  -21.1195   17.5372 O   0  0  0  0  0  0  0  0  0  0  0  0
    8.2704  -18.9543   17.6721 C   0  0  0  0  0  0  0  0  0  0  0  0
    8.2545  -18.7976   19.1880 C   0  0  2  0  0  0  0  0  0  0  0  0
    6.8497  -18.6766   19.6290 N   0  0  0  0  0  0  0  0  0  0  0  0
    8.8967  -17.4924   19.4710 C   0  0  0  0  0  0  0  0  0  0  0  0
   10.0097  -17.1932   18.9384 O   0  0  0  0  0  0  0  0  0  0  0  0
    8.3218  -16.5234   20.3333 N   0  0  0  0  0  0  0  0  0  0  0  0
    9.0928  -15.3159   20.6356 C   0  0  1  0  0  0  0  0  0  0  0  0
    8.1015  -14.1657   20.3977 C   0  0  0  0  0  0  0  0  0  0  0  0
    7.8764  -13.9381   18.9599 C   0  0  0  0  0  0  0  0  0  0  0  0
    8.1145  -12.8021   18.2503 C   0  0  0  0  0  0  0  0  0  0  0  0
    7.7669  -13.0479   16.9818 N   0  0  0  0  0  0  0  0  0  0  0  0
    7.3202  -14.3211   16.9101 C   0  0  0  0  0  0  0  0  0  0  0  0
    7.3863  -14.8791   18.1391 N   0  0  0  0  0  0  0  0  0  0  0  0
    9.5692  -15.3035   22.0216 C   0  0  0  0  0  0  0  0  0  0  0  0
    8.8077  -14.9078   22.9413 O   0  0  0  0  0  0  0  0  0  0  0  0
   10.8710  -15.7292   22.3381 N   0  0  0  0  0  0  0  0  0  0  0  0
   11.4029  -15.8268   23.6674 C   0  0  1  0  0  0  0  0  0  0  0  0
   10.5525  -16.7042   24.6009 C   0  0  0  0  0  0  0  0  0  0  0  0
   10.6267  -18.1223   24.2667 C   0  0  0  0  0  0  0  0  0  0  0  0
   11.2684  -18.5124   23.2535 O   0  0  0  0  0  0  0  0  0  0  0  0
   12.8231  -16.2174   23.7100 C   0  0  0  0  0  0  0  0  0  0  0  0
   13.3555  -16.7151   22.6894 O   0  0  0  0  0  0  0  0  0  0  0  0
   10.0022  -19.1032   25.0419 O   0  0  0  0  0  0  0  0  0  0  0  0
   13.6032  -16.0561   24.8380 O   0  0  0  0  0  0  0  0  0  0  0  0
  2  3  2  0
  2  1  1  0
  4  2  1  0
  5  4  1  0
  5  7  1  0
  5  6  1  6
  7  8  2  0
  9 10  1  0
  9  7  1  0
 11 12  1  0
 10 11  1  1
 12 16  1  0
 13 14  1  0
 13 12  2  0
 14 15  1  0
 15 16  2  0
 17 10  1  0
 17 18  2  0
 19 17  1  0
 20 19  1  0
 20 24  1  0
 20 21  1  1
 22 23  2  0
 22 21  1  0
 24 25  2  0
 24 27  1  0
 26 22  1  0
M  END
$$$$
