NHD.pdb
     RDKit          3D

 27 27  0  0  1  0  0  0  0  0999 V2000
    9.3996  -18.7827   15.5192 N   0  0  0  0  0  0  0  0  0  0  0  0
    9.1886  -17.3942   15.5629 C   0  0  0  0  0  0  0  0  0  0  0  0
    8.6215  -16.8209   14.5846 O   0  0  0  0  0  0  0  0  0  0  0  0
    9.6440  -16.6505   16.7572 C   0  0  0  0  0  0  0  0  0  0  0  0
   10.3919  -17.5410   17.7423 C   0  0  2  0  0  0  0  0  0  0  0  0
    9.5006  -18.6516   18.1358 N   0  0  0  0  0  0  0  0  0  0  0  0
   10.6011  -16.7202   18.9583 C   0  0  0  0  0  0  0  0  0  0  0  0
   11.6159  -15.9639   19.0582 O   0  0  0  0  0  0  0  0  0  0  0  0
    9.7032  -16.7305   20.0568 N   0  0  0  0  0  0  0  0  0  0  0  0
   10.0338  -15.9243   21.2336 C   0  0  1  0  0  0  0  0  0  0  0  0
    8.6727  -15.4237   21.7426 C   0  0  0  0  0  0  0  0  0  0  0  0
    8.0455  -14.5001   20.7817 C   0  0  0  0  0  0  0  0  0  0  0  0
    8.1962  -13.1502   20.7058 C   0  0  0  0  0  0  0  0  0  0  0  0
    7.4451  -12.7253   19.6832 N   0  0  0  0  0  0  0  0  0  0  0  0
    6.8388  -13.8011   19.1346 C   0  0  0  0  0  0  0  0  0  0  0  0
    7.2093  -14.9081   19.8154 N   0  0  0  0  0  0  0  0  0  0  0  0
   10.7081  -16.7152   22.2668 C   0  0  0  0  0  0  0  0  0  0  0  0
   10.3640  -17.9088   22.4651 O   0  0  0  0  0  0  0  0  0  0  0  0
   11.7382  -16.1555   23.0426 N   0  0  0  0  0  0  0  0  0  0  0  0
   12.4046  -16.8203   24.1258 C   0  0  1  0  0  0  0  0  0  0  0  0
   13.8084  -16.2618   24.4121 C   0  0  0  0  0  0  0  0  0  0  0  0
   14.6465  -16.2009   23.2196 C   0  0  0  0  0  0  0  0  0  0  0  0
   14.7756  -17.2077   22.4711 O   0  0  0  0  0  0  0  0  0  0  0  0
   11.5983  -16.9021   25.3566 C   0  0  0  0  0  0  0  0  0  0  0  0
   10.5054  -16.2902   25.4182 O   0  0  0  0  0  0  0  0  0  0  0  0
   15.3351  -15.0416   22.8524 O   0  0  0  0  0  0  0  0  0  0  0  0
   11.9979  -17.6332   26.4578 O   0  0  0  0  0  0  0  0  0  0  0  0
  2  3  2  0
  2  1  1  0
  4  2  1  0
  5  4  1  0
  5  7  1  0
  5  6  1  1
  7  8  2  0
  9 10  1  0
  9  7  1  0
 11 12  1  0
 10 11  1  1
 12 16  1  0
 13 14  1  0
 13 12  2  0
 14 15  1  0
 15 16  2  0
 17 10  1  0
 17 18  2  0
 19 17  1  0
 20 19  1  0
 20 24  1  0
 20 21  1  1
 22 23  2  0
 22 21  1  0
 24 25  2  0
 24 27  1  0
 26 22  1  0
M  END
$$$$
