NHD.pdb
     RDKit          3D

 27 27  0  0  1  0  0  0  0  0999 V2000
   10.3709  -17.4086   13.6389 N   0  0  0  0  0  0  0  0  0  0  0  0
    9.9342  -16.1063   13.9350 C   0  0  0  0  0  0  0  0  0  0  0  0
    9.4309  -15.3954   13.0138 O   0  0  0  0  0  0  0  0  0  0  0  0
   10.0840  -15.6119   15.3206 C   0  0  0  0  0  0  0  0  0  0  0  0
   10.8568  -16.5862   16.2016 C   0  0  2  0  0  0  0  0  0  0  0  0
    9.9903  -17.7498   16.4807 N   0  0  0  0  0  0  0  0  0  0  0  0
   11.0596  -15.8944   17.4963 C   0  0  0  0  0  0  0  0  0  0  0  0
   11.8400  -14.8962   17.5780 O   0  0  0  0  0  0  0  0  0  0  0  0
   10.4113  -16.2962   18.6927 N   0  0  0  0  0  0  0  0  0  0  0  0
   10.6665  -15.5296   19.9139 C   0  0  1  0  0  0  0  0  0  0  0  0
    9.2691  -15.2858   20.5054 C   0  0  0  0  0  0  0  0  0  0  0  0
    8.6186  -14.1185   19.8857 C   0  0  0  0  0  0  0  0  0  0  0  0
    9.1201  -13.3023   18.9197 C   0  0  0  0  0  0  0  0  0  0  0  0
    8.1873  -12.3792   18.6584 N   0  0  0  0  0  0  0  0  0  0  0  0
    7.1227  -12.6240   19.4538 C   0  0  0  0  0  0  0  0  0  0  0  0
    7.3868  -13.7056   20.2198 N   0  0  0  0  0  0  0  0  0  0  0  0
   11.5019  -16.2723   20.8617 C   0  0  0  0  0  0  0  0  0  0  0  0
   11.4429  -17.5284   20.8968 O   0  0  0  0  0  0  0  0  0  0  0  0
   12.3715  -15.5972   21.7359 N   0  0  0  0  0  0  0  0  0  0  0  0
   13.2111  -16.2316   22.7116 C   0  0  1  0  0  0  0  0  0  0  0  0
   14.4185  -15.3744   23.1260 C   0  0  0  0  0  0  0  0  0  0  0  0
   15.4010  -15.2279   22.0576 C   0  0  0  0  0  0  0  0  0  0  0  0
   15.3359  -15.9425   21.0204 O   0  0  0  0  0  0  0  0  0  0  0  0
   12.4785  -16.7312   23.8886 C   0  0  0  0  0  0  0  0  0  0  0  0
   13.0725  -17.4577   24.7205 O   0  0  0  0  0  0  0  0  0  0  0  0
   16.4450  -14.3016   22.1285 O   0  0  0  0  0  0  0  0  0  0  0  0
   11.1508  -16.4295   24.1189 O   0  0  0  0  0  0  0  0  0  0  0  0
  2  3  2  0
  2  1  1  0
  4  2  1  0
  5  4  1  0
  5  7  1  0
  5  6  1  1
  7  8  2  0
  9 10  1  0
  9  7  1  0
 11 12  1  0
 10 11  1  1
 12 16  1  0
 13 14  1  0
 13 12  2  0
 14 15  1  0
 15 16  2  0
 17 10  1  0
 17 18  2  0
 19 17  1  0
 20 19  1  0
 20 24  1  0
 20 21  1  1
 22 23  2  0
 22 21  1  0
 24 25  2  0
 24 27  1  0
 26 22  1  0
M  END
$$$$
