NHD.pdb
     RDKit          3D

 27 27  0  0  1  0  0  0  0  0999 V2000
   15.6956  -15.2293   17.0106 N   0  0  0  0  0  0  0  0  0  0  0  0
   14.9875  -14.0245   17.1570 C   0  0  0  0  0  0  0  0  0  0  0  0
   15.4718  -12.9568   16.6745 O   0  0  0  0  0  0  0  0  0  0  0  0
   13.6964  -14.0502   17.8776 C   0  0  0  0  0  0  0  0  0  0  0  0
   13.3895  -15.4225   18.4650 C   0  0  2  0  0  0  0  0  0  0  0  0
   12.6422  -16.2037   17.4580 N   0  0  0  0  0  0  0  0  0  0  0  0
   12.4547  -15.1860   19.5904 C   0  0  0  0  0  0  0  0  0  0  0  0
   12.8071  -14.4758   20.5820 O   0  0  0  0  0  0  0  0  0  0  0  0
   11.1432  -15.7261   19.6271 N   0  0  0  0  0  0  0  0  0  0  0  0
   10.3467  -15.5377   20.8413 C   0  0  1  0  0  0  0  0  0  0  0  0
    8.9013  -15.4264   20.3308 C   0  0  0  0  0  0  0  0  0  0  0  0
    8.7500  -14.3095   19.3825 C   0  0  0  0  0  0  0  0  0  0  0  0
    8.6162  -12.9866   19.6700 C   0  0  0  0  0  0  0  0  0  0  0  0
    8.5116  -12.3371   18.5048 N   0  0  0  0  0  0  0  0  0  0  0  0
    8.5809  -13.2493   17.5103 C   0  0  0  0  0  0  0  0  0  0  0  0
    8.7289  -14.4785   18.0519 N   0  0  0  0  0  0  0  0  0  0  0  0
   10.4789  -16.6690   21.7636 C   0  0  0  0  0  0  0  0  0  0  0  0
   10.7119  -17.8199   21.3125 O   0  0  0  0  0  0  0  0  0  0  0  0
   10.3480  -16.4845   23.1509 N   0  0  0  0  0  0  0  0  0  0  0  0
   10.4069  -17.5336   24.1283 C   0  0  1  0  0  0  0  0  0  0  0  0
   10.7808  -17.0360   25.5344 C   0  0  0  0  0  0  0  0  0  0  0  0
   12.1258  -16.4746   25.5963 C   0  0  0  0  0  0  0  0  0  0  0  0
   12.9847  -16.7621   24.7187 O   0  0  0  0  0  0  0  0  0  0  0  0
    9.2016  -18.3806   24.1617 C   0  0  0  0  0  0  0  0  0  0  0  0
    8.1720  -18.0104   23.5489 O   0  0  0  0  0  0  0  0  0  0  0  0
   12.5221  -15.6023   26.6137 O   0  0  0  0  0  0  0  0  0  0  0  0
    9.1562  -19.5796   24.8454 O   0  0  0  0  0  0  0  0  0  0  0  0
  2  3  2  0
  2  1  1  0
  4  2  1  0
  5  4  1  0
  5  7  1  0
  5  6  1  6
  7  8  2  0
  9 10  1  0
  9  7  1  0
 11 12  1  0
 10 11  1  6
 12 16  1  0
 13 14  1  0
 13 12  2  0
 14 15  1  0
 15 16  2  0
 17 10  1  0
 17 18  2  0
 19 17  1  0
 20 19  1  0
 20 24  1  0
 20 21  1  1
 22 23  2  0
 22 21  1  0
 24 25  2  0
 24 27  1  0
 26 22  1  0
M  END
$$$$
