QGL.pdb
     RDKit          3D

 22 21  0  0  1  0  0  0  0  0999 V2000
    7.6724  -20.7874   18.2194 N   0  0  0  0  0  0  0  0  0  0  0  0
    7.7788  -19.3505   18.1047 C   0  0  0  0  0  0  0  0  0  0  0  0
    8.8707  -18.9009   17.7497 O   0  0  0  0  0  0  0  0  0  0  0  0
    6.6290  -18.4858   18.3976 C   0  0  0  0  0  0  0  0  0  0  0  0
    6.9512  -17.2677   19.2024 C   0  0  0  0  0  0  0  0  0  0  0  0
    7.1557  -17.5113   20.6557 C   0  0  2  0  0  0  0  0  0  0  0  0
    6.0104  -17.8837   21.4146 N   0  0  0  0  0  0  0  0  0  0  0  0
    7.6764  -16.2220   21.2367 C   0  0  0  0  0  0  0  0  0  0  0  0
    6.9165  -15.3428   21.7007 O   0  0  0  0  0  0  0  0  0  0  0  0
    9.1041  -15.9988   21.2564 N   0  0  0  0  0  0  0  0  0  0  0  0
    9.5385  -14.7103   21.6956 C   0  0  0  0  0  0  0  0  0  0  0  0
    9.4976  -14.5716   23.1650 C   0  0  0  0  0  0  0  0  0  0  0  0
   10.4812  -13.9834   23.7457 O   0  0  0  0  0  0  0  0  0  0  0  0
    8.1937  -11.9409   25.6176 C   0  0  0  0  0  0  0  0  0  0  0  0
    7.4068  -12.8465   26.5761 C   0  0  1  0  0  0  0  0  0  0  0  0
    6.1219  -12.1535   26.8730 C   0  0  0  0  0  0  0  0  0  0  0  0
    7.2571  -14.1649   25.8879 C   0  0  0  0  0  0  0  0  0  0  0  0
    8.5664  -14.7633   25.4466 C   0  0  2  0  0  0  0  0  0  0  0  0
    8.4784  -15.0216   24.0224 N   0  0  0  0  0  0  0  0  0  0  0  0
    8.7729  -16.0601   26.1561 C   0  0  0  0  0  0  0  0  0  0  0  0
    9.1948  -16.1176   27.4850 O   0  0  0  0  0  0  0  0  0  0  0  0
    8.5765  -17.1671   25.5906 O   0  0  0  0  0  0  0  0  0  0  0  0
  2  1  1  0
  2  3  2  0
  4  2  1  0
  5  4  1  0
  6  5  1  0
  6  7  1  1
  8  6  1  0
  8 10  1  0
  9  8  2  0
 11 10  1  0
 11 12  1  0
 12 19  1  0
 13 12  2  0
 15 14  1  6
 16 15  1  0
 17 15  1  0
 18 17  1  1
 19 18  1  0
 20 21  1  0
 20 18  1  0
 22 20  2  0
M  END
$$$$
