QGL.pdb
     RDKit          3D

 22 21  0  0  1  0  0  0  0  0999 V2000
    8.7195  -19.4673   16.3240 N   0  0  0  0  0  0  0  0  0  0  0  0
    9.2697  -19.4014   17.6589 C   0  0  0  0  0  0  0  0  0  0  0  0
   10.3423  -19.9799   17.8469 O   0  0  0  0  0  0  0  0  0  0  0  0
    8.5713  -18.6722   18.7248 C   0  0  0  0  0  0  0  0  0  0  0  0
    9.2765  -17.4466   19.2105 C   0  0  0  0  0  0  0  0  0  0  0  0
    9.3484  -17.3084   20.6900 C   0  0  2  0  0  0  0  0  0  0  0  0
    8.6963  -18.3097   21.4636 N   0  0  0  0  0  0  0  0  0  0  0  0
    8.7010  -15.9904   21.0287 C   0  0  0  0  0  0  0  0  0  0  0  0
    9.0162  -14.9238   20.4552 O   0  0  0  0  0  0  0  0  0  0  0  0
    7.6809  -15.9633   22.0520 N   0  0  0  0  0  0  0  0  0  0  0  0
    7.0932  -14.6905   22.3281 C   0  0  0  0  0  0  0  0  0  0  0  0
    7.8671  -13.9143   23.3173 C   0  0  0  0  0  0  0  0  0  0  0  0
    7.4749  -12.7224   23.5933 O   0  0  0  0  0  0  0  0  0  0  0  0
    5.8911  -12.4032   26.4009 C   0  0  0  0  0  0  0  0  0  0  0  0
    7.2233  -12.6213   25.6689 C   0  0  1  0  0  0  0  0  0  0  0  0
    8.1783  -11.6040   26.1908 C   0  0  0  0  0  0  0  0  0  0  0  0
    7.6226  -14.0384   25.9269 C   0  0  0  0  0  0  0  0  0  0  0  0
    9.0164  -14.3635   25.4591 C   0  0  2  0  0  0  0  0  0  0  0  0
    9.0136  -14.3425   24.0091 N   0  0  0  0  0  0  0  0  0  0  0  0
    9.3755  -15.7380   25.9169 C   0  0  0  0  0  0  0  0  0  0  0  0
    9.5172  -16.8017   25.0248 O   0  0  0  0  0  0  0  0  0  0  0  0
    9.5685  -16.0061   27.1312 O   0  0  0  0  0  0  0  0  0  0  0  0
  2  1  1  0
  2  3  2  0
  4  2  1  0
  5  4  1  0
  6  5  1  0
  6  7  1  1
  8  6  1  0
  8 10  1  0
  9  8  2  0
 11 10  1  0
 11 12  1  0
 12 19  1  0
 13 12  2  0
 15 14  1  1
 16 15  1  0
 17 15  1  0
 18 17  1  6
 19 18  1  0
 20 21  1  0
 20 18  1  0
 22 20  2  0
M  END
$$$$
