QGL.pdb
     RDKit          3D

 22 21  0  0  1  0  0  0  0  0999 V2000
    7.0541  -20.2048   27.4186 N   0  0  0  0  0  0  0  0  0  0  0  0
    8.1141  -19.9912   26.4595 C   0  0  0  0  0  0  0  0  0  0  0  0
    9.2585  -20.2687   26.8254 O   0  0  0  0  0  0  0  0  0  0  0  0
    7.8209  -19.4715   25.1181 C   0  0  0  0  0  0  0  0  0  0  0  0
    6.4166  -19.6919   24.6549 C   0  0  0  0  0  0  0  0  0  0  0  0
    6.1604  -19.3328   23.2341 C   0  0  2  0  0  0  0  0  0  0  0  0
    7.1202  -19.7662   22.2763 N   0  0  0  0  0  0  0  0  0  0  0  0
    6.1180  -17.8276   23.1740 C   0  0  0  0  0  0  0  0  0  0  0  0
    5.3596  -17.1505   23.9036 O   0  0  0  0  0  0  0  0  0  0  0  0
    6.9858  -17.1476   22.2396 N   0  0  0  0  0  0  0  0  0  0  0  0
    6.9527  -15.7194   22.2673 C   0  0  0  0  0  0  0  0  0  0  0  0
    7.7987  -15.1561   23.3382 C   0  0  0  0  0  0  0  0  0  0  0  0
    9.0432  -14.9594   23.0869 O   0  0  0  0  0  0  0  0  0  0  0  0
    5.9401  -11.5388   26.7954 C   0  0  0  0  0  0  0  0  0  0  0  0
    6.7973  -12.2567   25.7428 C   0  0  1  0  0  0  0  0  0  0  0  0
    7.6175  -11.2141   25.0648 C   0  0  0  0  0  0  0  0  0  0  0  0
    7.5895  -13.2918   26.4745 C   0  0  0  0  0  0  0  0  0  0  0  0
    8.3400  -14.2272   25.5639 C   0  0  2  0  0  0  0  0  0  0  0  0
    7.3864  -14.8015   24.6346 N   0  0  0  0  0  0  0  0  0  0  0  0
    8.9354  -15.3266   26.3789 C   0  0  0  0  0  0  0  0  0  0  0  0
   10.0515  -15.1243   27.1918 O   0  0  0  0  0  0  0  0  0  0  0  0
    8.4601  -16.4919   26.3736 O   0  0  0  0  0  0  0  0  0  0  0  0
  2  1  1  0
  2  3  2  0
  4  2  1  0
  5  4  1  0
  6  5  1  0
  6  7  1  6
  8  6  1  0
  8 10  1  0
  9  8  2  0
 11 10  1  0
 11 12  1  0
 12 19  1  0
 13 12  2  0
 15 14  1  1
 16 15  1  0
 17 15  1  0
 18 17  1  1
 19 18  1  0
 20 21  1  0
 20 18  1  0
 22 20  2  0
M  END
$$$$
