QGL.pdb
     RDKit          3D

 22 21  0  0  1  0  0  0  0  0999 V2000
    1.2090  -19.0015   21.1057 N   0  0  0  0  0  0  0  0  0  0  0  0
    2.6400  -19.1935   21.1711 C   0  0  0  0  0  0  0  0  0  0  0  0
    3.1266  -20.0143   20.3900 O   0  0  0  0  0  0  0  0  0  0  0  0
    3.4574  -18.4351   22.1261 C   0  0  0  0  0  0  0  0  0  0  0  0
    4.4825  -17.5432   21.5025 C   0  0  0  0  0  0  0  0  0  0  0  0
    5.8323  -18.1495   21.3489 C   0  0  2  0  0  0  0  0  0  0  0  0
    6.2761  -19.0083   22.3938 N   0  0  0  0  0  0  0  0  0  0  0  0
    6.8089  -17.0047   21.2668 C   0  0  0  0  0  0  0  0  0  0  0  0
    6.6610  -16.0560   20.4644 O   0  0  0  0  0  0  0  0  0  0  0  0
    7.9542  -17.0077   22.1482 N   0  0  0  0  0  0  0  0  0  0  0  0
    8.7957  -15.8540   22.0984 C   0  0  0  0  0  0  0  0  0  0  0  0
    9.1166  -15.3312   23.4415 C   0  0  0  0  0  0  0  0  0  0  0  0
   10.2813  -14.8235   23.6317 O   0  0  0  0  0  0  0  0  0  0  0  0
    5.8228  -12.6262   26.5053 C   0  0  0  0  0  0  0  0  0  0  0  0
    7.0704  -13.0945   25.7424 C   0  0  1  0  0  0  0  0  0  0  0  0
    7.9269  -11.8941   25.5302 C   0  0  0  0  0  0  0  0  0  0  0  0
    7.6985  -14.1669   26.5730 C   0  0  0  0  0  0  0  0  0  0  0  0
    8.7880  -14.9197   25.8565 C   0  0  2  0  0  0  0  0  0  0  0  0
    8.2705  -15.3258   24.5642 N   0  0  0  0  0  0  0  0  0  0  0  0
    9.1312  -16.1428   26.6402 C   0  0  0  0  0  0  0  0  0  0  0  0
    9.0171  -17.4242   26.0996 O   0  0  0  0  0  0  0  0  0  0  0  0
    9.5407  -16.0791   27.8284 O   0  0  0  0  0  0  0  0  0  0  0  0
  2  1  1  0
  2  3  2  0
  4  2  1  0
  5  4  1  0
  6  5  1  0
  6  7  1  1
  8  6  1  0
  8 10  1  0
  9  8  2  0
 11 10  1  0
 11 12  1  0
 12 19  1  0
 13 12  2  0
 15 14  1  1
 16 15  1  0
 17 15  1  0
 18 17  1  1
 19 18  1  0
 20 21  1  0
 20 18  1  0
 22 20  2  0
M  END
$$$$
