QGL.pdb
     RDKit          3D

 22 21  0  0  1  0  0  0  0  0999 V2000
    8.2064  -19.0520   16.8030 N   0  0  0  0  0  0  0  0  0  0  0  0
    7.6944  -17.8156   17.3490 C   0  0  0  0  0  0  0  0  0  0  0  0
    7.3515  -16.9508   16.5397 O   0  0  0  0  0  0  0  0  0  0  0  0
    7.5920  -17.6202   18.8005 C   0  0  0  0  0  0  0  0  0  0  0  0
    7.9136  -18.8293   19.6190 C   0  0  0  0  0  0  0  0  0  0  0  0
    7.8475  -18.6266   21.0913 C   0  0  2  0  0  0  0  0  0  0  0  0
    6.7195  -17.9192   21.5949 N   0  0  0  0  0  0  0  0  0  0  0  0
    9.0746  -17.8381   21.4703 C   0  0  0  0  0  0  0  0  0  0  0  0
   10.1563  -17.9459   20.8505 O   0  0  0  0  0  0  0  0  0  0  0  0
    8.9934  -16.9269   22.5891 N   0  0  0  0  0  0  0  0  0  0  0  0
   10.1551  -16.1367   22.8490 C   0  0  0  0  0  0  0  0  0  0  0  0
   10.0309  -15.3408   24.0864 C   0  0  0  0  0  0  0  0  0  0  0  0
   11.0616  -14.6921   24.4956 O   0  0  0  0  0  0  0  0  0  0  0  0
    5.8074  -12.6989   26.3677 C   0  0  0  0  0  0  0  0  0  0  0  0
    7.1978  -13.0832   25.8412 C   0  0  1  0  0  0  0  0  0  0  0  0
    8.0419  -11.8574   25.9066 C   0  0  0  0  0  0  0  0  0  0  0  0
    7.6771  -14.2138   26.6934 C   0  0  0  0  0  0  0  0  0  0  0  0
    9.0101  -14.7661   26.2630 C   0  0  2  0  0  0  0  0  0  0  0  0
    8.8835  -15.2092   24.8880 N   0  0  0  0  0  0  0  0  0  0  0  0
    9.3477  -15.9435   27.1159 C   0  0  0  0  0  0  0  0  0  0  0  0
    9.4257  -17.2360   26.5957 O   0  0  0  0  0  0  0  0  0  0  0  0
    9.5789  -15.8291   28.3476 O   0  0  0  0  0  0  0  0  0  0  0  0
  2  1  1  0
  2  3  2  0
  4  2  1  0
  5  4  1  0
  6  5  1  0
  6  7  1  6
  8  6  1  0
  8 10  1  0
  9  8  2  0
 11 10  1  0
 11 12  1  0
 12 19  1  0
 13 12  2  0
 15 14  1  1
 16 15  1  0
 17 15  1  0
 18 17  1  1
 19 18  1  0
 20 21  1  0
 20 18  1  0
 22 20  2  0
M  END
$$$$
