QGL.pdb
     RDKit          3D

 22 21  0  0  1  0  0  0  0  0999 V2000
    2.9509  -20.0964   19.7132 N   0  0  0  0  0  0  0  0  0  0  0  0
    2.2948  -19.2500   20.6838 C   0  0  0  0  0  0  0  0  0  0  0  0
    1.1781  -19.6060   21.0666 O   0  0  0  0  0  0  0  0  0  0  0  0
    2.9456  -18.0311   21.1802 C   0  0  0  0  0  0  0  0  0  0  0  0
    4.3001  -17.7665   20.6054 C   0  0  0  0  0  0  0  0  0  0  0  0
    5.4319  -18.3626   21.3650 C   0  0  2  0  0  0  0  0  0  0  0  0
    5.2286  -18.5854   22.7561 N   0  0  0  0  0  0  0  0  0  0  0  0
    6.5887  -17.4062   21.2303 C   0  0  0  0  0  0  0  0  0  0  0  0
    7.0263  -17.0389   20.1170 O   0  0  0  0  0  0  0  0  0  0  0  0
    7.2102  -16.8984   22.4321 N   0  0  0  0  0  0  0  0  0  0  0  0
    8.3340  -16.0352   22.2488 C   0  0  0  0  0  0  0  0  0  0  0  0
    8.8326  -15.4798   23.5227 C   0  0  0  0  0  0  0  0  0  0  0  0
    9.9238  -14.8019   23.5023 O   0  0  0  0  0  0  0  0  0  0  0  0
    6.0224  -12.4919   26.5947 C   0  0  0  0  0  0  0  0  0  0  0  0
    7.2654  -13.0162   25.8611 C   0  0  1  0  0  0  0  0  0  0  0  0
    8.2276  -11.8826   25.7703 C   0  0  0  0  0  0  0  0  0  0  0  0
    7.7589  -14.1887   26.6461 C   0  0  0  0  0  0  0  0  0  0  0  0
    8.8346  -14.9722   25.9418 C   0  0  2  0  0  0  0  0  0  0  0  0
    8.2335  -15.6121   24.7877 N   0  0  0  0  0  0  0  0  0  0  0  0
    9.3482  -16.0295   26.8616 C   0  0  0  0  0  0  0  0  0  0  0  0
   10.1561  -15.7274   27.9586 O   0  0  0  0  0  0  0  0  0  0  0  0
    9.0780  -17.2470   26.6934 O   0  0  0  0  0  0  0  0  0  0  0  0
  2  1  1  0
  2  3  2  0
  4  2  1  0
  5  4  1  0
  6  5  1  0
  6  7  1  1
  8  6  1  0
  8 10  1  0
  9  8  2  0
 11 10  1  0
 11 12  1  0
 12 19  1  0
 13 12  2  0
 15 14  1  1
 16 15  1  0
 17 15  1  0
 18 17  1  1
 19 18  1  0
 20 21  1  0
 20 18  1  0
 22 20  2  0
M  END
$$$$
