QGL.pdb
     RDKit          3D

 22 21  0  0  1  0  0  0  0  0999 V2000
    6.1043  -20.3888   18.9144 N   0  0  0  0  0  0  0  0  0  0  0  0
    5.0017  -19.4583   19.0004 C   0  0  0  0  0  0  0  0  0  0  0  0
    3.8664  -19.9342   18.9295 O   0  0  0  0  0  0  0  0  0  0  0  0
    5.2432  -18.0199   19.1678 C   0  0  0  0  0  0  0  0  0  0  0  0
    6.6828  -17.6182   19.1280 C   0  0  0  0  0  0  0  0  0  0  0  0
    7.4465  -17.8948   20.3743 C   0  0  2  0  0  0  0  0  0  0  0  0
    6.6902  -18.0875   21.5648 N   0  0  0  0  0  0  0  0  0  0  0  0
    8.3408  -16.7033   20.6015 C   0  0  0  0  0  0  0  0  0  0  0  0
    8.9938  -16.1713   19.6761 O   0  0  0  0  0  0  0  0  0  0  0  0
    8.4439  -16.1601   21.9368 N   0  0  0  0  0  0  0  0  0  0  0  0
    9.6105  -15.3843   22.2175 C   0  0  0  0  0  0  0  0  0  0  0  0
    9.6518  -14.9133   23.6162 C   0  0  0  0  0  0  0  0  0  0  0  0
   10.7258  -14.3442   24.0325 O   0  0  0  0  0  0  0  0  0  0  0  0
    5.7097  -12.5344   26.2103 C   0  0  0  0  0  0  0  0  0  0  0  0
    7.1109  -12.8694   25.6787 C   0  0  1  0  0  0  0  0  0  0  0  0
    7.9300  -11.6310   25.8003 C   0  0  0  0  0  0  0  0  0  0  0  0
    7.6070  -14.0244   26.4874 C   0  0  0  0  0  0  0  0  0  0  0  0
    8.8709  -14.6374   25.9451 C   0  0  2  0  0  0  0  0  0  0  0  0
    8.6230  -15.0197   24.5684 N   0  0  0  0  0  0  0  0  0  0  0  0
    9.1933  -15.8643   26.7316 C   0  0  0  0  0  0  0  0  0  0  0  0
    9.6231  -15.8015   28.0577 O   0  0  0  0  0  0  0  0  0  0  0  0
    9.0935  -17.0173   26.2375 O   0  0  0  0  0  0  0  0  0  0  0  0
  2  1  1  0
  2  3  2  0
  4  2  1  0
  5  4  1  0
  6  5  1  0
  6  7  1  1
  8  6  1  0
  8 10  1  0
  9  8  2  0
 11 10  1  0
 11 12  1  0
 12 19  1  0
 13 12  2  0
 15 14  1  1
 16 15  1  0
 17 15  1  0
 18 17  1  1
 19 18  1  0
 20 21  1  0
 20 18  1  0
 22 20  2  0
M  END
$$$$
