QGL.pdb
     RDKit          3D

 22 21  0  0  1  0  0  0  0  0999 V2000
   13.1872  -14.0290   20.4406 N   0  0  0  0  0  0  0  0  0  0  0  0
   12.9235  -14.5021   19.1006 C   0  0  0  0  0  0  0  0  0  0  0  0
   13.9008  -14.8354   18.4267 O   0  0  0  0  0  0  0  0  0  0  0  0
   11.5502  -14.5782   18.5869 C   0  0  0  0  0  0  0  0  0  0  0  0
   10.5030  -14.0635   19.5216 C   0  0  0  0  0  0  0  0  0  0  0  0
    9.1007  -14.2860   19.0774 C   0  0  2  0  0  0  0  0  0  0  0  0
    8.5144  -13.2763   18.2631 N   0  0  0  0  0  0  0  0  0  0  0  0
    8.2670  -14.3908   20.3284 C   0  0  0  0  0  0  0  0  0  0  0  0
    7.6270  -13.4189   20.7886 O   0  0  0  0  0  0  0  0  0  0  0  0
    8.2078  -15.6604   21.0161 N   0  0  0  0  0  0  0  0  0  0  0  0
    7.3376  -15.7289   22.1474 C   0  0  0  0  0  0  0  0  0  0  0  0
    8.0094  -15.3318   23.4008 C   0  0  0  0  0  0  0  0  0  0  0  0
    9.2759  -15.1181   23.3681 O   0  0  0  0  0  0  0  0  0  0  0  0
    5.8142  -12.0217   26.9498 C   0  0  0  0  0  0  0  0  0  0  0  0
    6.8093  -12.6758   25.9803 C   0  0  1  0  0  0  0  0  0  0  0  0
    7.8304  -11.6447   25.6434 C   0  0  0  0  0  0  0  0  0  0  0  0
    7.3508  -13.8821   26.6774 C   0  0  0  0  0  0  0  0  0  0  0  0
    8.2080  -14.7503   25.7950 C   0  0  2  0  0  0  0  0  0  0  0  0
    7.4050  -15.1567   24.6580 N   0  0  0  0  0  0  0  0  0  0  0  0
    8.6116  -15.9694   26.5557 C   0  0  0  0  0  0  0  0  0  0  0  0
    9.6506  -15.9504   27.4871 O   0  0  0  0  0  0  0  0  0  0  0  0
    8.0343  -17.0761   26.3949 O   0  0  0  0  0  0  0  0  0  0  0  0
  2  1  1  0
  2  3  2  0
  4  2  1  0
  5  4  1  0
  6  5  1  0
  6  7  1  6
  8  6  1  0
  8 10  1  0
  9  8  2  0
 11 10  1  0
 11 12  1  0
 12 19  1  0
 13 12  2  0
 15 14  1  1
 16 15  1  0
 17 15  1  0
 18 17  1  1
 19 18  1  0
 20 21  1  0
 20 18  1  0
 22 20  2  0
M  END
$$$$
