QGL.pdb
     RDKit          3D

 22 21  0  0  1  0  0  0  0  0999 V2000
    8.8085  -18.7339   17.8144 N   0  0  0  0  0  0  0  0  0  0  0  0
    7.5621  -18.2278   17.2857 C   0  0  0  0  0  0  0  0  0  0  0  0
    6.9830  -18.9334   16.4568 O   0  0  0  0  0  0  0  0  0  0  0  0
    7.0267  -16.9350   17.7303 C   0  0  0  0  0  0  0  0  0  0  0  0
    7.8118  -16.2727   18.8165 C   0  0  0  0  0  0  0  0  0  0  0  0
    7.9806  -17.0830   20.0527 C   0  0  2  0  0  0  0  0  0  0  0  0
    6.9212  -17.0387   21.0025 N   0  0  0  0  0  0  0  0  0  0  0  0
    9.2176  -16.5638   20.7392 C   0  0  0  0  0  0  0  0  0  0  0  0
   10.3322  -16.5284   20.1715 O   0  0  0  0  0  0  0  0  0  0  0  0
    9.1069  -16.0913   22.1005 N   0  0  0  0  0  0  0  0  0  0  0  0
   10.3172  -15.6515   22.7195 C   0  0  0  0  0  0  0  0  0  0  0  0
   10.1105  -15.2122   24.1139 C   0  0  0  0  0  0  0  0  0  0  0  0
   11.1456  -14.9224   24.8176 O   0  0  0  0  0  0  0  0  0  0  0  0
    5.7955  -12.5489   26.2308 C   0  0  0  0  0  0  0  0  0  0  0  0
    7.2251  -12.9542   25.8436 C   0  0  1  0  0  0  0  0  0  0  0  0
    8.1179  -11.8276   26.2348 C   0  0  0  0  0  0  0  0  0  0  0  0
    7.5064  -14.2429   26.5469 C   0  0  0  0  0  0  0  0  0  0  0  0
    8.8495  -14.8317   26.2055 C   0  0  2  0  0  0  0  0  0  0  0  0
    8.8781  -15.0714   24.7756 N   0  0  0  0  0  0  0  0  0  0  0  0
    9.0027  -16.1372   26.9125 C   0  0  0  0  0  0  0  0  0  0  0  0
    9.3226  -16.2112   28.2688 O   0  0  0  0  0  0  0  0  0  0  0  0
    8.8508  -17.2371   26.3201 O   0  0  0  0  0  0  0  0  0  0  0  0
  2  1  1  0
  2  3  2  0
  4  2  1  0
  5  4  1  0
  6  5  1  0
  6  7  1  1
  8  6  1  0
  8 10  1  0
  9  8  2  0
 11 10  1  0
 11 12  1  0
 12 19  1  0
 13 12  2  0
 15 14  1  1
 16 15  1  0
 17 15  1  0
 18 17  1  6
 19 18  1  0
 20 21  1  0
 20 18  1  0
 22 20  2  0
M  END
$$$$
