QGL.pdb
     RDKit          3D

 22 21  0  0  1  0  0  0  0  0999 V2000
    7.1968  -12.3614   17.3428 N   0  0  0  0  0  0  0  0  0  0  0  0
    7.5321  -13.7063   16.9332 C   0  0  0  0  0  0  0  0  0  0  0  0
    7.0079  -14.1181   15.8958 O   0  0  0  0  0  0  0  0  0  0  0  0
    8.4575  -14.5250   17.7263 C   0  0  0  0  0  0  0  0  0  0  0  0
    8.9351  -13.8836   18.9895 C   0  0  0  0  0  0  0  0  0  0  0  0
    9.8896  -14.7004   19.7864 C   0  0  2  0  0  0  0  0  0  0  0  0
   10.1257  -16.0321   19.3425 N   0  0  0  0  0  0  0  0  0  0  0  0
    9.3192  -14.7884   21.1785 C   0  0  0  0  0  0  0  0  0  0  0  0
    8.8937  -13.7838   21.7913 O   0  0  0  0  0  0  0  0  0  0  0  0
    9.2637  -16.0806   21.8231 N   0  0  0  0  0  0  0  0  0  0  0  0
   10.1563  -16.2805   22.9208 C   0  0  0  0  0  0  0  0  0  0  0  0
    9.4860  -16.1304   24.2278 C   0  0  0  0  0  0  0  0  0  0  0  0
   10.1450  -16.4413   25.2860 O   0  0  0  0  0  0  0  0  0  0  0  0
    5.8421  -12.3990   25.6782 C   0  0  0  0  0  0  0  0  0  0  0  0
    7.0624  -13.3294   25.7344 C   0  0  1  0  0  0  0  0  0  0  0  0
    7.9170  -12.8587   26.8602 C   0  0  0  0  0  0  0  0  0  0  0  0
    6.5311  -14.7173   25.8958 C   0  0  0  0  0  0  0  0  0  0  0  0
    7.5885  -15.7823   25.7730 C   0  0  2  0  0  0  0  0  0  0  0  0
    8.1751  -15.6743   24.4512 N   0  0  0  0  0  0  0  0  0  0  0  0
    6.9463  -17.1232   25.9033 C   0  0  0  0  0  0  0  0  0  0  0  0
    6.6101  -17.6654   27.1444 O   0  0  0  0  0  0  0  0  0  0  0  0
    6.6757  -17.8323   24.8994 O   0  0  0  0  0  0  0  0  0  0  0  0
  2  1  1  0
  2  3  2  0
  4  2  1  0
  5  4  1  0
  6  5  1  0
  6  7  1  6
  8  6  1  0
  8 10  1  0
  9  8  2  0
 11 10  1  0
 11 12  1  0
 12 19  1  0
 13 12  2  0
 15 14  1  1
 16 15  1  0
 17 15  1  0
 18 17  1  6
 19 18  1  0
 20 21  1  0
 20 18  1  0
 22 20  2  0
M  END
$$$$
