QGL.pdb
     RDKit          3D

 22 21  0  0  1  0  0  0  0  0999 V2000
    8.0356  -12.9471   17.6925 N   0  0  0  0  0  0  0  0  0  0  0  0
    8.5409  -14.0513   16.9086 C   0  0  0  0  0  0  0  0  0  0  0  0
    8.9502  -13.7871   15.7759 O   0  0  0  0  0  0  0  0  0  0  0  0
    8.5605  -15.4140   17.4548 C   0  0  0  0  0  0  0  0  0  0  0  0
    7.9436  -15.5542   18.8094 C   0  0  0  0  0  0  0  0  0  0  0  0
    7.9567  -16.9341   19.3654 C   0  0  2  0  0  0  0  0  0  0  0  0
    7.2821  -17.9381   18.6152 N   0  0  0  0  0  0  0  0  0  0  0  0
    7.2873  -16.8586   20.7135 C   0  0  0  0  0  0  0  0  0  0  0  0
    6.0452  -16.7740   20.8393 O   0  0  0  0  0  0  0  0  0  0  0  0
    8.1136  -16.8857   21.8988 N   0  0  0  0  0  0  0  0  0  0  0  0
    7.4366  -16.7302   23.1475 C   0  0  0  0  0  0  0  0  0  0  0  0
    8.1795  -15.8687   24.0887 C   0  0  0  0  0  0  0  0  0  0  0  0
    9.4586  -15.8154   23.9808 O   0  0  0  0  0  0  0  0  0  0  0  0
    5.8933  -11.7550   27.0044 C   0  0  0  0  0  0  0  0  0  0  0  0
    6.7627  -12.5414   26.0125 C   0  0  1  0  0  0  0  0  0  0  0  0
    7.4797  -11.5405   25.1738 C   0  0  0  0  0  0  0  0  0  0  0  0
    7.6539  -13.4184   26.8315 C   0  0  0  0  0  0  0  0  0  0  0  0
    8.5082  -14.3435   26.0058 C   0  0  2  0  0  0  0  0  0  0  0  0
    7.6319  -15.0801   25.1157 N   0  0  0  0  0  0  0  0  0  0  0  0
    9.1936  -15.3116   26.9117 C   0  0  0  0  0  0  0  0  0  0  0  0
   10.3674  -14.9850   27.5920 O   0  0  0  0  0  0  0  0  0  0  0  0
    8.7465  -16.4717   27.1072 O   0  0  0  0  0  0  0  0  0  0  0  0
  2  1  1  0
  2  3  2  0
  4  2  1  0
  5  4  1  0
  6  5  1  0
  6  7  1  6
  8  6  1  0
  8 10  1  0
  9  8  2  0
 11 10  1  0
 11 12  1  0
 12 19  1  0
 13 12  2  0
 15 14  1  1
 16 15  1  0
 17 15  1  0
 18 17  1  1
 19 18  1  0
 20 21  1  0
 20 18  1  0
 22 20  2  0
M  END
$$$$
