QGL.pdb
     RDKit          3D

 22 21  0  0  1  0  0  0  0  0999 V2000
    6.6405  -18.4571   25.9767 N   0  0  0  0  0  0  0  0  0  0  0  0
    7.0276  -19.4095   24.9608 C   0  0  0  0  0  0  0  0  0  0  0  0
    8.2269  -19.6861   24.8867 O   0  0  0  0  0  0  0  0  0  0  0  0
    6.0249  -20.0102   24.0724 C   0  0  0  0  0  0  0  0  0  0  0  0
    5.4791  -19.0874   23.0303 C   0  0  0  0  0  0  0  0  0  0  0  0
    6.3846  -18.8374   21.8767 C   0  0  2  0  0  0  0  0  0  0  0  0
    7.5743  -19.6162   21.8101 N   0  0  0  0  0  0  0  0  0  0  0  0
    6.8017  -17.3919   21.9654 C   0  0  0  0  0  0  0  0  0  0  0  0
    5.9719  -16.4628   22.0837 O   0  0  0  0  0  0  0  0  0  0  0  0
    8.2103  -17.0737   21.9117 N   0  0  0  0  0  0  0  0  0  0  0  0
    8.5511  -15.6885   21.9940 C   0  0  0  0  0  0  0  0  0  0  0  0
    8.9228  -15.2792   23.3631 C   0  0  0  0  0  0  0  0  0  0  0  0
   10.1682  -15.1056   23.6265 O   0  0  0  0  0  0  0  0  0  0  0  0
    5.7863  -12.2333   26.5897 C   0  0  0  0  0  0  0  0  0  0  0  0
    6.9667  -12.7618   25.7617 C   0  0  1  0  0  0  0  0  0  0  0  0
    7.9392  -11.6415   25.6260 C   0  0  0  0  0  0  0  0  0  0  0  0
    7.4934  -13.9573   26.4881 C   0  0  0  0  0  0  0  0  0  0  0  0
    8.5764  -14.6861   25.7375 C   0  0  2  0  0  0  0  0  0  0  0  0
    8.0461  -15.0522   24.4384 N   0  0  0  0  0  0  0  0  0  0  0  0
    8.9284  -15.9326   26.4790 C   0  0  0  0  0  0  0  0  0  0  0  0
    8.7030  -17.2012   25.9431 O   0  0  0  0  0  0  0  0  0  0  0  0
    9.4465  -15.9015   27.6255 O   0  0  0  0  0  0  0  0  0  0  0  0
  2  1  1  0
  2  3  2  0
  4  2  1  0
  5  4  1  0
  6  5  1  0
  6  7  1  1
  8  6  1  0
  8 10  1  0
  9  8  2  0
 11 10  1  0
 11 12  1  0
 12 19  1  0
 13 12  2  0
 15 14  1  1
 16 15  1  0
 17 15  1  0
 18 17  1  1
 19 18  1  0
 20 21  1  0
 20 18  1  0
 22 20  2  0
M  END
$$$$
