QGL.pdb
     RDKit          3D

 22 21  0  0  1  0  0  0  0  0999 V2000
   -0.5367  -27.2517   30.9204 N   0  0  0  0  0  0  0  0  0  0  0  0
   -1.2936  -28.1983   30.1330 C   0  0  0  0  0  0  0  0  0  0  0  0
   -1.3489  -29.3549   30.5569 O   0  0  0  0  0  0  0  0  0  0  0  0
   -1.9600  -27.7817   28.8929 C   0  0  0  0  0  0  0  0  0  0  0  0
   -2.7128  -28.8668   28.1921 C   0  0  0  0  0  0  0  0  0  0  0  0
   -3.4242  -28.4406   26.9570 C   0  0  2  0  0  0  0  0  0  0  0  0
   -2.8312  -27.3903   26.2011 N   0  0  0  0  0  0  0  0  0  0  0  0
   -4.7867  -27.9643   27.3905 C   0  0  0  0  0  0  0  0  0  0  0  0
   -5.5941  -28.7068   27.9927 O   0  0  0  0  0  0  0  0  0  0  0  0
   -5.1686  -26.6015   27.0983 N   0  0  0  0  0  0  0  0  0  0  0  0
   -6.4311  -26.1727   27.6120 C   0  0  0  0  0  0  0  0  0  0  0  0
   -6.3097  -25.0004   28.5014 C   0  0  0  0  0  0  0  0  0  0  0  0
   -5.5190  -25.0849   29.5106 O   0  0  0  0  0  0  0  0  0  0  0  0
   -4.5991  -20.5891   26.8003 C   0  0  0  0  0  0  0  0  0  0  0  0
   -4.8683  -21.7920   27.7161 C   0  0  1  0  0  0  0  0  0  0  0  0
   -3.7011  -21.9095   28.6344 C   0  0  0  0  0  0  0  0  0  0  0  0
   -6.1709  -21.5233   28.3983 C   0  0  0  0  0  0  0  0  0  0  0  0
   -6.6498  -22.6692   29.2495 C   0  0  2  0  0  0  0  0  0  0  0  0
   -6.9781  -23.7711   28.3657 N   0  0  0  0  0  0  0  0  0  0  0  0
   -7.8860  -22.2534   29.9751 C   0  0  0  0  0  0  0  0  0  0  0  0
   -7.8467  -21.3838   31.0657 O   0  0  0  0  0  0  0  0  0  0  0  0
   -9.0262  -22.6668   29.6392 O   0  0  0  0  0  0  0  0  0  0  0  0
  2  1  1  0
  2  3  2  0
  4  2  1  0
  5  4  1  0
  6  5  1  0
  6  7  1  1
  8  6  1  0
  8 10  1  0
  9  8  2  0
 11 10  1  0
 11 12  1  0
 12 19  1  0
 13 12  2  0
 15 14  1  6
 16 15  1  0
 17 15  1  0
 18 17  1  6
 19 18  1  0
 20 21  1  0
 20 18  1  0
 22 20  2  0
M  END
$$$$
