QGL.pdb
     RDKit          3D

 22 21  0  0  1  0  0  0  0  0999 V2000
    8.9231  -14.0271   15.9678 N   0  0  0  0  0  0  0  0  0  0  0  0
    7.6852  -13.8034   16.6796 C   0  0  0  0  0  0  0  0  0  0  0  0
    6.7789  -13.2461   16.0564 O   0  0  0  0  0  0  0  0  0  0  0  0
    7.5333  -14.2303   18.0762 C   0  0  0  0  0  0  0  0  0  0  0  0
    8.7072  -14.9674   18.6364 C   0  0  0  0  0  0  0  0  0  0  0  0
    8.4048  -15.8304   19.8099 C   0  0  2  0  0  0  0  0  0  0  0  0
    7.2300  -15.5214   20.5519 N   0  0  0  0  0  0  0  0  0  0  0  0
    9.5747  -15.6986   20.7508 C   0  0  0  0  0  0  0  0  0  0  0  0
   10.7554  -15.6245   20.3431 O   0  0  0  0  0  0  0  0  0  0  0  0
    9.3180  -15.6564   22.1724 N   0  0  0  0  0  0  0  0  0  0  0  0
   10.4618  -15.5356   23.0200 C   0  0  0  0  0  0  0  0  0  0  0  0
   10.1021  -15.4999   24.4516 C   0  0  0  0  0  0  0  0  0  0  0  0
   11.0508  -15.4031   25.3125 O   0  0  0  0  0  0  0  0  0  0  0  0
    5.9488  -12.6728   26.1813 C   0  0  0  0  0  0  0  0  0  0  0  0
    7.3648  -13.2472   26.0289 C   0  0  1  0  0  0  0  0  0  0  0  0
    8.2934  -12.3019   26.7097 C   0  0  0  0  0  0  0  0  0  0  0  0
    7.3321  -14.6199   26.6197 C   0  0  0  0  0  0  0  0  0  0  0  0
    8.6107  -15.3895   26.4197 C   0  0  2  0  0  0  0  0  0  0  0  0
    8.8062  -15.5616   24.9931 N   0  0  0  0  0  0  0  0  0  0  0  0
    8.4723  -16.7356   27.0493 C   0  0  0  0  0  0  0  0  0  0  0  0
    8.5578  -16.9191   28.4300 O   0  0  0  0  0  0  0  0  0  0  0  0
    8.2715  -17.7730   26.3657 O   0  0  0  0  0  0  0  0  0  0  0  0
  2  1  1  0
  2  3  2  0
  4  2  1  0
  5  4  1  0
  6  5  1  0
  6  7  1  1
  8  6  1  0
  8 10  1  0
  9  8  2  0
 11 10  1  0
 11 12  1  0
 12 19  1  0
 13 12  2  0
 15 14  1  1
 16 15  1  0
 17 15  1  0
 18 17  1  6
 19 18  1  0
 20 21  1  0
 20 18  1  0
 22 20  2  0
M  END
$$$$
