QGL.pdb
     RDKit          3D

 22 21  0  0  1  0  0  0  0  0999 V2000
   11.0282  -21.9891   22.7180 N   0  0  0  0  0  0  0  0  0  0  0  0
   10.6394  -20.9028   21.8475 C   0  0  0  0  0  0  0  0  0  0  0  0
   11.5278  -20.3998   21.1561 O   0  0  0  0  0  0  0  0  0  0  0  0
    9.2474  -20.4381   21.8010 C   0  0  0  0  0  0  0  0  0  0  0  0
    8.2923  -21.2394   22.6261 C   0  0  0  0  0  0  0  0  0  0  0  0
    6.8763  -20.7875   22.5634 C   0  0  2  0  0  0  0  0  0  0  0  0
    6.4743  -20.0869   21.3913 N   0  0  0  0  0  0  0  0  0  0  0  0
    6.6715  -19.8577   23.7316 C   0  0  0  0  0  0  0  0  0  0  0  0
    6.9136  -20.2016   24.9101 O   0  0  0  0  0  0  0  0  0  0  0  0
    6.1787  -18.5235   23.4759 N   0  0  0  0  0  0  0  0  0  0  0  0
    6.0516  -17.6659   24.6117 C   0  0  0  0  0  0  0  0  0  0  0  0
    7.1573  -16.6924   24.7102 C   0  0  0  0  0  0  0  0  0  0  0  0
    8.2844  -16.9995   24.1754 O   0  0  0  0  0  0  0  0  0  0  0  0
    7.6699  -11.8329   27.3941 C   0  0  0  0  0  0  0  0  0  0  0  0
    6.9143  -12.8979   26.5860 C   0  0  1  0  0  0  0  0  0  0  0  0
    5.5352  -12.3794   26.3654 C   0  0  0  0  0  0  0  0  0  0  0  0
    7.7020  -13.1201   25.3352 C   0  0  0  0  0  0  0  0  0  0  0  0
    8.2338  -14.5225   25.2025 C   0  0  2  0  0  0  0  0  0  0  0  0
    7.1155  -15.4356   25.3388 N   0  0  0  0  0  0  0  0  0  0  0  0
    9.2016  -14.7829   26.3085 C   0  0  0  0  0  0  0  0  0  0  0  0
    8.9372  -15.7059   27.3212 O   0  0  0  0  0  0  0  0  0  0  0  0
   10.3051  -14.1825   26.3828 O   0  0  0  0  0  0  0  0  0  0  0  0
  2  1  1  0
  2  3  2  0
  4  2  1  0
  5  4  1  0
  6  5  1  0
  6  7  1  6
  8  6  1  0
  8 10  1  0
  9  8  2  0
 11 10  1  0
 11 12  1  0
 12 19  1  0
 13 12  2  0
 15 14  1  1
 16 15  1  0
 17 15  1  0
 18 17  1  1
 19 18  1  0
 20 21  1  0
 20 18  1  0
 22 20  2  0
M  END
$$$$
