FMI.pdb
     RDKit          3D

 28 28  0  0  1  0  0  0  0  0999 V2000
   26.3945  -20.1421  -18.4288 N   0  0  0  0  0  0  0  0  0  0  0  0
   26.1569  -19.3780  -17.1919 C   0  0  1  0  0  0  0  0  0  0  0  0
   24.7677  -18.7958  -17.3501 C   0  0  0  0  0  0  0  0  0  0  0  0
   24.6895  -17.7237  -18.3503 C   0  0  0  0  0  0  0  0  0  0  0  0
   24.0130  -17.7935  -19.5539 C   0  0  0  0  0  0  0  0  0  0  0  0
   23.9591  -16.7768  -20.4685 C   0  0  0  0  0  0  0  0  0  0  0  0
   24.6315  -15.5913  -20.1661 C   0  0  0  0  0  0  0  0  0  0  0  0
   25.3286  -15.4647  -18.9698 C   0  0  0  0  0  0  0  0  0  0  0  0
   25.3505  -16.5182  -18.0847 C   0  0  0  0  0  0  0  0  0  0  0  0
   26.1249  -20.3209  -16.0378 C   0  0  0  0  0  0  0  0  0  0  0  0
   25.5572  -21.4165  -16.1475 O   0  0  0  0  0  0  0  0  0  0  0  0
   30.7940  -19.7184  -12.1420 C   0  0  0  0  0  0  0  0  0  0  0  0
   30.8631  -21.1675  -13.2512 S   0  0  0  0  0  0  0  0  0  0  0  0
   29.2235  -21.3164  -14.0395 C   0  0  0  0  0  0  0  0  0  0  0  0
   28.2095  -20.7023  -13.1327 C   0  0  0  0  0  0  0  0  0  0  0  0
   26.7928  -20.7523  -13.6200 C   0  0  2  0  0  0  0  0  0  0  0  0
   26.7434  -19.9482  -14.8417 N   0  0  0  0  0  0  0  0  0  0  0  0
   25.7971  -20.2853  -12.6439 C   0  0  0  0  0  0  0  0  0  0  0  0
   25.6200  -19.0535  -12.4551 O   0  0  0  0  0  0  0  0  0  0  0  0
   20.6696  -21.1087  -12.4320 C   0  0  0  0  0  0  0  0  0  0  0  0
   22.1215  -20.6983  -12.3553 C   0  0  0  0  0  0  0  0  0  0  0  0
   22.6775  -21.0356  -10.9801 C   0  0  2  0  0  0  0  0  0  0  0  0
   21.8152  -20.3286   -9.9341 C   0  0  0  0  0  0  0  0  0  0  0  0
   24.1119  -20.6891  -10.8395 C   0  0  2  0  0  0  0  0  0  0  0  0
   24.9916  -21.1569  -11.8667 N   0  0  0  0  0  0  0  0  0  0  0  0
   24.5988  -21.0373   -9.4625 C   0  0  0  0  0  0  0  0  0  0  0  0
   24.3715  -20.1382   -8.4396 O   0  0  0  0  0  0  0  0  0  0  0  0
   25.1985  -22.1149   -9.2337 O   0  0  0  0  0  0  0  0  0  0  0  0
  2  1  1  6
  3  4  1  0
  3  2  1  0
  4  5  2  0
  5  6  1  0
  7  6  2  0
  8  7  1  0
  9  8  2  0
  9  4  1  0
 10  2  1  0
 10 17  1  0
 11 10  2  0
 13 12  1  0
 14 13  1  0
 16 15  1  1
 15 14  1  0
 16 17  1  0
 18 16  1  0
 19 18  2  0
 20 21  1  0
 21 22  1  0
 22 24  1  0
 22 23  1  1
 24 26  1  0
 24 25  1  6
 25 18  1  0
 26 27  1  0
 28 26  2  0
M  END
$$$$
