FMI.pdb
     RDKit          3D

 28 28  0  0  1  0  0  0  0  0999 V2000
   28.6767  -19.7903  -15.4106 N   0  0  0  0  0  0  0  0  0  0  0  0
   27.7312  -19.1365  -14.4893 C   0  0  1  0  0  0  0  0  0  0  0  0
   26.7990  -18.3426  -15.3807 C   0  0  0  0  0  0  0  0  0  0  0  0
   27.3982  -17.1111  -15.9101 C   0  0  0  0  0  0  0  0  0  0  0  0
   27.8893  -16.9409  -17.1911 C   0  0  0  0  0  0  0  0  0  0  0  0
   28.4446  -15.7798  -17.6564 C   0  0  0  0  0  0  0  0  0  0  0  0
   28.5201  -14.6959  -16.7798 C   0  0  0  0  0  0  0  0  0  0  0  0
   28.0417  -14.8098  -15.4792 C   0  0  0  0  0  0  0  0  0  0  0  0
   27.4922  -16.0006  -15.0623 C   0  0  0  0  0  0  0  0  0  0  0  0
   26.9210  -20.1826  -13.8029 C   0  0  0  0  0  0  0  0  0  0  0  0
   26.5652  -21.1960  -14.4202 O   0  0  0  0  0  0  0  0  0  0  0  0
   27.3041  -20.3526   -7.6858 C   0  0  0  0  0  0  0  0  0  0  0  0
   25.5456  -20.8370   -7.5948 S   0  0  0  0  0  0  0  0  0  0  0  0
   25.0233  -21.2757   -9.2879 C   0  0  0  0  0  0  0  0  0  0  0  0
   25.8847  -20.5305  -10.2525 C   0  0  0  0  0  0  0  0  0  0  0  0
   25.6389  -20.8278  -11.7010 C   0  0  2  0  0  0  0  0  0  0  0  0
   26.5754  -19.9994  -12.4615 N   0  0  0  0  0  0  0  0  0  0  0  0
   24.2556  -20.5965  -12.1429 C   0  0  0  0  0  0  0  0  0  0  0  0
   23.8014  -19.4255  -12.2262 O   0  0  0  0  0  0  0  0  0  0  0  0
   22.3554  -22.0937  -16.7158 C   0  0  0  0  0  0  0  0  0  0  0  0
   22.6985  -21.4534  -15.3912 C   0  0  0  0  0  0  0  0  0  0  0  0
   21.7122  -21.9139  -14.3285 C   0  0  2  0  0  0  0  0  0  0  0  0
   20.3086  -21.5048  -14.7759 C   0  0  0  0  0  0  0  0  0  0  0  0
   22.0362  -21.3923  -12.9793 C   0  0  2  0  0  0  0  0  0  0  0  0
   23.3594  -21.6388  -12.4936 N   0  0  0  0  0  0  0  0  0  0  0  0
   20.9771  -21.7994  -11.9959 C   0  0  0  0  0  0  0  0  0  0  0  0
   19.9795  -20.8940  -11.6939 O   0  0  0  0  0  0  0  0  0  0  0  0
   20.9870  -22.9311  -11.4551 O   0  0  0  0  0  0  0  0  0  0  0  0
  2  1  1  6
  3  4  1  0
  3  2  1  0
  4  5  2  0
  5  6  1  0
  7  6  2  0
  8  7  1  0
  9  8  2  0
  9  4  1  0
 10  2  1  0
 10 17  1  0
 11 10  2  0
 13 12  1  0
 14 13  1  0
 16 15  1  1
 15 14  1  0
 16 17  1  0
 18 16  1  0
 19 18  2  0
 20 21  1  0
 21 22  1  0
 22 24  1  0
 22 23  1  6
 24 26  1  0
 24 25  1  1
 25 18  1  0
 26 27  1  0
 28 26  2  0
M  END
$$$$
