FMI.pdb
     RDKit          3D

 28 28  0  0  1  0  0  0  0  0999 V2000
   17.5936  -11.7983  -19.4528 N   0  0  0  0  0  0  0  0  0  0  0  0
   18.7716  -10.9151  -19.5031 C   0  0  1  0  0  0  0  0  0  0  0  0
   18.5032   -9.9669  -20.6533 C   0  0  0  0  0  0  0  0  0  0  0  0
   18.5847  -10.6051  -21.9731 C   0  0  0  0  0  0  0  0  0  0  0  0
   19.6898  -11.2602  -22.4837 C   0  0  0  0  0  0  0  0  0  0  0  0
   19.7368  -11.8449  -23.7202 C   0  0  0  0  0  0  0  0  0  0  0  0
   18.5936  -11.7752  -24.5184 C   0  0  0  0  0  0  0  0  0  0  0  0
   17.4527  -11.1287  -24.0564 C   0  0  0  0  0  0  0  0  0  0  0  0
   17.4589  -10.5575  -22.8044 C   0  0  0  0  0  0  0  0  0  0  0  0
   18.8255  -10.1068  -18.2519 C   0  0  0  0  0  0  0  0  0  0  0  0
   17.7792   -9.8147  -17.6564 O   0  0  0  0  0  0  0  0  0  0  0  0
   22.6100  -10.4714  -12.8578 C   0  0  0  0  0  0  0  0  0  0  0  0
   23.3872   -9.2727  -13.9954 S   0  0  0  0  0  0  0  0  0  0  0  0
   22.0356   -8.3888  -14.8462 C   0  0  0  0  0  0  0  0  0  0  0  0
   21.5743   -9.2277  -15.9913 C   0  0  0  0  0  0  0  0  0  0  0  0
   20.2850   -8.8013  -16.6259 C   0  0  2  0  0  0  0  0  0  0  0  0
   20.0683   -9.6902  -17.7681 N   0  0  0  0  0  0  0  0  0  0  0  0
   20.2499   -7.3919  -17.0440 C   0  0  0  0  0  0  0  0  0  0  0  0
   20.8851   -7.0142  -18.0629 O   0  0  0  0  0  0  0  0  0  0  0  0
   17.2499   -2.8023  -18.9123 C   0  0  0  0  0  0  0  0  0  0  0  0
   18.4032   -3.1288  -17.9928 C   0  0  0  0  0  0  0  0  0  0  0  0
   18.3287   -4.5899  -17.5761 C   0  0  2  0  0  0  0  0  0  0  0  0
   17.0159   -4.8007  -16.8213 C   0  0  0  0  0  0  0  0  0  0  0  0
   19.5008   -5.0199  -16.7769 C   0  0  2  0  0  0  0  0  0  0  0  0
   19.5256   -6.3865  -16.3532 N   0  0  0  0  0  0  0  0  0  0  0  0
   19.7387   -4.0622  -15.6452 C   0  0  0  0  0  0  0  0  0  0  0  0
   20.3053   -2.8362  -15.9316 O   0  0  0  0  0  0  0  0  0  0  0  0
   19.4346   -4.3565  -14.4645 O   0  0  0  0  0  0  0  0  0  0  0  0
  2  1  1  1
  3  4  1  0
  3  2  1  0
  4  5  2  0
  5  6  1  0
  7  6  2  0
  8  7  1  0
  9  8  2  0
  9  4  1  0
 10  2  1  0
 10 17  1  0
 11 10  2  0
 13 12  1  0
 14 13  1  0
 16 15  1  6
 15 14  1  0
 16 17  1  0
 18 16  1  0
 19 18  2  0
 20 21  1  0
 21 22  1  0
 22 24  1  0
 22 23  1  1
 24 26  1  0
 24 25  1  1
 25 18  1  0
 26 27  1  0
 28 26  2  0
M  END
$$$$
