FMI.pdb
     RDKit          3D

 28 28  0  0  1  0  0  0  0  0999 V2000
   24.9169  -22.1353  -12.6855 N   0  0  0  0  0  0  0  0  0  0  0  0
   25.5437  -20.9866  -12.0088 C   0  0  1  0  0  0  0  0  0  0  0  0
   24.4017  -20.0406  -11.7011 C   0  0  0  0  0  0  0  0  0  0  0  0
   23.8256  -19.4063  -12.8934 C   0  0  0  0  0  0  0  0  0  0  0  0
   22.5379  -19.5915  -13.3610 C   0  0  0  0  0  0  0  0  0  0  0  0
   22.0287  -18.9869  -14.4783 C   0  0  0  0  0  0  0  0  0  0  0  0
   22.8644  -18.1266  -15.1926 C   0  0  0  0  0  0  0  0  0  0  0  0
   24.1695  -17.9026  -14.7686 C   0  0  0  0  0  0  0  0  0  0  0  0
   24.6316  -18.5361  -13.6377 C   0  0  0  0  0  0  0  0  0  0  0  0
   26.1175  -21.4424  -10.7108 C   0  0  0  0  0  0  0  0  0  0  0  0
   25.5076  -22.2697  -10.0192 O   0  0  0  0  0  0  0  0  0  0  0  0
   32.3280  -22.7623  -10.5001 C   0  0  0  0  0  0  0  0  0  0  0  0
   32.2008  -21.5906   -9.1052 S   0  0  0  0  0  0  0  0  0  0  0  0
   30.5082  -21.7357   -8.4374 C   0  0  0  0  0  0  0  0  0  0  0  0
   29.5446  -21.3766   -9.5193 C   0  0  0  0  0  0  0  0  0  0  0  0
   28.1006  -21.3571   -9.1177 C   0  0  2  0  0  0  0  0  0  0  0  0
   27.3463  -20.9238  -10.2944 N   0  0  0  0  0  0  0  0  0  0  0  0
   27.8031  -20.5014   -7.9594 C   0  0  0  0  0  0  0  0  0  0  0  0
   27.6192  -19.2655   -8.1116 O   0  0  0  0  0  0  0  0  0  0  0  0
   29.1092  -19.5224   -2.2969 C   0  0  0  0  0  0  0  0  0  0  0  0
   27.8180  -19.8760   -2.9968 C   0  0  0  0  0  0  0  0  0  0  0  0
   28.1110  -20.7715   -4.1911 C   0  0  2  0  0  0  0  0  0  0  0  0
   29.5806  -21.1877   -4.1218 C   0  0  0  0  0  0  0  0  0  0  0  0
   27.7788  -20.1300   -5.4855 C   0  0  2  0  0  0  0  0  0  0  0  0
   27.7073  -20.9864   -6.6297 N   0  0  0  0  0  0  0  0  0  0  0  0
   28.6588  -18.9353   -5.7152 C   0  0  0  0  0  0  0  0  0  0  0  0
   28.2700  -17.7222   -5.1827 O   0  0  0  0  0  0  0  0  0  0  0  0
   29.7233  -19.0237   -6.3726 O   0  0  0  0  0  0  0  0  0  0  0  0
  2  1  1  1
  3  4  1  0
  3  2  1  0
  4  5  2  0
  5  6  1  0
  7  6  2  0
  8  7  1  0
  9  8  2  0
  9  4  1  0
 10  2  1  0
 10 17  1  0
 11 10  2  0
 13 12  1  0
 14 13  1  0
 16 15  1  6
 15 14  1  0
 16 17  1  0
 18 16  1  0
 19 18  2  0
 20 21  1  0
 21 22  1  0
 22 24  1  0
 22 23  1  6
 24 26  1  0
 24 25  1  6
 25 18  1  0
 26 27  1  0
 28 26  2  0
M  END
$$$$
