FMI.pdb
     RDKit          3D

 28 28  0  0  1  0  0  0  0  0999 V2000
   23.3053  -13.6965  -18.0221 N   0  0  0  0  0  0  0  0  0  0  0  0
   23.6776  -12.3903  -17.4518 C   0  0  1  0  0  0  0  0  0  0  0  0
   24.9343  -11.9819  -18.1919 C   0  0  0  0  0  0  0  0  0  0  0  0
   26.1724  -12.3047  -17.4716 C   0  0  0  0  0  0  0  0  0  0  0  0
   26.7269  -13.5651  -17.3487 C   0  0  0  0  0  0  0  0  0  0  0  0
   27.8832  -13.8360  -16.6685 C   0  0  0  0  0  0  0  0  0  0  0  0
   28.5464  -12.7695  -16.0588 C   0  0  0  0  0  0  0  0  0  0  0  0
   28.0345  -11.4800  -16.1495 C   0  0  0  0  0  0  0  0  0  0  0  0
   26.8678  -11.2626  -16.8462 C   0  0  0  0  0  0  0  0  0  0  0  0
   22.6152  -11.3974  -17.7795 C   0  0  0  0  0  0  0  0  0  0  0  0
   21.7827  -11.6480  -18.6620 O   0  0  0  0  0  0  0  0  0  0  0  0
   16.2112   -8.6686  -16.2509 C   0  0  0  0  0  0  0  0  0  0  0  0
   17.5809   -9.8529  -16.4887 S   0  0  0  0  0  0  0  0  0  0  0  0
   19.0634   -8.8774  -16.9159 C   0  0  0  0  0  0  0  0  0  0  0  0
   20.2392   -9.7965  -16.9383 C   0  0  0  0  0  0  0  0  0  0  0  0
   21.5599   -9.1484  -17.2257 C   0  0  2  0  0  0  0  0  0  0  0  0
   22.5768  -10.1902  -17.0770 N   0  0  0  0  0  0  0  0  0  0  0  0
   21.8671   -7.9900  -16.3736 C   0  0  0  0  0  0  0  0  0  0  0  0
   22.1141   -8.1480  -15.1495 O   0  0  0  0  0  0  0  0  0  0  0  0
   25.8187   -5.0361  -17.6403 C   0  0  0  0  0  0  0  0  0  0  0  0
   24.6792   -5.8191  -17.0315 C   0  0  0  0  0  0  0  0  0  0  0  0
   23.5955   -4.8624  -16.5577 C   0  0  2  0  0  0  0  0  0  0  0  0
   24.2032   -3.9476  -15.4940 C   0  0  0  0  0  0  0  0  0  0  0  0
   22.3881   -5.5634  -16.0593 C   0  0  2  0  0  0  0  0  0  0  0  0
   21.9039   -6.6540  -16.8492 N   0  0  0  0  0  0  0  0  0  0  0  0
   21.3111   -4.5717  -15.7260 C   0  0  0  0  0  0  0  0  0  0  0  0
   21.1885   -4.1520  -14.4164 O   0  0  0  0  0  0  0  0  0  0  0  0
   20.5355   -4.1279  -16.6061 O   0  0  0  0  0  0  0  0  0  0  0  0
  2  1  1  6
  3  4  1  0
  3  2  1  0
  4  5  2  0
  5  6  1  0
  7  6  2  0
  8  7  1  0
  9  8  2  0
  9  4  1  0
 10  2  1  0
 10 17  1  0
 11 10  2  0
 13 12  1  0
 14 13  1  0
 16 15  1  1
 15 14  1  0
 16 17  1  0
 18 16  1  0
 19 18  2  0
 20 21  1  0
 21 22  1  0
 22 24  1  0
 22 23  1  1
 24 26  1  0
 24 25  1  6
 25 18  1  0
 26 27  1  0
 28 26  2  0
M  END
$$$$
