FMI.pdb
     RDKit          3D

 28 28  0  0  1  0  0  0  0  0999 V2000
   25.2342  -17.8015  -15.8536 N   0  0  0  0  0  0  0  0  0  0  0  0
   26.2650  -18.2327  -14.8935 C   0  0  1  0  0  0  0  0  0  0  0  0
   26.9385  -16.9545  -14.4393 C   0  0  0  0  0  0  0  0  0  0  0  0
   27.8043  -16.3509  -15.4601 C   0  0  0  0  0  0  0  0  0  0  0  0
   28.8377  -16.9900  -16.1194 C   0  0  0  0  0  0  0  0  0  0  0  0
   29.6300  -16.4000  -17.0667 C   0  0  0  0  0  0  0  0  0  0  0  0
   29.3781  -15.0650  -17.3882 C   0  0  0  0  0  0  0  0  0  0  0  0
   28.3514  -14.3722  -16.7566 C   0  0  0  0  0  0  0  0  0  0  0  0
   27.5841  -15.0133  -15.8111 C   0  0  0  0  0  0  0  0  0  0  0  0
   25.5986  -18.8407  -13.7068 C   0  0  0  0  0  0  0  0  0  0  0  0
   24.4971  -18.4177  -13.3293 O   0  0  0  0  0  0  0  0  0  0  0  0
   23.5793  -24.1080  -14.1999 C   0  0  0  0  0  0  0  0  0  0  0  0
   24.4354  -24.5817  -12.6579 S   0  0  0  0  0  0  0  0  0  0  0  0
   24.7070  -23.0491  -11.7043 C   0  0  0  0  0  0  0  0  0  0  0  0
   25.4129  -22.0695  -12.5818 C   0  0  0  0  0  0  0  0  0  0  0  0
   25.6399  -20.7137  -11.9840 C   0  0  2  0  0  0  0  0  0  0  0  0
   26.2346  -19.8884  -13.0360 N   0  0  0  0  0  0  0  0  0  0  0  0
   26.4820  -20.7140  -10.7784 C   0  0  0  0  0  0  0  0  0  0  0  0
   27.6587  -21.1586  -10.8240 O   0  0  0  0  0  0  0  0  0  0  0  0
   28.8822  -19.6543   -5.4978 C   0  0  0  0  0  0  0  0  0  0  0  0
   27.9507  -20.5890   -6.2333 C   0  0  0  0  0  0  0  0  0  0  0  0
   27.3659  -19.8805   -7.4458 C   0  0  2  0  0  0  0  0  0  0  0  0
   26.5942  -18.6562   -6.9526 C   0  0  0  0  0  0  0  0  0  0  0  0
   26.5196  -20.7690   -8.2776 C   0  0  2  0  0  0  0  0  0  0  0  0
   26.0461  -20.2329   -9.5170 N   0  0  0  0  0  0  0  0  0  0  0  0
   25.4172  -21.3628   -7.4490 C   0  0  0  0  0  0  0  0  0  0  0  0
   24.1479  -21.4189   -7.9895 O   0  0  0  0  0  0  0  0  0  0  0  0
   25.6308  -21.8006   -6.2932 O   0  0  0  0  0  0  0  0  0  0  0  0
  2  1  1  6
  3  4  1  0
  3  2  1  0
  4  5  2  0
  5  6  1  0
  7  6  2  0
  8  7  1  0
  9  8  2  0
  9  4  1  0
 10  2  1  0
 10 17  1  0
 11 10  2  0
 13 12  1  0
 14 13  1  0
 16 15  1  6
 15 14  1  0
 16 17  1  0
 18 16  1  0
 19 18  2  0
 20 21  1  0
 21 22  1  0
 22 24  1  0
 22 23  1  1
 24 26  1  0
 24 25  1  6
 25 18  1  0
 26 27  1  0
 28 26  2  0
M  END
$$$$
