FMI.pdb
     RDKit          3D

 28 28  0  0  1  0  0  0  0  0999 V2000
   28.1216  -21.2060  -14.4574 N   0  0  0  0  0  0  0  0  0  0  0  0
   27.6710  -20.1989  -13.4812 C   0  0  1  0  0  0  0  0  0  0  0  0
   26.5911  -19.4138  -14.1963 C   0  0  0  0  0  0  0  0  0  0  0  0
   27.1149  -18.3962  -15.1161 C   0  0  0  0  0  0  0  0  0  0  0  0
   27.5432  -18.6251  -16.4104 C   0  0  0  0  0  0  0  0  0  0  0  0
   28.0290  -17.6553  -17.2450 C   0  0  0  0  0  0  0  0  0  0  0  0
   28.0964  -16.3490  -16.7573 C   0  0  0  0  0  0  0  0  0  0  0  0
   27.6793  -16.0602  -15.4627 C   0  0  0  0  0  0  0  0  0  0  0  0
   27.1986  -17.0732  -14.6649 C   0  0  0  0  0  0  0  0  0  0  0  0
   27.0364  -20.8939  -12.3252 C   0  0  0  0  0  0  0  0  0  0  0  0
   26.3672  -21.9200  -12.5094 O   0  0  0  0  0  0  0  0  0  0  0  0
   26.8515  -20.0210   -4.4499 C   0  0  0  0  0  0  0  0  0  0  0  0
   27.6542  -19.7167   -6.0617 S   0  0  0  0  0  0  0  0  0  0  0  0
   26.5895  -20.4680   -7.3399 C   0  0  0  0  0  0  0  0  0  0  0  0
   27.2346  -20.2598   -8.6697 C   0  0  0  0  0  0  0  0  0  0  0  0
   26.4608  -20.7663   -9.8492 C   0  0  2  0  0  0  0  0  0  0  0  0
   27.2112  -20.3704  -11.0415 N   0  0  0  0  0  0  0  0  0  0  0  0
   25.0732  -20.2843   -9.9186 C   0  0  0  0  0  0  0  0  0  0  0  0
   24.8309  -19.0789  -10.1881 O   0  0  0  0  0  0  0  0  0  0  0  0
   21.0782  -20.3090  -13.6498 C   0  0  0  0  0  0  0  0  0  0  0  0
   21.1165  -20.3675  -12.1407 C   0  0  0  0  0  0  0  0  0  0  0  0
   22.4825  -20.8541  -11.6812 C   0  0  2  0  0  0  0  0  0  0  0  0
   22.6929  -22.2647  -12.2323 C   0  0  0  0  0  0  0  0  0  0  0  0
   22.6438  -20.8065  -10.2084 C   0  0  2  0  0  0  0  0  0  0  0  0
   23.9431  -21.1114   -9.6921 N   0  0  0  0  0  0  0  0  0  0  0  0
   21.5584  -21.6002   -9.5401 C   0  0  0  0  0  0  0  0  0  0  0  0
   20.2502  -21.1907   -9.7048 O   0  0  0  0  0  0  0  0  0  0  0  0
   21.8203  -22.6120   -8.8467 O   0  0  0  0  0  0  0  0  0  0  0  0
  2  1  1  6
  3  4  1  0
  3  2  1  0
  4  5  2  0
  5  6  1  0
  7  6  2  0
  8  7  1  0
  9  8  2  0
  9  4  1  0
 10  2  1  0
 10 17  1  0
 11 10  2  0
 13 12  1  0
 14 13  1  0
 16 15  1  1
 15 14  1  0
 16 17  1  0
 18 16  1  0
 19 18  2  0
 20 21  1  0
 21 22  1  0
 22 24  1  0
 22 23  1  1
 24 26  1  0
 24 25  1  6
 25 18  1  0
 26 27  1  0
 28 26  2  0
M  END
$$$$
