FMI.pdb
     RDKit          3D

 28 28  0  0  1  0  0  0  0  0999 V2000
   28.4403  -20.8821  -15.1753 N   0  0  0  0  0  0  0  0  0  0  0  0
   27.8708  -19.9898  -14.1507 C   0  0  1  0  0  0  0  0  0  0  0  0
   26.8515  -19.1457  -14.8871 C   0  0  0  0  0  0  0  0  0  0  0  0
   27.4477  -18.2046  -15.8435 C   0  0  0  0  0  0  0  0  0  0  0  0
   27.3233  -18.2677  -17.2189 C   0  0  0  0  0  0  0  0  0  0  0  0
   27.8929  -17.3755  -18.0866 C   0  0  0  0  0  0  0  0  0  0  0  0
   28.6491  -16.3333  -17.5473 C   0  0  0  0  0  0  0  0  0  0  0  0
   28.8083  -16.2203  -16.1707 C   0  0  0  0  0  0  0  0  0  0  0  0
   28.2137  -17.1448  -15.3427 C   0  0  0  0  0  0  0  0  0  0  0  0
   27.1383  -20.8111  -13.1453 C   0  0  0  0  0  0  0  0  0  0  0  0
   26.4619  -21.7823  -13.5115 O   0  0  0  0  0  0  0  0  0  0  0  0
   28.6815  -20.3503   -7.0641 C   0  0  0  0  0  0  0  0  0  0  0  0
   26.9125  -19.9959   -6.7808 S   0  0  0  0  0  0  0  0  0  0  0  0
   26.0053  -20.5967   -8.2463 C   0  0  0  0  0  0  0  0  0  0  0  0
   26.8463  -20.3467   -9.4538 C   0  0  0  0  0  0  0  0  0  0  0  0
   26.3035  -20.8876  -10.7421 C   0  0  2  0  0  0  0  0  0  0  0  0
   27.2301  -20.4677  -11.7940 N   0  0  0  0  0  0  0  0  0  0  0  0
   24.9308  -20.4599  -11.0508 C   0  0  0  0  0  0  0  0  0  0  0  0
   24.6836  -19.2538  -11.3126 O   0  0  0  0  0  0  0  0  0  0  0  0
   20.9991  -19.7096  -14.2510 C   0  0  0  0  0  0  0  0  0  0  0  0
   20.8343  -20.9587  -13.4174 C   0  0  0  0  0  0  0  0  0  0  0  0
   22.1969  -21.4442  -12.9466 C   0  0  2  0  0  0  0  0  0  0  0  0
   22.2115  -22.9707  -13.0323 C   0  0  0  0  0  0  0  0  0  0  0  0
   22.5397  -20.9638  -11.5868 C   0  0  2  0  0  0  0  0  0  0  0  0
   23.8205  -21.3426  -11.0732 N   0  0  0  0  0  0  0  0  0  0  0  0
   21.4231  -21.2688  -10.6303 C   0  0  0  0  0  0  0  0  0  0  0  0
   21.6722  -22.1383   -9.5872 O   0  0  0  0  0  0  0  0  0  0  0  0
   20.2877  -20.7530  -10.7645 O   0  0  0  0  0  0  0  0  0  0  0  0
  2  1  1  6
  3  4  1  0
  3  2  1  0
  4  5  2  0
  5  6  1  0
  7  6  2  0
  8  7  1  0
  9  8  2  0
  9  4  1  0
 10  2  1  0
 10 17  1  0
 11 10  2  0
 13 12  1  0
 14 13  1  0
 16 15  1  1
 15 14  1  0
 16 17  1  0
 18 16  1  0
 19 18  2  0
 20 21  1  0
 21 22  1  0
 22 24  1  0
 22 23  1  1
 24 26  1  0
 24 25  1  1
 25 18  1  0
 26 27  1  0
 28 26  2  0
M  END
$$$$
