FMI.pdb
     RDKit          3D

 28 28  0  0  1  0  0  0  0  0999 V2000
   28.5111  -20.6294  -15.5170 N   0  0  0  0  0  0  0  0  0  0  0  0
   27.8415  -19.8154  -14.4878 C   0  0  1  0  0  0  0  0  0  0  0  0
   26.9092  -18.9009  -15.2548 C   0  0  0  0  0  0  0  0  0  0  0  0
   27.5990  -17.8089  -15.9530 C   0  0  0  0  0  0  0  0  0  0  0  0
   28.0010  -17.8261  -17.2756 C   0  0  0  0  0  0  0  0  0  0  0  0
   28.6447  -16.7920  -17.8996 C   0  0  0  0  0  0  0  0  0  0  0  0
   28.9128  -15.6443  -17.1514 C   0  0  0  0  0  0  0  0  0  0  0  0
   28.5313  -15.5711  -15.8164 C   0  0  0  0  0  0  0  0  0  0  0  0
   27.8862  -16.6400  -15.2375 C   0  0  0  0  0  0  0  0  0  0  0  0
   27.0036  -20.7054  -13.6347 C   0  0  0  0  0  0  0  0  0  0  0  0
   26.5562  -21.7649  -14.0953 O   0  0  0  0  0  0  0  0  0  0  0  0
   27.6131  -20.3667   -7.4727 C   0  0  0  0  0  0  0  0  0  0  0  0
   25.7904  -20.3900   -7.3620 S   0  0  0  0  0  0  0  0  0  0  0  0
   25.1642  -20.9828   -8.9708 C   0  0  0  0  0  0  0  0  0  0  0  0
   26.1014  -20.5226  -10.0375 C   0  0  0  0  0  0  0  0  0  0  0  0
   25.7525  -20.9487  -11.4316 C   0  0  2  0  0  0  0  0  0  0  0  0
   26.7366  -20.3250  -12.3170 N   0  0  0  0  0  0  0  0  0  0  0  0
   24.3834  -20.6084  -11.8467 C   0  0  0  0  0  0  0  0  0  0  0  0
   24.0210  -19.4052  -11.9200 O   0  0  0  0  0  0  0  0  0  0  0  0
   22.6185  -21.7571  -16.4854 C   0  0  0  0  0  0  0  0  0  0  0  0
   22.9203  -21.2051  -15.1119 C   0  0  0  0  0  0  0  0  0  0  0  0
   21.8638  -21.6792  -14.1254 C   0  0  2  0  0  0  0  0  0  0  0  0
   20.5000  -21.2036  -14.6270 C   0  0  0  0  0  0  0  0  0  0  0  0
   22.1299  -21.2296  -12.7382 C   0  0  2  0  0  0  0  0  0  0  0  0
   23.4016  -21.5763  -12.1811 N   0  0  0  0  0  0  0  0  0  0  0  0
   20.9866  -21.6062  -11.8407 C   0  0  0  0  0  0  0  0  0  0  0  0
   19.9196  -20.7361  -11.7375 O   0  0  0  0  0  0  0  0  0  0  0  0
   20.9886  -22.6816  -11.1953 O   0  0  0  0  0  0  0  0  0  0  0  0
  2  1  1  6
  3  4  1  0
  3  2  1  0
  4  5  2  0
  5  6  1  0
  7  6  2  0
  8  7  1  0
  9  8  2  0
  9  4  1  0
 10  2  1  0
 10 17  1  0
 11 10  2  0
 13 12  1  0
 14 13  1  0
 16 15  1  1
 15 14  1  0
 16 17  1  0
 18 16  1  0
 19 18  2  0
 20 21  1  0
 21 22  1  0
 22 24  1  0
 22 23  1  6
 24 26  1  0
 24 25  1  1
 25 18  1  0
 26 27  1  0
 28 26  2  0
M  END
$$$$
