FMI.pdb
     RDKit          3D

 28 28  0  0  1  0  0  0  0  0999 V2000
   27.1498  -20.2813  -17.9962 N   0  0  0  0  0  0  0  0  0  0  0  0
   27.3380  -19.4835  -16.7722 C   0  0  1  0  0  0  0  0  0  0  0  0
   26.2190  -18.4631  -16.7920 C   0  0  0  0  0  0  0  0  0  0  0  0
   26.3658  -17.4492  -17.8439 C   0  0  0  0  0  0  0  0  0  0  0  0
   27.3488  -16.4785  -17.8947 C   0  0  0  0  0  0  0  0  0  0  0  0
   27.4595  -15.5442  -18.8886 C   0  0  0  0  0  0  0  0  0  0  0  0
   26.5179  -15.5733  -19.9189 C   0  0  0  0  0  0  0  0  0  0  0  0
   25.5068  -16.5276  -19.9195 C   0  0  0  0  0  0  0  0  0  0  0  0
   25.4413  -17.4446  -18.8955 C   0  0  0  0  0  0  0  0  0  0  0  0
   27.1312  -20.3606  -15.5849 C   0  0  0  0  0  0  0  0  0  0  0  0
   26.2000  -21.1776  -15.5717 O   0  0  0  0  0  0  0  0  0  0  0  0
   31.5211  -19.7579  -10.5959 C   0  0  0  0  0  0  0  0  0  0  0  0
   31.1212  -21.5332  -10.7493 S   0  0  0  0  0  0  0  0  0  0  0  0
   29.3842  -21.6446  -11.2992 C   0  0  0  0  0  0  0  0  0  0  0  0
   29.2738  -20.9964  -12.6391 C   0  0  0  0  0  0  0  0  0  0  0  0
   27.9014  -20.9892  -13.2419 C   0  0  2  0  0  0  0  0  0  0  0  0
   28.0014  -20.2449  -14.4978 N   0  0  0  0  0  0  0  0  0  0  0  0
   26.8596  -20.4182  -12.3751 C   0  0  0  0  0  0  0  0  0  0  0  0
   26.7493  -19.1706  -12.2498 O   0  0  0  0  0  0  0  0  0  0  0  0
   21.8355  -20.7934  -13.0386 C   0  0  0  0  0  0  0  0  0  0  0  0
   23.2515  -20.4313  -12.6562 C   0  0  0  0  0  0  0  0  0  0  0  0
   23.5160  -20.8472  -11.2170 C   0  0  2  0  0  0  0  0  0  0  0  0
   22.5356  -20.0931  -10.3183 C   0  0  0  0  0  0  0  0  0  0  0  0
   24.9232  -20.6288  -10.8053 C   0  0  2  0  0  0  0  0  0  0  0  0
   25.9350  -21.2027  -11.6387 N   0  0  0  0  0  0  0  0  0  0  0  0
   25.1023  -20.9818   -9.3569 C   0  0  0  0  0  0  0  0  0  0  0  0
   24.6094  -20.1126   -8.4041 O   0  0  0  0  0  0  0  0  0  0  0  0
   25.6835  -22.0371   -9.0079 O   0  0  0  0  0  0  0  0  0  0  0  0
  2  1  1  6
  3  4  1  0
  3  2  1  0
  4  5  2  0
  5  6  1  0
  7  6  2  0
  8  7  1  0
  9  8  2  0
  9  4  1  0
 10  2  1  0
 10 17  1  0
 11 10  2  0
 13 12  1  0
 14 13  1  0
 16 15  1  1
 15 14  1  0
 16 17  1  0
 18 16  1  0
 19 18  2  0
 20 21  1  0
 21 22  1  0
 22 24  1  0
 22 23  1  1
 24 26  1  0
 24 25  1  6
 25 18  1  0
 26 27  1  0
 28 26  2  0
M  END
$$$$
