FMI.pdb
     RDKit          3D

 28 28  0  0  1  0  0  0  0  0999 V2000
   25.3010  -22.0518  -13.1767 N   0  0  0  0  0  0  0  0  0  0  0  0
   25.3979  -20.9723  -12.1789 C   0  0  1  0  0  0  0  0  0  0  0  0
   23.9646  -20.6313  -11.8281 C   0  0  0  0  0  0  0  0  0  0  0  0
   23.2199  -20.0127  -12.9321 C   0  0  0  0  0  0  0  0  0  0  0  0
   23.6488  -18.9396  -13.6908 C   0  0  0  0  0  0  0  0  0  0  0  0
   22.9309  -18.3826  -14.7142 C   0  0  0  0  0  0  0  0  0  0  0  0
   21.6833  -18.9342  -15.0114 C   0  0  0  0  0  0  0  0  0  0  0  0
   21.2011  -20.0146  -14.2811 C   0  0  0  0  0  0  0  0  0  0  0  0
   21.9640  -20.5369  -13.2619 C   0  0  0  0  0  0  0  0  0  0  0  0
   26.0513  -21.5052  -10.9497 C   0  0  0  0  0  0  0  0  0  0  0  0
   25.7116  -22.6059  -10.4940 O   0  0  0  0  0  0  0  0  0  0  0  0
   32.1307  -21.9740   -9.3696 C   0  0  0  0  0  0  0  0  0  0  0  0
   31.3342  -22.2014  -10.9971 S   0  0  0  0  0  0  0  0  0  0  0  0
   29.5305  -22.1587  -10.7206 C   0  0  0  0  0  0  0  0  0  0  0  0
   29.2512  -21.2260   -9.5892 C   0  0  0  0  0  0  0  0  0  0  0  0
   27.8191  -21.1501   -9.1533 C   0  0  2  0  0  0  0  0  0  0  0  0
   27.0463  -20.7460  -10.3284 N   0  0  0  0  0  0  0  0  0  0  0  0
   27.5743  -20.2387   -8.0255 C   0  0  0  0  0  0  0  0  0  0  0  0
   26.9093  -19.1831   -8.1930 O   0  0  0  0  0  0  0  0  0  0  0  0
   27.7351  -19.6336   -1.8365 C   0  0  0  0  0  0  0  0  0  0  0  0
   27.4571  -19.0753   -3.2125 C   0  0  0  0  0  0  0  0  0  0  0  0
   27.8157  -20.1107   -4.2677 C   0  0  2  0  0  0  0  0  0  0  0  0
   29.1516  -20.7429   -3.8762 C   0  0  0  0  0  0  0  0  0  0  0  0
   27.8521  -19.5459   -5.6377 C   0  0  2  0  0  0  0  0  0  0  0  0
   28.0545  -20.4706   -6.7109 N   0  0  0  0  0  0  0  0  0  0  0  0
   28.7982  -18.3814   -5.6956 C   0  0  0  0  0  0  0  0  0  0  0  0
   29.9772  -18.5285   -6.3988 O   0  0  0  0  0  0  0  0  0  0  0  0
   28.5359  -17.2964   -5.1236 O   0  0  0  0  0  0  0  0  0  0  0  0
  2  1  1  6
  3  4  1  0
  3  2  1  0
  4  5  2  0
  5  6  1  0
  7  6  2  0
  8  7  1  0
  9  8  2  0
  9  4  1  0
 10  2  1  0
 10 17  1  0
 11 10  2  0
 13 12  1  0
 14 13  1  0
 16 15  1  6
 15 14  1  0
 16 17  1  0
 18 16  1  0
 19 18  2  0
 20 21  1  0
 21 22  1  0
 22 24  1  0
 22 23  1  1
 24 26  1  0
 24 25  1  6
 25 18  1  0
 26 27  1  0
 28 26  2  0
M  END
$$$$
