FMI.pdb
     RDKit          3D

 28 28  0  0  1  0  0  0  0  0999 V2000
   21.3137  -21.5993  -11.8024 N   0  0  0  0  0  0  0  0  0  0  0  0
   22.5093  -20.7578  -11.9830 C   0  0  1  0  0  0  0  0  0  0  0  0
   22.0082  -19.3331  -11.8684 C   0  0  0  0  0  0  0  0  0  0  0  0
   21.8274  -18.6671  -13.1644 C   0  0  0  0  0  0  0  0  0  0  0  0
   21.0361  -19.1250  -14.2014 C   0  0  0  0  0  0  0  0  0  0  0  0
   20.8882  -18.4823  -15.4006 C   0  0  0  0  0  0  0  0  0  0  0  0
   21.5819  -17.2855  -15.5891 C   0  0  0  0  0  0  0  0  0  0  0  0
   22.3926  -16.7773  -14.5803 C   0  0  0  0  0  0  0  0  0  0  0  0
   22.5060  -17.4637  -13.3930 C   0  0  0  0  0  0  0  0  0  0  0  0
   23.4488  -21.0006  -10.8515 C   0  0  0  0  0  0  0  0  0  0  0  0
   23.0249  -21.4548   -9.7797 O   0  0  0  0  0  0  0  0  0  0  0  0
   29.8238  -20.4659  -12.5396 C   0  0  0  0  0  0  0  0  0  0  0  0
   29.6068  -22.0868  -11.7267 S   0  0  0  0  0  0  0  0  0  0  0  0
   28.3280  -21.8739  -10.4418 C   0  0  0  0  0  0  0  0  0  0  0  0
   27.0759  -21.3983  -11.1003 C   0  0  0  0  0  0  0  0  0  0  0  0
   25.8976  -21.2160  -10.1919 C   0  0  2  0  0  0  0  0  0  0  0  0
   24.8046  -20.7098  -11.0229 N   0  0  0  0  0  0  0  0  0  0  0  0
   26.1434  -20.3246   -9.0485 C   0  0  0  0  0  0  0  0  0  0  0  0
   25.8737  -19.0977   -9.1283 O   0  0  0  0  0  0  0  0  0  0  0  0
   27.5613  -19.7703   -3.0486 C   0  0  0  0  0  0  0  0  0  0  0  0
   27.2602  -19.1686   -4.4012 C   0  0  0  0  0  0  0  0  0  0  0  0
   26.9392  -20.2751   -5.3945 C   0  0  2  0  0  0  0  0  0  0  0  0
   27.7842  -21.4967   -5.0320 C   0  0  0  0  0  0  0  0  0  0  0  0
   27.1435  -19.8601   -6.8028 C   0  0  2  0  0  0  0  0  0  0  0  0
   26.6867  -20.7640   -7.8138 N   0  0  0  0  0  0  0  0  0  0  0  0
   28.5655  -19.4283   -7.0170 C   0  0  0  0  0  0  0  0  0  0  0  0
   28.9400  -18.1695   -6.5909 O   0  0  0  0  0  0  0  0  0  0  0  0
   29.4022  -20.1827   -7.5682 O   0  0  0  0  0  0  0  0  0  0  0  0
  2  1  1  1
  3  4  1  0
  3  2  1  0
  4  5  2  0
  5  6  1  0
  7  6  2  0
  8  7  1  0
  9  8  2  0
  9  4  1  0
 10  2  1  0
 10 17  1  0
 11 10  2  0
 13 12  1  0
 14 13  1  0
 16 15  1  6
 15 14  1  0
 16 17  1  0
 18 16  1  0
 19 18  2  0
 20 21  1  0
 21 22  1  0
 22 24  1  0
 22 23  1  1
 24 26  1  0
 24 25  1  6
 25 18  1  0
 26 27  1  0
 28 26  2  0
M  END
$$$$
