FMI.pdb
     RDKit          3D

 28 28  0  0  1  0  0  0  0  0999 V2000
   28.1145  -20.9322  -15.0112 N   0  0  0  0  0  0  0  0  0  0  0  0
   28.4780  -21.1722  -13.6039 C   0  0  1  0  0  0  0  0  0  0  0  0
   29.8504  -20.5527  -13.4412 C   0  0  0  0  0  0  0  0  0  0  0  0
   30.5924  -21.0628  -12.2814 C   0  0  0  0  0  0  0  0  0  0  0  0
   30.6566  -20.4608  -11.0386 C   0  0  0  0  0  0  0  0  0  0  0  0
   31.3590  -20.9599   -9.9752 C   0  0  0  0  0  0  0  0  0  0  0  0
   32.0565  -22.1554  -10.1576 C   0  0  0  0  0  0  0  0  0  0  0  0
   32.0277  -22.8049  -11.3866 C   0  0  0  0  0  0  0  0  0  0  0  0
   31.3052  -22.2597  -12.4232 C   0  0  0  0  0  0  0  0  0  0  0  0
   27.5352  -20.4236  -12.7249 C   0  0  0  0  0  0  0  0  0  0  0  0
   26.9815  -19.3966  -13.1415 O   0  0  0  0  0  0  0  0  0  0  0  0
   22.5695  -20.1404  -12.8205 C   0  0  0  0  0  0  0  0  0  0  0  0
   22.2727  -20.5205  -11.0591 S   0  0  0  0  0  0  0  0  0  0  0  0
   23.8288  -20.1782  -10.1684 C   0  0  0  0  0  0  0  0  0  0  0  0
   24.9679  -20.6059  -11.0328 C   0  0  0  0  0  0  0  0  0  0  0  0
   26.3348  -20.3311  -10.4825 C   0  0  2  0  0  0  0  0  0  0  0  0
   27.2898  -20.8997  -11.4344 N   0  0  0  0  0  0  0  0  0  0  0  0
   26.5636  -20.8610   -9.1300 C   0  0  0  0  0  0  0  0  0  0  0  0
   26.7528  -22.0927   -8.9526 O   0  0  0  0  0  0  0  0  0  0  0  0
   29.8679  -18.6980   -5.3762 C   0  0  0  0  0  0  0  0  0  0  0  0
   29.0567  -19.5354   -6.3370 C   0  0  0  0  0  0  0  0  0  0  0  0
   27.6771  -19.7956   -5.7513 C   0  0  2  0  0  0  0  0  0  0  0  0
   27.8593  -20.4775   -4.3950 C   0  0  0  0  0  0  0  0  0  0  0  0
   26.8090  -20.5870   -6.6554 C   0  0  2  0  0  0  0  0  0  0  0  0
   26.5848  -20.0531   -7.9640 N   0  0  0  0  0  0  0  0  0  0  0  0
   25.5315  -20.9569   -5.9584 C   0  0  0  0  0  0  0  0  0  0  0  0
   25.5842  -21.8954   -4.9471 O   0  0  0  0  0  0  0  0  0  0  0  0
   24.4371  -20.4336   -6.2773 O   0  0  0  0  0  0  0  0  0  0  0  0
  2  1  1  6
  3  4  1  0
  3  2  1  0
  4  5  2  0
  5  6  1  0
  7  6  2  0
  8  7  1  0
  9  8  2  0
  9  4  1  0
 10  2  1  0
 10 17  1  0
 11 10  2  0
 13 12  1  0
 14 13  1  0
 16 15  1  6
 15 14  1  0
 16 17  1  0
 18 16  1  0
 19 18  2  0
 20 21  1  0
 21 22  1  0
 22 24  1  0
 22 23  1  1
 24 26  1  0
 24 25  1  6
 25 18  1  0
 26 27  1  0
 28 26  2  0
M  END
$$$$
