AWF.pdb
     RDKit          3D

 31 33  0  0  1  0  0  0  0  0999 V2000
   27.6967  -19.4158  -14.9880 C   0  0  0  0  0  0  0  0  0  0  0  0
   28.3794  -20.7070  -14.5343 C   0  0  2  0  0  0  0  0  0  0  0  0
   28.1703  -21.7327  -15.5369 N   0  0  0  0  0  0  0  0  0  0  0  0
   27.7159  -21.1238  -13.2923 C   0  0  0  0  0  0  0  0  0  0  0  0
   26.6998  -21.8704  -13.3228 O   0  0  0  0  0  0  0  0  0  0  0  0
   28.1540  -20.7296  -11.9926 N   0  0  0  0  0  0  0  0  0  0  0  0
   27.3710  -21.0610  -10.8185 C   0  0  1  0  0  0  0  0  0  0  0  0
   28.2186  -20.8502   -9.5515 C   0  0  0  0  0  0  0  0  0  0  0  0
   27.3637  -20.7157   -8.3639 C   0  0  0  0  0  0  0  0  0  0  0  0
   26.0399  -21.1166   -8.3354 C   0  0  0  0  0  0  0  0  0  0  0  0
   25.5917  -20.8405   -7.1072 N   0  0  0  0  0  0  0  0  0  0  0  0
   26.5675  -20.2874   -6.3659 C   0  0  0  0  0  0  0  0  0  0  0  0
   26.6051  -19.8387   -5.0713 C   0  0  0  0  0  0  0  0  0  0  0  0
   27.7355  -19.3017   -4.5178 C   0  0  0  0  0  0  0  0  0  0  0  0
   28.8874  -19.2097   -5.3025 C   0  0  0  0  0  0  0  0  0  0  0  0
   28.8693  -19.6580   -6.6138 C   0  0  0  0  0  0  0  0  0  0  0  0
   27.7033  -20.1949   -7.1342 C   0  0  0  0  0  0  0  0  0  0  0  0
   26.1195  -20.2806  -10.7435 C   0  0  0  0  0  0  0  0  0  0  0  0
   26.1453  -19.0241  -10.7847 O   0  0  0  0  0  0  0  0  0  0  0  0
   24.8276  -20.8775  -10.6229 N   0  0  0  0  0  0  0  0  0  0  0  0
   23.6694  -20.4006  -11.3324 C   0  0  1  0  0  0  0  0  0  0  0  0
   23.9700  -20.4002  -12.8066 C   0  0  0  0  0  0  0  0  0  0  0  0
   22.8687  -19.7832  -13.6033 C   0  0  0  0  0  0  0  0  0  0  0  0
   21.7968  -20.5577  -14.0449 C   0  0  0  0  0  0  0  0  0  0  0  0
   20.7982  -19.9672  -14.7768 C   0  0  0  0  0  0  0  0  0  0  0  0
   20.8482  -18.6183  -15.0770 C   0  0  0  0  0  0  0  0  0  0  0  0
   21.8889  -17.8405  -14.6545 C   0  0  0  0  0  0  0  0  0  0  0  0
   22.8899  -18.4500  -13.9165 C   0  0  0  0  0  0  0  0  0  0  0  0
   22.4523  -21.1718  -11.0869 C   0  0  0  0  0  0  0  0  0  0  0  0
   22.5550  -22.5666  -11.2176 O   0  0  0  0  0  0  0  0  0  0  0  0
   21.3407  -20.7155  -10.7752 O   0  0  0  0  0  0  0  0  0  0  0  0
  2  1  1  6
  2  3  1  0
  4  2  1  0
  4  5  2  0
  6  4  1  0
  7  6  1  0
  7  8  1  1
  9  8  1  0
  9 17  1  0
 10 11  1  0
 10  9  2  0
 11 12  1  0
 12 13  2  0
 12 17  1  0
 13 14  1  0
 14 15  2  0
 16 15  1  0
 17 16  2  0
 18  7  1  0
 19 18  2  0
 20 18  1  0
 21 20  1  0
 21 29  1  0
 22 23  1  0
 21 22  1  6
 23 24  2  0
 24 25  1  0
 26 25  2  0
 27 26  1  0
 28 23  1  0
 28 27  2  0
 29 30  1  0
 31 29  2  0
M  END
$$$$
