AWF.pdb
     RDKit          3D

 31 33  0  0  1  0  0  0  0  0999 V2000
   27.9983  -34.3775  -16.5103 C   0  0  0  0  0  0  0  0  0  0  0  0
   27.9787  -32.8541  -16.6437 C   0  0  2  0  0  0  0  0  0  0  0  0
   29.1596  -32.3061  -16.0062 N   0  0  0  0  0  0  0  0  0  0  0  0
   26.7926  -32.3802  -15.9189 C   0  0  0  0  0  0  0  0  0  0  0  0
   26.8311  -32.1903  -14.6726 O   0  0  0  0  0  0  0  0  0  0  0  0
   25.5412  -32.1052  -16.5473 N   0  0  0  0  0  0  0  0  0  0  0  0
   24.4332  -31.5696  -15.7811 C   0  0  1  0  0  0  0  0  0  0  0  0
   23.3946  -30.9494  -16.7323 C   0  0  0  0  0  0  0  0  0  0  0  0
   22.3853  -30.1878  -15.9836 C   0  0  0  0  0  0  0  0  0  0  0  0
   22.6945  -29.0945  -15.1943 C   0  0  0  0  0  0  0  0  0  0  0  0
   21.5388  -28.6678  -14.6768 N   0  0  0  0  0  0  0  0  0  0  0  0
   20.5224  -29.4382  -15.1022 C   0  0  0  0  0  0  0  0  0  0  0  0
   19.1738  -29.4087  -14.8589 C   0  0  0  0  0  0  0  0  0  0  0  0
   18.3122  -30.3150  -15.4147 C   0  0  0  0  0  0  0  0  0  0  0  0
   18.8292  -31.3016  -16.2577 C   0  0  0  0  0  0  0  0  0  0  0  0
   20.1901  -31.3479  -16.5159 C   0  0  0  0  0  0  0  0  0  0  0  0
   21.0265  -30.4107  -15.9322 C   0  0  0  0  0  0  0  0  0  0  0  0
   23.8052  -32.5911  -14.9190 C   0  0  0  0  0  0  0  0  0  0  0  0
   23.6845  -33.7779  -15.3167 O   0  0  0  0  0  0  0  0  0  0  0  0
   23.3047  -32.3146  -13.6103 N   0  0  0  0  0  0  0  0  0  0  0  0
   22.8281  -33.3371  -12.7161 C   0  0  1  0  0  0  0  0  0  0  0  0
   23.1510  -32.9341  -11.3029 C   0  0  0  0  0  0  0  0  0  0  0  0
   22.4580  -31.6725  -10.9074 C   0  0  0  0  0  0  0  0  0  0  0  0
   23.1533  -30.4644  -10.8763 C   0  0  0  0  0  0  0  0  0  0  0  0
   22.4939  -29.3194  -10.5077 C   0  0  0  0  0  0  0  0  0  0  0  0
   21.1537  -29.3561  -10.1694 C   0  0  0  0  0  0  0  0  0  0  0  0
   20.4529  -30.5287  -10.1929 C   0  0  0  0  0  0  0  0  0  0  0  0
   21.1313  -31.6767  -10.5669 C   0  0  0  0  0  0  0  0  0  0  0  0
   21.3972  -33.6142  -12.8253 C   0  0  0  0  0  0  0  0  0  0  0  0
   20.6381  -32.7101  -13.5864 O   0  0  0  0  0  0  0  0  0  0  0  0
   20.7897  -34.5677  -12.3126 O   0  0  0  0  0  0  0  0  0  0  0  0
  2  1  1  1
  2  3  1  0
  4  2  1  0
  4  5  2  0
  6  4  1  0
  7  6  1  0
  7  8  1  6
  9  8  1  0
  9 17  1  0
 10 11  1  0
 10  9  2  0
 11 12  1  0
 12 13  2  0
 12 17  1  0
 13 14  1  0
 14 15  2  0
 16 15  1  0
 17 16  2  0
 18  7  1  0
 19 18  2  0
 20 18  1  0
 21 20  1  0
 21 29  1  0
 22 23  1  0
 21 22  1  1
 23 24  2  0
 24 25  1  0
 26 25  2  0
 27 26  1  0
 28 23  1  0
 28 27  2  0
 29 30  1  0
 31 29  2  0
M  END
$$$$
