AWF.pdb
     RDKit          3D

 31 33  0  0  1  0  0  0  0  0999 V2000
   29.3701  -25.4125  -19.6304 C   0  0  0  0  0  0  0  0  0  0  0  0
   29.0136  -24.0544  -20.2366 C   0  0  2  0  0  0  0  0  0  0  0  0
   30.1334  -23.1497  -20.0670 N   0  0  0  0  0  0  0  0  0  0  0  0
   27.8722  -23.5352  -19.4723 C   0  0  0  0  0  0  0  0  0  0  0  0
   27.9836  -23.2741  -18.2435 O   0  0  0  0  0  0  0  0  0  0  0  0
   26.5862  -23.2924  -20.0413 N   0  0  0  0  0  0  0  0  0  0  0  0
   25.5087  -22.7623  -19.2293 C   0  0  1  0  0  0  0  0  0  0  0  0
   24.4719  -22.0678  -20.1297 C   0  0  0  0  0  0  0  0  0  0  0  0
   23.4608  -21.3688  -19.3243 C   0  0  0  0  0  0  0  0  0  0  0  0
   23.7594  -20.3034  -18.4939 C   0  0  0  0  0  0  0  0  0  0  0  0
   22.6055  -19.9328  -17.9312 N   0  0  0  0  0  0  0  0  0  0  0  0
   21.6002  -20.7119  -18.3673 C   0  0  0  0  0  0  0  0  0  0  0  0
   20.2577  -20.7311  -18.0919 C   0  0  0  0  0  0  0  0  0  0  0  0
   19.4077  -21.6356  -18.6679 C   0  0  0  0  0  0  0  0  0  0  0  0
   19.9305  -22.5689  -19.5662 C   0  0  0  0  0  0  0  0  0  0  0  0
   21.2855  -22.5655  -19.8575 C   0  0  0  0  0  0  0  0  0  0  0  0
   22.1102  -21.6320  -19.2517 C   0  0  0  0  0  0  0  0  0  0  0  0
   24.8664  -23.8051  -18.4040 C   0  0  0  0  0  0  0  0  0  0  0  0
   24.6622  -24.9549  -18.8705 O   0  0  0  0  0  0  0  0  0  0  0  0
   24.4434  -23.5910  -17.0569 N   0  0  0  0  0  0  0  0  0  0  0  0
   23.7023  -24.5649  -16.2989 C   0  0  1  0  0  0  0  0  0  0  0  0
   24.4931  -24.9278  -15.0714 C   0  0  0  0  0  0  0  0  0  0  0  0
   25.7787  -25.6053  -15.4126 C   0  0  0  0  0  0  0  0  0  0  0  0
   26.9450  -24.8614  -15.5859 C   0  0  0  0  0  0  0  0  0  0  0  0
   28.1132  -25.5077  -15.9008 C   0  0  0  0  0  0  0  0  0  0  0  0
   28.1406  -26.8826  -16.0463 C   0  0  0  0  0  0  0  0  0  0  0  0
   27.0097  -27.6312  -15.8811 C   0  0  0  0  0  0  0  0  0  0  0  0
   25.8376  -26.9654  -15.5634 C   0  0  0  0  0  0  0  0  0  0  0  0
   22.3650  -24.1290  -15.9016 C   0  0  0  0  0  0  0  0  0  0  0  0
   21.5134  -25.1141  -15.3748 O   0  0  0  0  0  0  0  0  0  0  0  0
   21.9103  -22.9768  -15.9842 O   0  0  0  0  0  0  0  0  0  0  0  0
  2  1  1  1
  2  3  1  0
  4  2  1  0
  4  5  2  0
  6  4  1  0
  7  6  1  0
  7  8  1  6
  9  8  1  0
  9 17  1  0
 10 11  1  0
 10  9  2  0
 11 12  1  0
 12 13  2  0
 12 17  1  0
 13 14  1  0
 14 15  2  0
 16 15  1  0
 17 16  2  0
 18  7  1  0
 19 18  2  0
 20 18  1  0
 21 20  1  0
 21 29  1  0
 22 23  1  0
 21 22  1  1
 23 24  2  0
 24 25  1  0
 26 25  2  0
 27 26  1  0
 28 23  1  0
 28 27  2  0
 29 30  1  0
 31 29  2  0
M  END
$$$$
