AWF.pdb
     RDKit          3D

 31 33  0  0  1  0  0  0  0  0999 V2000
   32.2048  -23.0705   -9.0528 C   0  0  0  0  0  0  0  0  0  0  0  0
   32.0982  -22.8994  -10.5688 C   0  0  2  0  0  0  0  0  0  0  0  0
   33.3503  -22.3750  -11.0770 N   0  0  0  0  0  0  0  0  0  0  0  0
   31.0425  -21.9075  -10.8104 C   0  0  0  0  0  0  0  0  0  0  0  0
   31.2026  -20.7011  -10.4792 O   0  0  0  0  0  0  0  0  0  0  0  0
   29.7907  -22.2197  -11.4203 N   0  0  0  0  0  0  0  0  0  0  0  0
   28.7679  -21.2029  -11.5670 C   0  0  1  0  0  0  0  0  0  0  0  0
   28.3511  -21.0937  -13.0443 C   0  0  0  0  0  0  0  0  0  0  0  0
   27.3759  -20.0113  -13.2363 C   0  0  0  0  0  0  0  0  0  0  0  0
   27.6510  -18.6859  -12.9511 C   0  0  0  0  0  0  0  0  0  0  0  0
   26.5415  -18.0018  -13.2453 N   0  0  0  0  0  0  0  0  0  0  0  0
   25.5864  -18.8316  -13.7002 C   0  0  0  0  0  0  0  0  0  0  0  0
   24.3005  -18.6189  -14.1242 C   0  0  0  0  0  0  0  0  0  0  0  0
   23.4957  -19.6389  -14.5535 C   0  0  0  0  0  0  0  0  0  0  0  0
   24.0064  -20.9391  -14.5581 C   0  0  0  0  0  0  0  0  0  0  0  0
   25.3043  -21.1745  -14.1331 C   0  0  0  0  0  0  0  0  0  0  0  0
   26.0846  -20.1125  -13.7064 C   0  0  0  0  0  0  0  0  0  0  0  0
   27.5926  -21.4659  -10.7124 C   0  0  0  0  0  0  0  0  0  0  0  0
   27.1602  -22.6370  -10.5613 O   0  0  0  0  0  0  0  0  0  0  0  0
   26.8828  -20.4410  -10.0157 N   0  0  0  0  0  0  0  0  0  0  0  0
   25.7697  -20.7067   -9.1424 C   0  0  1  0  0  0  0  0  0  0  0  0
   25.7094  -19.6304   -8.0928 C   0  0  0  0  0  0  0  0  0  0  0  0
   26.7796  -19.7895   -7.0644 C   0  0  0  0  0  0  0  0  0  0  0  0
   27.7488  -18.8017   -6.8948 C   0  0  0  0  0  0  0  0  0  0  0  0
   28.7226  -18.9727   -5.9440 C   0  0  0  0  0  0  0  0  0  0  0  0
   28.7485  -20.1105   -5.1587 C   0  0  0  0  0  0  0  0  0  0  0  0
   27.8088  -21.0910   -5.3078 C   0  0  0  0  0  0  0  0  0  0  0  0
   26.8317  -20.9051   -6.2714 C   0  0  0  0  0  0  0  0  0  0  0  0
   24.4782  -20.7935   -9.8214 C   0  0  0  0  0  0  0  0  0  0  0  0
   23.3935  -21.2477   -9.0531 O   0  0  0  0  0  0  0  0  0  0  0  0
   24.2477  -20.5058  -11.0067 O   0  0  0  0  0  0  0  0  0  0  0  0
  2  1  1  1
  2  3  1  0
  4  2  1  0
  4  5  2  0
  6  4  1  0
  7  6  1  0
  7  8  1  6
  9  8  1  0
  9 17  1  0
 10 11  1  0
 10  9  2  0
 11 12  1  0
 12 13  2  0
 12 17  1  0
 13 14  1  0
 14 15  2  0
 16 15  1  0
 17 16  2  0
 18  7  1  0
 19 18  2  0
 20 18  1  0
 21 20  1  0
 21 29  1  0
 22 23  1  0
 21 22  1  1
 23 24  2  0
 24 25  1  0
 26 25  2  0
 27 26  1  0
 28 23  1  0
 28 27  2  0
 29 30  1  0
 31 29  2  0
M  END
$$$$
