AWF.pdb
     RDKit          3D

 31 33  0  0  1  0  0  0  0  0999 V2000
   27.3771  -20.8587  -14.0626 C   0  0  0  0  0  0  0  0  0  0  0  0
   28.1807  -21.0961  -12.7832 C   0  0  2  0  0  0  0  0  0  0  0  0
   28.9696  -22.3026  -12.9347 N   0  0  0  0  0  0  0  0  0  0  0  0
   27.2073  -21.3054  -11.7037 C   0  0  0  0  0  0  0  0  0  0  0  0
   26.7461  -22.4548  -11.4646 O   0  0  0  0  0  0  0  0  0  0  0  0
   26.7208  -20.2580  -10.8654 N   0  0  0  0  0  0  0  0  0  0  0  0
   25.7462  -20.5356   -9.8288 C   0  0  1  0  0  0  0  0  0  0  0  0
   25.7817  -19.4202   -8.7692 C   0  0  0  0  0  0  0  0  0  0  0  0
   27.0227  -19.4805   -7.9845 C   0  0  0  0  0  0  0  0  0  0  0  0
   28.2384  -19.0169   -8.4549 C   0  0  0  0  0  0  0  0  0  0  0  0
   29.1252  -19.2367   -7.4798 N   0  0  0  0  0  0  0  0  0  0  0  0
   28.5264  -19.8138   -6.4234 C   0  0  0  0  0  0  0  0  0  0  0  0
   28.9971  -20.2267   -5.2042 C   0  0  0  0  0  0  0  0  0  0  0  0
   28.1843  -20.8005   -4.2646 C   0  0  0  0  0  0  0  0  0  0  0  0
   26.8300  -20.9689   -4.5627 C   0  0  0  0  0  0  0  0  0  0  0  0
   26.3352  -20.5578   -5.7902 C   0  0  0  0  0  0  0  0  0  0  0  0
   27.1933  -19.9815   -6.7123 C   0  0  0  0  0  0  0  0  0  0  0  0
   24.3823  -20.6937  -10.3728 C   0  0  0  0  0  0  0  0  0  0  0  0
   24.0556  -20.1386  -11.4528 O   0  0  0  0  0  0  0  0  0  0  0  0
   23.3657  -21.4654   -9.7321 N   0  0  0  0  0  0  0  0  0  0  0  0
   22.0028  -21.5121  -10.1933 C   0  0  1  0  0  0  0  0  0  0  0  0
   21.1910  -22.3284   -9.2246 C   0  0  0  0  0  0  0  0  0  0  0  0
   19.7581  -22.4212   -9.6328 C   0  0  0  0  0  0  0  0  0  0  0  0
   19.3374  -23.4175  -10.5127 C   0  0  0  0  0  0  0  0  0  0  0  0
   18.0154  -23.4802  -10.8736 C   0  0  0  0  0  0  0  0  0  0  0  0
   17.1046  -22.5679  -10.3734 C   0  0  0  0  0  0  0  0  0  0  0  0
   17.4948  -21.5837   -9.5100 C   0  0  0  0  0  0  0  0  0  0  0  0
   18.8323  -21.5323   -9.1544 C   0  0  0  0  0  0  0  0  0  0  0  0
   21.3788  -20.2014  -10.3635 C   0  0  0  0  0  0  0  0  0  0  0  0
   20.4718  -20.0705  -11.4280 O   0  0  0  0  0  0  0  0  0  0  0  0
   21.5718  -19.1963   -9.6610 O   0  0  0  0  0  0  0  0  0  0  0  0
  2  1  1  6
  2  3  1  0
  4  2  1  0
  4  5  2  0
  6  4  1  0
  7  6  1  0
  7  8  1  1
  9  8  1  0
  9 17  1  0
 10 11  1  0
 10  9  2  0
 11 12  1  0
 12 13  2  0
 12 17  1  0
 13 14  1  0
 14 15  2  0
 16 15  1  0
 17 16  2  0
 18  7  1  0
 19 18  2  0
 20 18  1  0
 21 20  1  0
 21 29  1  0
 22 23  1  0
 21 22  1  1
 23 24  2  0
 24 25  1  0
 26 25  2  0
 27 26  1  0
 28 23  1  0
 28 27  2  0
 29 30  1  0
 31 29  2  0
M  END
$$$$
