AWF.pdb
     RDKit          3D

 31 33  0  0  1  0  0  0  0  0999 V2000
   27.6297  -19.8782  -15.2523 C   0  0  0  0  0  0  0  0  0  0  0  0
   28.2832  -20.7710  -14.1965 C   0  0  2  0  0  0  0  0  0  0  0  0
   28.7413  -21.9938  -14.8259 N   0  0  0  0  0  0  0  0  0  0  0  0
   27.2384  -21.1091  -13.2214 C   0  0  0  0  0  0  0  0  0  0  0  0
   26.3932  -22.0121  -13.4682 O   0  0  0  0  0  0  0  0  0  0  0  0
   27.1005  -20.4631  -11.9564 N   0  0  0  0  0  0  0  0  0  0  0  0
   25.9595  -20.7416  -11.1067 C   0  0  1  0  0  0  0  0  0  0  0  0
   26.1397  -20.0419   -9.7480 C   0  0  0  0  0  0  0  0  0  0  0  0
   27.3690  -20.4952   -9.0826 C   0  0  0  0  0  0  0  0  0  0  0  0
   28.2520  -21.3933   -9.6551 C   0  0  0  0  0  0  0  0  0  0  0  0
   29.2369  -21.5662   -8.7688 N   0  0  0  0  0  0  0  0  0  0  0  0
   29.0153  -20.8222   -7.6711 C   0  0  0  0  0  0  0  0  0  0  0  0
   29.7198  -20.6570   -6.5071 C   0  0  0  0  0  0  0  0  0  0  0  0
   29.2914  -19.8277   -5.5065 C   0  0  0  0  0  0  0  0  0  0  0  0
   28.0952  -19.1279   -5.6819 C   0  0  0  0  0  0  0  0  0  0  0  0
   27.3686  -19.2816   -6.8520 C   0  0  0  0  0  0  0  0  0  0  0  0
   27.8390  -20.1316   -7.8394 C   0  0  0  0  0  0  0  0  0  0  0  0
   24.6846  -20.3395  -11.7344 C   0  0  0  0  0  0  0  0  0  0  0  0
   24.6484  -19.3907  -12.5588 O   0  0  0  0  0  0  0  0  0  0  0  0
   23.4378  -20.9795  -11.4600 N   0  0  0  0  0  0  0  0  0  0  0  0
   22.2139  -20.6465  -12.1408 C   0  0  1  0  0  0  0  0  0  0  0  0
   22.3406  -21.0421  -13.5869 C   0  0  0  0  0  0  0  0  0  0  0  0
   21.0758  -20.8091  -14.3449 C   0  0  0  0  0  0  0  0  0  0  0  0
   20.2243  -21.8723  -14.6419 C   0  0  0  0  0  0  0  0  0  0  0  0
   19.0688  -21.6320  -15.3411 C   0  0  0  0  0  0  0  0  0  0  0  0
   18.7462  -20.3511  -15.7500 C   0  0  0  0  0  0  0  0  0  0  0  0
   19.5660  -19.2946  -15.4698 C   0  0  0  0  0  0  0  0  0  0  0  0
   20.7290  -19.5519  -14.7633 C   0  0  0  0  0  0  0  0  0  0  0  0
   21.0194  -21.2679  -11.5720 C   0  0  0  0  0  0  0  0  0  0  0  0
   21.2055  -22.4848  -10.8957 O   0  0  0  0  0  0  0  0  0  0  0  0
   19.8607  -20.8261  -11.6284 O   0  0  0  0  0  0  0  0  0  0  0  0
  2  1  1  6
  2  3  1  0
  4  2  1  0
  4  5  2  0
  6  4  1  0
  7  6  1  0
  7  8  1  1
  9  8  1  0
  9 17  1  0
 10 11  1  0
 10  9  2  0
 11 12  1  0
 12 13  2  0
 12 17  1  0
 13 14  1  0
 14 15  2  0
 16 15  1  0
 17 16  2  0
 18  7  1  0
 19 18  2  0
 20 18  1  0
 21 20  1  0
 21 29  1  0
 22 23  1  0
 21 22  1  6
 23 24  2  0
 24 25  1  0
 26 25  2  0
 27 26  1  0
 28 23  1  0
 28 27  2  0
 29 30  1  0
 31 29  2  0
M  END
$$$$
