AWF.pdb
     RDKit          3D

 31 33  0  0  1  0  0  0  0  0999 V2000
   29.3691  -31.6384    4.6960 C   0  0  0  0  0  0  0  0  0  0  0  0
   28.1118  -32.5059    4.7728 C   0  0  2  0  0  0  0  0  0  0  0  0
   27.5369  -32.6276    3.4478 N   0  0  0  0  0  0  0  0  0  0  0  0
   27.1580  -31.7950    5.6339 C   0  0  0  0  0  0  0  0  0  0  0  0
   26.5502  -30.7718    5.2162 O   0  0  0  0  0  0  0  0  0  0  0  0
   26.8522  -32.1928    6.9698 N   0  0  0  0  0  0  0  0  0  0  0  0
   25.9518  -31.4031    7.7865 C   0  0  1  0  0  0  0  0  0  0  0  0
   25.4265  -32.2556    8.9550 C   0  0  0  0  0  0  0  0  0  0  0  0
   24.3089  -33.1067    8.5236 C   0  0  0  0  0  0  0  0  0  0  0  0
   24.4196  -34.0467    7.5146 C   0  0  0  0  0  0  0  0  0  0  0  0
   23.2169  -34.6178    7.4017 N   0  0  0  0  0  0  0  0  0  0  0  0
   22.3594  -34.0833    8.2887 C   0  0  0  0  0  0  0  0  0  0  0  0
   21.0382  -34.3259    8.5607 C   0  0  0  0  0  0  0  0  0  0  0  0
   20.3559  -33.6436    9.5311 C   0  0  0  0  0  0  0  0  0  0  0  0
   21.0330  -32.6680   10.2665 C   0  0  0  0  0  0  0  0  0  0  0  0
   22.3692  -32.4081   10.0062 C   0  0  0  0  0  0  0  0  0  0  0  0
   23.0216  -33.1224    9.0148 C   0  0  0  0  0  0  0  0  0  0  0  0
   26.5898  -30.1692    8.2879 C   0  0  0  0  0  0  0  0  0  0  0  0
   27.8171  -30.1487    8.5610 O   0  0  0  0  0  0  0  0  0  0  0  0
   25.8817  -28.9460    8.4926 N   0  0  0  0  0  0  0  0  0  0  0  0
   26.5002  -27.7540    9.0110 C   0  0  1  0  0  0  0  0  0  0  0  0
   27.5000  -27.2502    8.0058 C   0  0  0  0  0  0  0  0  0  0  0  0
   28.2229  -26.0383    8.4927 C   0  0  0  0  0  0  0  0  0  0  0  0
   27.5691  -24.8093    8.5700 C   0  0  0  0  0  0  0  0  0  0  0  0
   28.2562  -23.7104    9.0192 C   0  0  0  0  0  0  0  0  0  0  0  0
   29.5835  -23.8136    9.3931 C   0  0  0  0  0  0  0  0  0  0  0  0
   30.2437  -25.0079    9.3256 C   0  0  0  0  0  0  0  0  0  0  0  0
   29.5376  -26.1089    8.8702 C   0  0  0  0  0  0  0  0  0  0  0  0
   25.5623  -26.6822    9.3396 C   0  0  0  0  0  0  0  0  0  0  0  0
   26.0394  -25.6666   10.1846 O   0  0  0  0  0  0  0  0  0  0  0  0
   24.3893  -26.5826    8.9457 O   0  0  0  0  0  0  0  0  0  0  0  0
  2  1  1  6
  2  3  1  0
  4  2  1  0
  4  5  2  0
  6  4  1  0
  7  6  1  0
  7  8  1  1
  9  8  1  0
  9 17  1  0
 10 11  1  0
 10  9  2  0
 11 12  1  0
 12 13  2  0
 12 17  1  0
 13 14  1  0
 14 15  2  0
 16 15  1  0
 17 16  2  0
 18  7  1  0
 19 18  2  0
 20 18  1  0
 21 20  1  0
 21 29  1  0
 22 23  1  0
 21 22  1  6
 23 24  2  0
 24 25  1  0
 26 25  2  0
 27 26  1  0
 28 23  1  0
 28 27  2  0
 29 30  1  0
 31 29  2  0
M  END
$$$$
