AWF.pdb
     RDKit          3D

 31 33  0  0  1  0  0  0  0  0999 V2000
   23.1950  -22.1851  -14.5312 C   0  0  0  0  0  0  0  0  0  0  0  0
   24.6913  -22.3672  -14.7897 C   0  0  2  0  0  0  0  0  0  0  0  0
   24.9142  -23.6649  -15.3959 N   0  0  0  0  0  0  0  0  0  0  0  0
   25.3542  -22.3423  -13.4795 C   0  0  0  0  0  0  0  0  0  0  0  0
   25.4176  -23.3821  -12.7685 O   0  0  0  0  0  0  0  0  0  0  0  0
   25.9605  -21.1761  -12.9237 N   0  0  0  0  0  0  0  0  0  0  0  0
   26.6197  -21.2312  -11.6338 C   0  0  1  0  0  0  0  0  0  0  0  0
   27.7660  -20.2054  -11.5912 C   0  0  0  0  0  0  0  0  0  0  0  0
   28.7626  -20.5730  -10.5758 C   0  0  0  0  0  0  0  0  0  0  0  0
   29.8758  -21.3459  -10.8536 C   0  0  0  0  0  0  0  0  0  0  0  0
   30.5409  -21.4717   -9.7015 N   0  0  0  0  0  0  0  0  0  0  0  0
   29.9007  -20.8168   -8.7171 C   0  0  0  0  0  0  0  0  0  0  0  0
   30.1758  -20.6500   -7.3849 C   0  0  0  0  0  0  0  0  0  0  0  0
   29.3623  -19.9251   -6.5571 C   0  0  0  0  0  0  0  0  0  0  0  0
   28.2138  -19.3373   -7.0925 C   0  0  0  0  0  0  0  0  0  0  0  0
   27.9184  -19.4945   -8.4374 C   0  0  0  0  0  0  0  0  0  0  0  0
   28.7696  -20.2366   -9.2396 C   0  0  0  0  0  0  0  0  0  0  0  0
   25.6799  -21.0086  -10.5165 C   0  0  0  0  0  0  0  0  0  0  0  0
   24.6917  -20.2432  -10.6542 O   0  0  0  0  0  0  0  0  0  0  0  0
   25.8199  -21.6276   -9.2371 N   0  0  0  0  0  0  0  0  0  0  0  0
   24.7893  -21.6033   -8.2324 C   0  0  1  0  0  0  0  0  0  0  0  0
   25.2952  -22.3059   -7.0020 C   0  0  0  0  0  0  0  0  0  0  0  0
   26.2523  -21.4617   -6.2278 C   0  0  0  0  0  0  0  0  0  0  0  0
   27.6184  -21.5097   -6.5023 C   0  0  0  0  0  0  0  0  0  0  0  0
   28.4774  -20.7252   -5.7754 C   0  0  0  0  0  0  0  0  0  0  0  0
   27.9999  -19.8933   -4.7794 C   0  0  0  0  0  0  0  0  0  0  0  0
   26.6653  -19.8304   -4.4937 C   0  0  0  0  0  0  0  0  0  0  0  0
   25.8098  -20.6278   -5.2354 C   0  0  0  0  0  0  0  0  0  0  0  0
   24.3316  -20.2631   -7.8707 C   0  0  0  0  0  0  0  0  0  0  0  0
   23.1321  -20.1834   -7.1440 O   0  0  0  0  0  0  0  0  0  0  0  0
   24.8980  -19.1924   -8.1422 O   0  0  0  0  0  0  0  0  0  0  0  0
  2  1  1  1
  2  3  1  0
  4  2  1  0
  4  5  2  0
  6  4  1  0
  7  6  1  0
  7  8  1  6
  9  8  1  0
  9 17  1  0
 10 11  1  0
 10  9  2  0
 11 12  1  0
 12 13  2  0
 12 17  1  0
 13 14  1  0
 14 15  2  0
 16 15  1  0
 17 16  2  0
 18  7  1  0
 19 18  2  0
 20 18  1  0
 21 20  1  0
 21 29  1  0
 22 23  1  0
 21 22  1  1
 23 24  2  0
 24 25  1  0
 26 25  2  0
 27 26  1  0
 28 23  1  0
 28 27  2  0
 29 30  1  0
 31 29  2  0
M  END
$$$$
