AWF.pdb
     RDKit          3D

 31 33  0  0  1  0  0  0  0  0999 V2000
   27.8547  -19.6946  -14.5901 C   0  0  0  0  0  0  0  0  0  0  0  0
   28.6043  -20.4601  -13.4987 C   0  0  2  0  0  0  0  0  0  0  0  0
   29.1903  -21.6549  -14.0734 N   0  0  0  0  0  0  0  0  0  0  0  0
   27.6053  -20.8621  -12.5002 C   0  0  0  0  0  0  0  0  0  0  0  0
   26.9986  -21.9632  -12.6014 O   0  0  0  0  0  0  0  0  0  0  0  0
   27.2523  -20.0639  -11.3711 N   0  0  0  0  0  0  0  0  0  0  0  0
   26.1401  -20.4402  -10.5208 C   0  0  1  0  0  0  0  0  0  0  0  0
   26.2878  -19.7690   -9.1439 C   0  0  0  0  0  0  0  0  0  0  0  0
   27.4597  -20.2917   -8.4277 C   0  0  0  0  0  0  0  0  0  0  0  0
   28.3612  -21.1744   -8.9950 C   0  0  0  0  0  0  0  0  0  0  0  0
   29.2800  -21.4248   -8.0576 N   0  0  0  0  0  0  0  0  0  0  0  0
   28.9993  -20.7436   -6.9329 C   0  0  0  0  0  0  0  0  0  0  0  0
   29.6263  -20.6667   -5.7165 C   0  0  0  0  0  0  0  0  0  0  0  0
   29.1477  -19.8895   -4.6969 C   0  0  0  0  0  0  0  0  0  0  0  0
   27.9806  -19.1516   -4.9077 C   0  0  0  0  0  0  0  0  0  0  0  0
   27.3322  -19.2162   -6.1309 C   0  0  0  0  0  0  0  0  0  0  0  0
   27.8513  -20.0158   -7.1357 C   0  0  0  0  0  0  0  0  0  0  0  0
   24.8357  -20.1045  -11.1265 C   0  0  0  0  0  0  0  0  0  0  0  0
   24.6627  -19.0002  -11.7024 O   0  0  0  0  0  0  0  0  0  0  0  0
   23.7098  -20.9828  -11.1037 N   0  0  0  0  0  0  0  0  0  0  0  0
   22.4809  -20.7076  -11.8011 C   0  0  1  0  0  0  0  0  0  0  0  0
   22.7679  -20.6274  -13.2758 C   0  0  0  0  0  0  0  0  0  0  0  0
   23.3811  -21.8847  -13.7969 C   0  0  0  0  0  0  0  0  0  0  0  0
   24.6685  -21.8738  -14.3320 C   0  0  0  0  0  0  0  0  0  0  0  0
   25.2086  -23.0423  -14.8058 C   0  0  0  0  0  0  0  0  0  0  0  0
   24.4891  -24.2221  -14.7562 C   0  0  0  0  0  0  0  0  0  0  0  0
   23.2262  -24.2558  -14.2361 C   0  0  0  0  0  0  0  0  0  0  0  0
   22.6935  -23.0688  -13.7615 C   0  0  0  0  0  0  0  0  0  0  0  0
   21.4223  -21.6878  -11.5667 C   0  0  0  0  0  0  0  0  0  0  0  0
   20.1714  -21.4120  -12.1431 O   0  0  0  0  0  0  0  0  0  0  0  0
   21.5211  -22.7367  -10.9101 O   0  0  0  0  0  0  0  0  0  0  0  0
  2  1  1  6
  2  3  1  0
  4  2  1  0
  4  5  2  0
  6  4  1  0
  7  6  1  0
  7  8  1  1
  9  8  1  0
  9 17  1  0
 10 11  1  0
 10  9  2  0
 11 12  1  0
 12 13  2  0
 12 17  1  0
 13 14  1  0
 14 15  2  0
 16 15  1  0
 17 16  2  0
 18  7  1  0
 19 18  2  0
 20 18  1  0
 21 20  1  0
 21 29  1  0
 22 23  1  0
 21 22  1  6
 23 24  2  0
 24 25  1  0
 26 25  2  0
 27 26  1  0
 28 23  1  0
 28 27  2  0
 29 30  1  0
 31 29  2  0
M  END
$$$$
