AWF.pdb
     RDKit          3D

 31 33  0  0  1  0  0  0  0  0999 V2000
   27.8394  -18.0400  -17.4180 C   0  0  0  0  0  0  0  0  0  0  0  0
   26.7687  -17.7063  -18.4578 C   0  0  2  0  0  0  0  0  0  0  0  0
   27.0106  -16.3754  -18.9786 N   0  0  0  0  0  0  0  0  0  0  0  0
   25.4796  -17.7068  -17.7542 C   0  0  0  0  0  0  0  0  0  0  0  0
   25.2454  -16.8746  -16.8359 O   0  0  0  0  0  0  0  0  0  0  0  0
   24.4223  -18.6203  -18.0445 N   0  0  0  0  0  0  0  0  0  0  0  0
   23.2059  -18.6150  -17.2559 C   0  0  1  0  0  0  0  0  0  0  0  0
   22.0086  -18.9967  -18.1440 C   0  0  0  0  0  0  0  0  0  0  0  0
   20.7553  -18.9674  -17.3772 C   0  0  0  0  0  0  0  0  0  0  0  0
   20.4580  -17.9837  -16.4510 C   0  0  0  0  0  0  0  0  0  0  0  0
   19.2518  -18.2838  -15.9607 N   0  0  0  0  0  0  0  0  0  0  0  0
   18.7792  -19.4049  -16.5329 C   0  0  0  0  0  0  0  0  0  0  0  0
   17.6122  -20.1054  -16.3716 C   0  0  0  0  0  0  0  0  0  0  0  0
   17.3417  -21.2451  -17.0790 C   0  0  0  0  0  0  0  0  0  0  0  0
   18.2899  -21.7063  -17.9953 C   0  0  0  0  0  0  0  0  0  0  0  0
   19.4761  -21.0118  -18.1725 C   0  0  0  0  0  0  0  0  0  0  0  0
   19.7092  -19.8624  -17.4355 C   0  0  0  0  0  0  0  0  0  0  0  0
   23.2945  -19.5131  -16.0870 C   0  0  0  0  0  0  0  0  0  0  0  0
   23.8632  -20.6308  -16.1802 O   0  0  0  0  0  0  0  0  0  0  0  0
   22.7577  -19.1881  -14.8041 N   0  0  0  0  0  0  0  0  0  0  0  0
   22.9408  -20.0151  -13.6401 C   0  0  1  0  0  0  0  0  0  0  0  0
   23.6192  -19.2031  -12.5704 C   0  0  0  0  0  0  0  0  0  0  0  0
   23.8588  -19.9983  -11.3301 C   0  0  0  0  0  0  0  0  0  0  0  0
   22.8486  -20.1483  -10.3809 C   0  0  0  0  0  0  0  0  0  0  0  0
   23.0946  -20.8826   -9.2487 C   0  0  0  0  0  0  0  0  0  0  0  0
   24.3294  -21.4706   -9.0448 C   0  0  0  0  0  0  0  0  0  0  0  0
   25.3336  -21.3367   -9.9616 C   0  0  0  0  0  0  0  0  0  0  0  0
   25.0711  -20.5927  -11.0998 C   0  0  0  0  0  0  0  0  0  0  0  0
   21.7056  -20.5847  -13.1051 C   0  0  0  0  0  0  0  0  0  0  0  0
   21.7125  -21.9642  -12.8409 O   0  0  0  0  0  0  0  0  0  0  0  0
   20.6549  -19.9698  -12.8623 O   0  0  0  0  0  0  0  0  0  0  0  0
  2  1  1  1
  2  3  1  0
  4  2  1  0
  4  5  2  0
  6  4  1  0
  7  6  1  0
  7  8  1  6
  9  8  1  0
  9 17  1  0
 10 11  1  0
 10  9  2  0
 11 12  1  0
 12 13  2  0
 12 17  1  0
 13 14  1  0
 14 15  2  0
 16 15  1  0
 17 16  2  0
 18  7  1  0
 19 18  2  0
 20 18  1  0
 21 20  1  0
 21 29  1  0
 22 23  1  0
 21 22  1  1
 23 24  2  0
 24 25  1  0
 26 25  2  0
 27 26  1  0
 28 23  1  0
 28 27  2  0
 29 30  1  0
 31 29  2  0
M  END
$$$$
