AWF.pdb
     RDKit          3D

 31 33  0  0  1  0  0  0  0  0999 V2000
   25.2126  -19.6774  -16.2611 C   0  0  0  0  0  0  0  0  0  0  0  0
   26.6687  -20.1243  -16.1227 C   0  0  2  0  0  0  0  0  0  0  0  0
   27.0311  -20.9259  -17.2748 N   0  0  0  0  0  0  0  0  0  0  0  0
   26.7411  -20.9684  -14.9232 C   0  0  0  0  0  0  0  0  0  0  0  0
   26.6231  -22.2213  -15.0078 O   0  0  0  0  0  0  0  0  0  0  0  0
   26.9444  -20.4546  -13.6075 N   0  0  0  0  0  0  0  0  0  0  0  0
   26.9029  -21.3357  -12.4571 C   0  0  1  0  0  0  0  0  0  0  0  0
   27.8458  -20.8063  -11.3622 C   0  0  0  0  0  0  0  0  0  0  0  0
   29.2418  -21.1595  -11.6551 C   0  0  0  0  0  0  0  0  0  0  0  0
   29.8300  -20.9569  -12.8908 C   0  0  0  0  0  0  0  0  0  0  0  0
   31.0878  -21.3946  -12.7826 N   0  0  0  0  0  0  0  0  0  0  0  0
   31.3166  -21.8606  -11.5424 C   0  0  0  0  0  0  0  0  0  0  0  0
   32.4255  -22.4040  -10.9477 C   0  0  0  0  0  0  0  0  0  0  0  0
   32.4254  -22.8165   -9.6429 C   0  0  0  0  0  0  0  0  0  0  0  0
   31.2532  -22.6770   -8.8960 C   0  0  0  0  0  0  0  0  0  0  0  0
   30.1215  -22.1298   -9.4796 C   0  0  0  0  0  0  0  0  0  0  0  0
   30.1656  -21.7253  -10.8036 C   0  0  0  0  0  0  0  0  0  0  0  0
   25.5335  -21.5012  -11.9298 C   0  0  0  0  0  0  0  0  0  0  0  0
   25.2544  -22.4576  -11.1624 O   0  0  0  0  0  0  0  0  0  0  0  0
   24.4587  -20.6143  -12.2425 N   0  0  0  0  0  0  0  0  0  0  0  0
   23.1428  -20.7382  -11.6722 C   0  0  1  0  0  0  0  0  0  0  0  0
   22.9368  -19.6242  -10.6821 C   0  0  0  0  0  0  0  0  0  0  0  0
   23.8560  -19.7375   -9.5113 C   0  0  0  0  0  0  0  0  0  0  0  0
   23.5420  -20.5798   -8.4457 C   0  0  0  0  0  0  0  0  0  0  0  0
   24.4026  -20.6648   -7.3808 C   0  0  0  0  0  0  0  0  0  0  0  0
   25.5709  -19.9255   -7.3584 C   0  0  0  0  0  0  0  0  0  0  0  0
   25.8984  -19.0939   -8.3918 C   0  0  0  0  0  0  0  0  0  0  0  0
   25.0204  -19.0180   -9.4601 C   0  0  0  0  0  0  0  0  0  0  0  0
   22.0576  -20.7223  -12.6512 C   0  0  0  0  0  0  0  0  0  0  0  0
   20.7607  -20.9354  -12.1554 O   0  0  0  0  0  0  0  0  0  0  0  0
   22.1703  -20.5393  -13.8738 O   0  0  0  0  0  0  0  0  0  0  0  0
  2  1  1  6
  2  3  1  0
  4  2  1  0
  4  5  2  0
  6  4  1  0
  7  6  1  0
  7  8  1  1
  9  8  1  0
  9 17  1  0
 10 11  1  0
 10  9  2  0
 11 12  1  0
 12 13  2  0
 12 17  1  0
 13 14  1  0
 14 15  2  0
 16 15  1  0
 17 16  2  0
 18  7  1  0
 19 18  2  0
 20 18  1  0
 21 20  1  0
 21 29  1  0
 22 23  1  0
 21 22  1  1
 23 24  2  0
 24 25  1  0
 26 25  2  0
 27 26  1  0
 28 23  1  0
 28 27  2  0
 29 30  1  0
 31 29  2  0
M  END
$$$$
