AWF.pdb
     RDKit          3D

 31 33  0  0  1  0  0  0  0  0999 V2000
   29.5873  -23.0982  -16.7152 C   0  0  0  0  0  0  0  0  0  0  0  0
   28.3610  -22.2024  -16.8959 C   0  0  2  0  0  0  0  0  0  0  0  0
   28.7978  -20.8577  -17.2151 N   0  0  0  0  0  0  0  0  0  0  0  0
   27.6626  -22.1739  -15.6044 C   0  0  0  0  0  0  0  0  0  0  0  0
   27.2036  -23.2328  -15.0955 O   0  0  0  0  0  0  0  0  0  0  0  0
   27.4541  -20.9833  -14.8459 N   0  0  0  0  0  0  0  0  0  0  0  0
   26.7039  -21.0206  -13.6060 C   0  0  1  0  0  0  0  0  0  0  0  0
   27.2417  -19.9501  -12.6402 C   0  0  0  0  0  0  0  0  0  0  0  0
   28.0209  -20.5643  -11.5562 C   0  0  0  0  0  0  0  0  0  0  0  0
   29.1708  -21.3016  -11.7752 C   0  0  0  0  0  0  0  0  0  0  0  0
   29.5969  -21.6964  -10.5717 N   0  0  0  0  0  0  0  0  0  0  0  0
   28.7723  -21.2436   -9.6111 C   0  0  0  0  0  0  0  0  0  0  0  0
   28.7792  -21.3766   -8.2470 C   0  0  0  0  0  0  0  0  0  0  0  0
   27.8151  -20.8154   -7.4544 C   0  0  0  0  0  0  0  0  0  0  0  0
   26.7915  -20.0833   -8.0607 C   0  0  0  0  0  0  0  0  0  0  0  0
   26.7672  -19.9375   -9.4387 C   0  0  0  0  0  0  0  0  0  0  0  0
   27.7633  -20.5224  -10.2032 C   0  0  0  0  0  0  0  0  0  0  0  0
   25.2542  -20.8433  -13.8251 C   0  0  0  0  0  0  0  0  0  0  0  0
   24.8308  -19.9956  -14.6517 O   0  0  0  0  0  0  0  0  0  0  0  0
   24.2574  -21.5988  -13.1357 N   0  0  0  0  0  0  0  0  0  0  0  0
   22.8451  -21.4231  -13.3518 C   0  0  1  0  0  0  0  0  0  0  0  0
   22.1032  -22.5000  -12.6077 C   0  0  0  0  0  0  0  0  0  0  0  0
   21.7454  -22.0787  -11.2210 C   0  0  0  0  0  0  0  0  0  0  0  0
   20.4167  -21.8319  -10.8784 C   0  0  0  0  0  0  0  0  0  0  0  0
   20.1144  -21.4443   -9.5978 C   0  0  0  0  0  0  0  0  0  0  0  0
   21.1123  -21.2981   -8.6518 C   0  0  0  0  0  0  0  0  0  0  0  0
   22.4208  -21.5348   -8.9656 C   0  0  0  0  0  0  0  0  0  0  0  0
   22.7113  -21.9254  -10.2621 C   0  0  0  0  0  0  0  0  0  0  0  0
   22.3318  -20.1151  -12.9491 C   0  0  0  0  0  0  0  0  0  0  0  0
   21.0739  -19.7502  -13.4566 O   0  0  0  0  0  0  0  0  0  0  0  0
   22.8975  -19.2984  -12.2049 O   0  0  0  0  0  0  0  0  0  0  0  0
  2  1  1  1
  2  3  1  0
  4  2  1  0
  4  5  2  0
  6  4  1  0
  7  6  1  0
  7  8  1  1
  9  8  1  0
  9 17  1  0
 10 11  1  0
 10  9  2  0
 11 12  1  0
 12 13  2  0
 12 17  1  0
 13 14  1  0
 14 15  2  0
 16 15  1  0
 17 16  2  0
 18  7  1  0
 19 18  2  0
 20 18  1  0
 21 20  1  0
 21 29  1  0
 22 23  1  0
 21 22  1  1
 23 24  2  0
 24 25  1  0
 26 25  2  0
 27 26  1  0
 28 23  1  0
 28 27  2  0
 29 30  1  0
 31 29  2  0
M  END
$$$$
