YMA.pdb
     RDKit          3D

 26 26  0  0  1  0  0  0  0  0999 V2000
    7.6008  -13.4379   15.6815 O   0  0  0  0  0  0  0  0  0  0  0  0
    7.6590  -13.9335   16.9642 C   0  0  0  0  0  0  0  0  0  0  0  0
    7.5452  -15.2915   17.2056 C   0  0  0  0  0  0  0  0  0  0  0  0
    7.6033  -15.7880   18.4895 C   0  0  0  0  0  0  0  0  0  0  0  0
    7.7741  -14.9441   19.5411 C   0  0  0  0  0  0  0  0  0  0  0  0
    7.8367  -15.4833   20.9240 C   0  0  0  0  0  0  0  0  0  0  0  0
    9.1422  -15.0086   21.5289 C   0  0  2  0  0  0  0  0  0  0  0  0
   10.2164  -15.6992   20.8388 N   0  0  0  0  0  0  0  0  0  0  0  0
    9.1902  -15.2647   22.9921 C   0  0  0  0  0  0  0  0  0  0  0  0
   10.1974  -15.7702   23.5621 O   0  0  0  0  0  0  0  0  0  0  0  0
    7.8907  -13.5884   19.3351 C   0  0  0  0  0  0  0  0  0  0  0  0
    7.8321  -13.0874   18.0407 C   0  0  0  0  0  0  0  0  0  0  0  0
    6.4494  -10.4198   26.4702 C   0  0  0  0  0  0  0  0  0  0  0  0
    6.2086  -11.8587   27.5364 S   0  0  0  0  0  0  0  0  0  0  0  0
    7.3166  -13.2233   27.0657 C   0  0  0  0  0  0  0  0  0  0  0  0
    7.2937  -13.4672   25.5835 C   0  0  0  0  0  0  0  0  0  0  0  0
    8.2170  -14.5655   25.2269 C   0  0  2  0  0  0  0  0  0  0  0  0
    8.0933  -14.9478   23.8170 N   0  0  0  0  0  0  0  0  0  0  0  0
    8.1184  -15.8009   26.0288 C   0  0  0  0  0  0  0  0  0  0  0  0
    8.0552  -15.8802   27.2721 O   0  0  0  0  0  0  0  0  0  0  0  0
    7.6766  -19.4450   25.1099 C   0  0  0  0  0  0  0  0  0  0  0  0
    7.8896  -18.3235   26.1052 C   0  0  2  0  0  0  0  0  0  0  0  0
    8.0871  -17.0932   25.3635 N   0  0  0  0  0  0  0  0  0  0  0  0
    9.1141  -18.6367   26.9185 C   0  0  0  0  0  0  0  0  0  0  0  0
   10.1323  -17.9349   26.8798 O   0  0  0  0  0  0  0  0  0  0  0  0
    9.0555  -19.7591   27.7244 O   0  0  0  0  0  0  0  0  0  0  0  0
  2  3  2  0
  2  1  1  0
  4  3  1  0
  5  4  2  0
  6  5  1  0
  7  9  1  0
  7  6  1  0
  7  8  1  6
  9 10  2  0
 11  5  1  0
 11 12  2  0
 12  2  1  0
 14 13  1  0
 15 14  1  0
 16 15  1  0
 17 16  1  1
 18  9  1  0
 18 17  1  0
 19 23  1  0
 19 17  1  0
 20 19  2  0
 22 21  1  6
 22 24  1  0
 22 23  1  0
 24 26  1  0
 25 24  2  0
M  END
$$$$
