YMA.pdb
     RDKit          3D

 26 26  0  0  1  0  0  0  0  0999 V2000
    6.0322  -13.3548   18.1645 O   0  0  0  0  0  0  0  0  0  0  0  0
    7.1598  -13.7648   18.8389 C   0  0  0  0  0  0  0  0  0  0  0  0
    7.5783  -13.1103   19.9843 C   0  0  0  0  0  0  0  0  0  0  0  0
    8.7069  -13.5204   20.6597 C   0  0  0  0  0  0  0  0  0  0  0  0
    9.4274  -14.5797   20.2059 C   0  0  0  0  0  0  0  0  0  0  0  0
   10.6436  -15.0192   20.9373 C   0  0  0  0  0  0  0  0  0  0  0  0
   10.2105  -16.0868   21.9214 C   0  0  2  0  0  0  0  0  0  0  0  0
    9.0529  -16.7549   21.3550 N   0  0  0  0  0  0  0  0  0  0  0  0
    9.8987  -15.5061   23.2535 C   0  0  0  0  0  0  0  0  0  0  0  0
   10.7424  -14.8467   23.9231 O   0  0  0  0  0  0  0  0  0  0  0  0
    9.0381  -15.2522   19.0701 C   0  0  0  0  0  0  0  0  0  0  0  0
    7.9002  -14.8390   18.3888 C   0  0  0  0  0  0  0  0  0  0  0  0
    7.5497  -11.2313   27.5534 C   0  0  0  0  0  0  0  0  0  0  0  0
    6.3766  -12.1155   26.5012 S   0  0  0  0  0  0  0  0  0  0  0  0
    6.6828  -13.9090   26.5313 C   0  0  0  0  0  0  0  0  0  0  0  0
    6.9899  -14.4401   25.1600 C   0  0  0  0  0  0  0  0  0  0  0  0
    8.2682  -15.1829   25.1685 C   0  0  2  0  0  0  0  0  0  0  0  0
    8.6257  -15.6714   23.8333 N   0  0  0  0  0  0  0  0  0  0  0  0
    8.3639  -16.3268   26.0965 C   0  0  0  0  0  0  0  0  0  0  0  0
    7.9808  -16.3588   27.2832 O   0  0  0  0  0  0  0  0  0  0  0  0
    9.3756  -19.9393   25.6740 C   0  0  0  0  0  0  0  0  0  0  0  0
    9.0654  -18.7242   26.5232 C   0  0  2  0  0  0  0  0  0  0  0  0
    8.9552  -17.5758   25.6447 N   0  0  0  0  0  0  0  0  0  0  0  0
   10.1946  -18.5229   27.4945 C   0  0  0  0  0  0  0  0  0  0  0  0
   10.9290  -17.5279   27.4595 O   0  0  0  0  0  0  0  0  0  0  0  0
   10.3824  -19.5111   28.4438 O   0  0  0  0  0  0  0  0  0  0  0  0
  2  3  2  0
  2  1  1  0
  4  3  1  0
  5  4  2  0
  6  5  1  0
  7  9  1  0
  7  6  1  0
  7  8  1  6
  9 10  2  0
 11  5  1  0
 11 12  2  0
 12  2  1  0
 14 13  1  0
 15 14  1  0
 16 15  1  0
 17 16  1  6
 18  9  1  0
 18 17  1  0
 19 23  1  0
 19 17  1  0
 20 19  2  0
 22 21  1  6
 22 24  1  0
 22 23  1  0
 24 26  1  0
 25 24  2  0
M  END
$$$$
