YMA.pdb
     RDKit          3D

 26 26  0  0  1  0  0  0  0  0999 V2000
    7.7589  -13.9162   15.5218 O   0  0  0  0  0  0  0  0  0  0  0  0
    7.6815  -13.9120   16.8960 C   0  0  0  0  0  0  0  0  0  0  0  0
    7.1539  -14.9934   17.5798 C   0  0  0  0  0  0  0  0  0  0  0  0
    7.0762  -14.9896   18.9554 C   0  0  0  0  0  0  0  0  0  0  0  0
    7.5199  -13.9165   19.6616 C   0  0  0  0  0  0  0  0  0  0  0  0
    7.4348  -13.9163   21.1449 C   0  0  0  0  0  0  0  0  0  0  0  0
    8.6434  -14.6706   21.6608 C   0  0  2  0  0  0  0  0  0  0  0  0
    8.4386  -16.0758   21.3597 N   0  0  0  0  0  0  0  0  0  0  0  0
    8.8392  -14.4553   23.1181 C   0  0  0  0  0  0  0  0  0  0  0  0
    9.5234  -13.4991   23.5792 O   0  0  0  0  0  0  0  0  0  0  0  0
    8.0500  -12.8252   19.0120 C   0  0  0  0  0  0  0  0  0  0  0  0
    8.1284  -12.8287   17.6250 C   0  0  0  0  0  0  0  0  0  0  0  0
    7.9665  -11.6630   27.7496 C   0  0  0  0  0  0  0  0  0  0  0  0
    6.4343  -12.4760   27.2429 S   0  0  0  0  0  0  0  0  0  0  0  0
    6.7070  -13.5688   25.8136 C   0  0  0  0  0  0  0  0  0  0  0  0
    7.2353  -14.9100   26.2366 C   0  0  0  0  0  0  0  0  0  0  0  0
    8.4813  -15.2275   25.5069 C   0  0  2  0  0  0  0  0  0  0  0  0
    8.2586  -15.3257   24.0612 N   0  0  0  0  0  0  0  0  0  0  0  0
    9.2025  -16.4455   25.9255 C   0  0  0  0  0  0  0  0  0  0  0  0
    9.4747  -16.7869   27.0940 O   0  0  0  0  0  0  0  0  0  0  0  0
   10.4621  -19.4816   24.0539 C   0  0  0  0  0  0  0  0  0  0  0  0
   10.3410  -18.6194   25.2933 C   0  0  2  0  0  0  0  0  0  0  0  0
    9.6717  -17.3876   24.9225 N   0  0  0  0  0  0  0  0  0  0  0  0
   11.7238  -18.3214   25.8012 C   0  0  0  0  0  0  0  0  0  0  0  0
   12.1887  -17.1751   25.8230 O   0  0  0  0  0  0  0  0  0  0  0  0
   12.4671  -19.3978   26.2502 O   0  0  0  0  0  0  0  0  0  0  0  0
  2  3  2  0
  2  1  1  0
  4  3  1  0
  5  4  2  0
  6  5  1  0
  7  9  1  0
  7  6  1  0
  7  8  1  1
  9 10  2  0
 11  5  1  0
 11 12  2  0
 12  2  1  0
 14 13  1  0
 15 14  1  0
 16 15  1  0
 17 16  1  1
 18  9  1  0
 18 17  1  0
 19 23  1  0
 19 17  1  0
 20 19  2  0
 22 21  1  6
 22 24  1  0
 22 23  1  0
 24 26  1  0
 25 24  2  0
M  END
$$$$
