YMA.pdb
     RDKit          3D

 26 26  0  0  1  0  0  0  0  0999 V2000
    7.5863  -13.8648   15.2522 O   0  0  0  0  0  0  0  0  0  0  0  0
    7.6312  -13.8978   16.6274 C   0  0  0  0  0  0  0  0  0  0  0  0
    6.8986  -14.8321   17.3386 C   0  0  0  0  0  0  0  0  0  0  0  0
    6.9433  -14.8655   18.7153 C   0  0  0  0  0  0  0  0  0  0  0  0
    7.7126  -13.9752   19.3955 C   0  0  0  0  0  0  0  0  0  0  0  0
    7.7585  -14.0147   20.8799 C   0  0  0  0  0  0  0  0  0  0  0  0
    8.8386  -15.0046   21.2663 C   0  0  2  0  0  0  0  0  0  0  0  0
    8.3128  -16.3361   21.0257 N   0  0  0  0  0  0  0  0  0  0  0  0
    9.2502  -14.8365   22.6844 C   0  0  0  0  0  0  0  0  0  0  0  0
   10.0879  -13.9656   23.0516 O   0  0  0  0  0  0  0  0  0  0  0  0
    8.4532  -13.0335   18.7183 C   0  0  0  0  0  0  0  0  0  0  0  0
    8.4083  -12.9995   17.3302 C   0  0  0  0  0  0  0  0  0  0  0  0
    6.7053  -11.4484   26.2303 C   0  0  0  0  0  0  0  0  0  0  0  0
    6.7743  -12.7352   27.4970 S   0  0  0  0  0  0  0  0  0  0  0  0
    7.8983  -14.0814   27.0115 C   0  0  0  0  0  0  0  0  0  0  0  0
    7.7054  -14.4706   25.5734 C   0  0  0  0  0  0  0  0  0  0  0  0
    8.8029  -15.3544   25.1262 C   0  0  2  0  0  0  0  0  0  0  0  0
    8.7122  -15.6575   23.6948 N   0  0  0  0  0  0  0  0  0  0  0  0
    8.9529  -16.6378   25.8398 C   0  0  0  0  0  0  0  0  0  0  0  0
    8.1097  -17.5541   25.9123 O   0  0  0  0  0  0  0  0  0  0  0  0
   11.7177  -18.7557   26.8315 C   0  0  0  0  0  0  0  0  0  0  0  0
   10.3805  -18.1828   27.2530 C   0  0  2  0  0  0  0  0  0  0  0  0
   10.1864  -16.9278   26.5528 N   0  0  0  0  0  0  0  0  0  0  0  0
   10.4122  -17.9450   28.7367 C   0  0  0  0  0  0  0  0  0  0  0  0
   10.5235  -18.8679   29.5531 O   0  0  0  0  0  0  0  0  0  0  0  0
   10.3101  -16.6319   29.1587 O   0  0  0  0  0  0  0  0  0  0  0  0
  2  3  2  0
  2  1  1  0
  4  3  1  0
  5  4  2  0
  6  5  1  0
  7  9  1  0
  7  6  1  0
  7  8  1  1
  9 10  2  0
 11  5  1  0
 11 12  2  0
 12  2  1  0
 14 13  1  0
 15 14  1  0
 16 15  1  0
 17 16  1  1
 18  9  1  0
 18 17  1  0
 19 23  1  0
 19 17  1  0
 20 19  2  0
 22 21  1  6
 22 24  1  0
 22 23  1  0
 24 26  1  0
 25 24  2  0
M  END
$$$$
