YMA.pdb
     RDKit          3D

 26 26  0  0  1  0  0  0  0  0999 V2000
   11.2947  -15.3752   31.6825 O   0  0  0  0  0  0  0  0  0  0  0  0
   11.0724  -15.8040   30.3937 C   0  0  0  0  0  0  0  0  0  0  0  0
   10.4670  -14.9755   29.4650 C   0  0  0  0  0  0  0  0  0  0  0  0
   10.2444  -15.4044   28.1748 C   0  0  0  0  0  0  0  0  0  0  0  0
   10.6192  -16.6547   27.7964 C   0  0  0  0  0  0  0  0  0  0  0  0
   10.3778  -17.1134   26.4041 C   0  0  0  0  0  0  0  0  0  0  0  0
    8.9732  -17.6800   26.3587 C   0  0  2  0  0  0  0  0  0  0  0  0
    9.0850  -19.1243   26.4512 N   0  0  0  0  0  0  0  0  0  0  0  0
    8.2612  -17.2735   25.1191 C   0  0  0  0  0  0  0  0  0  0  0  0
    7.8336  -18.1093   24.2744 O   0  0  0  0  0  0  0  0  0  0  0  0
   11.2236  -17.5034   28.6955 C   0  0  0  0  0  0  0  0  0  0  0  0
   11.4483  -17.0712   29.9966 C   0  0  0  0  0  0  0  0  0  0  0  0
    7.3647  -10.8757   26.6187 C   0  0  0  0  0  0  0  0  0  0  0  0
    6.3659  -11.9271   25.5406 S   0  0  0  0  0  0  0  0  0  0  0  0
    7.3479  -13.3008   24.8624 C   0  0  0  0  0  0  0  0  0  0  0  0
    6.5156  -14.1969   23.9900 C   0  0  0  0  0  0  0  0  0  0  0  0
    7.2474  -15.4447   23.6846 C   0  0  2  0  0  0  0  0  0  0  0  0
    8.0307  -15.9140   24.8315 N   0  0  0  0  0  0  0  0  0  0  0  0
    8.1500  -15.4147   22.5170 C   0  0  0  0  0  0  0  0  0  0  0  0
    7.8654  -15.0347   21.3635 O   0  0  0  0  0  0  0  0  0  0  0  0
   11.7882  -15.4198   21.9817 C   0  0  0  0  0  0  0  0  0  0  0  0
   10.4287  -15.9045   21.5222 C   0  0  2  0  0  0  0  0  0  0  0  0
    9.5268  -15.8605   22.6569 N   0  0  0  0  0  0  0  0  0  0  0  0
   10.5697  -17.3178   21.0309 C   0  0  0  0  0  0  0  0  0  0  0  0
   10.0019  -18.2698   21.5803 O   0  0  0  0  0  0  0  0  0  0  0  0
   11.3728  -17.5139   19.9221 O   0  0  0  0  0  0  0  0  0  0  0  0
  2  3  2  0
  2  1  1  0
  4  3  1  0
  5  4  2  0
  6  5  1  0
  7  9  1  0
  7  6  1  0
  7  8  1  6
  9 10  2  0
 11  5  1  0
 11 12  2  0
 12  2  1  0
 14 13  1  0
 15 14  1  0
 16 15  1  0
 17 16  1  1
 18  9  1  0
 18 17  1  0
 19 23  1  0
 19 17  1  0
 20 19  2  0
 22 21  1  1
 22 24  1  0
 22 23  1  0
 24 26  1  0
 25 24  2  0
M  END
$$$$
