YMA.pdb
     RDKit          3D

 26 26  0  0  1  0  0  0  0  0999 V2000
    7.7209  -21.4164   17.8138 O   0  0  0  0  0  0  0  0  0  0  0  0
    8.2276  -20.6609   18.8467 C   0  0  0  0  0  0  0  0  0  0  0  0
    7.4175  -20.2571   19.8937 C   0  0  0  0  0  0  0  0  0  0  0  0
    7.9242  -19.5008   20.9278 C   0  0  0  0  0  0  0  0  0  0  0  0
    9.2346  -19.1401   20.9319 C   0  0  0  0  0  0  0  0  0  0  0  0
    9.7774  -18.3248   22.0490 C   0  0  0  0  0  0  0  0  0  0  0  0
    9.4438  -16.8778   21.7479 C   0  0  2  0  0  0  0  0  0  0  0  0
   10.2923  -16.4570   20.6479 N   0  0  0  0  0  0  0  0  0  0  0  0
    9.6406  -16.0134   22.9407 C   0  0  0  0  0  0  0  0  0  0  0  0
   10.7558  -15.4959   23.2299 O   0  0  0  0  0  0  0  0  0  0  0  0
   10.0669  -19.5254   19.9058 C   0  0  0  0  0  0  0  0  0  0  0  0
    9.5562  -20.2879   18.8629 C   0  0  0  0  0  0  0  0  0  0  0  0
    6.5738  -10.4683   26.7866 C   0  0  0  0  0  0  0  0  0  0  0  0
    6.1267  -12.2188   26.7516 S   0  0  0  0  0  0  0  0  0  0  0  0
    7.5881  -13.2693   26.4833 C   0  0  0  0  0  0  0  0  0  0  0  0
    7.4518  -14.0976   25.2374 C   0  0  0  0  0  0  0  0  0  0  0  0
    8.6874  -14.8723   24.9949 C   0  0  2  0  0  0  0  0  0  0  0  0
    8.5710  -15.7316   23.8128 N   0  0  0  0  0  0  0  0  0  0  0  0
    9.1702  -15.7150   26.1065 C   0  0  0  0  0  0  0  0  0  0  0  0
    9.3603  -15.3567   27.2862 O   0  0  0  0  0  0  0  0  0  0  0  0
    9.5748  -19.4091   26.5776 C   0  0  0  0  0  0  0  0  0  0  0  0
    9.9356  -17.9830   26.9383 C   0  0  2  0  0  0  0  0  0  0  0  0
    9.4744  -17.1170   25.8706 N   0  0  0  0  0  0  0  0  0  0  0  0
   11.4301  -17.8896   27.0678 C   0  0  0  0  0  0  0  0  0  0  0  0
   12.1250  -17.2464   26.2716 O   0  0  0  0  0  0  0  0  0  0  0  0
   12.0058  -18.5628   28.1300 O   0  0  0  0  0  0  0  0  0  0  0  0
  2  3  2  0
  2  1  1  0
  4  3  1  0
  5  4  2  0
  6  5  1  0
  7  9  1  0
  7  6  1  0
  7  8  1  6
  9 10  2  0
 11  5  1  0
 11 12  2  0
 12  2  1  0
 14 13  1  0
 15 14  1  0
 16 15  1  0
 17 16  1  1
 18  9  1  0
 18 17  1  0
 19 23  1  0
 19 17  1  0
 20 19  2  0
 22 21  1  6
 22 24  1  0
 22 23  1  0
 24 26  1  0
 25 24  2  0
M  END
$$$$
