YMA.pdb
     RDKit          3D

 26 26  0  0  1  0  0  0  0  0999 V2000
    2.5699  -23.9718   23.9078 O   0  0  0  0  0  0  0  0  0  0  0  0
    3.5139  -22.9702   23.9135 C   0  0  0  0  0  0  0  0  0  0  0  0
    4.8561  -23.2598   23.7398 C   0  0  0  0  0  0  0  0  0  0  0  0
    5.8014  -22.2576   23.7455 C   0  0  0  0  0  0  0  0  0  0  0  0
    5.4244  -20.9640   23.9230 C   0  0  0  0  0  0  0  0  0  0  0  0
    6.4467  -19.8860   23.9281 C   0  0  0  0  0  0  0  0  0  0  0  0
    6.1552  -18.9896   22.7417 C   0  0  2  0  0  0  0  0  0  0  0  0
    6.2381  -19.8103   21.5473 N   0  0  0  0  0  0  0  0  0  0  0  0
    7.1026  -17.8465   22.6763 C   0  0  0  0  0  0  0  0  0  0  0  0
    8.1358  -17.8593   21.9501 O   0  0  0  0  0  0  0  0  0  0  0  0
    4.0978  -20.6423   24.0983 C   0  0  0  0  0  0  0  0  0  0  0  0
    3.1444  -21.6527   24.0927 C   0  0  0  0  0  0  0  0  0  0  0  0
    6.3277  -13.2796   28.0329 C   0  0  0  0  0  0  0  0  0  0  0  0
    7.0107  -13.0808   26.3718 S   0  0  0  0  0  0  0  0  0  0  0  0
    6.6201  -14.5137   25.3204 C   0  0  0  0  0  0  0  0  0  0  0  0
    7.0573  -14.2924   23.9003 C   0  0  0  0  0  0  0  0  0  0  0  0
    7.7408  -15.4946   23.3773 C   0  0  2  0  0  0  0  0  0  0  0  0
    6.8820  -16.6811   23.4362 N   0  0  0  0  0  0  0  0  0  0  0  0
    9.0283  -15.8508   24.0055 C   0  0  0  0  0  0  0  0  0  0  0  0
    9.1917  -16.5319   25.0376 O   0  0  0  0  0  0  0  0  0  0  0  0
   12.5914  -15.4834   22.7926 C   0  0  0  0  0  0  0  0  0  0  0  0
   11.5481  -15.9823   23.7707 C   0  0  2  0  0  0  0  0  0  0  0  0
   10.2733  -15.3925   23.4106 N   0  0  0  0  0  0  0  0  0  0  0  0
   11.9456  -15.5453   25.1527 C   0  0  0  0  0  0  0  0  0  0  0  0
   11.2998  -14.7071   25.7938 O   0  0  0  0  0  0  0  0  0  0  0  0
   13.0807  -16.1275   25.6870 O   0  0  0  0  0  0  0  0  0  0  0  0
  2  3  2  0
  2  1  1  0
  4  3  1  0
  5  4  2  0
  6  5  1  0
  7  9  1  0
  7  6  1  0
  7  8  1  6
  9 10  2  0
 11  5  1  0
 11 12  2  0
 12  2  1  0
 14 13  1  0
 15 14  1  0
 16 15  1  0
 17 16  1  1
 18  9  1  0
 18 17  1  0
 19 23  1  0
 19 17  1  0
 20 19  2  0
 22 21  1  6
 22 24  1  0
 22 23  1  0
 24 26  1  0
 25 24  2  0
M  END
$$$$
