YMA.pdb
     RDKit          3D

 26 26  0  0  1  0  0  0  0  0999 V2000
    7.8508  -14.1199   15.4371 O   0  0  0  0  0  0  0  0  0  0  0  0
    8.1664  -13.9857   16.7701 C   0  0  0  0  0  0  0  0  0  0  0  0
    7.3854  -13.2101   17.6091 C   0  0  0  0  0  0  0  0  0  0  0  0
    7.7010  -13.0754   18.9434 C   0  0  0  0  0  0  0  0  0  0  0  0
    8.7904  -13.7069   19.4548 C   0  0  0  0  0  0  0  0  0  0  0  0
    9.1272  -13.5596   20.8943 C   0  0  0  0  0  0  0  0  0  0  0  0
    8.9576  -14.9228   21.5336 C   0  0  2  0  0  0  0  0  0  0  0  0
    7.5501  -15.2682   21.4516 N   0  0  0  0  0  0  0  0  0  0  0  0
    9.4318  -14.9273   22.9420 C   0  0  0  0  0  0  0  0  0  0  0  0
   10.6221  -14.6504   23.2605 O   0  0  0  0  0  0  0  0  0  0  0  0
    9.5876  -14.4856   18.6474 C   0  0  0  0  0  0  0  0  0  0  0  0
    9.2697  -14.6216   17.3019 C   0  0  0  0  0  0  0  0  0  0  0  0
    5.7218  -12.3741   27.1938 C   0  0  0  0  0  0  0  0  0  0  0  0
    7.4503  -11.8724   27.0336 S   0  0  0  0  0  0  0  0  0  0  0  0
    8.3597  -12.9815   25.9137 C   0  0  0  0  0  0  0  0  0  0  0  0
    8.1235  -14.4254   26.2542 C   0  0  0  0  0  0  0  0  0  0  0  0
    8.9612  -15.2996   25.4058 C   0  0  2  0  0  0  0  0  0  0  0  0
    8.5559  -15.2466   23.9980 N   0  0  0  0  0  0  0  0  0  0  0  0
    9.0346  -16.7230   25.7901 C   0  0  0  0  0  0  0  0  0  0  0  0
    8.0865  -17.5321   25.8401 O   0  0  0  0  0  0  0  0  0  0  0  0
   11.7227  -19.2500   26.1306 C   0  0  0  0  0  0  0  0  0  0  0  0
   10.4160  -18.6727   26.6339 C   0  0  2  0  0  0  0  0  0  0  0  0
   10.3141  -17.3061   26.1599 N   0  0  0  0  0  0  0  0  0  0  0  0
   10.4339  -18.6966   28.1366 C   0  0  0  0  0  0  0  0  0  0  0  0
   10.4606  -17.6626   28.8152 O   0  0  0  0  0  0  0  0  0  0  0  0
   10.4191  -19.9414   28.7392 O   0  0  0  0  0  0  0  0  0  0  0  0
  2  3  2  0
  2  1  1  0
  4  3  1  0
  5  4  2  0
  6  5  1  0
  7  9  1  0
  7  6  1  0
  7  8  1  1
  9 10  2  0
 11  5  1  0
 11 12  2  0
 12  2  1  0
 14 13  1  0
 15 14  1  0
 16 15  1  0
 17 16  1  1
 18  9  1  0
 18 17  1  0
 19 23  1  0
 19 17  1  0
 20 19  2  0
 22 21  1  6
 22 24  1  0
 22 23  1  0
 24 26  1  0
 25 24  2  0
M  END
$$$$
