YMA.pdb
     RDKit          3D

 26 26  0  0  1  0  0  0  0  0999 V2000
   10.8327  -15.2544   31.9353 O   0  0  0  0  0  0  0  0  0  0  0  0
   10.6307  -15.6040   30.6195 C   0  0  0  0  0  0  0  0  0  0  0  0
   10.9017  -16.8871   30.1771 C   0  0  0  0  0  0  0  0  0  0  0  0
   10.6997  -17.2375   28.8601 C   0  0  0  0  0  0  0  0  0  0  0  0
   10.2287  -16.3209   27.9739 C   0  0  0  0  0  0  0  0  0  0  0  0
   10.0118  -16.7027   26.5546 C   0  0  0  0  0  0  0  0  0  0  0  0
    8.5710  -17.1549   26.4299 C   0  0  2  0  0  0  0  0  0  0  0  0
    8.5253  -18.5612   26.7866 N   0  0  0  0  0  0  0  0  0  0  0  0
    8.0459  -16.9303   25.0578 C   0  0  0  0  0  0  0  0  0  0  0  0
    7.8789  -17.8698   24.2305 O   0  0  0  0  0  0  0  0  0  0  0  0
    9.9493  -15.0366   28.3817 C   0  0  0  0  0  0  0  0  0  0  0  0
   10.1529  -14.6829   29.7096 C   0  0  0  0  0  0  0  0  0  0  0  0
    7.1451  -11.4482   26.6161 C   0  0  0  0  0  0  0  0  0  0  0  0
    6.5135  -12.6475   25.4211 S   0  0  0  0  0  0  0  0  0  0  0  0
    7.7240  -12.9646   24.0999 C   0  0  0  0  0  0  0  0  0  0  0  0
    7.1580  -13.8612   23.0357 C   0  0  0  0  0  0  0  0  0  0  0  0
    7.6568  -15.2426   23.2056 C   0  0  2  0  0  0  0  0  0  0  0  0
    7.7074  -15.6360   24.6169 N   0  0  0  0  0  0  0  0  0  0  0  0
    8.9746  -15.5487   22.6152 C   0  0  0  0  0  0  0  0  0  0  0  0
   10.0891  -15.2130   23.0636 O   0  0  0  0  0  0  0  0  0  0  0  0
   10.1926  -18.2615   20.5554 C   0  0  0  0  0  0  0  0  0  0  0  0
   10.3226  -16.7837   20.8604 C   0  0  2  0  0  0  0  0  0  0  0  0
    9.0532  -16.3174   21.3836 N   0  0  0  0  0  0  0  0  0  0  0  0
   10.6493  -16.0622   19.5830 C   0  0  0  0  0  0  0  0  0  0  0  0
   11.7427  -16.1805   19.0164 O   0  0  0  0  0  0  0  0  0  0  0  0
    9.6622  -15.2477   19.0586 O   0  0  0  0  0  0  0  0  0  0  0  0
  2  3  2  0
  2  1  1  0
  4  3  1  0
  5  4  2  0
  6  5  1  0
  7  9  1  0
  7  6  1  0
  7  8  1  6
  9 10  2  0
 11  5  1  0
 11 12  2  0
 12  2  1  0
 14 13  1  0
 15 14  1  0
 16 15  1  0
 17 16  1  1
 18  9  1  0
 18 17  1  0
 19 23  1  0
 19 17  1  0
 20 19  2  0
 22 21  1  6
 22 24  1  0
 22 23  1  0
 24 26  1  0
 25 24  2  0
M  END
$$$$
