YMA.pdb
     RDKit          3D

 26 26  0  0  1  0  0  0  0  0999 V2000
    7.1819  -21.6322   17.8196 O   0  0  0  0  0  0  0  0  0  0  0  0
    7.6404  -20.9234   18.9067 C   0  0  0  0  0  0  0  0  0  0  0  0
    6.8417  -19.9767   19.5241 C   0  0  0  0  0  0  0  0  0  0  0  0
    7.3002  -19.2669   20.6123 C   0  0  0  0  0  0  0  0  0  0  0  0
    8.5509  -19.4897   21.0954 C   0  0  0  0  0  0  0  0  0  0  0  0
    9.0416  -18.7226   22.2692 C   0  0  0  0  0  0  0  0  0  0  0  0
    9.1859  -17.2796   21.8301 C   0  0  2  0  0  0  0  0  0  0  0  0
   10.3021  -17.2176   20.9041 N   0  0  0  0  0  0  0  0  0  0  0  0
    9.3980  -16.3753   22.9902 C   0  0  0  0  0  0  0  0  0  0  0  0
   10.5471  -16.0873   23.4278 O   0  0  0  0  0  0  0  0  0  0  0  0
    9.3703  -20.4242   20.5043 C   0  0  0  0  0  0  0  0  0  0  0  0
    8.9082  -21.1400   19.4071 C   0  0  0  0  0  0  0  0  0  0  0  0
    6.3053  -10.8649   27.7703 C   0  0  0  0  0  0  0  0  0  0  0  0
    6.0900  -11.9253   26.3231 S   0  0  0  0  0  0  0  0  0  0  0  0
    7.4598  -13.1126   26.1637 C   0  0  0  0  0  0  0  0  0  0  0  0
    7.3201  -13.9545   24.9274 C   0  0  0  0  0  0  0  0  0  0  0  0
    8.4379  -14.9171   24.8293 C   0  0  2  0  0  0  0  0  0  0  0  0
    8.3050  -15.7924   23.6609 N   0  0  0  0  0  0  0  0  0  0  0  0
    8.6732  -15.7812   26.0028 C   0  0  0  0  0  0  0  0  0  0  0  0
    9.0078  -15.4117   27.1463 O   0  0  0  0  0  0  0  0  0  0  0  0
    8.0271  -19.4282   26.6917 C   0  0  0  0  0  0  0  0  0  0  0  0
    8.6743  -18.1000   27.0250 C   0  0  2  0  0  0  0  0  0  0  0  0
    8.5160  -17.2215   25.8822 N   0  0  0  0  0  0  0  0  0  0  0  0
   10.1338  -18.3372   27.2938 C   0  0  0  0  0  0  0  0  0  0  0  0
   11.0243  -17.8753   26.5698 O   0  0  0  0  0  0  0  0  0  0  0  0
   10.4458  -19.1052   28.4009 O   0  0  0  0  0  0  0  0  0  0  0  0
  2  3  2  0
  2  1  1  0
  4  3  1  0
  5  4  2  0
  6  5  1  0
  7  9  1  0
  7  6  1  0
  7  8  1  6
  9 10  2  0
 11  5  1  0
 11 12  2  0
 12  2  1  0
 14 13  1  0
 15 14  1  0
 16 15  1  0
 17 16  1  1
 18  9  1  0
 18 17  1  0
 19 23  1  0
 19 17  1  0
 20 19  2  0
 22 21  1  6
 22 24  1  0
 22 23  1  0
 24 26  1  0
 25 24  2  0
M  END
$$$$
