YMA.pdb
     RDKit          3D

 26 26  0  0  1  0  0  0  0  0999 V2000
    7.2293  -13.5181   15.0541 O   0  0  0  0  0  0  0  0  0  0  0  0
    7.3187  -13.9640   16.3531 C   0  0  0  0  0  0  0  0  0  0  0  0
    7.0973  -15.2946   16.6629 C   0  0  0  0  0  0  0  0  0  0  0  0
    7.1867  -15.7414   17.9631 C   0  0  0  0  0  0  0  0  0  0  0  0
    7.4953  -14.8747   18.9635 C   0  0  0  0  0  0  0  0  0  0  0  0
    7.5911  -15.3604   20.3643 C   0  0  0  0  0  0  0  0  0  0  0  0
    8.8900  -14.8266   20.9333 C   0  0  2  0  0  0  0  0  0  0  0  0
    9.9744  -15.5305   20.2731 N   0  0  0  0  0  0  0  0  0  0  0  0
    8.9526  -15.0030   22.4076 C   0  0  0  0  0  0  0  0  0  0  0  0
    9.7595  -15.7992   22.9644 O   0  0  0  0  0  0  0  0  0  0  0  0
    7.7214  -13.5453   18.6891 C   0  0  0  0  0  0  0  0  0  0  0  0
    7.6313  -13.0944   17.3781 C   0  0  0  0  0  0  0  0  0  0  0  0
    6.6869  -11.9210   29.3909 C   0  0  0  0  0  0  0  0  0  0  0  0
    6.3673  -12.0506   27.6171 S   0  0  0  0  0  0  0  0  0  0  0  0
    7.5124  -13.2205   26.8226 C   0  0  0  0  0  0  0  0  0  0  0  0
    7.2822  -13.2982   25.3401 C   0  0  0  0  0  0  0  0  0  0  0  0
    8.2408  -14.2359   24.7174 C   0  0  2  0  0  0  0  0  0  0  0  0
    8.0982  -14.2754   23.2589 N   0  0  0  0  0  0  0  0  0  0  0  0
    8.2129  -15.6304   25.2010 C   0  0  0  0  0  0  0  0  0  0  0  0
    7.2296  -16.3979   25.2085 O   0  0  0  0  0  0  0  0  0  0  0  0
   10.5976  -18.3261   25.6734 C   0  0  0  0  0  0  0  0  0  0  0  0
    9.4248  -17.5799   26.2746 C   0  0  2  0  0  0  0  0  0  0  0  0
    9.4227  -16.2334   25.7363 N   0  0  0  0  0  0  0  0  0  0  0  0
    9.6032  -17.5377   27.7664 C   0  0  0  0  0  0  0  0  0  0  0  0
    9.7834  -16.4801   28.3823 O   0  0  0  0  0  0  0  0  0  0  0  0
    9.5570  -18.7487   28.4330 O   0  0  0  0  0  0  0  0  0  0  0  0
  2  3  2  0
  2  1  1  0
  4  3  1  0
  5  4  2  0
  6  5  1  0
  7  9  1  0
  7  6  1  0
  7  8  1  6
  9 10  2  0
 11  5  1  0
 11 12  2  0
 12  2  1  0
 14 13  1  0
 15 14  1  0
 16 15  1  0
 17 16  1  1
 18  9  1  0
 18 17  1  0
 19 23  1  0
 19 17  1  0
 20 19  2  0
 22 21  1  6
 22 24  1  0
 22 23  1  0
 24 26  1  0
 25 24  2  0
M  END
$$$$
