YMA.pdb
     RDKit          3D

 26 26  0  0  1  0  0  0  0  0999 V2000
    2.8945  -23.4856   22.3717 O   0  0  0  0  0  0  0  0  0  0  0  0
    3.9060  -22.6101   22.6953 C   0  0  0  0  0  0  0  0  0  0  0  0
    3.6984  -21.5943   23.6120 C   0  0  0  0  0  0  0  0  0  0  0  0
    4.7106  -20.7176   23.9361 C   0  0  0  0  0  0  0  0  0  0  0  0
    5.9332  -20.8410   23.3554 C   0  0  0  0  0  0  0  0  0  0  0  0
    7.0223  -19.8939   23.7078 C   0  0  0  0  0  0  0  0  0  0  0  0
    6.6175  -18.5326   23.1796 C   0  0  2  0  0  0  0  0  0  0  0  0
    6.6739  -18.5955   21.7304 N   0  0  0  0  0  0  0  0  0  0  0  0
    7.4997  -17.4590   23.7066 C   0  0  0  0  0  0  0  0  0  0  0  0
    8.6395  -17.2147   23.2207 O   0  0  0  0  0  0  0  0  0  0  0  0
    6.1724  -21.8403   22.4399 C   0  0  0  0  0  0  0  0  0  0  0  0
    5.1519  -22.7244   22.1128 C   0  0  0  0  0  0  0  0  0  0  0  0
    6.3577  -10.5661   25.6889 C   0  0  0  0  0  0  0  0  0  0  0  0
    6.2929  -12.1734   26.5121 S   0  0  0  0  0  0  0  0  0  0  0  0
    7.2455  -13.4243   25.5960 C   0  0  0  0  0  0  0  0  0  0  0  0
    7.2419  -14.7492   26.3042 C   0  0  0  0  0  0  0  0  0  0  0  0
    7.9891  -15.7556   25.5201 C   0  0  2  0  0  0  0  0  0  0  0  0
    7.0920  -16.6559   24.7896 N   0  0  0  0  0  0  0  0  0  0  0  0
    8.9479  -16.5965   26.2636 C   0  0  0  0  0  0  0  0  0  0  0  0
    8.6725  -17.5199   27.0556 O   0  0  0  0  0  0  0  0  0  0  0  0
   12.7142  -16.9128   26.2146 C   0  0  0  0  0  0  0  0  0  0  0  0
   11.3512  -17.1760   26.8204 C   0  0  2  0  0  0  0  0  0  0  0  0
   10.3763  -16.3787   26.1017 N   0  0  0  0  0  0  0  0  0  0  0  0
   11.3869  -16.7659   28.2659 C   0  0  0  0  0  0  0  0  0  0  0  0
   10.8076  -15.7550   28.6821 O   0  0  0  0  0  0  0  0  0  0  0  0
   12.1051  -17.5773   29.1253 O   0  0  0  0  0  0  0  0  0  0  0  0
  2  3  2  0
  2  1  1  0
  4  3  1  0
  5  4  2  0
  6  5  1  0
  7  9  1  0
  7  6  1  0
  7  8  1  6
  9 10  2  0
 11  5  1  0
 11 12  2  0
 12  2  1  0
 14 13  1  0
 15 14  1  0
 16 15  1  0
 17 16  1  1
 18  9  1  0
 18 17  1  0
 19 23  1  0
 19 17  1  0
 20 19  2  0
 22 21  1  6
 22 24  1  0
 22 23  1  0
 24 26  1  0
 25 24  2  0
M  END
$$$$
