YMA.pdb
     RDKit          3D

 26 26  0  0  1  0  0  0  0  0999 V2000
   11.3264  -14.6770   30.5895 O   0  0  0  0  0  0  0  0  0  0  0  0
   10.9390  -15.6438   29.6897 C   0  0  0  0  0  0  0  0  0  0  0  0
   10.5611  -15.3038   28.4024 C   0  0  0  0  0  0  0  0  0  0  0  0
   10.1732  -16.2712   27.5014 C   0  0  0  0  0  0  0  0  0  0  0  0
   10.1570  -17.5796   27.8687 C   0  0  0  0  0  0  0  0  0  0  0  0
    9.7385  -18.6199   26.8941 C   0  0  0  0  0  0  0  0  0  0  0  0
    8.2253  -18.5827   26.8246 C   0  0  2  0  0  0  0  0  0  0  0  0
    7.7689  -19.9388   26.5799 N   0  0  0  0  0  0  0  0  0  0  0  0
    7.7509  -17.6555   25.7645 C   0  0  0  0  0  0  0  0  0  0  0  0
    7.4617  -18.0453   24.5986 O   0  0  0  0  0  0  0  0  0  0  0  0
   10.5270  -17.9511   29.1411 C   0  0  0  0  0  0  0  0  0  0  0  0
   10.9181  -16.9759   30.0499 C   0  0  0  0  0  0  0  0  0  0  0  0
    5.9465  -10.1114   23.9392 C   0  0  0  0  0  0  0  0  0  0  0  0
    6.1855  -11.3466   25.2364 S   0  0  0  0  0  0  0  0  0  0  0  0
    6.5925  -12.9745   24.5324 C   0  0  0  0  0  0  0  0  0  0  0  0
    6.9526  -13.9649   25.6029 C   0  0  0  0  0  0  0  0  0  0  0  0
    7.1887  -15.2998   25.0129 C   0  0  2  0  0  0  0  0  0  0  0  0
    7.6022  -16.2787   26.0227 N   0  0  0  0  0  0  0  0  0  0  0  0
    8.1612  -15.3720   23.9047 C   0  0  0  0  0  0  0  0  0  0  0  0
    9.4019  -15.2788   23.9938 O   0  0  0  0  0  0  0  0  0  0  0  0
    7.8080  -15.9158   20.1703 C   0  0  0  0  0  0  0  0  0  0  0  0
    8.6154  -15.7647   21.4428 C   0  0  2  0  0  0  0  0  0  0  0  0
    7.6913  -15.5709   22.5433 N   0  0  0  0  0  0  0  0  0  0  0  0
    9.5058  -14.5623   21.3002 C   0  0  0  0  0  0  0  0  0  0  0  0
    9.2066  -13.4572   21.7690 O   0  0  0  0  0  0  0  0  0  0  0  0
   10.6919  -14.7444   20.6126 O   0  0  0  0  0  0  0  0  0  0  0  0
  2  3  2  0
  2  1  1  0
  4  3  1  0
  5  4  2  0
  6  5  1  0
  7  9  1  0
  7  6  1  0
  7  8  1  6
  9 10  2  0
 11  5  1  0
 11 12  2  0
 12  2  1  0
 14 13  1  0
 15 14  1  0
 16 15  1  0
 17 16  1  1
 18  9  1  0
 18 17  1  0
 19 23  1  0
 19 17  1  0
 20 19  2  0
 22 21  1  6
 22 24  1  0
 22 23  1  0
 24 26  1  0
 25 24  2  0
M  END
$$$$
