YMA.pdb
     RDKit          3D

 26 26  0  0  1  0  0  0  0  0999 V2000
    5.5290  -24.7731   24.3151 O   0  0  0  0  0  0  0  0  0  0  0  0
    6.1407  -23.5431   24.2293 C   0  0  0  0  0  0  0  0  0  0  0  0
    6.9740  -23.2381   23.1673 C   0  0  0  0  0  0  0  0  0  0  0  0
    7.5865  -22.0070   23.0810 C   0  0  0  0  0  0  0  0  0  0  0  0
    7.3780  -21.0713   24.0444 C   0  0  0  0  0  0  0  0  0  0  0  0
    8.0400  -19.7448   23.9476 C   0  0  0  0  0  0  0  0  0  0  0  0
    6.9453  -18.6975   23.9726 C   0  0  2  0  0  0  0  0  0  0  0  0
    6.1608  -18.8611   22.7623 N   0  0  0  0  0  0  0  0  0  0  0  0
    7.5063  -17.3246   24.0690 C   0  0  0  0  0  0  0  0  0  0  0  0
    8.5922  -16.9926   23.5162 O   0  0  0  0  0  0  0  0  0  0  0  0
    6.5551  -21.3429   25.1135 C   0  0  0  0  0  0  0  0  0  0  0  0
    5.9374  -22.5842   25.2008 C   0  0  0  0  0  0  0  0  0  0  0  0
    6.5277   -9.9846   27.0166 C   0  0  0  0  0  0  0  0  0  0  0  0
    5.8371  -11.6418   26.8115 S   0  0  0  0  0  0  0  0  0  0  0  0
    6.9634  -12.7154   25.8680 C   0  0  0  0  0  0  0  0  0  0  0  0
    6.4141  -14.1067   25.7299 C   0  0  0  0  0  0  0  0  0  0  0  0
    7.3540  -14.9600   24.9720 C   0  0  2  0  0  0  0  0  0  0  0  0
    6.8366  -16.3200   24.7946 N   0  0  0  0  0  0  0  0  0  0  0  0
    8.7240  -15.0762   25.5093 C   0  0  0  0  0  0  0  0  0  0  0  0
    9.7879  -14.8754   24.8897 O   0  0  0  0  0  0  0  0  0  0  0  0
   10.3304  -14.2575   28.4272 C   0  0  0  0  0  0  0  0  0  0  0  0
   10.2430  -15.4536   27.5023 C   0  0  2  0  0  0  0  0  0  0  0  0
    8.9253  -15.4607   26.8969 N   0  0  0  0  0  0  0  0  0  0  0  0
   10.4416  -16.7002   28.3181 C   0  0  0  0  0  0  0  0  0  0  0  0
    9.5672  -17.5691   28.4235 O   0  0  0  0  0  0  0  0  0  0  0  0
   11.6608  -16.8385   28.9563 O   0  0  0  0  0  0  0  0  0  0  0  0
  2  3  2  0
  2  1  1  0
  4  3  1  0
  5  4  2  0
  6  5  1  0
  7  9  1  0
  7  6  1  0
  7  8  1  6
  9 10  2  0
 11  5  1  0
 11 12  2  0
 12  2  1  0
 14 13  1  0
 15 14  1  0
 16 15  1  0
 17 16  1  1
 18  9  1  0
 18 17  1  0
 19 23  1  0
 19 17  1  0
 20 19  2  0
 22 21  1  1
 22 24  1  0
 22 23  1  0
 24 26  1  0
 25 24  2  0
M  END
$$$$
