YMA.pdb
     RDKit          3D

 26 26  0  0  1  0  0  0  0  0999 V2000
    6.5938  -23.7299   29.2638 O   0  0  0  0  0  0  0  0  0  0  0  0
    6.9523  -22.6481   28.4920 C   0  0  0  0  0  0  0  0  0  0  0  0
    6.0760  -21.5948   28.2969 C   0  0  0  0  0  0  0  0  0  0  0  0
    6.4344  -20.5117   27.5245 C   0  0  0  0  0  0  0  0  0  0  0  0
    7.6610  -20.4648   26.9410 C   0  0  0  0  0  0  0  0  0  0  0  0
    8.0438  -19.2949   26.1091 C   0  0  0  0  0  0  0  0  0  0  0  0
    6.9372  -19.0878   25.0950 C   0  0  2  0  0  0  0  0  0  0  0  0
    7.0126  -20.1801   24.1418 N   0  0  0  0  0  0  0  0  0  0  0  0
    7.0593  -17.7715   24.4160 C   0  0  0  0  0  0  0  0  0  0  0  0
    7.4479  -17.6558   23.2199 O   0  0  0  0  0  0  0  0  0  0  0  0
    8.5557  -21.4958   27.1153 C   0  0  0  0  0  0  0  0  0  0  0  0
    8.1946  -22.5881   27.8941 C   0  0  0  0  0  0  0  0  0  0  0  0
    7.3406  -11.0902   27.6390 C   0  0  0  0  0  0  0  0  0  0  0  0
    6.6578  -11.8399   26.1433 S   0  0  0  0  0  0  0  0  0  0  0  0
    6.5028  -13.6443   26.3197 C   0  0  0  0  0  0  0  0  0  0  0  0
    5.9371  -14.2741   25.0787 C   0  0  0  0  0  0  0  0  0  0  0  0
    6.8973  -15.2425   24.5077 C   0  0  2  0  0  0  0  0  0  0  0  0
    6.7405  -16.5777   25.0923 N   0  0  0  0  0  0  0  0  0  0  0  0
    8.3276  -14.8880   24.5957 C   0  0  0  0  0  0  0  0  0  0  0  0
    8.8509  -13.8083   24.2548 O   0  0  0  0  0  0  0  0  0  0  0  0
   11.1739  -15.0741   26.3779 C   0  0  0  0  0  0  0  0  0  0  0  0
   10.7095  -15.6265   25.0463 C   0  0  2  0  0  0  0  0  0  0  0  0
    9.2791  -15.8514   25.1252 N   0  0  0  0  0  0  0  0  0  0  0  0
   11.4221  -16.9260   24.7967 C   0  0  0  0  0  0  0  0  0  0  0  0
   10.8239  -18.0067   24.7270 O   0  0  0  0  0  0  0  0  0  0  0  0
   12.7955  -16.8635   24.6460 O   0  0  0  0  0  0  0  0  0  0  0  0
  2  3  2  0
  2  1  1  0
  4  3  1  0
  5  4  2  0
  6  5  1  0
  7  9  1  0
  7  6  1  0
  7  8  1  6
  9 10  2  0
 11  5  1  0
 11 12  2  0
 12  2  1  0
 14 13  1  0
 15 14  1  0
 16 15  1  0
 17 16  1  1
 18  9  1  0
 18 17  1  0
 19 23  1  0
 19 17  1  0
 20 19  2  0
 22 21  1  1
 22 24  1  0
 22 23  1  0
 24 26  1  0
 25 24  2  0
M  END
$$$$
