YMA.pdb
     RDKit          3D

 26 26  0  0  1  0  0  0  0  0999 V2000
    9.4884  -20.1568   15.7657 O   0  0  0  0  0  0  0  0  0  0  0  0
    9.6887  -19.5836   17.0010 C   0  0  0  0  0  0  0  0  0  0  0  0
    9.3195  -20.2463   18.1585 C   0  0  0  0  0  0  0  0  0  0  0  0
    9.5197  -19.6729   19.3951 C   0  0  0  0  0  0  0  0  0  0  0  0
   10.0861  -18.4414   19.4934 C   0  0  0  0  0  0  0  0  0  0  0  0
   10.3009  -17.8266   20.8287 C   0  0  0  0  0  0  0  0  0  0  0  0
    9.5337  -16.5200   20.8464 C   0  0  2  0  0  0  0  0  0  0  0  0
   10.0759  -15.6844   19.7905 N   0  0  0  0  0  0  0  0  0  0  0  0
    9.6316  -15.8482   22.1685 C   0  0  0  0  0  0  0  0  0  0  0  0
   10.6853  -15.2759   22.5649 O   0  0  0  0  0  0  0  0  0  0  0  0
   10.4647  -17.7559   18.3616 C   0  0  0  0  0  0  0  0  0  0  0  0
   10.2629  -18.3338   17.1146 C   0  0  0  0  0  0  0  0  0  0  0  0
    7.8156  -11.6458   27.8995 C   0  0  0  0  0  0  0  0  0  0  0  0
    7.9258  -12.2263   26.1918 S   0  0  0  0  0  0  0  0  0  0  0  0
    7.2605  -13.9114   26.0220 C   0  0  0  0  0  0  0  0  0  0  0  0
    7.3128  -14.3850   24.5973 C   0  0  0  0  0  0  0  0  0  0  0  0
    8.5494  -15.1584   24.3555 C   0  0  2  0  0  0  0  0  0  0  0  0
    8.5323  -15.8227   23.0488 N   0  0  0  0  0  0  0  0  0  0  0  0
    8.9014  -16.1777   25.3636 C   0  0  0  0  0  0  0  0  0  0  0  0
    8.1780  -17.1115   25.7643 O   0  0  0  0  0  0  0  0  0  0  0  0
   12.1728  -17.3559   26.6697 C   0  0  0  0  0  0  0  0  0  0  0  0
   10.6723  -17.2343   26.8364 C   0  0  2  0  0  0  0  0  0  0  0  0
   10.2112  -16.1478   25.9939 N   0  0  0  0  0  0  0  0  0  0  0  0
   10.3780  -16.9284   28.2782 C   0  0  0  0  0  0  0  0  0  0  0  0
    9.8212  -15.8822   28.6330 O   0  0  0  0  0  0  0  0  0  0  0  0
   10.7611  -17.8791   29.2067 O   0  0  0  0  0  0  0  0  0  0  0  0
  2  3  2  0
  2  1  1  0
  4  3  1  0
  5  4  2  0
  6  5  1  0
  7  9  1  0
  7  6  1  0
  7  8  1  6
  9 10  2  0
 11  5  1  0
 11 12  2  0
 12  2  1  0
 14 13  1  0
 15 14  1  0
 16 15  1  0
 17 16  1  1
 18  9  1  0
 18 17  1  0
 19 23  1  0
 19 17  1  0
 20 19  2  0
 22 21  1  1
 22 24  1  0
 22 23  1  0
 24 26  1  0
 25 24  2  0
M  END
$$$$
