YMA.pdb
     RDKit          3D

 26 26  0  0  1  0  0  0  0  0999 V2000
    7.7632  -13.5754   15.8050 O   0  0  0  0  0  0  0  0  0  0  0  0
    7.7630  -13.9864   17.1186 C   0  0  0  0  0  0  0  0  0  0  0  0
    7.9241  -13.0743   18.1470 C   0  0  0  0  0  0  0  0  0  0  0  0
    7.9240  -13.4852   19.4621 C   0  0  0  0  0  0  0  0  0  0  0  0
    7.7645  -14.8001   19.7668 C   0  0  0  0  0  0  0  0  0  0  0  0
    7.7645  -15.2392   21.1861 C   0  0  0  0  0  0  0  0  0  0  0  0
    9.1862  -15.1074   21.6934 C   0  0  2  0  0  0  0  0  0  0  0  0
    9.9938  -16.0783   20.9777 N   0  0  0  0  0  0  0  0  0  0  0  0
    9.2629  -15.3215   23.1621 C   0  0  0  0  0  0  0  0  0  0  0  0
   10.1088  -16.0936   23.6943 O   0  0  0  0  0  0  0  0  0  0  0  0
    7.6019  -15.7324   18.7677 C   0  0  0  0  0  0  0  0  0  0  0  0
    7.6020  -15.3184   17.4416 C   0  0  0  0  0  0  0  0  0  0  0  0
    6.6717  -10.7494   27.2026 C   0  0  0  0  0  0  0  0  0  0  0  0
    5.5913  -12.1656   26.8990 S   0  0  0  0  0  0  0  0  0  0  0  0
    6.4594  -13.4747   25.9803 C   0  0  0  0  0  0  0  0  0  0  0  0
    7.9466  -13.2622   25.9886 C   0  0  0  0  0  0  0  0  0  0  0  0
    8.6416  -14.4567   25.4636 C   0  0  2  0  0  0  0  0  0  0  0  0
    8.3784  -14.6591   24.0357 N   0  0  0  0  0  0  0  0  0  0  0  0
    8.3693  -15.7361   26.1477 C   0  0  0  0  0  0  0  0  0  0  0  0
    8.4697  -15.9648   27.3698 O   0  0  0  0  0  0  0  0  0  0  0  0
    6.8466  -18.9959   25.0000 C   0  0  0  0  0  0  0  0  0  0  0  0
    7.5663  -18.1362   26.0183 C   0  0  2  0  0  0  0  0  0  0  0  0
    7.9355  -16.8895   25.3761 N   0  0  0  0  0  0  0  0  0  0  0  0
    8.7992  -18.8673   26.4704 C   0  0  0  0  0  0  0  0  0  0  0  0
    9.9400  -18.4481   26.2394 O   0  0  0  0  0  0  0  0  0  0  0  0
    8.6033  -20.0464   27.1662 O   0  0  0  0  0  0  0  0  0  0  0  0
  2  3  2  0
  2  1  1  0
  4  3  1  0
  5  4  2  0
  6  5  1  0
  7  9  1  0
  7  6  1  0
  7  8  1  6
  9 10  2  0
 11  5  1  0
 11 12  2  0
 12  2  1  0
 14 13  1  0
 15 14  1  0
 16 15  1  0
 17 16  1  1
 18  9  1  0
 18 17  1  0
 19 23  1  0
 19 17  1  0
 20 19  2  0
 22 21  1  6
 22 24  1  0
 22 23  1  0
 24 26  1  0
 25 24  2  0
M  END
$$$$
