CWC.pdb
     RDKit          3D

 27 28  0  0  1  0  0  0  0  0999 V2000
    7.5468  -17.1213   20.8757 N   0  0  0  0  0  0  0  0  0  0  0  0
    8.3277  -15.9141   20.6731 C   0  0  1  0  0  0  0  0  0  0  0  0
    7.3451  -14.7783   20.4429 C   0  0  0  0  0  0  0  0  0  0  0  0
    6.1483  -14.6693   21.7904 S   0  0  0  0  0  0  0  0  0  0  0  0
    9.1403  -15.6497   21.8964 C   0  0  0  0  0  0  0  0  0  0  0  0
    9.9672  -14.7165   21.9225 O   0  0  0  0  0  0  0  0  0  0  0  0
    8.9888  -16.4447   23.0370 N   0  0  0  0  0  0  0  0  0  0  0  0
    9.7391  -16.2997   24.2789 C   0  0  1  0  0  0  0  0  0  0  0  0
    8.7713  -16.5585   25.3816 C   0  0  0  0  0  0  0  0  0  0  0  0
    7.6466  -15.6332   25.5214 C   0  0  0  0  0  0  0  0  0  0  0  0
    6.2893  -15.8764   25.3111 C   0  0  0  0  0  0  0  0  0  0  0  0
    5.6486  -14.7409   25.5294 N   0  0  0  0  0  0  0  0  0  0  0  0
    6.4751  -13.7497   25.8723 C   0  0  0  0  0  0  0  0  0  0  0  0
    6.3325  -12.4247   26.2075 C   0  0  0  0  0  0  0  0  0  0  0  0
    7.4033  -11.6337   26.5414 C   0  0  0  0  0  0  0  0  0  0  0  0
    8.6730  -12.1607   26.5484 C   0  0  0  0  0  0  0  0  0  0  0  0
    8.8203  -13.4787   26.2148 C   0  0  0  0  0  0  0  0  0  0  0  0
    7.7457  -14.3027   25.8710 C   0  0  0  0  0  0  0  0  0  0  0  0
   10.9960  -17.0225   24.2968 C   0  0  0  0  0  0  0  0  0  0  0  0
   11.0682  -18.1836   23.8295 O   0  0  0  0  0  0  0  0  0  0  0  0
   12.2092  -16.4852   24.8316 N   0  0  0  0  0  0  0  0  0  0  0  0
   13.4330  -17.2240   24.8188 C   0  0  1  0  0  0  0  0  0  0  0  0
   14.5869  -16.3442   24.4038 C   0  0  0  0  0  0  0  0  0  0  0  0
   16.1361  -17.2761   24.5089 S   0  0  0  0  0  0  0  0  0  0  0  0
   13.7670  -17.7700   26.1776 C   0  0  0  0  0  0  0  0  0  0  0  0
   13.1435  -17.4402   27.2124 O   0  0  0  0  0  0  0  0  0  0  0  0
   14.8118  -18.6786   26.2849 O   0  0  0  0  0  0  0  0  0  0  0  0
  2  1  1  1
  2  5  1  0
  3  2  1  0
  4  3  1  0
  5  6  2  0
  7  5  1  0
  7  8  1  0
  8  9  1  1
 10  9  1  0
 11 10  2  0
 12 13  1  0
 12 11  1  0
 13 18  2  0
 14 15  2  0
 14 13  1  0
 15 16  1  0
 16 17  2  0
 18 17  1  0
 18 10  1  0
 19 21  1  0
 19  8  1  0
 20 19  2  0
 22 23  1  1
 22 21  1  0
 23 24  1  0
 25 22  1  0
 25 27  1  0
 26 25  2  0
M  END
$$$$
