CWC.pdb
     RDKit          3D

 27 28  0  0  1  0  0  0  0  0999 V2000
    6.3364  -15.7437   20.1231 N   0  0  0  0  0  0  0  0  0  0  0  0
    7.0811  -16.7977   20.7882 C   0  0  1  0  0  0  0  0  0  0  0  0
    7.8197  -17.5732   19.7104 C   0  0  0  0  0  0  0  0  0  0  0  0
    6.9977  -19.1416   19.3574 S   0  0  0  0  0  0  0  0  0  0  0  0
    8.0552  -16.1813   21.7357 C   0  0  0  0  0  0  0  0  0  0  0  0
    8.5810  -15.0793   21.4814 O   0  0  0  0  0  0  0  0  0  0  0  0
    8.3965  -16.8292   22.9272 N   0  0  0  0  0  0  0  0  0  0  0  0
    9.3859  -16.3654   23.8927 C   0  0  1  0  0  0  0  0  0  0  0  0
    8.7282  -16.4349   25.2276 C   0  0  0  0  0  0  0  0  0  0  0  0
    7.6099  -15.5247   25.4755 C   0  0  0  0  0  0  0  0  0  0  0  0
    6.2420  -15.7894   25.4086 C   0  0  0  0  0  0  0  0  0  0  0  0
    5.6099  -14.6613   25.6829 N   0  0  0  0  0  0  0  0  0  0  0  0
    6.4521  -13.6551   25.9306 C   0  0  0  0  0  0  0  0  0  0  0  0
    6.3245  -12.3291   26.2682 C   0  0  0  0  0  0  0  0  0  0  0  0
    7.4118  -11.5195   26.4833 C   0  0  0  0  0  0  0  0  0  0  0  0
    8.6834  -12.0281   26.3633 C   0  0  0  0  0  0  0  0  0  0  0  0
    8.8156  -13.3469   26.0267 C   0  0  0  0  0  0  0  0  0  0  0  0
    7.7241  -14.1896   25.8024 C   0  0  0  0  0  0  0  0  0  0  0  0
   10.6889  -16.9845   23.7461 C   0  0  0  0  0  0  0  0  0  0  0  0
   10.8009  -18.2331   23.7281 O   0  0  0  0  0  0  0  0  0  0  0  0
   11.9059  -16.2439   23.6159 N   0  0  0  0  0  0  0  0  0  0  0  0
   13.1737  -16.8910   23.4835 C   0  0  1  0  0  0  0  0  0  0  0  0
   14.1045  -16.0763   22.6186 C   0  0  0  0  0  0  0  0  0  0  0  0
   13.4027  -15.9030   20.9582 S   0  0  0  0  0  0  0  0  0  0  0  0
   13.8516  -17.0629   24.8128 C   0  0  0  0  0  0  0  0  0  0  0  0
   13.3194  -16.7221   25.8940 O   0  0  0  0  0  0  0  0  0  0  0  0
   15.1215  -17.6244   24.8379 O   0  0  0  0  0  0  0  0  0  0  0  0
  2  1  1  6
  2  5  1  0
  3  2  1  0
  4  3  1  0
  5  6  2  0
  7  5  1  0
  7  8  1  0
  8  9  1  1
 10  9  1  0
 11 10  2  0
 12 13  1  0
 12 11  1  0
 13 18  2  0
 14 15  2  0
 14 13  1  0
 15 16  1  0
 16 17  2  0
 18 17  1  0
 18 10  1  0
 19 21  1  0
 19  8  1  0
 20 19  2  0
 22 23  1  6
 22 21  1  0
 23 24  1  0
 25 22  1  0
 25 27  1  0
 26 25  2  0
M  END
$$$$
