CWC.pdb
     RDKit          3D

 27 28  0  0  1  0  0  0  0  0999 V2000
    8.5131  -13.5908   18.4051 N   0  0  0  0  0  0  0  0  0  0  0  0
    9.1716  -14.6419   19.1598 C   0  0  1  0  0  0  0  0  0  0  0  0
   10.6157  -14.6934   18.6901 C   0  0  0  0  0  0  0  0  0  0  0  0
   11.5234  -16.0158   19.5190 S   0  0  0  0  0  0  0  0  0  0  0  0
    9.1163  -14.3050   20.6125 C   0  0  0  0  0  0  0  0  0  0  0  0
    9.3490  -13.1450   21.0067 O   0  0  0  0  0  0  0  0  0  0  0  0
    8.8020  -15.2856   21.5590 N   0  0  0  0  0  0  0  0  0  0  0  0
    8.6946  -15.0736   22.9976 C   0  0  1  0  0  0  0  0  0  0  0  0
    7.2708  -15.3333   23.3507 C   0  0  0  0  0  0  0  0  0  0  0  0
    6.8178  -14.9108   24.6762 C   0  0  0  0  0  0  0  0  0  0  0  0
    6.2879  -15.6914   25.7036 C   0  0  0  0  0  0  0  0  0  0  0  0
    5.9941  -14.8777   26.7032 N   0  0  0  0  0  0  0  0  0  0  0  0
    6.2879  -13.6052   26.4248 C   0  0  0  0  0  0  0  0  0  0  0  0
    6.1982  -12.4083   27.0939 C   0  0  0  0  0  0  0  0  0  0  0  0
    6.6098  -11.2238   26.5359 C   0  0  0  0  0  0  0  0  0  0  0  0
    7.1336  -11.2067   25.2650 C   0  0  0  0  0  0  0  0  0  0  0  0
    7.2243  -12.3952   24.5946 C   0  0  0  0  0  0  0  0  0  0  0  0
    6.8114  -13.6126   25.1418 C   0  0  0  0  0  0  0  0  0  0  0  0
    9.7186  -15.7480   23.7716 C   0  0  0  0  0  0  0  0  0  0  0  0
   10.1706  -16.8564   23.3985 O   0  0  0  0  0  0  0  0  0  0  0  0
   10.2728  -15.2195   24.9799 N   0  0  0  0  0  0  0  0  0  0  0  0
   11.2752  -15.9194   25.7209 C   0  0  1  0  0  0  0  0  0  0  0  0
   11.5211  -15.2535   27.0528 C   0  0  0  0  0  0  0  0  0  0  0  0
    9.9397  -14.8881   27.8559 S   0  0  0  0  0  0  0  0  0  0  0  0
   10.8656  -17.3354   26.0099 C   0  0  0  0  0  0  0  0  0  0  0  0
   11.6465  -18.1785   26.5077 O   0  0  0  0  0  0  0  0  0  0  0  0
    9.5652  -17.7200   25.7107 O   0  0  0  0  0  0  0  0  0  0  0  0
  2  1  1  6
  2  5  1  0
  3  2  1  0
  4  3  1  0
  5  6  2  0
  7  5  1  0
  7  8  1  0
  8  9  1  1
 10  9  1  0
 11 10  2  0
 12 13  1  0
 12 11  1  0
 13 18  2  0
 14 15  2  0
 14 13  1  0
 15 16  1  0
 16 17  2  0
 18 17  1  0
 18 10  1  0
 19 21  1  0
 19  8  1  0
 20 19  2  0
 22 23  1  1
 22 21  1  0
 23 24  1  0
 25 22  1  0
 25 27  1  0
 26 25  2  0
M  END
$$$$
