CWC.pdb
     RDKit          3D

 27 28  0  0  1  0  0  0  0  0999 V2000
    7.2916  -15.0015   20.1410 N   0  0  0  0  0  0  0  0  0  0  0  0
    7.6611  -16.1936   20.8829 C   0  0  1  0  0  0  0  0  0  0  0  0
    8.3247  -17.1446   19.9012 C   0  0  0  0  0  0  0  0  0  0  0  0
    7.3301  -18.6324   19.6620 S   0  0  0  0  0  0  0  0  0  0  0  0
    8.6213  -15.8169   21.9613 C   0  0  0  0  0  0  0  0  0  0  0  0
    9.4224  -14.8749   21.8004 O   0  0  0  0  0  0  0  0  0  0  0  0
    8.6398  -16.5147   23.1733 N   0  0  0  0  0  0  0  0  0  0  0  0
    9.5502  -16.2629   24.2842 C   0  0  1  0  0  0  0  0  0  0  0  0
    8.7367  -16.3921   25.5255 C   0  0  0  0  0  0  0  0  0  0  0  0
    7.6014  -15.4829   25.6842 C   0  0  0  0  0  0  0  0  0  0  0  0
    6.2391  -15.7696   25.5971 C   0  0  0  0  0  0  0  0  0  0  0  0
    5.5866  -14.6349   25.7814 N   0  0  0  0  0  0  0  0  0  0  0  0
    6.4098  -13.6038   25.9871 C   0  0  0  0  0  0  0  0  0  0  0  0
    6.2575  -12.2609   26.2356 C   0  0  0  0  0  0  0  0  0  0  0  0
    7.3289  -11.4248   26.4279 C   0  0  0  0  0  0  0  0  0  0  0  0
    8.6091  -11.9229   26.3753 C   0  0  0  0  0  0  0  0  0  0  0  0
    8.7660  -13.2586   26.1274 C   0  0  0  0  0  0  0  0  0  0  0  0
    7.6910  -14.1284   25.9279 C   0  0  0  0  0  0  0  0  0  0  0  0
   10.7933  -17.0055   24.2082 C   0  0  0  0  0  0  0  0  0  0  0  0
   10.7819  -18.2534   24.0871 O   0  0  0  0  0  0  0  0  0  0  0  0
   12.0848  -16.3928   24.2646 N   0  0  0  0  0  0  0  0  0  0  0  0
   13.2876  -17.1492   24.1063 C   0  0  1  0  0  0  0  0  0  0  0  0
   14.2685  -16.4189   23.2217 C   0  0  0  0  0  0  0  0  0  0  0  0
   14.4482  -14.7084   23.7886 S   0  0  0  0  0  0  0  0  0  0  0  0
   13.9751  -17.3819   25.4213 C   0  0  0  0  0  0  0  0  0  0  0  0
   15.1292  -17.8606   25.5072 O   0  0  0  0  0  0  0  0  0  0  0  0
   13.2980  -17.0500   26.5874 O   0  0  0  0  0  0  0  0  0  0  0  0
  2  1  1  6
  2  5  1  0
  3  2  1  0
  4  3  1  0
  5  6  2  0
  7  5  1  0
  7  8  1  0
  8  9  1  1
 10  9  1  0
 11 10  2  0
 12 13  1  0
 12 11  1  0
 13 18  2  0
 14 15  2  0
 14 13  1  0
 15 16  1  0
 16 17  2  0
 18 17  1  0
 18 10  1  0
 19 21  1  0
 19  8  1  0
 20 19  2  0
 22 23  1  6
 22 21  1  0
 23 24  1  0
 25 22  1  0
 25 27  1  0
 26 25  2  0
M  END
$$$$
