CWC.pdb
     RDKit          3D

 27 28  0  0  1  0  0  0  0  0999 V2000
    7.1245  -13.6180   20.0618 N   0  0  0  0  0  0  0  0  0  0  0  0
    7.1591  -14.9314   20.6799 C   0  0  1  0  0  0  0  0  0  0  0  0
    7.4253  -15.9397   19.5749 C   0  0  0  0  0  0  0  0  0  0  0  0
    7.5108  -17.6191   20.2324 S   0  0  0  0  0  0  0  0  0  0  0  0
    8.2623  -14.9672   21.6840 C   0  0  0  0  0  0  0  0  0  0  0  0
    9.2845  -14.2691   21.5325 O   0  0  0  0  0  0  0  0  0  0  0  0
    8.1694  -15.7855   22.8144 N   0  0  0  0  0  0  0  0  0  0  0  0
    9.1870  -15.9219   23.8499 C   0  0  1  0  0  0  0  0  0  0  0  0
    8.4546  -16.1875   25.1197 C   0  0  0  0  0  0  0  0  0  0  0  0
    7.4014  -15.2455   25.4993 C   0  0  0  0  0  0  0  0  0  0  0  0
    6.0207  -15.4434   25.5109 C   0  0  0  0  0  0  0  0  0  0  0  0
    5.4646  -14.3078   25.8966 N   0  0  0  0  0  0  0  0  0  0  0  0
    6.3701  -13.3587   26.1466 C   0  0  0  0  0  0  0  0  0  0  0  0
    6.3307  -12.0528   26.5726 C   0  0  0  0  0  0  0  0  0  0  0  0
    7.4685  -11.3086   26.7612 C   0  0  0  0  0  0  0  0  0  0  0  0
    8.7027  -11.8653   26.5229 C   0  0  0  0  0  0  0  0  0  0  0  0
    8.7471  -13.1644   26.0980 C   0  0  0  0  0  0  0  0  0  0  0  0
    7.6028  -13.9408   25.8985 C   0  0  0  0  0  0  0  0  0  0  0  0
   10.2740  -16.8135   23.4952 C   0  0  0  0  0  0  0  0  0  0  0  0
   10.0407  -17.9027   22.9197 O   0  0  0  0  0  0  0  0  0  0  0  0
   11.6497  -16.5296   23.7661 N   0  0  0  0  0  0  0  0  0  0  0  0
   12.6898  -17.4569   23.4465 C   0  0  1  0  0  0  0  0  0  0  0  0
   13.2495  -17.1830   22.0719 C   0  0  0  0  0  0  0  0  0  0  0  0
   13.3213  -15.3964   21.7849 S   0  0  0  0  0  0  0  0  0  0  0  0
   13.8365  -17.3605   24.4119 C   0  0  0  0  0  0  0  0  0  0  0  0
   13.8962  -16.4878   25.3081 O   0  0  0  0  0  0  0  0  0  0  0  0
   14.8708  -18.2805   24.3014 O   0  0  0  0  0  0  0  0  0  0  0  0
  2  1  1  6
  2  5  1  0
  3  2  1  0
  4  3  1  0
  5  6  2  0
  7  5  1  0
  7  8  1  0
  8  9  1  1
 10  9  1  0
 11 10  2  0
 12 13  1  0
 12 11  1  0
 13 18  2  0
 14 15  2  0
 14 13  1  0
 15 16  1  0
 16 17  2  0
 18 17  1  0
 18 10  1  0
 19 21  1  0
 19  8  1  0
 20 19  2  0
 22 23  1  6
 22 21  1  0
 23 24  1  0
 25 22  1  0
 25 27  1  0
 26 25  2  0
M  END
$$$$
