CWC.pdb
     RDKit          3D

 27 28  0  0  1  0  0  0  0  0999 V2000
    6.9593  -13.9283   20.0536 N   0  0  0  0  0  0  0  0  0  0  0  0
    7.2378  -15.2639   20.5502 C   0  0  1  0  0  0  0  0  0  0  0  0
    7.8653  -16.0448   19.4080 C   0  0  0  0  0  0  0  0  0  0  0  0
    7.3030  -17.7606   19.4057 S   0  0  0  0  0  0  0  0  0  0  0  0
    8.1932  -15.1685   21.6925 C   0  0  0  0  0  0  0  0  0  0  0  0
    9.0645  -14.2766   21.7214 O   0  0  0  0  0  0  0  0  0  0  0  0
    8.1286  -16.0787   22.7524 N   0  0  0  0  0  0  0  0  0  0  0  0
    9.0095  -16.0930   23.9143 C   0  0  1  0  0  0  0  0  0  0  0  0
    8.1308  -16.3005   25.0993 C   0  0  0  0  0  0  0  0  0  0  0  0
    7.1833  -15.2356   25.4297 C   0  0  0  0  0  0  0  0  0  0  0  0
    5.7902  -15.2602   25.3645 C   0  0  0  0  0  0  0  0  0  0  0  0
    5.3590  -14.0652   25.7297 N   0  0  0  0  0  0  0  0  0  0  0  0
    6.3600  -13.2366   26.0372 C   0  0  0  0  0  0  0  0  0  0  0  0
    6.4597  -11.9370   26.4722 C   0  0  0  0  0  0  0  0  0  0  0  0
    7.6689  -11.3406   26.7292 C   0  0  0  0  0  0  0  0  0  0  0  0
    8.8357  -12.0459   26.5531 C   0  0  0  0  0  0  0  0  0  0  0  0
    8.7419  -13.3395   26.1195 C   0  0  0  0  0  0  0  0  0  0  0  0
    7.5228  -13.9670   25.8511 C   0  0  0  0  0  0  0  0  0  0  0  0
   10.1651  -16.9565   23.7680 C   0  0  0  0  0  0  0  0  0  0  0  0
   10.0202  -18.1719   23.4966 O   0  0  0  0  0  0  0  0  0  0  0  0
   11.5140  -16.5040   23.9180 N   0  0  0  0  0  0  0  0  0  0  0  0
   12.6271  -17.3926   23.7951 C   0  0  1  0  0  0  0  0  0  0  0  0
   13.8770  -16.6377   23.4135 C   0  0  0  0  0  0  0  0  0  0  0  0
   13.6483  -15.8517   21.7981 S   0  0  0  0  0  0  0  0  0  0  0  0
   12.9208  -18.0978   25.0884 C   0  0  0  0  0  0  0  0  0  0  0  0
   12.2219  -17.9466   26.1166 O   0  0  0  0  0  0  0  0  0  0  0  0
   14.0142  -18.9523   25.1402 O   0  0  0  0  0  0  0  0  0  0  0  0
  2  1  1  6
  2  5  1  0
  3  2  1  0
  4  3  1  0
  5  6  2  0
  7  5  1  0
  7  8  1  0
  8  9  1  1
 10  9  1  0
 11 10  2  0
 12 13  1  0
 12 11  1  0
 13 18  2  0
 14 15  2  0
 14 13  1  0
 15 16  1  0
 16 17  2  0
 18 17  1  0
 18 10  1  0
 19 21  1  0
 19  8  1  0
 20 19  2  0
 22 23  1  1
 22 21  1  0
 23 24  1  0
 25 22  1  0
 25 27  1  0
 26 25  2  0
M  END
$$$$
