CWC.pdb
     RDKit          3D

 27 28  0  0  1  0  0  0  0  0999 V2000
    6.2966  -16.7277   20.1269 N   0  0  0  0  0  0  0  0  0  0  0  0
    6.6865  -17.4922   21.2981 C   0  0  1  0  0  0  0  0  0  0  0  0
    7.2281  -18.8231   20.8044 C   0  0  0  0  0  0  0  0  0  0  0  0
    7.8532  -18.6860   19.1160 S   0  0  0  0  0  0  0  0  0  0  0  0
    7.7495  -16.7466   22.0335 C   0  0  0  0  0  0  0  0  0  0  0  0
    8.3407  -15.7874   21.4991 O   0  0  0  0  0  0  0  0  0  0  0  0
    8.1022  -17.1109   23.3370 N   0  0  0  0  0  0  0  0  0  0  0  0
    9.2238  -16.5700   24.0958 C   0  0  1  0  0  0  0  0  0  0  0  0
    8.7383  -16.4054   25.4945 C   0  0  0  0  0  0  0  0  0  0  0  0
    7.6185  -15.4900   25.7153 C   0  0  0  0  0  0  0  0  0  0  0  0
    6.2521  -15.7706   25.7107 C   0  0  0  0  0  0  0  0  0  0  0  0
    5.6167  -14.6318   25.9272 N   0  0  0  0  0  0  0  0  0  0  0  0
    6.4553  -13.6037   26.0782 C   0  0  0  0  0  0  0  0  0  0  0  0
    6.3240  -12.2588   26.3281 C   0  0  0  0  0  0  0  0  0  0  0  0
    7.4087  -11.4269   26.4521 C   0  0  0  0  0  0  0  0  0  0  0  0
    8.6813  -11.9314   26.3264 C   0  0  0  0  0  0  0  0  0  0  0  0
    8.8172  -13.2691   26.0768 C   0  0  0  0  0  0  0  0  0  0  0  0
    7.7284  -14.1347   25.9461 C   0  0  0  0  0  0  0  0  0  0  0  0
   10.4717  -17.2792   23.8906 C   0  0  0  0  0  0  0  0  0  0  0  0
   10.5025  -18.5323   23.9170 O   0  0  0  0  0  0  0  0  0  0  0  0
   11.7219  -16.6262   23.6512 N   0  0  0  0  0  0  0  0  0  0  0  0
   12.9365  -17.3600   23.4770 C   0  0  1  0  0  0  0  0  0  0  0  0
   13.8721  -16.6348   22.5408 C   0  0  0  0  0  0  0  0  0  0  0  0
   13.0655  -16.3889   20.9382 S   0  0  0  0  0  0  0  0  0  0  0  0
   13.6697  -17.5376   24.7759 C   0  0  0  0  0  0  0  0  0  0  0  0
   13.2857  -17.0158   25.8476 O   0  0  0  0  0  0  0  0  0  0  0  0
   14.8207  -18.3144   24.7826 O   0  0  0  0  0  0  0  0  0  0  0  0
  2  1  1  6
  2  5  1  0
  3  2  1  0
  4  3  1  0
  5  6  2  0
  7  5  1  0
  7  8  1  0
  8  9  1  1
 10  9  1  0
 11 10  2  0
 12 13  1  0
 12 11  1  0
 13 18  2  0
 14 15  2  0
 14 13  1  0
 15 16  1  0
 16 17  2  0
 18 17  1  0
 18 10  1  0
 19 21  1  0
 19  8  1  0
 20 19  2  0
 22 23  1  6
 22 21  1  0
 23 24  1  0
 25 22  1  0
 25 27  1  0
 26 25  2  0
M  END
$$$$
