CWC.pdb
     RDKit          3D

 27 28  0  0  1  0  0  0  0  0999 V2000
    7.1748  -15.0108   19.9297 N   0  0  0  0  0  0  0  0  0  0  0  0
    7.3062  -16.0463   20.9389 C   0  0  1  0  0  0  0  0  0  0  0  0
    7.7460  -17.3138   20.2258 C   0  0  0  0  0  0  0  0  0  0  0  0
    9.4094  -17.1353   19.5467 S   0  0  0  0  0  0  0  0  0  0  0  0
    8.3407  -15.6302   21.9306 C   0  0  0  0  0  0  0  0  0  0  0  0
    9.0854  -14.6559   21.7035 O   0  0  0  0  0  0  0  0  0  0  0  0
    8.4939  -16.3263   23.1339 N   0  0  0  0  0  0  0  0  0  0  0  0
    9.5075  -16.0578   24.1472 C   0  0  1  0  0  0  0  0  0  0  0  0
    8.8122  -16.1394   25.4622 C   0  0  0  0  0  0  0  0  0  0  0  0
    7.6400  -15.2861   25.6582 C   0  0  0  0  0  0  0  0  0  0  0  0
    6.2908  -15.6261   25.5595 C   0  0  0  0  0  0  0  0  0  0  0  0
    5.5914  -14.5283   25.7903 N   0  0  0  0  0  0  0  0  0  0  0  0
    6.3710  -13.4728   26.0381 C   0  0  0  0  0  0  0  0  0  0  0  0
    6.1628  -12.1489   26.3417 C   0  0  0  0  0  0  0  0  0  0  0  0
    7.1984  -11.2770   26.5682 C   0  0  0  0  0  0  0  0  0  0  0  0
    8.4983  -11.7183   26.4950 C   0  0  0  0  0  0  0  0  0  0  0  0
    8.7108  -13.0349   26.1925 C   0  0  0  0  0  0  0  0  0  0  0  0
    7.6729  -13.9401   25.9574 C   0  0  0  0  0  0  0  0  0  0  0  0
   10.7283  -16.8216   23.9775 C   0  0  0  0  0  0  0  0  0  0  0  0
   10.6853  -18.0675   23.8443 O   0  0  0  0  0  0  0  0  0  0  0  0
   12.0318  -16.2328   23.9507 N   0  0  0  0  0  0  0  0  0  0  0  0
   13.2152  -17.0229   23.8122 C   0  0  1  0  0  0  0  0  0  0  0  0
   14.3122  -16.2335   23.1405 C   0  0  0  0  0  0  0  0  0  0  0  0
   13.7792  -15.7317   21.4841 S   0  0  0  0  0  0  0  0  0  0  0  0
   13.7483  -17.4640   25.1454 C   0  0  0  0  0  0  0  0  0  0  0  0
   14.7970  -18.1378   25.2665 O   0  0  0  0  0  0  0  0  0  0  0  0
   13.0450  -17.1063   26.2881 O   0  0  0  0  0  0  0  0  0  0  0  0
  2  1  1  6
  2  5  1  0
  3  2  1  0
  4  3  1  0
  5  6  2  0
  7  5  1  0
  7  8  1  0
  8  9  1  1
 10  9  1  0
 11 10  2  0
 12 13  1  0
 12 11  1  0
 13 18  2  0
 14 15  2  0
 14 13  1  0
 15 16  1  0
 16 17  2  0
 18 17  1  0
 18 10  1  0
 19 21  1  0
 19  8  1  0
 20 19  2  0
 22 23  1  1
 22 21  1  0
 23 24  1  0
 25 22  1  0
 25 27  1  0
 26 25  2  0
M  END
$$$$
