CWC.pdb
     RDKit          3D

 27 28  0  0  1  0  0  0  0  0999 V2000
    7.1730  -15.3033   19.9000 N   0  0  0  0  0  0  0  0  0  0  0  0
    7.2938  -16.3789   20.8677 C   0  0  1  0  0  0  0  0  0  0  0  0
    7.7767  -17.6070   20.1147 C   0  0  0  0  0  0  0  0  0  0  0  0
    9.4061  -17.3270   19.3889 S   0  0  0  0  0  0  0  0  0  0  0  0
    8.2916  -15.9885   21.9064 C   0  0  0  0  0  0  0  0  0  0  0  0
    9.0391  -15.0053   21.7340 O   0  0  0  0  0  0  0  0  0  0  0  0
    8.4064  -16.7194   23.0933 N   0  0  0  0  0  0  0  0  0  0  0  0
    9.3329  -16.4312   24.1818 C   0  0  1  0  0  0  0  0  0  0  0  0
    8.5370  -16.5160   25.4382 C   0  0  0  0  0  0  0  0  0  0  0  0
    7.4707  -15.5323   25.6276 C   0  0  0  0  0  0  0  0  0  0  0  0
    6.0915  -15.7147   25.5269 C   0  0  0  0  0  0  0  0  0  0  0  0
    5.5230  -14.5425   25.7513 N   0  0  0  0  0  0  0  0  0  0  0  0
    6.4186  -13.5829   25.9967 C   0  0  0  0  0  0  0  0  0  0  0  0
    6.3640  -12.2425   26.2940 C   0  0  0  0  0  0  0  0  0  0  0  0
    7.4929  -11.4950   26.5196 C   0  0  0  0  0  0  0  0  0  0  0  0
    8.7334  -12.0836   26.4516 C   0  0  0  0  0  0  0  0  0  0  0  0
    8.7931  -13.4173   26.1551 C   0  0  0  0  0  0  0  0  0  0  0  0
    7.6581  -14.1978   25.9213 C   0  0  0  0  0  0  0  0  0  0  0  0
   10.5738  -17.1782   24.1138 C   0  0  0  0  0  0  0  0  0  0  0  0
   10.5598  -18.4186   23.9317 O   0  0  0  0  0  0  0  0  0  0  0  0
   11.8658  -16.5784   24.2457 N   0  0  0  0  0  0  0  0  0  0  0  0
   13.0657  -17.3551   24.2197 C   0  0  1  0  0  0  0  0  0  0  0  0
   14.2245  -16.5357   23.7060 C   0  0  0  0  0  0  0  0  0  0  0  0
   13.8593  -15.9384   22.0359 S   0  0  0  0  0  0  0  0  0  0  0  0
   13.4457  -17.8372   25.5906 C   0  0  0  0  0  0  0  0  0  0  0  0
   12.7833  -17.5559   26.6155 O   0  0  0  0  0  0  0  0  0  0  0  0
   14.5798  -18.6279   25.7208 O   0  0  0  0  0  0  0  0  0  0  0  0
  2  1  1  6
  2  5  1  0
  3  2  1  0
  4  3  1  0
  5  6  2  0
  7  5  1  0
  7  8  1  0
  8  9  1  1
 10  9  1  0
 11 10  2  0
 12 13  1  0
 12 11  1  0
 13 18  2  0
 14 15  2  0
 14 13  1  0
 15 16  1  0
 16 17  2  0
 18 17  1  0
 18 10  1  0
 19 21  1  0
 19  8  1  0
 20 19  2  0
 22 23  1  1
 22 21  1  0
 23 24  1  0
 25 22  1  0
 25 27  1  0
 26 25  2  0
M  END
$$$$
