CWC.pdb
     RDKit          3D

 27 28  0  0  1  0  0  0  0  0999 V2000
    7.4645  -20.0224   19.3249 N   0  0  0  0  0  0  0  0  0  0  0  0
    6.9184  -19.6829   20.6266 C   0  0  1  0  0  0  0  0  0  0  0  0
    6.9718  -20.9410   21.4768 C   0  0  0  0  0  0  0  0  0  0  0  0
    8.6777  -21.4286   21.8120 S   0  0  0  0  0  0  0  0  0  0  0  0
    7.7566  -18.6122   21.2413 C   0  0  0  0  0  0  0  0  0  0  0  0
    8.9277  -18.4210   20.8576 O   0  0  0  0  0  0  0  0  0  0  0  0
    7.2430  -17.8031   22.2599 N   0  0  0  0  0  0  0  0  0  0  0  0
    7.9606  -16.7264   22.9323 C   0  0  1  0  0  0  0  0  0  0  0  0
    6.9471  -15.6775   23.2354 C   0  0  0  0  0  0  0  0  0  0  0  0
    7.4340  -14.4040   23.7663 C   0  0  0  0  0  0  0  0  0  0  0  0
    8.4139  -13.5612   23.2420 C   0  0  0  0  0  0  0  0  0  0  0  0
    8.5407  -12.5415   24.0736 N   0  0  0  0  0  0  0  0  0  0  0  0
    7.7170  -12.6351   25.1205 C   0  0  0  0  0  0  0  0  0  0  0  0
    7.4456  -11.8674   26.2274 C   0  0  0  0  0  0  0  0  0  0  0  0
    6.4988  -12.2259   27.1541 C   0  0  0  0  0  0  0  0  0  0  0  0
    5.7832  -13.3886   26.9928 C   0  0  0  0  0  0  0  0  0  0  0  0
    6.0501  -14.1566   25.8932 C   0  0  0  0  0  0  0  0  0  0  0  0
    7.0092  -13.8123   24.9374 C   0  0  0  0  0  0  0  0  0  0  0  0
    8.8174  -17.1734   24.0133 C   0  0  0  0  0  0  0  0  0  0  0  0
    8.4582  -18.1124   24.7624 O   0  0  0  0  0  0  0  0  0  0  0  0
   10.0950  -16.5966   24.2995 N   0  0  0  0  0  0  0  0  0  0  0  0
   10.9464  -17.1165   25.3235 C   0  0  1  0  0  0  0  0  0  0  0  0
   12.3911  -17.0853   24.8875 C   0  0  0  0  0  0  0  0  0  0  0  0
   12.5709  -17.9426   23.3025 S   0  0  0  0  0  0  0  0  0  0  0  0
   10.8541  -16.3089   26.5865 C   0  0  0  0  0  0  0  0  0  0  0  0
   10.1963  -15.2460   26.6646 O   0  0  0  0  0  0  0  0  0  0  0  0
   11.5280  -16.7649   27.7118 O   0  0  0  0  0  0  0  0  0  0  0  0
  2  1  1  6
  2  5  1  0
  3  2  1  0
  4  3  1  0
  5  6  2  0
  7  5  1  0
  7  8  1  0
  8  9  1  1
 10  9  1  0
 11 10  2  0
 12 13  1  0
 12 11  1  0
 13 18  2  0
 14 15  2  0
 14 13  1  0
 15 16  1  0
 16 17  2  0
 18 17  1  0
 18 10  1  0
 19 21  1  0
 19  8  1  0
 20 19  2  0
 22 23  1  6
 22 21  1  0
 23 24  1  0
 25 22  1  0
 25 27  1  0
 26 25  2  0
M  END
$$$$
