CWC.pdb
     RDKit          3D

 27 28  0  0  1  0  0  0  0  0999 V2000
    7.3865  -14.3104   20.0056 N   0  0  0  0  0  0  0  0  0  0  0  0
    7.3461  -15.4493   20.9052 C   0  0  1  0  0  0  0  0  0  0  0  0
    7.5859  -16.6925   20.0653 C   0  0  0  0  0  0  0  0  0  0  0  0
    9.2392  -16.6792   19.3395 S   0  0  0  0  0  0  0  0  0  0  0  0
    8.4262  -15.3024   21.9244 C   0  0  0  0  0  0  0  0  0  0  0  0
    9.3547  -14.4872   21.7555 O   0  0  0  0  0  0  0  0  0  0  0  0
    8.4164  -16.0774   23.0886 N   0  0  0  0  0  0  0  0  0  0  0  0
    9.4167  -16.0303   24.1485 C   0  0  1  0  0  0  0  0  0  0  0  0
    8.6815  -16.2579   25.4240 C   0  0  0  0  0  0  0  0  0  0  0  0
    7.5592  -15.3680   25.7224 C   0  0  0  0  0  0  0  0  0  0  0  0
    6.1967  -15.6656   25.7486 C   0  0  0  0  0  0  0  0  0  0  0  0
    5.5559  -14.5461   26.0377 N   0  0  0  0  0  0  0  0  0  0  0  0
    6.3873  -13.5152   26.2089 C   0  0  0  0  0  0  0  0  0  0  0  0
    6.2490  -12.1850   26.5246 C   0  0  0  0  0  0  0  0  0  0  0  0
    7.3276  -11.3458   26.6521 C   0  0  0  0  0  0  0  0  0  0  0  0
    8.6011  -11.8277   26.4625 C   0  0  0  0  0  0  0  0  0  0  0  0
    8.7439  -13.1508   26.1474 C   0  0  0  0  0  0  0  0  0  0  0  0
    7.6612  -14.0233   26.0118 C   0  0  0  0  0  0  0  0  0  0  0  0
   10.5903  -16.8412   23.8886 C   0  0  0  0  0  0  0  0  0  0  0  0
   10.4814  -17.9531   23.3197 O   0  0  0  0  0  0  0  0  0  0  0  0
   11.9179  -16.4490   24.2498 N   0  0  0  0  0  0  0  0  0  0  0  0
   13.0455  -17.2968   24.0187 C   0  0  1  0  0  0  0  0  0  0  0  0
   14.1454  -16.5457   23.3089 C   0  0  0  0  0  0  0  0  0  0  0  0
   14.4936  -14.9987   24.1836 S   0  0  0  0  0  0  0  0  0  0  0  0
   13.6274  -17.8108   25.3046 C   0  0  0  0  0  0  0  0  0  0  0  0
   14.6194  -18.5743   25.3420 O   0  0  0  0  0  0  0  0  0  0  0  0
   13.0368  -17.4192   26.4988 O   0  0  0  0  0  0  0  0  0  0  0  0
  2  1  1  6
  2  5  1  0
  3  2  1  0
  4  3  1  0
  5  6  2  0
  7  5  1  0
  7  8  1  0
  8  9  1  1
 10  9  1  0
 11 10  2  0
 12 13  1  0
 12 11  1  0
 13 18  2  0
 14 15  2  0
 14 13  1  0
 15 16  1  0
 16 17  2  0
 18 17  1  0
 18 10  1  0
 19 21  1  0
 19  8  1  0
 20 19  2  0
 22 23  1  1
 22 21  1  0
 23 24  1  0
 25 22  1  0
 25 27  1  0
 26 25  2  0
M  END
$$$$
