CWC.pdb
     RDKit          3D

 27 28  0  0  1  0  0  0  0  0999 V2000
    7.0797  -14.0228   20.3265 N   0  0  0  0  0  0  0  0  0  0  0  0
    7.3547  -15.3156   20.9274 C   0  0  1  0  0  0  0  0  0  0  0  0
    7.9939  -16.1814   19.8548 C   0  0  0  0  0  0  0  0  0  0  0  0
    8.3429  -17.8395   20.4784 S   0  0  0  0  0  0  0  0  0  0  0  0
    8.2991  -15.1306   22.0678 C   0  0  0  0  0  0  0  0  0  0  0  0
    9.0809  -14.1595   22.0963 O   0  0  0  0  0  0  0  0  0  0  0  0
    8.3243  -16.0443   23.1264 N   0  0  0  0  0  0  0  0  0  0  0  0
    9.2665  -16.0288   24.2392 C   0  0  1  0  0  0  0  0  0  0  0  0
    8.4577  -16.2452   25.4714 C   0  0  0  0  0  0  0  0  0  0  0  0
    7.3871  -15.2879   25.7509 C   0  0  0  0  0  0  0  0  0  0  0  0
    6.0093  -15.5047   25.7676 C   0  0  0  0  0  0  0  0  0  0  0  0
    5.4329  -14.3466   26.0398 N   0  0  0  0  0  0  0  0  0  0  0  0
    6.3220  -13.3646   26.2086 C   0  0  0  0  0  0  0  0  0  0  0  0
    6.2594  -12.0254   26.5099 C   0  0  0  0  0  0  0  0  0  0  0  0
    7.3844  -11.2497   26.6390 C   0  0  0  0  0  0  0  0  0  0  0  0
    8.6289  -11.8075   26.4658 C   0  0  0  0  0  0  0  0  0  0  0  0
    8.6964  -13.1398   26.1650 C   0  0  0  0  0  0  0  0  0  0  0  0
    7.5655  -13.9486   26.0280 C   0  0  0  0  0  0  0  0  0  0  0  0
   10.4318  -16.8677   24.0374 C   0  0  0  0  0  0  0  0  0  0  0  0
   10.4146  -18.0731   24.3819 O   0  0  0  0  0  0  0  0  0  0  0  0
   11.6500  -16.4006   23.4505 N   0  0  0  0  0  0  0  0  0  0  0  0
   12.7886  -17.2510   23.2952 C   0  0  1  0  0  0  0  0  0  0  0  0
   13.7793  -16.6504   22.3279 C   0  0  0  0  0  0  0  0  0  0  0  0
   13.1027  -15.1234   21.6279 S   0  0  0  0  0  0  0  0  0  0  0  0
   13.5142  -17.4515   24.5950 C   0  0  0  0  0  0  0  0  0  0  0  0
   13.1254  -16.9464   25.6730 O   0  0  0  0  0  0  0  0  0  0  0  0
   14.6636  -18.2308   24.5954 O   0  0  0  0  0  0  0  0  0  0  0  0
  2  1  1  6
  2  5  1  0
  3  2  1  0
  4  3  1  0
  5  6  2  0
  7  5  1  0
  7  8  1  0
  8  9  1  1
 10  9  1  0
 11 10  2  0
 12 13  1  0
 12 11  1  0
 13 18  2  0
 14 15  2  0
 14 13  1  0
 15 16  1  0
 16 17  2  0
 18 17  1  0
 18 10  1  0
 19 21  1  0
 19  8  1  0
 20 19  2  0
 22 23  1  6
 22 21  1  0
 23 24  1  0
 25 22  1  0
 25 27  1  0
 26 25  2  0
M  END
$$$$
