CWC.pdb
     RDKit          3D

 27 28  0  0  1  0  0  0  0  0999 V2000
   11.1490  -16.3724   18.4326 N   0  0  0  0  0  0  0  0  0  0  0  0
    9.8218  -16.4197   19.0196 C   0  0  1  0  0  0  0  0  0  0  0  0
    9.3267  -17.8506   18.8930 C   0  0  0  0  0  0  0  0  0  0  0  0
   10.4415  -19.0015   19.7252 S   0  0  0  0  0  0  0  0  0  0  0  0
    9.9124  -16.0334   20.4581 C   0  0  0  0  0  0  0  0  0  0  0  0
   11.0212  -15.8830   21.0087 O   0  0  0  0  0  0  0  0  0  0  0  0
    8.7539  -15.8329   21.2155 N   0  0  0  0  0  0  0  0  0  0  0  0
    8.7128  -15.5436   22.6441 C   0  0  1  0  0  0  0  0  0  0  0  0
    7.3600  -14.9816   22.9154 C   0  0  0  0  0  0  0  0  0  0  0  0
    7.0047  -14.7260   24.3115 C   0  0  0  0  0  0  0  0  0  0  0  0
    6.5255  -15.6240   25.2652 C   0  0  0  0  0  0  0  0  0  0  0  0
    6.3165  -14.9410   26.3775 N   0  0  0  0  0  0  0  0  0  0  0  0
    6.6207  -13.6477   26.2435 C   0  0  0  0  0  0  0  0  0  0  0  0
    6.6025  -12.5453   27.0637 C   0  0  0  0  0  0  0  0  0  0  0  0
    7.0038  -11.3051   26.6338 C   0  0  0  0  0  0  0  0  0  0  0  0
    7.4435  -11.1329   25.3428 C   0  0  0  0  0  0  0  0  0  0  0  0
    7.4628  -12.2268   24.5223 C   0  0  0  0  0  0  0  0  0  0  0  0
    7.0587  -13.4982   24.9374 C   0  0  0  0  0  0  0  0  0  0  0  0
    9.1737  -16.6346   23.4805 C   0  0  0  0  0  0  0  0  0  0  0  0
    9.1021  -17.8194   23.0765 O   0  0  0  0  0  0  0  0  0  0  0  0
    9.7261  -16.4500   24.7872 N   0  0  0  0  0  0  0  0  0  0  0  0
   10.6389  -17.3887   25.3612 C   0  0  1  0  0  0  0  0  0  0  0  0
   12.0221  -17.2150   24.7826 C   0  0  0  0  0  0  0  0  0  0  0  0
   12.3429  -18.5144   23.5627 S   0  0  0  0  0  0  0  0  0  0  0  0
   10.7615  -17.2074   26.8472 C   0  0  0  0  0  0  0  0  0  0  0  0
   10.1800  -16.2881   27.4680 O   0  0  0  0  0  0  0  0  0  0  0  0
   11.5537  -18.0998   27.5574 O   0  0  0  0  0  0  0  0  0  0  0  0
  2  1  1  1
  2  5  1  0
  3  2  1  0
  4  3  1  0
  5  6  2  0
  7  5  1  0
  7  8  1  0
  8  9  1  1
 10  9  1  0
 11 10  2  0
 12 13  1  0
 12 11  1  0
 13 18  2  0
 14 15  2  0
 14 13  1  0
 15 16  1  0
 16 17  2  0
 18 17  1  0
 18 10  1  0
 19 21  1  0
 19  8  1  0
 20 19  2  0
 22 23  1  6
 22 21  1  0
 23 24  1  0
 25 22  1  0
 25 27  1  0
 26 25  2  0
M  END
$$$$
