CWC.pdb
     RDKit          3D

 27 28  0  0  1  0  0  0  0  0999 V2000
   10.0776  -15.5796   18.5931 N   0  0  0  0  0  0  0  0  0  0  0  0
    9.9089  -16.6766   19.5291 C   0  0  1  0  0  0  0  0  0  0  0  0
   10.9871  -17.7009   19.2180 C   0  0  0  0  0  0  0  0  0  0  0  0
   10.9153  -19.0916   20.3673 S   0  0  0  0  0  0  0  0  0  0  0  0
   10.0775  -16.1601   20.9189 C   0  0  0  0  0  0  0  0  0  0  0  0
   10.9916  -15.3574   21.1937 O   0  0  0  0  0  0  0  0  0  0  0  0
    9.2122  -16.5674   21.9394 N   0  0  0  0  0  0  0  0  0  0  0  0
    9.3111  -16.1798   23.3417 C   0  0  1  0  0  0  0  0  0  0  0  0
    7.9158  -16.1459   23.8627 C   0  0  0  0  0  0  0  0  0  0  0  0
    7.3056  -14.8321   24.0684 C   0  0  0  0  0  0  0  0  0  0  0  0
    6.5316  -14.0843   23.1811 C   0  0  0  0  0  0  0  0  0  0  0  0
    6.2234  -12.9510   23.7878 N   0  0  0  0  0  0  0  0  0  0  0  0
    6.7328  -12.8804   25.0202 C   0  0  0  0  0  0  0  0  0  0  0  0
    6.7029  -11.9636   26.0434 C   0  0  0  0  0  0  0  0  0  0  0  0
    7.3294  -12.1848   27.2444 C   0  0  0  0  0  0  0  0  0  0  0  0
    8.0175  -13.3558   27.4567 C   0  0  0  0  0  0  0  0  0  0  0  0
    8.0510  -14.2711   26.4412 C   0  0  0  0  0  0  0  0  0  0  0  0
    7.4216  -14.0676   25.2105 C   0  0  0  0  0  0  0  0  0  0  0  0
   10.2972  -16.9314   24.0935 C   0  0  0  0  0  0  0  0  0  0  0  0
   10.3413  -18.1817   24.0117 O   0  0  0  0  0  0  0  0  0  0  0  0
   11.2624  -16.3252   24.9580 N   0  0  0  0  0  0  0  0  0  0  0  0
   12.2072  -17.1019   25.6982 C   0  0  1  0  0  0  0  0  0  0  0  0
   13.5603  -16.4335   25.7093 C   0  0  0  0  0  0  0  0  0  0  0  0
   14.1194  -16.1547   24.0096 S   0  0  0  0  0  0  0  0  0  0  0  0
   11.7899  -17.2666   27.1317 C   0  0  0  0  0  0  0  0  0  0  0  0
   10.7236  -16.7920   27.5858 O   0  0  0  0  0  0  0  0  0  0  0  0
   12.6252  -17.9760   27.9845 O   0  0  0  0  0  0  0  0  0  0  0  0
  2  1  1  6
  2  5  1  0
  3  2  1  0
  4  3  1  0
  5  6  2  0
  7  5  1  0
  7  8  1  0
  8  9  1  1
 10  9  1  0
 11 10  2  0
 12 13  1  0
 12 11  1  0
 13 18  2  0
 14 15  2  0
 14 13  1  0
 15 16  1  0
 16 17  2  0
 18 17  1  0
 18 10  1  0
 19 21  1  0
 19  8  1  0
 20 19  2  0
 22 23  1  1
 22 21  1  0
 23 24  1  0
 25 22  1  0
 25 27  1  0
 26 25  2  0
M  END
$$$$
