TMW.pdb
     RDKit          3D

 30 31  0  0  1  0  0  0  0  0999 V2000
   27.4405  -18.5043  -15.1576 C   0  0  0  0  0  0  0  0  0  0  0  0
   27.8967  -19.6967  -15.9766 C   0  0  1  0  0  0  0  0  0  0  0  0
   28.8302  -19.4124  -16.9176 O   0  0  0  0  0  0  0  0  0  0  0  0
   28.2917  -20.8481  -15.0585 C   0  0  2  0  0  0  0  0  0  0  0  0
   28.6402  -21.9355  -15.9807 N   0  0  0  0  0  0  0  0  0  0  0  0
   27.2095  -21.2687  -14.1526 C   0  0  0  0  0  0  0  0  0  0  0  0
   26.2252  -21.9636  -14.5465 O   0  0  0  0  0  0  0  0  0  0  0  0
   27.6122  -20.9251   -7.3376 C   0  0  0  0  0  0  0  0  0  0  0  0
   26.1936  -19.9613   -7.9375 S   0  0  0  0  0  0  0  0  0  0  0  0
   25.5645  -20.8053   -9.4440 C   0  0  0  0  0  0  0  0  0  0  0  0
   26.6071  -20.6490  -10.5113 C   0  0  0  0  0  0  0  0  0  0  0  0
   26.0973  -21.1075  -11.8808 C   0  0  2  0  0  0  0  0  0  0  0  0
   27.2208  -20.9075  -12.7728 N   0  0  0  0  0  0  0  0  0  0  0  0
   24.8889  -20.3753  -12.2440 C   0  0  0  0  0  0  0  0  0  0  0  0
   24.9549  -19.1505  -12.5786 O   0  0  0  0  0  0  0  0  0  0  0  0
   23.5932  -20.9248  -12.2628 N   0  0  0  0  0  0  0  0  0  0  0  0
   22.4841  -20.2904  -13.0097 C   0  0  1  0  0  0  0  0  0  0  0  0
   22.9062  -20.1897  -14.4526 C   0  0  0  0  0  0  0  0  0  0  0  0
   21.8631  -19.7068  -15.3593 C   0  0  0  0  0  0  0  0  0  0  0  0
   20.5479  -19.3545  -15.0381 C   0  0  0  0  0  0  0  0  0  0  0  0
   19.8991  -19.0162  -16.1646 N   0  0  0  0  0  0  0  0  0  0  0  0
   20.7011  -19.1164  -17.2362 C   0  0  0  0  0  0  0  0  0  0  0  0
   20.5334  -18.8654  -18.5997 C   0  0  0  0  0  0  0  0  0  0  0  0
   21.5975  -19.0502  -19.4395 C   0  0  0  0  0  0  0  0  0  0  0  0
   22.8274  -19.4743  -18.9884 C   0  0  0  0  0  0  0  0  0  0  0  0
   22.9762  -19.7162  -17.6564 C   0  0  0  0  0  0  0  0  0  0  0  0
   21.9299  -19.5470  -16.7429 C   0  0  0  0  0  0  0  0  0  0  0  0
   21.2745  -21.0385  -12.7621 C   0  0  0  0  0  0  0  0  0  0  0  0
   20.0811  -20.3940  -12.4822 O   0  0  0  0  0  0  0  0  0  0  0  0
   21.2686  -22.2928  -12.7909 O   0  0  0  0  0  0  0  0  0  0  0  0
  2  1  1  1
  2  3  1  0
  4  2  1  0
  4  5  1  6
  6  4  1  0
  7  6  2  0
  9  8  1  0
  9 10  1  0
 10 11  1  0
 12 11  1  1
 12 13  1  0
 13  6  1  0
 14 12  1  0
 14 15  2  0
 16 14  1  0
 17 16  1  0
 18 19  1  0
 17 18  1  6
 19 20  2  0
 21 20  1  0
 22 21  1  0
 23 22  2  0
 24 23  1  0
 25 24  2  0
 25 26  1  0
 26 27  2  0
 27 22  1  0
 27 19  1  0
 28 17  1  0
 29 28  1  0
 30 28  2  0
M  END
$$$$
