TMW.pdb
     RDKit          3D

 30 31  0  0  1  0  0  0  0  0999 V2000
   27.8392  -23.9530  -17.6332 C   0  0  0  0  0  0  0  0  0  0  0  0
   26.9546  -22.8861  -17.0169 C   0  0  1  0  0  0  0  0  0  0  0  0
   26.5344  -23.1585  -15.7571 O   0  0  0  0  0  0  0  0  0  0  0  0
   27.6060  -21.5146  -17.1559 C   0  0  2  0  0  0  0  0  0  0  0  0
   28.8704  -21.6449  -16.4220 N   0  0  0  0  0  0  0  0  0  0  0  0
   26.7934  -20.4237  -16.5916 C   0  0  0  0  0  0  0  0  0  0  0  0
   27.1144  -19.8193  -15.5245 O   0  0  0  0  0  0  0  0  0  0  0  0
   25.2699  -15.0645  -20.3829 C   0  0  0  0  0  0  0  0  0  0  0  0
   24.1791  -16.3974  -19.8042 S   0  0  0  0  0  0  0  0  0  0  0  0
   25.0049  -17.1851  -18.3636 C   0  0  0  0  0  0  0  0  0  0  0  0
   24.1050  -18.2833  -17.8791 C   0  0  0  0  0  0  0  0  0  0  0  0
   24.6913  -19.0097  -16.6649 C   0  0  2  0  0  0  0  0  0  0  0  0
   25.5926  -19.9930  -17.2295 N   0  0  0  0  0  0  0  0  0  0  0  0
   23.6230  -19.5611  -15.8384 C   0  0  0  0  0  0  0  0  0  0  0  0
   23.1016  -20.6844  -16.1261 O   0  0  0  0  0  0  0  0  0  0  0  0
   23.0909  -18.9374  -14.6943 N   0  0  0  0  0  0  0  0  0  0  0  0
   21.9592  -19.5204  -13.9393 C   0  0  1  0  0  0  0  0  0  0  0  0
   21.8617  -18.7863  -12.6270 C   0  0  0  0  0  0  0  0  0  0  0  0
   20.7790  -19.2428  -11.7536 C   0  0  0  0  0  0  0  0  0  0  0  0
   20.8594  -20.1632  -10.7031 C   0  0  0  0  0  0  0  0  0  0  0  0
   19.6317  -20.3488  -10.1905 N   0  0  0  0  0  0  0  0  0  0  0  0
   18.7189  -19.6033  -10.8329 C   0  0  0  0  0  0  0  0  0  0  0  0
   17.3437  -19.4125  -10.6834 C   0  0  0  0  0  0  0  0  0  0  0  0
   16.7063  -18.5323  -11.5145 C   0  0  0  0  0  0  0  0  0  0  0  0
   17.3722  -17.8278  -12.4923 C   0  0  0  0  0  0  0  0  0  0  0  0
   18.7131  -18.0245  -12.6274 C   0  0  0  0  0  0  0  0  0  0  0  0
   19.4263  -18.9091  -11.8109 C   0  0  0  0  0  0  0  0  0  0  0  0
   20.7796  -19.4766  -14.7702 C   0  0  0  0  0  0  0  0  0  0  0  0
   19.8566  -20.5090  -14.7545 O   0  0  0  0  0  0  0  0  0  0  0  0
   20.5566  -18.5049  -15.5319 O   0  0  0  0  0  0  0  0  0  0  0  0
  2  1  1  1
  2  3  1  0
  4  2  1  0
  4  5  1  1
  6  4  1  0
  7  6  2  0
  9  8  1  0
  9 10  1  0
 10 11  1  0
 12 11  1  6
 12 13  1  0
 13  6  1  0
 14 12  1  0
 14 15  2  0
 16 14  1  0
 17 16  1  0
 18 19  1  0
 17 18  1  1
 19 20  2  0
 21 20  1  0
 22 21  1  0
 23 22  2  0
 24 23  1  0
 25 24  2  0
 25 26  1  0
 26 27  2  0
 27 22  1  0
 27 19  1  0
 28 17  1  0
 29 28  1  0
 30 28  2  0
M  END
$$$$
