TMW.pdb
     RDKit          3D

 30 31  0  0  1  0  0  0  0  0999 V2000
   20.0624  -25.6789  -12.5661 C   0  0  0  0  0  0  0  0  0  0  0  0
   19.5577  -26.4196  -11.3425 C   0  0  1  0  0  0  0  0  0  0  0  0
   18.6351  -25.7447  -10.6136 O   0  0  0  0  0  0  0  0  0  0  0  0
   19.1180  -27.8292  -11.7224 C   0  0  2  0  0  0  0  0  0  0  0  0
   17.8961  -27.6214  -12.5085 N   0  0  0  0  0  0  0  0  0  0  0  0
   18.8411  -28.6869  -10.5578 C   0  0  0  0  0  0  0  0  0  0  0  0
   17.7018  -28.7334  -10.0037 O   0  0  0  0  0  0  0  0  0  0  0  0
   22.7028  -33.6377   -5.7210 C   0  0  0  0  0  0  0  0  0  0  0  0
   22.6430  -32.7268   -7.2919 S   0  0  0  0  0  0  0  0  0  0  0  0
   21.0254  -31.8565   -7.3513 C   0  0  0  0  0  0  0  0  0  0  0  0
   21.0104  -31.0271   -8.6013 C   0  0  0  0  0  0  0  0  0  0  0  0
   19.6780  -30.2951   -8.7865 C   0  0  2  0  0  0  0  0  0  0  0  0
   19.8565  -29.5147   -9.9937 N   0  0  0  0  0  0  0  0  0  0  0  0
   19.3566  -29.5162   -7.5956 C   0  0  0  0  0  0  0  0  0  0  0  0
   20.0974  -28.5450   -7.2427 O   0  0  0  0  0  0  0  0  0  0  0  0
   18.2474  -29.7482   -6.7608 N   0  0  0  0  0  0  0  0  0  0  0  0
   17.9833  -28.9219   -5.5615 C   0  0  1  0  0  0  0  0  0  0  0  0
   16.5296  -28.5267   -5.5925 C   0  0  0  0  0  0  0  0  0  0  0  0
   16.0992  -27.7019   -4.4622 C   0  0  0  0  0  0  0  0  0  0  0  0
   16.5604  -26.4292   -4.1088 C   0  0  0  0  0  0  0  0  0  0  0  0
   15.9509  -26.0432   -2.9756 N   0  0  0  0  0  0  0  0  0  0  0  0
   15.0975  -26.9824   -2.5384 C   0  0  0  0  0  0  0  0  0  0  0  0
   14.2225  -27.0681   -1.4534 C   0  0  0  0  0  0  0  0  0  0  0  0
   13.4530  -28.1908   -1.3144 C   0  0  0  0  0  0  0  0  0  0  0  0
   13.5101  -29.2385   -2.2061 C   0  0  0  0  0  0  0  0  0  0  0  0
   14.3686  -29.1417   -3.2589 C   0  0  0  0  0  0  0  0  0  0  0  0
   15.1833  -28.0221   -3.4606 C   0  0  0  0  0  0  0  0  0  0  0  0
   18.4075  -29.6563   -4.3934 C   0  0  0  0  0  0  0  0  0  0  0  0
   18.4998  -31.0380   -4.4133 O   0  0  0  0  0  0  0  0  0  0  0  0
   18.7028  -29.0662   -3.3263 O   0  0  0  0  0  0  0  0  0  0  0  0
  2  1  1  6
  2  3  1  0
  4  2  1  0
  4  5  1  6
  6  4  1  0
  7  6  2  0
  9  8  1  0
  9 10  1  0
 10 11  1  0
 12 11  1  1
 12 13  1  0
 13  6  1  0
 14 12  1  0
 14 15  2  0
 16 14  1  0
 17 16  1  0
 18 19  1  0
 17 18  1  1
 19 20  2  0
 21 20  1  0
 22 21  1  0
 23 22  2  0
 24 23  1  0
 25 24  2  0
 25 26  1  0
 26 27  2  0
 27 22  1  0
 27 19  1  0
 28 17  1  0
 29 28  1  0
 30 28  2  0
M  END
$$$$
