TMW.pdb
     RDKit          3D

 30 31  0  0  1  0  0  0  0  0999 V2000
   29.1009  -20.2860  -18.2499 C   0  0  0  0  0  0  0  0  0  0  0  0
   28.0311  -19.7496  -17.3180 C   0  0  1  0  0  0  0  0  0  0  0  0
   26.7598  -19.9313  -17.7524 O   0  0  0  0  0  0  0  0  0  0  0  0
   28.2653  -20.2547  -15.8986 C   0  0  2  0  0  0  0  0  0  0  0  0
   28.1617  -21.7139  -16.0182 N   0  0  0  0  0  0  0  0  0  0  0  0
   27.2799  -19.7466  -14.9293 C   0  0  0  0  0  0  0  0  0  0  0  0
   27.1941  -18.5182  -14.6280 O   0  0  0  0  0  0  0  0  0  0  0  0
   20.1272  -19.1238  -13.1780 C   0  0  0  0  0  0  0  0  0  0  0  0
   21.3774  -20.3538  -13.6527 S   0  0  0  0  0  0  0  0  0  0  0  0
   23.0216  -19.5550  -13.4625 C   0  0  0  0  0  0  0  0  0  0  0  0
   24.0598  -20.5875  -13.7890 C   0  0  0  0  0  0  0  0  0  0  0  0
   25.4397  -20.2028  -13.2472 C   0  0  2  0  0  0  0  0  0  0  0  0
   26.3658  -20.6263  -14.2772 N   0  0  0  0  0  0  0  0  0  0  0  0
   25.6589  -20.8101  -11.9390 C   0  0  0  0  0  0  0  0  0  0  0  0
   25.8036  -22.0685  -11.8299 O   0  0  0  0  0  0  0  0  0  0  0  0
   25.7320  -20.0988  -10.7266 N   0  0  0  0  0  0  0  0  0  0  0  0
   25.9450  -20.7804   -9.4302 C   0  0  1  0  0  0  0  0  0  0  0  0
   26.9523  -19.9738   -8.6523 C   0  0  0  0  0  0  0  0  0  0  0  0
   27.1835  -20.4444   -7.2854 C   0  0  0  0  0  0  0  0  0  0  0  0
   26.6986  -21.6145   -6.6913 C   0  0  0  0  0  0  0  0  0  0  0  0
   27.0931  -21.6481   -5.4076 N   0  0  0  0  0  0  0  0  0  0  0  0
   27.8225  -20.5656   -5.0948 C   0  0  0  0  0  0  0  0  0  0  0  0
   28.4739  -20.1369   -3.9363 C   0  0  0  0  0  0  0  0  0  0  0  0
   29.1724  -18.9610   -3.9698 C   0  0  0  0  0  0  0  0  0  0  0  0
   29.2564  -18.1858   -5.1046 C   0  0  0  0  0  0  0  0  0  0  0  0
   28.6154  -18.6156   -6.2269 C   0  0  0  0  0  0  0  0  0  0  0  0
   27.8843  -19.8081   -6.2615 C   0  0  0  0  0  0  0  0  0  0  0  0
   24.6639  -20.9660   -8.7913 C   0  0  0  0  0  0  0  0  0  0  0  0
   24.4282  -22.0536   -7.9669 O   0  0  0  0  0  0  0  0  0  0  0  0
   23.7265  -20.1503   -8.9651 O   0  0  0  0  0  0  0  0  0  0  0  0
  2  1  1  6
  2  3  1  0
  4  2  1  0
  4  5  1  6
  6  4  1  0
  7  6  2  0
  9  8  1  0
  9 10  1  0
 10 11  1  0
 12 11  1  6
 12 13  1  0
 13  6  1  0
 14 12  1  0
 14 15  2  0
 16 14  1  0
 17 16  1  0
 18 19  1  0
 17 18  1  1
 19 20  2  0
 21 20  1  0
 22 21  1  0
 23 22  2  0
 24 23  1  0
 25 24  2  0
 25 26  1  0
 26 27  2  0
 27 22  1  0
 27 19  1  0
 28 17  1  0
 29 28  1  0
 30 28  2  0
M  END
$$$$
