TMW.pdb
     RDKit          3D

 30 31  0  0  1  0  0  0  0  0999 V2000
   28.4838  -17.5119  -14.6568 C   0  0  0  0  0  0  0  0  0  0  0  0
   27.1671  -17.9689  -15.2553 C   0  0  1  0  0  0  0  0  0  0  0  0
   27.2878  -18.7648  -16.3461 O   0  0  0  0  0  0  0  0  0  0  0  0
   26.2700  -18.5567  -14.1716 C   0  0  2  0  0  0  0  0  0  0  0  0
   26.2221  -17.5109  -13.1429 N   0  0  0  0  0  0  0  0  0  0  0  0
   26.7880  -19.8131  -13.6044 C   0  0  0  0  0  0  0  0  0  0  0  0
   26.6145  -20.9354  -14.1679 O   0  0  0  0  0  0  0  0  0  0  0  0
   31.5175  -20.2622   -8.8922 C   0  0  0  0  0  0  0  0  0  0  0  0
   31.6077  -21.6435  -10.0691 S   0  0  0  0  0  0  0  0  0  0  0  0
   29.8842  -22.0442  -10.5659 C   0  0  0  0  0  0  0  0  0  0  0  0
   29.3164  -20.8249  -11.2303 C   0  0  0  0  0  0  0  0  0  0  0  0
   27.8605  -21.0319  -11.6581 C   0  0  2  0  0  0  0  0  0  0  0  0
   27.5179  -19.8233  -12.3790 N   0  0  0  0  0  0  0  0  0  0  0  0
   27.0242  -21.3097  -10.4955 C   0  0  0  0  0  0  0  0  0  0  0  0
   27.1348  -22.4121   -9.8719 O   0  0  0  0  0  0  0  0  0  0  0  0
   26.0609  -20.4274   -9.9713 N   0  0  0  0  0  0  0  0  0  0  0  0
   25.0994  -20.8479   -8.9275 C   0  0  1  0  0  0  0  0  0  0  0  0
   25.1319  -19.8109   -7.8348 C   0  0  0  0  0  0  0  0  0  0  0  0
   26.4762  -19.4310   -7.3965 C   0  0  0  0  0  0  0  0  0  0  0  0
   27.3556  -18.5362   -8.0155 C   0  0  0  0  0  0  0  0  0  0  0  0
   28.5084  -18.5100   -7.3264 N   0  0  0  0  0  0  0  0  0  0  0  0
   28.4620  -19.3366   -6.2699 C   0  0  0  0  0  0  0  0  0  0  0  0
   29.3584  -19.6545   -5.2474 C   0  0  0  0  0  0  0  0  0  0  0  0
   28.9700  -20.5444   -4.2835 C   0  0  0  0  0  0  0  0  0  0  0  0
   27.7271  -21.1371   -4.2854 C   0  0  0  0  0  0  0  0  0  0  0  0
   26.8635  -20.8184   -5.2892 C   0  0  0  0  0  0  0  0  0  0  0  0
   27.1965  -19.9162   -6.3056 C   0  0  0  0  0  0  0  0  0  0  0  0
   23.8133  -21.0651   -9.5462 C   0  0  0  0  0  0  0  0  0  0  0  0
   23.6337  -20.8730  -10.9059 O   0  0  0  0  0  0  0  0  0  0  0  0
   22.8210  -21.4316   -8.8716 O   0  0  0  0  0  0  0  0  0  0  0  0
  2  1  1  1
  2  3  1  0
  4  2  1  0
  4  5  1  1
  6  4  1  0
  7  6  2  0
  9  8  1  0
  9 10  1  0
 10 11  1  0
 12 11  1  1
 12 13  1  0
 13  6  1  0
 14 12  1  0
 14 15  2  0
 16 14  1  0
 17 16  1  0
 18 19  1  0
 17 18  1  1
 19 20  2  0
 21 20  1  0
 22 21  1  0
 23 22  2  0
 24 23  1  0
 25 24  2  0
 25 26  1  0
 26 27  2  0
 27 22  1  0
 27 19  1  0
 28 17  1  0
 29 28  1  0
 30 28  2  0
M  END
$$$$
