TMW.pdb
     RDKit          3D

 30 31  0  0  1  0  0  0  0  0999 V2000
   31.6153  -35.0346  -16.4679 C   0  0  0  0  0  0  0  0  0  0  0  0
   31.1173  -33.6901  -16.9628 C   0  0  1  0  0  0  0  0  0  0  0  0
   30.4538  -32.9567  -16.0356 O   0  0  0  0  0  0  0  0  0  0  0  0
   32.2471  -32.9268  -17.6451 C   0  0  2  0  0  0  0  0  0  0  0  0
   33.1879  -32.6352  -16.5569 N   0  0  0  0  0  0  0  0  0  0  0  0
   31.8019  -31.6793  -18.2887 C   0  0  0  0  0  0  0  0  0  0  0  0
   32.1465  -30.5354  -17.8645 O   0  0  0  0  0  0  0  0  0  0  0  0
   29.1240  -29.1924  -25.2352 C   0  0  0  0  0  0  0  0  0  0  0  0
   29.5122  -30.5774  -24.1251 S   0  0  0  0  0  0  0  0  0  0  0  0
   29.7941  -29.8679  -22.4533 C   0  0  0  0  0  0  0  0  0  0  0  0
   30.1825  -30.9993  -21.5481 C   0  0  0  0  0  0  0  0  0  0  0  0
   30.5143  -30.5130  -20.1342 C   0  0  2  0  0  0  0  0  0  0  0  0
   30.9514  -31.7029  -19.4335 N   0  0  0  0  0  0  0  0  0  0  0  0
   29.3606  -29.8434  -19.5437 C   0  0  0  0  0  0  0  0  0  0  0  0
   28.3167  -30.5044  -19.2440 O   0  0  0  0  0  0  0  0  0  0  0  0
   29.2918  -28.4670  -19.2575 N   0  0  0  0  0  0  0  0  0  0  0  0
   28.1012  -27.8572  -18.6240 C   0  0  1  0  0  0  0  0  0  0  0  0
   28.5867  -26.8011  -17.6652 C   0  0  0  0  0  0  0  0  0  0  0  0
   27.5271  -25.9786  -17.0786 C   0  0  0  0  0  0  0  0  0  0  0  0
   26.4979  -26.3921  -16.2259 C   0  0  0  0  0  0  0  0  0  0  0  0
   25.7036  -25.3420  -15.9594 N   0  0  0  0  0  0  0  0  0  0  0  0
   26.1366  -24.2346  -16.5821 C   0  0  0  0  0  0  0  0  0  0  0  0
   25.6997  -22.9088  -16.6180 C   0  0  0  0  0  0  0  0  0  0  0  0
   26.4103  -22.0004  -17.3540 C   0  0  0  0  0  0  0  0  0  0  0  0
   27.5407  -22.3466  -18.0598 C   0  0  0  0  0  0  0  0  0  0  0  0
   27.9547  -23.6434  -18.0165 C   0  0  0  0  0  0  0  0  0  0  0  0
   27.2751  -24.6226  -17.2836 C   0  0  0  0  0  0  0  0  0  0  0  0
   27.2107  -27.3976  -19.6631 C   0  0  0  0  0  0  0  0  0  0  0  0
   27.6991  -26.7599  -20.7913 O   0  0  0  0  0  0  0  0  0  0  0  0
   25.9698  -27.5598  -19.5745 O   0  0  0  0  0  0  0  0  0  0  0  0
  2  1  1  1
  2  3  1  0
  4  2  1  0
  4  5  1  1
  6  4  1  0
  7  6  2  0
  9  8  1  0
  9 10  1  0
 10 11  1  0
 12 11  1  6
 12 13  1  0
 13  6  1  0
 14 12  1  0
 14 15  2  0
 16 14  1  0
 17 16  1  0
 18 19  1  0
 17 18  1  1
 19 20  2  0
 21 20  1  0
 22 21  1  0
 23 22  2  0
 24 23  1  0
 25 24  2  0
 25 26  1  0
 26 27  2  0
 27 22  1  0
 27 19  1  0
 28 17  1  0
 29 28  1  0
 30 28  2  0
M  END
$$$$
