TMW.pdb
     RDKit          3D

 30 31  0  0  1  0  0  0  0  0999 V2000
   23.1481  -10.7958  -19.5856 C   0  0  0  0  0  0  0  0  0  0  0  0
   22.7764  -10.4969  -21.0255 C   0  0  1  0  0  0  0  0  0  0  0  0
   23.7168  -10.8479  -21.9367 O   0  0  0  0  0  0  0  0  0  0  0  0
   21.3910  -11.0509  -21.3393 C   0  0  2  0  0  0  0  0  0  0  0  0
   21.1632  -10.6689  -22.7380 N   0  0  0  0  0  0  0  0  0  0  0  0
   20.3334  -10.4984  -20.4761 C   0  0  0  0  0  0  0  0  0  0  0  0
   20.1865   -9.2524  -20.2943 O   0  0  0  0  0  0  0  0  0  0  0  0
   13.8020  -11.7454  -16.6393 C   0  0  0  0  0  0  0  0  0  0  0  0
   14.9402  -12.1294  -18.0025 S   0  0  0  0  0  0  0  0  0  0  0  0
   16.6465  -11.8616  -17.3741 C   0  0  0  0  0  0  0  0  0  0  0  0
   17.5868  -12.1110  -18.5161 C   0  0  0  0  0  0  0  0  0  0  0  0
   18.4441  -10.8815  -18.8306 C   0  0  2  0  0  0  0  0  0  0  0  0
   19.4149  -11.3525  -19.7969 N   0  0  0  0  0  0  0  0  0  0  0  0
   19.0156  -10.3340  -17.6051 C   0  0  0  0  0  0  0  0  0  0  0  0
   19.9122  -10.9747  -16.9710 O   0  0  0  0  0  0  0  0  0  0  0  0
   18.6522   -9.1010  -17.0317 N   0  0  0  0  0  0  0  0  0  0  0  0
   19.2863   -8.5958  -15.7934 C   0  0  1  0  0  0  0  0  0  0  0  0
   20.7193   -8.2632  -16.1193 C   0  0  0  0  0  0  0  0  0  0  0  0
   21.4266   -7.5268  -15.0701 C   0  0  0  0  0  0  0  0  0  0  0  0
   21.9957   -8.0416  -13.9003 C   0  0  0  0  0  0  0  0  0  0  0  0
   22.5001   -7.0278  -13.1775 N   0  0  0  0  0  0  0  0  0  0  0  0
   22.3078   -5.8501  -13.7919 C   0  0  0  0  0  0  0  0  0  0  0  0
   22.6505   -4.5308  -13.4884 C   0  0  0  0  0  0  0  0  0  0  0  0
   22.3164   -3.5427  -14.3738 C   0  0  0  0  0  0  0  0  0  0  0  0
   21.6549   -3.8027  -15.5532 C   0  0  0  0  0  0  0  0  0  0  0  0
   21.3261   -5.0939  -15.8357 C   0  0  0  0  0  0  0  0  0  0  0  0
   21.6381   -6.1518  -14.9748 C   0  0  0  0  0  0  0  0  0  0  0  0
   18.4916   -7.5051  -15.2807 C   0  0  0  0  0  0  0  0  0  0  0  0
   18.4929   -7.1936  -13.9313 O   0  0  0  0  0  0  0  0  0  0  0  0
   17.7755   -6.8093  -16.0404 O   0  0  0  0  0  0  0  0  0  0  0  0
  2  1  1  1
  2  3  1  0
  4  2  1  0
  4  5  1  6
  6  4  1  0
  7  6  2  0
  9  8  1  0
  9 10  1  0
 10 11  1  0
 12 11  1  1
 12 13  1  0
 13  6  1  0
 14 12  1  0
 14 15  2  0
 16 14  1  0
 17 16  1  0
 18 19  1  0
 17 18  1  6
 19 20  2  0
 21 20  1  0
 22 21  1  0
 23 22  2  0
 24 23  1  0
 25 24  2  0
 25 26  1  0
 26 27  2  0
 27 22  1  0
 27 19  1  0
 28 17  1  0
 29 28  1  0
 30 28  2  0
M  END
$$$$
