TMW.pdb
     RDKit          3D

 30 31  0  0  1  0  0  0  0  0999 V2000
   26.2691  -16.5601  -14.6714 C   0  0  0  0  0  0  0  0  0  0  0  0
   26.9210  -17.2092  -15.8773 C   0  0  1  0  0  0  0  0  0  0  0  0
   27.5634  -16.3484  -16.7045 O   0  0  0  0  0  0  0  0  0  0  0  0
   27.7830  -18.3887  -15.4409 C   0  0  2  0  0  0  0  0  0  0  0  0
   28.3883  -18.8685  -16.6890 N   0  0  0  0  0  0  0  0  0  0  0  0
   27.0133  -19.4654  -14.7950 C   0  0  0  0  0  0  0  0  0  0  0  0
   26.3355  -20.3075  -15.4572 O   0  0  0  0  0  0  0  0  0  0  0  0
   30.8013  -21.8807  -10.0206 C   0  0  0  0  0  0  0  0  0  0  0  0
   29.0650  -21.3873   -9.8137 S   0  0  0  0  0  0  0  0  0  0  0  0
   28.3424  -21.2330  -11.4965 C   0  0  0  0  0  0  0  0  0  0  0  0
   26.9209  -20.7825  -11.3322 C   0  0  0  0  0  0  0  0  0  0  0  0
   26.2149  -20.6123  -12.6806 C   0  0  2  0  0  0  0  0  0  0  0  0
   26.9960  -19.6103  -13.3762 N   0  0  0  0  0  0  0  0  0  0  0  0
   24.8124  -20.2648  -12.4792 C   0  0  0  0  0  0  0  0  0  0  0  0
   24.4944  -19.1502  -11.9567 O   0  0  0  0  0  0  0  0  0  0  0  0
   23.7244  -21.0864  -12.8288 N   0  0  0  0  0  0  0  0  0  0  0  0
   22.4635  -20.5292  -13.3675 C   0  0  1  0  0  0  0  0  0  0  0  0
   22.8257  -19.5607  -14.4635 C   0  0  0  0  0  0  0  0  0  0  0  0
   21.6795  -18.9487  -15.1379 C   0  0  0  0  0  0  0  0  0  0  0  0
   20.4042  -18.7145  -14.6124 C   0  0  0  0  0  0  0  0  0  0  0  0
   19.6267  -18.1868  -15.5724 N   0  0  0  0  0  0  0  0  0  0  0  0
   20.3031  -18.0463  -16.7232 C   0  0  0  0  0  0  0  0  0  0  0  0
   19.9780  -17.5402  -17.9834 C   0  0  0  0  0  0  0  0  0  0  0  0
   20.9423  -17.5183  -18.9537 C   0  0  0  0  0  0  0  0  0  0  0  0
   22.2215  -17.9769  -18.7318 C   0  0  0  0  0  0  0  0  0  0  0  0
   22.5243  -18.4686  -17.4983 C   0  0  0  0  0  0  0  0  0  0  0  0
   21.5862  -18.5196  -16.4614 C   0  0  0  0  0  0  0  0  0  0  0  0
   21.6056  -21.6230  -13.7570 C   0  0  0  0  0  0  0  0  0  0  0  0
   20.2462  -21.5924  -13.4944 O   0  0  0  0  0  0  0  0  0  0  0  0
   22.0654  -22.6333  -14.3419 O   0  0  0  0  0  0  0  0  0  0  0  0
  2  1  1  1
  2  3  1  0
  4  2  1  0
  4  5  1  6
  6  4  1  0
  7  6  2  0
  9  8  1  0
  9 10  1  0
 10 11  1  0
 12 11  1  1
 12 13  1  0
 13  6  1  0
 14 12  1  0
 14 15  2  0
 16 14  1  0
 17 16  1  0
 18 19  1  0
 17 18  1  6
 19 20  2  0
 21 20  1  0
 22 21  1  0
 23 22  2  0
 24 23  1  0
 25 24  2  0
 25 26  1  0
 26 27  2  0
 27 22  1  0
 27 19  1  0
 28 17  1  0
 29 28  1  0
 30 28  2  0
M  END
$$$$
