TMW.pdb
     RDKit          3D

 30 31  0  0  1  0  0  0  0  0999 V2000
   14.4219   -5.0215  -13.2477 C   0  0  0  0  0  0  0  0  0  0  0  0
   15.4112   -5.3874  -14.3377 C   0  0  1  0  0  0  0  0  0  0  0  0
   15.1357   -6.5458  -14.9858 O   0  0  0  0  0  0  0  0  0  0  0  0
   15.6262   -4.2041  -15.2749 C   0  0  2  0  0  0  0  0  0  0  0  0
   14.3185   -4.0135  -15.9135 N   0  0  0  0  0  0  0  0  0  0  0  0
   16.6645   -4.4465  -16.2907 C   0  0  0  0  0  0  0  0  0  0  0  0
   16.4552   -5.1553  -17.3206 O   0  0  0  0  0  0  0  0  0  0  0  0
   20.5800   -0.8873  -21.4094 C   0  0  0  0  0  0  0  0  0  0  0  0
   19.3973   -1.0028  -20.0350 S   0  0  0  0  0  0  0  0  0  0  0  0
   19.7708   -2.5578  -19.1293 C   0  0  0  0  0  0  0  0  0  0  0  0
   18.7726   -2.6765  -18.0158 C   0  0  0  0  0  0  0  0  0  0  0  0
   18.9803   -3.9524  -17.1945 C   0  0  2  0  0  0  0  0  0  0  0  0
   17.9698   -3.8868  -16.1588 N   0  0  0  0  0  0  0  0  0  0  0  0
   20.3534   -4.0246  -16.7070 C   0  0  0  0  0  0  0  0  0  0  0  0
   20.8268   -3.0972  -15.9775 O   0  0  0  0  0  0  0  0  0  0  0  0
   21.2467   -5.0777  -16.9791 N   0  0  0  0  0  0  0  0  0  0  0  0
   22.6551   -5.0472  -16.5250 C   0  0  1  0  0  0  0  0  0  0  0  0
   22.8197   -6.1211  -15.4809 C   0  0  0  0  0  0  0  0  0  0  0  0
   24.0752   -6.8689  -15.5702 C   0  0  0  0  0  0  0  0  0  0  0  0
   25.3271   -6.3915  -15.9730 C   0  0  0  0  0  0  0  0  0  0  0  0
   26.2042   -7.4090  -15.9686 N   0  0  0  0  0  0  0  0  0  0  0  0
   25.6191   -8.5535  -15.5824 C   0  0  0  0  0  0  0  0  0  0  0  0
   26.0758   -9.8590  -15.3893 C   0  0  0  0  0  0  0  0  0  0  0  0
   25.1934  -10.8077  -14.9497 C   0  0  0  0  0  0  0  0  0  0  0  0
   23.8718  -10.5212  -14.6906 C   0  0  0  0  0  0  0  0  0  0  0  0
   23.4400   -9.2441  -14.8841 C   0  0  0  0  0  0  0  0  0  0  0  0
   24.2892   -8.2259  -15.3314 C   0  0  0  0  0  0  0  0  0  0  0  0
   23.5142   -5.1598  -17.6796 C   0  0  0  0  0  0  0  0  0  0  0  0
   24.6903   -4.4340  -17.7678 O   0  0  0  0  0  0  0  0  0  0  0  0
   23.2204   -5.9154  -18.6372 O   0  0  0  0  0  0  0  0  0  0  0  0
  2  1  1  1
  2  3  1  0
  4  2  1  0
  4  5  1  6
  6  4  1  0
  7  6  2  0
  9  8  1  0
  9 10  1  0
 10 11  1  0
 12 11  1  6
 12 13  1  0
 13  6  1  0
 14 12  1  0
 14 15  2  0
 16 14  1  0
 17 16  1  0
 18 19  1  0
 17 18  1  1
 19 20  2  0
 21 20  1  0
 22 21  1  0
 23 22  2  0
 24 23  1  0
 25 24  2  0
 25 26  1  0
 26 27  2  0
 27 22  1  0
 27 19  1  0
 28 17  1  0
 29 28  1  0
 30 28  2  0
M  END
$$$$
