TMW.pdb
     RDKit          3D

 30 31  0  0  1  0  0  0  0  0999 V2000
   26.0756  -18.2933  -13.9004 C   0  0  0  0  0  0  0  0  0  0  0  0
   26.6949  -18.8343  -15.1749 C   0  0  1  0  0  0  0  0  0  0  0  0
   26.6964  -17.9657  -16.2158 O   0  0  0  0  0  0  0  0  0  0  0  0
   28.0660  -19.4337  -14.8829 C   0  0  2  0  0  0  0  0  0  0  0  0
   28.5157  -19.9447  -16.1833 N   0  0  0  0  0  0  0  0  0  0  0  0
   28.0275  -20.5195  -13.8887 C   0  0  0  0  0  0  0  0  0  0  0  0
   27.6110  -21.6834  -14.1694 O   0  0  0  0  0  0  0  0  0  0  0  0
   32.3106  -23.1637   -9.5557 C   0  0  0  0  0  0  0  0  0  0  0  0
   32.2887  -21.6149  -10.5054 S   0  0  0  0  0  0  0  0  0  0  0  0
   30.7896  -21.6532  -11.5680 C   0  0  0  0  0  0  0  0  0  0  0  0
   29.6288  -21.2292  -10.7175 C   0  0  0  0  0  0  0  0  0  0  0  0
   28.3059  -21.2815  -11.4875 C   0  0  2  0  0  0  0  0  0  0  0  0
   28.4631  -20.3067  -12.5472 N   0  0  0  0  0  0  0  0  0  0  0  0
   27.1846  -21.0329  -10.5879 C   0  0  0  0  0  0  0  0  0  0  0  0
   26.8511  -19.8431  -10.2889 O   0  0  0  0  0  0  0  0  0  0  0  0
   26.3964  -22.0357   -9.9927 N   0  0  0  0  0  0  0  0  0  0  0  0
   25.2687  -21.7129   -9.0901 C   0  0  1  0  0  0  0  0  0  0  0  0
   25.8055  -21.6882   -7.6824 C   0  0  0  0  0  0  0  0  0  0  0  0
   26.4458  -20.4290   -7.2976 C   0  0  0  0  0  0  0  0  0  0  0  0
   26.3893  -19.2022   -7.9676 C   0  0  0  0  0  0  0  0  0  0  0  0
   27.1584  -18.3137   -7.3168 N   0  0  0  0  0  0  0  0  0  0  0  0
   27.7344  -18.8673   -6.2382 C   0  0  0  0  0  0  0  0  0  0  0  0
   28.5812  -18.3869   -5.2372 C   0  0  0  0  0  0  0  0  0  0  0  0
   28.9699  -19.2374   -4.2385 C   0  0  0  0  0  0  0  0  0  0  0  0
   28.5557  -20.5495   -4.1850 C   0  0  0  0  0  0  0  0  0  0  0  0
   27.7307  -21.0047   -5.1684 C   0  0  0  0  0  0  0  0  0  0  0  0
   27.2950  -20.1885   -6.2181 C   0  0  0  0  0  0  0  0  0  0  0  0
   24.6492  -20.4910   -9.5454 C   0  0  0  0  0  0  0  0  0  0  0  0
   25.0985  -19.8444  -10.6846 O   0  0  0  0  0  0  0  0  0  0  0  0
   23.6885  -19.9780   -8.9225 O   0  0  0  0  0  0  0  0  0  0  0  0
  2  1  1  1
  2  3  1  0
  4  2  1  0
  4  5  1  6
  6  4  1  0
  7  6  2  0
  9  8  1  0
  9 10  1  0
 10 11  1  0
 12 11  1  1
 12 13  1  0
 13  6  1  0
 14 12  1  0
 14 15  2  0
 16 14  1  0
 17 16  1  0
 18 19  1  0
 17 18  1  1
 19 20  2  0
 21 20  1  0
 22 21  1  0
 23 22  2  0
 24 23  1  0
 25 24  2  0
 25 26  1  0
 26 27  2  0
 27 22  1  0
 27 19  1  0
 28 17  1  0
 29 28  1  0
 30 28  2  0
M  END
$$$$
