TMW.pdb
     RDKit          3D

 30 31  0  0  1  0  0  0  0  0999 V2000
   27.3838  -20.2779  -15.1667 C   0  0  0  0  0  0  0  0  0  0  0  0
   26.7766  -19.3714  -16.2204 C   0  0  1  0  0  0  0  0  0  0  0  0
   27.3664  -19.4462  -17.4387 O   0  0  0  0  0  0  0  0  0  0  0  0
   25.2636  -19.5547  -16.2666 C   0  0  2  0  0  0  0  0  0  0  0  0
   24.8064  -18.5103  -17.1909 N   0  0  0  0  0  0  0  0  0  0  0  0
   24.6174  -19.3980  -14.9526 C   0  0  0  0  0  0  0  0  0  0  0  0
   24.4043  -18.2623  -14.4312 O   0  0  0  0  0  0  0  0  0  0  0  0
   18.3216  -20.5793  -13.7930 C   0  0  0  0  0  0  0  0  0  0  0  0
   19.7491  -21.5758  -13.2728 S   0  0  0  0  0  0  0  0  0  0  0  0
   21.2339  -20.4999  -13.3970 C   0  0  0  0  0  0  0  0  0  0  0  0
   22.3990  -21.2849  -12.8711 C   0  0  0  0  0  0  0  0  0  0  0  0
   23.6847  -20.4530  -12.8452 C   0  0  2  0  0  0  0  0  0  0  0  0
   24.1968  -20.5329  -14.1977 N   0  0  0  0  0  0  0  0  0  0  0  0
   24.5913  -20.9512  -11.8165 C   0  0  0  0  0  0  0  0  0  0  0  0
   25.0664  -22.1280  -11.8927 O   0  0  0  0  0  0  0  0  0  0  0  0
   25.0127  -20.2145  -10.6937 N   0  0  0  0  0  0  0  0  0  0  0  0
   25.9240  -20.7875   -9.6779 C   0  0  1  0  0  0  0  0  0  0  0  0
   26.8503  -19.6883   -9.2261 C   0  0  0  0  0  0  0  0  0  0  0  0
   27.9978  -20.1447   -8.4398 C   0  0  0  0  0  0  0  0  0  0  0  0
   29.0278  -20.9989   -8.8480 C   0  0  0  0  0  0  0  0  0  0  0  0
   29.8545  -21.2124   -7.8110 N   0  0  0  0  0  0  0  0  0  0  0  0
   29.4456  -20.5484   -6.7185 C   0  0  0  0  0  0  0  0  0  0  0  0
   29.9456  -20.4142   -5.4216 C   0  0  0  0  0  0  0  0  0  0  0  0
   29.2762  -19.6136   -4.5368 C   0  0  0  0  0  0  0  0  0  0  0  0
   28.1279  -18.9355   -4.8795 C   0  0  0  0  0  0  0  0  0  0  0  0
   27.6512  -19.0764   -6.1475 C   0  0  0  0  0  0  0  0  0  0  0  0
   28.2866  -19.8786   -7.1018 C   0  0  0  0  0  0  0  0  0  0  0  0
   25.1299  -21.4026   -8.6410 C   0  0  0  0  0  0  0  0  0  0  0  0
   23.7615  -21.2001   -8.5749 O   0  0  0  0  0  0  0  0  0  0  0  0
   25.6550  -22.1359   -7.7688 O   0  0  0  0  0  0  0  0  0  0  0  0
  2  1  1  1
  2  3  1  0
  4  2  1  0
  4  5  1  6
  6  4  1  0
  7  6  2  0
  9  8  1  0
  9 10  1  0
 10 11  1  0
 12 11  1  6
 12 13  1  0
 13  6  1  0
 14 12  1  0
 14 15  2  0
 16 14  1  0
 17 16  1  0
 18 19  1  0
 17 18  1  1
 19 20  2  0
 21 20  1  0
 22 21  1  0
 23 22  2  0
 24 23  1  0
 25 24  2  0
 25 26  1  0
 26 27  2  0
 27 22  1  0
 27 19  1  0
 28 17  1  0
 29 28  1  0
 30 28  2  0
M  END
$$$$
