TMW.pdb
     RDKit          3D

 30 31  0  0  1  0  0  0  0  0999 V2000
   24.5772  -24.2533  -16.8684 C   0  0  0  0  0  0  0  0  0  0  0  0
   25.7298  -25.0778  -17.4090 C   0  0  1  0  0  0  0  0  0  0  0  0
   25.4307  -25.8175  -18.5050 O   0  0  0  0  0  0  0  0  0  0  0  0
   26.9669  -24.2042  -17.5858 C   0  0  2  0  0  0  0  0  0  0  0  0
   28.0325  -25.1583  -17.9152 N   0  0  0  0  0  0  0  0  0  0  0  0
   27.3170  -23.4385  -16.3776 C   0  0  0  0  0  0  0  0  0  0  0  0
   27.9536  -23.9516  -15.4087 O   0  0  0  0  0  0  0  0  0  0  0  0
   28.4267  -17.5035  -16.7399 C   0  0  0  0  0  0  0  0  0  0  0  0
   27.7828  -17.2398  -15.0616 S   0  0  0  0  0  0  0  0  0  0  0  0
   27.4157  -18.8968  -14.3564 C   0  0  0  0  0  0  0  0  0  0  0  0
   27.3252  -19.8597  -15.5032 C   0  0  0  0  0  0  0  0  0  0  0  0
   27.1355  -21.3024  -15.0256 C   0  0  2  0  0  0  0  0  0  0  0  0
   26.9502  -22.0669  -16.2418 N   0  0  0  0  0  0  0  0  0  0  0  0
   26.0296  -21.3821  -14.0774 C   0  0  0  0  0  0  0  0  0  0  0  0
   25.0133  -20.6298  -14.2097 O   0  0  0  0  0  0  0  0  0  0  0  0
   25.9778  -22.2588  -12.9775 N   0  0  0  0  0  0  0  0  0  0  0  0
   25.6512  -21.7858  -11.6136 C   0  0  1  0  0  0  0  0  0  0  0  0
   26.9455  -21.4069  -10.9415 C   0  0  0  0  0  0  0  0  0  0  0  0
   26.7864  -20.7285   -9.6539 C   0  0  0  0  0  0  0  0  0  0  0  0
   25.6176  -20.1785   -9.1166 C   0  0  0  0  0  0  0  0  0  0  0  0
   25.9086  -19.5991   -7.9402 N   0  0  0  0  0  0  0  0  0  0  0  0
   27.2118  -19.7262   -7.6449 C   0  0  0  0  0  0  0  0  0  0  0  0
   28.0031  -19.3367   -6.5622 C   0  0  0  0  0  0  0  0  0  0  0  0
   29.3326  -19.6598   -6.5677 C   0  0  0  0  0  0  0  0  0  0  0  0
   29.9177  -20.3553   -7.6021 C   0  0  0  0  0  0  0  0  0  0  0  0
   29.1341  -20.7278   -8.6519 C   0  0  0  0  0  0  0  0  0  0  0  0
   27.7681  -20.4303   -8.7095 C   0  0  0  0  0  0  0  0  0  0  0  0
   24.6668  -20.7347  -11.7138 C   0  0  0  0  0  0  0  0  0  0  0  0
   23.3979  -20.8919  -11.1817 O   0  0  0  0  0  0  0  0  0  0  0  0
   24.9300  -19.6500  -12.2869 O   0  0  0  0  0  0  0  0  0  0  0  0
  2  1  1  6
  2  3  1  0
  4  2  1  0
  4  5  1  1
  6  4  1  0
  7  6  2  0
  9  8  1  0
  9 10  1  0
 10 11  1  0
 12 11  1  6
 12 13  1  0
 13  6  1  0
 14 12  1  0
 14 15  2  0
 16 14  1  0
 17 16  1  0
 18 19  1  0
 17 18  1  6
 19 20  2  0
 21 20  1  0
 22 21  1  0
 23 22  2  0
 24 23  1  0
 25 24  2  0
 25 26  1  0
 26 27  2  0
 27 22  1  0
 27 19  1  0
 28 17  1  0
 29 28  1  0
 30 28  2  0
M  END
$$$$
