TMW.pdb
     RDKit          3D

 30 31  0  0  1  0  0  0  0  0999 V2000
   27.3687  -16.3737  -14.3071 C   0  0  0  0  0  0  0  0  0  0  0  0
   27.2887  -17.7929  -13.7780 C   0  0  1  0  0  0  0  0  0  0  0  0
   26.0657  -18.3680  -13.8845 O   0  0  0  0  0  0  0  0  0  0  0  0
   28.4110  -18.6404  -14.3671 C   0  0  2  0  0  0  0  0  0  0  0  0
   28.1267  -18.6567  -15.8069 N   0  0  0  0  0  0  0  0  0  0  0  0
   28.4463  -20.0126  -13.8339 C   0  0  0  0  0  0  0  0  0  0  0  0
   28.0070  -21.0067  -14.4865 O   0  0  0  0  0  0  0  0  0  0  0  0
   34.2133  -22.8982  -11.0815 C   0  0  0  0  0  0  0  0  0  0  0  0
   32.7620  -22.0719  -10.3660 S   0  0  0  0  0  0  0  0  0  0  0  0
   31.3867  -22.2545  -11.5714 C   0  0  0  0  0  0  0  0  0  0  0  0
   30.1824  -21.5839  -10.9793 C   0  0  0  0  0  0  0  0  0  0  0  0
   28.9874  -21.6041  -11.9369 C   0  0  2  0  0  0  0  0  0  0  0  0
   28.9835  -20.2879  -12.5415 N   0  0  0  0  0  0  0  0  0  0  0  0
   27.7664  -21.9517  -11.2181 C   0  0  0  0  0  0  0  0  0  0  0  0
   27.6217  -23.1120  -10.7191 O   0  0  0  0  0  0  0  0  0  0  0  0
   26.6810  -21.0794  -11.0123 N   0  0  0  0  0  0  0  0  0  0  0  0
   26.0702  -20.8906   -9.6774 C   0  0  1  0  0  0  0  0  0  0  0  0
   27.1675  -20.4832   -8.7285 C   0  0  0  0  0  0  0  0  0  0  0  0
   26.7265  -20.2521   -7.3518 C   0  0  0  0  0  0  0  0  0  0  0  0
   25.4253  -20.3397   -6.8454 C   0  0  0  0  0  0  0  0  0  0  0  0
   25.4386  -19.9975   -5.5465 N   0  0  0  0  0  0  0  0  0  0  0  0
   26.6783  -19.6835   -5.1390 C   0  0  0  0  0  0  0  0  0  0  0  0
   27.2278  -19.2964   -3.9150 C   0  0  0  0  0  0  0  0  0  0  0  0
   28.5756  -19.0740   -3.8386 C   0  0  0  0  0  0  0  0  0  0  0  0
   29.4093  -19.2188   -4.9249 C   0  0  0  0  0  0  0  0  0  0  0  0
   28.8595  -19.5960   -6.1125 C   0  0  0  0  0  0  0  0  0  0  0  0
   27.4896  -19.8397   -6.2599 C   0  0  0  0  0  0  0  0  0  0  0  0
   24.9721  -19.9616   -9.8003 C   0  0  0  0  0  0  0  0  0  0  0  0
   23.8112  -20.1270   -9.0635 O   0  0  0  0  0  0  0  0  0  0  0  0
   25.0354  -18.9796  -10.5787 O   0  0  0  0  0  0  0  0  0  0  0  0
  2  1  1  6
  2  3  1  0
  4  2  1  0
  4  5  1  6
  6  4  1  0
  7  6  2  0
  9  8  1  0
  9 10  1  0
 10 11  1  0
 12 11  1  1
 12 13  1  0
 13  6  1  0
 14 12  1  0
 14 15  2  0
 16 14  1  0
 17 16  1  0
 18 19  1  0
 17 18  1  1
 19 20  2  0
 21 20  1  0
 22 21  1  0
 23 22  2  0
 24 23  1  0
 25 24  2  0
 25 26  1  0
 26 27  2  0
 27 22  1  0
 27 19  1  0
 28 17  1  0
 29 28  1  0
 30 28  2  0
M  END
$$$$
