TMW.pdb
     RDKit          3D

 30 31  0  0  1  0  0  0  0  0999 V2000
   28.5683  -23.4378  -17.1004 C   0  0  0  0  0  0  0  0  0  0  0  0
   27.9775  -22.7041  -15.9116 C   0  0  1  0  0  0  0  0  0  0  0  0
   28.8441  -22.4910  -14.8910 O   0  0  0  0  0  0  0  0  0  0  0  0
   27.2617  -21.4396  -16.3737 C   0  0  2  0  0  0  0  0  0  0  0  0
   28.2938  -20.6920  -17.1017 N   0  0  0  0  0  0  0  0  0  0  0  0
   26.7288  -20.6328  -15.2629 C   0  0  0  0  0  0  0  0  0  0  0  0
   27.3999  -19.7100  -14.7104 O   0  0  0  0  0  0  0  0  0  0  0  0
   20.5717  -19.0464  -13.7281 C   0  0  0  0  0  0  0  0  0  0  0  0
   21.3234  -18.8958  -15.3753 S   0  0  0  0  0  0  0  0  0  0  0  0
   23.1398  -19.0735  -15.1593 C   0  0  0  0  0  0  0  0  0  0  0  0
   23.3629  -19.9851  -13.9890 C   0  0  0  0  0  0  0  0  0  0  0  0
   24.8488  -20.1187  -13.6427 C   0  0  2  0  0  0  0  0  0  0  0  0
   25.4160  -20.8569  -14.7524 N   0  0  0  0  0  0  0  0  0  0  0  0
   25.0114  -20.7521  -12.3386 C   0  0  0  0  0  0  0  0  0  0  0  0
   24.9802  -22.0185  -12.2301 O   0  0  0  0  0  0  0  0  0  0  0  0
   25.2124  -20.0594  -11.1300 N   0  0  0  0  0  0  0  0  0  0  0  0
   25.4155  -20.7671   -9.8460 C   0  0  1  0  0  0  0  0  0  0  0  0
   26.5850  -20.1203   -9.1501 C   0  0  0  0  0  0  0  0  0  0  0  0
   26.7920  -20.5625   -7.7699 C   0  0  0  0  0  0  0  0  0  0  0  0
   26.2888  -21.7154   -7.1576 C   0  0  0  0  0  0  0  0  0  0  0  0
   26.6640  -21.7237   -5.8678 N   0  0  0  0  0  0  0  0  0  0  0  0
   27.3977  -20.6405   -5.5679 C   0  0  0  0  0  0  0  0  0  0  0  0
   28.0353  -20.1916   -4.4095 C   0  0  0  0  0  0  0  0  0  0  0  0
   28.7439  -19.0223   -4.4583 C   0  0  0  0  0  0  0  0  0  0  0  0
   28.8511  -18.2729   -5.6084 C   0  0  0  0  0  0  0  0  0  0  0  0
   28.2233  -18.7222   -6.7304 C   0  0  0  0  0  0  0  0  0  0  0  0
   27.4829  -19.9094   -6.7499 C   0  0  0  0  0  0  0  0  0  0  0  0
   24.1708  -20.7614   -9.1148 C   0  0  0  0  0  0  0  0  0  0  0  0
   23.8740  -21.7606   -8.2029 O   0  0  0  0  0  0  0  0  0  0  0  0
   23.3211  -19.8541   -9.2849 O   0  0  0  0  0  0  0  0  0  0  0  0
  2  1  1  6
  2  3  1  0
  4  2  1  0
  4  5  1  1
  6  4  1  0
  7  6  2  0
  9  8  1  0
  9 10  1  0
 10 11  1  0
 12 11  1  6
 12 13  1  0
 13  6  1  0
 14 12  1  0
 14 15  2  0
 16 14  1  0
 17 16  1  0
 18 19  1  0
 17 18  1  1
 19 20  2  0
 21 20  1  0
 22 21  1  0
 23 22  2  0
 24 23  1  0
 25 24  2  0
 25 26  1  0
 26 27  2  0
 27 22  1  0
 27 19  1  0
 28 17  1  0
 29 28  1  0
 30 28  2  0
M  END
$$$$
