VYV.pdb
     RDKit          3D

 27 27  0  0  1  0  0  0  0  0999 V2000
    7.7893  -12.8440   20.2833 C   0  0  0  0  0  0  0  0  0  0  0  0
    7.4589  -13.8845   19.2646 C   0  0  1  0  0  0  0  0  0  0  0  0
    8.0910  -13.4544   17.9392 C   0  0  0  0  0  0  0  0  0  0  0  0
    8.0554  -15.2332   19.5997 C   0  0  2  0  0  0  0  0  0  0  0  0
    7.7824  -16.1785   18.5700 N   0  0  0  0  0  0  0  0  0  0  0  0
    7.5779  -15.7416   20.9062 C   0  0  0  0  0  0  0  0  0  0  0  0
    6.6733  -16.6122   21.0123 O   0  0  0  0  0  0  0  0  0  0  0  0
    7.5341  -19.7010   28.4531 O   0  0  0  0  0  0  0  0  0  0  0  0
    7.7616  -19.0753   27.2377 C   0  0  0  0  0  0  0  0  0  0  0  0
    6.7224  -18.6336   26.4614 C   0  0  0  0  0  0  0  0  0  0  0  0
    6.9199  -18.0105   25.2530 C   0  0  0  0  0  0  0  0  0  0  0  0
    8.1900  -17.8143   24.7903 C   0  0  0  0  0  0  0  0  0  0  0  0
    8.4539  -17.1538   23.5057 C   0  0  0  0  0  0  0  0  0  0  0  0
    7.8343  -15.7724   23.4112 C   0  0  2  0  0  0  0  0  0  0  0  0
    8.1546  -15.2358   22.1022 N   0  0  0  0  0  0  0  0  0  0  0  0
    8.4699  -14.9408   24.4629 C   0  0  0  0  0  0  0  0  0  0  0  0
    9.7141  -14.7729   24.5380 O   0  0  0  0  0  0  0  0  0  0  0  0
    9.2481  -18.2564   25.5661 C   0  0  0  0  0  0  0  0  0  0  0  0
    9.0425  -18.8758   26.7677 C   0  0  0  0  0  0  0  0  0  0  0  0
    6.6854  -11.5724   25.4674 C   0  0  0  0  0  0  0  0  0  0  0  0
    7.0953  -12.2941   26.7181 C   0  0  1  0  0  0  0  0  0  0  0  0
    5.8787  -12.9040   27.3379 C   0  0  0  0  0  0  0  0  0  0  0  0
    8.1508  -13.3215   26.3747 C   0  0  2  0  0  0  0  0  0  0  0  0
    7.6516  -14.3021   25.4316 N   0  0  0  0  0  0  0  0  0  0  0  0
    8.6804  -13.9841   27.5845 C   0  0  0  0  0  0  0  0  0  0  0  0
    8.5390  -15.3426   27.8157 O   0  0  0  0  0  0  0  0  0  0  0  0
    9.2805  -13.2959   28.4362 O   0  0  0  0  0  0  0  0  0  0  0  0
  2  1  1  1
  2  3  1  0
  4  2  1  0
  4  5  1  6
  6  4  1  0
  6 15  1  0
  7  6  2  0
  9 19  2  0
  9  8  1  0
 10  9  1  0
 11 12  1  0
 11 10  2  0
 12 18  2  0
 13 12  1  0
 14 13  1  6
 14 15  1  0
 16 17  2  0
 16 14  1  0
 18 19  1  0
 21 20  1  6
 21 23  1  0
 22 21  1  0
 23 25  1  0
 23 24  1  6
 24 16  1  0
 25 26  1  0
 27 25  2  0
M  END
$$$$
