VYV.pdb
     RDKit          3D

 27 27  0  0  1  0  0  0  0  0999 V2000
    6.1835  -17.3219   21.0532 C   0  0  0  0  0  0  0  0  0  0  0  0
    6.8554  -16.4689   20.0283 C   0  0  1  0  0  0  0  0  0  0  0  0
    5.9341  -16.3952   18.8088 C   0  0  0  0  0  0  0  0  0  0  0  0
    7.0504  -15.0446   20.4977 C   0  0  2  0  0  0  0  0  0  0  0  0
    7.4604  -14.2073   19.4209 N   0  0  0  0  0  0  0  0  0  0  0  0
    8.0172  -14.9568   21.6161 C   0  0  0  0  0  0  0  0  0  0  0  0
    9.2652  -14.9863   21.4456 O   0  0  0  0  0  0  0  0  0  0  0  0
   10.5690  -14.2831   30.0894 O   0  0  0  0  0  0  0  0  0  0  0  0
    9.8393  -14.3038   28.9114 C   0  0  0  0  0  0  0  0  0  0  0  0
    9.2498  -15.4562   28.4619 C   0  0  0  0  0  0  0  0  0  0  0  0
    8.5213  -15.5045   27.2981 C   0  0  0  0  0  0  0  0  0  0  0  0
    8.3669  -14.3741   26.5471 C   0  0  0  0  0  0  0  0  0  0  0  0
    7.5981  -14.3734   25.2961 C   0  0  0  0  0  0  0  0  0  0  0  0
    8.4116  -14.8307   24.1002 C   0  0  2  0  0  0  0  0  0  0  0  0
    7.5328  -14.8335   22.9461 N   0  0  0  0  0  0  0  0  0  0  0  0
    8.8641  -16.2140   24.3889 C   0  0  0  0  0  0  0  0  0  0  0  0
    8.0644  -17.1594   24.6088 O   0  0  0  0  0  0  0  0  0  0  0  0
    8.9581  -13.2036   26.9912 C   0  0  0  0  0  0  0  0  0  0  0  0
    9.6815  -13.1645   28.1509 C   0  0  0  0  0  0  0  0  0  0  0  0
   11.0483  -18.1471   22.1920 C   0  0  0  0  0  0  0  0  0  0  0  0
   11.7610  -18.2001   23.5120 C   0  0  1  0  0  0  0  0  0  0  0  0
   12.9440  -17.2872   23.4528 C   0  0  0  0  0  0  0  0  0  0  0  0
   10.7935  -17.8284   24.6134 C   0  0  2  0  0  0  0  0  0  0  0  0
   10.2552  -16.4966   24.4214 N   0  0  0  0  0  0  0  0  0  0  0  0
   11.4139  -17.9524   25.9487 C   0  0  0  0  0  0  0  0  0  0  0  0
   11.6334  -16.8629   26.7755 O   0  0  0  0  0  0  0  0  0  0  0  0
   11.7560  -19.0832   26.3528 O   0  0  0  0  0  0  0  0  0  0  0  0
  2  1  1  1
  2  3  1  0
  4  2  1  0
  4  5  1  6
  6  4  1  0
  6 15  1  0
  7  6  2  0
  9 19  2  0
  9  8  1  0
 10  9  1  0
 11 12  1  0
 11 10  2  0
 12 18  2  0
 13 12  1  0
 14 13  1  1
 14 15  1  0
 16 17  2  0
 16 14  1  0
 18 19  1  0
 21 20  1  6
 21 23  1  0
 22 21  1  0
 23 25  1  0
 23 24  1  6
 24 16  1  0
 25 26  1  0
 27 25  2  0
M  END
$$$$
