VYV.pdb
     RDKit          3D

 27 27  0  0  1  0  0  0  0  0999 V2000
   11.8599  -19.3494   22.4906 C   0  0  0  0  0  0  0  0  0  0  0  0
   12.3556  -18.5152   21.3557 C   0  0  1  0  0  0  0  0  0  0  0  0
   12.7193  -19.4602   20.2086 C   0  0  0  0  0  0  0  0  0  0  0  0
   11.2945  -17.5829   20.8154 C   0  0  2  0  0  0  0  0  0  0  0  0
   11.7131  -16.9954   19.5874 N   0  0  0  0  0  0  0  0  0  0  0  0
   10.9308  -16.5311   21.7926 C   0  0  0  0  0  0  0  0  0  0  0  0
   11.6487  -15.5179   22.0061 O   0  0  0  0  0  0  0  0  0  0  0  0
    5.6459  -11.8211   27.0724 O   0  0  0  0  0  0  0  0  0  0  0  0
    6.1737  -12.7370   26.1763 C   0  0  0  0  0  0  0  0  0  0  0  0
    6.9638  -12.3335   25.1319 C   0  0  0  0  0  0  0  0  0  0  0  0
    7.4996  -13.2201   24.2295 C   0  0  0  0  0  0  0  0  0  0  0  0
    7.2479  -14.5563   24.3599 C   0  0  0  0  0  0  0  0  0  0  0  0
    7.7969  -15.5438   23.4220 C   0  0  0  0  0  0  0  0  0  0  0  0
    9.3053  -15.6749   23.5150 C   0  0  2  0  0  0  0  0  0  0  0  0
    9.7226  -16.6546   22.5301 N   0  0  0  0  0  0  0  0  0  0  0  0
    9.6126  -16.1727   24.8786 C   0  0  0  0  0  0  0  0  0  0  0  0
    9.5675  -17.3920   25.1838 O   0  0  0  0  0  0  0  0  0  0  0  0
    6.4509  -14.9758   25.4113 C   0  0  0  0  0  0  0  0  0  0  0  0
    5.9216  -14.0865   26.3050 C   0  0  0  0  0  0  0  0  0  0  0  0
   10.5444  -14.9468   29.5859 C   0  0  0  0  0  0  0  0  0  0  0  0
   10.0276  -14.5422   28.2361 C   0  0  1  0  0  0  0  0  0  0  0  0
   10.6451  -13.2328   27.8613 C   0  0  0  0  0  0  0  0  0  0  0  0
   10.3346  -15.6371   27.2388 C   0  0  2  0  0  0  0  0  0  0  0  0
    9.9742  -15.2452   25.8909 N   0  0  0  0  0  0  0  0  0  0  0  0
    9.6770  -16.9084   27.6055 C   0  0  0  0  0  0  0  0  0  0  0  0
    8.4901  -17.3300   27.0290 O   0  0  0  0  0  0  0  0  0  0  0  0
   10.2088  -17.6359   28.4699 O   0  0  0  0  0  0  0  0  0  0  0  0
  2  1  1  1
  2  3  1  0
  4  2  1  0
  4  5  1  6
  6  4  1  0
  6 15  1  0
  7  6  2  0
  9 19  2  0
  9  8  1  0
 10  9  1  0
 11 12  1  0
 11 10  2  0
 12 18  2  0
 13 12  1  0
 14 13  1  1
 14 15  1  0
 16 17  2  0
 16 14  1  0
 18 19  1  0
 21 20  1  1
 21 23  1  0
 22 21  1  0
 23 25  1  0
 23 24  1  6
 24 16  1  0
 25 26  1  0
 27 25  2  0
M  END
$$$$
