VYV.pdb
     RDKit          3D

 27 27  0  0  1  0  0  0  0  0999 V2000
    7.8328  -12.8394   20.3492 C   0  0  0  0  0  0  0  0  0  0  0  0
    7.5630  -13.8903   19.3233 C   0  0  1  0  0  0  0  0  0  0  0  0
    8.2322  -13.4497   18.0197 C   0  0  0  0  0  0  0  0  0  0  0  0
    8.1780  -15.2238   19.6846 C   0  0  2  0  0  0  0  0  0  0  0  0
    7.9598  -16.1796   18.6514 N   0  0  0  0  0  0  0  0  0  0  0  0
    7.6693  -15.7369   20.9774 C   0  0  0  0  0  0  0  0  0  0  0  0
    6.9170  -16.7438   21.0656 O   0  0  0  0  0  0  0  0  0  0  0  0
    7.8124  -19.6033   28.4982 O   0  0  0  0  0  0  0  0  0  0  0  0
    7.9723  -18.9647   27.2788 C   0  0  0  0  0  0  0  0  0  0  0  0
    9.1773  -18.4240   26.9134 C   0  0  0  0  0  0  0  0  0  0  0  0
    9.3631  -17.7859   25.7110 C   0  0  0  0  0  0  0  0  0  0  0  0
    8.3220  -17.6755   24.8336 C   0  0  0  0  0  0  0  0  0  0  0  0
    8.4692  -17.0032   23.5365 C   0  0  0  0  0  0  0  0  0  0  0  0
    7.7903  -15.6474   23.4912 C   0  0  2  0  0  0  0  0  0  0  0  0
    8.0362  -15.0764   22.1807 N   0  0  0  0  0  0  0  0  0  0  0  0
    8.4324  -14.8075   24.5324 C   0  0  0  0  0  0  0  0  0  0  0  0
    9.6734  -14.6085   24.5759 O   0  0  0  0  0  0  0  0  0  0  0  0
    7.0997  -18.2179   25.1919 C   0  0  0  0  0  0  0  0  0  0  0  0
    6.9235  -18.8515   26.3908 C   0  0  0  0  0  0  0  0  0  0  0  0
    6.9300  -11.3838   25.5220 C   0  0  0  0  0  0  0  0  0  0  0  0
    7.1665  -12.1498   26.7910 C   0  0  1  0  0  0  0  0  0  0  0  0
    5.8507  -12.6412   27.3043 C   0  0  0  0  0  0  0  0  0  0  0  0
    8.1411  -13.2737   26.5177 C   0  0  2  0  0  0  0  0  0  0  0  0
    7.6242  -14.1968   25.5273 N   0  0  0  0  0  0  0  0  0  0  0  0
    8.5082  -13.9901   27.7566 C   0  0  0  0  0  0  0  0  0  0  0  0
    9.2689  -13.4102   28.7586 O   0  0  0  0  0  0  0  0  0  0  0  0
    8.1193  -15.1665   27.9116 O   0  0  0  0  0  0  0  0  0  0  0  0
  2  1  1  1
  2  3  1  0
  4  2  1  0
  4  5  1  6
  6  4  1  0
  6 15  1  0
  7  6  2  0
  9 19  2  0
  9  8  1  0
 10  9  1  0
 11 12  1  0
 11 10  2  0
 12 18  2  0
 13 12  1  0
 14 13  1  6
 14 15  1  0
 16 17  2  0
 16 14  1  0
 18 19  1  0
 21 20  1  6
 21 23  1  0
 22 21  1  0
 23 25  1  0
 23 24  1  6
 24 16  1  0
 25 26  1  0
 27 25  2  0
M  END
$$$$
