VYV.pdb
     RDKit          3D

 27 27  0  0  1  0  0  0  0  0999 V2000
    8.3579  -20.9340   21.8586 C   0  0  0  0  0  0  0  0  0  0  0  0
    8.8534  -20.4851   20.5234 C   0  0  1  0  0  0  0  0  0  0  0  0
    8.1603  -21.3388   19.4595 C   0  0  0  0  0  0  0  0  0  0  0  0
    8.4839  -19.0502   20.2210 C   0  0  2  0  0  0  0  0  0  0  0  0
    8.7869  -18.7228   18.8684 N   0  0  0  0  0  0  0  0  0  0  0  0
    9.1486  -18.1004   21.1427 C   0  0  0  0  0  0  0  0  0  0  0  0
   10.3520  -17.7503   21.0135 O   0  0  0  0  0  0  0  0  0  0  0  0
    7.5000  -12.2349   18.8286 O   0  0  0  0  0  0  0  0  0  0  0  0
    7.6329  -13.0363   19.9513 C   0  0  0  0  0  0  0  0  0  0  0  0
    8.7873  -13.0377   20.6896 C   0  0  0  0  0  0  0  0  0  0  0  0
    8.9454  -13.8221   21.8064 C   0  0  0  0  0  0  0  0  0  0  0  0
    7.9273  -14.6372   22.2127 C   0  0  0  0  0  0  0  0  0  0  0  0
    8.0466  -15.4942   23.3990 C   0  0  0  0  0  0  0  0  0  0  0  0
    9.0043  -16.6535   23.1988 C   0  0  2  0  0  0  0  0  0  0  0  0
    8.4110  -17.5505   22.2255 N   0  0  0  0  0  0  0  0  0  0  0  0
    9.1271  -17.3434   24.5067 C   0  0  0  0  0  0  0  0  0  0  0  0
    8.1311  -17.7558   25.1544 O   0  0  0  0  0  0  0  0  0  0  0  0
    6.7560  -14.6441   21.4746 C   0  0  0  0  0  0  0  0  0  0  0  0
    6.6072  -13.8602   20.3642 C   0  0  0  0  0  0  0  0  0  0  0  0
   12.2301  -19.7862   27.4728 C   0  0  0  0  0  0  0  0  0  0  0  0
   12.0542  -18.9336   26.2501 C   0  0  1  0  0  0  0  0  0  0  0  0
   12.3422  -19.7663   25.0418 C   0  0  0  0  0  0  0  0  0  0  0  0
   10.6544  -18.3608   26.2420 C   0  0  2  0  0  0  0  0  0  0  0  0
   10.4168  -17.5535   25.0622 N   0  0  0  0  0  0  0  0  0  0  0  0
   10.3755  -17.5858   27.4687 C   0  0  0  0  0  0  0  0  0  0  0  0
    9.9947  -18.1819   28.6597 O   0  0  0  0  0  0  0  0  0  0  0  0
   10.4862  -16.3425   27.4356 O   0  0  0  0  0  0  0  0  0  0  0  0
  2  1  1  1
  2  3  1  0
  4  2  1  0
  4  5  1  6
  6  4  1  0
  6 15  1  0
  7  6  2  0
  9 19  2  0
  9  8  1  0
 10  9  1  0
 11 12  1  0
 11 10  2  0
 12 18  2  0
 13 12  1  0
 14 13  1  1
 14 15  1  0
 16 17  2  0
 16 14  1  0
 18 19  1  0
 21 20  1  1
 21 23  1  0
 22 21  1  0
 23 25  1  0
 23 24  1  6
 24 16  1  0
 25 26  1  0
 27 25  2  0
M  END
$$$$
