VYV.pdb
     RDKit          3D

 27 27  0  0  1  0  0  0  0  0999 V2000
   10.0695  -20.4973   20.5947 C   0  0  0  0  0  0  0  0  0  0  0  0
   10.3980  -19.5921   19.4535 C   0  0  1  0  0  0  0  0  0  0  0  0
    9.9811  -20.3011   18.1633 C   0  0  0  0  0  0  0  0  0  0  0  0
    9.6161  -18.2983   19.4967 C   0  0  2  0  0  0  0  0  0  0  0  0
    9.7344  -17.5928   18.2652 N   0  0  0  0  0  0  0  0  0  0  0  0
   10.0323  -17.4364   20.6268 C   0  0  0  0  0  0  0  0  0  0  0  0
   11.2087  -17.0056   20.7616 O   0  0  0  0  0  0  0  0  0  0  0  0
    7.8252  -11.9611   18.1613 O   0  0  0  0  0  0  0  0  0  0  0  0
    7.9321  -12.7449   19.2992 C   0  0  0  0  0  0  0  0  0  0  0  0
    6.9242  -13.5949   19.6726 C   0  0  0  0  0  0  0  0  0  0  0  0
    7.0044  -14.3827   20.7953 C   0  0  0  0  0  0  0  0  0  0  0  0
    8.1203  -14.3320   21.5815 C   0  0  0  0  0  0  0  0  0  0  0  0
    8.2545  -15.1536   22.7911 C   0  0  0  0  0  0  0  0  0  0  0  0
    9.3837  -16.1624   22.7000 C   0  0  2  0  0  0  0  0  0  0  0  0
    9.0755  -17.0697   21.6111 N   0  0  0  0  0  0  0  0  0  0  0  0
    9.4021  -16.9074   23.9831 C   0  0  0  0  0  0  0  0  0  0  0  0
    8.3850  -17.4793   24.4524 O   0  0  0  0  0  0  0  0  0  0  0  0
    9.1452  -13.4768   21.2141 C   0  0  0  0  0  0  0  0  0  0  0  0
    9.0571  -12.6962   20.0949 C   0  0  0  0  0  0  0  0  0  0  0  0
   13.2295  -17.5266   25.6928 C   0  0  0  0  0  0  0  0  0  0  0  0
   12.1541  -18.5705   25.7749 C   0  0  1  0  0  0  0  0  0  0  0  0
   12.4191  -19.4363   26.9650 C   0  0  0  0  0  0  0  0  0  0  0  0
   10.8054  -17.8892   25.8395 C   0  0  2  0  0  0  0  0  0  0  0  0
   10.6116  -16.9862   24.7227 N   0  0  0  0  0  0  0  0  0  0  0  0
   10.6135  -17.1809   27.1219 C   0  0  0  0  0  0  0  0  0  0  0  0
   10.4352  -17.8455   28.3241 O   0  0  0  0  0  0  0  0  0  0  0  0
   10.6112  -15.9322   27.1275 O   0  0  0  0  0  0  0  0  0  0  0  0
  2  1  1  1
  2  3  1  0
  4  2  1  0
  4  5  1  6
  6  4  1  0
  6 15  1  0
  7  6  2  0
  9 19  2  0
  9  8  1  0
 10  9  1  0
 11 12  1  0
 11 10  2  0
 12 18  2  0
 13 12  1  0
 14 13  1  1
 14 15  1  0
 16 17  2  0
 16 14  1  0
 18 19  1  0
 21 20  1  1
 21 23  1  0
 22 21  1  0
 23 25  1  0
 23 24  1  6
 24 16  1  0
 25 26  1  0
 27 25  2  0
M  END
$$$$
