VYV.pdb
     RDKit          3D

 27 27  0  0  1  0  0  0  0  0999 V2000
    8.3833  -12.7359   20.5006 C   0  0  0  0  0  0  0  0  0  0  0  0
    7.6357  -13.6988   19.6384 C   0  0  1  0  0  0  0  0  0  0  0  0
    7.9649  -13.3697   18.1809 C   0  0  0  0  0  0  0  0  0  0  0  0
    8.0707  -15.1306   19.8573 C   0  0  2  0  0  0  0  0  0  0  0  0
    7.4362  -16.0014   18.9259 N   0  0  0  0  0  0  0  0  0  0  0  0
    7.8130  -15.5826   21.2439 C   0  0  0  0  0  0  0  0  0  0  0  0
    6.6525  -15.7636   21.6999 O   0  0  0  0  0  0  0  0  0  0  0  0
    9.4753  -19.1579   29.1127 O   0  0  0  0  0  0  0  0  0  0  0  0
    9.5714  -18.6690   27.8196 C   0  0  0  0  0  0  0  0  0  0  0  0
   10.5330  -17.7551   27.4761 C   0  0  0  0  0  0  0  0  0  0  0  0
   10.6503  -17.2544   26.2021 C   0  0  0  0  0  0  0  0  0  0  0  0
    9.7876  -17.6693   25.2278 C   0  0  0  0  0  0  0  0  0  0  0  0
    9.8713  -17.1645   23.8515 C   0  0  0  0  0  0  0  0  0  0  0  0
    8.7400  -16.2180   23.4975 C   0  0  2  0  0  0  0  0  0  0  0  0
    8.9115  -15.8274   22.1112 N   0  0  0  0  0  0  0  0  0  0  0  0
    8.8807  -15.0292   24.3743 C   0  0  0  0  0  0  0  0  0  0  0  0
    9.8598  -14.2430   24.3024 O   0  0  0  0  0  0  0  0  0  0  0  0
    8.8118  -18.5925   25.5632 C   0  0  0  0  0  0  0  0  0  0  0  0
    8.7021  -19.0858   26.8338 C   0  0  0  0  0  0  0  0  0  0  0  0
    6.6566  -11.9089   27.4516 C   0  0  0  0  0  0  0  0  0  0  0  0
    6.5894  -12.9413   26.3640 C   0  0  1  0  0  0  0  0  0  0  0  0
    6.1777  -12.2696   25.0930 C   0  0  0  0  0  0  0  0  0  0  0  0
    7.9312  -13.6299   26.2503 C   0  0  2  0  0  0  0  0  0  0  0  0
    7.8758  -14.7556   25.3392 N   0  0  0  0  0  0  0  0  0  0  0  0
    8.4404  -14.0530   27.5712 C   0  0  0  0  0  0  0  0  0  0  0  0
    8.5686  -15.3842   27.9321 O   0  0  0  0  0  0  0  0  0  0  0  0
    8.7700  -13.1786   28.3995 O   0  0  0  0  0  0  0  0  0  0  0  0
  2  1  1  1
  2  3  1  0
  4  2  1  0
  4  5  1  6
  6  4  1  0
  6 15  1  0
  7  6  2  0
  9 19  2  0
  9  8  1  0
 10  9  1  0
 11 12  1  0
 11 10  2  0
 12 18  2  0
 13 12  1  0
 14 13  1  1
 14 15  1  0
 16 17  2  0
 16 14  1  0
 18 19  1  0
 21 20  1  1
 21 23  1  0
 22 21  1  0
 23 25  1  0
 23 24  1  6
 24 16  1  0
 25 26  1  0
 27 25  2  0
M  END
$$$$
