VYV.pdb
     RDKit          3D

 27 27  0  0  1  0  0  0  0  0999 V2000
    3.5582  -18.2793   20.3063 C   0  0  0  0  0  0  0  0  0  0  0  0
    3.0094  -18.8476   21.5733 C   0  0  1  0  0  0  0  0  0  0  0  0
    2.3109  -20.1643   21.2277 C   0  0  0  0  0  0  0  0  0  0  0  0
    4.0927  -19.1925   22.5705 C   0  0  2  0  0  0  0  0  0  0  0  0
    3.5432  -19.8452   23.7109 N   0  0  0  0  0  0  0  0  0  0  0  0
    4.8672  -17.9993   22.9827 C   0  0  0  0  0  0  0  0  0  0  0  0
    4.3753  -17.0711   23.6784 O   0  0  0  0  0  0  0  0  0  0  0  0
    7.8335  -13.2641   28.1259 O   0  0  0  0  0  0  0  0  0  0  0  0
    7.8816  -14.1705   27.0788 C   0  0  0  0  0  0  0  0  0  0  0  0
    7.2701  -15.3934   27.1701 C   0  0  0  0  0  0  0  0  0  0  0  0
    7.3024  -16.3103   26.1475 C   0  0  0  0  0  0  0  0  0  0  0  0
    7.9624  -16.0120   24.9894 C   0  0  0  0  0  0  0  0  0  0  0  0
    8.0259  -16.9573   23.8676 C   0  0  0  0  0  0  0  0  0  0  0  0
    6.9970  -16.6693   22.7908 C   0  0  2  0  0  0  0  0  0  0  0  0
    6.2260  -17.8805   22.5846 N   0  0  0  0  0  0  0  0  0  0  0  0
    7.7469  -16.3361   21.5545 C   0  0  0  0  0  0  0  0  0  0  0  0
    8.3041  -17.2089   20.8408 O   0  0  0  0  0  0  0  0  0  0  0  0
    8.5841  -14.7793   24.8856 C   0  0  0  0  0  0  0  0  0  0  0  0
    8.5470  -13.8726   25.9084 C   0  0  0  0  0  0  0  0  0  0  0  0
    6.7115  -12.8835   19.5604 C   0  0  0  0  0  0  0  0  0  0  0  0
    8.1951  -13.1056   19.6105 C   0  0  1  0  0  0  0  0  0  0  0  0
    8.7805  -12.1899   20.6378 C   0  0  0  0  0  0  0  0  0  0  0  0
    8.4687  -14.5633   19.9068 C   0  0  2  0  0  0  0  0  0  0  0  0
    7.8478  -14.9793   21.1484 N   0  0  0  0  0  0  0  0  0  0  0  0
    9.9174  -14.8530   19.9258 C   0  0  0  0  0  0  0  0  0  0  0  0
   10.6747  -14.9566   18.7705 O   0  0  0  0  0  0  0  0  0  0  0  0
   10.4871  -15.0118   21.0256 O   0  0  0  0  0  0  0  0  0  0  0  0
  2  1  1  6
  2  3  1  0
  4  2  1  0
  4  5  1  1
  6  4  1  0
  6 15  1  0
  7  6  2  0
  9 19  2  0
  9  8  1  0
 10  9  1  0
 11 12  1  0
 11 10  2  0
 12 18  2  0
 13 12  1  0
 14 13  1  1
 14 15  1  0
 16 17  2  0
 16 14  1  0
 18 19  1  0
 21 20  1  1
 21 23  1  0
 22 21  1  0
 23 25  1  0
 23 24  1  1
 24 16  1  0
 25 26  1  0
 27 25  2  0
M  END
$$$$
