VYV.pdb
     RDKit          3D

 27 27  0  0  1  0  0  0  0  0999 V2000
    8.3986  -19.6535   18.9377 C   0  0  0  0  0  0  0  0  0  0  0  0
    8.7448  -18.8193   20.1268 C   0  0  1  0  0  0  0  0  0  0  0  0
   10.0266  -19.3899   20.7373 C   0  0  0  0  0  0  0  0  0  0  0  0
    9.0537  -17.3855   19.7584 C   0  0  2  0  0  0  0  0  0  0  0  0
   10.1587  -17.3189   18.8623 N   0  0  0  0  0  0  0  0  0  0  0  0
    9.3079  -16.5484   20.9535 C   0  0  0  0  0  0  0  0  0  0  0  0
   10.4650  -16.3257   21.3993 O   0  0  0  0  0  0  0  0  0  0  0  0
    7.1613  -11.5666   27.9657 O   0  0  0  0  0  0  0  0  0  0  0  0
    7.1477  -12.2680   26.7705 C   0  0  0  0  0  0  0  0  0  0  0  0
    6.3933  -13.4023   26.6219 C   0  0  0  0  0  0  0  0  0  0  0  0
    6.3617  -14.1163   25.4486 C   0  0  0  0  0  0  0  0  0  0  0  0
    7.1015  -13.6977   24.3795 C   0  0  0  0  0  0  0  0  0  0  0  0
    7.1019  -14.4254   23.1041 C   0  0  0  0  0  0  0  0  0  0  0  0
    8.3638  -15.2385   22.8861 C   0  0  2  0  0  0  0  0  0  0  0  0
    8.2095  -15.9631   21.6390 N   0  0  0  0  0  0  0  0  0  0  0  0
    8.4604  -16.1974   24.0143 C   0  0  0  0  0  0  0  0  0  0  0  0
    7.5765  -17.0601   24.2514 O   0  0  0  0  0  0  0  0  0  0  0  0
    7.8677  -12.5528   24.5178 C   0  0  0  0  0  0  0  0  0  0  0  0
    7.8934  -11.8481   25.6894 C   0  0  0  0  0  0  0  0  0  0  0  0
   10.8191  -18.6745   24.3920 C   0  0  0  0  0  0  0  0  0  0  0  0
   11.0011  -17.9711   25.7054 C   0  0  1  0  0  0  0  0  0  0  0  0
   12.2877  -17.2099   25.6651 C   0  0  0  0  0  0  0  0  0  0  0  0
    9.8057  -17.0804   25.9609 C   0  0  2  0  0  0  0  0  0  0  0  0
    9.5924  -16.1506   24.8701 N   0  0  0  0  0  0  0  0  0  0  0  0
    9.9280  -16.3589   27.2445 C   0  0  0  0  0  0  0  0  0  0  0  0
    9.9208  -17.0054   28.4696 O   0  0  0  0  0  0  0  0  0  0  0  0
   10.0429  -15.1156   27.2297 O   0  0  0  0  0  0  0  0  0  0  0  0
  2  1  1  6
  2  3  1  0
  4  2  1  0
  4  5  1  6
  6  4  1  0
  6 15  1  0
  7  6  2  0
  9 19  2  0
  9  8  1  0
 10  9  1  0
 11 12  1  0
 11 10  2  0
 12 18  2  0
 13 12  1  0
 14 13  1  1
 14 15  1  0
 16 17  2  0
 16 14  1  0
 18 19  1  0
 21 20  1  6
 21 23  1  0
 22 21  1  0
 23 25  1  0
 23 24  1  6
 24 16  1  0
 25 26  1  0
 27 25  2  0
M  END
$$$$
