VYV.pdb
     RDKit          3D

 27 27  0  0  1  0  0  0  0  0999 V2000
    6.5140  -15.5946   20.3661 C   0  0  0  0  0  0  0  0  0  0  0  0
    7.1386  -14.4394   19.6554 C   0  0  1  0  0  0  0  0  0  0  0  0
    6.1931  -14.0218   18.5273 C   0  0  0  0  0  0  0  0  0  0  0  0
    7.2954  -13.2274   20.5462 C   0  0  2  0  0  0  0  0  0  0  0  0
    7.7222  -12.0964   19.7932 N   0  0  0  0  0  0  0  0  0  0  0  0
    8.2277  -13.4812   21.6687 C   0  0  0  0  0  0  0  0  0  0  0  0
    9.4775  -13.5391   21.5203 O   0  0  0  0  0  0  0  0  0  0  0  0
   10.6244  -15.0754   30.0500 O   0  0  0  0  0  0  0  0  0  0  0  0
    9.9158  -14.7684   28.8993 C   0  0  0  0  0  0  0  0  0  0  0  0
    9.1676  -15.7168   28.2524 C   0  0  0  0  0  0  0  0  0  0  0  0
    8.4559  -15.4393   27.1104 C   0  0  0  0  0  0  0  0  0  0  0  0
    8.4814  -14.1790   26.5845 C   0  0  0  0  0  0  0  0  0  0  0  0
    7.7383  -13.8318   25.3666 C   0  0  0  0  0  0  0  0  0  0  0  0
    8.5353  -14.0695   24.0979 C   0  0  2  0  0  0  0  0  0  0  0  0
    7.7062  -13.6699   22.9768 N   0  0  0  0  0  0  0  0  0  0  0  0
    8.8081  -15.5262   24.0255 C   0  0  0  0  0  0  0  0  0  0  0  0
    7.8949  -16.3851   23.9255 O   0  0  0  0  0  0  0  0  0  0  0  0
    9.2339  -13.2123   27.2296 C   0  0  0  0  0  0  0  0  0  0  0  0
    9.9394  -13.4971   28.3658 C   0  0  0  0  0  0  0  0  0  0  0  0
   12.8058  -17.3988   23.0940 C   0  0  0  0  0  0  0  0  0  0  0  0
   11.3651  -17.6660   22.7683 C   0  0  1  0  0  0  0  0  0  0  0  0
   11.2369  -19.0785   22.2943 C   0  0  0  0  0  0  0  0  0  0  0  0
   10.5197  -17.3831   23.9901 C   0  0  2  0  0  0  0  0  0  0  0  0
   10.1515  -15.9837   24.0697 N   0  0  0  0  0  0  0  0  0  0  0  0
   11.1938  -17.8162   25.2315 C   0  0  0  0  0  0  0  0  0  0  0  0
   11.2308  -19.1392   25.6402 O   0  0  0  0  0  0  0  0  0  0  0  0
   11.7546  -16.9583   25.9449 O   0  0  0  0  0  0  0  0  0  0  0  0
  2  1  1  1
  2  3  1  0
  4  2  1  0
  4  5  1  6
  6  4  1  0
  6 15  1  0
  7  6  2  0
  9 19  2  0
  9  8  1  0
 10  9  1  0
 11 12  1  0
 11 10  2  0
 12 18  2  0
 13 12  1  0
 14 13  1  1
 14 15  1  0
 16 17  2  0
 16 14  1  0
 18 19  1  0
 21 20  1  1
 21 23  1  0
 22 21  1  0
 23 25  1  0
 23 24  1  1
 24 16  1  0
 25 26  1  0
 27 25  2  0
M  END
$$$$
