LTC.pdb
     RDKit          3D

 22 21  0  0  1  0  0  0  0  0999 V2000
    9.7984  -12.6558   19.1117 C   0  0  0  0  0  0  0  0  0  0  0  0
    8.4515  -13.2750   19.0210 C   0  0  2  0  0  0  0  0  0  0  0  0
    7.3864  -12.2033   19.0637 C   0  0  0  0  0  0  0  0  0  0  0  0
    8.1797  -14.3537   20.0142 C   0  0  0  0  0  0  0  0  0  0  0  0
    9.2342  -15.3897   20.1397 C   0  0  2  0  0  0  0  0  0  0  0  0
    9.1676  -16.3861   19.1120 N   0  0  0  0  0  0  0  0  0  0  0  0
    9.1258  -15.9867   21.5064 C   0  0  0  0  0  0  0  0  0  0  0  0
    8.0325  -16.5107   21.8402 O   0  0  0  0  0  0  0  0  0  0  0  0
   10.7348  -18.8245   22.6882 C   0  0  0  0  0  0  0  0  0  0  0  0
   11.1379  -17.7824   23.7048 C   0  0  1  0  0  0  0  0  0  0  0  0
   12.4031  -17.2639   23.4449 O   0  0  0  0  0  0  0  0  0  0  0  0
   10.1253  -16.6312   23.7376 C   0  0  2  0  0  0  0  0  0  0  0  0
   10.1732  -15.9984   22.4432 N   0  0  0  0  0  0  0  0  0  0  0  0
   10.4830  -15.7064   24.8370 C   0  0  0  0  0  0  0  0  0  0  0  0
   11.4956  -14.9820   24.6819 O   0  0  0  0  0  0  0  0  0  0  0  0
    9.7664  -15.5774   26.0544 N   0  0  0  0  0  0  0  0  0  0  0  0
   10.1948  -14.6805   27.1284 C   0  0  1  0  0  0  0  0  0  0  0  0
    8.9733  -13.9119   27.6320 C   0  0  0  0  0  0  0  0  0  0  0  0
    8.2019  -13.0828   26.2153 S   0  0  0  0  0  0  0  0  0  0  0  0
   10.7059  -15.5272   28.2389 C   0  0  0  0  0  0  0  0  0  0  0  0
   11.2784  -14.9926   29.3909 O   0  0  0  0  0  0  0  0  0  0  0  0
   10.6428  -16.7873   28.1862 O   0  0  0  0  0  0  0  0  0  0  0  0
  2  1  1  1
  2  3  1  0
  4  2  1  0
  5  4  1  0
  5  7  1  0
  5  6  1  6
  7 13  1  0
  7  8  2  0
 10  9  1  6
 10 12  1  0
 11 10  1  0
 12 14  1  0
 12 13  1  6
 14 16  1  0
 14 15  2  0
 16 17  1  0
 17 20  1  0
 17 18  1  1
 19 18  1  0
 20 21  1  0
 22 20  2  0
M  END
$$$$
