LTC.pdb
     RDKit          3D

 22 21  0  0  1  0  0  0  0  0999 V2000
    9.3125  -12.8227   18.6217 C   0  0  0  0  0  0  0  0  0  0  0  0
    8.0551  -13.4186   19.1408 C   0  0  2  0  0  0  0  0  0  0  0  0
    6.9478  -12.3899   19.1173 C   0  0  0  0  0  0  0  0  0  0  0  0
    8.1652  -14.0708   20.4774 C   0  0  0  0  0  0  0  0  0  0  0  0
    9.2509  -15.0725   20.6140 C   0  0  2  0  0  0  0  0  0  0  0  0
    9.2419  -16.0560   19.5719 N   0  0  0  0  0  0  0  0  0  0  0  0
    9.1312  -15.6919   21.9698 C   0  0  0  0  0  0  0  0  0  0  0  0
    8.0439  -15.5613   22.5880 O   0  0  0  0  0  0  0  0  0  0  0  0
   10.6125  -19.2319   22.8088 C   0  0  0  0  0  0  0  0  0  0  0  0
   11.0221  -18.2401   23.8720 C   0  0  1  0  0  0  0  0  0  0  0  0
   12.3232  -17.7831   23.6839 O   0  0  0  0  0  0  0  0  0  0  0  0
   10.0703  -17.0378   23.8931 C   0  0  2  0  0  0  0  0  0  0  0  0
   10.1614  -16.4128   22.5972 N   0  0  0  0  0  0  0  0  0  0  0  0
   10.4667  -16.1291   24.9926 C   0  0  0  0  0  0  0  0  0  0  0  0
   10.9415  -15.0104   24.6805 O   0  0  0  0  0  0  0  0  0  0  0  0
   10.3500  -16.4280   26.3744 N   0  0  0  0  0  0  0  0  0  0  0  0
   10.6545  -15.4500   27.4195 C   0  0  1  0  0  0  0  0  0  0  0  0
    9.5049  -14.4452   27.4904 C   0  0  0  0  0  0  0  0  0  0  0  0
    9.7689  -13.3834   28.9369 S   0  0  0  0  0  0  0  0  0  0  0  0
   10.7162  -16.1832   28.7117 C   0  0  0  0  0  0  0  0  0  0  0  0
   11.4243  -15.7083   29.8134 O   0  0  0  0  0  0  0  0  0  0  0  0
   10.1205  -17.2853   28.8702 O   0  0  0  0  0  0  0  0  0  0  0  0
  2  1  1  1
  2  3  1  0
  4  2  1  0
  5  4  1  0
  5  7  1  0
  5  6  1  6
  7 13  1  0
  7  8  2  0
 10  9  1  6
 10 12  1  0
 11 10  1  0
 12 14  1  0
 12 13  1  6
 14 16  1  0
 14 15  2  0
 16 17  1  0
 17 20  1  0
 17 18  1  1
 19 18  1  0
 20 21  1  0
 22 20  2  0
M  END
$$$$
