LTC.pdb
     RDKit          3D

 22 21  0  0  1  0  0  0  0  0999 V2000
    9.3608  -12.8255   19.3228 C   0  0  0  0  0  0  0  0  0  0  0  0
    7.9637  -13.3010   19.4905 C   0  0  2  0  0  0  0  0  0  0  0  0
    7.0451  -12.1269   19.7404 C   0  0  0  0  0  0  0  0  0  0  0  0
    7.7743  -14.3689   20.5140 C   0  0  0  0  0  0  0  0  0  0  0  0
    8.6431  -15.5621   20.3634 C   0  0  2  0  0  0  0  0  0  0  0  0
    8.2000  -16.4527   19.3319 N   0  0  0  0  0  0  0  0  0  0  0  0
    8.7201  -16.2403   21.6939 C   0  0  0  0  0  0  0  0  0  0  0  0
    7.6637  -16.7226   22.1762 O   0  0  0  0  0  0  0  0  0  0  0  0
   10.7575  -19.1356   22.7408 C   0  0  0  0  0  0  0  0  0  0  0  0
   11.1244  -18.0096   23.6786 C   0  0  1  0  0  0  0  0  0  0  0  0
   12.3028  -17.3759   23.2950 O   0  0  0  0  0  0  0  0  0  0  0  0
    9.9999  -16.9692   23.7490 C   0  0  2  0  0  0  0  0  0  0  0  0
    9.9034  -16.3722   22.4404 N   0  0  0  0  0  0  0  0  0  0  0  0
   10.3233  -15.9812   24.8030 C   0  0  0  0  0  0  0  0  0  0  0  0
   10.8149  -14.8848   24.4419 O   0  0  0  0  0  0  0  0  0  0  0  0
   10.1190  -16.1808   26.1925 N   0  0  0  0  0  0  0  0  0  0  0  0
   10.4691  -15.1712   27.1923 C   0  0  1  0  0  0  0  0  0  0  0  0
    9.3072  -14.1851   27.3104 C   0  0  0  0  0  0  0  0  0  0  0  0
    9.6749  -13.0355   28.6641 S   0  0  0  0  0  0  0  0  0  0  0  0
   10.6247  -15.8699   28.4958 C   0  0  0  0  0  0  0  0  0  0  0  0
   11.3871  -15.3526   29.5407 O   0  0  0  0  0  0  0  0  0  0  0  0
   10.0643  -16.9797   28.7167 O   0  0  0  0  0  0  0  0  0  0  0  0
  2  1  1  1
  2  3  1  0
  4  2  1  0
  5  4  1  0
  5  7  1  0
  5  6  1  6
  7 13  1  0
  7  8  2  0
 10  9  1  6
 10 12  1  0
 11 10  1  0
 12 14  1  0
 12 13  1  6
 14 16  1  0
 14 15  2  0
 16 17  1  0
 17 20  1  0
 17 18  1  1
 19 18  1  0
 20 21  1  0
 22 20  2  0
M  END
$$$$
