LTC.pdb
     RDKit          3D

 22 21  0  0  1  0  0  0  0  0999 V2000
    9.5880  -13.1357   19.0453 C   0  0  0  0  0  0  0  0  0  0  0  0
    8.1575  -13.4120   19.3335 C   0  0  2  0  0  0  0  0  0  0  0  0
    7.3954  -12.1126   19.4585 C   0  0  0  0  0  0  0  0  0  0  0  0
    7.9054  -14.3064   20.4999 C   0  0  0  0  0  0  0  0  0  0  0  0
    8.5783  -15.6276   20.4514 C   0  0  2  0  0  0  0  0  0  0  0  0
    7.9648  -16.5367   19.5291 N   0  0  0  0  0  0  0  0  0  0  0  0
    8.6069  -16.1755   21.8425 C   0  0  0  0  0  0  0  0  0  0  0  0
    7.5098  -16.3919   22.4178 O   0  0  0  0  0  0  0  0  0  0  0  0
   10.4413  -19.2579   22.7992 C   0  0  0  0  0  0  0  0  0  0  0  0
   10.8817  -18.1949   23.7780 C   0  0  1  0  0  0  0  0  0  0  0  0
   12.1180  -17.6539   23.4375 O   0  0  0  0  0  0  0  0  0  0  0  0
    9.8486  -17.0643   23.8577 C   0  0  2  0  0  0  0  0  0  0  0  0
    9.7872  -16.4642   22.5484 N   0  0  0  0  0  0  0  0  0  0  0  0
   10.2651  -16.1044   24.9050 C   0  0  0  0  0  0  0  0  0  0  0  0
   10.5908  -14.9491   24.5393 O   0  0  0  0  0  0  0  0  0  0  0  0
   10.3240  -16.3924   26.2927 N   0  0  0  0  0  0  0  0  0  0  0  0
   10.5642  -15.3597   27.3012 C   0  0  1  0  0  0  0  0  0  0  0  0
    9.3522  -14.4290   27.3379 C   0  0  0  0  0  0  0  0  0  0  0  0
    9.5705  -13.2681   28.7141 S   0  0  0  0  0  0  0  0  0  0  0  0
   10.6723  -16.0401   28.6190 C   0  0  0  0  0  0  0  0  0  0  0  0
   11.3714  -15.4938   29.6931 O   0  0  0  0  0  0  0  0  0  0  0  0
   10.1271  -17.1601   28.8262 O   0  0  0  0  0  0  0  0  0  0  0  0
  2  1  1  1
  2  3  1  0
  4  2  1  0
  5  4  1  0
  5  7  1  0
  5  6  1  6
  7 13  1  0
  7  8  2  0
 10  9  1  6
 10 12  1  0
 11 10  1  0
 12 14  1  0
 12 13  1  6
 14 16  1  0
 14 15  2  0
 16 17  1  0
 17 20  1  0
 17 18  1  1
 19 18  1  0
 20 21  1  0
 22 20  2  0
M  END
$$$$
