LTC.pdb
     RDKit          3D

 22 21  0  0  1  0  0  0  0  0999 V2000
    7.4968  -11.1983   24.8428 C   0  0  0  0  0  0  0  0  0  0  0  0
    6.3678  -12.0911   25.2092 C   0  0  2  0  0  0  0  0  0  0  0  0
    5.7356  -11.6215   26.4994 C   0  0  0  0  0  0  0  0  0  0  0  0
    6.6979  -13.5445   25.2612 C   0  0  0  0  0  0  0  0  0  0  0  0
    7.3557  -14.0958   24.0511 C   0  0  2  0  0  0  0  0  0  0  0  0
    6.4364  -14.3636   22.9850 N   0  0  0  0  0  0  0  0  0  0  0  0
    8.1103  -15.3202   24.4607 C   0  0  0  0  0  0  0  0  0  0  0  0
    7.4925  -16.2140   25.0938 O   0  0  0  0  0  0  0  0  0  0  0  0
   10.2966  -17.4838   22.1975 C   0  0  0  0  0  0  0  0  0  0  0  0
   11.1262  -17.0618   23.3873 C   0  0  1  0  0  0  0  0  0  0  0  0
   11.9487  -15.9789   23.0905 O   0  0  0  0  0  0  0  0  0  0  0  0
   10.2293  -16.6946   24.5758 C   0  0  2  0  0  0  0  0  0  0  0  0
    9.4707  -15.5340   24.1811 N   0  0  0  0  0  0  0  0  0  0  0  0
   11.0798  -16.4428   25.7611 C   0  0  0  0  0  0  0  0  0  0  0  0
   11.8787  -15.4767   25.7096 O   0  0  0  0  0  0  0  0  0  0  0  0
   11.0597  -17.2124   26.9526 N   0  0  0  0  0  0  0  0  0  0  0  0
   11.9395  -16.9294   28.0871 C   0  0  1  0  0  0  0  0  0  0  0  0
   11.0936  -16.3534   29.2225 C   0  0  0  0  0  0  0  0  0  0  0  0
   10.4185  -14.7616   28.6749 S   0  0  0  0  0  0  0  0  0  0  0  0
   12.5127  -18.2245   28.5406 C   0  0  0  0  0  0  0  0  0  0  0  0
   13.4118  -18.3197   29.6004 O   0  0  0  0  0  0  0  0  0  0  0  0
   12.2053  -19.3117   27.9767 O   0  0  0  0  0  0  0  0  0  0  0  0
  2  1  1  1
  2  3  1  0
  4  2  1  0
  5  4  1  0
  5  7  1  0
  5  6  1  6
  7 13  1  0
  7  8  2  0
 10  9  1  6
 10 12  1  0
 11 10  1  0
 12 14  1  0
 12 13  1  6
 14 16  1  0
 14 15  2  0
 16 17  1  0
 17 20  1  0
 17 18  1  1
 19 18  1  0
 20 21  1  0
 22 20  2  0
M  END
$$$$
