LTC.pdb
     RDKit          3D

 22 21  0  0  1  0  0  0  0  0999 V2000
    6.9493  -11.3324   24.5443 C   0  0  0  0  0  0  0  0  0  0  0  0
    6.2014  -12.3547   25.3199 C   0  0  2  0  0  0  0  0  0  0  0  0
    5.8204  -11.7997   26.6732 C   0  0  0  0  0  0  0  0  0  0  0  0
    6.8771  -13.6783   25.4439 C   0  0  0  0  0  0  0  0  0  0  0  0
    7.2629  -14.3232   24.1647 C   0  0  2  0  0  0  0  0  0  0  0  0
    6.1375  -14.6629   23.3452 N   0  0  0  0  0  0  0  0  0  0  0  0
    8.0991  -15.5191   24.4915 C   0  0  0  0  0  0  0  0  0  0  0  0
    7.5701  -16.4512   25.1493 O   0  0  0  0  0  0  0  0  0  0  0  0
   10.3742  -17.3214   22.0064 C   0  0  0  0  0  0  0  0  0  0  0  0
   11.1957  -17.0382   23.2420 C   0  0  1  0  0  0  0  0  0  0  0  0
   12.0387  -15.9446   23.0672 O   0  0  0  0  0  0  0  0  0  0  0  0
   10.2901  -16.7802   24.4525 C   0  0  2  0  0  0  0  0  0  0  0  0
    9.4429  -15.6659   24.1078 N   0  0  0  0  0  0  0  0  0  0  0  0
   11.1355  -16.5077   25.6369 C   0  0  0  0  0  0  0  0  0  0  0  0
   11.7205  -15.3990   25.6917 O   0  0  0  0  0  0  0  0  0  0  0  0
   11.3345  -17.4066   26.7161 N   0  0  0  0  0  0  0  0  0  0  0  0
   11.7238  -16.9570   28.0531 C   0  0  1  0  0  0  0  0  0  0  0  0
   10.5703  -16.1479   28.6456 C   0  0  0  0  0  0  0  0  0  0  0  0
   11.0681  -14.4046   28.6960 S   0  0  0  0  0  0  0  0  0  0  0  0
   11.9239  -18.1696   28.8904 C   0  0  0  0  0  0  0  0  0  0  0  0
   12.6350  -18.1482   30.0881 O   0  0  0  0  0  0  0  0  0  0  0  0
   11.4511  -19.2892   28.5478 O   0  0  0  0  0  0  0  0  0  0  0  0
  2  1  1  1
  2  3  1  0
  4  2  1  0
  5  4  1  0
  5  7  1  0
  5  6  1  1
  7 13  1  0
  7  8  2  0
 10  9  1  6
 10 12  1  0
 11 10  1  0
 12 14  1  0
 12 13  1  6
 14 16  1  0
 14 15  2  0
 16 17  1  0
 17 20  1  0
 17 18  1  1
 19 18  1  0
 20 21  1  0
 22 20  2  0
M  END
$$$$
