LTC.pdb
     RDKit          3D

 22 21  0  0  1  0  0  0  0  0999 V2000
    9.8808  -13.0765   19.5152 C   0  0  0  0  0  0  0  0  0  0  0  0
    8.5130  -13.5029   19.1237 C   0  0  2  0  0  0  0  0  0  0  0  0
    7.6739  -12.2937   18.7791 C   0  0  0  0  0  0  0  0  0  0  0  0
    7.8183  -14.3875   20.1029 C   0  0  0  0  0  0  0  0  0  0  0  0
    8.5412  -15.6303   20.4688 C   0  0  2  0  0  0  0  0  0  0  0  0
    8.3027  -16.7082   19.5552 N   0  0  0  0  0  0  0  0  0  0  0  0
    8.1546  -15.9868   21.8686 C   0  0  0  0  0  0  0  0  0  0  0  0
    6.9519  -16.2741   22.0973 O   0  0  0  0  0  0  0  0  0  0  0  0
    8.6242  -18.7678   23.7134 C   0  0  0  0  0  0  0  0  0  0  0  0
    9.2733  -17.7311   24.5998 C   0  0  1  0  0  0  0  0  0  0  0  0
   10.6556  -17.7014   24.4398 O   0  0  0  0  0  0  0  0  0  0  0  0
    8.7087  -16.3348   24.3109 C   0  0  2  0  0  0  0  0  0  0  0  0
    9.0547  -16.0205   22.9472 N   0  0  0  0  0  0  0  0  0  0  0  0
    9.2821  -15.3735   25.2798 C   0  0  0  0  0  0  0  0  0  0  0  0
   10.4574  -14.9806   25.0838 O   0  0  0  0  0  0  0  0  0  0  0  0
    8.6020  -14.8623   26.4149 N   0  0  0  0  0  0  0  0  0  0  0  0
    9.2628  -14.0261   27.4176 C   0  0  1  0  0  0  0  0  0  0  0  0
    8.2598  -12.9860   27.9162 C   0  0  0  0  0  0  0  0  0  0  0  0
    7.4453  -12.2473   26.4738 S   0  0  0  0  0  0  0  0  0  0  0  0
    9.6318  -14.9056   28.5585 C   0  0  0  0  0  0  0  0  0  0  0  0
   10.4103  -14.4657   29.6268 O   0  0  0  0  0  0  0  0  0  0  0  0
    9.2500  -16.1081   28.6106 O   0  0  0  0  0  0  0  0  0  0  0  0
  2  1  1  1
  2  3  1  0
  4  2  1  0
  5  4  1  0
  5  7  1  0
  5  6  1  6
  7 13  1  0
  7  8  2  0
 10  9  1  6
 10 12  1  0
 11 10  1  0
 12 14  1  0
 12 13  1  6
 14 16  1  0
 14 15  2  0
 16 17  1  0
 17 20  1  0
 17 18  1  1
 19 18  1  0
 20 21  1  0
 22 20  2  0
M  END
$$$$
