LTC.pdb
     RDKit          3D

 22 21  0  0  1  0  0  0  0  0999 V2000
    8.7314  -11.8412   19.7155 C   0  0  0  0  0  0  0  0  0  0  0  0
    8.3501  -13.2623   19.5129 C   0  0  2  0  0  0  0  0  0  0  0  0
    7.3190  -13.3686   18.4127 C   0  0  0  0  0  0  0  0  0  0  0  0
    7.9122  -13.9842   20.7422 C   0  0  0  0  0  0  0  0  0  0  0  0
    8.3293  -15.4049   20.8337 C   0  0  2  0  0  0  0  0  0  0  0  0
    7.5809  -16.2668   19.9673 N   0  0  0  0  0  0  0  0  0  0  0  0
    8.2213  -15.8200   22.2662 C   0  0  0  0  0  0  0  0  0  0  0  0
    7.0762  -15.8763   22.7831 O   0  0  0  0  0  0  0  0  0  0  0  0
    9.2525  -18.9797   23.7440 C   0  0  0  0  0  0  0  0  0  0  0  0
    9.9801  -17.9202   24.5377 C   0  0  1  0  0  0  0  0  0  0  0  0
   11.2915  -17.7528   24.1026 O   0  0  0  0  0  0  0  0  0  0  0  0
    9.2505  -16.5742   24.4490 C   0  0  2  0  0  0  0  0  0  0  0  0
    9.3233  -16.1518   23.0726 N   0  0  0  0  0  0  0  0  0  0  0  0
    9.8957  -15.6149   25.3738 C   0  0  0  0  0  0  0  0  0  0  0  0
   10.9897  -15.1121   25.0206 O   0  0  0  0  0  0  0  0  0  0  0  0
    9.3698  -15.2206   26.6308 N   0  0  0  0  0  0  0  0  0  0  0  0
   10.0947  -14.3374   27.5451 C   0  0  1  0  0  0  0  0  0  0  0  0
    9.0908  -13.3851   28.1943 C   0  0  0  0  0  0  0  0  0  0  0  0
    8.0419  -12.6906   26.8879 S   0  0  0  0  0  0  0  0  0  0  0  0
   10.6889  -15.1887   28.6098 C   0  0  0  0  0  0  0  0  0  0  0  0
   10.5199  -16.5710   28.6501 O   0  0  0  0  0  0  0  0  0  0  0  0
   11.3833  -14.6891   29.5386 O   0  0  0  0  0  0  0  0  0  0  0  0
  2  1  1  1
  2  3  1  0
  4  2  1  0
  5  4  1  0
  5  7  1  0
  5  6  1  6
  7 13  1  0
  7  8  2  0
 10  9  1  6
 10 12  1  0
 11 10  1  0
 12 14  1  0
 12 13  1  6
 14 16  1  0
 14 15  2  0
 16 17  1  0
 17 20  1  0
 17 18  1  1
 19 18  1  0
 20 21  1  0
 22 20  2  0
M  END
$$$$
