LTC.pdb
     RDKit          3D

 22 21  0  0  1  0  0  0  0  0999 V2000
    9.8745  -13.5620   19.6539 C   0  0  0  0  0  0  0  0  0  0  0  0
    8.4890  -13.6563   19.1272 C   0  0  2  0  0  0  0  0  0  0  0  0
    7.9742  -12.2785   18.7787 C   0  0  0  0  0  0  0  0  0  0  0  0
    7.5275  -14.3939   19.9963 C   0  0  0  0  0  0  0  0  0  0  0  0
    7.9914  -15.7145   20.4881 C   0  0  2  0  0  0  0  0  0  0  0  0
    7.5726  -16.8026   19.6550 N   0  0  0  0  0  0  0  0  0  0  0  0
    7.5120  -15.8703   21.8960 C   0  0  0  0  0  0  0  0  0  0  0  0
    6.2747  -15.9779   22.0931 O   0  0  0  0  0  0  0  0  0  0  0  0
    7.4695  -18.5380   23.8291 C   0  0  0  0  0  0  0  0  0  0  0  0
    8.2732  -17.5981   24.6965 C   0  0  1  0  0  0  0  0  0  0  0  0
    9.6430  -17.7925   24.5443 O   0  0  0  0  0  0  0  0  0  0  0  0
    7.9389  -16.1366   24.3738 C   0  0  2  0  0  0  0  0  0  0  0  0
    8.3611  -15.9039   23.0152 N   0  0  0  0  0  0  0  0  0  0  0  0
    8.6319  -15.2586   25.3436 C   0  0  0  0  0  0  0  0  0  0  0  0
    9.7908  -14.8736   25.0554 O   0  0  0  0  0  0  0  0  0  0  0  0
    8.0839  -14.8190   26.5759 N   0  0  0  0  0  0  0  0  0  0  0  0
    8.7637  -13.8529   27.4394 C   0  0  1  0  0  0  0  0  0  0  0  0
    7.7082  -13.1116   28.2597 C   0  0  0  0  0  0  0  0  0  0  0  0
    6.3942  -12.5683   27.1339 S   0  0  0  0  0  0  0  0  0  0  0  0
    9.6285  -14.6213   28.3738 C   0  0  0  0  0  0  0  0  0  0  0  0
   10.5274  -14.0082   29.2438 O   0  0  0  0  0  0  0  0  0  0  0  0
    9.5860  -15.8824   28.4207 O   0  0  0  0  0  0  0  0  0  0  0  0
  2  1  1  1
  2  3  1  0
  4  2  1  0
  5  4  1  0
  5  7  1  0
  5  6  1  6
  7 13  1  0
  7  8  2  0
 10  9  1  6
 10 12  1  0
 11 10  1  0
 12 14  1  0
 12 13  1  6
 14 16  1  0
 14 15  2  0
 16 17  1  0
 17 20  1  0
 17 18  1  1
 19 18  1  0
 20 21  1  0
 22 20  2  0
M  END
$$$$
