LTC.pdb
     RDKit          3D

 22 21  0  0  1  0  0  0  0  0999 V2000
    6.7903  -11.4394   24.2081 C   0  0  0  0  0  0  0  0  0  0  0  0
    6.1480  -12.3141   25.2222 C   0  0  2  0  0  0  0  0  0  0  0  0
    5.9088  -11.5376   26.4968 C   0  0  0  0  0  0  0  0  0  0  0  0
    6.8541  -13.5998   25.4914 C   0  0  0  0  0  0  0  0  0  0  0  0
    7.1281  -14.4417   24.3010 C   0  0  2  0  0  0  0  0  0  0  0  0
    5.9368  -14.9369   23.6772 N   0  0  0  0  0  0  0  0  0  0  0  0
    8.0394  -15.5486   24.7260 C   0  0  0  0  0  0  0  0  0  0  0  0
    7.5985  -16.4015   25.5381 O   0  0  0  0  0  0  0  0  0  0  0  0
   10.1971  -17.6051   22.2426 C   0  0  0  0  0  0  0  0  0  0  0  0
   11.0736  -17.0868   23.3584 C   0  0  1  0  0  0  0  0  0  0  0  0
   11.7638  -15.9368   22.9866 O   0  0  0  0  0  0  0  0  0  0  0  0
   10.2418  -16.7850   24.6109 C   0  0  2  0  0  0  0  0  0  0  0  0
    9.3614  -15.6948   24.2726 N   0  0  0  0  0  0  0  0  0  0  0  0
   11.1556  -16.4534   25.7275 C   0  0  0  0  0  0  0  0  0  0  0  0
   11.9747  -15.5193   25.5514 O   0  0  0  0  0  0  0  0  0  0  0  0
   11.1753  -17.1128   26.9832 N   0  0  0  0  0  0  0  0  0  0  0  0
   12.2023  -16.8528   27.9926 C   0  0  1  0  0  0  0  0  0  0  0  0
   11.5139  -16.3691   29.2688 C   0  0  0  0  0  0  0  0  0  0  0  0
   10.5791  -14.8660   28.8735 S   0  0  0  0  0  0  0  0  0  0  0  0
   12.8769  -18.1453   28.2854 C   0  0  0  0  0  0  0  0  0  0  0  0
   13.9551  -18.2500   29.1614 O   0  0  0  0  0  0  0  0  0  0  0  0
   12.4968  -19.2214   27.7450 O   0  0  0  0  0  0  0  0  0  0  0  0
  2  1  1  6
  2  3  1  0
  4  2  1  0
  5  4  1  0
  5  7  1  0
  5  6  1  1
  7 13  1  0
  7  8  2  0
 10  9  1  6
 10 12  1  0
 11 10  1  0
 12 14  1  0
 12 13  1  6
 14 16  1  0
 14 15  2  0
 16 17  1  0
 17 20  1  0
 17 18  1  1
 19 18  1  0
 20 21  1  0
 22 20  2  0
M  END
$$$$
