LTC.pdb
     RDKit          3D

 22 21  0  0  1  0  0  0  0  0999 V2000
    9.3444  -13.2004   18.8983 C   0  0  0  0  0  0  0  0  0  0  0  0
    7.9696  -13.4003   19.4237 C   0  0  2  0  0  0  0  0  0  0  0  0
    7.2483  -12.0742   19.5007 C   0  0  0  0  0  0  0  0  0  0  0  0
    7.8841  -14.1434   20.7138 C   0  0  0  0  0  0  0  0  0  0  0  0
    8.4951  -15.4952   20.7164 C   0  0  2  0  0  0  0  0  0  0  0  0
    7.8406  -16.4089   19.8274 N   0  0  0  0  0  0  0  0  0  0  0  0
    8.4976  -15.9913   22.1271 C   0  0  0  0  0  0  0  0  0  0  0  0
    7.3953  -16.0859   22.7249 O   0  0  0  0  0  0  0  0  0  0  0  0
    9.8043  -19.1996   23.4135 C   0  0  0  0  0  0  0  0  0  0  0  0
   10.5101  -18.1197   24.1993 C   0  0  1  0  0  0  0  0  0  0  0  0
   11.7822  -17.8586   23.6985 O   0  0  0  0  0  0  0  0  0  0  0  0
    9.6964  -16.8198   24.1933 C   0  0  2  0  0  0  0  0  0  0  0  0
    9.6588  -16.3592   22.8278 N   0  0  0  0  0  0  0  0  0  0  0  0
   10.3380  -15.8459   25.1053 C   0  0  0  0  0  0  0  0  0  0  0  0
   11.1857  -15.0611   24.6156 O   0  0  0  0  0  0  0  0  0  0  0  0
   10.0663  -15.7328   26.4929 N   0  0  0  0  0  0  0  0  0  0  0  0
   10.8474  -14.8700   27.3799 C   0  0  1  0  0  0  0  0  0  0  0  0
   10.2846  -13.4515   27.2927 C   0  0  0  0  0  0  0  0  0  0  0  0
    8.4917  -13.5362   27.5526 S   0  0  0  0  0  0  0  0  0  0  0  0
   10.6540  -15.3661   28.7683 C   0  0  0  0  0  0  0  0  0  0  0  0
   11.2928  -14.7959   29.8672 O   0  0  0  0  0  0  0  0  0  0  0  0
    9.8906  -16.3408   29.0167 O   0  0  0  0  0  0  0  0  0  0  0  0
  2  1  1  1
  2  3  1  0
  4  2  1  0
  5  4  1  0
  5  7  1  0
  5  6  1  6
  7 13  1  0
  7  8  2  0
 10  9  1  6
 10 12  1  0
 11 10  1  0
 12 14  1  0
 12 13  1  6
 14 16  1  0
 14 15  2  0
 16 17  1  0
 17 20  1  0
 17 18  1  1
 19 18  1  0
 20 21  1  0
 22 20  2  0
M  END
$$$$
