LTC.pdb
     RDKit          3D

 22 21  0  0  1  0  0  0  0  0999 V2000
    8.0035  -11.8570   25.4095 C   0  0  0  0  0  0  0  0  0  0  0  0
    6.6232  -12.4031   25.3631 C   0  0  2  0  0  0  0  0  0  0  0  0
    5.8714  -12.0140   26.6155 C   0  0  0  0  0  0  0  0  0  0  0  0
    6.5278  -13.8684   25.1030 C   0  0  0  0  0  0  0  0  0  0  0  0
    7.2559  -14.3553   23.9056 C   0  0  2  0  0  0  0  0  0  0  0  0
    6.3854  -14.6994   22.8205 N   0  0  0  0  0  0  0  0  0  0  0  0
    8.1072  -15.5097   24.3283 C   0  0  0  0  0  0  0  0  0  0  0  0
    7.5645  -16.4422   24.9743 O   0  0  0  0  0  0  0  0  0  0  0  0
   10.3488  -17.4891   22.0733 C   0  0  0  0  0  0  0  0  0  0  0  0
   11.2024  -17.0641   23.2450 C   0  0  1  0  0  0  0  0  0  0  0  0
   12.0094  -15.9740   22.9327 O   0  0  0  0  0  0  0  0  0  0  0  0
   10.3303  -16.7075   24.4549 C   0  0  2  0  0  0  0  0  0  0  0  0
    9.4799  -15.6170   24.0475 N   0  0  0  0  0  0  0  0  0  0  0  0
   11.2079  -16.3507   25.5926 C   0  0  0  0  0  0  0  0  0  0  0  0
   11.8619  -15.2831   25.5107 O   0  0  0  0  0  0  0  0  0  0  0  0
   11.3655  -17.1259   26.7701 N   0  0  0  0  0  0  0  0  0  0  0  0
   12.3461  -16.7952   27.8046 C   0  0  1  0  0  0  0  0  0  0  0  0
   11.7514  -15.7134   28.7059 C   0  0  0  0  0  0  0  0  0  0  0  0
   10.1586  -16.3117   29.3340 S   0  0  0  0  0  0  0  0  0  0  0  0
   12.5623  -18.0188   28.6215 C   0  0  0  0  0  0  0  0  0  0  0  0
   13.5186  -18.0899   29.6321 O   0  0  0  0  0  0  0  0  0  0  0  0
   11.8783  -19.0634   28.4328 O   0  0  0  0  0  0  0  0  0  0  0  0
  2  1  1  1
  2  3  1  0
  4  2  1  0
  5  4  1  0
  5  7  1  0
  5  6  1  6
  7 13  1  0
  7  8  2  0
 10  9  1  6
 10 12  1  0
 11 10  1  0
 12 14  1  0
 12 13  1  6
 14 16  1  0
 14 15  2  0
 16 17  1  0
 17 20  1  0
 17 18  1  1
 19 18  1  0
 20 21  1  0
 22 20  2  0
M  END
$$$$
