LTC.pdb
     RDKit          3D

 22 21  0  0  1  0  0  0  0  0999 V2000
    8.0268  -19.3884   20.2942 C   0  0  0  0  0  0  0  0  0  0  0  0
    9.1974  -20.3022   20.2738 C   0  0  2  0  0  0  0  0  0  0  0  0
    9.1698  -21.2042   21.4864 C   0  0  0  0  0  0  0  0  0  0  0  0
   10.5222  -19.6347   20.1208 C   0  0  0  0  0  0  0  0  0  0  0  0
   10.6261  -18.6660   19.0020 C   0  0  2  0  0  0  0  0  0  0  0  0
   10.3901  -19.2612   17.7200 N   0  0  0  0  0  0  0  0  0  0  0  0
   11.9734  -18.0219   19.0809 C   0  0  0  0  0  0  0  0  0  0  0  0
   12.9547  -18.6365   18.5903 O   0  0  0  0  0  0  0  0  0  0  0  0
   12.6063  -14.4912   17.9629 C   0  0  0  0  0  0  0  0  0  0  0  0
   13.1958  -14.6169   19.3480 C   0  0  1  0  0  0  0  0  0  0  0  0
   12.3574  -14.0808   20.3211 O   0  0  0  0  0  0  0  0  0  0  0  0
   13.4799  -16.0847   19.6895 C   0  0  2  0  0  0  0  0  0  0  0  0
   12.2111  -16.7689   19.6709 N   0  0  0  0  0  0  0  0  0  0  0  0
   14.1436  -16.1519   21.0111 C   0  0  0  0  0  0  0  0  0  0  0  0
   13.4152  -16.1014   22.0315 O   0  0  0  0  0  0  0  0  0  0  0  0
   15.5431  -16.2693   21.2113 N   0  0  0  0  0  0  0  0  0  0  0  0
   16.1448  -16.3319   22.5437 C   0  0  1  0  0  0  0  0  0  0  0  0
   16.7046  -17.7384   22.7553 C   0  0  0  0  0  0  0  0  0  0  0  0
   17.1303  -17.9210   24.5088 S   0  0  0  0  0  0  0  0  0  0  0  0
   17.2775  -15.3686   22.5670 C   0  0  0  0  0  0  0  0  0  0  0  0
   17.8637  -14.9246   23.7502 O   0  0  0  0  0  0  0  0  0  0  0  0
   17.7656  -14.9033   21.4994 O   0  0  0  0  0  0  0  0  0  0  0  0
  2  1  1  1
  2  3  1  0
  4  2  1  0
  5  4  1  0
  5  7  1  0
  5  6  1  6
  7 13  1  0
  7  8  2  0
 10  9  1  6
 10 12  1  0
 11 10  1  0
 12 14  1  0
 12 13  1  1
 14 16  1  0
 14 15  2  0
 16 17  1  0
 17 20  1  0
 17 18  1  6
 19 18  1  0
 20 21  1  0
 22 20  2  0
M  END
$$$$
