LTC.pdb
     RDKit          3D

 22 21  0  0  1  0  0  0  0  0999 V2000
    9.6140  -13.3468   19.6903 C   0  0  0  0  0  0  0  0  0  0  0  0
    8.1504  -13.4805   19.4758 C   0  0  2  0  0  0  0  0  0  0  0  0
    7.5358  -12.1189   19.2453 C   0  0  0  0  0  0  0  0  0  0  0  0
    7.4195  -14.2368   20.5330 C   0  0  0  0  0  0  0  0  0  0  0  0
    7.9339  -15.5988   20.8181 C   0  0  2  0  0  0  0  0  0  0  0  0
    7.3319  -16.6091   19.9993 N   0  0  0  0  0  0  0  0  0  0  0  0
    7.7327  -15.8658   22.2756 C   0  0  0  0  0  0  0  0  0  0  0  0
    6.5595  -15.8385   22.7275 O   0  0  0  0  0  0  0  0  0  0  0  0
    8.2544  -18.8801   24.0346 C   0  0  0  0  0  0  0  0  0  0  0  0
    9.1256  -17.8886   24.7695 C   0  0  1  0  0  0  0  0  0  0  0  0
   10.4523  -17.9532   24.3538 O   0  0  0  0  0  0  0  0  0  0  0  0
    8.6109  -16.4577   24.5714 C   0  0  2  0  0  0  0  0  0  0  0  0
    8.7765  -16.1461   23.1737 N   0  0  0  0  0  0  0  0  0  0  0  0
    9.3744  -15.5451   25.4525 C   0  0  0  0  0  0  0  0  0  0  0  0
   10.4602  -15.0902   25.0184 O   0  0  0  0  0  0  0  0  0  0  0  0
    8.9705  -15.1456   26.7523 N   0  0  0  0  0  0  0  0  0  0  0  0
    9.7602  -14.2281   27.5744 C   0  0  1  0  0  0  0  0  0  0  0  0
    8.8007  -13.3087   28.3297 C   0  0  0  0  0  0  0  0  0  0  0  0
    7.6622  -12.5675   27.1281 S   0  0  0  0  0  0  0  0  0  0  0  0
   10.5036  -15.0473   28.5681 C   0  0  0  0  0  0  0  0  0  0  0  0
   11.4202  -14.4978   29.4618 O   0  0  0  0  0  0  0  0  0  0  0  0
   10.3345  -16.2962   28.6473 O   0  0  0  0  0  0  0  0  0  0  0  0
  2  1  1  1
  2  3  1  0
  4  2  1  0
  5  4  1  0
  5  7  1  0
  5  6  1  6
  7 13  1  0
  7  8  2  0
 10  9  1  6
 10 12  1  0
 11 10  1  0
 12 14  1  0
 12 13  1  6
 14 16  1  0
 14 15  2  0
 16 17  1  0
 17 20  1  0
 17 18  1  1
 19 18  1  0
 20 21  1  0
 22 20  2  0
M  END
$$$$
