FET.pdb
     RDKit          3D

 28 28  0  0  1  0  0  0  0  0999 V2000
    7.3727  -15.5117   20.6552 N   0  0  0  0  0  0  0  0  0  0  0  0
    7.6288  -14.8993   21.9203 C   0  0  1  0  0  0  0  0  0  0  0  0
    6.3628  -14.3910   22.5262 C   0  0  0  0  0  0  0  0  0  0  0  0
    6.7155  -13.7902   23.8468 C   0  0  0  0  0  0  0  0  0  0  0  0
    7.3234  -12.5588   23.9641 C   0  0  0  0  0  0  0  0  0  0  0  0
    7.6494  -12.0108   25.1917 C   0  0  0  0  0  0  0  0  0  0  0  0
    7.3718  -12.6923   26.3671 C   0  0  0  0  0  0  0  0  0  0  0  0
    6.7638  -13.9246   26.2573 C   0  0  0  0  0  0  0  0  0  0  0  0
    6.4376  -14.4719   25.0218 C   0  0  0  0  0  0  0  0  0  0  0  0
    8.4489  -15.7414   22.8178 C   0  0  0  0  0  0  0  0  0  0  0  0
    8.0153  -16.8798   23.1329 O   0  0  0  0  0  0  0  0  0  0  0  0
    9.7025  -15.3282   23.3415 N   0  0  0  0  0  0  0  0  0  0  0  0
   10.6339  -16.1923   24.0240 C   0  0  1  0  0  0  0  0  0  0  0  0
   12.0625  -15.9183   23.7567 C   0  0  0  0  0  0  0  0  0  0  0  0
   13.0653  -16.8074   24.3875 C   0  0  0  0  0  0  0  0  0  0  0  0
   14.4675  -16.5220   24.1492 C   0  0  0  0  0  0  0  0  0  0  0  0
   14.8213  -15.3969   23.7335 O   0  0  0  0  0  0  0  0  0  0  0  0
   10.2665  -16.3773   25.4486 C   0  0  0  0  0  0  0  0  0  0  0  0
   10.2590  -15.3635   26.1802 O   0  0  0  0  0  0  0  0  0  0  0  0
   15.4592  -17.4614   24.3651 O   0  0  0  0  0  0  0  0  0  0  0  0
    7.2397  -17.6366   27.0959 C   0  0  0  0  0  0  0  0  0  0  0  0
    8.3330  -18.5962   27.5862 C   0  0  1  0  0  0  0  0  0  0  0  0
    8.1492  -19.7555   26.8208 O   0  0  0  0  0  0  0  0  0  0  0  0
    9.6505  -17.9604   27.3521 C   0  0  2  0  0  0  0  0  0  0  0  0
    9.9311  -17.6261   25.9988 N   0  0  0  0  0  0  0  0  0  0  0  0
   10.7449  -18.7266   28.0061 C   0  0  0  0  0  0  0  0  0  0  0  0
   10.6863  -19.1201   29.3313 O   0  0  0  0  0  0  0  0  0  0  0  0
   11.7661  -19.0449   27.3616 O   0  0  0  0  0  0  0  0  0  0  0  0
  2  3  1  0
  2  1  1  6
  3  4  1  0
  4  9  2  0
  5  4  1  0
  5  6  2  0
  6  7  1  0
  7  8  2  0
  9  8  1  0
 10 12  1  0
 10  2  1  0
 11 10  2  0
 13 12  1  0
 13 14  1  1
 14 15  1  0
 15 16  1  0
 16 20  1  0
 17 16  2  0
 18 19  2  0
 18 13  1  0
 22 21  1  6
 22 24  1  0
 23 22  1  0
 24 26  1  0
 24 25  1  6
 25 18  1  0
 26 27  1  0
 28 26  2  0
M  END
$$$$
