FET.pdb
     RDKit          3D

 28 28  0  0  1  0  0  0  0  0999 V2000
    5.4439  -17.5244   24.1145 N   0  0  0  0  0  0  0  0  0  0  0  0
    6.3188  -16.4814   24.5481 C   0  0  1  0  0  0  0  0  0  0  0  0
    5.8163  -15.8620   25.8099 C   0  0  0  0  0  0  0  0  0  0  0  0
    6.6186  -14.6248   26.0443 C   0  0  0  0  0  0  0  0  0  0  0  0
    7.8137  -14.6333   26.7310 C   0  0  0  0  0  0  0  0  0  0  0  0
    8.5493  -13.4817   26.9462 C   0  0  0  0  0  0  0  0  0  0  0  0
    8.1030  -12.2578   26.4710 C   0  0  0  0  0  0  0  0  0  0  0  0
    6.9084  -12.2417   25.7832 C   0  0  0  0  0  0  0  0  0  0  0  0
    6.1721  -13.4012   25.5688 C   0  0  0  0  0  0  0  0  0  0  0  0
    7.7390  -16.8922   24.5841 C   0  0  0  0  0  0  0  0  0  0  0  0
    8.0568  -17.8882   25.2843 O   0  0  0  0  0  0  0  0  0  0  0  0
    8.7622  -16.2176   23.8668 N   0  0  0  0  0  0  0  0  0  0  0  0
   10.1532  -16.5984   23.8645 C   0  0  1  0  0  0  0  0  0  0  0  0
   10.8611  -16.3979   22.5814 C   0  0  0  0  0  0  0  0  0  0  0  0
   12.3202  -16.6512   22.5517 C   0  0  0  0  0  0  0  0  0  0  0  0
   13.0116  -16.4764   21.2884 C   0  0  0  0  0  0  0  0  0  0  0  0
   14.2016  -16.8400   21.1640 O   0  0  0  0  0  0  0  0  0  0  0  0
   10.8568  -16.1095   25.0746 C   0  0  0  0  0  0  0  0  0  0  0  0
   11.2750  -14.9313   25.0639 O   0  0  0  0  0  0  0  0  0  0  0  0
   12.4005  -15.9102   20.1846 O   0  0  0  0  0  0  0  0  0  0  0  0
    9.5288  -15.7464   28.4075 C   0  0  0  0  0  0  0  0  0  0  0  0
   10.9991  -15.3925   28.1435 C   0  0  1  0  0  0  0  0  0  0  0  0
   11.5340  -15.1505   29.4158 O   0  0  0  0  0  0  0  0  0  0  0  0
   11.6404  -16.5420   27.4637 C   0  0  2  0  0  0  0  0  0  0  0  0
   11.0675  -16.9047   26.2138 N   0  0  0  0  0  0  0  0  0  0  0  0
   11.8060  -17.6943   28.3896 C   0  0  0  0  0  0  0  0  0  0  0  0
   12.4642  -17.5842   29.6016 O   0  0  0  0  0  0  0  0  0  0  0  0
   11.3423  -18.8153   28.0927 O   0  0  0  0  0  0  0  0  0  0  0  0
  2  3  1  0
  2  1  1  1
  3  4  1  0
  4  9  2  0
  5  4  1  0
  5  6  2  0
  6  7  1  0
  7  8  2  0
  9  8  1  0
 10 12  1  0
 10  2  1  0
 11 10  2  0
 13 12  1  0
 13 14  1  6
 14 15  1  0
 15 16  1  0
 16 20  1  0
 17 16  2  0
 18 19  2  0
 18 13  1  0
 22 21  1  1
 22 24  1  0
 23 22  1  0
 24 26  1  0
 24 25  1  6
 25 18  1  0
 26 27  1  0
 28 26  2  0
M  END
$$$$
