FET.pdb
     RDKit          3D

 28 28  0  0  1  0  0  0  0  0999 V2000
    6.9596  -15.0128   20.7980 N   0  0  0  0  0  0  0  0  0  0  0  0
    7.3354  -14.4985   22.0768 C   0  0  1  0  0  0  0  0  0  0  0  0
    6.1514  -13.9286   22.7849 C   0  0  0  0  0  0  0  0  0  0  0  0
    6.6120  -13.4960   24.1377 C   0  0  0  0  0  0  0  0  0  0  0  0
    7.1492  -12.2493   24.3759 C   0  0  0  0  0  0  0  0  0  0  0  0
    7.5762  -11.8576   25.6321 C   0  0  0  0  0  0  0  0  0  0  0  0
    7.4774  -12.7197   26.7138 C   0  0  0  0  0  0  0  0  0  0  0  0
    6.9410  -13.9685   26.4828 C   0  0  0  0  0  0  0  0  0  0  0  0
    6.5129  -14.3583   25.2190 C   0  0  0  0  0  0  0  0  0  0  0  0
    8.1325  -15.4542   22.8759 C   0  0  0  0  0  0  0  0  0  0  0  0
    7.6536  -16.5969   23.0953 O   0  0  0  0  0  0  0  0  0  0  0  0
    9.4125  -15.1456   23.4076 N   0  0  0  0  0  0  0  0  0  0  0  0
   10.3606  -16.1205   23.8876 C   0  0  1  0  0  0  0  0  0  0  0  0
   11.7615  -15.8997   23.4676 C   0  0  0  0  0  0  0  0  0  0  0  0
   12.7916  -16.8297   23.9854 C   0  0  0  0  0  0  0  0  0  0  0  0
   14.1478  -16.6792   23.4928 C   0  0  0  0  0  0  0  0  0  0  0  0
   15.0001  -16.0614   24.1679 O   0  0  0  0  0  0  0  0  0  0  0  0
   10.1563  -16.4218   25.3250 C   0  0  0  0  0  0  0  0  0  0  0  0
   10.2941  -15.4821   26.1380 O   0  0  0  0  0  0  0  0  0  0  0  0
   14.5541  -17.2003   22.2780 O   0  0  0  0  0  0  0  0  0  0  0  0
    8.2689  -19.3728   28.7775 C   0  0  0  0  0  0  0  0  0  0  0  0
    8.6235  -19.2396   27.2898 C   0  0  1  0  0  0  0  0  0  0  0  0
    7.3979  -18.9849   26.6601 O   0  0  0  0  0  0  0  0  0  0  0  0
    9.5860  -18.1236   27.1382 C   0  0  2  0  0  0  0  0  0  0  0  0
    9.8185  -17.7001   25.8008 N   0  0  0  0  0  0  0  0  0  0  0  0
   10.8385  -18.3824   27.8977 C   0  0  0  0  0  0  0  0  0  0  0  0
   10.8433  -18.6320   29.2585 O   0  0  0  0  0  0  0  0  0  0  0  0
   11.9426  -18.3847   27.3139 O   0  0  0  0  0  0  0  0  0  0  0  0
  2  3  1  0
  2  1  1  6
  3  4  1  0
  4  9  2  0
  5  4  1  0
  5  6  2  0
  6  7  1  0
  7  8  2  0
  9  8  1  0
 10 12  1  0
 10  2  1  0
 11 10  2  0
 13 12  1  0
 13 14  1  1
 14 15  1  0
 15 16  1  0
 16 20  1  0
 17 16  2  0
 18 19  2  0
 18 13  1  0
 22 21  1  1
 22 24  1  0
 23 22  1  0
 24 26  1  0
 24 25  1  6
 25 18  1  0
 26 27  1  0
 28 26  2  0
M  END
$$$$
