FET.pdb
     RDKit          3D

 28 28  0  0  1  0  0  0  0  0999 V2000
    6.6451  -18.3112   18.9891 N   0  0  0  0  0  0  0  0  0  0  0  0
    7.2169  -17.0915   19.4653 C   0  0  1  0  0  0  0  0  0  0  0  0
    6.1542  -16.0739   19.7171 C   0  0  0  0  0  0  0  0  0  0  0  0
    6.8375  -14.8228   20.1612 C   0  0  0  0  0  0  0  0  0  0  0  0
    6.8982  -14.4388   21.4836 C   0  0  0  0  0  0  0  0  0  0  0  0
    7.5309  -13.2763   21.8861 C   0  0  0  0  0  0  0  0  0  0  0  0
    8.1362  -12.4424   20.9582 C   0  0  0  0  0  0  0  0  0  0  0  0
    8.0795  -12.8202   19.6336 C   0  0  0  0  0  0  0  0  0  0  0  0
    7.4428  -13.9892   19.2331 C   0  0  0  0  0  0  0  0  0  0  0  0
    8.1597  -17.2911   20.5871 C   0  0  0  0  0  0  0  0  0  0  0  0
    7.7727  -17.9543   21.5839 O   0  0  0  0  0  0  0  0  0  0  0  0
    9.4811  -16.7711   20.5943 N   0  0  0  0  0  0  0  0  0  0  0  0
   10.4893  -17.1006   21.5714 C   0  0  1  0  0  0  0  0  0  0  0  0
   11.8691  -17.1975   21.0476 C   0  0  0  0  0  0  0  0  0  0  0  0
   12.1971  -18.3503   20.1772 C   0  0  0  0  0  0  0  0  0  0  0  0
   13.5517  -18.4492   19.6674 C   0  0  0  0  0  0  0  0  0  0  0  0
   14.0429  -19.5657   19.3918 O   0  0  0  0  0  0  0  0  0  0  0  0
   10.3241  -16.3121   22.8162 C   0  0  0  0  0  0  0  0  0  0  0  0
   10.8995  -15.2040   22.8795 O   0  0  0  0  0  0  0  0  0  0  0  0
   14.3481  -17.3366   19.4669 O   0  0  0  0  0  0  0  0  0  0  0  0
    7.5785  -14.6944   24.5673 C   0  0  0  0  0  0  0  0  0  0  0  0
    8.0473  -15.7616   25.5662 C   0  0  1  0  0  0  0  0  0  0  0  0
    7.1185  -16.8017   25.4278 O   0  0  0  0  0  0  0  0  0  0  0  0
    9.4227  -16.1718   25.1989 C   0  0  2  0  0  0  0  0  0  0  0  0
    9.5582  -16.7537   23.9085 N   0  0  0  0  0  0  0  0  0  0  0  0
   10.0519  -16.9814   26.2765 C   0  0  0  0  0  0  0  0  0  0  0  0
   10.0268  -16.5961   27.6051 O   0  0  0  0  0  0  0  0  0  0  0  0
   10.6290  -18.0551   26.0052 O   0  0  0  0  0  0  0  0  0  0  0  0
  2  3  1  0
  2  1  1  1
  3  4  1  0
  4  9  2  0
  5  4  1  0
  5  6  2  0
  6  7  1  0
  7  8  2  0
  9  8  1  0
 10 12  1  0
 10  2  1  0
 11 10  2  0
 13 12  1  0
 13 14  1  6
 14 15  1  0
 15 16  1  0
 16 20  1  0
 17 16  2  0
 18 19  2  0
 18 13  1  0
 22 21  1  6
 22 24  1  0
 23 22  1  0
 24 26  1  0
 24 25  1  6
 25 18  1  0
 26 27  1  0
 28 26  2  0
M  END
$$$$
