FET.pdb
     RDKit          3D

 28 28  0  0  1  0  0  0  0  0999 V2000
    5.8170  -16.7029   24.9561 N   0  0  0  0  0  0  0  0  0  0  0  0
    6.8165  -16.2478   24.0422 C   0  0  1  0  0  0  0  0  0  0  0  0
    6.5830  -14.8206   23.6728 C   0  0  0  0  0  0  0  0  0  0  0  0
    6.6653  -14.0200   24.9305 C   0  0  0  0  0  0  0  0  0  0  0  0
    5.6437  -13.9818   25.8550 C   0  0  0  0  0  0  0  0  0  0  0  0
    5.7271  -13.2349   27.0164 C   0  0  0  0  0  0  0  0  0  0  0  0
    6.8600  -12.4857   27.2961 C   0  0  0  0  0  0  0  0  0  0  0  0
    7.8858  -12.5191   26.3758 C   0  0  0  0  0  0  0  0  0  0  0  0
    7.7982  -13.2711   25.2098 C   0  0  0  0  0  0  0  0  0  0  0  0
    8.1932  -16.5537   24.4876 C   0  0  0  0  0  0  0  0  0  0  0  0
    8.3567  -17.0411   25.6361 O   0  0  0  0  0  0  0  0  0  0  0  0
    9.3402  -16.3245   23.6824 N   0  0  0  0  0  0  0  0  0  0  0  0
   10.6624  -16.8209   23.9740 C   0  0  1  0  0  0  0  0  0  0  0  0
   11.5936  -16.8512   22.8254 C   0  0  0  0  0  0  0  0  0  0  0  0
   12.9372  -17.4361   23.0418 C   0  0  0  0  0  0  0  0  0  0  0  0
   13.8443  -17.4840   21.9107 C   0  0  0  0  0  0  0  0  0  0  0  0
   15.0120  -17.0496   22.0187 O   0  0  0  0  0  0  0  0  0  0  0  0
   11.2009  -16.2410   25.2280 C   0  0  0  0  0  0  0  0  0  0  0  0
   11.9387  -15.2364   25.1303 O   0  0  0  0  0  0  0  0  0  0  0  0
   13.4686  -18.0011   20.6844 O   0  0  0  0  0  0  0  0  0  0  0  0
   10.9036  -14.0329   27.5598 C   0  0  0  0  0  0  0  0  0  0  0  0
   10.7906  -15.2807   28.4470 C   0  0  1  0  0  0  0  0  0  0  0  0
    9.4115  -15.4867   28.5860 O   0  0  0  0  0  0  0  0  0  0  0  0
   11.4693  -16.4041   27.7599 C   0  0  2  0  0  0  0  0  0  0  0  0
   10.9184  -16.7667   26.5001 N   0  0  0  0  0  0  0  0  0  0  0  0
   11.6572  -17.5628   28.6735 C   0  0  0  0  0  0  0  0  0  0  0  0
   11.1872  -18.8289   28.3729 O   0  0  0  0  0  0  0  0  0  0  0  0
   12.2600  -17.4212   29.7580 O   0  0  0  0  0  0  0  0  0  0  0  0
  2  3  1  0
  2  1  1  1
  3  4  1  0
  4  9  2  0
  5  4  1  0
  5  6  2  0
  6  7  1  0
  7  8  2  0
  9  8  1  0
 10 12  1  0
 10  2  1  0
 11 10  2  0
 13 12  1  0
 13 14  1  6
 14 15  1  0
 15 16  1  0
 16 20  1  0
 17 16  2  0
 18 19  2  0
 18 13  1  0
 22 21  1  6
 22 24  1  0
 23 22  1  0
 24 26  1  0
 24 25  1  6
 25 18  1  0
 26 27  1  0
 28 26  2  0
M  END
$$$$
