FET.pdb
     RDKit          3D

 28 28  0  0  1  0  0  0  0  0999 V2000
    7.7803  -15.6478   25.9188 N   0  0  0  0  0  0  0  0  0  0  0  0
    7.1752  -15.6698   24.6246 C   0  0  1  0  0  0  0  0  0  0  0  0
    7.0993  -14.2924   24.0544 C   0  0  0  0  0  0  0  0  0  0  0  0
    6.8564  -13.3564   25.1921 C   0  0  0  0  0  0  0  0  0  0  0  0
    6.0155  -13.6634   26.2401 C   0  0  0  0  0  0  0  0  0  0  0  0
    5.7939  -12.7890   27.2888 C   0  0  0  0  0  0  0  0  0  0  0  0
    6.4201  -11.5522   27.3233 C   0  0  0  0  0  0  0  0  0  0  0  0
    7.2626  -11.2384   26.2784 C   0  0  0  0  0  0  0  0  0  0  0  0
    7.4829  -12.1199   25.2263 C   0  0  0  0  0  0  0  0  0  0  0  0
    7.7694  -16.6803   23.7229 C   0  0  0  0  0  0  0  0  0  0  0  0
    7.1922  -17.7923   23.6064 O   0  0  0  0  0  0  0  0  0  0  0  0
    8.9597  -16.4570   22.9814 N   0  0  0  0  0  0  0  0  0  0  0  0
   10.0550  -17.3900   22.8835 C   0  0  1  0  0  0  0  0  0  0  0  0
   10.9573  -17.1864   21.7295 C   0  0  0  0  0  0  0  0  0  0  0  0
   12.0528  -18.1632   21.5297 C   0  0  0  0  0  0  0  0  0  0  0  0
   12.9225  -17.9791   20.3832 C   0  0  0  0  0  0  0  0  0  0  0  0
   12.5909  -18.4213   19.2615 O   0  0  0  0  0  0  0  0  0  0  0  0
   10.7174  -17.5962   24.1940 C   0  0  0  0  0  0  0  0  0  0  0  0
   11.1203  -16.5821   24.8042 O   0  0  0  0  0  0  0  0  0  0  0  0
   14.1348  -17.3202   20.4745 O   0  0  0  0  0  0  0  0  0  0  0  0
   11.3579  -21.6142   25.6993 C   0  0  0  0  0  0  0  0  0  0  0  0
   10.8509  -20.4854   26.6078 C   0  0  1  0  0  0  0  0  0  0  0  0
   11.3770  -20.7901   27.8703 O   0  0  0  0  0  0  0  0  0  0  0  0
   11.3537  -19.1974   26.0755 C   0  0  2  0  0  0  0  0  0  0  0  0
   10.9060  -18.8651   24.7675 N   0  0  0  0  0  0  0  0  0  0  0  0
   12.8279  -19.0836   26.2376 C   0  0  0  0  0  0  0  0  0  0  0  0
   13.4528  -19.2232   27.4641 O   0  0  0  0  0  0  0  0  0  0  0  0
   13.5567  -18.8576   25.2490 O   0  0  0  0  0  0  0  0  0  0  0  0
  2  3  1  0
  2  1  1  1
  3  4  1  0
  4  9  2  0
  5  4  1  0
  5  6  2  0
  6  7  1  0
  7  8  2  0
  9  8  1  0
 10 12  1  0
 10  2  1  0
 11 10  2  0
 13 12  1  0
 13 14  1  6
 14 15  1  0
 15 16  1  0
 16 20  1  0
 17 16  2  0
 18 19  2  0
 18 13  1  0
 22 21  1  6
 22 24  1  0
 23 22  1  0
 24 26  1  0
 24 25  1  6
 25 18  1  0
 26 27  1  0
 28 26  2  0
M  END
$$$$
