FET.pdb
     RDKit          3D

 28 28  0  0  1  0  0  0  0  0999 V2000
    7.3398  -16.6782   17.5532 N   0  0  0  0  0  0  0  0  0  0  0  0
    8.7083  -16.3046   17.3833 C   0  0  1  0  0  0  0  0  0  0  0  0
    8.8219  -14.8530   17.0546 C   0  0  0  0  0  0  0  0  0  0  0  0
    8.3780  -14.0914   18.2597 C   0  0  0  0  0  0  0  0  0  0  0  0
    7.0738  -13.6846   18.4426 C   0  0  0  0  0  0  0  0  0  0  0  0
    6.6716  -12.9767   19.5610 C   0  0  0  0  0  0  0  0  0  0  0  0
    7.5813  -12.6457   20.5539 C   0  0  0  0  0  0  0  0  0  0  0  0
    8.8876  -13.0494   20.3777 C   0  0  0  0  0  0  0  0  0  0  0  0
    9.2878  -13.7608   19.2524 C   0  0  0  0  0  0  0  0  0  0  0  0
    9.5758  -16.7569   18.4924 C   0  0  0  0  0  0  0  0  0  0  0  0
    9.0344  -17.0930   19.5774 O   0  0  0  0  0  0  0  0  0  0  0  0
   10.9904  -16.8307   18.3929 N   0  0  0  0  0  0  0  0  0  0  0  0
   11.8558  -17.4128   19.3890 C   0  0  1  0  0  0  0  0  0  0  0  0
   13.2285  -17.7196   18.9320 C   0  0  0  0  0  0  0  0  0  0  0  0
   13.3810  -18.5262   17.6990 C   0  0  0  0  0  0  0  0  0  0  0  0
   14.7268  -18.8452   17.2614 C   0  0  0  0  0  0  0  0  0  0  0  0
   14.9265  -19.3020   16.1146 O   0  0  0  0  0  0  0  0  0  0  0  0
   11.7495  -16.7052   20.6877 C   0  0  0  0  0  0  0  0  0  0  0  0
   12.0344  -15.4880   20.7080 O   0  0  0  0  0  0  0  0  0  0  0  0
   15.8302  -18.6636   18.0750 O   0  0  0  0  0  0  0  0  0  0  0  0
    9.0325  -15.9692   22.9982 C   0  0  0  0  0  0  0  0  0  0  0  0
    9.9857  -16.8200   23.8492 C   0  0  1  0  0  0  0  0  0  0  0  0
    9.3957  -18.0909   23.8696 O   0  0  0  0  0  0  0  0  0  0  0  0
   11.3172  -16.8192   23.1995 C   0  0  2  0  0  0  0  0  0  0  0  0
   11.3470  -17.3381   21.8760 N   0  0  0  0  0  0  0  0  0  0  0  0
   12.3523  -17.4144   24.0865 C   0  0  0  0  0  0  0  0  0  0  0  0
   12.5656  -16.9713   25.3798 O   0  0  0  0  0  0  0  0  0  0  0  0
   13.0696  -18.3523   23.6798 O   0  0  0  0  0  0  0  0  0  0  0  0
  2  3  1  0
  2  1  1  1
  3  4  1  0
  4  9  2  0
  5  4  1  0
  5  6  2  0
  6  7  1  0
  7  8  2  0
  9  8  1  0
 10 12  1  0
 10  2  1  0
 11 10  2  0
 13 12  1  0
 13 14  1  6
 14 15  1  0
 15 16  1  0
 16 20  1  0
 17 16  2  0
 18 19  2  0
 18 13  1  0
 22 21  1  6
 22 24  1  0
 23 22  1  0
 24 26  1  0
 24 25  1  6
 25 18  1  0
 26 27  1  0
 28 26  2  0
M  END
$$$$
