FET.pdb
     RDKit          3D

 28 28  0  0  1  0  0  0  0  0999 V2000
    6.5439  -17.0597   22.2607 N   0  0  0  0  0  0  0  0  0  0  0  0
    7.0402  -16.0929   23.1883 C   0  0  1  0  0  0  0  0  0  0  0  0
    5.9377  -15.5756   24.0514 C   0  0  0  0  0  0  0  0  0  0  0  0
    6.4912  -14.4326   24.8367 C   0  0  0  0  0  0  0  0  0  0  0  0
    6.4465  -14.3866   26.2135 C   0  0  0  0  0  0  0  0  0  0  0  0
    6.9592  -13.3222   26.9332 C   0  0  0  0  0  0  0  0  0  0  0  0
    7.5456  -12.2461   26.2842 C   0  0  0  0  0  0  0  0  0  0  0  0
    7.5937  -12.2854   24.9071 C   0  0  0  0  0  0  0  0  0  0  0  0
    7.0775  -13.3569   24.1874 C   0  0  0  0  0  0  0  0  0  0  0  0
    8.2366  -16.5553   23.9246 C   0  0  0  0  0  0  0  0  0  0  0  0
    8.0929  -17.4457   24.8019 O   0  0  0  0  0  0  0  0  0  0  0  0
    9.5403  -16.0435   23.6898 N   0  0  0  0  0  0  0  0  0  0  0  0
   10.7591  -16.6448   24.1722 C   0  0  1  0  0  0  0  0  0  0  0  0
   11.8404  -16.7716   23.1712 C   0  0  0  0  0  0  0  0  0  0  0  0
   13.1367  -17.3281   23.6229 C   0  0  0  0  0  0  0  0  0  0  0  0
   14.2027  -17.4390   22.6451 C   0  0  0  0  0  0  0  0  0  0  0  0
   14.4308  -16.5011   21.8502 O   0  0  0  0  0  0  0  0  0  0  0  0
   11.1583  -16.0925   25.4891 C   0  0  0  0  0  0  0  0  0  0  0  0
   11.8482  -15.0499   25.4938 O   0  0  0  0  0  0  0  0  0  0  0  0
   15.0006  -18.5643   22.5472 O   0  0  0  0  0  0  0  0  0  0  0  0
   10.3046  -14.1058   28.0062 C   0  0  0  0  0  0  0  0  0  0  0  0
   10.3686  -15.4324   28.7761 C   0  0  1  0  0  0  0  0  0  0  0  0
    9.0374  -15.8658   28.8364 O   0  0  0  0  0  0  0  0  0  0  0  0
   11.2395  -16.3659   28.0244 C   0  0  2  0  0  0  0  0  0  0  0  0
   10.7969  -16.6846   26.7112 N   0  0  0  0  0  0  0  0  0  0  0  0
   11.5757  -17.5654   28.8374 C   0  0  0  0  0  0  0  0  0  0  0  0
   12.7104  -17.6332   29.6261 O   0  0  0  0  0  0  0  0  0  0  0  0
   10.8248  -18.5632   28.8320 O   0  0  0  0  0  0  0  0  0  0  0  0
  2  3  1  0
  2  1  1  1
  3  4  1  0
  4  9  2  0
  5  4  1  0
  5  6  2  0
  6  7  1  0
  7  8  2  0
  9  8  1  0
 10 12  1  0
 10  2  1  0
 11 10  2  0
 13 12  1  0
 13 14  1  6
 14 15  1  0
 15 16  1  0
 16 20  1  0
 17 16  2  0
 18 19  2  0
 18 13  1  0
 22 21  1  6
 22 24  1  0
 23 22  1  0
 24 26  1  0
 24 25  1  6
 25 18  1  0
 26 27  1  0
 28 26  2  0
M  END
$$$$
