VHE.pdb
     RDKit          3D

 27 27  0  0  1  0  0  0  0  0999 V2000
   22.3967  -12.1804  -21.0332 C   0  0  0  0  0  0  0  0  0  0  0  0
   21.5084  -11.5164  -20.0225 C   0  0  1  0  0  0  0  0  0  0  0  0
   21.4516  -12.2863  -18.7199 C   0  0  0  0  0  0  0  0  0  0  0  0
   22.1156  -10.1526  -19.7030 C   0  0  2  0  0  0  0  0  0  0  0  0
   23.4585  -10.2912  -19.1847 N   0  0  0  0  0  0  0  0  0  0  0  0
   21.2793   -9.5009  -18.6688 C   0  0  0  0  0  0  0  0  0  0  0  0
   20.0448   -9.2899  -18.8293 O   0  0  0  0  0  0  0  0  0  0  0  0
   21.8742   -9.0987  -17.4599 N   0  0  0  0  0  0  0  0  0  0  0  0
   21.1297   -8.3171  -16.4379 C   0  0  1  0  0  0  0  0  0  0  0  0
   21.2748   -9.0967  -15.1802 C   0  0  0  0  0  0  0  0  0  0  0  0
   20.3725   -8.7475  -14.0769 C   0  0  0  0  0  0  0  0  0  0  0  0
   19.3695   -7.8099  -14.0751 C   0  0  0  0  0  0  0  0  0  0  0  0
   18.7668   -7.7463  -12.8715 N   0  0  0  0  0  0  0  0  0  0  0  0
   19.3897   -8.6544  -12.0883 C   0  0  0  0  0  0  0  0  0  0  0  0
   20.3530   -9.2561  -12.8089 N   0  0  0  0  0  0  0  0  0  0  0  0
   21.7138   -6.9779  -16.4640 C   0  0  0  0  0  0  0  0  0  0  0  0
   22.9300   -6.7914  -16.6977 O   0  0  0  0  0  0  0  0  0  0  0  0
   20.9044   -5.8391  -16.2263 N   0  0  0  0  0  0  0  0  0  0  0  0
   21.4544   -4.5007  -16.1445 C   0  0  1  0  0  0  0  0  0  0  0  0
   20.3529   -3.5388  -16.5538 C   0  0  0  0  0  0  0  0  0  0  0  0
   20.8446   -2.1124  -16.5838 C   0  0  0  0  0  0  0  0  0  0  0  0
   19.7494   -1.1729  -16.9463 C   0  0  0  0  0  0  0  0  0  0  0  0
   18.5973   -1.6248  -17.1520 O   0  0  0  0  0  0  0  0  0  0  0  0
   22.0670   -4.1506  -14.8722 C   0  0  0  0  0  0  0  0  0  0  0  0
   22.9647   -3.3267  -14.6422 O   0  0  0  0  0  0  0  0  0  0  0  0
   19.9528    0.1953  -17.0670 O   0  0  0  0  0  0  0  0  0  0  0  0
   21.5793   -4.8372  -13.7402 O   0  0  0  0  0  0  0  0  0  0  0  0
  2  1  1  6
  2  4  1  0
  2  3  1  0
  4  5  1  1
  6  4  1  0
  6  7  2  0
  8  6  1  0
  9  8  1  0
  9 10  1  1
 11 10  1  0
 11 15  1  0
 12 13  1  0
 12 11  2  0
 13 14  1  0
 14 15  2  0
 16  9  1  0
 17 16  2  0
 18 16  1  0
 19 18  1  0
 19 24  1  0
 19 20  1  1
 21 20  1  0
 22 21  1  0
 22 26  1  0
 23 22  2  0
 24 27  1  0
 25 24  2  0
M  END
$$$$
