VHE.pdb
     RDKit          3D

 27 27  0  0  1  0  0  0  0  0999 V2000
   16.2352  -10.0979  -22.0630 C   0  0  0  0  0  0  0  0  0  0  0  0
   16.8345  -10.0122  -20.6900 C   0  0  1  0  0  0  0  0  0  0  0  0
   15.9773   -9.1987  -19.7434 C   0  0  0  0  0  0  0  0  0  0  0  0
   16.8931  -11.4293  -20.1252 C   0  0  2  0  0  0  0  0  0  0  0  0
   15.5896  -12.0546  -20.1568 N   0  0  0  0  0  0  0  0  0  0  0  0
   17.3410  -11.3510  -18.7156 C   0  0  0  0  0  0  0  0  0  0  0  0
   16.5351  -11.3984  -17.7448 O   0  0  0  0  0  0  0  0  0  0  0  0
   18.7132  -11.2190  -18.4390 N   0  0  0  0  0  0  0  0  0  0  0  0
   19.2358  -11.1804  -17.0479 C   0  0  1  0  0  0  0  0  0  0  0  0
   20.2481  -12.2678  -16.9896 C   0  0  0  0  0  0  0  0  0  0  0  0
   19.7414  -13.6369  -16.8410 C   0  0  0  0  0  0  0  0  0  0  0  0
   18.4440  -14.0358  -16.6344 C   0  0  0  0  0  0  0  0  0  0  0  0
   18.3608  -15.3759  -16.5198 N   0  0  0  0  0  0  0  0  0  0  0  0
   19.6206  -15.8459  -16.6543 C   0  0  0  0  0  0  0  0  0  0  0  0
   20.4503  -14.8049  -16.8470 N   0  0  0  0  0  0  0  0  0  0  0  0
   19.7117   -9.8139  -16.8439 C   0  0  0  0  0  0  0  0  0  0  0  0
   19.8216   -9.0035  -17.7924 O   0  0  0  0  0  0  0  0  0  0  0  0
   20.0616   -9.3639  -15.5464 N   0  0  0  0  0  0  0  0  0  0  0  0
   20.3201   -7.9682  -15.2536 C   0  0  1  0  0  0  0  0  0  0  0  0
   19.1834   -7.1657  -15.8616 C   0  0  0  0  0  0  0  0  0  0  0  0
   19.3775   -5.6836  -15.6544 C   0  0  0  0  0  0  0  0  0  0  0  0
   18.2443   -4.9070  -16.2258 C   0  0  0  0  0  0  0  0  0  0  0  0
   17.3151   -5.5169  -16.8075 O   0  0  0  0  0  0  0  0  0  0  0  0
   20.5484   -7.6528  -13.8518 C   0  0  0  0  0  0  0  0  0  0  0  0
   20.2060   -8.2914  -12.8456 O   0  0  0  0  0  0  0  0  0  0  0  0
   18.1733   -3.5230  -16.1402 O   0  0  0  0  0  0  0  0  0  0  0  0
   21.2550   -6.4595  -13.5926 O   0  0  0  0  0  0  0  0  0  0  0  0
  2  1  1  6
  2  4  1  0
  2  3  1  0
  4  5  1  1
  6  4  1  0
  6  7  2  0
  8  6  1  0
  9  8  1  0
  9 10  1  6
 11 10  1  0
 11 15  1  0
 12 13  1  0
 12 11  2  0
 13 14  1  0
 14 15  2  0
 16  9  1  0
 17 16  2  0
 18 16  1  0
 19 18  1  0
 19 24  1  0
 19 20  1  1
 21 20  1  0
 22 21  1  0
 22 26  1  0
 23 22  2  0
 24 27  1  0
 25 24  2  0
M  END
$$$$
