VHE.pdb
     RDKit          3D

 27 27  0  0  1  0  0  0  0  0999 V2000
   17.7524  -12.4220  -17.2361 C   0  0  0  0  0  0  0  0  0  0  0  0
   19.0713  -11.9612  -16.6886 C   0  0  1  0  0  0  0  0  0  0  0  0
   20.2297  -12.3646  -17.5763 C   0  0  0  0  0  0  0  0  0  0  0  0
   19.0483  -10.4350  -16.6593 C   0  0  2  0  0  0  0  0  0  0  0  0
   19.0287   -9.8907  -17.9989 N   0  0  0  0  0  0  0  0  0  0  0  0
   20.2771   -9.9633  -15.9801 C   0  0  0  0  0  0  0  0  0  0  0  0
   20.5727  -10.3036  -14.8006 O   0  0  0  0  0  0  0  0  0  0  0  0
   21.1528   -9.1041  -16.6669 N   0  0  0  0  0  0  0  0  0  0  0  0
   22.3772   -8.5534  -16.0286 C   0  0  1  0  0  0  0  0  0  0  0  0
   23.5065   -9.1551  -16.7857 C   0  0  0  0  0  0  0  0  0  0  0  0
   23.9291  -10.5021  -16.3852 C   0  0  0  0  0  0  0  0  0  0  0  0
   23.4001  -11.2892  -15.3923 C   0  0  0  0  0  0  0  0  0  0  0  0
   24.0641  -12.4577  -15.2939 N   0  0  0  0  0  0  0  0  0  0  0  0
   25.0329  -12.4226  -16.2354 C   0  0  0  0  0  0  0  0  0  0  0  0
   24.9539  -11.2508  -16.8911 N   0  0  0  0  0  0  0  0  0  0  0  0
   22.2327   -7.1005  -16.0881 C   0  0  0  0  0  0  0  0  0  0  0  0
   22.0177   -6.5010  -17.1665 O   0  0  0  0  0  0  0  0  0  0  0  0
   22.3295   -6.3225  -14.9076 N   0  0  0  0  0  0  0  0  0  0  0  0
   22.1084   -4.8901  -14.9029 C   0  0  1  0  0  0  0  0  0  0  0  0
   20.7128   -4.6513  -15.4517 C   0  0  0  0  0  0  0  0  0  0  0  0
   19.6522   -4.9537  -14.4217 C   0  0  0  0  0  0  0  0  0  0  0  0
   18.2907   -4.6740  -14.9526 C   0  0  0  0  0  0  0  0  0  0  0  0
   18.1636   -4.2822  -16.1376 O   0  0  0  0  0  0  0  0  0  0  0  0
   22.3372   -4.2239  -13.6300 C   0  0  0  0  0  0  0  0  0  0  0  0
   22.5315   -4.7266  -12.5132 O   0  0  0  0  0  0  0  0  0  0  0  0
   17.1458   -4.8305  -14.1829 O   0  0  0  0  0  0  0  0  0  0  0  0
   22.3402   -2.8133  -13.6610 O   0  0  0  0  0  0  0  0  0  0  0  0
  2  1  1  6
  2  4  1  0
  2  3  1  0
  4  5  1  6
  6  4  1  0
  6  7  2  0
  8  6  1  0
  9  8  1  0
  9 10  1  6
 11 10  1  0
 11 15  1  0
 12 13  1  0
 12 11  2  0
 13 14  1  0
 14 15  2  0
 16  9  1  0
 17 16  2  0
 18 16  1  0
 19 18  1  0
 19 24  1  0
 19 20  1  1
 21 20  1  0
 22 21  1  0
 22 26  1  0
 23 22  2  0
 24 27  1  0
 25 24  2  0
M  END
$$$$
