VHE.pdb
     RDKit          3D

 27 27  0  0  1  0  0  0  0  0999 V2000
   20.1218  -12.8437    5.4722 C   0  0  0  0  0  0  0  0  0  0  0  0
   18.6585  -12.8536    5.8044 C   0  0  1  0  0  0  0  0  0  0  0  0
   17.8877  -11.8156    5.0164 C   0  0  0  0  0  0  0  0  0  0  0  0
   18.1046  -14.2170    5.3984 C   0  0  2  0  0  0  0  0  0  0  0  0
   16.7149  -14.3461    5.7771 N   0  0  0  0  0  0  0  0  0  0  0  0
   18.8810  -15.2638    6.1019 C   0  0  0  0  0  0  0  0  0  0  0  0
   20.0529  -15.5845    5.7584 O   0  0  0  0  0  0  0  0  0  0  0  0
   18.2990  -15.9307    7.1944 N   0  0  0  0  0  0  0  0  0  0  0  0
   19.0473  -16.9379    7.9915 C   0  0  1  0  0  0  0  0  0  0  0  0
   19.5673  -16.1871    9.1647 C   0  0  0  0  0  0  0  0  0  0  0  0
   21.0254  -16.0728    9.2844 C   0  0  0  0  0  0  0  0  0  0  0  0
   21.9826  -16.6525    8.4890 C   0  0  0  0  0  0  0  0  0  0  0  0
   23.2222  -16.3442    8.9184 N   0  0  0  0  0  0  0  0  0  0  0  0
   23.0610  -15.5559   10.0041 C   0  0  0  0  0  0  0  0  0  0  0  0
   21.7445  -15.3917   10.2256 N   0  0  0  0  0  0  0  0  0  0  0  0
   18.0965  -18.0154    8.2568 C   0  0  0  0  0  0  0  0  0  0  0  0
   16.8640  -17.8059    8.3329 O   0  0  0  0  0  0  0  0  0  0  0  0
   18.5526  -19.3456    8.4326 N   0  0  0  0  0  0  0  0  0  0  0  0
   17.6471  -20.4484    8.6862 C   0  0  1  0  0  0  0  0  0  0  0  0
   16.6084  -20.4380    7.5785 C   0  0  0  0  0  0  0  0  0  0  0  0
   17.0964  -21.1713    6.3532 C   0  0  0  0  0  0  0  0  0  0  0  0
   16.0270  -21.2704    5.3235 C   0  0  0  0  0  0  0  0  0  0  0  0
   14.8355  -21.4135    5.6892 O   0  0  0  0  0  0  0  0  0  0  0  0
   18.2753  -21.7491    8.8601 C   0  0  0  0  0  0  0  0  0  0  0  0
   19.4527  -22.0778    8.6522 O   0  0  0  0  0  0  0  0  0  0  0  0
   16.2970  -21.2103    3.9629 O   0  0  0  0  0  0  0  0  0  0  0  0
   17.4382  -22.7834    9.3290 O   0  0  0  0  0  0  0  0  0  0  0  0
  2  1  1  6
  2  4  1  0
  2  3  1  0
  4  5  1  1
  6  4  1  0
  6  7  2  0
  8  6  1  0
  9  8  1  0
  9 10  1  1
 11 10  1  0
 11 15  1  0
 12 13  1  0
 12 11  2  0
 13 14  1  0
 14 15  2  0
 16  9  1  0
 17 16  2  0
 18 16  1  0
 19 18  1  0
 19 24  1  0
 19 20  1  6
 21 20  1  0
 22 21  1  0
 22 26  1  0
 23 22  2  0
 24 27  1  0
 25 24  2  0
M  END
$$$$
