VHE.pdb
     RDKit          3D

 27 27  0  0  1  0  0  0  0  0999 V2000
   14.3650   -9.7631  -14.8796 C   0  0  0  0  0  0  0  0  0  0  0  0
   14.7315  -10.3578  -16.2076 C   0  0  1  0  0  0  0  0  0  0  0  0
   15.2050   -9.3085  -17.1912 C   0  0  0  0  0  0  0  0  0  0  0  0
   15.9040  -11.3080  -15.9774 C   0  0  2  0  0  0  0  0  0  0  0  0
   15.5355  -12.3780  -15.0770 N   0  0  0  0  0  0  0  0  0  0  0  0
   17.0123  -10.5406  -15.3641 C   0  0  0  0  0  0  0  0  0  0  0  0
   17.4133  -10.7532  -14.1858 O   0  0  0  0  0  0  0  0  0  0  0  0
   17.6476   -9.5357  -16.1147 N   0  0  0  0  0  0  0  0  0  0  0  0
   18.9565   -8.9589  -15.7098 C   0  0  1  0  0  0  0  0  0  0  0  0
   19.8709  -10.1262  -15.6003 C   0  0  0  0  0  0  0  0  0  0  0  0
   21.2929   -9.8352  -15.3842 C   0  0  0  0  0  0  0  0  0  0  0  0
   21.8910   -8.6053  -15.2639 C   0  0  0  0  0  0  0  0  0  0  0  0
   23.2230   -8.7274  -15.0997 N   0  0  0  0  0  0  0  0  0  0  0  0
   23.4859  -10.0529  -15.1146 C   0  0  0  0  0  0  0  0  0  0  0  0
   22.3300  -10.7193  -15.2851 N   0  0  0  0  0  0  0  0  0  0  0  0
   19.2745   -7.9547  -16.7226 C   0  0  0  0  0  0  0  0  0  0  0  0
   19.3507   -8.2434  -17.9389 O   0  0  0  0  0  0  0  0  0  0  0  0
   19.5035   -6.6074  -16.3477 N   0  0  0  0  0  0  0  0  0  0  0  0
   19.8608   -5.5848  -17.3106 C   0  0  1  0  0  0  0  0  0  0  0  0
   19.0332   -4.3542  -16.9840 C   0  0  0  0  0  0  0  0  0  0  0  0
   19.4567   -3.7316  -15.6763 C   0  0  0  0  0  0  0  0  0  0  0  0
   18.4690   -2.7178  -15.2177 C   0  0  0  0  0  0  0  0  0  0  0  0
   17.6461   -3.0252  -14.3220 O   0  0  0  0  0  0  0  0  0  0  0  0
   21.2826   -5.2969  -17.4219 C   0  0  0  0  0  0  0  0  0  0  0  0
   22.2082   -5.6514  -16.6769 O   0  0  0  0  0  0  0  0  0  0  0  0
   18.4210   -1.4346  -15.7457 O   0  0  0  0  0  0  0  0  0  0  0  0
   21.6700   -4.5073  -18.5251 O   0  0  0  0  0  0  0  0  0  0  0  0
  2  1  1  1
  2  4  1  0
  2  3  1  0
  4  5  1  1
  6  4  1  0
  6  7  2  0
  8  6  1  0
  9  8  1  0
  9 10  1  6
 11 10  1  0
 11 15  1  0
 12 13  1  0
 12 11  2  0
 13 14  1  0
 14 15  2  0
 16  9  1  0
 17 16  2  0
 18 16  1  0
 19 18  1  0
 19 24  1  0
 19 20  1  1
 21 20  1  0
 22 21  1  0
 22 26  1  0
 23 22  2  0
 24 27  1  0
 25 24  2  0
M  END
$$$$
