VHE.pdb
     RDKit          3D

 27 27  0  0  1  0  0  0  0  0999 V2000
   24.1449  -11.5730  -16.6731 C   0  0  0  0  0  0  0  0  0  0  0  0
   23.1673  -12.2377  -15.7490 C   0  0  1  0  0  0  0  0  0  0  0  0
   22.5422  -11.2573  -14.7791 C   0  0  0  0  0  0  0  0  0  0  0  0
   22.0331  -12.7960  -16.6047 C   0  0  2  0  0  0  0  0  0  0  0  0
   22.5413  -13.6947  -17.6173 N   0  0  0  0  0  0  0  0  0  0  0  0
   21.3576  -11.6639  -17.2796 C   0  0  0  0  0  0  0  0  0  0  0  0
   21.7008  -11.2543  -18.4235 O   0  0  0  0  0  0  0  0  0  0  0  0
   20.2932  -11.0149  -16.6293 N   0  0  0  0  0  0  0  0  0  0  0  0
   19.5220   -9.9228  -17.2791 C   0  0  1  0  0  0  0  0  0  0  0  0
   18.2507  -10.5592  -17.7143 C   0  0  0  0  0  0  0  0  0  0  0  0
   17.2583   -9.6870  -18.3529 C   0  0  0  0  0  0  0  0  0  0  0  0
   16.1336   -9.1382  -17.7882 C   0  0  0  0  0  0  0  0  0  0  0  0
   15.4441   -8.4105  -18.6888 N   0  0  0  0  0  0  0  0  0  0  0  0
   16.1337   -8.4919  -19.8482 C   0  0  0  0  0  0  0  0  0  0  0  0
   17.2220   -9.2569  -19.6492 N   0  0  0  0  0  0  0  0  0  0  0  0
   19.4285   -8.8593  -16.2813 C   0  0  0  0  0  0  0  0  0  0  0  0
   19.7509   -9.0445  -15.0853 O   0  0  0  0  0  0  0  0  0  0  0  0
   18.9677   -7.5707  -16.6494 N   0  0  0  0  0  0  0  0  0  0  0  0
   18.9960   -6.4468  -15.7348 C   0  0  1  0  0  0  0  0  0  0  0  0
   20.4053   -6.3605  -15.1759 C   0  0  0  0  0  0  0  0  0  0  0  0
   20.5165   -5.2951  -14.1130 C   0  0  0  0  0  0  0  0  0  0  0  0
   21.8832   -5.2608  -13.5259 C   0  0  0  0  0  0  0  0  0  0  0  0
   22.2166   -4.2893  -12.8056 O   0  0  0  0  0  0  0  0  0  0  0  0
   18.5253   -5.1824  -16.2793 C   0  0  0  0  0  0  0  0  0  0  0  0
   18.3984   -4.8463  -17.4661 O   0  0  0  0  0  0  0  0  0  0  0  0
   22.8121   -6.2692  -13.7449 O   0  0  0  0  0  0  0  0  0  0  0  0
   18.1613   -4.1989  -15.3356 O   0  0  0  0  0  0  0  0  0  0  0  0
  2  1  1  6
  2  4  1  0
  2  3  1  0
  4  5  1  6
  6  4  1  0
  6  7  2  0
  8  6  1  0
  9  8  1  0
  9 10  1  1
 11 10  1  0
 11 15  1  0
 12 13  1  0
 12 11  2  0
 13 14  1  0
 14 15  2  0
 16  9  1  0
 17 16  2  0
 18 16  1  0
 19 18  1  0
 19 24  1  0
 19 20  1  6
 21 20  1  0
 22 21  1  0
 22 26  1  0
 23 22  2  0
 24 27  1  0
 25 24  2  0
M  END
$$$$
