VHE.pdb
     RDKit          3D

 27 27  0  0  1  0  0  0  0  0999 V2000
   27.7832  -20.7717  -15.0182 C   0  0  0  0  0  0  0  0  0  0  0  0
   27.0384  -19.4753  -14.8909 C   0  0  1  0  0  0  0  0  0  0  0  0
   27.7502  -18.3375  -15.5920 C   0  0  0  0  0  0  0  0  0  0  0  0
   25.6913  -19.6493  -15.5876 C   0  0  2  0  0  0  0  0  0  0  0  0
   25.0185  -18.3784  -15.7407 N   0  0  0  0  0  0  0  0  0  0  0  0
   24.8440  -20.5299  -14.7508 C   0  0  0  0  0  0  0  0  0  0  0  0
   25.0908  -21.7583  -14.5940 O   0  0  0  0  0  0  0  0  0  0  0  0
   23.7208  -19.9862  -14.1030 N   0  0  0  0  0  0  0  0  0  0  0  0
   22.8529  -20.8023  -13.2139 C   0  0  1  0  0  0  0  0  0  0  0  0
   22.9557  -20.1543  -11.8798 C   0  0  0  0  0  0  0  0  0  0  0  0
   24.0641  -20.5833  -11.0190 C   0  0  0  0  0  0  0  0  0  0  0  0
   25.0109  -21.5421  -11.2821 C   0  0  0  0  0  0  0  0  0  0  0  0
   25.8586  -21.6846  -10.2443 N   0  0  0  0  0  0  0  0  0  0  0  0
   25.4525  -20.8064   -9.3009 C   0  0  0  0  0  0  0  0  0  0  0  0
   24.3765  -20.1447   -9.7632 N   0  0  0  0  0  0  0  0  0  0  0  0
   21.5376  -20.8141  -13.8505 C   0  0  0  0  0  0  0  0  0  0  0  0
   21.0426  -19.7849  -14.3648 O   0  0  0  0  0  0  0  0  0  0  0  0
   20.7799  -22.0104  -13.9064 N   0  0  0  0  0  0  0  0  0  0  0  0
   19.4394  -22.0540  -14.4555 C   0  0  1  0  0  0  0  0  0  0  0  0
   19.1067  -23.5140  -14.7077 C   0  0  0  0  0  0  0  0  0  0  0  0
   17.7410  -23.6726  -15.3298 C   0  0  0  0  0  0  0  0  0  0  0  0
   17.4184  -25.1063  -15.5622 C   0  0  0  0  0  0  0  0  0  0  0  0
   16.3153  -25.4107  -16.0763 O   0  0  0  0  0  0  0  0  0  0  0  0
   18.4196  -21.3679  -13.6771 C   0  0  0  0  0  0  0  0  0  0  0  0
   18.2778  -21.3269  -12.4460 O   0  0  0  0  0  0  0  0  0  0  0  0
   18.2964  -26.1294  -15.2301 O   0  0  0  0  0  0  0  0  0  0  0  0
   17.4565  -20.6484  -14.4156 O   0  0  0  0  0  0  0  0  0  0  0  0
  2  1  1  6
  2  4  1  0
  2  3  1  0
  4  5  1  1
  6  4  1  0
  6  7  2  0
  8  6  1  0
  9  8  1  0
  9 10  1  1
 11 10  1  0
 11 15  1  0
 12 13  1  0
 12 11  2  0
 13 14  1  0
 14 15  2  0
 16  9  1  0
 17 16  2  0
 18 16  1  0
 19 18  1  0
 19 24  1  0
 19 20  1  1
 21 20  1  0
 22 21  1  0
 22 26  1  0
 23 22  2  0
 24 27  1  0
 25 24  2  0
M  END
$$$$
