VHE.pdb
     RDKit          3D

 27 27  0  0  1  0  0  0  0  0999 V2000
   20.1365  -13.7235  -19.0802 C   0  0  0  0  0  0  0  0  0  0  0  0
   19.5041  -12.6069  -18.3024 C   0  0  1  0  0  0  0  0  0  0  0  0
   18.6713  -13.1180  -17.1457 C   0  0  0  0  0  0  0  0  0  0  0  0
   20.6308  -11.7714  -17.6998 C   0  0  2  0  0  0  0  0  0  0  0  0
   21.3274  -12.5071  -16.6680 N   0  0  0  0  0  0  0  0  0  0  0  0
   20.0374  -10.5587  -17.0910 C   0  0  0  0  0  0  0  0  0  0  0  0
   19.4184   -9.6928  -17.7702 O   0  0  0  0  0  0  0  0  0  0  0  0
   20.1631  -10.3560  -15.7053 N   0  0  0  0  0  0  0  0  0  0  0  0
   19.5249   -9.2033  -15.0171 C   0  0  1  0  0  0  0  0  0  0  0  0
   18.6643   -9.8128  -13.9690 C   0  0  0  0  0  0  0  0  0  0  0  0
   17.2814  -10.1257  -14.3472 C   0  0  0  0  0  0  0  0  0  0  0  0
   16.6641   -9.8880  -15.5503 C   0  0  0  0  0  0  0  0  0  0  0  0
   15.3773  -10.2872  -15.5227 N   0  0  0  0  0  0  0  0  0  0  0  0
   15.1633  -10.7883  -14.2860 C   0  0  0  0  0  0  0  0  0  0  0  0
   16.3038  -10.6926  -13.5793 N   0  0  0  0  0  0  0  0  0  0  0  0
   20.6260   -8.3549  -14.5664 C   0  0  0  0  0  0  0  0  0  0  0  0
   21.7766   -8.8111  -14.3750 O   0  0  0  0  0  0  0  0  0  0  0  0
   20.4165   -6.9725  -14.3355 N   0  0  0  0  0  0  0  0  0  0  0  0
   21.5113   -6.0491  -14.1133 C   0  0  1  0  0  0  0  0  0  0  0  0
   22.3219   -5.9995  -15.3965 C   0  0  0  0  0  0  0  0  0  0  0  0
   23.4589   -5.0122  -15.2968 C   0  0  0  0  0  0  0  0  0  0  0  0
   23.9153   -4.5789  -16.6449 C   0  0  0  0  0  0  0  0  0  0  0  0
   23.5057   -5.1951  -17.6580 O   0  0  0  0  0  0  0  0  0  0  0  0
   21.1316   -4.7294  -13.6330 C   0  0  0  0  0  0  0  0  0  0  0  0
   20.1215   -4.0637  -13.9056 O   0  0  0  0  0  0  0  0  0  0  0  0
   24.7836   -3.5110  -16.8283 O   0  0  0  0  0  0  0  0  0  0  0  0
   22.0291   -4.1157  -12.7339 O   0  0  0  0  0  0  0  0  0  0  0  0
  2  1  1  1
  2  4  1  0
  2  3  1  0
  4  5  1  1
  6  4  1  0
  6  7  2  0
  8  6  1  0
  9  8  1  0
  9 10  1  1
 11 10  1  0
 11 15  1  0
 12 13  1  0
 12 11  2  0
 13 14  1  0
 14 15  2  0
 16  9  1  0
 17 16  2  0
 18 16  1  0
 19 18  1  0
 19 24  1  0
 19 20  1  6
 21 20  1  0
 22 21  1  0
 22 26  1  0
 23 22  2  0
 24 27  1  0
 25 24  2  0
M  END
$$$$
