VPQ.pdb
     RDKit          3D

 24 24  0  0  1  0  0  0  0  0999 V2000
    7.7471  -14.6403   16.2357 C   0  0  0  0  0  0  0  0  0  0  0  0
    8.5378  -14.7612   17.5099 C   0  0  2  0  0  0  0  0  0  0  0  0
    8.2501  -16.0445   18.2086 C   0  0  0  0  0  0  0  0  0  0  0  0
    8.4604  -13.5222   18.3724 C   0  0  2  0  0  0  0  0  0  0  0  0
    8.8222  -12.3209   17.6893 N   0  0  0  0  0  0  0  0  0  0  0  0
    9.1712  -13.7964   19.6202 C   0  0  0  0  0  0  0  0  0  0  0  0
   10.4240  -13.6847   19.6127 O   0  0  0  0  0  0  0  0  0  0  0  0
    8.5434  -14.1864   20.8633 N   0  0  0  0  0  0  0  0  0  0  0  0
    7.1394  -14.4667   20.9353 C   0  0  0  0  0  0  0  0  0  0  0  0
    6.8839  -14.8440   22.3618 C   0  0  0  0  0  0  0  0  0  0  0  0
    8.0625  -14.3392   23.1420 C   0  0  0  0  0  0  0  0  0  0  0  0
    9.1625  -14.3446   22.1247 C   0  0  1  0  0  0  0  0  0  0  0  0
    9.9049  -15.6340   22.2627 C   0  0  0  0  0  0  0  0  0  0  0  0
    9.3588  -16.6942   21.8628 O   0  0  0  0  0  0  0  0  0  0  0  0
   14.3525  -14.5625   19.3399 N   0  0  0  0  0  0  0  0  0  0  0  0
   14.6029  -15.1639   20.6095 C   0  0  0  0  0  0  0  0  0  0  0  0
   15.7774  -15.5153   20.8604 O   0  0  0  0  0  0  0  0  0  0  0  0
   13.5441  -15.3788   21.6070 C   0  0  0  0  0  0  0  0  0  0  0  0
   13.1087  -16.8033   21.7742 C   0  0  0  0  0  0  0  0  0  0  0  0
   12.0238  -16.9287   22.7842 C   0  0  2  0  0  0  0  0  0  0  0  0
   11.2010  -15.7107   22.8264 N   0  0  0  0  0  0  0  0  0  0  0  0
   12.6274  -17.0617   24.1425 C   0  0  0  0  0  0  0  0  0  0  0  0
   12.4121  -16.1898   25.1961 O   0  0  0  0  0  0  0  0  0  0  0  0
   13.4170  -18.0319   24.4269 O   0  0  0  0  0  0  0  0  0  0  0  0
  2  1  1  6
  2  3  1  0
  4  6  1  0
  4  2  1  0
  4  5  1  6
  6  8  1  0
  6  7  2  0
  8  9  1  0
 10  9  1  0
 11 10  1  0
 11 12  1  0
 12  8  1  0
 12 13  1  6
 14 13  2  0
 16 15  1  0
 17 16  2  0
 18 16  1  0
 19 18  1  0
 20 21  1  0
 20 19  1  6
 21 13  1  0
 22 20  1  0
 23 22  1  0
 24 22  2  0
M  END
$$$$
