VPQ.pdb
     RDKit          3D

 24 24  0  0  1  0  0  0  0  0999 V2000
    7.7452  -16.2668   22.4542 C   0  0  0  0  0  0  0  0  0  0  0  0
    7.1697  -14.9134   22.1368 C   0  0  2  0  0  0  0  0  0  0  0  0
    6.3775  -14.9415   20.8761 C   0  0  0  0  0  0  0  0  0  0  0  0
    8.1879  -13.8007   22.2376 C   0  0  2  0  0  0  0  0  0  0  0  0
    9.1447  -13.7972   21.1769 N   0  0  0  0  0  0  0  0  0  0  0  0
    8.7278  -13.8053   23.5963 C   0  0  0  0  0  0  0  0  0  0  0  0
    9.9177  -14.1835   23.7481 O   0  0  0  0  0  0  0  0  0  0  0  0
    7.9977  -13.4080   24.7797 N   0  0  0  0  0  0  0  0  0  0  0  0
    6.6349  -12.9694   24.7045 C   0  0  0  0  0  0  0  0  0  0  0  0
    6.2375  -12.6689   26.1167 C   0  0  0  0  0  0  0  0  0  0  0  0
    7.5179  -12.5261   26.8867 C   0  0  0  0  0  0  0  0  0  0  0  0
    8.4700  -13.3858   26.1123 C   0  0  1  0  0  0  0  0  0  0  0  0
    8.4928  -14.7344   26.7553 C   0  0  0  0  0  0  0  0  0  0  0  0
    7.4527  -15.4409   26.7202 O   0  0  0  0  0  0  0  0  0  0  0  0
   12.0720  -19.0830   25.4060 N   0  0  0  0  0  0  0  0  0  0  0  0
   12.4013  -17.7159   25.6486 C   0  0  0  0  0  0  0  0  0  0  0  0
   13.3654  -17.2328   25.0140 O   0  0  0  0  0  0  0  0  0  0  0  0
   11.6579  -16.8793   26.6023 C   0  0  0  0  0  0  0  0  0  0  0  0
   10.4657  -17.5370   27.2292 C   0  0  0  0  0  0  0  0  0  0  0  0
    9.6744  -16.5746   28.0419 C   0  0  2  0  0  0  0  0  0  0  0  0
    9.6404  -15.2503   27.4036 N   0  0  0  0  0  0  0  0  0  0  0  0
   10.3436  -16.3758   29.3609 C   0  0  0  0  0  0  0  0  0  0  0  0
   10.5550  -17.3689   30.3019 O   0  0  0  0  0  0  0  0  0  0  0  0
   10.7798  -15.2233   29.7178 O   0  0  0  0  0  0  0  0  0  0  0  0
  2  1  1  6
  2  3  1  0
  4  6  1  0
  4  2  1  0
  4  5  1  6
  6  8  1  0
  6  7  2  0
  8  9  1  0
 10  9  1  0
 11 10  1  0
 11 12  1  0
 12  8  1  0
 12 13  1  1
 14 13  2  0
 16 15  1  0
 17 16  2  0
 18 16  1  0
 19 18  1  0
 20 21  1  0
 20 19  1  6
 21 13  1  0
 22 20  1  0
 23 22  1  0
 24 22  2  0
M  END
$$$$
