VPQ.pdb
     RDKit          3D

 24 24  0  0  1  0  0  0  0  0999 V2000
    6.7488  -15.2511   20.4446 C   0  0  0  0  0  0  0  0  0  0  0  0
    7.4239  -15.1382   21.7844 C   0  0  2  0  0  0  0  0  0  0  0  0
    6.5661  -15.6830   22.8731 C   0  0  0  0  0  0  0  0  0  0  0  0
    8.0016  -13.7650   22.0404 C   0  0  2  0  0  0  0  0  0  0  0  0
    8.7809  -13.2565   20.9565 N   0  0  0  0  0  0  0  0  0  0  0  0
    8.6507  -13.7859   23.3503 C   0  0  0  0  0  0  0  0  0  0  0  0
    9.8323  -14.2128   23.4073 O   0  0  0  0  0  0  0  0  0  0  0  0
    8.0372  -13.3527   24.5862 N   0  0  0  0  0  0  0  0  0  0  0  0
    6.7249  -12.7760   24.6068 C   0  0  0  0  0  0  0  0  0  0  0  0
    6.4455  -12.4800   26.0480 C   0  0  0  0  0  0  0  0  0  0  0  0
    7.7774  -12.4915   26.7398 C   0  0  0  0  0  0  0  0  0  0  0  0
    8.5878  -13.4193   25.8869 C   0  0  1  0  0  0  0  0  0  0  0  0
    8.5096  -14.7822   26.4943 C   0  0  0  0  0  0  0  0  0  0  0  0
    7.4156  -15.4018   26.4555 O   0  0  0  0  0  0  0  0  0  0  0  0
   11.7759  -19.2505   24.6817 N   0  0  0  0  0  0  0  0  0  0  0  0
   12.3753  -18.1233   25.3194 C   0  0  0  0  0  0  0  0  0  0  0  0
   13.5341  -17.8091   24.9670 O   0  0  0  0  0  0  0  0  0  0  0  0
   11.6861  -17.3402   26.3558 C   0  0  0  0  0  0  0  0  0  0  0  0
   10.2462  -17.6977   26.5695 C   0  0  0  0  0  0  0  0  0  0  0  0
    9.6033  -16.8036   27.5695 C   0  0  2  0  0  0  0  0  0  0  0  0
    9.6196  -15.4059   27.1129 N   0  0  0  0  0  0  0  0  0  0  0  0
   10.3940  -16.8296   28.8349 C   0  0  0  0  0  0  0  0  0  0  0  0
   10.5576  -17.9391   29.6465 O   0  0  0  0  0  0  0  0  0  0  0  0
   10.9931  -15.7802   29.2659 O   0  0  0  0  0  0  0  0  0  0  0  0
  2  1  1  6
  2  3  1  0
  4  6  1  0
  4  2  1  0
  4  5  1  6
  6  8  1  0
  6  7  2  0
  8  9  1  0
 10  9  1  0
 11 10  1  0
 11 12  1  0
 12  8  1  0
 12 13  1  1
 14 13  2  0
 16 15  1  0
 17 16  2  0
 18 16  1  0
 19 18  1  0
 20 21  1  0
 20 19  1  6
 21 13  1  0
 22 20  1  0
 23 22  1  0
 24 22  2  0
M  END
$$$$
