VPQ.pdb
     RDKit          3D

 24 24  0  0  1  0  0  0  0  0999 V2000
    5.3986  -18.3157   19.4033 C   0  0  0  0  0  0  0  0  0  0  0  0
    6.6809  -17.5402   19.5365 C   0  0  2  0  0  0  0  0  0  0  0  0
    6.7483  -16.8201   20.8383 C   0  0  0  0  0  0  0  0  0  0  0  0
    6.9944  -16.7043   18.3166 C   0  0  2  0  0  0  0  0  0  0  0  0
    6.8553  -17.4106   17.0827 N   0  0  0  0  0  0  0  0  0  0  0  0
    8.2781  -16.0417   18.5418 C   0  0  0  0  0  0  0  0  0  0  0  0
    9.3226  -16.7072   18.3232 O   0  0  0  0  0  0  0  0  0  0  0  0
    8.4385  -14.6784   18.9971 N   0  0  0  0  0  0  0  0  0  0  0  0
    7.3058  -13.8348   19.2431 C   0  0  0  0  0  0  0  0  0  0  0  0
    7.8770  -12.5310   19.7082 C   0  0  0  0  0  0  0  0  0  0  0  0
    9.3183  -12.5365   19.2894 C   0  0  0  0  0  0  0  0  0  0  0  0
    9.6501  -13.9973   19.2566 C   0  0  1  0  0  0  0  0  0  0  0  0
   10.2612  -14.3557   20.5722 C   0  0  0  0  0  0  0  0  0  0  0  0
    9.5050  -14.6738   21.5258 O   0  0  0  0  0  0  0  0  0  0  0  0
   10.5888  -18.5216   22.6574 N   0  0  0  0  0  0  0  0  0  0  0  0
   11.9974  -18.3966   22.8489 C   0  0  0  0  0  0  0  0  0  0  0  0
   12.4788  -18.8542   23.9093 O   0  0  0  0  0  0  0  0  0  0  0  0
   12.8779  -17.7585   21.8590 C   0  0  0  0  0  0  0  0  0  0  0  0
   12.2232  -16.7132   21.0072 C   0  0  0  0  0  0  0  0  0  0  0  0
   12.3474  -15.3593   21.6108 C   0  0  2  0  0  0  0  0  0  0  0  0
   11.6600  -14.3519   20.7892 N   0  0  0  0  0  0  0  0  0  0  0  0
   13.7847  -14.9583   21.6315 C   0  0  0  0  0  0  0  0  0  0  0  0
   14.6629  -15.2044   22.6731 O   0  0  0  0  0  0  0  0  0  0  0  0
   14.3147  -14.3332   20.6445 O   0  0  0  0  0  0  0  0  0  0  0  0
  2  1  1  6
  2  3  1  0
  4  6  1  0
  4  2  1  0
  4  5  1  6
  6  8  1  0
  6  7  2  0
  8  9  1  0
 10  9  1  0
 11 10  1  0
 11 12  1  0
 12  8  1  0
 12 13  1  1
 14 13  2  0
 16 15  1  0
 17 16  2  0
 18 16  1  0
 19 18  1  0
 20 21  1  0
 20 19  1  6
 21 13  1  0
 22 20  1  0
 23 22  1  0
 24 22  2  0
M  END
$$$$
