VPQ.pdb
     RDKit          3D

 24 24  0  0  1  0  0  0  0  0999 V2000
    5.8197  -11.7947   26.3626 C   0  0  0  0  0  0  0  0  0  0  0  0
    6.7819  -12.8559   25.9027 C   0  0  2  0  0  0  0  0  0  0  0  0
    7.8149  -12.2943   24.9888 C   0  0  0  0  0  0  0  0  0  0  0  0
    6.0901  -14.1058   25.4085 C   0  0  2  0  0  0  0  0  0  0  0  0
    5.2370  -14.7145   26.3793 N   0  0  0  0  0  0  0  0  0  0  0  0
    7.1008  -14.9708   24.8020 C   0  0  0  0  0  0  0  0  0  0  0  0
    7.6409  -15.8376   25.5359 O   0  0  0  0  0  0  0  0  0  0  0  0
    7.5271  -14.9056   23.4216 N   0  0  0  0  0  0  0  0  0  0  0  0
    7.0305  -13.8960   22.5332 C   0  0  0  0  0  0  0  0  0  0  0  0
    7.7103  -14.1520   21.2237 C   0  0  0  0  0  0  0  0  0  0  0  0
    8.2297  -15.5584   21.2938 C   0  0  0  0  0  0  0  0  0  0  0  0
    8.4380  -15.7638   22.7633 C   0  0  1  0  0  0  0  0  0  0  0  0
    9.8680  -15.4563   23.0686 C   0  0  0  0  0  0  0  0  0  0  0  0
   10.2769  -14.2746   22.9319 O   0  0  0  0  0  0  0  0  0  0  0  0
    9.8859  -15.2973   28.5589 N   0  0  0  0  0  0  0  0  0  0  0  0
   11.1338  -15.9720   28.4039 C   0  0  0  0  0  0  0  0  0  0  0  0
   11.6439  -16.4843   29.4251 O   0  0  0  0  0  0  0  0  0  0  0  0
   11.8215  -16.0780   27.1085 C   0  0  0  0  0  0  0  0  0  0  0  0
   10.9231  -16.0558   25.9089 C   0  0  0  0  0  0  0  0  0  0  0  0
   11.6891  -16.2476   24.6482 C   0  0  2  0  0  0  0  0  0  0  0  0
   10.7831  -16.4433   23.5067 N   0  0  0  0  0  0  0  0  0  0  0  0
   12.4976  -17.4980   24.7476 C   0  0  0  0  0  0  0  0  0  0  0  0
   12.0225  -18.7732   24.4933 O   0  0  0  0  0  0  0  0  0  0  0  0
   13.7331  -17.4651   25.0913 O   0  0  0  0  0  0  0  0  0  0  0  0
  2  1  1  6
  2  3  1  0
  4  6  1  0
  4  2  1  0
  4  5  1  1
  6  8  1  0
  6  7  2  0
  8  9  1  0
 10  9  1  0
 11 10  1  0
 11 12  1  0
 12  8  1  0
 12 13  1  1
 14 13  2  0
 16 15  1  0
 17 16  2  0
 18 16  1  0
 19 18  1  0
 20 21  1  0
 20 19  1  1
 21 13  1  0
 22 20  1  0
 23 22  1  0
 24 22  2  0
M  END
$$$$
