VPQ.pdb
     RDKit          3D

 24 24  0  0  1  0  0  0  0  0999 V2000
    6.4816  -16.1044   20.9687 C   0  0  0  0  0  0  0  0  0  0  0  0
    7.2916  -15.7792   22.1940 C   0  0  2  0  0  0  0  0  0  0  0  0
    6.6399  -16.2955   23.4295 C   0  0  0  0  0  0  0  0  0  0  0  0
    7.7267  -14.3324   22.2470 C   0  0  2  0  0  0  0  0  0  0  0  0
    8.3431  -13.8716   21.0436 N   0  0  0  0  0  0  0  0  0  0  0  0
    8.4869  -14.1351   23.4802 C   0  0  0  0  0  0  0  0  0  0  0  0
    9.7248  -14.3544   23.4419 O   0  0  0  0  0  0  0  0  0  0  0  0
    7.9238  -13.7067   24.7414 N   0  0  0  0  0  0  0  0  0  0  0  0
    6.5172  -13.4731   24.8906 C   0  0  0  0  0  0  0  0  0  0  0  0
    6.3330  -13.0669   26.3202 C   0  0  0  0  0  0  0  0  0  0  0  0
    7.6904  -12.6586   26.8137 C   0  0  0  0  0  0  0  0  0  0  0  0
    8.6144  -13.4629   25.9510 C   0  0  1  0  0  0  0  0  0  0  0  0
    8.9633  -14.7105   26.6957 C   0  0  0  0  0  0  0  0  0  0  0  0
    8.0702  -15.5769   26.8797 O   0  0  0  0  0  0  0  0  0  0  0  0
   13.7948  -16.6930   23.9566 N   0  0  0  0  0  0  0  0  0  0  0  0
   13.1876  -16.1068   25.1073 C   0  0  0  0  0  0  0  0  0  0  0  0
   13.7434  -15.1021   25.6048 O   0  0  0  0  0  0  0  0  0  0  0  0
   11.9571  -16.6388   25.7115 C   0  0  0  0  0  0  0  0  0  0  0  0
   11.9616  -16.7036   27.2090 C   0  0  0  0  0  0  0  0  0  0  0  0
   10.6656  -16.2482   27.7800 C   0  0  2  0  0  0  0  0  0  0  0  0
   10.2613  -14.9573   27.2035 N   0  0  0  0  0  0  0  0  0  0  0  0
   10.8282  -16.0093   29.2440 C   0  0  0  0  0  0  0  0  0  0  0  0
   11.1134  -16.9873   30.1814 O   0  0  0  0  0  0  0  0  0  0  0  0
   10.7063  -14.8338   29.7432 O   0  0  0  0  0  0  0  0  0  0  0  0
  2  1  1  6
  2  3  1  0
  4  6  1  0
  4  2  1  0
  4  5  1  6
  6  8  1  0
  6  7  2  0
  8  9  1  0
 10  9  1  0
 11 10  1  0
 11 12  1  0
 12  8  1  0
 12 13  1  1
 14 13  2  0
 16 15  1  0
 17 16  2  0
 18 16  1  0
 19 18  1  0
 20 21  1  0
 20 19  1  6
 21 13  1  0
 22 20  1  0
 23 22  1  0
 24 22  2  0
M  END
$$$$
