VPQ.pdb
     RDKit          3D

 24 24  0  0  1  0  0  0  0  0999 V2000
    8.1654  -16.3993   22.4977 C   0  0  0  0  0  0  0  0  0  0  0  0
    7.1322  -15.3497   22.1906 C   0  0  2  0  0  0  0  0  0  0  0  0
    6.2580  -15.7623   21.0577 C   0  0  0  0  0  0  0  0  0  0  0  0
    7.7163  -13.9595   22.0855 C   0  0  2  0  0  0  0  0  0  0  0  0
    8.4460  -13.7307   20.8789 N   0  0  0  0  0  0  0  0  0  0  0  0
    8.4221  -13.6714   23.3331 C   0  0  0  0  0  0  0  0  0  0  0  0
    9.6732  -13.8001   23.3368 O   0  0  0  0  0  0  0  0  0  0  0  0
    7.7909  -13.2494   24.5639 N   0  0  0  0  0  0  0  0  0  0  0  0
    6.3811  -12.9984   24.6326 C   0  0  0  0  0  0  0  0  0  0  0  0
    6.1179  -12.6057   26.0536 C   0  0  0  0  0  0  0  0  0  0  0  0
    7.4489  -12.2215   26.6312 C   0  0  0  0  0  0  0  0  0  0  0  0
    8.4119  -13.0287   25.8150 C   0  0  1  0  0  0  0  0  0  0  0  0
    8.6998  -14.2891   26.5640 C   0  0  0  0  0  0  0  0  0  0  0  0
    7.8837  -15.2428   26.4830 O   0  0  0  0  0  0  0  0  0  0  0  0
   11.9910  -18.1600   25.2197 N   0  0  0  0  0  0  0  0  0  0  0  0
   12.4149  -18.3590   26.5677 C   0  0  0  0  0  0  0  0  0  0  0  0
   12.8945  -19.4763   26.8631 O   0  0  0  0  0  0  0  0  0  0  0  0
   12.3049  -17.3130   27.5953 C   0  0  0  0  0  0  0  0  0  0  0  0
   11.7080  -16.0210   27.1249 C   0  0  0  0  0  0  0  0  0  0  0  0
   10.3826  -15.7705   27.7522 C   0  0  2  0  0  0  0  0  0  0  0  0
    9.8568  -14.4536   27.3628 N   0  0  0  0  0  0  0  0  0  0  0  0
   10.5394  -15.7259   29.2356 C   0  0  0  0  0  0  0  0  0  0  0  0
   10.6510  -16.8353   30.0561 O   0  0  0  0  0  0  0  0  0  0  0  0
   10.5797  -14.6095   29.8664 O   0  0  0  0  0  0  0  0  0  0  0  0
  2  1  1  6
  2  3  1  0
  4  6  1  0
  4  2  1  0
  4  5  1  6
  6  8  1  0
  6  7  2  0
  8  9  1  0
 10  9  1  0
 11 10  1  0
 11 12  1  0
 12  8  1  0
 12 13  1  1
 14 13  2  0
 16 15  1  0
 17 16  2  0
 18 16  1  0
 19 18  1  0
 20 21  1  0
 20 19  1  6
 21 13  1  0
 22 20  1  0
 23 22  1  0
 24 22  2  0
M  END
$$$$
