VPQ.pdb
     RDKit          3D

 24 24  0  0  1  0  0  0  0  0999 V2000
   12.8930  -16.7843   17.8015 C   0  0  0  0  0  0  0  0  0  0  0  0
   12.1930  -16.2423   19.0178 C   0  0  2  0  0  0  0  0  0  0  0  0
   11.0631  -17.1199   19.4313 C   0  0  0  0  0  0  0  0  0  0  0  0
   11.8625  -14.7717   18.9023 C   0  0  2  0  0  0  0  0  0  0  0  0
   12.9658  -13.9638   18.4894 N   0  0  0  0  0  0  0  0  0  0  0  0
   11.1860  -14.3636   20.1325 C   0  0  0  0  0  0  0  0  0  0  0  0
   11.9053  -14.0214   21.1058 O   0  0  0  0  0  0  0  0  0  0  0  0
    9.7521  -14.3232   20.3156 N   0  0  0  0  0  0  0  0  0  0  0  0
    8.8534  -14.6753   19.2556 C   0  0  0  0  0  0  0  0  0  0  0  0
    7.4805  -14.5246   19.8344 C   0  0  0  0  0  0  0  0  0  0  0  0
    7.6379  -13.6716   21.0593 C   0  0  0  0  0  0  0  0  0  0  0  0
    9.0462  -13.9559   21.4845 C   0  0  1  0  0  0  0  0  0  0  0  0
    9.0020  -15.0377   22.5143 C   0  0  0  0  0  0  0  0  0  0  0  0
    9.2594  -16.2184   22.1653 O   0  0  0  0  0  0  0  0  0  0  0  0
    9.5848  -13.4033   28.7630 N   0  0  0  0  0  0  0  0  0  0  0  0
    9.9157  -14.7871   28.6535 C   0  0  0  0  0  0  0  0  0  0  0  0
   10.2574  -15.3836   29.6990 O   0  0  0  0  0  0  0  0  0  0  0  0
    9.8690  -15.5141   27.3762 C   0  0  0  0  0  0  0  0  0  0  0  0
    9.3392  -14.7264   26.2162 C   0  0  0  0  0  0  0  0  0  0  0  0
    9.2516  -15.5572   24.9853 C   0  0  2  0  0  0  0  0  0  0  0  0
    8.6816  -14.7868   23.8701 N   0  0  0  0  0  0  0  0  0  0  0  0
    8.3111  -16.6915   25.2217 C   0  0  0  0  0  0  0  0  0  0  0  0
    8.6743  -17.9368   25.7050 O   0  0  0  0  0  0  0  0  0  0  0  0
    7.0566  -16.5763   24.9788 O   0  0  0  0  0  0  0  0  0  0  0  0
  2  1  1  6
  2  3  1  0
  4  6  1  0
  4  2  1  0
  4  5  1  1
  6  8  1  0
  6  7  2  0
  8  9  1  0
 10  9  1  0
 11 10  1  0
 11 12  1  0
 12  8  1  0
 12 13  1  1
 14 13  2  0
 16 15  1  0
 17 16  2  0
 18 16  1  0
 19 18  1  0
 20 21  1  0
 20 19  1  1
 21 13  1  0
 22 20  1  0
 23 22  1  0
 24 22  2  0
M  END
$$$$
