VPQ.pdb
     RDKit          3D

 24 24  0  0  1  0  0  0  0  0999 V2000
    6.6398  -18.5815   16.8148 C   0  0  0  0  0  0  0  0  0  0  0  0
    7.3898  -17.8543   17.8974 C   0  0  2  0  0  0  0  0  0  0  0  0
    6.5306  -17.6200   19.0910 C   0  0  0  0  0  0  0  0  0  0  0  0
    8.1349  -16.6420   17.3872 C   0  0  2  0  0  0  0  0  0  0  0  0
    8.9089  -16.8932   16.2131 N   0  0  0  0  0  0  0  0  0  0  0  0
    8.8459  -16.0420   18.5150 C   0  0  0  0  0  0  0  0  0  0  0  0
    9.9827  -16.5005   18.7964 O   0  0  0  0  0  0  0  0  0  0  0  0
    8.3413  -14.9609   19.3323 N   0  0  0  0  0  0  0  0  0  0  0  0
    7.0439  -14.3951   19.1048 C   0  0  0  0  0  0  0  0  0  0  0  0
    6.8868  -13.3330   20.1488 C   0  0  0  0  0  0  0  0  0  0  0  0
    8.2701  -13.0353   20.6493 C   0  0  0  0  0  0  0  0  0  0  0  0
    8.9946  -14.3255   20.4136 C   0  0  1  0  0  0  0  0  0  0  0  0
    8.9454  -15.1143   21.6816 C   0  0  0  0  0  0  0  0  0  0  0  0
    7.8774  -15.7041   21.9881 O   0  0  0  0  0  0  0  0  0  0  0  0
   13.4278  -18.8598   23.3286 N   0  0  0  0  0  0  0  0  0  0  0  0
   12.4192  -18.7558   22.3244 C   0  0  0  0  0  0  0  0  0  0  0  0
   12.5435  -19.4707   21.3051 O   0  0  0  0  0  0  0  0  0  0  0  0
   11.2662  -17.8519   22.4503 C   0  0  0  0  0  0  0  0  0  0  0  0
   11.2455  -17.0188   23.6962 C   0  0  0  0  0  0  0  0  0  0  0  0
   10.0675  -16.1110   23.7275 C   0  0  2  0  0  0  0  0  0  0  0  0
   10.0546  -15.2251   22.5539 N   0  0  0  0  0  0  0  0  0  0  0  0
   10.1674  -15.2139   24.9159 C   0  0  0  0  0  0  0  0  0  0  0  0
   10.3432  -13.8418   24.8626 O   0  0  0  0  0  0  0  0  0  0  0  0
   10.0955  -15.6805   26.1088 O   0  0  0  0  0  0  0  0  0  0  0  0
  2  1  1  6
  2  3  1  0
  4  6  1  0
  4  2  1  0
  4  5  1  6
  6  8  1  0
  6  7  2  0
  8  9  1  0
 10  9  1  0
 11 10  1  0
 11 12  1  0
 12  8  1  0
 12 13  1  1
 14 13  2  0
 16 15  1  0
 17 16  2  0
 18 16  1  0
 19 18  1  0
 20 21  1  0
 20 19  1  6
 21 13  1  0
 22 20  1  0
 23 22  1  0
 24 22  2  0
M  END
$$$$
