VPQ.pdb
     RDKit          3D

 24 24  0  0  1  0  0  0  0  0999 V2000
    8.3122  -18.7775   21.9654 C   0  0  0  0  0  0  0  0  0  0  0  0
    7.8391  -18.0135   20.7587 C   0  0  2  0  0  0  0  0  0  0  0  0
    7.1360  -18.9030   19.7932 C   0  0  0  0  0  0  0  0  0  0  0  0
    8.9103  -17.1287   20.1631 C   0  0  2  0  0  0  0  0  0  0  0  0
    9.9826  -17.8512   19.5559 N   0  0  0  0  0  0  0  0  0  0  0  0
    9.2862  -16.1364   21.1689 C   0  0  0  0  0  0  0  0  0  0  0  0
   10.3600  -16.3224   21.7967 O   0  0  0  0  0  0  0  0  0  0  0  0
    8.5171  -14.9565   21.4971 N   0  0  0  0  0  0  0  0  0  0  0  0
    7.3379  -14.6050   20.7615 C   0  0  0  0  0  0  0  0  0  0  0  0
    6.8284  -13.3526   21.4054 C   0  0  0  0  0  0  0  0  0  0  0  0
    7.9760  -12.7968   22.1971 C   0  0  0  0  0  0  0  0  0  0  0  0
    8.7792  -14.0190   22.5227 C   0  0  1  0  0  0  0  0  0  0  0  0
    8.3622  -14.4912   23.8776 C   0  0  0  0  0  0  0  0  0  0  0  0
    7.2670  -15.0981   23.9980 O   0  0  0  0  0  0  0  0  0  0  0  0
   11.4511  -17.9929   27.4347 N   0  0  0  0  0  0  0  0  0  0  0  0
   11.5965  -17.2647   26.2161 C   0  0  0  0  0  0  0  0  0  0  0  0
   12.5281  -17.5998   25.4509 O   0  0  0  0  0  0  0  0  0  0  0  0
   10.7043  -16.1567   25.8440 C   0  0  0  0  0  0  0  0  0  0  0  0
    9.6481  -15.8252   26.8546 C   0  0  0  0  0  0  0  0  0  0  0  0
    8.7511  -14.7407   26.3725 C   0  0  2  0  0  0  0  0  0  0  0  0
    9.1517  -14.2828   25.0338 N   0  0  0  0  0  0  0  0  0  0  0  0
    8.8860  -13.5544   27.2678 C   0  0  0  0  0  0  0  0  0  0  0  0
    8.4414  -13.4932   28.5774 O   0  0  0  0  0  0  0  0  0  0  0  0
    9.4440  -12.4737   26.8596 O   0  0  0  0  0  0  0  0  0  0  0  0
  2  1  1  1
  2  3  1  0
  4  6  1  0
  4  2  1  0
  4  5  1  1
  6  8  1  0
  6  7  2  0
  8  9  1  0
 10  9  1  0
 11 10  1  0
 11 12  1  0
 12  8  1  0
 12 13  1  1
 14 13  2  0
 16 15  1  0
 17 16  2  0
 18 16  1  0
 19 18  1  0
 20 21  1  0
 20 19  1  1
 21 13  1  0
 22 20  1  0
 23 22  1  0
 24 22  2  0
M  END
$$$$
