VPQ.pdb
     RDKit          3D

 24 24  0  0  1  0  0  0  0  0999 V2000
    9.2901  -19.3041   21.7695 C   0  0  0  0  0  0  0  0  0  0  0  0
    8.1152  -18.7555   21.0065 C   0  0  2  0  0  0  0  0  0  0  0  0
    7.2174  -19.8453   20.5333 C   0  0  0  0  0  0  0  0  0  0  0  0
    8.5136  -17.7427   19.9574 C   0  0  2  0  0  0  0  0  0  0  0  0
    9.2252  -18.3055   18.8540 N   0  0  0  0  0  0  0  0  0  0  0  0
    9.1564  -16.6190   20.6367 C   0  0  0  0  0  0  0  0  0  0  0  0
   10.4132  -16.5727   20.6231 O   0  0  0  0  0  0  0  0  0  0  0  0
    8.4570  -15.5558   21.3236 N   0  0  0  0  0  0  0  0  0  0  0  0
    7.0331  -15.5825   21.4877 C   0  0  0  0  0  0  0  0  0  0  0  0
    6.6992  -14.3376   22.2502 C   0  0  0  0  0  0  0  0  0  0  0  0
    7.8880  -13.4324   22.1077 C   0  0  0  0  0  0  0  0  0  0  0  0
    9.0178  -14.3956   21.9057 C   0  0  1  0  0  0  0  0  0  0  0  0
    9.6471  -14.6460   23.2376 C   0  0  0  0  0  0  0  0  0  0  0  0
   10.2047  -13.6894   23.8345 O   0  0  0  0  0  0  0  0  0  0  0  0
    9.9525  -13.2661   27.5900 N   0  0  0  0  0  0  0  0  0  0  0  0
    9.5912  -14.4794   28.2485 C   0  0  0  0  0  0  0  0  0  0  0  0
    9.8513  -14.5737   29.4687 O   0  0  0  0  0  0  0  0  0  0  0  0
    8.9387  -15.5963   27.5491 C   0  0  0  0  0  0  0  0  0  0  0  0
    8.7655  -15.4066   26.0724 C   0  0  0  0  0  0  0  0  0  0  0  0
    9.8265  -16.1096   25.3025 C   0  0  2  0  0  0  0  0  0  0  0  0
    9.6409  -15.9191   23.8563 N   0  0  0  0  0  0  0  0  0  0  0  0
    9.7162  -17.5789   25.5389 C   0  0  0  0  0  0  0  0  0  0  0  0
   10.4304  -18.2860   26.4910 O   0  0  0  0  0  0  0  0  0  0  0  0
    8.9207  -18.3061   24.8430 O   0  0  0  0  0  0  0  0  0  0  0  0
  2  1  1  6
  2  3  1  0
  4  6  1  0
  4  2  1  0
  4  5  1  6
  6  8  1  0
  6  7  2  0
  8  9  1  0
 10  9  1  0
 11 10  1  0
 11 12  1  0
 12  8  1  0
 12 13  1  1
 14 13  2  0
 16 15  1  0
 17 16  2  0
 18 16  1  0
 19 18  1  0
 20 21  1  0
 20 19  1  1
 21 13  1  0
 22 20  1  0
 23 22  1  0
 24 22  2  0
M  END
$$$$
