VPQ.pdb
     RDKit          3D

 24 24  0  0  1  0  0  0  0  0999 V2000
    8.0889  -15.7389   21.7606 C   0  0  0  0  0  0  0  0  0  0  0  0
    7.1025  -14.6030   21.7791 C   0  0  2  0  0  0  0  0  0  0  0  0
    6.2174  -14.6319   20.5818 C   0  0  0  0  0  0  0  0  0  0  0  0
    7.7454  -13.2678   22.0776 C   0  0  2  0  0  0  0  0  0  0  0  0
    8.5411  -12.7589   21.0059 N   0  0  0  0  0  0  0  0  0  0  0  0
    8.4006  -13.3642   23.3810 C   0  0  0  0  0  0  0  0  0  0  0  0
    9.6496  -13.5114   23.3948 O   0  0  0  0  0  0  0  0  0  0  0  0
    7.7217  -13.3032   24.6565 N   0  0  0  0  0  0  0  0  0  0  0  0
    6.3071  -13.0862   24.7401 C   0  0  0  0  0  0  0  0  0  0  0  0
    5.9898  -13.1049   26.2035 C   0  0  0  0  0  0  0  0  0  0  0  0
    7.2947  -12.8917   26.9138 C   0  0  0  0  0  0  0  0  0  0  0  0
    8.2961  -13.4367   25.9416 C   0  0  1  0  0  0  0  0  0  0  0  0
    8.5753  -14.8547   26.3214 C   0  0  0  0  0  0  0  0  0  0  0  0
    7.7378  -15.7413   26.0134 O   0  0  0  0  0  0  0  0  0  0  0  0
   14.0519  -17.3207   25.4380 N   0  0  0  0  0  0  0  0  0  0  0  0
   13.0337  -16.5882   24.7575 C   0  0  0  0  0  0  0  0  0  0  0  0
   13.3097  -16.1307   23.6261 O   0  0  0  0  0  0  0  0  0  0  0  0
   11.7011  -16.3601   25.3359 C   0  0  0  0  0  0  0  0  0  0  0  0
   11.5093  -16.8992   26.7213 C   0  0  0  0  0  0  0  0  0  0  0  0
   10.1312  -16.6458   27.2208 C   0  0  2  0  0  0  0  0  0  0  0  0
    9.7470  -15.2414   27.0151 N   0  0  0  0  0  0  0  0  0  0  0  0
   10.0924  -16.8685   28.6959 C   0  0  0  0  0  0  0  0  0  0  0  0
   10.2336  -18.0974   29.3175 O   0  0  0  0  0  0  0  0  0  0  0  0
    9.9165  -15.8935   29.5108 O   0  0  0  0  0  0  0  0  0  0  0  0
  2  1  1  6
  2  3  1  0
  4  6  1  0
  4  2  1  0
  4  5  1  6
  6  8  1  0
  6  7  2  0
  8  9  1  0
 10  9  1  0
 11 10  1  0
 11 12  1  0
 12  8  1  0
 12 13  1  1
 14 13  2  0
 16 15  1  0
 17 16  2  0
 18 16  1  0
 19 18  1  0
 20 21  1  0
 20 19  1  1
 21 13  1  0
 22 20  1  0
 23 22  1  0
 24 22  2  0
M  END
$$$$
