VPQ.pdb
     RDKit          3D

 24 24  0  0  1  0  0  0  0  0999 V2000
    8.2867  -17.9686   17.1388 C   0  0  0  0  0  0  0  0  0  0  0  0
    7.7101  -16.7166   16.5360 C   0  0  2  0  0  0  0  0  0  0  0  0
    6.8817  -17.0220   15.3368 C   0  0  0  0  0  0  0  0  0  0  0  0
    8.7372  -15.6227   16.3527 C   0  0  2  0  0  0  0  0  0  0  0  0
    9.6538  -15.8660   15.2844 N   0  0  0  0  0  0  0  0  0  0  0  0
    9.3273  -15.3348   17.6589 C   0  0  0  0  0  0  0  0  0  0  0  0
   10.4775  -15.7879   17.8903 O   0  0  0  0  0  0  0  0  0  0  0  0
    8.6891  -14.5682   18.7060 N   0  0  0  0  0  0  0  0  0  0  0  0
    7.3599  -14.0540   18.5510 C   0  0  0  0  0  0  0  0  0  0  0  0
    7.0575  -13.3454   19.8352 C   0  0  0  0  0  0  0  0  0  0  0  0
    8.3823  -13.1052   20.4985 C   0  0  0  0  0  0  0  0  0  0  0  0
    9.2286  -14.2212   19.9662 C   0  0  1  0  0  0  0  0  0  0  0  0
    9.1855  -15.3388   20.9571 C   0  0  0  0  0  0  0  0  0  0  0  0
    8.1895  -16.1071   20.9620 O   0  0  0  0  0  0  0  0  0  0  0  0
   12.2395  -19.9183   20.4726 N   0  0  0  0  0  0  0  0  0  0  0  0
   12.8267  -18.6269   20.6266 C   0  0  0  0  0  0  0  0  0  0  0  0
   13.9131  -18.4133   20.0436 O   0  0  0  0  0  0  0  0  0  0  0  0
   12.2063  -17.5657   21.4335 C   0  0  0  0  0  0  0  0  0  0  0  0
   10.8730  -17.9138   22.0234 C   0  0  0  0  0  0  0  0  0  0  0  0
   10.2792  -16.7606   22.7516 C   0  0  2  0  0  0  0  0  0  0  0  0
   10.2227  -15.5685   21.8925 N   0  0  0  0  0  0  0  0  0  0  0  0
   11.1600  -16.3957   23.8997 C   0  0  0  0  0  0  0  0  0  0  0  0
   11.8260  -15.1900   24.0379 O   0  0  0  0  0  0  0  0  0  0  0  0
   11.3631  -17.2130   24.8675 O   0  0  0  0  0  0  0  0  0  0  0  0
  2  1  1  6
  2  3  1  0
  4  6  1  0
  4  2  1  0
  4  5  1  6
  6  8  1  0
  6  7  2  0
  8  9  1  0
 10  9  1  0
 11 10  1  0
 11 12  1  0
 12  8  1  0
 12 13  1  1
 14 13  2  0
 16 15  1  0
 17 16  2  0
 18 16  1  0
 19 18  1  0
 20 21  1  0
 20 19  1  6
 21 13  1  0
 22 20  1  0
 23 22  1  0
 24 22  2  0
M  END
$$$$
