LMH.pdb
     RDKit          3D

 27 27  0  0  1  0  0  0  0  0999 V2000
    7.7897  -12.0219   19.4038 C   0  0  0  0  0  0  0  0  0  0  0  0
    7.7681  -13.4870   19.7395 C   0  0  1  0  0  0  0  0  0  0  0  0
    7.6764  -14.3314   18.5184 C   0  0  0  0  0  0  0  0  0  0  0  0
    8.9466  -13.8057   20.6170 C   0  0  0  0  0  0  0  0  0  0  0  0
    8.8276  -15.1008   21.3380 C   0  0  2  0  0  0  0  0  0  0  0  0
    7.6015  -15.7968   21.0843 N   0  0  0  0  0  0  0  0  0  0  0  0
    8.9701  -14.8528   22.7965 C   0  0  0  0  0  0  0  0  0  0  0  0
   10.0062  -14.2826   23.2757 O   0  0  0  0  0  0  0  0  0  0  0  0
    7.2797  -11.5138   27.8922 C   0  0  0  0  0  0  0  0  0  0  0  0
    6.1064  -11.9475   26.5592 S   0  0  0  0  0  0  0  0  0  0  0  0
    6.9826  -13.0307   25.4179 C   0  0  0  0  0  0  0  0  0  0  0  0
    7.0155  -14.4642   25.8692 C   0  0  0  0  0  0  0  0  0  0  0  0
    8.2000  -15.1167   25.1623 C   0  0  2  0  0  0  0  0  0  0  0  0
    7.9764  -15.2290   23.7368 N   0  0  0  0  0  0  0  0  0  0  0  0
    8.5161  -16.4517   25.7478 C   0  0  0  0  0  0  0  0  0  0  0  0
    7.6017  -17.2240   26.1839 O   0  0  0  0  0  0  0  0  0  0  0  0
    9.8588  -16.8667   25.8195 N   0  0  0  0  0  0  0  0  0  0  0  0
   10.2102  -18.2271   25.3718 C   0  0  1  0  0  0  0  0  0  0  0  0
    9.8823  -18.3858   23.9129 C   0  0  0  0  0  0  0  0  0  0  0  0
   10.1049  -19.7756   23.4937 C   0  0  0  0  0  0  0  0  0  0  0  0
   10.4968  -20.8209   24.3290 C   0  0  0  0  0  0  0  0  0  0  0  0
   10.5866  -21.9217   23.5569 N   0  0  0  0  0  0  0  0  0  0  0  0
   10.2723  -21.6160   22.2912 C   0  0  0  0  0  0  0  0  0  0  0  0
    9.9836  -20.3048   22.2811 N   0  0  0  0  0  0  0  0  0  0  0  0
   11.6515  -18.4771   25.6084 C   0  0  0  0  0  0  0  0  0  0  0  0
   12.4719  -17.5794   25.2930 O   0  0  0  0  0  0  0  0  0  0  0  0
   12.1626  -19.6331   26.1561 O   0  0  0  0  0  0  0  0  0  0  0  0
  2  1  1  6
  2  3  1  0
  4  2  1  0
  5  4  1  0
  5  6  1  1
  7  8  2  0
  7  5  1  0
 10  9  1  0
 11 10  1  0
 11 12  1  0
 13 12  1  1
 13 14  1  0
 14  7  1  0
 15 16  2  0
 15 13  1  0
 17 15  1  0
 18 19  1  6
 18 17  1  0
 20 19  1  0
 20 21  2  0
 22 21  1  0
 23 24  2  0
 23 22  1  0
 24 20  1  0
 25 18  1  0
 26 25  2  0
 27 25  1  0
M  END
$$$$
