LMH.pdb
     RDKit          3D

 27 27  0  0  1  0  0  0  0  0999 V2000
    7.3828  -11.9173   19.1783 C   0  0  0  0  0  0  0  0  0  0  0  0
    7.5512  -13.3449   19.6179 C   0  0  1  0  0  0  0  0  0  0  0  0
    6.8948  -14.2926   18.6778 C   0  0  0  0  0  0  0  0  0  0  0  0
    9.0123  -13.6189   19.8425 C   0  0  0  0  0  0  0  0  0  0  0  0
    9.2798  -14.8570   20.6217 C   0  0  2  0  0  0  0  0  0  0  0  0
    8.3165  -15.8960   20.4108 N   0  0  0  0  0  0  0  0  0  0  0  0
    9.3361  -14.5119   22.0663 C   0  0  0  0  0  0  0  0  0  0  0  0
    9.4658  -13.3040   22.4566 O   0  0  0  0  0  0  0  0  0  0  0  0
    7.1477  -12.0346   28.3452 C   0  0  0  0  0  0  0  0  0  0  0  0
    6.7484  -12.6178   26.6594 S   0  0  0  0  0  0  0  0  0  0  0  0
    8.0481  -13.7679   26.1780 C   0  0  0  0  0  0  0  0  0  0  0  0
    7.9841  -14.1609   24.7285 C   0  0  0  0  0  0  0  0  0  0  0  0
    9.1450  -15.1209   24.4855 C   0  0  2  0  0  0  0  0  0  0  0  0
    9.2501  -15.4905   23.0901 N   0  0  0  0  0  0  0  0  0  0  0  0
    9.0341  -16.3379   25.3408 C   0  0  0  0  0  0  0  0  0  0  0  0
    8.0518  -17.1419   25.2353 O   0  0  0  0  0  0  0  0  0  0  0  0
   10.0410  -16.6027   26.2876 N   0  0  0  0  0  0  0  0  0  0  0  0
   10.4870  -17.9944   26.4847 C   0  0  1  0  0  0  0  0  0  0  0  0
   11.9064  -18.1480   26.0125 C   0  0  0  0  0  0  0  0  0  0  0  0
   11.9307  -18.4430   24.5740 C   0  0  0  0  0  0  0  0  0  0  0  0
   10.8100  -18.6378   23.7678 C   0  0  0  0  0  0  0  0  0  0  0  0
   11.2651  -18.8813   22.5230 N   0  0  0  0  0  0  0  0  0  0  0  0
   12.6041  -18.8481   22.5141 C   0  0  0  0  0  0  0  0  0  0  0  0
   12.9826  -18.5797   23.7740 N   0  0  0  0  0  0  0  0  0  0  0  0
   10.3757  -18.3594   27.9166 C   0  0  0  0  0  0  0  0  0  0  0  0
   10.7140  -19.5183   28.2644 O   0  0  0  0  0  0  0  0  0  0  0  0
    9.9255  -17.5115   28.9045 O   0  0  0  0  0  0  0  0  0  0  0  0
  2  1  1  6
  2  3  1  0
  4  2  1  0
  5  4  1  0
  5  6  1  1
  7  8  2  0
  7  5  1  0
 10  9  1  0
 11 10  1  0
 11 12  1  0
 13 12  1  6
 13 14  1  0
 14  7  1  0
 15 16  2  0
 15 13  1  0
 17 15  1  0
 18 19  1  1
 18 17  1  0
 20 19  1  0
 20 21  2  0
 22 21  1  0
 23 24  2  0
 23 22  1  0
 24 20  1  0
 25 18  1  0
 26 25  2  0
 27 25  1  0
M  END
$$$$
