LMH.pdb
     RDKit          3D

 27 27  0  0  1  0  0  0  0  0999 V2000
    7.2837  -12.6897   20.4036 C   0  0  0  0  0  0  0  0  0  0  0  0
    7.6146  -13.6495   19.2950 C   0  0  1  0  0  0  0  0  0  0  0  0
    7.6733  -12.9676   17.9743 C   0  0  0  0  0  0  0  0  0  0  0  0
    8.8682  -14.3982   19.6535 C   0  0  0  0  0  0  0  0  0  0  0  0
    8.6350  -15.5799   20.5256 C   0  0  2  0  0  0  0  0  0  0  0  0
    7.3282  -16.1515   20.3928 N   0  0  0  0  0  0  0  0  0  0  0  0
    8.8679  -15.1860   21.9397 C   0  0  0  0  0  0  0  0  0  0  0  0
   10.0181  -14.8095   22.3440 O   0  0  0  0  0  0  0  0  0  0  0  0
    8.0180  -11.9469   28.3940 C   0  0  0  0  0  0  0  0  0  0  0  0
    7.0168  -12.2928   26.9043 S   0  0  0  0  0  0  0  0  0  0  0  0
    7.3649  -13.9917   26.4183 C   0  0  0  0  0  0  0  0  0  0  0  0
    6.9204  -14.3100   25.0180 C   0  0  0  0  0  0  0  0  0  0  0  0
    8.1172  -14.9427   24.3140 C   0  0  2  0  0  0  0  0  0  0  0  0
    7.8399  -15.2030   22.9175 N   0  0  0  0  0  0  0  0  0  0  0  0
    8.5556  -16.1922   25.0007 C   0  0  0  0  0  0  0  0  0  0  0  0
    7.7562  -17.1651   25.1931 O   0  0  0  0  0  0  0  0  0  0  0  0
    9.8862  -16.2969   25.4466 N   0  0  0  0  0  0  0  0  0  0  0  0
   10.3875  -17.6094   25.8947 C   0  0  1  0  0  0  0  0  0  0  0  0
   11.7329  -17.8797   25.2800 C   0  0  0  0  0  0  0  0  0  0  0  0
   12.2606  -19.1620   25.7639 C   0  0  0  0  0  0  0  0  0  0  0  0
   11.5216  -20.1477   26.4166 C   0  0  0  0  0  0  0  0  0  0  0  0
   12.3740  -21.1553   26.6888 N   0  0  0  0  0  0  0  0  0  0  0  0
   13.5985  -20.8481   26.2413 C   0  0  0  0  0  0  0  0  0  0  0  0
   13.5012  -19.6308   25.6834 N   0  0  0  0  0  0  0  0  0  0  0  0
   10.4800  -17.6335   27.3735 C   0  0  0  0  0  0  0  0  0  0  0  0
   10.8389  -18.7006   27.9310 O   0  0  0  0  0  0  0  0  0  0  0  0
   10.2001  -16.5597   28.1897 O   0  0  0  0  0  0  0  0  0  0  0  0
  2  1  1  1
  2  3  1  0
  4  2  1  0
  5  4  1  0
  5  6  1  1
  7  8  2  0
  7  5  1  0
 10  9  1  0
 11 10  1  0
 11 12  1  0
 13 12  1  1
 13 14  1  0
 14  7  1  0
 15 16  2  0
 15 13  1  0
 17 15  1  0
 18 19  1  6
 18 17  1  0
 20 19  1  0
 20 21  2  0
 22 21  1  0
 23 24  2  0
 23 22  1  0
 24 20  1  0
 25 18  1  0
 26 25  2  0
 27 25  1  0
M  END
$$$$
