LMH.pdb
     RDKit          3D

 27 27  0  0  1  0  0  0  0  0999 V2000
    5.1052  -11.5418   26.0476 C   0  0  0  0  0  0  0  0  0  0  0  0
    6.4432  -12.1967   25.8466 C   0  0  1  0  0  0  0  0  0  0  0  0
    7.3608  -11.9385   26.9885 C   0  0  0  0  0  0  0  0  0  0  0  0
    6.2344  -13.6552   25.5469 C   0  0  0  0  0  0  0  0  0  0  0  0
    7.4782  -14.4676   25.6136 C   0  0  2  0  0  0  0  0  0  0  0  0
    8.6665  -13.6951   25.8215 N   0  0  0  0  0  0  0  0  0  0  0  0
    7.6052  -15.2542   24.3589 C   0  0  0  0  0  0  0  0  0  0  0  0
    6.7288  -16.1195   24.0252 O   0  0  0  0  0  0  0  0  0  0  0  0
    7.4005  -11.6243   19.8076 C   0  0  0  0  0  0  0  0  0  0  0  0
    8.3957  -13.1367   19.5552 S   0  0  0  0  0  0  0  0  0  0  0  0
    8.3603  -14.0553   21.1039 C   0  0  0  0  0  0  0  0  0  0  0  0
    9.1689  -15.3217   21.0599 C   0  0  0  0  0  0  0  0  0  0  0  0
    8.9361  -16.0340   22.3890 C   0  0  2  0  0  0  0  0  0  0  0  0
    8.6945  -15.0952   23.4638 N   0  0  0  0  0  0  0  0  0  0  0  0
   10.0736  -16.9366   22.7303 C   0  0  0  0  0  0  0  0  0  0  0  0
   10.9986  -16.5743   23.5277 O   0  0  0  0  0  0  0  0  0  0  0  0
   10.1245  -18.2203   22.1559 N   0  0  0  0  0  0  0  0  0  0  0  0
   10.6153  -19.3475   22.9702 C   0  0  1  0  0  0  0  0  0  0  0  0
    9.8716  -19.3966   24.2762 C   0  0  0  0  0  0  0  0  0  0  0  0
   10.8133  -19.2866   25.3978 C   0  0  0  0  0  0  0  0  0  0  0  0
   12.1867  -19.0751   25.2848 C   0  0  0  0  0  0  0  0  0  0  0  0
   12.6779  -19.0368   26.5392 N   0  0  0  0  0  0  0  0  0  0  0  0
   11.6855  -19.2128   27.4214 C   0  0  0  0  0  0  0  0  0  0  0  0
   10.5627  -19.3623   26.7004 N   0  0  0  0  0  0  0  0  0  0  0  0
   10.4402  -20.6175   22.2271 C   0  0  0  0  0  0  0  0  0  0  0  0
    9.2860  -20.9272   21.8395 O   0  0  0  0  0  0  0  0  0  0  0  0
   11.4615  -21.4915   21.9256 O   0  0  0  0  0  0  0  0  0  0  0  0
  2  1  1  1
  2  3  1  0
  4  2  1  0
  5  4  1  0
  5  6  1  6
  7  8  2  0
  7  5  1  0
 10  9  1  0
 11 10  1  0
 11 12  1  0
 13 12  1  6
 13 14  1  0
 14  7  1  0
 15 16  2  0
 15 13  1  0
 17 15  1  0
 18 19  1  1
 18 17  1  0
 20 19  1  0
 20 21  2  0
 22 21  1  0
 23 24  2  0
 23 22  1  0
 24 20  1  0
 25 18  1  0
 26 25  2  0
 27 25  1  0
M  END
$$$$
