LMH.pdb
     RDKit          3D

 27 27  0  0  1  0  0  0  0  0999 V2000
    7.7908  -11.6353   19.2669 C   0  0  0  0  0  0  0  0  0  0  0  0
    7.8050  -13.1201   19.5006 C   0  0  1  0  0  0  0  0  0  0  0  0
    8.1742  -13.8688   18.2694 C   0  0  0  0  0  0  0  0  0  0  0  0
    8.6803  -13.4210   20.6855 C   0  0  0  0  0  0  0  0  0  0  0  0
    8.6697  -14.8507   21.0943 C   0  0  2  0  0  0  0  0  0  0  0  0
    7.4173  -15.5095   20.8721 N   0  0  0  0  0  0  0  0  0  0  0  0
    9.0352  -14.9413   22.5321 C   0  0  0  0  0  0  0  0  0  0  0  0
   10.1902  -14.5929   22.9476 O   0  0  0  0  0  0  0  0  0  0  0  0
    7.4179  -12.1197   27.8009 C   0  0  0  0  0  0  0  0  0  0  0  0
    6.1508  -12.5832   26.5677 S   0  0  0  0  0  0  0  0  0  0  0  0
    6.9740  -13.5840   25.3169 C   0  0  0  0  0  0  0  0  0  0  0  0
    7.3456  -14.9558   25.8065 C   0  0  0  0  0  0  0  0  0  0  0  0
    8.4930  -15.4378   24.9236 C   0  0  2  0  0  0  0  0  0  0  0  0
    8.1350  -15.4146   23.5214 N   0  0  0  0  0  0  0  0  0  0  0  0
    8.9528  -16.7996   25.3225 C   0  0  0  0  0  0  0  0  0  0  0  0
    8.1427  -17.7783   25.4149 O   0  0  0  0  0  0  0  0  0  0  0  0
   10.3161  -17.0063   25.6036 N   0  0  0  0  0  0  0  0  0  0  0  0
   10.7571  -18.3380   26.0581 C   0  0  1  0  0  0  0  0  0  0  0  0
   12.0979  -18.6640   25.4604 C   0  0  0  0  0  0  0  0  0  0  0  0
   12.0025  -18.6988   23.9953 C   0  0  0  0  0  0  0  0  0  0  0  0
   10.8870  -19.1076   23.2655 C   0  0  0  0  0  0  0  0  0  0  0  0
   11.2107  -18.9883   21.9628 N   0  0  0  0  0  0  0  0  0  0  0  0
   12.4634  -18.5289   21.8460 C   0  0  0  0  0  0  0  0  0  0  0  0
   12.9214  -18.3615   23.0969 N   0  0  0  0  0  0  0  0  0  0  0  0
   10.8299  -18.3650   27.5379 C   0  0  0  0  0  0  0  0  0  0  0  0
   11.1543  -19.4411   28.0992 O   0  0  0  0  0  0  0  0  0  0  0  0
   10.5670  -17.2847   28.3511 O   0  0  0  0  0  0  0  0  0  0  0  0
  2  1  1  6
  2  3  1  0
  4  2  1  0
  5  4  1  0
  5  6  1  1
  7  8  2  0
  7  5  1  0
 10  9  1  0
 11 10  1  0
 11 12  1  0
 13 12  1  1
 13 14  1  0
 14  7  1  0
 15 16  2  0
 15 13  1  0
 17 15  1  0
 18 19  1  6
 18 17  1  0
 20 19  1  0
 20 21  2  0
 22 21  1  0
 23 24  2  0
 23 22  1  0
 24 20  1  0
 25 18  1  0
 26 25  2  0
 27 25  1  0
M  END
$$$$
