LMH.pdb
     RDKit          3D

 27 27  0  0  1  0  0  0  0  0999 V2000
    8.3295  -12.5469   19.1898 C   0  0  0  0  0  0  0  0  0  0  0  0
    8.1475  -13.6327   20.2133 C   0  0  1  0  0  0  0  0  0  0  0  0
    6.7129  -13.9768   20.4032 C   0  0  0  0  0  0  0  0  0  0  0  0
    9.0142  -14.8043   19.8436 C   0  0  0  0  0  0  0  0  0  0  0  0
    8.9091  -15.9514   20.7841 C   0  0  2  0  0  0  0  0  0  0  0  0
    7.6469  -16.6273   20.7376 N   0  0  0  0  0  0  0  0  0  0  0  0
    9.1662  -15.4650   22.1648 C   0  0  0  0  0  0  0  0  0  0  0  0
   10.2849  -14.9433   22.4882 O   0  0  0  0  0  0  0  0  0  0  0  0
    6.4920  -11.2712   26.2418 C   0  0  0  0  0  0  0  0  0  0  0  0
    6.7625  -12.7141   27.3310 S   0  0  0  0  0  0  0  0  0  0  0  0
    7.9180  -13.8049   26.4832 C   0  0  0  0  0  0  0  0  0  0  0  0
    7.3924  -14.3212   25.1730 C   0  0  0  0  0  0  0  0  0  0  0  0
    8.5051  -15.1657   24.5592 C   0  0  2  0  0  0  0  0  0  0  0  0
    8.1971  -15.5483   23.1977 N   0  0  0  0  0  0  0  0  0  0  0  0
    8.7940  -16.3720   25.3877 C   0  0  0  0  0  0  0  0  0  0  0  0
    7.8828  -17.2091   25.6902 O   0  0  0  0  0  0  0  0  0  0  0  0
   10.1068  -16.5889   25.8458 N   0  0  0  0  0  0  0  0  0  0  0  0
   10.4294  -17.8661   26.5086 C   0  0  1  0  0  0  0  0  0  0  0  0
   11.8613  -18.2359   26.2363 C   0  0  0  0  0  0  0  0  0  0  0  0
   12.0611  -18.4557   24.7981 C   0  0  0  0  0  0  0  0  0  0  0  0
   11.0545  -18.7273   23.8724 C   0  0  0  0  0  0  0  0  0  0  0  0
   11.6554  -18.8602   22.6735 N   0  0  0  0  0  0  0  0  0  0  0  0
   12.9769  -18.6861   22.8057 C   0  0  0  0  0  0  0  0  0  0  0  0
   13.1962  -18.4417   24.1076 N   0  0  0  0  0  0  0  0  0  0  0  0
   10.1937  -17.7486   27.9669 C   0  0  0  0  0  0  0  0  0  0  0  0
   10.3803  -18.7628   28.6845 O   0  0  0  0  0  0  0  0  0  0  0  0
    9.7825  -16.5962   28.5998 O   0  0  0  0  0  0  0  0  0  0  0  0
  2  1  1  6
  2  3  1  0
  4  2  1  0
  5  4  1  0
  5  6  1  1
  7  8  2  0
  7  5  1  0
 10  9  1  0
 11 10  1  0
 11 12  1  0
 13 12  1  1
 13 14  1  0
 14  7  1  0
 15 16  2  0
 15 13  1  0
 17 15  1  0
 18 19  1  1
 18 17  1  0
 20 19  1  0
 20 21  2  0
 22 21  1  0
 23 24  2  0
 23 22  1  0
 24 20  1  0
 25 18  1  0
 26 25  2  0
 27 25  1  0
M  END
$$$$
