LMH.pdb
     RDKit          3D

 27 27  0  0  1  0  0  0  0  0999 V2000
    7.3662  -12.0274   18.8745 C   0  0  0  0  0  0  0  0  0  0  0  0
    8.2290  -13.1137   19.4535 C   0  0  1  0  0  0  0  0  0  0  0  0
    8.9985  -12.6368   20.6338 C   0  0  0  0  0  0  0  0  0  0  0  0
    7.3773  -14.3225   19.7258 C   0  0  0  0  0  0  0  0  0  0  0  0
    8.0867  -15.4066   20.4559 C   0  0  2  0  0  0  0  0  0  0  0  0
    7.3511  -16.6333   20.5329 N   0  0  0  0  0  0  0  0  0  0  0  0
    8.4108  -14.9300   21.8259 C   0  0  0  0  0  0  0  0  0  0  0  0
    9.4177  -14.1783   22.0473 O   0  0  0  0  0  0  0  0  0  0  0  0
    7.2669  -11.0291   27.7289 C   0  0  0  0  0  0  0  0  0  0  0  0
    6.2859  -12.4512   27.1317 S   0  0  0  0  0  0  0  0  0  0  0  0
    7.4211  -13.5469   26.2631 C   0  0  0  0  0  0  0  0  0  0  0  0
    6.8780  -14.0444   24.9527 C   0  0  0  0  0  0  0  0  0  0  0  0
    7.9974  -14.8434   24.2920 C   0  0  2  0  0  0  0  0  0  0  0  0
    7.6315  -15.2758   22.9600 N   0  0  0  0  0  0  0  0  0  0  0  0
    8.4000  -16.0115   25.1278 C   0  0  0  0  0  0  0  0  0  0  0  0
    7.6385  -16.4775   26.0364 O   0  0  0  0  0  0  0  0  0  0  0  0
    9.6529  -16.6124   24.9054 N   0  0  0  0  0  0  0  0  0  0  0  0
   10.0134  -17.8170   25.6759 C   0  0  1  0  0  0  0  0  0  0  0  0
    9.9081  -19.0346   24.7998 C   0  0  0  0  0  0  0  0  0  0  0  0
    8.4983  -19.3312   24.5150 C   0  0  0  0  0  0  0  0  0  0  0  0
    7.4040  -18.6427   25.0370 C   0  0  0  0  0  0  0  0  0  0  0  0
    6.3004  -19.2261   24.5292 N   0  0  0  0  0  0  0  0  0  0  0  0
    6.6507  -20.2365   23.7227 C   0  0  0  0  0  0  0  0  0  0  0  0
    7.9926  -20.2782   23.7322 N   0  0  0  0  0  0  0  0  0  0  0  0
   11.3897  -17.6797   26.2078 C   0  0  0  0  0  0  0  0  0  0  0  0
   12.0771  -16.6961   25.8360 O   0  0  0  0  0  0  0  0  0  0  0  0
   11.9757  -18.5600   27.0906 O   0  0  0  0  0  0  0  0  0  0  0  0
  2  1  1  1
  2  3  1  0
  4  2  1  0
  5  4  1  0
  5  6  1  1
  7  8  2  0
  7  5  1  0
 10  9  1  0
 11 10  1  0
 11 12  1  0
 13 12  1  1
 13 14  1  0
 14  7  1  0
 15 16  2  0
 15 13  1  0
 17 15  1  0
 18 19  1  6
 18 17  1  0
 20 19  1  0
 20 21  2  0
 22 21  1  0
 23 24  2  0
 23 22  1  0
 24 20  1  0
 25 18  1  0
 26 25  2  0
 27 25  1  0
M  END
$$$$
