LMH.pdb
     RDKit          3D

 27 27  0  0  1  0  0  0  0  0999 V2000
    8.7225  -12.2473   19.1386 C   0  0  0  0  0  0  0  0  0  0  0  0
    8.1905  -13.5504   19.6665 C   0  0  1  0  0  0  0  0  0  0  0  0
    7.0227  -14.0289   18.8791 C   0  0  0  0  0  0  0  0  0  0  0  0
    9.3183  -14.5410   19.7521 C   0  0  0  0  0  0  0  0  0  0  0  0
    9.0082  -15.7361   20.5809 C   0  0  2  0  0  0  0  0  0  0  0  0
    7.6616  -16.2050   20.4437 N   0  0  0  0  0  0  0  0  0  0  0  0
    9.2846  -15.4166   22.0058 C   0  0  0  0  0  0  0  0  0  0  0  0
   10.4465  -15.0595   22.3937 O   0  0  0  0  0  0  0  0  0  0  0  0
    7.9230  -11.6349   28.3281 C   0  0  0  0  0  0  0  0  0  0  0  0
    6.9570  -12.4431   27.0033 S   0  0  0  0  0  0  0  0  0  0  0  0
    8.0198  -13.6962   26.2657 C   0  0  0  0  0  0  0  0  0  0  0  0
    7.4748  -14.2529   24.9802 C   0  0  0  0  0  0  0  0  0  0  0  0
    8.5709  -15.1333   24.3871 C   0  0  2  0  0  0  0  0  0  0  0  0
    8.2873  -15.4873   23.0126 N   0  0  0  0  0  0  0  0  0  0  0  0
    8.7886  -16.3598   25.2076 C   0  0  0  0  0  0  0  0  0  0  0  0
    7.8659  -17.2207   25.3809 O   0  0  0  0  0  0  0  0  0  0  0  0
   10.0455  -16.5693   25.8047 N   0  0  0  0  0  0  0  0  0  0  0  0
   10.3329  -17.8769   26.4230 C   0  0  1  0  0  0  0  0  0  0  0  0
   11.7749  -18.2412   26.2016 C   0  0  0  0  0  0  0  0  0  0  0  0
   12.0304  -18.4427   24.7695 C   0  0  0  0  0  0  0  0  0  0  0  0
   11.0567  -18.5036   23.7734 C   0  0  0  0  0  0  0  0  0  0  0  0
   11.7053  -18.6975   22.6082 N   0  0  0  0  0  0  0  0  0  0  0  0
   13.0252  -18.7599   22.8276 C   0  0  0  0  0  0  0  0  0  0  0  0
   13.1950  -18.6021   24.1501 N   0  0  0  0  0  0  0  0  0  0  0  0
   10.0292  -17.8245   27.8725 C   0  0  0  0  0  0  0  0  0  0  0  0
    9.8097  -16.7035   28.3955 O   0  0  0  0  0  0  0  0  0  0  0  0
    9.9675  -18.9269   28.6963 O   0  0  0  0  0  0  0  0  0  0  0  0
  2  1  1  6
  2  3  1  0
  4  2  1  0
  5  4  1  0
  5  6  1  1
  7  8  2  0
  7  5  1  0
 10  9  1  0
 11 10  1  0
 11 12  1  0
 13 12  1  1
 13 14  1  0
 14  7  1  0
 15 16  2  0
 15 13  1  0
 17 15  1  0
 18 19  1  1
 18 17  1  0
 20 19  1  0
 20 21  2  0
 22 21  1  0
 23 24  2  0
 23 22  1  0
 24 20  1  0
 25 18  1  0
 26 25  2  0
 27 25  1  0
M  END
$$$$
