LMH.pdb
     RDKit          3D

 27 27  0  0  1  0  0  0  0  0999 V2000
    8.2350  -12.1133   19.4753 C   0  0  0  0  0  0  0  0  0  0  0  0
    8.0602  -13.2592   20.4323 C   0  0  1  0  0  0  0  0  0  0  0  0
    6.6275  -13.6203   20.6047 C   0  0  0  0  0  0  0  0  0  0  0  0
    8.9308  -14.4029   19.9910 C   0  0  0  0  0  0  0  0  0  0  0  0
    8.8034  -15.6183   20.8384 C   0  0  2  0  0  0  0  0  0  0  0  0
    7.5040  -16.2199   20.8003 N   0  0  0  0  0  0  0  0  0  0  0  0
    9.1507  -15.2647   22.2397 C   0  0  0  0  0  0  0  0  0  0  0  0
   10.3171  -14.8518   22.5515 O   0  0  0  0  0  0  0  0  0  0  0  0
    6.1070  -11.8921   27.0476 C   0  0  0  0  0  0  0  0  0  0  0  0
    7.8803  -12.2858   27.2514 S   0  0  0  0  0  0  0  0  0  0  0  0
    8.0938  -14.0123   26.7851 C   0  0  0  0  0  0  0  0  0  0  0  0
    7.5255  -14.3347   25.4314 C   0  0  0  0  0  0  0  0  0  0  0  0
    8.6065  -15.1024   24.6763 C   0  0  2  0  0  0  0  0  0  0  0  0
    8.2199  -15.3622   23.3060 N   0  0  0  0  0  0  0  0  0  0  0  0
    8.9563  -16.3757   25.3702 C   0  0  0  0  0  0  0  0  0  0  0  0
    8.1394  -17.3513   25.4290 O   0  0  0  0  0  0  0  0  0  0  0  0
   10.2210  -16.5003   25.9747 N   0  0  0  0  0  0  0  0  0  0  0  0
   10.6536  -17.8247   26.4580 C   0  0  1  0  0  0  0  0  0  0  0  0
   12.0314  -18.1326   25.9404 C   0  0  0  0  0  0  0  0  0  0  0  0
   12.4619  -19.4567   26.4076 C   0  0  0  0  0  0  0  0  0  0  0  0
   11.6153  -20.5140   26.7380 C   0  0  0  0  0  0  0  0  0  0  0  0
   12.4041  -21.5393   27.1156 N   0  0  0  0  0  0  0  0  0  0  0  0
   13.6909  -21.1755   27.0373 C   0  0  0  0  0  0  0  0  0  0  0  0
   13.6972  -19.9046   26.6043 N   0  0  0  0  0  0  0  0  0  0  0  0
   10.6403  -17.8476   27.9396 C   0  0  0  0  0  0  0  0  0  0  0  0
   10.7683  -16.7592   28.5537 O   0  0  0  0  0  0  0  0  0  0  0  0
   10.4946  -18.9868   28.7003 O   0  0  0  0  0  0  0  0  0  0  0  0
  2  1  1  6
  2  3  1  0
  4  2  1  0
  5  4  1  0
  5  6  1  1
  7  8  2  0
  7  5  1  0
 10  9  1  0
 11 10  1  0
 11 12  1  0
 13 12  1  1
 13 14  1  0
 14  7  1  0
 15 16  2  0
 15 13  1  0
 17 15  1  0
 18 19  1  1
 18 17  1  0
 20 19  1  0
 20 21  2  0
 22 21  1  0
 23 24  2  0
 23 22  1  0
 24 20  1  0
 25 18  1  0
 26 25  2  0
 27 25  1  0
M  END
$$$$
