LMH.pdb
     RDKit          3D

 27 27  0  0  1  0  0  0  0  0999 V2000
    8.3914  -11.8433   19.7382 C   0  0  0  0  0  0  0  0  0  0  0  0
    7.9945  -13.0950   20.4699 C   0  0  1  0  0  0  0  0  0  0  0  0
    6.5483  -13.3988   20.2989 C   0  0  0  0  0  0  0  0  0  0  0  0
    8.9083  -14.2148   20.0557 C   0  0  0  0  0  0  0  0  0  0  0  0
    8.6416  -15.4996   20.7556 C   0  0  2  0  0  0  0  0  0  0  0  0
    7.2783  -15.9322   20.6769 N   0  0  0  0  0  0  0  0  0  0  0  0
    9.0420  -15.3619   22.1803 C   0  0  0  0  0  0  0  0  0  0  0  0
   10.2407  -15.0734   22.5090 O   0  0  0  0  0  0  0  0  0  0  0  0
    6.1562  -11.2840   26.7951 C   0  0  0  0  0  0  0  0  0  0  0  0
    6.1196  -13.1108   26.8477 S   0  0  0  0  0  0  0  0  0  0  0  0
    7.3326  -13.6968   25.6523 C   0  0  0  0  0  0  0  0  0  0  0  0
    7.4188  -15.1959   25.5824 C   0  0  0  0  0  0  0  0  0  0  0  0
    8.5663  -15.5227   24.6313 C   0  0  2  0  0  0  0  0  0  0  0  0
    8.1291  -15.5400   23.2517 N   0  0  0  0  0  0  0  0  0  0  0  0
    9.2187  -16.8158   24.9883 C   0  0  0  0  0  0  0  0  0  0  0  0
    8.9981  -17.8812   24.3259 O   0  0  0  0  0  0  0  0  0  0  0  0
   10.0997  -16.8577   26.0849 N   0  0  0  0  0  0  0  0  0  0  0  0
   10.8233  -18.1103   26.3714 C   0  0  1  0  0  0  0  0  0  0  0  0
   12.1759  -18.0807   25.7151 C   0  0  0  0  0  0  0  0  0  0  0  0
   12.0745  -18.5536   24.3284 C   0  0  0  0  0  0  0  0  0  0  0  0
   10.9005  -18.9574   23.6938 C   0  0  0  0  0  0  0  0  0  0  0  0
   11.2402  -19.3130   22.4392 N   0  0  0  0  0  0  0  0  0  0  0  0
   12.5581  -19.1519   22.2621 C   0  0  0  0  0  0  0  0  0  0  0  0
   13.0407  -18.6892   23.4265 N   0  0  0  0  0  0  0  0  0  0  0  0
   10.9628  -18.2859   27.8362 C   0  0  0  0  0  0  0  0  0  0  0  0
   11.2761  -19.4213   28.2733 O   0  0  0  0  0  0  0  0  0  0  0  0
   10.7737  -17.2844   28.7629 O   0  0  0  0  0  0  0  0  0  0  0  0
  2  1  1  6
  2  3  1  0
  4  2  1  0
  5  4  1  0
  5  6  1  1
  7  8  2  0
  7  5  1  0
 10  9  1  0
 11 10  1  0
 11 12  1  0
 13 12  1  1
 13 14  1  0
 14  7  1  0
 15 16  2  0
 15 13  1  0
 17 15  1  0
 18 19  1  6
 18 17  1  0
 20 19  1  0
 20 21  2  0
 22 21  1  0
 23 24  2  0
 23 22  1  0
 24 20  1  0
 25 18  1  0
 26 25  2  0
 27 25  1  0
M  END
$$$$
