LMH.pdb
     RDKit          3D

 27 27  0  0  1  0  0  0  0  0999 V2000
    8.0725  -14.0519   17.4943 C   0  0  0  0  0  0  0  0  0  0  0  0
    7.6574  -15.2370   18.3206 C   0  0  1  0  0  0  0  0  0  0  0  0
    7.9748  -16.5217   17.6411 C   0  0  0  0  0  0  0  0  0  0  0  0
    8.2528  -15.1082   19.6952 C   0  0  0  0  0  0  0  0  0  0  0  0
    7.5515  -14.1274   20.5656 C   0  0  2  0  0  0  0  0  0  0  0  0
    7.5478  -12.7911   20.0498 N   0  0  0  0  0  0  0  0  0  0  0  0
    8.1824  -14.1432   21.9113 C   0  0  0  0  0  0  0  0  0  0  0  0
    9.2992  -13.5656   22.1286 O   0  0  0  0  0  0  0  0  0  0  0  0
    6.8539  -12.1785   27.6973 C   0  0  0  0  0  0  0  0  0  0  0  0
    6.0733  -11.9221   26.0644 S   0  0  0  0  0  0  0  0  0  0  0  0
    7.0172  -12.8869   24.8718 C   0  0  0  0  0  0  0  0  0  0  0  0
    7.4786  -14.2109   25.4138 C   0  0  0  0  0  0  0  0  0  0  0  0
    8.2725  -14.8855   24.2989 C   0  0  2  0  0  0  0  0  0  0  0  0
    7.5909  -14.7927   23.0254 N   0  0  0  0  0  0  0  0  0  0  0  0
    8.5723  -16.3092   24.6278 C   0  0  0  0  0  0  0  0  0  0  0  0
    8.3005  -17.2540   23.8178 O   0  0  0  0  0  0  0  0  0  0  0  0
    9.1704  -16.6142   25.8646 N   0  0  0  0  0  0  0  0  0  0  0  0
   10.4878  -17.2767   25.8761 C   0  0  1  0  0  0  0  0  0  0  0  0
   11.4716  -16.4718   25.0728 C   0  0  0  0  0  0  0  0  0  0  0  0
   11.6018  -17.0353   23.7228 C   0  0  0  0  0  0  0  0  0  0  0  0
   10.9068  -18.1416   23.2362 C   0  0  0  0  0  0  0  0  0  0  0  0
   11.3129  -18.3264   21.9646 N   0  0  0  0  0  0  0  0  0  0  0  0
   12.2200  -17.3966   21.6375 C   0  0  0  0  0  0  0  0  0  0  0  0
   12.3769  -16.6247   22.7248 N   0  0  0  0  0  0  0  0  0  0  0  0
   10.9613  -17.4287   27.2720 C   0  0  0  0  0  0  0  0  0  0  0  0
   11.4479  -18.5336   27.6194 O   0  0  0  0  0  0  0  0  0  0  0  0
   10.9078  -16.4362   28.2259 O   0  0  0  0  0  0  0  0  0  0  0  0
  2  1  1  6
  2  3  1  0
  4  2  1  0
  5  4  1  0
  5  6  1  6
  7  8  2  0
  7  5  1  0
 10  9  1  0
 11 10  1  0
 11 12  1  0
 13 12  1  1
 13 14  1  0
 14  7  1  0
 15 16  2  0
 15 13  1  0
 17 15  1  0
 18 19  1  6
 18 17  1  0
 20 19  1  0
 20 21  2  0
 22 21  1  0
 23 24  2  0
 23 22  1  0
 24 20  1  0
 25 18  1  0
 26 25  2  0
 27 25  1  0
M  END
$$$$
