LMH.pdb
     RDKit          3D

 27 27  0  0  1  0  0  0  0  0999 V2000
    8.5213  -12.0416   19.5373 C   0  0  0  0  0  0  0  0  0  0  0  0
    8.0989  -13.2778   20.2810 C   0  0  1  0  0  0  0  0  0  0  0  0
    6.7025  -13.6699   19.9510 C   0  0  0  0  0  0  0  0  0  0  0  0
    9.1120  -14.3628   20.0425 C   0  0  0  0  0  0  0  0  0  0  0  0
    8.8804  -15.5905   20.8491 C   0  0  2  0  0  0  0  0  0  0  0  0
    7.6362  -16.2432   20.5701 N   0  0  0  0  0  0  0  0  0  0  0  0
    8.9482  -15.2370   22.2912 C   0  0  0  0  0  0  0  0  0  0  0  0
   10.0103  -14.7546   22.8081 O   0  0  0  0  0  0  0  0  0  0  0  0
    7.3781  -10.9294   27.3302 C   0  0  0  0  0  0  0  0  0  0  0  0
    6.1892  -12.2700   26.9685 S   0  0  0  0  0  0  0  0  0  0  0  0
    7.1484  -13.6886   26.4106 C   0  0  0  0  0  0  0  0  0  0  0  0
    6.8589  -14.0765   24.9874 C   0  0  0  0  0  0  0  0  0  0  0  0
    7.9437  -15.0676   24.5764 C   0  0  2  0  0  0  0  0  0  0  0  0
    7.8507  -15.4110   23.1734 N   0  0  0  0  0  0  0  0  0  0  0  0
    7.9052  -16.2982   25.4185 C   0  0  0  0  0  0  0  0  0  0  0  0
    6.8895  -17.0668   25.4330 O   0  0  0  0  0  0  0  0  0  0  0  0
    9.0198  -16.6163   26.2165 N   0  0  0  0  0  0  0  0  0  0  0  0
    9.5228  -18.0025   26.2198 C   0  0  1  0  0  0  0  0  0  0  0  0
    9.8810  -18.4196   24.8203 C   0  0  0  0  0  0  0  0  0  0  0  0
   10.2590  -19.8386   24.7975 C   0  0  0  0  0  0  0  0  0  0  0  0
    9.6527  -20.8505   25.5407 C   0  0  0  0  0  0  0  0  0  0  0  0
   10.2925  -21.9956   25.2314 N   0  0  0  0  0  0  0  0  0  0  0  0
   11.2601  -21.7486   24.3387 C   0  0  0  0  0  0  0  0  0  0  0  0
   11.2177  -20.4294   24.0925 N   0  0  0  0  0  0  0  0  0  0  0  0
   10.7038  -18.1061   27.1089 C   0  0  0  0  0  0  0  0  0  0  0  0
   11.5221  -17.1530   27.1265 O   0  0  0  0  0  0  0  0  0  0  0  0
   10.9717  -19.1814   27.9271 O   0  0  0  0  0  0  0  0  0  0  0  0
  2  1  1  6
  2  3  1  0
  4  2  1  0
  5  4  1  0
  5  6  1  1
  7  8  2  0
  7  5  1  0
 10  9  1  0
 11 10  1  0
 11 12  1  0
 13 12  1  1
 13 14  1  0
 14  7  1  0
 15 16  2  0
 15 13  1  0
 17 15  1  0
 18 19  1  6
 18 17  1  0
 20 19  1  0
 20 21  2  0
 22 21  1  0
 23 24  2  0
 23 22  1  0
 24 20  1  0
 25 18  1  0
 26 25  2  0
 27 25  1  0
M  END
$$$$
