LMH.pdb
     RDKit          3D

 27 27  0  0  1  0  0  0  0  0999 V2000
    8.1606  -12.2581   18.7572 C   0  0  0  0  0  0  0  0  0  0  0  0
    7.9615  -13.6889   19.1727 C   0  0  1  0  0  0  0  0  0  0  0  0
    8.0240  -14.6148   18.0102 C   0  0  0  0  0  0  0  0  0  0  0  0
    8.9332  -14.0194   20.2714 C   0  0  0  0  0  0  0  0  0  0  0  0
    8.6612  -15.3167   20.9456 C   0  0  2  0  0  0  0  0  0  0  0  0
    7.3781  -15.8741   20.6374 N   0  0  0  0  0  0  0  0  0  0  0  0
    8.7860  -15.1293   22.4148 C   0  0  0  0  0  0  0  0  0  0  0  0
    9.9197  -14.9307   22.9656 O   0  0  0  0  0  0  0  0  0  0  0  0
    6.8483  -10.7005   26.6351 C   0  0  0  0  0  0  0  0  0  0  0  0
    6.2162  -12.2529   27.3643 S   0  0  0  0  0  0  0  0  0  0  0  0
    7.1692  -13.6002   26.6429 C   0  0  0  0  0  0  0  0  0  0  0  0
    6.8275  -13.8625   25.2027 C   0  0  0  0  0  0  0  0  0  0  0  0
    7.8075  -14.9222   24.7081 C   0  0  2  0  0  0  0  0  0  0  0  0
    7.6674  -15.1586   23.2871 N   0  0  0  0  0  0  0  0  0  0  0  0
    7.6594  -16.1981   25.4666 C   0  0  0  0  0  0  0  0  0  0  0  0
    6.6725  -16.9800   25.2732 O   0  0  0  0  0  0  0  0  0  0  0  0
    8.6352  -16.5449   26.4193 N   0  0  0  0  0  0  0  0  0  0  0  0
    8.7183  -17.9435   26.8791 C   0  0  1  0  0  0  0  0  0  0  0  0
    9.2012  -18.8221   25.7585 C   0  0  0  0  0  0  0  0  0  0  0  0
    8.0597  -19.3224   24.9815 C   0  0  0  0  0  0  0  0  0  0  0  0
    6.7341  -19.3460   25.4128 C   0  0  0  0  0  0  0  0  0  0  0  0
    6.0087  -19.8767   24.4087 N   0  0  0  0  0  0  0  0  0  0  0  0
    6.8113  -20.1826   23.3808 C   0  0  0  0  0  0  0  0  0  0  0  0
    8.0528  -19.8353   23.7559 N   0  0  0  0  0  0  0  0  0  0  0  0
    9.6336  -18.0367   28.0408 C   0  0  0  0  0  0  0  0  0  0  0  0
    9.7320  -19.1392   28.6352 O   0  0  0  0  0  0  0  0  0  0  0  0
   10.3935  -16.9926   28.5203 O   0  0  0  0  0  0  0  0  0  0  0  0
  2  1  1  6
  2  3  1  0
  4  2  1  0
  5  4  1  0
  5  6  1  1
  7  8  2  0
  7  5  1  0
 10  9  1  0
 11 10  1  0
 11 12  1  0
 13 12  1  1
 13 14  1  0
 14  7  1  0
 15 16  2  0
 15 13  1  0
 17 15  1  0
 18 19  1  6
 18 17  1  0
 20 19  1  0
 20 21  2  0
 22 21  1  0
 23 24  2  0
 23 22  1  0
 24 20  1  0
 25 18  1  0
 26 25  2  0
 27 25  1  0
M  END
$$$$
