LMH.pdb
     RDKit          3D

 27 27  0  0  1  0  0  0  0  0999 V2000
    7.6149  -12.1622   19.3369 C   0  0  0  0  0  0  0  0  0  0  0  0
    7.6498  -13.6457   19.5770 C   0  0  1  0  0  0  0  0  0  0  0  0
    7.8703  -14.4035   18.3160 C   0  0  0  0  0  0  0  0  0  0  0  0
    8.6555  -13.9438   20.6540 C   0  0  0  0  0  0  0  0  0  0  0  0
    8.4749  -15.2735   21.2950 C   0  0  2  0  0  0  0  0  0  0  0  0
    7.1860  -15.8567   21.0705 N   0  0  0  0  0  0  0  0  0  0  0  0
    8.7163  -15.1389   22.7553 C   0  0  0  0  0  0  0  0  0  0  0  0
    9.8748  -14.8657   23.2152 O   0  0  0  0  0  0  0  0  0  0  0  0
    5.7781  -12.2138   27.5855 C   0  0  0  0  0  0  0  0  0  0  0  0
    6.7768  -11.5155   26.2230 S   0  0  0  0  0  0  0  0  0  0  0  0
    7.6532  -12.8887   25.4548 C   0  0  0  0  0  0  0  0  0  0  0  0
    7.1183  -14.2337   25.8603 C   0  0  0  0  0  0  0  0  0  0  0  0
    7.9671  -15.2762   25.1386 C   0  0  2  0  0  0  0  0  0  0  0  0
    7.6877  -15.3034   23.7187 N   0  0  0  0  0  0  0  0  0  0  0  0
    7.7860  -16.6325   25.7323 C   0  0  0  0  0  0  0  0  0  0  0  0
    6.8152  -17.3854   25.3957 O   0  0  0  0  0  0  0  0  0  0  0  0
    8.7118  -17.0901   26.6881 N   0  0  0  0  0  0  0  0  0  0  0  0
    8.9593  -18.5391   26.8055 C   0  0  1  0  0  0  0  0  0  0  0  0
    9.4722  -19.0776   25.4986 C   0  0  0  0  0  0  0  0  0  0  0  0
    8.3505  -19.5156   24.6579 C   0  0  0  0  0  0  0  0  0  0  0  0
    7.0046  -19.4806   25.0202 C   0  0  0  0  0  0  0  0  0  0  0  0
    6.3084  -19.9665   23.9737 N   0  0  0  0  0  0  0  0  0  0  0  0
    7.1480  -20.3000   22.9847 C   0  0  0  0  0  0  0  0  0  0  0  0
    8.3832  -20.0156   23.4274 N   0  0  0  0  0  0  0  0  0  0  0  0
    9.9361  -18.7956   27.8899 C   0  0  0  0  0  0  0  0  0  0  0  0
    9.7188  -19.7531   28.6737 O   0  0  0  0  0  0  0  0  0  0  0  0
   11.0776  -18.0543   28.1022 O   0  0  0  0  0  0  0  0  0  0  0  0
  2  1  1  6
  2  3  1  0
  4  2  1  0
  5  4  1  0
  5  6  1  1
  7  8  2  0
  7  5  1  0
 10  9  1  0
 11 10  1  0
 11 12  1  0
 13 12  1  1
 13 14  1  0
 14  7  1  0
 15 16  2  0
 15 13  1  0
 17 15  1  0
 18 19  1  6
 18 17  1  0
 20 19  1  0
 20 21  2  0
 22 21  1  0
 23 24  2  0
 23 22  1  0
 24 20  1  0
 25 18  1  0
 26 25  2  0
 27 25  1  0
M  END
$$$$
