LIS.pdb
     RDKit          3D

 23 22  0  0  1  0  0  0  0  0999 V2000
    4.2581  -17.2378   21.2691 C   0  0  0  0  0  0  0  0  0  0  0  0
    5.5740  -17.9791   21.1633 C   0  0  2  0  0  0  0  0  0  0  0  0
    5.2947  -19.4316   21.3956 C   0  0  0  0  0  0  0  0  0  0  0  0
    6.5940  -17.4559   22.1449 C   0  0  0  0  0  0  0  0  0  0  0  0
    6.7605  -15.9573   22.0171 C   0  0  2  0  0  0  0  0  0  0  0  0
    7.2686  -15.6090   20.7060 N   0  0  0  0  0  0  0  0  0  0  0  0
    7.7063  -15.4199   23.0206 C   0  0  0  0  0  0  0  0  0  0  0  0
    8.9415  -15.4695   22.8242 O   0  0  0  0  0  0  0  0  0  0  0  0
    5.7541  -11.6644   26.3585 C   0  0  0  0  0  0  0  0  0  0  0  0
    6.7782  -12.3356   25.4842 C   0  0  0  0  0  0  0  0  0  0  0  0
    7.3615  -13.5004   26.2305 C   0  0  2  0  0  0  0  0  0  0  0  0
    8.2814  -12.9668   27.3045 C   0  0  0  0  0  0  0  0  0  0  0  0
    8.1277  -14.4363   25.3149 C   0  0  2  0  0  0  0  0  0  0  0  0
    7.2696  -14.8267   24.2445 N   0  0  0  0  0  0  0  0  0  0  0  0
    8.6155  -15.6044   26.1118 C   0  0  0  0  0  0  0  0  0  0  0  0
    7.7814  -16.2559   26.7547 O   0  0  0  0  0  0  0  0  0  0  0  0
   12.6867  -16.7871   25.8613 O   0  0  0  0  0  0  0  0  0  0  0  0
   11.6602  -17.7220   25.9715 C   0  0  0  0  0  0  0  0  0  0  0  0
   10.4836  -17.1511   26.7376 C   0  0  2  0  0  0  0  0  0  0  0  0
    9.9806  -15.9421   26.1224 N   0  0  0  0  0  0  0  0  0  0  0  0
   10.8247  -16.9402   28.1650 C   0  0  0  0  0  0  0  0  0  0  0  0
   10.7387  -15.8237   28.7285 O   0  0  0  0  0  0  0  0  0  0  0  0
   11.2527  -18.0144   28.8997 O   0  0  0  0  0  0  0  0  0  0  0  0
  2  1  1  1
  2  3  1  0
  4  2  1  0
  5  4  1  0
  5  6  1  6
  7  8  2  0
  7  5  1  0
 10  9  1  0
 11 10  1  0
 11 12  1  1
 13 11  1  0
 13 14  1  6
 14  7  1  0
 15 20  1  0
 15 13  1  0
 16 15  2  0
 18 17  1  0
 19 18  1  6
 19 20  1  0
 21 19  1  0
 21 23  1  0
 22 21  2  0
M  END
$$$$
