LIS.pdb
     RDKit          3D

 23 22  0  0  1  0  0  0  0  0999 V2000
    5.5275  -17.9959   20.1477 C   0  0  0  0  0  0  0  0  0  0  0  0
    6.1450  -16.6140   20.1134 C   0  0  2  0  0  0  0  0  0  0  0  0
    6.6315  -16.3706   18.7185 C   0  0  0  0  0  0  0  0  0  0  0  0
    7.2659  -16.4746   21.1142 C   0  0  0  0  0  0  0  0  0  0  0  0
    7.6687  -15.0265   21.2892 C   0  0  2  0  0  0  0  0  0  0  0  0
    8.6235  -14.6347   20.2727 N   0  0  0  0  0  0  0  0  0  0  0  0
    8.2946  -14.7835   22.6081 C   0  0  0  0  0  0  0  0  0  0  0  0
    9.5230  -14.9580   22.7734 O   0  0  0  0  0  0  0  0  0  0  0  0
    5.9115  -11.3637   26.1682 C   0  0  0  0  0  0  0  0  0  0  0  0
    6.9311  -12.1098   25.3513 C   0  0  0  0  0  0  0  0  0  0  0  0
    7.0982  -13.4861   25.9274 C   0  0  2  0  0  0  0  0  0  0  0  0
    7.6529  -13.3535   27.3271 C   0  0  0  0  0  0  0  0  0  0  0  0
    8.0228  -14.3462   25.0867 C   0  0  2  0  0  0  0  0  0  0  0  0
    7.5455  -14.3452   23.7426 N   0  0  0  0  0  0  0  0  0  0  0  0
    8.0753  -15.7209   25.6738 C   0  0  0  0  0  0  0  0  0  0  0  0
    7.0049  -16.3204   25.8416 O   0  0  0  0  0  0  0  0  0  0  0  0
   11.3338  -18.1048   25.2102 O   0  0  0  0  0  0  0  0  0  0  0  0
   10.0901  -18.5901   25.6072 C   0  0  0  0  0  0  0  0  0  0  0  0
    9.4162  -17.6359   26.5729 C   0  0  2  0  0  0  0  0  0  0  0  0
    9.3076  -16.3033   26.0201 N   0  0  0  0  0  0  0  0  0  0  0  0
   10.1015  -17.6310   27.8877 C   0  0  0  0  0  0  0  0  0  0  0  0
   10.5762  -16.5924   28.4050 O   0  0  0  0  0  0  0  0  0  0  0  0
   10.2206  -18.8151   28.5664 O   0  0  0  0  0  0  0  0  0  0  0  0
  2  1  1  6
  2  3  1  0
  4  2  1  0
  5  4  1  0
  5  6  1  6
  7  8  2  0
  7  5  1  0
 10  9  1  0
 11 10  1  0
 11 12  1  1
 13 11  1  0
 13 14  1  6
 14  7  1  0
 15 20  1  0
 15 13  1  0
 16 15  2  0
 18 17  1  0
 19 18  1  6
 19 20  1  0
 21 19  1  0
 21 23  1  0
 22 21  2  0
M  END
$$$$
