LIS.pdb
     RDKit          3D

 23 22  0  0  1  0  0  0  0  0999 V2000
    5.3314  -17.1279   20.2935 C   0  0  0  0  0  0  0  0  0  0  0  0
    6.7111  -17.7422   20.3992 C   0  0  2  0  0  0  0  0  0  0  0  0
    6.5422  -19.2294   20.4369 C   0  0  0  0  0  0  0  0  0  0  0  0
    7.4550  -17.2467   21.6152 C   0  0  0  0  0  0  0  0  0  0  0  0
    7.5199  -15.7350   21.6408 C   0  0  2  0  0  0  0  0  0  0  0  0
    8.1801  -15.2311   20.4539 N   0  0  0  0  0  0  0  0  0  0  0  0
    8.2684  -15.2348   22.8155 C   0  0  0  0  0  0  0  0  0  0  0  0
    9.5141  -15.1185   22.7762 O   0  0  0  0  0  0  0  0  0  0  0  0
    5.7898  -11.8337   26.2296 C   0  0  0  0  0  0  0  0  0  0  0  0
    6.8722  -12.4727   25.4027 C   0  0  0  0  0  0  0  0  0  0  0  0
    7.3535  -13.7074   26.1083 C   0  0  2  0  0  0  0  0  0  0  0  0
    8.0557  -13.2878   27.3792 C   0  0  0  0  0  0  0  0  0  0  0  0
    8.2962  -14.5246   25.2452 C   0  0  2  0  0  0  0  0  0  0  0  0
    7.6227  -14.8648   24.0347 N   0  0  0  0  0  0  0  0  0  0  0  0
    8.7360  -15.7306   26.0130 C   0  0  0  0  0  0  0  0  0  0  0  0
    7.8611  -16.4449   26.5209 O   0  0  0  0  0  0  0  0  0  0  0  0
   12.7388  -16.8963   25.7853 O   0  0  0  0  0  0  0  0  0  0  0  0
   11.7455  -17.8478   26.0041 C   0  0  0  0  0  0  0  0  0  0  0  0
   10.5784  -17.2515   26.7654 C   0  0  2  0  0  0  0  0  0  0  0  0
   10.1028  -16.0331   26.1469 N   0  0  0  0  0  0  0  0  0  0  0  0
   10.9189  -17.0458   28.1937 C   0  0  0  0  0  0  0  0  0  0  0  0
   10.8453  -15.9287   28.7579 O   0  0  0  0  0  0  0  0  0  0  0  0
   11.3322  -18.1257   28.9285 O   0  0  0  0  0  0  0  0  0  0  0  0
  2  1  1  1
  2  3  1  0
  4  2  1  0
  5  4  1  0
  5  6  1  6
  7  8  2  0
  7  5  1  0
 10  9  1  0
 11 10  1  0
 11 12  1  1
 13 11  1  0
 13 14  1  6
 14  7  1  0
 15 20  1  0
 15 13  1  0
 16 15  2  0
 18 17  1  0
 19 18  1  6
 19 20  1  0
 21 19  1  0
 21 23  1  0
 22 21  2  0
M  END
$$$$
