LIS.pdb
     RDKit          3D

 23 22  0  0  1  0  0  0  0  0999 V2000
    5.7275  -12.3327   26.1406 C   0  0  0  0  0  0  0  0  0  0  0  0
    6.5897  -13.0855   27.1317 C   0  0  2  0  0  0  0  0  0  0  0  0
    7.5331  -12.1008   27.7498 C   0  0  0  0  0  0  0  0  0  0  0  0
    7.3380  -14.2206   26.4766 C   0  0  0  0  0  0  0  0  0  0  0  0
    6.4688  -14.9426   25.4700 C   0  0  2  0  0  0  0  0  0  0  0  0
    5.7246  -16.0089   26.1084 N   0  0  0  0  0  0  0  0  0  0  0  0
    7.2699  -15.5458   24.3815 C   0  0  0  0  0  0  0  0  0  0  0  0
    7.6196  -16.7464   24.4365 O   0  0  0  0  0  0  0  0  0  0  0  0
    7.5650  -12.3062   20.1265 C   0  0  0  0  0  0  0  0  0  0  0  0
    7.3616  -13.6924   20.6749 C   0  0  0  0  0  0  0  0  0  0  0  0
    8.6850  -14.2262   21.1415 C   0  0  2  0  0  0  0  0  0  0  0  0
    9.4231  -14.7833   19.9460 C   0  0  0  0  0  0  0  0  0  0  0  0
    8.5233  -15.3054   22.1953 C   0  0  2  0  0  0  0  0  0  0  0  0
    7.6800  -14.8051   23.2311 N   0  0  0  0  0  0  0  0  0  0  0  0
    9.8755  -15.6992   22.6990 C   0  0  0  0  0  0  0  0  0  0  0  0
   10.5756  -14.8235   23.2247 O   0  0  0  0  0  0  0  0  0  0  0  0
   11.0309  -19.6681   22.3307 O   0  0  0  0  0  0  0  0  0  0  0  0
   11.7143  -18.9177   23.2845 C   0  0  0  0  0  0  0  0  0  0  0  0
   11.6590  -17.4391   22.9559 C   0  0  2  0  0  0  0  0  0  0  0  0
   10.3262  -17.0255   22.5740 N   0  0  0  0  0  0  0  0  0  0  0  0
   12.6620  -17.0813   21.9243 C   0  0  0  0  0  0  0  0  0  0  0  0
   13.8941  -17.2471   22.0851 O   0  0  0  0  0  0  0  0  0  0  0  0
   12.2211  -16.5456   20.7429 O   0  0  0  0  0  0  0  0  0  0  0  0
  2  1  1  6
  2  3  1  0
  4  2  1  0
  5  4  1  0
  5  6  1  1
  7  8  2  0
  7  5  1  0
 10  9  1  0
 11 10  1  0
 11 12  1  6
 13 11  1  0
 13 14  1  1
 14  7  1  0
 15 20  1  0
 15 13  1  0
 16 15  2  0
 18 17  1  0
 19 18  1  6
 19 20  1  0
 21 19  1  0
 21 23  1  0
 22 21  2  0
M  END
$$$$
