LIS.pdb
     RDKit          3D

 23 22  0  0  1  0  0  0  0  0999 V2000
    5.7758  -20.4008   26.4531 C   0  0  0  0  0  0  0  0  0  0  0  0
    6.6760  -21.0310   25.4117 C   0  0  2  0  0  0  0  0  0  0  0  0
    7.7165  -21.8277   26.1359 C   0  0  0  0  0  0  0  0  0  0  0  0
    7.3086  -19.9951   24.5149 C   0  0  0  0  0  0  0  0  0  0  0  0
    6.3319  -18.8888   24.1801 C   0  0  2  0  0  0  0  0  0  0  0  0
    5.6309  -19.1811   22.9466 N   0  0  0  0  0  0  0  0  0  0  0  0
    7.0119  -17.5853   24.0100 C   0  0  0  0  0  0  0  0  0  0  0  0
    7.6264  -17.3193   22.9525 O   0  0  0  0  0  0  0  0  0  0  0  0
    6.9824  -11.9313   26.3469 C   0  0  0  0  0  0  0  0  0  0  0  0
    7.8062  -12.9879   25.6623 C   0  0  0  0  0  0  0  0  0  0  0  0
    7.0303  -14.2731   25.6508 C   0  0  2  0  0  0  0  0  0  0  0  0
    6.6769  -14.6300   27.0764 C   0  0  0  0  0  0  0  0  0  0  0  0
    7.8151  -15.4056   25.0162 C   0  0  2  0  0  0  0  0  0  0  0  0
    7.0044  -16.5792   25.0239 N   0  0  0  0  0  0  0  0  0  0  0  0
    9.0954  -15.5903   25.7673 C   0  0  0  0  0  0  0  0  0  0  0  0
    9.0254  -15.8691   26.9718 O   0  0  0  0  0  0  0  0  0  0  0  0
   12.7714  -15.1467   23.7530 O   0  0  0  0  0  0  0  0  0  0  0  0
   12.5790  -16.2637   24.5626 C   0  0  0  0  0  0  0  0  0  0  0  0
   11.5675  -15.9772   25.6544 C   0  0  2  0  0  0  0  0  0  0  0  0
   10.3332  -15.4493   25.1150 N   0  0  0  0  0  0  0  0  0  0  0  0
   12.1380  -15.0868   26.6936 C   0  0  0  0  0  0  0  0  0  0  0  0
   11.6065  -14.0018   27.0283 O   0  0  0  0  0  0  0  0  0  0  0  0
   13.2979  -15.4680   27.3151 O   0  0  0  0  0  0  0  0  0  0  0  0
  2  1  1  1
  2  3  1  0
  4  2  1  0
  5  4  1  0
  5  6  1  6
  7  8  2  0
  7  5  1  0
 10  9  1  0
 11 10  1  0
 11 12  1  1
 13 11  1  0
 13 14  1  1
 14  7  1  0
 15 20  1  0
 15 13  1  0
 16 15  2  0
 18 17  1  0
 19 18  1  6
 19 20  1  0
 21 19  1  0
 21 23  1  0
 22 21  2  0
M  END
$$$$
