LIS.pdb
     RDKit          3D

 23 22  0  0  1  0  0  0  0  0999 V2000
    8.8524  -14.1924   18.9963 C   0  0  0  0  0  0  0  0  0  0  0  0
    7.6220  -13.5390   19.5890 C   0  0  2  0  0  0  0  0  0  0  0  0
    7.4822  -12.1863   18.9628 C   0  0  0  0  0  0  0  0  0  0  0  0
    7.7088  -13.4379   21.0923 C   0  0  0  0  0  0  0  0  0  0  0  0
    7.9757  -14.7892   21.7190 C   0  0  2  0  0  0  0  0  0  0  0  0
    6.7362  -15.5081   21.9319 N   0  0  0  0  0  0  0  0  0  0  0  0
    8.6519  -14.6655   23.0296 C   0  0  0  0  0  0  0  0  0  0  0  0
    9.8613  -14.3500   23.0964 O   0  0  0  0  0  0  0  0  0  0  0  0
    6.0860  -12.1527   26.7566 C   0  0  0  0  0  0  0  0  0  0  0  0
    7.1706  -12.7308   25.8888 C   0  0  0  0  0  0  0  0  0  0  0  0
    7.6038  -14.0460   26.4690 C   0  0  2  0  0  0  0  0  0  0  0  0
    8.2587  -13.7854   27.8060 C   0  0  0  0  0  0  0  0  0  0  0  0
    8.5693  -14.7794   25.5572 C   0  0  2  0  0  0  0  0  0  0  0  0
    7.9745  -14.8952   24.2660 N   0  0  0  0  0  0  0  0  0  0  0  0
    8.8913  -16.1100   26.1598 C   0  0  0  0  0  0  0  0  0  0  0  0
    7.9490  -16.8654   26.4333 O   0  0  0  0  0  0  0  0  0  0  0  0
   11.6576  -18.1788   24.8438 O   0  0  0  0  0  0  0  0  0  0  0  0
   11.7713  -18.3746   26.2181 C   0  0  0  0  0  0  0  0  0  0  0  0
   10.5944  -17.7660   26.9541 C   0  0  2  0  0  0  0  0  0  0  0  0
   10.2261  -16.4799   26.4032 N   0  0  0  0  0  0  0  0  0  0  0  0
   10.8571  -17.6847   28.4110 C   0  0  0  0  0  0  0  0  0  0  0  0
   10.8496  -16.6036   29.0457 O   0  0  0  0  0  0  0  0  0  0  0  0
   11.1195  -18.8436   29.0929 O   0  0  0  0  0  0  0  0  0  0  0  0
  2  1  1  6
  2  3  1  0
  4  2  1  0
  5  4  1  0
  5  6  1  1
  7  8  2  0
  7  5  1  0
 10  9  1  0
 11 10  1  0
 11 12  1  1
 13 11  1  0
 13 14  1  6
 14  7  1  0
 15 20  1  0
 15 13  1  0
 16 15  2  0
 18 17  1  0
 19 18  1  6
 19 20  1  0
 21 19  1  0
 21 23  1  0
 22 21  2  0
M  END
$$$$
