LIS.pdb
     RDKit          3D

 23 22  0  0  1  0  0  0  0  0999 V2000
    5.2269  -16.9856   20.3430 C   0  0  0  0  0  0  0  0  0  0  0  0
    6.6029  -17.6169   20.3298 C   0  0  2  0  0  0  0  0  0  0  0  0
    6.4190  -19.1027   20.3474 C   0  0  0  0  0  0  0  0  0  0  0  0
    7.4430  -17.1574   21.4963 C   0  0  0  0  0  0  0  0  0  0  0  0
    7.5090  -15.6472   21.5641 C   0  0  2  0  0  0  0  0  0  0  0  0
    8.1502  -15.1095   20.3817 N   0  0  0  0  0  0  0  0  0  0  0  0
    8.2766  -15.1808   22.7404 C   0  0  0  0  0  0  0  0  0  0  0  0
    9.5146  -15.0112   22.6682 O   0  0  0  0  0  0  0  0  0  0  0  0
    5.8464  -11.9396   26.3114 C   0  0  0  0  0  0  0  0  0  0  0  0
    6.9010  -12.5553   25.4326 C   0  0  0  0  0  0  0  0  0  0  0  0
    7.4242  -13.7936   26.1012 C   0  0  2  0  0  0  0  0  0  0  0  0
    8.1533  -13.3843   27.3603 C   0  0  0  0  0  0  0  0  0  0  0  0
    8.3576  -14.5767   25.1975 C   0  0  2  0  0  0  0  0  0  0  0  0
    7.6585  -14.9043   23.9981 N   0  0  0  0  0  0  0  0  0  0  0  0
    8.8379  -15.7898   25.9288 C   0  0  0  0  0  0  0  0  0  0  0  0
    7.9880  -16.5422   26.4239 O   0  0  0  0  0  0  0  0  0  0  0  0
   11.8248  -17.8907   24.6652 O   0  0  0  0  0  0  0  0  0  0  0  0
   12.0016  -17.7348   26.0379 C   0  0  0  0  0  0  0  0  0  0  0  0
   10.7303  -17.2394   26.6979 C   0  0  2  0  0  0  0  0  0  0  0  0
   10.2138  -16.0568   26.0438 N   0  0  0  0  0  0  0  0  0  0  0  0
   10.9304  -17.0206   28.1505 C   0  0  0  0  0  0  0  0  0  0  0  0
   10.7052  -15.9224   28.7118 O   0  0  0  0  0  0  0  0  0  0  0  0
   11.3816  -18.0661   28.9123 O   0  0  0  0  0  0  0  0  0  0  0  0
  2  1  1  1
  2  3  1  0
  4  2  1  0
  5  4  1  0
  5  6  1  6
  7  8  2  0
  7  5  1  0
 10  9  1  0
 11 10  1  0
 11 12  1  1
 13 11  1  0
 13 14  1  6
 14  7  1  0
 15 20  1  0
 15 13  1  0
 16 15  2  0
 18 17  1  0
 19 18  1  6
 19 20  1  0
 21 19  1  0
 21 23  1  0
 22 21  2  0
M  END
$$$$
