LIS.pdb
     RDKit          3D

 23 22  0  0  1  0  0  0  0  0999 V2000
    4.7571  -20.1169   24.4733 C   0  0  0  0  0  0  0  0  0  0  0  0
    6.1263  -20.4334   23.9102 C   0  0  2  0  0  0  0  0  0  0  0  0
    6.6436  -21.6398   24.6304 C   0  0  0  0  0  0  0  0  0  0  0  0
    7.0741  -19.2672   24.0489 C   0  0  0  0  0  0  0  0  0  0  0  0
    6.4380  -17.9822   23.5650 C   0  0  2  0  0  0  0  0  0  0  0  0
    6.2241  -18.0250   22.1329 N   0  0  0  0  0  0  0  0  0  0  0  0
    7.2849  -16.8038   23.8557 C   0  0  0  0  0  0  0  0  0  0  0  0
    8.2693  -16.5313   23.1321 O   0  0  0  0  0  0  0  0  0  0  0  0
    5.3772  -12.3628   26.3165 C   0  0  0  0  0  0  0  0  0  0  0  0
    6.2652  -13.1963   25.4332 C   0  0  0  0  0  0  0  0  0  0  0  0
    7.2250  -13.9615   26.2977 C   0  0  2  0  0  0  0  0  0  0  0  0
    8.2029  -12.9832   26.9068 C   0  0  0  0  0  0  0  0  0  0  0  0
    7.9771  -15.0201   25.5133 C   0  0  2  0  0  0  0  0  0  0  0  0
    7.0303  -15.9302   24.9566 N   0  0  0  0  0  0  0  0  0  0  0  0
    8.9539  -15.6961   26.4222 C   0  0  0  0  0  0  0  0  0  0  0  0
    8.5093  -16.2771   27.4213 O   0  0  0  0  0  0  0  0  0  0  0  0
   13.1414  -15.4603   25.6980 O   0  0  0  0  0  0  0  0  0  0  0  0
   12.5694  -16.6665   26.0951 C   0  0  0  0  0  0  0  0  0  0  0  0
   11.3017  -16.4317   26.8921 C   0  0  2  0  0  0  0  0  0  0  0  0
   10.3313  -15.6660   26.1403 N   0  0  0  0  0  0  0  0  0  0  0  0
   11.6003  -15.8050   28.2021 C   0  0  0  0  0  0  0  0  0  0  0  0
   11.1137  -14.7060   28.5586 O   0  0  0  0  0  0  0  0  0  0  0  0
   12.4458  -16.4572   29.0604 O   0  0  0  0  0  0  0  0  0  0  0  0
  2  1  1  1
  2  3  1  0
  4  2  1  0
  5  4  1  0
  5  6  1  6
  7  8  2  0
  7  5  1  0
 10  9  1  0
 11 10  1  0
 11 12  1  6
 13 11  1  0
 13 14  1  1
 14  7  1  0
 15 20  1  0
 15 13  1  0
 16 15  2  0
 18 17  1  0
 19 18  1  6
 19 20  1  0
 21 19  1  0
 21 23  1  0
 22 21  2  0
M  END
$$$$
