LIS.pdb
     RDKit          3D

 23 22  0  0  1  0  0  0  0  0999 V2000
    5.3904  -12.0817   26.2619 C   0  0  0  0  0  0  0  0  0  0  0  0
    6.3497  -12.8490   27.1469 C   0  0  2  0  0  0  0  0  0  0  0  0
    7.1788  -11.8479   27.8898 C   0  0  0  0  0  0  0  0  0  0  0  0
    7.2175  -13.7919   26.3497 C   0  0  0  0  0  0  0  0  0  0  0  0
    6.3826  -14.6857   25.4587 C   0  0  2  0  0  0  0  0  0  0  0  0
    5.7007  -15.6957   26.2419 N   0  0  0  0  0  0  0  0  0  0  0  0
    7.2086  -15.3848   24.4491 C   0  0  0  0  0  0  0  0  0  0  0  0
    7.5394  -16.5809   24.6124 O   0  0  0  0  0  0  0  0  0  0  0  0
    7.5629  -12.4620   20.0816 C   0  0  0  0  0  0  0  0  0  0  0  0
    7.3330  -13.8217   20.6832 C   0  0  0  0  0  0  0  0  0  0  0  0
    8.6551  -14.3906   21.1102 C   0  0  2  0  0  0  0  0  0  0  0  0
    9.2681  -15.1105   19.9310 C   0  0  0  0  0  0  0  0  0  0  0  0
    8.5119  -15.3469   22.2791 C   0  0  2  0  0  0  0  0  0  0  0  0
    7.6648  -14.7450   23.2562 N   0  0  0  0  0  0  0  0  0  0  0  0
    9.8710  -15.6632   22.8177 C   0  0  0  0  0  0  0  0  0  0  0  0
   10.5356  -14.7339   23.2953 O   0  0  0  0  0  0  0  0  0  0  0  0
   10.7675  -18.9497   24.7978 O   0  0  0  0  0  0  0  0  0  0  0  0
   11.7115  -18.7608   23.7912 C   0  0  0  0  0  0  0  0  0  0  0  0
   11.6782  -17.3366   23.2738 C   0  0  2  0  0  0  0  0  0  0  0  0
   10.3673  -16.9784   22.7772 N   0  0  0  0  0  0  0  0  0  0  0  0
   12.7318  -17.1114   22.2553 C   0  0  0  0  0  0  0  0  0  0  0  0
   13.9552  -17.1110   22.5288 O   0  0  0  0  0  0  0  0  0  0  0  0
   12.3498  -16.8941   20.9576 O   0  0  0  0  0  0  0  0  0  0  0  0
  2  1  1  6
  2  3  1  0
  4  2  1  0
  5  4  1  0
  5  6  1  1
  7  8  2  0
  7  5  1  0
 10  9  1  0
 11 10  1  0
 11 12  1  6
 13 11  1  0
 13 14  1  1
 14  7  1  0
 15 20  1  0
 15 13  1  0
 16 15  2  0
 18 17  1  0
 19 18  1  6
 19 20  1  0
 21 19  1  0
 21 23  1  0
 22 21  2  0
M  END
$$$$
