LIS.pdb
     RDKit          3D

 23 22  0  0  1  0  0  0  0  0999 V2000
    8.3944  -15.0421   18.7649 C   0  0  0  0  0  0  0  0  0  0  0  0
    7.7606  -13.8414   19.4348 C   0  0  2  0  0  0  0  0  0  0  0  0
    7.9894  -12.6562   18.5491 C   0  0  0  0  0  0  0  0  0  0  0  0
    8.3224  -13.6069   20.8157 C   0  0  0  0  0  0  0  0  0  0  0  0
    8.2245  -14.8540   21.6674 C   0  0  2  0  0  0  0  0  0  0  0  0
    6.8389  -15.2055   21.9023 N   0  0  0  0  0  0  0  0  0  0  0  0
    8.8699  -14.6730   22.9868 C   0  0  0  0  0  0  0  0  0  0  0  0
   10.1055  -14.4926   23.0734 O   0  0  0  0  0  0  0  0  0  0  0  0
    6.1397  -11.8707   26.4894 C   0  0  0  0  0  0  0  0  0  0  0  0
    7.2208  -12.5023   25.6553 C   0  0  0  0  0  0  0  0  0  0  0  0
    7.7162  -13.7330   26.3581 C   0  0  2  0  0  0  0  0  0  0  0  0
    8.3796  -13.3110   27.6489 C   0  0  0  0  0  0  0  0  0  0  0  0
    8.6974  -14.5175   25.5077 C   0  0  2  0  0  0  0  0  0  0  0  0
    8.1324  -14.6941   24.2099 N   0  0  0  0  0  0  0  0  0  0  0  0
    8.9947  -15.8182   26.1836 C   0  0  0  0  0  0  0  0  0  0  0  0
    8.0523  -16.4282   26.7064 O   0  0  0  0  0  0  0  0  0  0  0  0
   12.8990  -17.5128   25.9820 O   0  0  0  0  0  0  0  0  0  0  0  0
   11.7456  -18.2937   25.9806 C   0  0  0  0  0  0  0  0  0  0  0  0
   10.6330  -17.6229   26.7611 C   0  0  2  0  0  0  0  0  0  0  0  0
   10.3072  -16.3223   26.2175 N   0  0  0  0  0  0  0  0  0  0  0  0
   10.9605  -17.5483   28.2051 C   0  0  0  0  0  0  0  0  0  0  0  0
   11.2284  -18.5593   28.8963 O   0  0  0  0  0  0  0  0  0  0  0  0
   10.9704  -16.3191   28.8099 O   0  0  0  0  0  0  0  0  0  0  0  0
  2  1  1  6
  2  3  1  0
  4  2  1  0
  5  4  1  0
  5  6  1  1
  7  8  2  0
  7  5  1  0
 10  9  1  0
 11 10  1  0
 11 12  1  1
 13 11  1  0
 13 14  1  6
 14  7  1  0
 15 20  1  0
 15 13  1  0
 16 15  2  0
 18 17  1  0
 19 18  1  6
 19 20  1  0
 21 19  1  0
 21 23  1  0
 22 21  2  0
M  END
$$$$
