LIS.pdb
     RDKit          3D

 23 22  0  0  1  0  0  0  0  0999 V2000
    7.3450  -21.4907   18.5636 C   0  0  0  0  0  0  0  0  0  0  0  0
    8.1321  -20.4318   17.8212 C   0  0  2  0  0  0  0  0  0  0  0  0
    8.9391  -21.1241   16.7670 C   0  0  0  0  0  0  0  0  0  0  0  0
    9.0161  -19.6350   18.7493 C   0  0  0  0  0  0  0  0  0  0  0  0
    9.2776  -18.2484   18.2025 C   0  0  2  0  0  0  0  0  0  0  0  0
   10.3304  -18.2808   17.2080 N   0  0  0  0  0  0  0  0  0  0  0  0
    9.6947  -17.3062   19.2649 C   0  0  0  0  0  0  0  0  0  0  0  0
   10.9037  -17.1707   19.5591 O   0  0  0  0  0  0  0  0  0  0  0  0
    6.7959  -12.7208   20.0946 C   0  0  0  0  0  0  0  0  0  0  0  0
    7.9618  -13.6612   19.9538 C   0  0  0  0  0  0  0  0  0  0  0  0
    8.0016  -14.5641   21.1526 C   0  0  2  0  0  0  0  0  0  0  0  0
    8.2220  -13.7145   22.3830 C   0  0  0  0  0  0  0  0  0  0  0  0
    9.0986  -15.6063   21.0436 C   0  0  2  0  0  0  0  0  0  0  0  0
    8.7583  -16.5152   19.9983 N   0  0  0  0  0  0  0  0  0  0  0  0
    9.2546  -16.2880   22.3657 C   0  0  0  0  0  0  0  0  0  0  0  0
    8.2762  -16.8923   22.8250 O   0  0  0  0  0  0  0  0  0  0  0  0
   13.0346  -16.3470   24.3234 O   0  0  0  0  0  0  0  0  0  0  0  0
   12.1573  -17.4268   24.3899 C   0  0  0  0  0  0  0  0  0  0  0  0
   10.7174  -16.9659   24.2827 C   0  0  2  0  0  0  0  0  0  0  0  0
   10.4789  -16.2371   23.0558 N   0  0  0  0  0  0  0  0  0  0  0  0
   10.3155  -16.1812   25.4747 C   0  0  0  0  0  0  0  0  0  0  0  0
    9.8798  -15.0079   25.4032 O   0  0  0  0  0  0  0  0  0  0  0  0
   10.4256  -16.7658   26.7089 O   0  0  0  0  0  0  0  0  0  0  0  0
  2  1  1  1
  2  3  1  0
  4  2  1  0
  5  4  1  0
  5  6  1  6
  7  8  2  0
  7  5  1  0
 10  9  1  0
 11 10  1  0
 11 12  1  1
 13 11  1  0
 13 14  1  6
 14  7  1  0
 15 20  1  0
 15 13  1  0
 16 15  2  0
 18 17  1  0
 19 18  1  1
 19 20  1  0
 21 19  1  0
 21 23  1  0
 22 21  2  0
M  END
$$$$
