LIS.pdb
     RDKit          3D

 23 22  0  0  1  0  0  0  0  0999 V2000
    9.1629  -14.5917   29.6112 C   0  0  0  0  0  0  0  0  0  0  0  0
   10.1581  -15.7310   29.6702 C   0  0  2  0  0  0  0  0  0  0  0  0
   11.5295  -15.1317   29.7139 C   0  0  0  0  0  0  0  0  0  0  0  0
   10.0095  -16.6681   28.4966 C   0  0  0  0  0  0  0  0  0  0  0  0
    8.5568  -17.0120   28.2492 C   0  0  2  0  0  0  0  0  0  0  0  0
    8.3047  -18.4082   28.5415 N   0  0  0  0  0  0  0  0  0  0  0  0
    8.1648  -16.7716   26.8425 C   0  0  0  0  0  0  0  0  0  0  0  0
    7.9766  -17.7301   26.0598 O   0  0  0  0  0  0  0  0  0  0  0  0
    6.2365  -11.9499   25.9401 C   0  0  0  0  0  0  0  0  0  0  0  0
    6.1912  -13.3492   25.3891 C   0  0  0  0  0  0  0  0  0  0  0  0
    7.5275  -13.6748   24.7871 C   0  0  2  0  0  0  0  0  0  0  0  0
    7.4996  -13.2887   23.3261 C   0  0  0  0  0  0  0  0  0  0  0  0
    7.8697  -15.1463   24.9242 C   0  0  2  0  0  0  0  0  0  0  0  0
    7.9834  -15.4581   26.3114 N   0  0  0  0  0  0  0  0  0  0  0  0
    9.1314  -15.4242   24.1705 C   0  0  0  0  0  0  0  0  0  0  0  0
   10.1574  -14.8235   24.5168 O   0  0  0  0  0  0  0  0  0  0  0  0
   10.3224  -18.9018   23.0159 O   0  0  0  0  0  0  0  0  0  0  0  0
   10.4016  -18.0668   21.9039 C   0  0  0  0  0  0  0  0  0  0  0  0
   10.3192  -16.6091   22.3106 C   0  0  2  0  0  0  0  0  0  0  0  0
    9.1395  -16.3409   23.1040 N   0  0  0  0  0  0  0  0  0  0  0  0
   10.4009  -15.7173   21.1290 C   0  0  0  0  0  0  0  0  0  0  0  0
    9.4509  -14.9879   20.7586 O   0  0  0  0  0  0  0  0  0  0  0  0
   11.5672  -15.6901   20.4108 O   0  0  0  0  0  0  0  0  0  0  0  0
  2  1  1  6
  2  3  1  0
  4  2  1  0
  5  4  1  0
  5  6  1  6
  7  8  2  0
  7  5  1  0
 10  9  1  0
 11 10  1  0
 11 12  1  6
 13 11  1  0
 13 14  1  1
 14  7  1  0
 15 20  1  0
 15 13  1  0
 16 15  2  0
 18 17  1  0
 19 18  1  6
 19 20  1  0
 21 19  1  0
 21 23  1  0
 22 21  2  0
M  END
$$$$
