LIS.pdb
     RDKit          3D

 23 22  0  0  1  0  0  0  0  0999 V2000
    4.9847  -17.7357   20.6102 C   0  0  0  0  0  0  0  0  0  0  0  0
    6.3836  -17.3879   20.1473 C   0  0  2  0  0  0  0  0  0  0  0  0
    6.9526  -18.5998   19.4772 C   0  0  0  0  0  0  0  0  0  0  0  0
    7.2579  -16.9362   21.2916 C   0  0  0  0  0  0  0  0  0  0  0  0
    7.2881  -15.4270   21.3969 C   0  0  2  0  0  0  0  0  0  0  0  0
    7.8775  -14.8431   20.2094 N   0  0  0  0  0  0  0  0  0  0  0  0
    8.0811  -14.9709   22.5603 C   0  0  0  0  0  0  0  0  0  0  0  0
    9.3183  -14.8068   22.4645 O   0  0  0  0  0  0  0  0  0  0  0  0
    5.8848  -11.6231   26.1239 C   0  0  0  0  0  0  0  0  0  0  0  0
    6.9109  -12.3026   25.2585 C   0  0  0  0  0  0  0  0  0  0  0  0
    7.3489  -13.5701   25.9336 C   0  0  2  0  0  0  0  0  0  0  0  0
    8.1170  -13.2046   27.1829 C   0  0  0  0  0  0  0  0  0  0  0  0
    8.2149  -14.4263   25.0289 C   0  0  2  0  0  0  0  0  0  0  0  0
    7.4893  -14.6985   23.8315 N   0  0  0  0  0  0  0  0  0  0  0  0
    8.5985  -15.6730   25.7609 C   0  0  0  0  0  0  0  0  0  0  0  0
    7.6896  -16.3838   26.2104 O   0  0  0  0  0  0  0  0  0  0  0  0
   11.4771  -17.8912   24.5391 O   0  0  0  0  0  0  0  0  0  0  0  0
   11.6233  -17.8105   25.9219 C   0  0  0  0  0  0  0  0  0  0  0  0
   10.3764  -17.2414   26.5689 C   0  0  2  0  0  0  0  0  0  0  0  0
    9.9521  -16.0163   25.9269 N   0  0  0  0  0  0  0  0  0  0  0  0
   10.5648  -17.0601   28.0283 C   0  0  0  0  0  0  0  0  0  0  0  0
   10.4767  -15.9445   28.5935 O   0  0  0  0  0  0  0  0  0  0  0  0
   10.8476  -18.1617   28.7921 O   0  0  0  0  0  0  0  0  0  0  0  0
  2  1  1  1
  2  3  1  0
  4  2  1  0
  5  4  1  0
  5  6  1  6
  7  8  2  0
  7  5  1  0
 10  9  1  0
 11 10  1  0
 11 12  1  1
 13 11  1  0
 13 14  1  6
 14  7  1  0
 15 20  1  0
 15 13  1  0
 16 15  2  0
 18 17  1  0
 19 18  1  6
 19 20  1  0
 21 19  1  0
 21 23  1  0
 22 21  2  0
M  END
$$$$
