LIS.pdb
     RDKit          3D

 23 22  0  0  1  0  0  0  0  0999 V2000
   10.2127  -19.9476   26.4649 C   0  0  0  0  0  0  0  0  0  0  0  0
    9.0501  -19.0079   26.7047 C   0  0  2  0  0  0  0  0  0  0  0  0
    9.1487  -18.5175   28.1159 C   0  0  0  0  0  0  0  0  0  0  0  0
    7.7229  -19.6805   26.4525 C   0  0  0  0  0  0  0  0  0  0  0  0
    6.5841  -18.6855   26.5063 C   0  0  2  0  0  0  0  0  0  0  0  0
    5.3124  -19.3527   26.3162 N   0  0  0  0  0  0  0  0  0  0  0  0
    6.7068  -17.6493   25.4568 C   0  0  0  0  0  0  0  0  0  0  0  0
    6.4136  -17.9075   24.2676 O   0  0  0  0  0  0  0  0  0  0  0  0
    6.3306  -12.4283   26.9315 C   0  0  0  0  0  0  0  0  0  0  0  0
    6.1459  -13.5977   26.0031 C   0  0  0  0  0  0  0  0  0  0  0  0
    7.4814  -13.9756   25.4307 C   0  0  2  0  0  0  0  0  0  0  0  0
    7.8909  -12.9156   24.4342 C   0  0  0  0  0  0  0  0  0  0  0  0
    7.4465  -15.3326   24.7534 C   0  0  2  0  0  0  0  0  0  0  0  0
    7.1581  -16.3236   25.7380 N   0  0  0  0  0  0  0  0  0  0  0  0
    8.7563  -15.5691   24.0709 C   0  0  0  0  0  0  0  0  0  0  0  0
    9.7491  -15.7814   24.7800 O   0  0  0  0  0  0  0  0  0  0  0  0
    8.5746  -16.8957   20.2534 O   0  0  0  0  0  0  0  0  0  0  0  0
    9.7386  -16.1617   20.4683 C   0  0  0  0  0  0  0  0  0  0  0  0
   10.0161  -16.0023   21.9498 C   0  0  2  0  0  0  0  0  0  0  0  0
    8.8447  -15.5485   22.6676 N   0  0  0  0  0  0  0  0  0  0  0  0
   11.1816  -15.1165   22.1847 C   0  0  0  0  0  0  0  0  0  0  0  0
   11.1102  -14.0592   22.8544 O   0  0  0  0  0  0  0  0  0  0  0  0
   12.3901  -15.4707   21.6452 O   0  0  0  0  0  0  0  0  0  0  0  0
  2  1  1  1
  2  3  1  0
  4  2  1  0
  5  4  1  0
  5  6  1  6
  7  8  2  0
  7  5  1  0
 10  9  1  0
 11 10  1  0
 11 12  1  6
 13 11  1  0
 13 14  1  1
 14  7  1  0
 15 20  1  0
 15 13  1  0
 16 15  2  0
 18 17  1  0
 19 18  1  6
 19 20  1  0
 21 19  1  0
 21 23  1  0
 22 21  2  0
M  END
$$$$
