LIS.pdb
     RDKit          3D

 23 22  0  0  1  0  0  0  0  0999 V2000
    5.7866  -12.3210   26.0564 C   0  0  0  0  0  0  0  0  0  0  0  0
    6.7561  -13.0220   26.9842 C   0  0  2  0  0  0  0  0  0  0  0  0
    7.6758  -11.9828   27.5462 C   0  0  0  0  0  0  0  0  0  0  0  0
    7.5281  -14.1072   26.2743 C   0  0  0  0  0  0  0  0  0  0  0  0
    6.6137  -14.9705   25.4326 C   0  0  2  0  0  0  0  0  0  0  0  0
    6.0188  -16.0195   26.2351 N   0  0  0  0  0  0  0  0  0  0  0  0
    7.3392  -15.6179   24.3168 C   0  0  0  0  0  0  0  0  0  0  0  0
    7.6951  -16.8153   24.3965 O   0  0  0  0  0  0  0  0  0  0  0  0
    7.4543  -12.3847   20.1605 C   0  0  0  0  0  0  0  0  0  0  0  0
    7.2316  -13.8145   20.5726 C   0  0  0  0  0  0  0  0  0  0  0  0
    8.5526  -14.4197   20.9500 C   0  0  2  0  0  0  0  0  0  0  0  0
    9.1705  -15.0273   19.7117 C   0  0  0  0  0  0  0  0  0  0  0  0
    8.4061  -15.4799   22.0252 C   0  0  2  0  0  0  0  0  0  0  0  0
    7.6665  -14.9250   23.1114 N   0  0  0  0  0  0  0  0  0  0  0  0
    9.7664  -15.9448   22.4381 C   0  0  0  0  0  0  0  0  0  0  0  0
   10.5260  -15.1197   22.9633 O   0  0  0  0  0  0  0  0  0  0  0  0
   10.6300  -19.9520   22.0230 O   0  0  0  0  0  0  0  0  0  0  0  0
   11.4210  -19.2595   22.9366 C   0  0  0  0  0  0  0  0  0  0  0  0
   11.4624  -17.7801   22.6095 C   0  0  2  0  0  0  0  0  0  0  0  0
   10.1588  -17.2793   22.2311 N   0  0  0  0  0  0  0  0  0  0  0  0
   12.4843  -17.4879   21.5759 C   0  0  0  0  0  0  0  0  0  0  0  0
   12.2123  -16.9288   20.4873 O   0  0  0  0  0  0  0  0  0  0  0  0
   13.7836  -17.8453   21.8228 O   0  0  0  0  0  0  0  0  0  0  0  0
  2  1  1  6
  2  3  1  0
  4  2  1  0
  5  4  1  0
  5  6  1  1
  7  8  2  0
  7  5  1  0
 10  9  1  0
 11 10  1  0
 11 12  1  6
 13 11  1  0
 13 14  1  1
 14  7  1  0
 15 20  1  0
 15 13  1  0
 16 15  2  0
 18 17  1  0
 19 18  1  6
 19 20  1  0
 21 19  1  0
 21 23  1  0
 22 21  2  0
M  END
$$$$
