LIS.pdb
     RDKit          3D

 23 22  0  0  1  0  0  0  0  0999 V2000
    3.9993  -20.0776   21.6764 C   0  0  0  0  0  0  0  0  0  0  0  0
    3.2156  -18.8759   22.1599 C   0  0  2  0  0  0  0  0  0  0  0  0
    2.1521  -18.5915   21.1451 C   0  0  0  0  0  0  0  0  0  0  0  0
    4.1035  -17.6740   22.3710 C   0  0  0  0  0  0  0  0  0  0  0  0
    5.2612  -18.0012   23.2890 C   0  0  2  0  0  0  0  0  0  0  0  0
    4.7929  -18.2345   24.6398 N   0  0  0  0  0  0  0  0  0  0  0  0
    6.2507  -16.9019   23.3422 C   0  0  0  0  0  0  0  0  0  0  0  0
    6.8603  -16.5415   22.3101 O   0  0  0  0  0  0  0  0  0  0  0  0
    5.7499  -12.7040   26.7740 C   0  0  0  0  0  0  0  0  0  0  0  0
    6.0782  -13.5327   25.5620 C   0  0  0  0  0  0  0  0  0  0  0  0
    7.3070  -14.3454   25.8510 C   0  0  2  0  0  0  0  0  0  0  0  0
    8.4612  -13.3984   26.0863 C   0  0  0  0  0  0  0  0  0  0  0  0
    7.6422  -15.2932   24.7150 C   0  0  2  0  0  0  0  0  0  0  0  0
    6.5584  -16.2058   24.5510 N   0  0  0  0  0  0  0  0  0  0  0  0
    8.9312  -15.9861   25.0243 C   0  0  0  0  0  0  0  0  0  0  0  0
    9.0237  -16.5817   26.1060 O   0  0  0  0  0  0  0  0  0  0  0  0
   12.1329  -16.0401   22.1717 O   0  0  0  0  0  0  0  0  0  0  0  0
   11.6991  -17.1828   22.8396 C   0  0  0  0  0  0  0  0  0  0  0  0
   11.1404  -16.8362   24.2052 C   0  0  2  0  0  0  0  0  0  0  0  0
    9.9971  -15.9549   24.1075 N   0  0  0  0  0  0  0  0  0  0  0  0
   12.1915  -16.2765   25.0884 C   0  0  0  0  0  0  0  0  0  0  0  0
   12.1219  -15.1289   25.5882 O   0  0  0  0  0  0  0  0  0  0  0  0
   13.2874  -17.0490   25.3700 O   0  0  0  0  0  0  0  0  0  0  0  0
  2  1  1  6
  2  3  1  0
  4  2  1  0
  5  4  1  0
  5  6  1  1
  7  8  2  0
  7  5  1  0
 10  9  1  0
 11 10  1  0
 11 12  1  6
 13 11  1  0
 13 14  1  1
 14  7  1  0
 15 20  1  0
 15 13  1  0
 16 15  2  0
 18 17  1  0
 19 18  1  6
 19 20  1  0
 21 19  1  0
 21 23  1  0
 22 21  2  0
M  END
$$$$
