LPA.pdb
     RDKit          3D

 21 21  0  0  1  0  0  0  0  0999 V2000
   28.1456  -19.1293   -4.3052 C   0  0  0  0  0  0  0  0  0  0  0  0
   27.7056  -20.2677   -5.2103 C   0  0  2  0  0  0  0  0  0  0  0  0
   27.8514  -21.5965   -4.4994 C   0  0  0  0  0  0  0  0  0  0  0  0
   28.5555  -20.2868   -6.4871 C   0  0  0  0  0  0  0  0  0  0  0  0
   28.1906  -19.0942   -7.3417 C   0  0  2  0  0  0  0  0  0  0  0  0
   27.5417  -18.0907   -6.5789 N   0  0  0  0  0  0  0  0  0  0  0  0
   27.4878  -19.5429   -8.5609 C   0  0  0  0  0  0  0  0  0  0  0  0
   26.2587  -19.2978   -8.5919 O   0  0  0  0  0  0  0  0  0  0  0  0
   28.1504  -20.2096   -9.6356 N   0  0  0  0  0  0  0  0  0  0  0  0
   29.6090  -20.3809   -9.6456 C   0  0  0  0  0  0  0  0  0  0  0  0
   29.9310  -21.2448  -10.8576 C   0  0  0  0  0  0  0  0  0  0  0  0
   28.5997  -21.9984  -11.0180 C   0  0  0  0  0  0  0  0  0  0  0  0
   27.6658  -20.7835  -10.8285 C   0  0  1  0  0  0  0  0  0  0  0  0
   26.2896  -21.2571  -10.8834 C   0  0  0  0  0  0  0  0  0  0  0  0
   25.7198  -22.1013  -10.1686 O   0  0  0  0  0  0  0  0  0  0  0  0
   23.2242  -19.7280  -12.2093 C   0  0  0  0  0  0  0  0  0  0  0  0
   24.0622  -20.9813  -11.9860 C   0  0  2  0  0  0  0  0  0  0  0  0
   25.4714  -20.6639  -11.9114 N   0  0  0  0  0  0  0  0  0  0  0  0
   23.8407  -21.8560  -13.1500 C   0  0  0  0  0  0  0  0  0  0  0  0
   24.7619  -22.0278  -13.9735 O   0  0  0  0  0  0  0  0  0  0  0  0
   22.6335  -22.4852  -13.3412 O   0  0  0  0  0  0  0  0  0  0  0  0
  2  3  1  1
  2  1  1  0
  4  2  1  0
  5  4  1  0
  5  6  1  1
  7  5  1  0
  7  9  1  0
  8  7  2  0
  9 13  1  0
 10  9  1  0
 10 11  1  0
 11 12  1  0
 13 14  1  1
 13 12  1  0
 14 18  1  0
 15 14  2  0
 17 16  1  6
 17 19  1  0
 18 17  1  0
 19 20  2  0
 19 21  1  0
M  END
$$$$
