LPA.pdb
     RDKit          3D

 21 21  0  0  1  0  0  0  0  0999 V2000
   27.6347  -17.3637  -15.6478 C   0  0  0  0  0  0  0  0  0  0  0  0
   26.1497  -17.0645  -15.7665 C   0  0  2  0  0  0  0  0  0  0  0  0
   25.8886  -15.5874  -15.5601 C   0  0  0  0  0  0  0  0  0  0  0  0
   25.3640  -17.8632  -14.7188 C   0  0  0  0  0  0  0  0  0  0  0  0
   25.6422  -19.3369  -14.9102 C   0  0  2  0  0  0  0  0  0  0  0  0
   24.7581  -19.9111  -15.8582 N   0  0  0  0  0  0  0  0  0  0  0  0
   25.7183  -20.0109  -13.5981 C   0  0  0  0  0  0  0  0  0  0  0  0
   24.6270  -20.1298  -12.9925 O   0  0  0  0  0  0  0  0  0  0  0  0
   26.9423  -20.4976  -13.0473 N   0  0  0  0  0  0  0  0  0  0  0  0
   28.0735  -20.8684  -13.9075 C   0  0  0  0  0  0  0  0  0  0  0  0
   29.2300  -21.2025  -12.9748 C   0  0  0  0  0  0  0  0  0  0  0  0
   28.8388  -20.3675  -11.7438 C   0  0  0  0  0  0  0  0  0  0  0  0
   27.3427  -20.7484  -11.7192 C   0  0  1  0  0  0  0  0  0  0  0  0
   26.7064  -20.0159  -10.6330 C   0  0  0  0  0  0  0  0  0  0  0  0
   26.5197  -18.7914  -10.5143 O   0  0  0  0  0  0  0  0  0  0  0  0
   24.8038  -21.0861   -7.5588 C   0  0  0  0  0  0  0  0  0  0  0  0
   25.7779  -20.1928   -8.3179 C   0  0  2  0  0  0  0  0  0  0  0  0
   26.2246  -20.8236   -9.5405 N   0  0  0  0  0  0  0  0  0  0  0  0
   26.9447  -19.9922   -7.4418 C   0  0  0  0  0  0  0  0  0  0  0  0
   27.9899  -20.6398   -7.6526 O   0  0  0  0  0  0  0  0  0  0  0  0
   26.8976  -19.1016   -6.3956 O   0  0  0  0  0  0  0  0  0  0  0  0
  2  3  1  1
  2  1  1  0
  4  2  1  0
  5  4  1  0
  5  6  1  6
  7  5  1  0
  7  9  1  0
  8  7  2  0
  9 13  1  0
 10  9  1  0
 10 11  1  0
 11 12  1  0
 13 14  1  1
 13 12  1  0
 14 18  1  0
 15 14  2  0
 17 16  1  1
 17 19  1  0
 18 17  1  0
 19 20  2  0
 19 21  1  0
M  END
$$$$
