LPA.pdb
     RDKit          3D

 21 21  0  0  1  0  0  0  0  0999 V2000
   34.3080  -22.1712    5.5485 C   0  0  0  0  0  0  0  0  0  0  0  0
   33.8540  -22.8014    4.2425 C   0  0  2  0  0  0  0  0  0  0  0  0
   32.5048  -22.2519    3.8299 C   0  0  0  0  0  0  0  0  0  0  0  0
   33.7485  -24.3237    4.3985 C   0  0  0  0  0  0  0  0  0  0  0  0
   35.1355  -24.9001    4.5714 C   0  0  2  0  0  0  0  0  0  0  0  0
   35.2258  -26.2037    4.0216 N   0  0  0  0  0  0  0  0  0  0  0  0
   35.5721  -24.7526    5.9747 C   0  0  0  0  0  0  0  0  0  0  0  0
   34.7276  -25.0911    6.8372 O   0  0  0  0  0  0  0  0  0  0  0  0
   36.8627  -24.2609    6.3365 N   0  0  0  0  0  0  0  0  0  0  0  0
   37.9425  -24.1477    5.3475 C   0  0  0  0  0  0  0  0  0  0  0  0
   39.1045  -23.4660    6.0574 C   0  0  0  0  0  0  0  0  0  0  0  0
   38.3433  -22.6907    7.1460 C   0  0  0  0  0  0  0  0  0  0  0  0
   37.3951  -23.8332    7.5697 C   0  0  1  0  0  0  0  0  0  0  0  0
   36.4960  -23.3194    8.5940 C   0  0  0  0  0  0  0  0  0  0  0  0
   35.4936  -22.5932    8.4673 O   0  0  0  0  0  0  0  0  0  0  0  0
   36.3138  -24.0210   12.3268 C   0  0  0  0  0  0  0  0  0  0  0  0
   35.9506  -23.2994   11.0343 C   0  0  2  0  0  0  0  0  0  0  0  0
   36.8118  -23.7070    9.9460 N   0  0  0  0  0  0  0  0  0  0  0  0
   36.1526  -21.8610   11.2771 C   0  0  0  0  0  0  0  0  0  0  0  0
   37.2378  -21.3314   10.9636 O   0  0  0  0  0  0  0  0  0  0  0  0
   35.1623  -21.0944   11.8441 O   0  0  0  0  0  0  0  0  0  0  0  0
  2  3  1  1
  2  1  1  0
  4  2  1  0
  5  4  1  0
  5  6  1  1
  7  5  1  0
  7  9  1  0
  8  7  2  0
  9 13  1  0
 10  9  1  0
 10 11  1  0
 11 12  1  0
 13 14  1  1
 13 12  1  0
 14 18  1  0
 15 14  2  0
 17 16  1  1
 17 19  1  0
 18 17  1  0
 19 20  2  0
 19 21  1  0
M  END
$$$$
