LPA.pdb
     RDKit          3D

 21 21  0  0  1  0  0  0  0  0999 V2000
   20.3525   -9.5280  -17.8613 C   0  0  0  0  0  0  0  0  0  0  0  0
   18.8395   -9.5408  -17.7216 C   0  0  2  0  0  0  0  0  0  0  0  0
   18.1811   -9.4793  -19.0836 C   0  0  0  0  0  0  0  0  0  0  0  0
   18.3755   -8.3409  -16.8863 C   0  0  0  0  0  0  0  0  0  0  0  0
   18.9549   -8.4540  -15.4943 C   0  0  2  0  0  0  0  0  0  0  0  0
   18.3888   -9.5436  -14.7857 N   0  0  0  0  0  0  0  0  0  0  0  0
   18.9062   -7.1413  -14.8191 C   0  0  0  0  0  0  0  0  0  0  0  0
   17.7640   -6.6360  -14.7114 O   0  0  0  0  0  0  0  0  0  0  0  0
   20.0709   -6.4839  -14.3193 N   0  0  0  0  0  0  0  0  0  0  0  0
   21.2886   -7.2344  -13.9862 C   0  0  0  0  0  0  0  0  0  0  0  0
   22.3451   -6.1990  -13.6246 C   0  0  0  0  0  0  0  0  0  0  0  0
   21.8206   -4.9864  -14.4122 C   0  0  0  0  0  0  0  0  0  0  0  0
   20.3337   -5.1312  -14.0225 C   0  0  1  0  0  0  0  0  0  0  0  0
   19.5814   -4.0916  -14.7115 C   0  0  0  0  0  0  0  0  0  0  0  0
   19.3291   -3.9771  -15.9246 O   0  0  0  0  0  0  0  0  0  0  0  0
   17.2686   -1.4264  -13.4232 C   0  0  0  0  0  0  0  0  0  0  0  0
   18.2482   -1.9930  -14.4443 C   0  0  2  0  0  0  0  0  0  0  0  0
   19.0543   -3.0473  -13.8691 N   0  0  0  0  0  0  0  0  0  0  0  0
   19.1374   -0.8882  -14.8415 C   0  0  0  0  0  0  0  0  0  0  0  0
   18.6872    0.0417  -15.5408 O   0  0  0  0  0  0  0  0  0  0  0  0
   20.4557   -0.8678  -14.4525 O   0  0  0  0  0  0  0  0  0  0  0  0
  2  3  1  6
  2  1  1  0
  4  2  1  0
  5  4  1  0
  5  6  1  1
  7  5  1  0
  7  9  1  0
  8  7  2  0
  9 13  1  0
 10  9  1  0
 10 11  1  0
 11 12  1  0
 13 14  1  6
 13 12  1  0
 14 18  1  0
 15 14  2  0
 17 16  1  1
 17 19  1  0
 18 17  1  0
 19 20  2  0
 19 21  1  0
M  END
$$$$
