LPA.pdb
     RDKit          3D

 21 21  0  0  1  0  0  0  0  0999 V2000
   16.8929  -14.7367    2.4394 C   0  0  0  0  0  0  0  0  0  0  0  0
   18.1572  -13.9724    2.7948 C   0  0  2  0  0  0  0  0  0  0  0  0
   19.2381  -14.2285    1.7660 C   0  0  0  0  0  0  0  0  0  0  0  0
   18.6666  -14.4059    4.1752 C   0  0  0  0  0  0  0  0  0  0  0  0
   17.7682  -13.8191    5.2403 C   0  0  2  0  0  0  0  0  0  0  0  0
   17.8994  -12.4091    5.3080 N   0  0  0  0  0  0  0  0  0  0  0  0
   17.9455  -14.5521    6.5103 C   0  0  0  0  0  0  0  0  0  0  0  0
   18.9774  -14.2586    7.1589 O   0  0  0  0  0  0  0  0  0  0  0  0
   17.0142  -15.5282    6.9775 N   0  0  0  0  0  0  0  0  0  0  0  0
   15.5968  -15.4763    6.5964 C   0  0  0  0  0  0  0  0  0  0  0  0
   14.9546  -16.7365    7.1608 C   0  0  0  0  0  0  0  0  0  0  0  0
   16.1808  -17.6627    7.2262 C   0  0  0  0  0  0  0  0  0  0  0  0
   17.1644  -16.6387    7.8327 C   0  0  1  0  0  0  0  0  0  0  0  0
   18.4685  -17.2770    7.9490 C   0  0  0  0  0  0  0  0  0  0  0  0
   19.3133  -17.5056    7.0644 O   0  0  0  0  0  0  0  0  0  0  0  0
   20.4395  -18.3885   10.9981 C   0  0  0  0  0  0  0  0  0  0  0  0
   20.1194  -18.3221    9.5095 C   0  0  2  0  0  0  0  0  0  0  0  0
   18.8323  -17.7045    9.2767 N   0  0  0  0  0  0  0  0  0  0  0  0
   20.0669  -19.7107    9.0217 C   0  0  0  0  0  0  0  0  0  0  0  0
   18.9697  -20.3020    8.9682 O   0  0  0  0  0  0  0  0  0  0  0  0
   21.2097  -20.3636    8.6248 O   0  0  0  0  0  0  0  0  0  0  0  0
  2  3  1  6
  2  1  1  0
  4  2  1  0
  5  4  1  0
  5  6  1  1
  7  5  1  0
  7  9  1  0
  8  7  2  0
  9 13  1  0
 10  9  1  0
 10 11  1  0
 11 12  1  0
 13 14  1  6
 13 12  1  0
 14 18  1  0
 15 14  2  0
 17 16  1  1
 17 19  1  0
 18 17  1  0
 19 20  2  0
 19 21  1  0
M  END
$$$$
