LPA.pdb
     RDKit          3D

 21 21  0  0  1  0  0  0  0  0999 V2000
   25.3747  -17.8575  -13.8640 C   0  0  0  0  0  0  0  0  0  0  0  0
   26.3280  -18.7624  -13.1017 C   0  0  2  0  0  0  0  0  0  0  0  0
   27.6159  -18.0309  -12.7876 C   0  0  0  0  0  0  0  0  0  0  0  0
   26.6508  -20.0105  -13.9329 C   0  0  0  0  0  0  0  0  0  0  0  0
   26.2567  -21.2419  -13.1491 C   0  0  2  0  0  0  0  0  0  0  0  0
   24.9099  -21.6060  -13.4012 N   0  0  0  0  0  0  0  0  0  0  0  0
   26.6335  -21.0793  -11.7303 C   0  0  0  0  0  0  0  0  0  0  0  0
   25.7323  -20.6279  -10.9848 O   0  0  0  0  0  0  0  0  0  0  0  0
   27.9294  -21.4098  -11.2305 N   0  0  0  0  0  0  0  0  0  0  0  0
   28.9838  -21.9187  -12.1172 C   0  0  0  0  0  0  0  0  0  0  0  0
   30.2440  -22.0235  -11.2688 C   0  0  0  0  0  0  0  0  0  0  0  0
   29.9401  -20.9645  -10.1954 C   0  0  0  0  0  0  0  0  0  0  0  0
   28.4746  -21.3722   -9.9311 C   0  0  1  0  0  0  0  0  0  0  0  0
   27.9174  -20.4499   -8.9511 C   0  0  0  0  0  0  0  0  0  0  0  0
   27.5060  -19.2866   -9.1119 O   0  0  0  0  0  0  0  0  0  0  0  0
   26.4753  -20.7521   -5.5701 C   0  0  0  0  0  0  0  0  0  0  0  0
   27.4510  -20.0725   -6.5236 C   0  0  2  0  0  0  0  0  0  0  0  0
   27.8300  -20.9561   -7.6042 N   0  0  0  0  0  0  0  0  0  0  0  0
   28.6555  -19.7468   -5.7413 C   0  0  0  0  0  0  0  0  0  0  0  0
   28.6539  -18.7435   -4.9998 O   0  0  0  0  0  0  0  0  0  0  0  0
   29.7808  -20.5327   -5.8171 O   0  0  0  0  0  0  0  0  0  0  0  0
  2  3  1  6
  2  1  1  0
  4  2  1  0
  5  4  1  0
  5  6  1  1
  7  5  1  0
  7  9  1  0
  8  7  2  0
  9 13  1  0
 10  9  1  0
 10 11  1  0
 11 12  1  0
 13 14  1  1
 13 12  1  0
 14 18  1  0
 15 14  2  0
 17 16  1  1
 17 19  1  0
 18 17  1  0
 19 20  2  0
 19 21  1  0
M  END
$$$$
