LPA.pdb
     RDKit          3D

 21 21  0  0  1  0  0  0  0  0999 V2000
   28.2721  -18.5099  -15.7093 C   0  0  0  0  0  0  0  0  0  0  0  0
   26.8357  -18.1469  -15.3720 C   0  0  2  0  0  0  0  0  0  0  0  0
   26.6478  -16.6447  -15.4016 C   0  0  0  0  0  0  0  0  0  0  0  0
   26.4719  -18.6697  -13.9766 C   0  0  0  0  0  0  0  0  0  0  0  0
   26.5551  -20.1794  -13.9773 C   0  0  2  0  0  0  0  0  0  0  0  0
   25.5603  -20.7516  -14.8096 N   0  0  0  0  0  0  0  0  0  0  0  0
   26.6128  -20.6824  -12.5898 C   0  0  0  0  0  0  0  0  0  0  0  0
   25.5124  -20.7304  -11.9910 O   0  0  0  0  0  0  0  0  0  0  0  0
   27.8296  -21.0890  -11.9634 N   0  0  0  0  0  0  0  0  0  0  0  0
   28.9839  -21.5361  -12.7538 C   0  0  0  0  0  0  0  0  0  0  0  0
   30.1230  -21.7502  -11.7660 C   0  0  0  0  0  0  0  0  0  0  0  0
   29.6949  -20.7908  -10.6425 C   0  0  0  0  0  0  0  0  0  0  0  0
   28.2031  -21.1874  -10.6077 C   0  0  1  0  0  0  0  0  0  0  0  0
   27.5343  -20.3492   -9.6219 C   0  0  0  0  0  0  0  0  0  0  0  0
   27.2055  -19.1518   -9.7020 O   0  0  0  0  0  0  0  0  0  0  0  0
   25.5350  -20.9971   -6.5830 C   0  0  0  0  0  0  0  0  0  0  0  0
   26.6483  -20.2300   -7.2866 C   0  0  2  0  0  0  0  0  0  0  0  0
   27.2068  -20.9985   -8.3773 N   0  0  0  0  0  0  0  0  0  0  0  0
   27.7054  -19.9994   -6.2874 C   0  0  0  0  0  0  0  0  0  0  0  0
   28.7077  -20.7421   -6.2709 O   0  0  0  0  0  0  0  0  0  0  0  0
   27.6027  -18.9777   -5.3734 O   0  0  0  0  0  0  0  0  0  0  0  0
  2  3  1  1
  2  1  1  0
  4  2  1  0
  5  4  1  0
  5  6  1  1
  7  5  1  0
  7  9  1  0
  8  7  2  0
  9 13  1  0
 10  9  1  0
 10 11  1  0
 11 12  1  0
 13 14  1  1
 13 12  1  0
 14 18  1  0
 15 14  2  0
 17 16  1  1
 17 19  1  0
 18 17  1  0
 19 20  2  0
 19 21  1  0
M  END
$$$$
