LPA.pdb
     RDKit          3D

 21 21  0  0  1  0  0  0  0  0999 V2000
   22.3847  -15.4473  -19.5191 C   0  0  0  0  0  0  0  0  0  0  0  0
   20.9080  -15.1691  -19.2935 C   0  0  2  0  0  0  0  0  0  0  0  0
   20.2282  -14.8227  -20.6014 C   0  0  0  0  0  0  0  0  0  0  0  0
   20.7334  -14.0018  -18.3138 C   0  0  0  0  0  0  0  0  0  0  0  0
   21.1247  -14.4583  -16.9265 C   0  0  2  0  0  0  0  0  0  0  0  0
   20.4392  -15.6439  -16.5599 N   0  0  0  0  0  0  0  0  0  0  0  0
   21.0289  -13.3301  -15.9781 C   0  0  0  0  0  0  0  0  0  0  0  0
   19.8640  -12.9501  -15.7131 O   0  0  0  0  0  0  0  0  0  0  0  0
   22.1749  -12.7078  -15.3967 N   0  0  0  0  0  0  0  0  0  0  0  0
   23.4410  -13.4346  -15.2372 C   0  0  0  0  0  0  0  0  0  0  0  0
   24.4543  -12.4224  -14.7200 C   0  0  0  0  0  0  0  0  0  0  0  0
   23.8398  -11.1197  -15.2597 C   0  0  0  0  0  0  0  0  0  0  0  0
   22.3772  -11.4180  -14.8651 C   0  0  1  0  0  0  0  0  0  0  0  0
   21.5478  -10.3161  -15.3336 C   0  0  0  0  0  0  0  0  0  0  0  0
   21.2042  -10.0297  -16.4947 O   0  0  0  0  0  0  0  0  0  0  0  0
   19.3266   -7.9033  -13.4765 C   0  0  0  0  0  0  0  0  0  0  0  0
   20.1895   -8.3280  -14.6589 C   0  0  2  0  0  0  0  0  0  0  0  0
   21.0550   -9.4322  -14.3070 N   0  0  0  0  0  0  0  0  0  0  0  0
   21.0285   -7.1704  -15.0127 C   0  0  0  0  0  0  0  0  0  0  0  0
   22.2560   -7.2115  -14.7937 O   0  0  0  0  0  0  0  0  0  0  0  0
   20.4777   -6.0461  -15.5804 O   0  0  0  0  0  0  0  0  0  0  0  0
  2  3  1  6
  2  1  1  0
  4  2  1  0
  5  4  1  0
  5  6  1  1
  7  5  1  0
  7  9  1  0
  8  7  2  0
  9 13  1  0
 10  9  1  0
 10 11  1  0
 11 12  1  0
 13 14  1  6
 13 12  1  0
 14 18  1  0
 15 14  2  0
 17 16  1  1
 17 19  1  0
 18 17  1  0
 19 20  2  0
 19 21  1  0
M  END
$$$$
