LPA.pdb
     RDKit          3D

 21 21  0  0  1  0  0  0  0  0999 V2000
   15.5829  -25.0998   -5.4597 C   0  0  0  0  0  0  0  0  0  0  0  0
   14.4898  -26.1449   -5.3127 C   0  0  2  0  0  0  0  0  0  0  0  0
   13.1380  -25.4801   -5.1599 C   0  0  0  0  0  0  0  0  0  0  0  0
   14.7585  -27.0217   -4.0831 C   0  0  0  0  0  0  0  0  0  0  0  0
   15.9905  -27.8613   -4.3344 C   0  0  2  0  0  0  0  0  0  0  0  0
   15.8198  -28.7056   -5.4605 N   0  0  0  0  0  0  0  0  0  0  0  0
   16.4156  -28.5212   -3.0833 C   0  0  0  0  0  0  0  0  0  0  0  0
   15.6383  -29.4056   -2.6529 O   0  0  0  0  0  0  0  0  0  0  0  0
   17.6247  -28.1848   -2.4025 N   0  0  0  0  0  0  0  0  0  0  0  0
   18.7352  -27.5224   -3.0990 C   0  0  0  0  0  0  0  0  0  0  0  0
   19.7781  -27.2027   -2.0364 C   0  0  0  0  0  0  0  0  0  0  0  0
   18.8820  -27.1227   -0.7889 C   0  0  0  0  0  0  0  0  0  0  0  0
   18.0432  -28.3877   -1.0718 C   0  0  1  0  0  0  0  0  0  0  0  0
   17.0421  -28.5120   -0.0213 C   0  0  0  0  0  0  0  0  0  0  0  0
   15.9796  -27.8823    0.1302 O   0  0  0  0  0  0  0  0  0  0  0  0
   16.6698  -31.0434    2.7811 C   0  0  0  0  0  0  0  0  0  0  0  0
   16.3738  -29.7372    2.0537 C   0  0  2  0  0  0  0  0  0  0  0  0
   17.3213  -29.5050    0.9857 N   0  0  0  0  0  0  0  0  0  0  0  0
   16.5116  -28.6561    3.0443 C   0  0  0  0  0  0  0  0  0  0  0  0
   17.4662  -27.8581    2.9541 O   0  0  0  0  0  0  0  0  0  0  0  0
   15.6031  -28.5146    4.0663 O   0  0  0  0  0  0  0  0  0  0  0  0
  2  3  1  1
  2  1  1  0
  4  2  1  0
  5  4  1  0
  5  6  1  6
  7  5  1  0
  7  9  1  0
  8  7  2  0
  9 13  1  0
 10  9  1  0
 10 11  1  0
 11 12  1  0
 13 14  1  1
 13 12  1  0
 14 18  1  0
 15 14  2  0
 17 16  1  1
 17 19  1  0
 18 17  1  0
 19 20  2  0
 19 21  1  0
M  END
$$$$
