LPA.pdb
     RDKit          3D

 21 21  0  0  1  0  0  0  0  0999 V2000
   25.9359  -11.5322  -15.4889 C   0  0  0  0  0  0  0  0  0  0  0  0
   25.7171  -11.0421  -16.9105 C   0  0  2  0  0  0  0  0  0  0  0  0
   26.9494  -10.3242  -17.4190 C   0  0  0  0  0  0  0  0  0  0  0  0
   24.5217  -10.0824  -16.9609 C   0  0  0  0  0  0  0  0  0  0  0  0
   23.2629  -10.8418  -16.6076 C   0  0  2  0  0  0  0  0  0  0  0  0
   23.1100  -11.9946  -17.4185 N   0  0  0  0  0  0  0  0  0  0  0  0
   22.1114   -9.9179  -16.5641 C   0  0  0  0  0  0  0  0  0  0  0  0
   21.5964   -9.6505  -17.6754 O   0  0  0  0  0  0  0  0  0  0  0  0
   21.6101   -9.3620  -15.3483 N   0  0  0  0  0  0  0  0  0  0  0  0
   21.8762   -9.9965  -14.0508 C   0  0  0  0  0  0  0  0  0  0  0  0
   21.3118   -9.0594  -12.9914 C   0  0  0  0  0  0  0  0  0  0  0  0
   21.3787   -7.7210  -13.7463 C   0  0  0  0  0  0  0  0  0  0  0  0
   20.8127   -8.2285  -15.0901 C   0  0  1  0  0  0  0  0  0  0  0  0
   20.8241   -7.1195  -16.0343 C   0  0  0  0  0  0  0  0  0  0  0  0
   21.7925   -6.5712  -16.5910 O   0  0  0  0  0  0  0  0  0  0  0  0
   17.9919   -5.3584  -17.8395 C   0  0  0  0  0  0  0  0  0  0  0  0
   19.4236   -5.5108  -17.3395 C   0  0  2  0  0  0  0  0  0  0  0  0
   19.5304   -6.5807  -16.3720 N   0  0  0  0  0  0  0  0  0  0  0  0
   19.7819   -4.2446  -16.6781 C   0  0  0  0  0  0  0  0  0  0  0  0
   19.7031   -4.1564  -15.4362 O   0  0  0  0  0  0  0  0  0  0  0  0
   20.2016   -3.1594  -17.4102 O   0  0  0  0  0  0  0  0  0  0  0  0
  2  3  1  1
  2  1  1  0
  4  2  1  0
  5  4  1  0
  5  6  1  6
  7  5  1  0
  7  9  1  0
  8  7  2  0
  9 13  1  0
 10  9  1  0
 10 11  1  0
 11 12  1  0
 13 14  1  6
 13 12  1  0
 14 18  1  0
 15 14  2  0
 17 16  1  1
 17 19  1  0
 18 17  1  0
 19 20  2  0
 19 21  1  0
M  END
$$$$
