LPA.pdb
     RDKit          3D

 21 21  0  0  1  0  0  0  0  0999 V2000
   27.8295  -17.0524  -16.2382 C   0  0  0  0  0  0  0  0  0  0  0  0
   26.3630  -16.8196  -15.9157 C   0  0  2  0  0  0  0  0  0  0  0  0
   26.1080  -15.3533  -15.6370 C   0  0  0  0  0  0  0  0  0  0  0  0
   25.9550  -17.6414  -14.6865 C   0  0  0  0  0  0  0  0  0  0  0  0
   25.9957  -19.1111  -15.0388 C   0  0  2  0  0  0  0  0  0  0  0  0
   25.0369  -19.4311  -16.0329 N   0  0  0  0  0  0  0  0  0  0  0  0
   25.9558  -19.9266  -13.8080 C   0  0  0  0  0  0  0  0  0  0  0  0
   24.8305  -20.0200  -13.2632 O   0  0  0  0  0  0  0  0  0  0  0  0
   27.1103  -20.5690  -13.2669 N   0  0  0  0  0  0  0  0  0  0  0  0
   28.2300  -20.9782  -14.1247 C   0  0  0  0  0  0  0  0  0  0  0  0
   29.3188  -21.4922  -13.1924 C   0  0  0  0  0  0  0  0  0  0  0  0
   28.9665  -20.7214  -11.9089 C   0  0  0  0  0  0  0  0  0  0  0  0
   27.4415  -20.9588  -11.9533 C   0  0  1  0  0  0  0  0  0  0  0  0
   26.8405  -20.2552  -10.8285 C   0  0  0  0  0  0  0  0  0  0  0  0
   26.7273  -19.0309  -10.6371 O   0  0  0  0  0  0  0  0  0  0  0  0
   24.9338  -21.4510   -7.7843 C   0  0  0  0  0  0  0  0  0  0  0  0
   25.8661  -20.5114   -8.5398 C   0  0  2  0  0  0  0  0  0  0  0  0
   26.3002  -21.0960   -9.7897 N   0  0  0  0  0  0  0  0  0  0  0  0
   27.0476  -20.3039   -7.6853 C   0  0  0  0  0  0  0  0  0  0  0  0
   28.0872  -20.9576   -7.9051 O   0  0  0  0  0  0  0  0  0  0  0  0
   27.0203  -19.4004   -6.6496 O   0  0  0  0  0  0  0  0  0  0  0  0
  2  3  1  1
  2  1  1  0
  4  2  1  0
  5  4  1  0
  5  6  1  6
  7  5  1  0
  7  9  1  0
  8  7  2  0
  9 13  1  0
 10  9  1  0
 10 11  1  0
 11 12  1  0
 13 14  1  1
 13 12  1  0
 14 18  1  0
 15 14  2  0
 17 16  1  1
 17 19  1  0
 18 17  1  0
 19 20  2  0
 19 21  1  0
M  END
$$$$
