LPA.pdb
     RDKit          3D

 21 21  0  0  1  0  0  0  0  0999 V2000
   23.5846  -35.7079  -16.8040 C   0  0  0  0  0  0  0  0  0  0  0  0
   22.9568  -36.4925  -15.6642 C   0  0  2  0  0  0  0  0  0  0  0  0
   21.4633  -36.2490  -15.6129 C   0  0  0  0  0  0  0  0  0  0  0  0
   23.5792  -36.0718  -14.3268 C   0  0  0  0  0  0  0  0  0  0  0  0
   25.0381  -36.4683  -14.3142 C   0  0  2  0  0  0  0  0  0  0  0  0
   25.1934  -37.8723  -14.4350 N   0  0  0  0  0  0  0  0  0  0  0  0
   25.7242  -35.8325  -13.1711 C   0  0  0  0  0  0  0  0  0  0  0  0
   25.5291  -36.3768  -12.0587 O   0  0  0  0  0  0  0  0  0  0  0  0
   26.5542  -34.6792  -13.3101 N   0  0  0  0  0  0  0  0  0  0  0  0
   27.2574  -34.3905  -14.5667 C   0  0  0  0  0  0  0  0  0  0  0  0
   27.9184  -33.0306  -14.3856 C   0  0  0  0  0  0  0  0  0  0  0  0
   26.9937  -32.4166  -13.3209 C   0  0  0  0  0  0  0  0  0  0  0  0
   26.9033  -33.6564  -12.4051 C   0  0  1  0  0  0  0  0  0  0  0  0
   26.0034  -33.3417  -11.3040 C   0  0  0  0  0  0  0  0  0  0  0  0
   24.7592  -33.3335  -11.2836 O   0  0  0  0  0  0  0  0  0  0  0  0
   24.4561  -33.2711   -8.9907 C   0  0  0  0  0  0  0  0  0  0  0  0
   25.8434  -32.6454   -8.9076 C   0  0  2  0  0  0  0  0  0  0  0  0
   26.6444  -32.9899  -10.0617 N   0  0  0  0  0  0  0  0  0  0  0  0
   26.4907  -33.2001   -7.7066 C   0  0  0  0  0  0  0  0  0  0  0  0
   26.0124  -32.9528   -6.5812 O   0  0  0  0  0  0  0  0  0  0  0  0
   27.6139  -33.9860   -7.8088 O   0  0  0  0  0  0  0  0  0  0  0  0
  2  3  1  1
  2  1  1  0
  4  2  1  0
  5  4  1  0
  5  6  1  1
  7  5  1  0
  7  9  1  0
  8  7  2  0
  9 13  1  0
 10  9  1  0
 10 11  1  0
 11 12  1  0
 13 14  1  1
 13 12  1  0
 14 18  1  0
 15 14  2  0
 17 16  1  6
 17 19  1  0
 18 17  1  0
 19 20  2  0
 19 21  1  0
M  END
$$$$
