LPA.pdb
     RDKit          3D

 21 21  0  0  1  0  0  0  0  0999 V2000
   21.1482  -10.4594  -19.4001 C   0  0  0  0  0  0  0  0  0  0  0  0
   19.6325  -10.4996  -19.2993 C   0  0  2  0  0  0  0  0  0  0  0  0
   19.0067  -10.3722  -20.6722 C   0  0  0  0  0  0  0  0  0  0  0  0
   19.1310   -9.3534  -18.4118 C   0  0  0  0  0  0  0  0  0  0  0  0
   19.5464   -9.6172  -16.9822 C   0  0  2  0  0  0  0  0  0  0  0  0
   19.0904  -10.8835  -16.5366 N   0  0  0  0  0  0  0  0  0  0  0  0
   19.1941   -8.4614  -16.1327 C   0  0  0  0  0  0  0  0  0  0  0  0
   17.9842   -8.1336  -16.1486 O   0  0  0  0  0  0  0  0  0  0  0  0
   20.1546   -7.7589  -15.3439 N   0  0  0  0  0  0  0  0  0  0  0  0
   21.3905   -8.4077  -14.8873 C   0  0  0  0  0  0  0  0  0  0  0  0
   22.2163   -7.3253  -14.2051 C   0  0  0  0  0  0  0  0  0  0  0  0
   21.6697   -6.0755  -14.9155 C   0  0  0  0  0  0  0  0  0  0  0  0
   20.1729   -6.4452  -14.8329 C   0  0  1  0  0  0  0  0  0  0  0  0
   19.4113   -5.4060  -15.5121 C   0  0  0  0  0  0  0  0  0  0  0  0
   19.3413   -5.1504  -16.7279 O   0  0  0  0  0  0  0  0  0  0  0  0
   16.6585   -3.1333  -14.3031 C   0  0  0  0  0  0  0  0  0  0  0  0
   17.8105   -3.5059  -15.2288 C   0  0  2  0  0  0  0  0  0  0  0  0
   18.6275   -4.5524  -14.6547 N   0  0  0  0  0  0  0  0  0  0  0  0
   18.6394   -2.2987  -15.3861 C   0  0  0  0  0  0  0  0  0  0  0  0
   19.7175   -2.2085  -14.7649 O   0  0  0  0  0  0  0  0  0  0  0  0
   18.2414   -1.2708  -16.2077 O   0  0  0  0  0  0  0  0  0  0  0  0
  2  3  1  6
  2  1  1  0
  4  2  1  0
  5  4  1  0
  5  6  1  1
  7  5  1  0
  7  9  1  0
  8  7  2  0
  9 13  1  0
 10  9  1  0
 10 11  1  0
 11 12  1  0
 13 14  1  6
 13 12  1  0
 14 18  1  0
 15 14  2  0
 17 16  1  1
 17 19  1  0
 18 17  1  0
 19 20  2  0
 19 21  1  0
M  END
$$$$
