TWQ.pdb
     RDKit          3D

 31 32  0  0  1  0  0  0  0  0999 V2000
    7.8348  -13.4643   20.1040 C   0  0  0  0  0  0  0  0  0  0  0  0
    7.2069  -14.7451   20.5607 C   0  0  1  0  0  0  0  0  0  0  0  0
    6.5041  -15.2728   19.4497 O   0  0  0  0  0  0  0  0  0  0  0  0
    8.2250  -15.7978   20.9312 C   0  0  2  0  0  0  0  0  0  0  0  0
    7.5245  -17.0202   21.3004 N   0  0  0  0  0  0  0  0  0  0  0  0
    9.0484  -15.3806   22.0975 C   0  0  0  0  0  0  0  0  0  0  0  0
    9.7446  -14.3339   21.9997 O   0  0  0  0  0  0  0  0  0  0  0  0
    9.0729  -16.1046   23.2821 N   0  0  0  0  0  0  0  0  0  0  0  0
    9.8323  -15.7166   24.4896 C   0  0  1  0  0  0  0  0  0  0  0  0
    9.0159  -15.9386   25.6897 C   0  0  0  0  0  0  0  0  0  0  0  0
    7.7383  -15.2394   25.7089 C   0  0  0  0  0  0  0  0  0  0  0  0
    6.4627  -15.6468   25.3829 C   0  0  0  0  0  0  0  0  0  0  0  0
    5.6036  -14.6313   25.5720 N   0  0  0  0  0  0  0  0  0  0  0  0
    6.2344  -13.5506   26.0122 C   0  0  0  0  0  0  0  0  0  0  0  0
    5.7897  -12.2935   26.3658 C   0  0  0  0  0  0  0  0  0  0  0  0
    6.6836  -11.3339   26.8328 C   0  0  0  0  0  0  0  0  0  0  0  0
    8.0171  -11.6701   26.9309 C   0  0  0  0  0  0  0  0  0  0  0  0
    8.4481  -12.9380   26.5705 C   0  0  0  0  0  0  0  0  0  0  0  0
    7.5808  -13.9073   26.1059 C   0  0  0  0  0  0  0  0  0  0  0  0
   11.1463  -16.3179   24.3607 C   0  0  0  0  0  0  0  0  0  0  0  0
   12.1675  -15.5519   24.4287 O   0  0  0  0  0  0  0  0  0  0  0  0
   10.2581  -21.5534   26.2248 N   0  0  0  0  0  0  0  0  0  0  0  0
   10.5242  -20.4555   27.1091 C   0  0  0  0  0  0  0  0  0  0  0  0
    9.9069  -20.4251   28.1877 O   0  0  0  0  0  0  0  0  0  0  0  0
   11.4767  -19.4145   26.7544 C   0  0  0  0  0  0  0  0  0  0  0  0
   12.2443  -19.5598   25.5065 C   0  0  0  0  0  0  0  0  0  0  0  0
   12.6568  -18.2732   24.8061 C   0  0  2  0  0  0  0  0  0  0  0  0
   11.4383  -17.7120   24.1725 N   0  0  0  0  0  0  0  0  0  0  0  0
   13.6681  -18.4204   23.7717 C   0  0  0  0  0  0  0  0  0  0  0  0
   13.4840  -18.1789   22.5308 O   0  0  0  0  0  0  0  0  0  0  0  0
   14.9431  -18.8459   24.0971 O   0  0  0  0  0  0  0  0  0  0  0  0
  2  1  1  6
  2  3  1  0
  4  2  1  0
  4  5  1  1
  6  8  1  0
  6  4  1  0
  7  6  2  0
  9 10  1  1
  9  8  1  0
 10 11  1  0
 11 19  1  0
 11 12  2  0
 12 13  1  0
 14 13  1  0
 14 15  2  0
 16 15  1  0
 17 16  2  0
 18 19  2  0
 18 17  1  0
 19 14  1  0
 20  9  1  0
 20 21  2  0
 22 23  1  0
 23 24  2  0
 25 23  1  0
 25 26  1  0
 27 26  1  6
 27 29  1  0
 27 28  1  0
 28 20  1  0
 29 31  1  0
 30 29  2  0
M  END
$$$$
