TWQ.pdb
     RDKit          3D

 31 32  0  0  1  0  0  0  0  0999 V2000
    8.1817  -17.1501   19.5692 C   0  0  0  0  0  0  0  0  0  0  0  0
    8.1270  -15.6881   19.2484 C   0  0  1  0  0  0  0  0  0  0  0  0
    7.2736  -15.5492   18.1263 O   0  0  0  0  0  0  0  0  0  0  0  0
    7.4871  -14.8706   20.3458 C   0  0  2  0  0  0  0  0  0  0  0  0
    7.2793  -13.5131   19.8606 N   0  0  0  0  0  0  0  0  0  0  0  0
    8.3560  -14.7905   21.5503 C   0  0  0  0  0  0  0  0  0  0  0  0
    9.2674  -13.9195   21.5786 O   0  0  0  0  0  0  0  0  0  0  0  0
    8.1943  -15.6402   22.6365 N   0  0  0  0  0  0  0  0  0  0  0  0
    9.0502  -15.6369   23.8418 C   0  0  1  0  0  0  0  0  0  0  0  0
    8.2478  -15.9582   25.0289 C   0  0  0  0  0  0  0  0  0  0  0  0
    7.1704  -15.0225   25.3212 C   0  0  0  0  0  0  0  0  0  0  0  0
    5.8013  -15.1332   25.2085 C   0  0  0  0  0  0  0  0  0  0  0  0
    5.2227  -13.9891   25.6105 N   0  0  0  0  0  0  0  0  0  0  0  0
    6.1338  -13.1039   25.9922 C   0  0  0  0  0  0  0  0  0  0  0  0
    6.0329  -11.8232   26.4947 C   0  0  0  0  0  0  0  0  0  0  0  0
    7.1760  -11.1112   26.8477 C   0  0  0  0  0  0  0  0  0  0  0  0
    8.4041  -11.7154   26.6820 C   0  0  0  0  0  0  0  0  0  0  0  0
    8.4884  -13.0033   26.1748 C   0  0  0  0  0  0  0  0  0  0  0  0
    7.3693  -13.7303   25.8185 C   0  0  0  0  0  0  0  0  0  0  0  0
   10.2321  -16.4101   23.5099 C   0  0  0  0  0  0  0  0  0  0  0  0
   10.0678  -17.5712   23.0009 O   0  0  0  0  0  0  0  0  0  0  0  0
   17.5818  -16.4729   22.8252 N   0  0  0  0  0  0  0  0  0  0  0  0
   16.3065  -16.1739   22.2401 C   0  0  0  0  0  0  0  0  0  0  0  0
   16.2601  -15.2542   21.4049 O   0  0  0  0  0  0  0  0  0  0  0  0
   15.1121  -16.9156   22.6141 C   0  0  0  0  0  0  0  0  0  0  0  0
   13.8704  -16.1664   22.8678 C   0  0  0  0  0  0  0  0  0  0  0  0
   12.6735  -16.9735   23.3496 C   0  0  2  0  0  0  0  0  0  0  0  0
   11.5998  -16.0048   23.6815 N   0  0  0  0  0  0  0  0  0  0  0  0
   12.9066  -17.7982   24.5242 C   0  0  0  0  0  0  0  0  0  0  0  0
   12.5584  -17.4896   25.7140 O   0  0  0  0  0  0  0  0  0  0  0  0
   13.5446  -19.0193   24.4046 O   0  0  0  0  0  0  0  0  0  0  0  0
  2  1  1  1
  2  3  1  0
  4  2  1  0
  4  5  1  6
  6  8  1  0
  6  4  1  0
  7  6  2  0
  9 10  1  1
  9  8  1  0
 10 11  1  0
 11 19  1  0
 11 12  2  0
 12 13  1  0
 14 13  1  0
 14 15  2  0
 16 15  1  0
 17 16  2  0
 18 19  2  0
 18 17  1  0
 19 14  1  0
 20  9  1  0
 20 21  2  0
 22 23  1  0
 23 24  2  0
 25 23  1  0
 25 26  1  0
 27 26  1  1
 27 29  1  0
 27 28  1  0
 28 20  1  0
 29 31  1  0
 30 29  2  0
M  END
$$$$
