TWQ.pdb
     RDKit          3D

 31 32  0  0  1  0  0  0  0  0999 V2000
    7.3614  -15.1090   18.1644 C   0  0  0  0  0  0  0  0  0  0  0  0
    8.0258  -15.3512   19.4847 C   0  0  1  0  0  0  0  0  0  0  0  0
    9.4200  -15.3922   19.2374 O   0  0  0  0  0  0  0  0  0  0  0  0
    7.8223  -14.2160   20.4604 C   0  0  2  0  0  0  0  0  0  0  0  0
    8.1992  -12.9666   19.8135 N   0  0  0  0  0  0  0  0  0  0  0  0
    8.6730  -14.3712   21.6706 C   0  0  0  0  0  0  0  0  0  0  0  0
    9.6030  -13.5419   21.8633 O   0  0  0  0  0  0  0  0  0  0  0  0
    8.4748  -15.3950   22.5874 N   0  0  0  0  0  0  0  0  0  0  0  0
    9.2344  -15.5566   23.8452 C   0  0  1  0  0  0  0  0  0  0  0  0
    8.3276  -15.9409   24.9343 C   0  0  0  0  0  0  0  0  0  0  0  0
    7.2221  -15.0233   25.1738 C   0  0  0  0  0  0  0  0  0  0  0  0
    5.8756  -15.1137   24.8942 C   0  0  0  0  0  0  0  0  0  0  0  0
    5.2523  -14.0012   25.3171 N   0  0  0  0  0  0  0  0  0  0  0  0
    6.1113  -13.1567   25.8723 C   0  0  0  0  0  0  0  0  0  0  0  0
    5.9506  -11.9197   26.4614 C   0  0  0  0  0  0  0  0  0  0  0  0
    7.0437  -11.2474   27.0013 C   0  0  0  0  0  0  0  0  0  0  0  0
    8.2837  -11.8460   26.9313 C   0  0  0  0  0  0  0  0  0  0  0  0
    8.4284  -13.0896   26.3350 C   0  0  0  0  0  0  0  0  0  0  0  0
    7.3596  -13.7768   25.7936 C   0  0  0  0  0  0  0  0  0  0  0  0
   10.3967  -16.3634   23.5238 C   0  0  0  0  0  0  0  0  0  0  0  0
   11.1841  -16.6899   24.4765 O   0  0  0  0  0  0  0  0  0  0  0  0
   12.7938  -14.0637   18.7327 N   0  0  0  0  0  0  0  0  0  0  0  0
   13.7918  -14.0278   19.7626 C   0  0  0  0  0  0  0  0  0  0  0  0
   14.9036  -13.5562   19.4677 O   0  0  0  0  0  0  0  0  0  0  0  0
   13.5146  -14.5290   21.1000 C   0  0  0  0  0  0  0  0  0  0  0  0
   12.1843  -15.0958   21.3763 C   0  0  0  0  0  0  0  0  0  0  0  0
   12.1327  -16.5768   21.7228 C   0  0  2  0  0  0  0  0  0  0  0  0
   10.7662  -16.8591   22.2270 N   0  0  0  0  0  0  0  0  0  0  0  0
   13.0795  -17.0159   22.7352 C   0  0  0  0  0  0  0  0  0  0  0  0
   14.1925  -17.5942   22.4925 O   0  0  0  0  0  0  0  0  0  0  0  0
   12.8103  -16.8154   24.0769 O   0  0  0  0  0  0  0  0  0  0  0  0
  2  1  1  6
  2  3  1  0
  4  2  1  0
  4  5  1  6
  6  8  1  0
  6  4  1  0
  7  6  2  0
  9 10  1  1
  9  8  1  0
 10 11  1  0
 11 19  1  0
 11 12  2  0
 12 13  1  0
 14 13  1  0
 14 15  2  0
 16 15  1  0
 17 16  2  0
 18 19  2  0
 18 17  1  0
 19 14  1  0
 20  9  1  0
 20 21  2  0
 22 23  1  0
 23 24  2  0
 25 23  1  0
 25 26  1  0
 27 26  1  1
 27 29  1  0
 27 28  1  0
 28 20  1  0
 29 31  1  0
 30 29  2  0
M  END
$$$$
