TWQ.pdb
     RDKit          3D

 31 32  0  0  1  0  0  0  0  0999 V2000
   10.9340  -19.3045   21.0677 C   0  0  0  0  0  0  0  0  0  0  0  0
   11.2480  -18.2999   20.0022 C   0  0  1  0  0  0  0  0  0  0  0  0
   11.4187  -19.0246   18.7971 O   0  0  0  0  0  0  0  0  0  0  0  0
   10.1062  -17.3459   19.7412 C   0  0  2  0  0  0  0  0  0  0  0  0
   10.4264  -16.5378   18.5724 N   0  0  0  0  0  0  0  0  0  0  0  0
    9.8912  -16.4190   20.8844 C   0  0  0  0  0  0  0  0  0  0  0  0
   10.7263  -15.4936   21.0747 O   0  0  0  0  0  0  0  0  0  0  0  0
    8.8060  -16.5418   21.7419 N   0  0  0  0  0  0  0  0  0  0  0  0
    8.5870  -15.7123   22.9457 C   0  0  1  0  0  0  0  0  0  0  0  0
    7.1495  -15.5977   23.2224 C   0  0  0  0  0  0  0  0  0  0  0  0
    6.8110  -15.0311   24.5209 C   0  0  0  0  0  0  0  0  0  0  0  0
    6.2081  -15.5777   25.6332 C   0  0  0  0  0  0  0  0  0  0  0  0
    6.1170  -14.6477   26.5986 N   0  0  0  0  0  0  0  0  0  0  0  0
    6.6301  -13.4927   26.1961 C   0  0  0  0  0  0  0  0  0  0  0  0
    6.7847  -12.2744   26.8245 C   0  0  0  0  0  0  0  0  0  0  0  0
    7.3958  -11.2120   26.1642 C   0  0  0  0  0  0  0  0  0  0  0  0
    7.8388  -11.4075   24.8734 C   0  0  0  0  0  0  0  0  0  0  0  0
    7.6750  -12.6382   24.2556 C   0  0  0  0  0  0  0  0  0  0  0  0
    7.0733  -13.7075   24.8899 C   0  0  0  0  0  0  0  0  0  0  0  0
    9.5035  -16.2040   23.9572 C   0  0  0  0  0  0  0  0  0  0  0  0
    9.6895  -15.4875   24.9995 O   0  0  0  0  0  0  0  0  0  0  0  0
    8.2887  -19.0046   27.2330 N   0  0  0  0  0  0  0  0  0  0  0  0
    9.5641  -19.3023   27.8185 C   0  0  0  0  0  0  0  0  0  0  0  0
    9.6136  -19.4232   29.0548 O   0  0  0  0  0  0  0  0  0  0  0  0
   10.7554  -19.4518   26.9968 C   0  0  0  0  0  0  0  0  0  0  0  0
   10.6528  -19.1773   25.5540 C   0  0  0  0  0  0  0  0  0  0  0  0
   11.0825  -17.7927   25.0911 C   0  0  2  0  0  0  0  0  0  0  0  0
   10.2348  -17.4403   23.9257 N   0  0  0  0  0  0  0  0  0  0  0  0
   12.4727  -17.6731   24.6819 C   0  0  0  0  0  0  0  0  0  0  0  0
   12.8811  -17.6834   23.4715 O   0  0  0  0  0  0  0  0  0  0  0  0
   13.4698  -17.5309   25.6296 O   0  0  0  0  0  0  0  0  0  0  0  0
  2  1  1  1
  2  3  1  0
  4  2  1  0
  4  5  1  6
  6  8  1  0
  6  4  1  0
  7  6  2  0
  9 10  1  1
  9  8  1  0
 10 11  1  0
 11 19  1  0
 11 12  2  0
 12 13  1  0
 14 13  1  0
 14 15  2  0
 16 15  1  0
 17 16  2  0
 18 19  2  0
 18 17  1  0
 19 14  1  0
 20  9  1  0
 20 21  2  0
 22 23  1  0
 23 24  2  0
 25 23  1  0
 25 26  1  0
 27 26  1  6
 27 29  1  0
 27 28  1  0
 28 20  1  0
 29 31  1  0
 30 29  2  0
M  END
$$$$
