TWQ.pdb
     RDKit          3D

 31 32  0  0  1  0  0  0  0  0999 V2000
    8.3526  -18.3491   20.4154 C   0  0  0  0  0  0  0  0  0  0  0  0
    8.0754  -17.0041   19.8177 C   0  0  1  0  0  0  0  0  0  0  0  0
    7.1510  -17.2094   18.7642 O   0  0  0  0  0  0  0  0  0  0  0  0
    7.3879  -16.0650   20.7807 C   0  0  2  0  0  0  0  0  0  0  0  0
    6.9664  -14.8739   20.0559 N   0  0  0  0  0  0  0  0  0  0  0  0
    8.3010  -15.6292   21.8710 C   0  0  0  0  0  0  0  0  0  0  0  0
    9.0791  -14.6610   21.6540 O   0  0  0  0  0  0  0  0  0  0  0  0
    8.3217  -16.2527   23.1115 N   0  0  0  0  0  0  0  0  0  0  0  0
    9.2071  -15.8687   24.2312 C   0  0  1  0  0  0  0  0  0  0  0  0
    8.4843  -15.9801   25.5045 C   0  0  0  0  0  0  0  0  0  0  0  0
    7.3554  -15.0725   25.6584 C   0  0  0  0  0  0  0  0  0  0  0  0
    5.9952  -15.2739   25.5661 C   0  0  0  0  0  0  0  0  0  0  0  0
    5.3522  -14.1169   25.7967 N   0  0  0  0  0  0  0  0  0  0  0  0
    6.2110  -13.1363   26.0421 C   0  0  0  0  0  0  0  0  0  0  0  0
    6.0370  -11.8031   26.3510 C   0  0  0  0  0  0  0  0  0  0  0  0
    7.1371  -10.9851   26.5931 C   0  0  0  0  0  0  0  0  0  0  0  0
    8.3975  -11.5383   26.5154 C   0  0  0  0  0  0  0  0  0  0  0  0
    8.5554  -12.8802   26.2029 C   0  0  0  0  0  0  0  0  0  0  0  0
    7.4800  -13.7122   25.9599 C   0  0  0  0  0  0  0  0  0  0  0  0
   10.4613  -16.5677   24.0230 C   0  0  0  0  0  0  0  0  0  0  0  0
   10.4302  -17.8417   23.9221 O   0  0  0  0  0  0  0  0  0  0  0  0
   16.6908  -16.2549   20.6918 N   0  0  0  0  0  0  0  0  0  0  0  0
   16.3359  -15.9838   22.0552 C   0  0  0  0  0  0  0  0  0  0  0  0
   16.9671  -15.0900   22.6453 O   0  0  0  0  0  0  0  0  0  0  0  0
   15.2808  -16.7303   22.7232 C   0  0  0  0  0  0  0  0  0  0  0  0
   13.9945  -16.0588   22.9723 C   0  0  0  0  0  0  0  0  0  0  0  0
   12.9334  -16.8681   23.7039 C   0  0  2  0  0  0  0  0  0  0  0  0
   11.7649  -15.9757   23.9026 N   0  0  0  0  0  0  0  0  0  0  0  0
   13.3260  -17.3828   25.0058 C   0  0  0  0  0  0  0  0  0  0  0  0
   13.9644  -18.4726   25.1981 O   0  0  0  0  0  0  0  0  0  0  0  0
   13.0160  -16.6812   26.1566 O   0  0  0  0  0  0  0  0  0  0  0  0
  2  1  1  1
  2  3  1  0
  4  2  1  0
  4  5  1  6
  6  8  1  0
  6  4  1  0
  7  6  2  0
  9 10  1  1
  9  8  1  0
 10 11  1  0
 11 19  1  0
 11 12  2  0
 12 13  1  0
 14 13  1  0
 14 15  2  0
 16 15  1  0
 17 16  2  0
 18 19  2  0
 18 17  1  0
 19 14  1  0
 20  9  1  0
 20 21  2  0
 22 23  1  0
 23 24  2  0
 25 23  1  0
 25 26  1  0
 27 26  1  1
 27 29  1  0
 27 28  1  0
 28 20  1  0
 29 31  1  0
 30 29  2  0
M  END
$$$$
