TWQ.pdb
     RDKit          3D

 31 32  0  0  1  0  0  0  0  0999 V2000
    6.8073  -18.7004   18.2287 C   0  0  0  0  0  0  0  0  0  0  0  0
    7.4772  -18.2618   19.4944 C   0  0  1  0  0  0  0  0  0  0  0  0
    8.5760  -19.1328   19.6964 O   0  0  0  0  0  0  0  0  0  0  0  0
    8.0729  -16.8773   19.3931 C   0  0  2  0  0  0  0  0  0  0  0  0
    9.1438  -16.8973   18.4060 N   0  0  0  0  0  0  0  0  0  0  0  0
    8.6603  -16.4349   20.6860 C   0  0  0  0  0  0  0  0  0  0  0  0
    9.8988  -16.5862   20.8680 O   0  0  0  0  0  0  0  0  0  0  0  0
    7.8906  -15.8645   21.6911 N   0  0  0  0  0  0  0  0  0  0  0  0
    8.4205  -15.3755   22.9815 C   0  0  1  0  0  0  0  0  0  0  0  0
    7.4680  -14.4409   23.5943 C   0  0  0  0  0  0  0  0  0  0  0  0
    7.7070  -14.1448   25.0003 C   0  0  0  0  0  0  0  0  0  0  0  0
    8.4239  -14.8108   25.9708 C   0  0  0  0  0  0  0  0  0  0  0  0
    8.3521  -14.1327   27.1285 N   0  0  0  0  0  0  0  0  0  0  0  0
    7.6196  -13.0353   26.9921 C   0  0  0  0  0  0  0  0  0  0  0  0
    7.2821  -12.0272   27.8712 C   0  0  0  0  0  0  0  0  0  0  0  0
    6.5045  -10.9527   27.4484 C   0  0  0  0  0  0  0  0  0  0  0  0
    6.0820  -10.9231   26.1364 C   0  0  0  0  0  0  0  0  0  0  0  0
    6.4293  -11.9448   25.2654 C   0  0  0  0  0  0  0  0  0  0  0  0
    7.2005  -13.0204   25.6606 C   0  0  0  0  0  0  0  0  0  0  0  0
    8.8878  -16.5436   23.7042 C   0  0  0  0  0  0  0  0  0  0  0  0
    8.0794  -17.5228   23.8516 O   0  0  0  0  0  0  0  0  0  0  0  0
   14.2058  -17.2333   23.1868 N   0  0  0  0  0  0  0  0  0  0  0  0
   13.2427  -17.9314   22.3847 C   0  0  0  0  0  0  0  0  0  0  0  0
   13.4391  -17.9715   21.1579 O   0  0  0  0  0  0  0  0  0  0  0  0
   12.0777  -18.5639   22.9842 C   0  0  0  0  0  0  0  0  0  0  0  0
   11.8871  -18.4499   24.4396 C   0  0  0  0  0  0  0  0  0  0  0  0
   10.5017  -18.0373   24.9155 C   0  0  2  0  0  0  0  0  0  0  0  0
   10.1915  -16.7346   24.2769 N   0  0  0  0  0  0  0  0  0  0  0  0
   10.3569  -17.8734   26.3530 C   0  0  0  0  0  0  0  0  0  0  0  0
   10.0285  -16.7842   26.9344 O   0  0  0  0  0  0  0  0  0  0  0  0
   10.5740  -18.9423   27.2032 O   0  0  0  0  0  0  0  0  0  0  0  0
  2  1  1  6
  2  3  1  0
  4  2  1  0
  4  5  1  6
  6  8  1  0
  6  4  1  0
  7  6  2  0
  9 10  1  1
  9  8  1  0
 10 11  1  0
 11 19  1  0
 11 12  2  0
 12 13  1  0
 14 13  1  0
 14 15  2  0
 16 15  1  0
 17 16  2  0
 18 19  2  0
 18 17  1  0
 19 14  1  0
 20  9  1  0
 20 21  2  0
 22 23  1  0
 23 24  2  0
 25 23  1  0
 25 26  1  0
 27 26  1  1
 27 29  1  0
 27 28  1  0
 28 20  1  0
 29 31  1  0
 30 29  2  0
M  END
$$$$
