TWQ.pdb
     RDKit          3D

 31 32  0  0  1  0  0  0  0  0999 V2000
   10.2461  -19.4417   20.3009 C   0  0  0  0  0  0  0  0  0  0  0  0
   10.9885  -18.4370   19.4748 C   0  0  1  0  0  0  0  0  0  0  0  0
   11.1004  -18.9834   18.1727 O   0  0  0  0  0  0  0  0  0  0  0  0
   10.2296  -17.1419   19.3051 C   0  0  2  0  0  0  0  0  0  0  0  0
   10.9746  -16.2752   18.4021 N   0  0  0  0  0  0  0  0  0  0  0  0
   10.0759  -16.4208   20.5969 C   0  0  0  0  0  0  0  0  0  0  0  0
   11.0773  -15.8223   21.0754 O   0  0  0  0  0  0  0  0  0  0  0  0
    8.8711  -16.3876   21.2864 N   0  0  0  0  0  0  0  0  0  0  0  0
    8.6794  -15.7702   22.6158 C   0  0  1  0  0  0  0  0  0  0  0  0
    7.2774  -15.3681   22.7858 C   0  0  0  0  0  0  0  0  0  0  0  0
    6.8848  -15.0493   24.1517 C   0  0  0  0  0  0  0  0  0  0  0  0
    6.3829  -15.8308   25.1699 C   0  0  0  0  0  0  0  0  0  0  0  0
    6.1789  -15.0730   26.2604 N   0  0  0  0  0  0  0  0  0  0  0  0
    6.5188  -13.8112   26.0330 C   0  0  0  0  0  0  0  0  0  0  0  0
    6.5121  -12.6875   26.8331 C   0  0  0  0  0  0  0  0  0  0  0  0
    6.9577  -11.4652   26.3376 C   0  0  0  0  0  0  0  0  0  0  0  0
    7.4020  -11.4071   25.0338 C   0  0  0  0  0  0  0  0  0  0  0  0
    7.4015  -12.5457   24.2422 C   0  0  0  0  0  0  0  0  0  0  0  0
    6.9657  -13.7697   24.7111 C   0  0  0  0  0  0  0  0  0  0  0  0
    9.3242  -16.6477   23.5744 C   0  0  0  0  0  0  0  0  0  0  0  0
    9.1053  -17.9038   23.4818 O   0  0  0  0  0  0  0  0  0  0  0  0
   13.9331  -19.6949   24.9046 N   0  0  0  0  0  0  0  0  0  0  0  0
   13.5703  -18.8545   23.8000 C   0  0  0  0  0  0  0  0  0  0  0  0
   14.0392  -19.1392   22.6844 O   0  0  0  0  0  0  0  0  0  0  0  0
   12.6912  -17.7093   23.9798 C   0  0  0  0  0  0  0  0  0  0  0  0
   12.2315  -17.3830   25.3399 C   0  0  0  0  0  0  0  0  0  0  0  0
   10.7263  -17.3052   25.5505 C   0  0  2  0  0  0  0  0  0  0  0  0
   10.2117  -16.2575   24.6347 N   0  0  0  0  0  0  0  0  0  0  0  0
   10.2998  -16.9658   26.8985 C   0  0  0  0  0  0  0  0  0  0  0  0
    9.6758  -15.8983   27.2201 O   0  0  0  0  0  0  0  0  0  0  0  0
   10.5576  -17.8262   27.9501 O   0  0  0  0  0  0  0  0  0  0  0  0
  2  1  1  1
  2  3  1  0
  4  2  1  0
  4  5  1  6
  6  8  1  0
  6  4  1  0
  7  6  2  0
  9 10  1  1
  9  8  1  0
 10 11  1  0
 11 19  1  0
 11 12  2  0
 12 13  1  0
 14 13  1  0
 14 15  2  0
 16 15  1  0
 17 16  2  0
 18 19  2  0
 18 17  1  0
 19 14  1  0
 20  9  1  0
 20 21  2  0
 22 23  1  0
 23 24  2  0
 25 23  1  0
 25 26  1  0
 27 26  1  1
 27 29  1  0
 27 28  1  0
 28 20  1  0
 29 31  1  0
 30 29  2  0
M  END
$$$$
