TWQ.pdb
     RDKit          3D

 31 32  0  0  1  0  0  0  0  0999 V2000
    7.0942  -17.6156   18.6691 C   0  0  0  0  0  0  0  0  0  0  0  0
    7.9237  -17.1205   19.8137 C   0  0  1  0  0  0  0  0  0  0  0  0
    9.0909  -16.5469   19.2523 O   0  0  0  0  0  0  0  0  0  0  0  0
    7.2555  -16.0051   20.5826 C   0  0  2  0  0  0  0  0  0  0  0  0
    7.0276  -14.8836   19.6815 N   0  0  0  0  0  0  0  0  0  0  0  0
    8.1084  -15.5190   21.6999 C   0  0  0  0  0  0  0  0  0  0  0  0
    8.8197  -14.4947   21.5131 O   0  0  0  0  0  0  0  0  0  0  0  0
    8.1443  -16.1552   22.9336 N   0  0  0  0  0  0  0  0  0  0  0  0
    9.0489  -15.7879   24.0436 C   0  0  1  0  0  0  0  0  0  0  0  0
    8.3718  -15.9882   25.3310 C   0  0  0  0  0  0  0  0  0  0  0  0
    7.2454  -15.1001   25.5843 C   0  0  0  0  0  0  0  0  0  0  0  0
    5.8836  -15.3075   25.5403 C   0  0  0  0  0  0  0  0  0  0  0  0
    5.2445  -14.1705   25.8628 N   0  0  0  0  0  0  0  0  0  0  0  0
    6.1074  -13.1978   26.1248 C   0  0  0  0  0  0  0  0  0  0  0  0
    5.9392  -11.8853   26.5148 C   0  0  0  0  0  0  0  0  0  0  0  0
    7.0439  -11.0727   26.7539 C   0  0  0  0  0  0  0  0  0  0  0  0
    8.3030  -11.6101   26.5906 C   0  0  0  0  0  0  0  0  0  0  0  0
    8.4550  -12.9312   26.1972 C   0  0  0  0  0  0  0  0  0  0  0  0
    7.3750  -13.7576   25.9553 C   0  0  0  0  0  0  0  0  0  0  0  0
   10.3226  -16.4242   23.7648 C   0  0  0  0  0  0  0  0  0  0  0  0
   10.3127  -17.6329   23.3487 O   0  0  0  0  0  0  0  0  0  0  0  0
   15.1313  -14.4067   20.4171 N   0  0  0  0  0  0  0  0  0  0  0  0
   15.7090  -15.4953   21.1515 C   0  0  0  0  0  0  0  0  0  0  0  0
   16.9125  -15.7414   20.9604 O   0  0  0  0  0  0  0  0  0  0  0  0
   14.9149  -16.2844   22.0807 C   0  0  0  0  0  0  0  0  0  0  0  0
   13.6348  -15.7333   22.5550 C   0  0  0  0  0  0  0  0  0  0  0  0
   12.8084  -16.6220   23.4734 C   0  0  2  0  0  0  0  0  0  0  0  0
   11.6252  -15.8323   23.8950 N   0  0  0  0  0  0  0  0  0  0  0  0
   13.4861  -17.0827   24.6744 C   0  0  0  0  0  0  0  0  0  0  0  0
   14.3915  -17.9837   24.7021 O   0  0  0  0  0  0  0  0  0  0  0  0
   13.1715  -16.5384   25.9063 O   0  0  0  0  0  0  0  0  0  0  0  0
  2  1  1  6
  2  3  1  0
  4  2  1  0
  4  5  1  6
  6  8  1  0
  6  4  1  0
  7  6  2  0
  9 10  1  1
  9  8  1  0
 10 11  1  0
 11 19  1  0
 11 12  2  0
 12 13  1  0
 14 13  1  0
 14 15  2  0
 16 15  1  0
 17 16  2  0
 18 19  2  0
 18 17  1  0
 19 14  1  0
 20  9  1  0
 20 21  2  0
 22 23  1  0
 23 24  2  0
 25 23  1  0
 25 26  1  0
 27 26  1  1
 27 29  1  0
 27 28  1  0
 28 20  1  0
 29 31  1  0
 30 29  2  0
M  END
$$$$
