TWQ.pdb
     RDKit          3D

 31 32  0  0  1  0  0  0  0  0999 V2000
    7.7257  -18.4453   18.9765 C   0  0  0  0  0  0  0  0  0  0  0  0
    8.3372  -18.0792   20.2938 C   0  0  1  0  0  0  0  0  0  0  0  0
    9.7370  -18.0097   20.0875 O   0  0  0  0  0  0  0  0  0  0  0  0
    7.9302  -16.7036   20.7671 C   0  0  2  0  0  0  0  0  0  0  0  0
    8.3428  -15.7229   19.7724 N   0  0  0  0  0  0  0  0  0  0  0  0
    8.5887  -16.3465   22.0520 C   0  0  0  0  0  0  0  0  0  0  0  0
    9.5860  -15.5754   22.0237 O   0  0  0  0  0  0  0  0  0  0  0  0
    8.1411  -16.8336   23.2728 N   0  0  0  0  0  0  0  0  0  0  0  0
    8.8347  -16.6354   24.5630 C   0  0  1  0  0  0  0  0  0  0  0  0
    7.8551  -16.5624   25.6544 C   0  0  0  0  0  0  0  0  0  0  0  0
    6.9527  -15.4201   25.6024 C   0  0  0  0  0  0  0  0  0  0  0  0
    5.6332  -15.3081   25.2208 C   0  0  0  0  0  0  0  0  0  0  0  0
    5.2327  -14.0325   25.3544 N   0  0  0  0  0  0  0  0  0  0  0  0
    6.2180  -13.2700   25.8096 C   0  0  0  0  0  0  0  0  0  0  0  0
    6.2867  -11.9286   26.1241 C   0  0  0  0  0  0  0  0  0  0  0  0
    7.4656  -11.3792   26.6204 C   0  0  0  0  0  0  0  0  0  0  0  0
    8.5566  -12.2054   26.7873 C   0  0  0  0  0  0  0  0  0  0  0  0
    8.4715  -13.5517   26.4655 C   0  0  0  0  0  0  0  0  0  0  0  0
    7.3131  -14.1203   25.9730 C   0  0  0  0  0  0  0  0  0  0  0  0
    9.9200  -17.5977   24.5994 C   0  0  0  0  0  0  0  0  0  0  0  0
   10.0742  -18.3686   23.5913 O   0  0  0  0  0  0  0  0  0  0  0  0
   13.9540  -15.4962   22.3028 N   0  0  0  0  0  0  0  0  0  0  0  0
   14.2598  -16.8977   22.2850 C   0  0  0  0  0  0  0  0  0  0  0  0
   15.0242  -17.3066   21.3940 O   0  0  0  0  0  0  0  0  0  0  0  0
   13.6925  -17.8066   23.2693 C   0  0  0  0  0  0  0  0  0  0  0  0
   12.8035  -17.2548   24.3050 C   0  0  0  0  0  0  0  0  0  0  0  0
   12.2383  -18.2427   25.3153 C   0  0  2  0  0  0  0  0  0  0  0  0
   10.8717  -17.7795   25.6602 N   0  0  0  0  0  0  0  0  0  0  0  0
   12.9899  -18.3707   26.5534 C   0  0  0  0  0  0  0  0  0  0  0  0
   12.7127  -17.7625   27.6422 O   0  0  0  0  0  0  0  0  0  0  0  0
   14.0938  -19.2012   26.6176 O   0  0  0  0  0  0  0  0  0  0  0  0
  2  1  1  6
  2  3  1  0
  4  2  1  0
  4  5  1  6
  6  8  1  0
  6  4  1  0
  7  6  2  0
  9 10  1  1
  9  8  1  0
 10 11  1  0
 11 19  1  0
 11 12  2  0
 12 13  1  0
 14 13  1  0
 14 15  2  0
 16 15  1  0
 17 16  2  0
 18 19  2  0
 18 17  1  0
 19 14  1  0
 20  9  1  0
 20 21  2  0
 22 23  1  0
 23 24  2  0
 25 23  1  0
 25 26  1  0
 27 26  1  6
 27 29  1  0
 27 28  1  0
 28 20  1  0
 29 31  1  0
 30 29  2  0
M  END
$$$$
