TWQ.pdb
     RDKit          3D

 31 32  0  0  1  0  0  0  0  0999 V2000
    8.5910  -17.5586   19.9600 C   0  0  0  0  0  0  0  0  0  0  0  0
    8.2622  -16.1544   19.5561 C   0  0  1  0  0  0  0  0  0  0  0  0
    7.4215  -16.2439   18.4195 O   0  0  0  0  0  0  0  0  0  0  0  0
    7.4540  -15.4185   20.5988 C   0  0  2  0  0  0  0  0  0  0  0  0
    7.0029  -14.1526   20.0371 N   0  0  0  0  0  0  0  0  0  0  0  0
    8.2644  -15.1115   21.8076 C   0  0  0  0  0  0  0  0  0  0  0  0
    8.9781  -14.0720   21.8062 O   0  0  0  0  0  0  0  0  0  0  0  0
    8.2584  -15.9298   22.9294 N   0  0  0  0  0  0  0  0  0  0  0  0
    9.1228  -15.7406   24.1135 C   0  0  1  0  0  0  0  0  0  0  0  0
    8.3702  -16.0400   25.3383 C   0  0  0  0  0  0  0  0  0  0  0  0
    7.2921  -15.1104   25.6467 C   0  0  0  0  0  0  0  0  0  0  0  0
    5.9216  -15.2549   25.6317 C   0  0  0  0  0  0  0  0  0  0  0  0
    5.3432  -14.1008   26.0042 N   0  0  0  0  0  0  0  0  0  0  0  0
    6.2558  -13.1765   26.2727 C   0  0  0  0  0  0  0  0  0  0  0  0
    6.1573  -11.8704   26.7057 C   0  0  0  0  0  0  0  0  0  0  0  0
    7.3036  -11.1160   26.9403 C   0  0  0  0  0  0  0  0  0  0  0  0
    8.5324  -11.7042   26.7287 C   0  0  0  0  0  0  0  0  0  0  0  0
    8.6142  -13.0180   26.2925 C   0  0  0  0  0  0  0  0  0  0  0  0
    7.4920  -13.7871   26.0540 C   0  0  0  0  0  0  0  0  0  0  0  0
   10.3730  -16.4170   23.8232 C   0  0  0  0  0  0  0  0  0  0  0  0
   10.3392  -17.6765   23.6070 O   0  0  0  0  0  0  0  0  0  0  0  0
   15.5948  -15.1235   20.6392 N   0  0  0  0  0  0  0  0  0  0  0  0
   16.0709  -16.0822   21.5944 C   0  0  0  0  0  0  0  0  0  0  0  0
   17.1937  -16.5784   21.3983 O   0  0  0  0  0  0  0  0  0  0  0  0
   15.2676  -16.4630   22.7462 C   0  0  0  0  0  0  0  0  0  0  0  0
   13.9528  -15.8259   22.9275 C   0  0  0  0  0  0  0  0  0  0  0  0
   12.8487  -16.6952   23.5116 C   0  0  2  0  0  0  0  0  0  0  0  0
   11.6752  -15.8159   23.7373 N   0  0  0  0  0  0  0  0  0  0  0  0
   13.1656  -17.3458   24.7728 C   0  0  0  0  0  0  0  0  0  0  0  0
   12.8497  -16.8963   25.9261 O   0  0  0  0  0  0  0  0  0  0  0  0
   13.8549  -18.5447   24.7862 O   0  0  0  0  0  0  0  0  0  0  0  0
  2  1  1  1
  2  3  1  0
  4  2  1  0
  4  5  1  6
  6  8  1  0
  6  4  1  0
  7  6  2  0
  9 10  1  1
  9  8  1  0
 10 11  1  0
 11 19  1  0
 11 12  2  0
 12 13  1  0
 14 13  1  0
 14 15  2  0
 16 15  1  0
 17 16  2  0
 18 19  2  0
 18 17  1  0
 19 14  1  0
 20  9  1  0
 20 21  2  0
 22 23  1  0
 23 24  2  0
 25 23  1  0
 25 26  1  0
 27 26  1  1
 27 29  1  0
 27 28  1  0
 28 20  1  0
 29 31  1  0
 30 29  2  0
M  END
$$$$
