TWQ.pdb
     RDKit          3D

 31 32  0  0  1  0  0  0  0  0999 V2000
   10.0896  -19.5786   20.7607 C   0  0  0  0  0  0  0  0  0  0  0  0
   10.0161  -18.5484   19.6760 C   0  0  1  0  0  0  0  0  0  0  0  0
    9.6532  -19.2317   18.4894 O   0  0  0  0  0  0  0  0  0  0  0  0
    8.9231  -17.5314   19.9065 C   0  0  2  0  0  0  0  0  0  0  0  0
    8.8219  -16.6756   18.7323 N   0  0  0  0  0  0  0  0  0  0  0  0
    9.2197  -16.6600   21.0748 C   0  0  0  0  0  0  0  0  0  0  0  0
   10.0985  -15.7644   20.9504 O   0  0  0  0  0  0  0  0  0  0  0  0
    8.5623  -16.8026   22.2895 N   0  0  0  0  0  0  0  0  0  0  0  0
    8.8474  -16.0025   23.4994 C   0  0  1  0  0  0  0  0  0  0  0  0
    7.6147  -15.8030   24.2720 C   0  0  0  0  0  0  0  0  0  0  0  0
    7.5922  -14.6094   25.1066 C   0  0  0  0  0  0  0  0  0  0  0  0
    6.8969  -13.4245   24.9971 C   0  0  0  0  0  0  0  0  0  0  0  0
    7.2108  -12.6216   26.0276 N   0  0  0  0  0  0  0  0  0  0  0  0
    8.0876  -13.2043   26.8346 C   0  0  0  0  0  0  0  0  0  0  0  0
    8.6818  -12.7977   28.0112 C   0  0  0  0  0  0  0  0  0  0  0  0
    9.5657  -13.6378   28.6828 C   0  0  0  0  0  0  0  0  0  0  0  0
    9.8311  -14.8788   28.1440 C   0  0  0  0  0  0  0  0  0  0  0  0
    9.2260  -15.2721   26.9598 C   0  0  0  0  0  0  0  0  0  0  0  0
    8.3450  -14.4574   26.2758 C   0  0  0  0  0  0  0  0  0  0  0  0
   10.0244  -16.5884   24.1127 C   0  0  0  0  0  0  0  0  0  0  0  0
   10.0723  -17.8606   24.2283 O   0  0  0  0  0  0  0  0  0  0  0  0
   16.5530  -15.9298   24.3886 N   0  0  0  0  0  0  0  0  0  0  0  0
   15.7823  -16.3098   23.2399 C   0  0  0  0  0  0  0  0  0  0  0  0
   16.3757  -16.3846   22.1501 O   0  0  0  0  0  0  0  0  0  0  0  0
   14.3589  -16.5919   23.3457 C   0  0  0  0  0  0  0  0  0  0  0  0
   13.5839  -15.9118   24.3965 C   0  0  0  0  0  0  0  0  0  0  0  0
   12.3873  -16.6663   24.9576 C   0  0  2  0  0  0  0  0  0  0  0  0
   11.1758  -15.8851   24.6066 N   0  0  0  0  0  0  0  0  0  0  0  0
   12.3893  -16.8598   26.3987 C   0  0  0  0  0  0  0  0  0  0  0  0
   11.7561  -16.1299   27.2345 O   0  0  0  0  0  0  0  0  0  0  0  0
   13.1087  -17.8974   26.9630 O   0  0  0  0  0  0  0  0  0  0  0  0
  2  1  1  1
  2  3  1  0
  4  2  1  0
  4  5  1  6
  6  8  1  0
  6  4  1  0
  7  6  2  0
  9 10  1  1
  9  8  1  0
 10 11  1  0
 11 19  1  0
 11 12  2  0
 12 13  1  0
 14 13  1  0
 14 15  2  0
 16 15  1  0
 17 16  2  0
 18 19  2  0
 18 17  1  0
 19 14  1  0
 20  9  1  0
 20 21  2  0
 22 23  1  0
 23 24  2  0
 25 23  1  0
 25 26  1  0
 27 26  1  1
 27 29  1  0
 27 28  1  0
 28 20  1  0
 29 31  1  0
 30 29  2  0
M  END
$$$$
