IFY.pdb
     RDKit          3D

 32 33  0  0  1  0  0  0  0  0999 V2000
   10.5532  -19.1099   16.0489 C   0  0  0  0  0  0  0  0  0  0  0  0
    9.5208  -19.0092   17.1279 C   0  0  0  0  0  0  0  0  0  0  0  0
    9.7995  -17.8146   18.0576 C   0  0  2  0  0  0  0  0  0  0  0  0
   11.1281  -18.1329   18.7058 C   0  0  0  0  0  0  0  0  0  0  0  0
    8.6858  -17.8258   19.0874 C   0  0  2  0  0  0  0  0  0  0  0  0
    7.4095  -17.6428   18.3613 N   0  0  0  0  0  0  0  0  0  0  0  0
    8.7830  -16.7375   20.0833 C   0  0  0  0  0  0  0  0  0  0  0  0
    9.4835  -15.6940   19.8048 O   0  0  0  0  0  0  0  0  0  0  0  0
    8.1604  -16.7341   21.3456 N   0  0  0  0  0  0  0  0  0  0  0  0
    8.3358  -15.5657   22.2682 C   0  0  1  0  0  0  0  0  0  0  0  0
    7.1461  -15.5344   23.1824 C   0  0  0  0  0  0  0  0  0  0  0  0
    7.1091  -14.4971   24.2053 C   0  0  0  0  0  0  0  0  0  0  0  0
    7.2879  -13.1645   23.9428 C   0  0  0  0  0  0  0  0  0  0  0  0
    7.2589  -12.2066   24.9627 C   0  0  0  0  0  0  0  0  0  0  0  0
    7.0484  -12.5902   26.2538 C   0  0  0  0  0  0  0  0  0  0  0  0
    6.8660  -13.9335   26.5307 C   0  0  0  0  0  0  0  0  0  0  0  0
    6.8961  -14.8604   25.5302 C   0  0  0  0  0  0  0  0  0  0  0  0
    9.5714  -15.8415   23.0175 C   0  0  0  0  0  0  0  0  0  0  0  0
   10.6002  -16.1840   22.3255 O   0  0  0  0  0  0  0  0  0  0  0  0
    9.6205  -16.2950   31.0520 O   0  0  0  0  0  0  0  0  0  0  0  0
   10.0157  -15.8742   29.7842 C   0  0  0  0  0  0  0  0  0  0  0  0
    9.8850  -16.6933   28.6897 C   0  0  0  0  0  0  0  0  0  0  0  0
   10.2831  -16.2499   27.4551 C   0  0  0  0  0  0  0  0  0  0  0  0
   10.8285  -14.9854   27.2268 C   0  0  0  0  0  0  0  0  0  0  0  0
   11.2667  -14.5614   25.8829 C   0  0  0  0  0  0  0  0  0  0  0  0
   11.1147  -15.7501   24.9318 C   0  0  2  0  0  0  0  0  0  0  0  0
    9.7651  -15.7676   24.4021 N   0  0  0  0  0  0  0  0  0  0  0  0
   11.3975  -17.0104   25.5990 C   0  0  0  0  0  0  0  0  0  0  0  0
   12.6682  -17.3251   26.0158 O   0  0  0  0  0  0  0  0  0  0  0  0
   10.9528  -14.1688   28.3523 C   0  0  0  0  0  0  0  0  0  0  0  0
   10.5506  -14.6228   29.5858 C   0  0  0  0  0  0  0  0  0  0  0  0
   10.4999  -17.8587   25.8195 O   0  0  0  0  0  0  0  0  0  0  0  0
  1  2  1  0
  3  5  1  0
  3  2  1  0
  3  4  1  1
  5  7  1  0
  5  6  1  6
  7  8  2  0
  9 10  1  0
  9  7  1  0
 11 12  1  0
 10 11  1  1
 12 17  2  0
 13 14  2  0
 13 12  1  0
 14 15  1  0
 15 16  2  0
 17 16  1  0
 18 19  2  0
 18 10  1  0
 20 21  1  0
 21 31  2  0
 21 22  1  0
 22 23  2  0
 23 24  1  0
 24 25  1  0
 26 25  1  1
 26 27  1  0
 26 28  1  0
 27 18  1  0
 28 32  2  0
 28 29  1  0
 30 24  2  0
 31 30  1  0
M  END
$$$$
