IFY.pdb
     RDKit          3D

 32 33  0  0  1  0  0  0  0  0999 V2000
   10.6635  -20.6289   19.7839 C   0  0  0  0  0  0  0  0  0  0  0  0
   10.0603  -19.2782   19.5554 C   0  0  0  0  0  0  0  0  0  0  0  0
   10.3017  -18.3483   20.7579 C   0  0  2  0  0  0  0  0  0  0  0  0
    9.7396  -19.0989   21.9441 C   0  0  0  0  0  0  0  0  0  0  0  0
    9.4879  -17.0984   20.4816 C   0  0  2  0  0  0  0  0  0  0  0  0
   10.0641  -16.4510   19.2821 N   0  0  0  0  0  0  0  0  0  0  0  0
    9.5280  -16.1060   21.5767 C   0  0  0  0  0  0  0  0  0  0  0  0
   10.6221  -15.4664   21.8030 O   0  0  0  0  0  0  0  0  0  0  0  0
    8.4482  -15.7833   22.4198 N   0  0  0  0  0  0  0  0  0  0  0  0
    8.6411  -14.8254   23.5566 C   0  0  1  0  0  0  0  0  0  0  0  0
    7.3036  -14.2170   23.8615 C   0  0  0  0  0  0  0  0  0  0  0  0
    7.1934  -13.3979   25.0618 C   0  0  0  0  0  0  0  0  0  0  0  0
    6.4967  -13.7768   26.1789 C   0  0  0  0  0  0  0  0  0  0  0  0
    6.4070  -12.9475   27.3027 C   0  0  0  0  0  0  0  0  0  0  0  0
    7.0216  -11.7307   27.3039 C   0  0  0  0  0  0  0  0  0  0  0  0
    7.7286  -11.3377   26.1814 C   0  0  0  0  0  0  0  0  0  0  0  0
    7.8105  -12.1525   25.0903 C   0  0  0  0  0  0  0  0  0  0  0  0
    9.1179  -15.6449   24.6815 C   0  0  0  0  0  0  0  0  0  0  0  0
    8.4954  -16.7505   24.8930 O   0  0  0  0  0  0  0  0  0  0  0  0
   13.1506  -20.1331   22.2909 O   0  0  0  0  0  0  0  0  0  0  0  0
   12.8626  -19.2633   23.3402 C   0  0  0  0  0  0  0  0  0  0  0  0
   13.0308  -17.9069   23.2068 C   0  0  0  0  0  0  0  0  0  0  0  0
   12.7384  -17.0771   24.2581 C   0  0  0  0  0  0  0  0  0  0  0  0
   12.2673  -17.5292   25.4918 C   0  0  0  0  0  0  0  0  0  0  0  0
   11.9901  -16.5993   26.6038 C   0  0  0  0  0  0  0  0  0  0  0  0
   10.4897  -16.3006   26.6162 C   0  0  2  0  0  0  0  0  0  0  0  0
   10.1802  -15.3677   25.5502 N   0  0  0  0  0  0  0  0  0  0  0  0
   10.0632  -15.7487   27.8918 C   0  0  0  0  0  0  0  0  0  0  0  0
   10.1916  -16.4666   29.0560 O   0  0  0  0  0  0  0  0  0  0  0  0
   12.1034  -18.9108   25.6066 C   0  0  0  0  0  0  0  0  0  0  0  0
   12.3994  -19.7343   24.5466 C   0  0  0  0  0  0  0  0  0  0  0  0
    9.5620  -14.6022   27.9827 O   0  0  0  0  0  0  0  0  0  0  0  0
  1  2  1  0
  3  5  1  0
  3  2  1  0
  3  4  1  1
  5  7  1  0
  5  6  1  6
  7  8  2  0
  9 10  1  0
  9  7  1  0
 11 12  1  0
 10 11  1  1
 12 17  2  0
 13 14  2  0
 13 12  1  0
 14 15  1  0
 15 16  2  0
 17 16  1  0
 18 19  2  0
 18 10  1  0
 20 21  1  0
 21 31  2  0
 21 22  1  0
 22 23  2  0
 23 24  1  0
 24 25  1  0
 26 25  1  1
 26 27  1  0
 26 28  1  0
 27 18  1  0
 28 32  2  0
 28 29  1  0
 30 24  2  0
 31 30  1  0
M  END
$$$$
