IFY.pdb
     RDKit          3D

 32 33  0  0  1  0  0  0  0  0999 V2000
    7.2632  -12.5468   17.2231 C   0  0  0  0  0  0  0  0  0  0  0  0
    7.7811  -13.3050   18.4051 C   0  0  0  0  0  0  0  0  0  0  0  0
    8.4806  -14.6056   17.9713 C   0  0  2  0  0  0  0  0  0  0  0  0
    7.9241  -14.9021   16.5969 C   0  0  0  0  0  0  0  0  0  0  0  0
    8.0393  -15.6621   18.9663 C   0  0  2  0  0  0  0  0  0  0  0  0
    6.6055  -15.9318   18.7188 N   0  0  0  0  0  0  0  0  0  0  0  0
    8.1687  -15.2432   20.3782 C   0  0  0  0  0  0  0  0  0  0  0  0
    7.5985  -14.1553   20.7638 O   0  0  0  0  0  0  0  0  0  0  0  0
    8.8770  -15.9449   21.3715 N   0  0  0  0  0  0  0  0  0  0  0  0
    8.9679  -15.3936   22.7625 C   0  0  1  0  0  0  0  0  0  0  0  0
    7.5670  -15.2592   23.2835 C   0  0  0  0  0  0  0  0  0  0  0  0
    7.3784  -14.5269   24.5293 C   0  0  0  0  0  0  0  0  0  0  0  0
    7.6661  -13.1959   24.6793 C   0  0  0  0  0  0  0  0  0  0  0  0
    7.4824  -12.5399   25.9018 C   0  0  0  0  0  0  0  0  0  0  0  0
    7.0061  -13.2254   26.9796 C   0  0  0  0  0  0  0  0  0  0  0  0
    6.7116  -14.5700   26.8397 C   0  0  0  0  0  0  0  0  0  0  0  0
    6.8941  -15.2014   25.6442 C   0  0  0  0  0  0  0  0  0  0  0  0
    9.7241  -16.3947   23.5310 C   0  0  0  0  0  0  0  0  0  0  0  0
    9.0767  -17.4404   23.9080 O   0  0  0  0  0  0  0  0  0  0  0  0
   10.5381  -15.4047   31.5443 O   0  0  0  0  0  0  0  0  0  0  0  0
   10.6138  -15.2884   30.1582 C   0  0  0  0  0  0  0  0  0  0  0  0
   10.4182  -14.0811   29.5337 C   0  0  0  0  0  0  0  0  0  0  0  0
   10.4994  -13.9992   28.1677 C   0  0  0  0  0  0  0  0  0  0  0  0
   10.7753  -15.0910   27.3429 C   0  0  0  0  0  0  0  0  0  0  0  0
   10.8274  -14.9592   25.8739 C   0  0  0  0  0  0  0  0  0  0  0  0
   11.4292  -16.2428   25.2985 C   0  0  2  0  0  0  0  0  0  0  0  0
   11.0747  -16.3491   23.8966 N   0  0  0  0  0  0  0  0  0  0  0  0
   10.9651  -17.4203   26.0137 C   0  0  0  0  0  0  0  0  0  0  0  0
    9.6642  -17.8492   25.9092 O   0  0  0  0  0  0  0  0  0  0  0  0
   10.9706  -16.3085   27.9974 C   0  0  0  0  0  0  0  0  0  0  0  0
   10.8871  -16.3800   29.3675 C   0  0  0  0  0  0  0  0  0  0  0  0
   11.7270  -18.0891   26.7526 O   0  0  0  0  0  0  0  0  0  0  0  0
  1  2  1  0
  3  5  1  0
  3  2  1  0
  3  4  1  6
  5  7  1  0
  5  6  1  6
  7  8  2  0
  9 10  1  0
  9  7  1  0
 11 12  1  0
 10 11  1  1
 12 17  2  0
 13 14  2  0
 13 12  1  0
 14 15  1  0
 15 16  2  0
 17 16  1  0
 18 19  2  0
 18 10  1  0
 20 21  1  0
 21 31  2  0
 21 22  1  0
 22 23  2  0
 23 24  1  0
 24 25  1  0
 26 25  1  1
 26 27  1  0
 26 28  1  0
 27 18  1  0
 28 32  2  0
 28 29  1  0
 30 24  2  0
 31 30  1  0
M  END
$$$$
