IFY.pdb
     RDKit          3D

 32 33  0  0  1  0  0  0  0  0999 V2000
    7.5507  -12.6307   16.6662 C   0  0  0  0  0  0  0  0  0  0  0  0
    7.5322  -13.8911   17.4734 C   0  0  0  0  0  0  0  0  0  0  0  0
    8.3160  -13.7240   18.7874 C   0  0  2  0  0  0  0  0  0  0  0  0
    9.7657  -13.6483   18.3641 C   0  0  0  0  0  0  0  0  0  0  0  0
    8.0570  -14.9881   19.5848 C   0  0  2  0  0  0  0  0  0  0  0  0
    6.5910  -15.1800   19.6467 N   0  0  0  0  0  0  0  0  0  0  0  0
    8.5497  -14.9267   20.9773 C   0  0  0  0  0  0  0  0  0  0  0  0
    9.4785  -14.0871   21.2769 O   0  0  0  0  0  0  0  0  0  0  0  0
    8.0828  -15.7232   22.0397 N   0  0  0  0  0  0  0  0  0  0  0  0
    8.6917  -15.5917   23.4031 C   0  0  1  0  0  0  0  0  0  0  0  0
    7.5650  -15.5211   24.3919 C   0  0  0  0  0  0  0  0  0  0  0  0
    7.2938  -14.2314   25.0139 C   0  0  0  0  0  0  0  0  0  0  0  0
    6.2153  -13.9899   25.8234 C   0  0  0  0  0  0  0  0  0  0  0  0
    5.9891  -12.7285   26.3857 C   0  0  0  0  0  0  0  0  0  0  0  0
    6.8523  -11.7040   26.1335 C   0  0  0  0  0  0  0  0  0  0  0  0
    7.9454  -11.9363   25.3178 C   0  0  0  0  0  0  0  0  0  0  0  0
    8.1579  -13.1692   24.7737 C   0  0  0  0  0  0  0  0  0  0  0  0
    9.4879  -16.8138   23.5951 C   0  0  0  0  0  0  0  0  0  0  0  0
   10.4263  -17.0294   22.7422 O   0  0  0  0  0  0  0  0  0  0  0  0
   11.6793  -14.9358   31.4425 O   0  0  0  0  0  0  0  0  0  0  0  0
   11.2797  -15.1989   30.1342 C   0  0  0  0  0  0  0  0  0  0  0  0
   11.6964  -16.3302   29.4768 C   0  0  0  0  0  0  0  0  0  0  0  0
   11.2856  -16.5608   28.1894 C   0  0  0  0  0  0  0  0  0  0  0  0
   10.4479  -15.6992   27.4793 C   0  0  0  0  0  0  0  0  0  0  0  0
   10.0526  -15.9769   26.0848 C   0  0  0  0  0  0  0  0  0  0  0  0
    9.8662  -17.4877   25.9312 C   0  0  2  0  0  0  0  0  0  0  0  0
    9.3509  -17.7724   24.6061 N   0  0  0  0  0  0  0  0  0  0  0  0
    8.9611  -18.0213   26.9359 C   0  0  0  0  0  0  0  0  0  0  0  0
    9.3977  -18.9145   27.8840 O   0  0  0  0  0  0  0  0  0  0  0  0
   10.0360  -14.5554   28.1655 C   0  0  0  0  0  0  0  0  0  0  0  0
   10.4534  -14.3334   29.4562 C   0  0  0  0  0  0  0  0  0  0  0  0
    7.7512  -17.6924   26.9785 O   0  0  0  0  0  0  0  0  0  0  0  0
  1  2  1  0
  3  5  1  0
  3  2  1  0
  3  4  1  6
  5  7  1  0
  5  6  1  1
  7  8  2  0
  9 10  1  0
  9  7  1  0
 11 12  1  0
 10 11  1  1
 12 17  2  0
 13 14  2  0
 13 12  1  0
 14 15  1  0
 15 16  2  0
 17 16  1  0
 18 19  2  0
 18 10  1  0
 20 21  1  0
 21 31  2  0
 21 22  1  0
 22 23  2  0
 23 24  1  0
 24 25  1  0
 26 25  1  1
 26 27  1  0
 26 28  1  0
 27 18  1  0
 28 32  2  0
 28 29  1  0
 30 24  2  0
 31 30  1  0
M  END
$$$$
