IFY.pdb
     RDKit          3D

 32 33  0  0  1  0  0  0  0  0999 V2000
   10.5002  -20.2714   18.5741 C   0  0  0  0  0  0  0  0  0  0  0  0
   10.3046  -18.7886   18.6302 C   0  0  0  0  0  0  0  0  0  0  0  0
   10.2653  -18.2853   20.0843 C   0  0  2  0  0  0  0  0  0  0  0  0
    9.1025  -19.0184   20.7143 C   0  0  0  0  0  0  0  0  0  0  0  0
    9.9765  -16.7987   19.9977 C   0  0  2  0  0  0  0  0  0  0  0  0
   11.1284  -16.1626   19.3207 N   0  0  0  0  0  0  0  0  0  0  0  0
    9.8252  -16.1426   21.3139 C   0  0  0  0  0  0  0  0  0  0  0  0
   10.8332  -16.1025   22.1136 O   0  0  0  0  0  0  0  0  0  0  0  0
    8.6466  -15.5370   21.7884 N   0  0  0  0  0  0  0  0  0  0  0  0
    8.5862  -15.0014   23.1872 C   0  0  1  0  0  0  0  0  0  0  0  0
    7.4452  -14.0283   23.2452 C   0  0  0  0  0  0  0  0  0  0  0  0
    7.1412  -13.4222   24.5352 C   0  0  0  0  0  0  0  0  0  0  0  0
    7.8796  -12.4120   25.0931 C   0  0  0  0  0  0  0  0  0  0  0  0
    7.5563  -11.8725   26.3433 C   0  0  0  0  0  0  0  0  0  0  0  0
    6.4844  -12.3507   27.0366 C   0  0  0  0  0  0  0  0  0  0  0  0
    5.7310  -13.3705   26.4828 C   0  0  0  0  0  0  0  0  0  0  0  0
    6.0537  -13.8906   25.2635 C   0  0  0  0  0  0  0  0  0  0  0  0
    8.3282  -16.1703   24.0424 C   0  0  0  0  0  0  0  0  0  0  0  0
    8.3921  -17.3234   23.4760 O   0  0  0  0  0  0  0  0  0  0  0  0
   13.7037  -18.8107   30.0307 O   0  0  0  0  0  0  0  0  0  0  0  0
   12.8661  -18.1815   29.1126 C   0  0  0  0  0  0  0  0  0  0  0  0
   12.7024  -18.6773   27.8424 C   0  0  0  0  0  0  0  0  0  0  0  0
   11.8708  -18.0350   26.9619 C   0  0  0  0  0  0  0  0  0  0  0  0
   11.1575  -16.8772   27.2767 C   0  0  0  0  0  0  0  0  0  0  0  0
   10.2932  -16.2059   26.2865 C   0  0  0  0  0  0  0  0  0  0  0  0
    8.9135  -16.8659   26.3290 C   0  0  2  0  0  0  0  0  0  0  0  0
    8.0276  -16.1786   25.4097 N   0  0  0  0  0  0  0  0  0  0  0  0
    8.3480  -16.8412   27.6680 C   0  0  0  0  0  0  0  0  0  0  0  0
    8.2874  -17.9789   28.4356 O   0  0  0  0  0  0  0  0  0  0  0  0
   11.3380  -16.3898   28.5724 C   0  0  0  0  0  0  0  0  0  0  0  0
   12.1740  -17.0412   29.4477 C   0  0  0  0  0  0  0  0  0  0  0  0
    7.8932  -15.7878   28.1752 O   0  0  0  0  0  0  0  0  0  0  0  0
  1  2  1  0
  3  5  1  0
  3  2  1  0
  3  4  1  1
  5  7  1  0
  5  6  1  1
  7  8  2  0
  9 10  1  0
  9  7  1  0
 11 12  1  0
 10 11  1  6
 12 17  2  0
 13 14  2  0
 13 12  1  0
 14 15  1  0
 15 16  2  0
 17 16  1  0
 18 19  2  0
 18 10  1  0
 20 21  1  0
 21 31  2  0
 21 22  1  0
 22 23  2  0
 23 24  1  0
 24 25  1  0
 26 25  1  1
 26 27  1  0
 26 28  1  0
 27 18  1  0
 28 32  2  0
 28 29  1  0
 30 24  2  0
 31 30  1  0
M  END
$$$$
