IFY.pdb
     RDKit          3D

 32 33  0  0  1  0  0  0  0  0999 V2000
    8.9423  -16.2179   15.8741 C   0  0  0  0  0  0  0  0  0  0  0  0
    8.2223  -15.1273   16.6037 C   0  0  0  0  0  0  0  0  0  0  0  0
    8.8225  -14.9008   18.0028 C   0  0  2  0  0  0  0  0  0  0  0  0
    8.6943  -16.2376   18.6978 C   0  0  0  0  0  0  0  0  0  0  0  0
    7.9363  -13.8650   18.6682 C   0  0  2  0  0  0  0  0  0  0  0  0
    8.1215  -12.5903   17.9398 N   0  0  0  0  0  0  0  0  0  0  0  0
    8.2740  -13.6126   20.0852 C   0  0  0  0  0  0  0  0  0  0  0  0
    9.3951  -13.0484   20.3713 O   0  0  0  0  0  0  0  0  0  0  0  0
    7.4585  -13.9396   21.1848 N   0  0  0  0  0  0  0  0  0  0  0  0
    7.9453  -13.6966   22.5815 C   0  0  1  0  0  0  0  0  0  0  0  0
    6.7424  -13.4093   23.4316 C   0  0  0  0  0  0  0  0  0  0  0  0
    6.9552  -13.2290   24.8619 C   0  0  0  0  0  0  0  0  0  0  0  0
    7.0104  -14.2634   25.7583 C   0  0  0  0  0  0  0  0  0  0  0  0
    7.2016  -14.0381   27.1263 C   0  0  0  0  0  0  0  0  0  0  0  0
    7.3388  -12.7657   27.5959 C   0  0  0  0  0  0  0  0  0  0  0  0
    7.2853  -11.7130   26.6997 C   0  0  0  0  0  0  0  0  0  0  0  0
    7.0983  -11.9420   25.3678 C   0  0  0  0  0  0  0  0  0  0  0  0
    8.5958  -14.9506   22.9923 C   0  0  0  0  0  0  0  0  0  0  0  0
    7.8953  -16.0242   22.8861 O   0  0  0  0  0  0  0  0  0  0  0  0
   14.5027  -14.1480   19.6938 O   0  0  0  0  0  0  0  0  0  0  0  0
   13.5940  -14.9007   20.4342 C   0  0  0  0  0  0  0  0  0  0  0  0
   13.9719  -15.5348   21.5923 C   0  0  0  0  0  0  0  0  0  0  0  0
   13.0539  -16.2681   22.2986 C   0  0  0  0  0  0  0  0  0  0  0  0
   11.7217  -16.4193   21.9105 C   0  0  0  0  0  0  0  0  0  0  0  0
   10.7755  -17.2405   22.6904 C   0  0  0  0  0  0  0  0  0  0  0  0
   10.3324  -16.4319   23.9113 C   0  0  2  0  0  0  0  0  0  0  0  0
    9.8972  -15.1176   23.4806 N   0  0  0  0  0  0  0  0  0  0  0  0
   11.4037  -16.3005   24.8852 C   0  0  0  0  0  0  0  0  0  0  0  0
   11.7951  -15.0684   25.3502 O   0  0  0  0  0  0  0  0  0  0  0  0
   11.3582  -15.7671   20.7309 C   0  0  0  0  0  0  0  0  0  0  0  0
   12.2861  -15.0342   20.0300 C   0  0  0  0  0  0  0  0  0  0  0  0
   12.0130  -17.2993   25.3379 O   0  0  0  0  0  0  0  0  0  0  0  0
  1  2  1  0
  3  5  1  0
  3  2  1  0
  3  4  1  1
  5  7  1  0
  5  6  1  6
  7  8  2  0
  9 10  1  0
  9  7  1  0
 11 12  1  0
 10 11  1  1
 12 17  2  0
 13 14  2  0
 13 12  1  0
 14 15  1  0
 15 16  2  0
 17 16  1  0
 18 19  2  0
 18 10  1  0
 20 21  1  0
 21 31  2  0
 21 22  1  0
 22 23  2  0
 23 24  1  0
 24 25  1  0
 26 25  1  6
 26 27  1  0
 26 28  1  0
 27 18  1  0
 28 32  2  0
 28 29  1  0
 30 24  2  0
 31 30  1  0
M  END
$$$$
