IFY.pdb
     RDKit          3D

 32 33  0  0  1  0  0  0  0  0999 V2000
   12.3005  -19.1455   17.4641 C   0  0  0  0  0  0  0  0  0  0  0  0
   11.1437  -18.2132   17.6454 C   0  0  0  0  0  0  0  0  0  0  0  0
   11.2179  -17.4886   19.0014 C   0  0  2  0  0  0  0  0  0  0  0  0
   11.2447  -18.5971   20.0294 C   0  0  0  0  0  0  0  0  0  0  0  0
    9.9339  -16.6883   19.1112 C   0  0  2  0  0  0  0  0  0  0  0  0
    9.9281  -15.7065   18.0041 N   0  0  0  0  0  0  0  0  0  0  0  0
    9.8116  -15.9267   20.3725 C   0  0  0  0  0  0  0  0  0  0  0  0
   10.8788  -15.5038   20.9551 O   0  0  0  0  0  0  0  0  0  0  0  0
    8.6003  -15.6090   21.0148 N   0  0  0  0  0  0  0  0  0  0  0  0
    8.6120  -14.9017   22.3364 C   0  0  1  0  0  0  0  0  0  0  0  0
    7.1841  -14.7281   22.7642 C   0  0  0  0  0  0  0  0  0  0  0  0
    6.9314  -13.9470   23.9683 C   0  0  0  0  0  0  0  0  0  0  0  0
    6.3320  -14.4540   25.0910 C   0  0  0  0  0  0  0  0  0  0  0  0
    6.0966  -13.6589   26.2184 C   0  0  0  0  0  0  0  0  0  0  0  0
    6.4663  -12.3467   26.2175 C   0  0  0  0  0  0  0  0  0  0  0  0
    7.0730  -11.8239   25.0893 C   0  0  0  0  0  0  0  0  0  0  0  0
    7.2983  -12.6064   23.9947 C   0  0  0  0  0  0  0  0  0  0  0  0
    9.3334  -15.7983   23.2530 C   0  0  0  0  0  0  0  0  0  0  0  0
   10.6182  -15.7516   23.2117 O   0  0  0  0  0  0  0  0  0  0  0  0
   11.7938  -15.7637   31.2952 O   0  0  0  0  0  0  0  0  0  0  0  0
   11.1685  -15.6897   30.0527 C   0  0  0  0  0  0  0  0  0  0  0  0
   11.4371  -14.6632   29.1808 C   0  0  0  0  0  0  0  0  0  0  0  0
   10.8053  -14.6185   27.9651 C   0  0  0  0  0  0  0  0  0  0  0  0
    9.8799  -15.5728   27.5393 C   0  0  0  0  0  0  0  0  0  0  0  0
    9.2054  -15.4689   26.2308 C   0  0  0  0  0  0  0  0  0  0  0  0
    9.3703  -16.8024   25.4992 C   0  0  2  0  0  0  0  0  0  0  0  0
    8.7854  -16.6964   24.1767 N   0  0  0  0  0  0  0  0  0  0  0  0
    8.7453  -17.8945   26.2272 C   0  0  0  0  0  0  0  0  0  0  0  0
    9.4836  -18.7259   27.0341 O   0  0  0  0  0  0  0  0  0  0  0  0
    9.6210  -16.6074   28.4402 C   0  0  0  0  0  0  0  0  0  0  0  0
   10.2599  -16.6432   29.6567 C   0  0  0  0  0  0  0  0  0  0  0  0
    7.5144  -18.1235   26.1489 O   0  0  0  0  0  0  0  0  0  0  0  0
  1  2  1  0
  3  5  1  0
  3  2  1  0
  3  4  1  1
  5  7  1  0
  5  6  1  6
  7  8  2  0
  9 10  1  0
  9  7  1  0
 11 12  1  0
 10 11  1  1
 12 17  2  0
 13 14  2  0
 13 12  1  0
 14 15  1  0
 15 16  2  0
 17 16  1  0
 18 19  2  0
 18 10  1  0
 20 21  1  0
 21 31  2  0
 21 22  1  0
 22 23  2  0
 23 24  1  0
 24 25  1  0
 26 25  1  1
 26 27  1  0
 26 28  1  0
 27 18  1  0
 28 32  2  0
 28 29  1  0
 30 24  2  0
 31 30  1  0
M  END
$$$$
