IFY.pdb
     RDKit          3D

 32 33  0  0  1  0  0  0  0  0999 V2000
    9.3540  -17.2127   16.1058 C   0  0  0  0  0  0  0  0  0  0  0  0
    8.4947  -16.2349   16.8445 C   0  0  0  0  0  0  0  0  0  0  0  0
    9.1131  -15.8643   18.2044 C   0  0  2  0  0  0  0  0  0  0  0  0
    9.2163  -17.1754   18.9507 C   0  0  0  0  0  0  0  0  0  0  0  0
    8.1108  -14.9445   18.8755 C   0  0  2  0  0  0  0  0  0  0  0  0
    8.1347  -13.6567   18.1470 N   0  0  0  0  0  0  0  0  0  0  0  0
    8.4230  -14.6528   20.2908 C   0  0  0  0  0  0  0  0  0  0  0  0
    9.5399  -14.0824   20.5814 O   0  0  0  0  0  0  0  0  0  0  0  0
    7.5869  -14.9473   21.3840 N   0  0  0  0  0  0  0  0  0  0  0  0
    7.9842  -14.5326   22.7687 C   0  0  1  0  0  0  0  0  0  0  0  0
    6.7231  -14.3591   23.5634 C   0  0  0  0  0  0  0  0  0  0  0  0
    6.8322  -13.7241   24.8706 C   0  0  0  0  0  0  0  0  0  0  0  0
    5.8123  -13.6864   25.7845 C   0  0  0  0  0  0  0  0  0  0  0  0
    5.9608  -13.0502   27.0222 C   0  0  0  0  0  0  0  0  0  0  0  0
    7.1413  -12.4488   27.3433 C   0  0  0  0  0  0  0  0  0  0  0  0
    8.1786  -12.4811   26.4283 C   0  0  0  0  0  0  0  0  0  0  0  0
    8.0248  -13.1034   25.2240 C   0  0  0  0  0  0  0  0  0  0  0  0
    8.7911  -15.6453   23.2934 C   0  0  0  0  0  0  0  0  0  0  0  0
    8.4680  -16.8265   22.8998 O   0  0  0  0  0  0  0  0  0  0  0  0
   10.2871  -14.6333   30.4624 O   0  0  0  0  0  0  0  0  0  0  0  0
   10.6792  -15.0622   29.1965 C   0  0  0  0  0  0  0  0  0  0  0  0
   10.8609  -14.1708   28.1677 C   0  0  0  0  0  0  0  0  0  0  0  0
   11.2472  -14.6243   26.9331 C   0  0  0  0  0  0  0  0  0  0  0  0
   11.4755  -15.9699   26.6405 C   0  0  0  0  0  0  0  0  0  0  0  0
   11.8658  -16.4139   25.2882 C   0  0  0  0  0  0  0  0  0  0  0  0
   10.5955  -16.7832   24.5197 C   0  0  2  0  0  0  0  0  0  0  0  0
    9.8807  -15.5713   24.1693 N   0  0  0  0  0  0  0  0  0  0  0  0
    9.7320  -17.6557   25.2985 C   0  0  0  0  0  0  0  0  0  0  0  0
    8.4640  -17.2665   25.6562 O   0  0  0  0  0  0  0  0  0  0  0  0
   11.2852  -16.8593   27.6997 C   0  0  0  0  0  0  0  0  0  0  0  0
   10.8978  -16.3944   28.9338 C   0  0  0  0  0  0  0  0  0  0  0  0
   10.1059  -18.7922   25.6756 O   0  0  0  0  0  0  0  0  0  0  0  0
  1  2  1  0
  3  5  1  0
  3  2  1  0
  3  4  1  1
  5  7  1  0
  5  6  1  6
  7  8  2  0
  9 10  1  0
  9  7  1  0
 11 12  1  0
 10 11  1  1
 12 17  2  0
 13 14  2  0
 13 12  1  0
 14 15  1  0
 15 16  2  0
 17 16  1  0
 18 19  2  0
 18 10  1  0
 20 21  1  0
 21 31  2  0
 21 22  1  0
 22 23  2  0
 23 24  1  0
 24 25  1  0
 26 25  1  1
 26 27  1  0
 26 28  1  0
 27 18  1  0
 28 32  2  0
 28 29  1  0
 30 24  2  0
 31 30  1  0
M  END
$$$$
