IFY.pdb
     RDKit          3D

 32 33  0  0  1  0  0  0  0  0999 V2000
    9.3898  -21.5895   24.2056 C   0  0  0  0  0  0  0  0  0  0  0  0
    8.3943  -20.6981   23.5315 C   0  0  0  0  0  0  0  0  0  0  0  0
    7.0439  -20.7103   24.2700 C   0  0  2  0  0  0  0  0  0  0  0  0
    6.5634  -22.1406   24.1703 C   0  0  0  0  0  0  0  0  0  0  0  0
    6.1357  -19.7850   23.4827 C   0  0  2  0  0  0  0  0  0  0  0  0
    6.1623  -20.2329   22.0726 N   0  0  0  0  0  0  0  0  0  0  0  0
    6.5646  -18.3703   23.5009 C   0  0  0  0  0  0  0  0  0  0  0  0
    7.0773  -17.8571   22.4374 O   0  0  0  0  0  0  0  0  0  0  0  0
    6.4598  -17.5044   24.6055 N   0  0  0  0  0  0  0  0  0  0  0  0
    7.0093  -16.1120   24.5252 C   0  0  1  0  0  0  0  0  0  0  0  0
    6.2341  -15.2680   25.4941 C   0  0  0  0  0  0  0  0  0  0  0  0
    6.5577  -13.8486   25.5606 C   0  0  0  0  0  0  0  0  0  0  0  0
    7.0351  -13.1275   24.4981 C   0  0  0  0  0  0  0  0  0  0  0  0
    7.3464  -11.7682   24.6159 C   0  0  0  0  0  0  0  0  0  0  0  0
    7.1762  -11.1297   25.8083 C   0  0  0  0  0  0  0  0  0  0  0  0
    6.6941  -11.8478   26.8882 C   0  0  0  0  0  0  0  0  0  0  0  0
    6.3935  -13.1727   26.7643 C   0  0  0  0  0  0  0  0  0  0  0  0
    8.4188  -16.2241   24.9316 C   0  0  0  0  0  0  0  0  0  0  0  0
    8.6667  -16.1071   26.1884 O   0  0  0  0  0  0  0  0  0  0  0  0
   10.0174  -14.9383   30.6795 O   0  0  0  0  0  0  0  0  0  0  0  0
   10.3799  -15.3927   29.4136 C   0  0  0  0  0  0  0  0  0  0  0  0
   10.3598  -14.5564   28.3246 C   0  0  0  0  0  0  0  0  0  0  0  0
   10.7224  -15.0338   27.0917 C   0  0  0  0  0  0  0  0  0  0  0  0
   11.1226  -16.3508   26.8599 C   0  0  0  0  0  0  0  0  0  0  0  0
   11.4797  -16.8261   25.5091 C   0  0  0  0  0  0  0  0  0  0  0  0
   10.8171  -15.9024   24.4852 C   0  0  2  0  0  0  0  0  0  0  0  0
    9.5291  -16.4524   24.1099 N   0  0  0  0  0  0  0  0  0  0  0  0
   11.6436  -15.7337   23.3011 C   0  0  0  0  0  0  0  0  0  0  0  0
   12.9273  -15.2528   23.3923 O   0  0  0  0  0  0  0  0  0  0  0  0
   11.1361  -17.1842   27.9798 C   0  0  0  0  0  0  0  0  0  0  0  0
   10.7708  -16.6958   29.2116 C   0  0  0  0  0  0  0  0  0  0  0  0
   11.2222  -16.0165   22.1539 O   0  0  0  0  0  0  0  0  0  0  0  0
  1  2  1  0
  3  5  1  0
  3  2  1  0
  3  4  1  6
  5  7  1  0
  5  6  1  6
  7  8  2  0
  9 10  1  0
  9  7  1  0
 11 12  1  0
 10 11  1  1
 12 17  2  0
 13 14  2  0
 13 12  1  0
 14 15  1  0
 15 16  2  0
 17 16  1  0
 18 19  2  0
 18 10  1  0
 20 21  1  0
 21 31  2  0
 21 22  1  0
 22 23  2  0
 23 24  1  0
 24 25  1  0
 26 25  1  1
 26 27  1  0
 26 28  1  0
 27 18  1  0
 28 32  2  0
 28 29  1  0
 30 24  2  0
 31 30  1  0
M  END
$$$$
