IFY.pdb
     RDKit          3D

 32 33  0  0  1  0  0  0  0  0999 V2000
    9.3588  -16.4496   15.4867 C   0  0  0  0  0  0  0  0  0  0  0  0
    8.4172  -15.6458   16.3279 C   0  0  0  0  0  0  0  0  0  0  0  0
    9.0581  -15.2646   17.6744 C   0  0  2  0  0  0  0  0  0  0  0  0
    9.3367  -16.5854   18.3558 C   0  0  0  0  0  0  0  0  0  0  0  0
    7.9973  -14.4866   18.4296 C   0  0  2  0  0  0  0  0  0  0  0  0
    7.8410  -13.1798   17.7531 N   0  0  0  0  0  0  0  0  0  0  0  0
    8.3495  -14.2108   19.8387 C   0  0  0  0  0  0  0  0  0  0  0  0
    9.3440  -13.4349   20.0957 O   0  0  0  0  0  0  0  0  0  0  0  0
    7.6773  -14.7315   20.9604 N   0  0  0  0  0  0  0  0  0  0  0  0
    8.1040  -14.3388   22.3427 C   0  0  1  0  0  0  0  0  0  0  0  0
    6.8633  -13.9931   23.1131 C   0  0  0  0  0  0  0  0  0  0  0  0
    7.0284  -13.5363   24.4870 C   0  0  0  0  0  0  0  0  0  0  0  0
    6.6169  -14.2519   25.5804 C   0  0  0  0  0  0  0  0  0  0  0  0
    6.7839  -13.7632   26.8811 C   0  0  0  0  0  0  0  0  0  0  0  0
    7.3683  -12.5484   27.0841 C   0  0  0  0  0  0  0  0  0  0  0  0
    7.7883  -11.8170   25.9874 C   0  0  0  0  0  0  0  0  0  0  0  0
    7.6213  -12.3012   24.7229 C   0  0  0  0  0  0  0  0  0  0  0  0
    8.7592  -15.5310   22.9029 C   0  0  0  0  0  0  0  0  0  0  0  0
    8.0010  -16.5383   23.1580 O   0  0  0  0  0  0  0  0  0  0  0  0
   10.9048  -15.9525   30.8772 O   0  0  0  0  0  0  0  0  0  0  0  0
   10.5735  -15.7082   29.5465 C   0  0  0  0  0  0  0  0  0  0  0  0
    9.8363  -16.6105   28.8195 C   0  0  0  0  0  0  0  0  0  0  0  0
    9.5264  -16.3410   27.5116 C   0  0  0  0  0  0  0  0  0  0  0  0
    9.9201  -15.1779   26.8478 C   0  0  0  0  0  0  0  0  0  0  0  0
    9.5842  -14.9430   25.4301 C   0  0  0  0  0  0  0  0  0  0  0  0
   10.5590  -15.7464   24.5669 C   0  0  2  0  0  0  0  0  0  0  0  0
   10.1192  -15.7045   23.1859 N   0  0  0  0  0  0  0  0  0  0  0  0
   10.6554  -17.1275   25.0106 C   0  0  0  0  0  0  0  0  0  0  0  0
   10.3106  -18.1668   24.1809 O   0  0  0  0  0  0  0  0  0  0  0  0
   10.6684  -14.2742   27.6044 C   0  0  0  0  0  0  0  0  0  0  0  0
   10.9739  -14.5538   28.9151 C   0  0  0  0  0  0  0  0  0  0  0  0
   11.0531  -17.4266   26.1622 O   0  0  0  0  0  0  0  0  0  0  0  0
  1  2  1  0
  3  5  1  0
  3  2  1  0
  3  4  1  1
  5  7  1  0
  5  6  1  6
  7  8  2  0
  9 10  1  0
  9  7  1  0
 11 12  1  0
 10 11  1  1
 12 17  2  0
 13 14  2  0
 13 12  1  0
 14 15  1  0
 15 16  2  0
 17 16  1  0
 18 19  2  0
 18 10  1  0
 20 21  1  0
 21 31  2  0
 21 22  1  0
 22 23  2  0
 23 24  1  0
 24 25  1  0
 26 25  1  1
 26 27  1  0
 26 28  1  0
 27 18  1  0
 28 32  2  0
 28 29  1  0
 30 24  2  0
 31 30  1  0
M  END
$$$$
