IFY.pdb
     RDKit          3D

 32 33  0  0  1  0  0  0  0  0999 V2000
    9.5023  -20.7703   19.2931 C   0  0  0  0  0  0  0  0  0  0  0  0
    9.0866  -19.3395   19.1517 C   0  0  0  0  0  0  0  0  0  0  0  0
    9.4317  -18.5304   20.4148 C   0  0  2  0  0  0  0  0  0  0  0  0
    8.6329  -19.1832   21.5204 C   0  0  0  0  0  0  0  0  0  0  0  0
    8.9303  -17.1231   20.1520 C   0  0  2  0  0  0  0  0  0  0  0  0
    9.7321  -16.5680   19.0391 N   0  0  0  0  0  0  0  0  0  0  0  0
    9.0873  -16.2090   21.3033 C   0  0  0  0  0  0  0  0  0  0  0  0
   10.2702  -15.9452   21.7372 O   0  0  0  0  0  0  0  0  0  0  0  0
    8.0322  -15.5789   21.9895 N   0  0  0  0  0  0  0  0  0  0  0  0
    8.3129  -14.7612   23.2141 C   0  0  1  0  0  0  0  0  0  0  0  0
    7.1009  -13.9157   23.4756 C   0  0  0  0  0  0  0  0  0  0  0  0
    7.0762  -13.1352   24.7059 C   0  0  0  0  0  0  0  0  0  0  0  0
    7.8478  -12.0228   24.9157 C   0  0  0  0  0  0  0  0  0  0  0  0
    7.8000  -11.3148   26.1219 C   0  0  0  0  0  0  0  0  0  0  0  0
    6.9714  -11.7269   27.1230 C   0  0  0  0  0  0  0  0  0  0  0  0
    6.1870  -12.8488   26.9222 C   0  0  0  0  0  0  0  0  0  0  0  0
    6.2403  -13.5330   25.7431 C   0  0  0  0  0  0  0  0  0  0  0  0
    8.5209  -15.7363   24.2959 C   0  0  0  0  0  0  0  0  0  0  0  0
    7.7856  -16.7914   24.2692 O   0  0  0  0  0  0  0  0  0  0  0  0
   12.4422  -22.5636   27.2903 O   0  0  0  0  0  0  0  0  0  0  0  0
   11.9465  -21.4016   26.7035 C   0  0  0  0  0  0  0  0  0  0  0  0
   10.6082  -21.2566   26.4318 C   0  0  0  0  0  0  0  0  0  0  0  0
   10.1513  -20.1005   25.8538 C   0  0  0  0  0  0  0  0  0  0  0  0
   10.9772  -19.0284   25.5120 C   0  0  0  0  0  0  0  0  0  0  0  0
   10.4430  -17.8130   24.8674 C   0  0  0  0  0  0  0  0  0  0  0  0
    9.9267  -16.8773   25.9622 C   0  0  2  0  0  0  0  0  0  0  0  0
    9.4348  -15.6567   25.3534 N   0  0  0  0  0  0  0  0  0  0  0  0
   10.9639  -16.5606   26.9303 C   0  0  0  0  0  0  0  0  0  0  0  0
   11.9142  -15.6039   26.6673 O   0  0  0  0  0  0  0  0  0  0  0  0
   12.3337  -19.1960   25.7964 C   0  0  0  0  0  0  0  0  0  0  0  0
   12.7817  -20.3590   26.3762 C   0  0  0  0  0  0  0  0  0  0  0  0
   11.0357  -17.1443   28.0384 O   0  0  0  0  0  0  0  0  0  0  0  0
  1  2  1  0
  3  5  1  0
  3  2  1  0
  3  4  1  1
  5  7  1  0
  5  6  1  6
  7  8  2  0
  9 10  1  0
  9  7  1  0
 11 12  1  0
 10 11  1  1
 12 17  2  0
 13 14  2  0
 13 12  1  0
 14 15  1  0
 15 16  2  0
 17 16  1  0
 18 19  2  0
 18 10  1  0
 20 21  1  0
 21 31  2  0
 21 22  1  0
 22 23  2  0
 23 24  1  0
 24 25  1  0
 26 25  1  6
 26 27  1  0
 26 28  1  0
 27 18  1  0
 28 32  2  0
 28 29  1  0
 30 24  2  0
 31 30  1  0
M  END
$$$$
