IFY.pdb
     RDKit          3D

 32 33  0  0  1  0  0  0  0  0999 V2000
    9.4549  -17.8620   15.8132 C   0  0  0  0  0  0  0  0  0  0  0  0
    9.3036  -18.2623   17.2475 C   0  0  0  0  0  0  0  0  0  0  0  0
    9.8016  -17.1538   18.1920 C   0  0  2  0  0  0  0  0  0  0  0  0
   11.2851  -17.0518   17.9177 C   0  0  0  0  0  0  0  0  0  0  0  0
    9.5517  -17.6673   19.5973 C   0  0  2  0  0  0  0  0  0  0  0  0
    8.2207  -18.3138   19.6022 N   0  0  0  0  0  0  0  0  0  0  0  0
    9.5262  -16.6049   20.6251 C   0  0  0  0  0  0  0  0  0  0  0  0
   10.5302  -15.8053   20.7247 O   0  0  0  0  0  0  0  0  0  0  0  0
    8.4739  -16.3773   21.5316 N   0  0  0  0  0  0  0  0  0  0  0  0
    8.5679  -15.2627   22.5295 C   0  0  1  0  0  0  0  0  0  0  0  0
    7.1714  -14.9418   22.9755 C   0  0  0  0  0  0  0  0  0  0  0  0
    7.0167  -14.0518   24.1190 C   0  0  0  0  0  0  0  0  0  0  0  0
    6.4338  -14.4270   25.3006 C   0  0  0  0  0  0  0  0  0  0  0  0
    6.2942  -13.5303   26.3659 C   0  0  0  0  0  0  0  0  0  0  0  0
    6.7435  -12.2491   26.2431 C   0  0  0  0  0  0  0  0  0  0  0  0
    7.3344  -11.8590   25.0545 C   0  0  0  0  0  0  0  0  0  0  0  0
    7.4661  -12.7399   24.0211 C   0  0  0  0  0  0  0  0  0  0  0  0
    9.3678  -15.7999   23.6412 C   0  0  0  0  0  0  0  0  0  0  0  0
    9.1699  -17.0329   23.9496 O   0  0  0  0  0  0  0  0  0  0  0  0
   11.0520  -16.6727   31.8174 O   0  0  0  0  0  0  0  0  0  0  0  0
   11.1726  -16.1944   30.5147 C   0  0  0  0  0  0  0  0  0  0  0  0
   10.6238  -14.9911   30.1448 C   0  0  0  0  0  0  0  0  0  0  0  0
   10.7598  -14.5477   28.8548 C   0  0  0  0  0  0  0  0  0  0  0  0
   11.4379  -15.2560   27.8614 C   0  0  0  0  0  0  0  0  0  0  0  0
   11.5365  -14.7499   26.4785 C   0  0  0  0  0  0  0  0  0  0  0  0
   10.9319  -15.7967   25.5408 C   0  0  2  0  0  0  0  0  0  0  0  0
   10.3307  -15.1278   24.4035 N   0  0  0  0  0  0  0  0  0  0  0  0
    9.9343  -16.6100   26.2167 C   0  0  0  0  0  0  0  0  0  0  0  0
    8.6785  -16.1203   26.4822 O   0  0  0  0  0  0  0  0  0  0  0  0
   11.9880  -16.4762   28.2580 C   0  0  0  0  0  0  0  0  0  0  0  0
   11.8461  -16.9119   29.5539 C   0  0  0  0  0  0  0  0  0  0  0  0
   10.1765  -17.7845   26.5849 O   0  0  0  0  0  0  0  0  0  0  0  0
  1  2  1  0
  3  5  1  0
  3  2  1  0
  3  4  1  1
  5  7  1  0
  5  6  1  6
  7  8  2  0
  9 10  1  0
  9  7  1  0
 11 12  1  0
 10 11  1  1
 12 17  2  0
 13 14  2  0
 13 12  1  0
 14 15  1  0
 15 16  2  0
 17 16  1  0
 18 19  2  0
 18 10  1  0
 20 21  1  0
 21 31  2  0
 21 22  1  0
 22 23  2  0
 23 24  1  0
 24 25  1  0
 26 25  1  1
 26 27  1  0
 26 28  1  0
 27 18  1  0
 28 32  2  0
 28 29  1  0
 30 24  2  0
 31 30  1  0
M  END
$$$$
