IFY.pdb
     RDKit          3D

 32 33  0  0  1  0  0  0  0  0999 V2000
   10.1941  -20.8134   19.2119 C   0  0  0  0  0  0  0  0  0  0  0  0
    9.2115  -19.6866   19.2831 C   0  0  0  0  0  0  0  0  0  0  0  0
    9.6150  -18.6612   20.3578 C   0  0  2  0  0  0  0  0  0  0  0  0
    9.5045  -19.4110   21.6663 C   0  0  0  0  0  0  0  0  0  0  0  0
    8.5766  -17.5578   20.2845 C   0  0  2  0  0  0  0  0  0  0  0  0
    8.7045  -16.9170   18.9568 N   0  0  0  0  0  0  0  0  0  0  0  0
    8.7578  -16.4994   21.3007 C   0  0  0  0  0  0  0  0  0  0  0  0
    9.8409  -15.8036   21.2945 O   0  0  0  0  0  0  0  0  0  0  0  0
    7.8276  -16.1696   22.3041 N   0  0  0  0  0  0  0  0  0  0  0  0
    8.1787  -15.1576   23.3527 C   0  0  1  0  0  0  0  0  0  0  0  0
    6.9114  -14.4504   23.7348 C   0  0  0  0  0  0  0  0  0  0  0  0
    6.9506  -13.5814   24.9040 C   0  0  0  0  0  0  0  0  0  0  0  0
    6.3212  -13.8693   26.0862 C   0  0  0  0  0  0  0  0  0  0  0  0
    6.3754  -12.9944   27.1772 C   0  0  0  0  0  0  0  0  0  0  0  0
    7.0667  -11.8235   27.0795 C   0  0  0  0  0  0  0  0  0  0  0  0
    7.7068  -11.5224   25.8905 C   0  0  0  0  0  0  0  0  0  0  0  0
    7.6484  -12.3811   24.8320 C   0  0  0  0  0  0  0  0  0  0  0  0
    8.7120  -15.9344   24.4825 C   0  0  0  0  0  0  0  0  0  0  0  0
    8.0015  -16.9287   24.8839 O   0  0  0  0  0  0  0  0  0  0  0  0
    7.0338  -21.4571   28.6453 O   0  0  0  0  0  0  0  0  0  0  0  0
    7.8476  -20.6426   27.8613 C   0  0  0  0  0  0  0  0  0  0  0  0
    9.1612  -20.4187   28.1931 C   0  0  0  0  0  0  0  0  0  0  0  0
    9.9364  -19.6119   27.4009 C   0  0  0  0  0  0  0  0  0  0  0  0
    9.4687  -18.9834   26.2457 C   0  0  0  0  0  0  0  0  0  0  0  0
   10.3343  -18.1024   25.4379 C   0  0  0  0  0  0  0  0  0  0  0  0
   10.3791  -16.7282   26.1090 C   0  0  2  0  0  0  0  0  0  0  0  0
    9.9120  -15.7246   25.1725 N   0  0  0  0  0  0  0  0  0  0  0  0
   11.7207  -16.3944   26.5588 C   0  0  0  0  0  0  0  0  0  0  0  0
   12.1378  -16.6912   27.8336 O   0  0  0  0  0  0  0  0  0  0  0  0
    8.1311  -19.2239   25.9263 C   0  0  0  0  0  0  0  0  0  0  0  0
    7.3623  -20.0345   26.7271 C   0  0  0  0  0  0  0  0  0  0  0  0
   12.5479  -15.8238   25.8078 O   0  0  0  0  0  0  0  0  0  0  0  0
  1  2  1  0
  3  5  1  0
  3  2  1  0
  3  4  1  1
  5  7  1  0
  5  6  1  6
  7  8  2  0
  9 10  1  0
  9  7  1  0
 11 12  1  0
 10 11  1  1
 12 17  2  0
 13 14  2  0
 13 12  1  0
 14 15  1  0
 15 16  2  0
 17 16  1  0
 18 19  2  0
 18 10  1  0
 20 21  1  0
 21 31  2  0
 21 22  1  0
 22 23  2  0
 23 24  1  0
 24 25  1  0
 26 25  1  6
 26 27  1  0
 26 28  1  0
 27 18  1  0
 28 32  2  0
 28 29  1  0
 30 24  2  0
 31 30  1  0
M  END
$$$$
