DHD.pdb
     RDKit          3D

 27 27  0  0  1  0  0  0  0  0999 V2000
    9.5292  -18.8696   18.2418 N   0  0  0  0  0  0  0  0  0  0  0  0
   10.3664  -17.7736   17.8317 C   0  0  1  0  0  0  0  0  0  0  0  0
    9.8911  -17.1207   16.5648 C   0  0  0  0  0  0  0  0  0  0  0  0
   10.6593  -17.6506   15.4086 C   0  0  0  0  0  0  0  0  0  0  0  0
   11.2875  -18.7329   15.5223 O   0  0  0  0  0  0  0  0  0  0  0  0
   10.5871  -16.8577   18.9413 C   0  0  0  0  0  0  0  0  0  0  0  0
   11.5634  -16.0658   18.8821 O   0  0  0  0  0  0  0  0  0  0  0  0
   10.7200  -17.0003   14.1881 O   0  0  0  0  0  0  0  0  0  0  0  0
    9.7912  -16.7681   20.1103 N   0  0  0  0  0  0  0  0  0  0  0  0
   10.0420  -15.8745   21.2101 C   0  0  1  0  0  0  0  0  0  0  0  0
    8.7788  -15.1860   21.6832 C   0  0  0  0  0  0  0  0  0  0  0  0
    8.3158  -14.2723   20.5816 C   0  0  0  0  0  0  0  0  0  0  0  0
    7.1903  -14.3855   19.8030 C   0  0  0  0  0  0  0  0  0  0  0  0
    7.1402  -13.3770   18.9433 N   0  0  0  0  0  0  0  0  0  0  0  0
    8.2233  -12.6328   19.1755 C   0  0  0  0  0  0  0  0  0  0  0  0
    8.9495  -13.1539   20.1614 N   0  0  0  0  0  0  0  0  0  0  0  0
   10.6019  -16.5980   22.3748 C   0  0  0  0  0  0  0  0  0  0  0  0
   10.0519  -17.6833   22.7073 O   0  0  0  0  0  0  0  0  0  0  0  0
   11.7028  -16.1447   23.1178 N   0  0  0  0  0  0  0  0  0  0  0  0
   12.5881  -17.1289   23.7214 C   0  0  1  0  0  0  0  0  0  0  0  0
   13.1941  -18.0108   22.6346 C   0  0  0  0  0  0  0  0  0  0  0  0
   14.1477  -18.9352   23.2801 C   0  0  0  0  0  0  0  0  0  0  0  0
   15.3775  -18.7068   23.1912 O   0  0  0  0  0  0  0  0  0  0  0  0
   13.6021  -16.4205   24.5094 C   0  0  0  0  0  0  0  0  0  0  0  0
   14.0192  -16.8474   25.6133 O   0  0  0  0  0  0  0  0  0  0  0  0
   13.7187  -20.0367   23.9738 O   0  0  0  0  0  0  0  0  0  0  0  0
   14.1439  -15.2391   24.0557 O   0  0  0  0  0  0  0  0  0  0  0  0
  2  1  1  1
  2  3  1  0
  3  4  1  0
  4  5  2  0
  6  2  1  0
  7  6  2  0
  8  4  1  0
  9  6  1  0
 10  9  1  0
 11 12  1  0
 10 11  1  1
 12 13  2  0
 13 14  1  0
 15 14  1  0
 16 12  1  0
 16 15  2  0
 17 10  1  0
 17 18  2  0
 19 17  1  0
 20 21  1  6
 20 19  1  0
 22 21  1  0
 22 26  1  0
 23 22  2  0
 24 20  1  0
 25 24  2  0
 27 24  1  0
M  END
$$$$
