DHD.pdb
     RDKit          3D

 27 27  0  0  1  0  0  0  0  0999 V2000
   10.8982  -17.6777   16.6952 N   0  0  0  0  0  0  0  0  0  0  0  0
   10.1795  -18.1325   17.8559 C   0  0  1  0  0  0  0  0  0  0  0  0
   10.5728  -19.5200   18.2770 C   0  0  0  0  0  0  0  0  0  0  0  0
   10.2272  -20.4871   17.2032 C   0  0  0  0  0  0  0  0  0  0  0  0
    9.3196  -20.2059   16.3810 O   0  0  0  0  0  0  0  0  0  0  0  0
   10.2392  -17.1362   18.9154 C   0  0  0  0  0  0  0  0  0  0  0  0
   11.2841  -16.4445   19.0320 O   0  0  0  0  0  0  0  0  0  0  0  0
   10.8663  -21.7065   17.0590 O   0  0  0  0  0  0  0  0  0  0  0  0
    9.2112  -16.8619   19.8513 N   0  0  0  0  0  0  0  0  0  0  0  0
    9.2885  -15.8708   20.8917 C   0  0  1  0  0  0  0  0  0  0  0  0
    8.0321  -15.0288   20.9699 C   0  0  0  0  0  0  0  0  0  0  0  0
    7.9274  -14.2435   19.6913 C   0  0  0  0  0  0  0  0  0  0  0  0
    8.4068  -12.9838   19.4282 C   0  0  0  0  0  0  0  0  0  0  0  0
    8.1091  -12.6455   18.1809 N   0  0  0  0  0  0  0  0  0  0  0  0
    7.4479  -13.6808   17.6597 C   0  0  0  0  0  0  0  0  0  0  0  0
    7.3256  -14.6590   18.5537 N   0  0  0  0  0  0  0  0  0  0  0  0
    9.4715  -16.4983   22.2207 C   0  0  0  0  0  0  0  0  0  0  0  0
    8.6452  -17.3866   22.5656 O   0  0  0  0  0  0  0  0  0  0  0  0
   10.5076  -16.1614   23.1053 N   0  0  0  0  0  0  0  0  0  0  0  0
   11.1634  -17.2271   23.8476 C   0  0  1  0  0  0  0  0  0  0  0  0
   11.8042  -18.2123   22.8756 C   0  0  0  0  0  0  0  0  0  0  0  0
   12.5096  -19.2385   23.6692 C   0  0  0  0  0  0  0  0  0  0  0  0
   13.6373  -18.9732   24.1492 O   0  0  0  0  0  0  0  0  0  0  0  0
   12.1335  -16.6240   24.7674 C   0  0  0  0  0  0  0  0  0  0  0  0
   12.2343  -16.9750   25.9681 O   0  0  0  0  0  0  0  0  0  0  0  0
   11.9595  -20.4738   23.8926 O   0  0  0  0  0  0  0  0  0  0  0  0
   12.9858  -15.6324   24.3368 O   0  0  0  0  0  0  0  0  0  0  0  0
  2  1  1  6
  2  3  1  0
  3  4  1  0
  4  5  2  0
  6  2  1  0
  7  6  2  0
  8  4  1  0
  9  6  1  0
 10  9  1  0
 11 12  1  0
 10 11  1  1
 12 13  2  0
 13 14  1  0
 15 14  1  0
 16 12  1  0
 16 15  2  0
 17 10  1  0
 17 18  2  0
 19 17  1  0
 20 21  1  6
 20 19  1  0
 22 21  1  0
 22 26  1  0
 23 22  2  0
 24 20  1  0
 25 24  2  0
 27 24  1  0
M  END
$$$$
