DHD.pdb
     RDKit          3D

 27 27  0  0  1  0  0  0  0  0999 V2000
   11.4456  -16.1063   12.6558 N   0  0  0  0  0  0  0  0  0  0  0  0
   11.0112  -16.8759   13.7913 C   0  0  1  0  0  0  0  0  0  0  0  0
   11.7874  -18.1510   13.9611 C   0  0  0  0  0  0  0  0  0  0  0  0
   11.2737  -19.1802   13.0204 C   0  0  0  0  0  0  0  0  0  0  0  0
   10.5404  -18.8349   12.0602 O   0  0  0  0  0  0  0  0  0  0  0  0
   10.9494  -16.0393   14.9808 C   0  0  0  0  0  0  0  0  0  0  0  0
   11.9409  -15.3159   15.2592 O   0  0  0  0  0  0  0  0  0  0  0  0
   11.5672  -20.5268   13.1499 O   0  0  0  0  0  0  0  0  0  0  0  0
    9.8557  -15.9574   15.8780 N   0  0  0  0  0  0  0  0  0  0  0  0
    9.7955  -15.0906   17.0252 C   0  0  1  0  0  0  0  0  0  0  0  0
    8.4085  -15.0447   17.6315 C   0  0  0  0  0  0  0  0  0  0  0  0
    8.4182  -14.0041   18.7176 C   0  0  0  0  0  0  0  0  0  0  0  0
    9.4643  -13.2127   19.1243 C   0  0  0  0  0  0  0  0  0  0  0  0
    9.0670  -12.4227   20.1126 N   0  0  0  0  0  0  0  0  0  0  0  0
    7.7822  -12.7112   20.3293 C   0  0  0  0  0  0  0  0  0  0  0  0
    7.3674  -13.6642   19.4983 N   0  0  0  0  0  0  0  0  0  0  0  0
   10.7183  -15.5437   18.0913 C   0  0  0  0  0  0  0  0  0  0  0  0
   10.7696  -16.7807   18.3322 O   0  0  0  0  0  0  0  0  0  0  0  0
   11.5321  -14.6773   18.8375 N   0  0  0  0  0  0  0  0  0  0  0  0
   12.4530  -15.2499   19.8074 C   0  0  1  0  0  0  0  0  0  0  0  0
   13.6251  -14.2991   20.0277 C   0  0  0  0  0  0  0  0  0  0  0  0
   14.5630  -14.9456   20.9673 C   0  0  0  0  0  0  0  0  0  0  0  0
   14.5234  -16.1906   21.1126 O   0  0  0  0  0  0  0  0  0  0  0  0
   11.7119  -15.5335   21.0408 C   0  0  0  0  0  0  0  0  0  0  0  0
   10.8180  -14.7711   21.4820 O   0  0  0  0  0  0  0  0  0  0  0  0
   15.4755  -14.2157   21.6836 O   0  0  0  0  0  0  0  0  0  0  0  0
   11.9753  -16.6699   21.7719 O   0  0  0  0  0  0  0  0  0  0  0  0
  2  1  1  6
  2  3  1  0
  3  4  1  0
  4  5  2  0
  6  2  1  0
  7  6  2  0
  8  4  1  0
  9  6  1  0
 10  9  1  0
 11 12  1  0
 10 11  1  1
 12 13  2  0
 13 14  1  0
 15 14  1  0
 16 12  1  0
 16 15  2  0
 17 10  1  0
 17 18  2  0
 19 17  1  0
 20 21  1  1
 20 19  1  0
 22 21  1  0
 22 26  1  0
 23 22  2  0
 24 20  1  0
 25 24  2  0
 27 24  1  0
M  END
$$$$
