DHD.pdb
     RDKit          3D

 27 27  0  0  1  0  0  0  0  0999 V2000
   10.2455  -17.2329   16.1189 N   0  0  0  0  0  0  0  0  0  0  0  0
   10.7892  -15.9607   15.7236 C   0  0  1  0  0  0  0  0  0  0  0  0
    9.9478  -15.2635   14.6925 C   0  0  0  0  0  0  0  0  0  0  0  0
    9.5745  -16.2205   13.6188 C   0  0  0  0  0  0  0  0  0  0  0  0
    9.9587  -17.4148   13.6888 O   0  0  0  0  0  0  0  0  0  0  0  0
   11.1065  -15.1559   16.8941 C   0  0  0  0  0  0  0  0  0  0  0  0
   11.7654  -14.0957   16.7341 O   0  0  0  0  0  0  0  0  0  0  0  0
    8.8102  -15.8568   12.5236 O   0  0  0  0  0  0  0  0  0  0  0  0
   10.7374  -15.4564   18.2289 N   0  0  0  0  0  0  0  0  0  0  0  0
   11.1752  -14.7248   19.3882 C   0  0  1  0  0  0  0  0  0  0  0  0
   10.0863  -14.6128   20.4348 C   0  0  0  0  0  0  0  0  0  0  0  0
    8.9237  -13.8913   19.8100 C   0  0  0  0  0  0  0  0  0  0  0  0
    8.7577  -12.5388   19.6393 C   0  0  0  0  0  0  0  0  0  0  0  0
    7.5949  -12.3042   19.0464 N   0  0  0  0  0  0  0  0  0  0  0  0
    7.0305  -13.4963   18.8438 C   0  0  0  0  0  0  0  0  0  0  0  0
    7.8148  -14.4712   19.2970 N   0  0  0  0  0  0  0  0  0  0  0  0
   12.3314  -15.3851   20.0367 C   0  0  0  0  0  0  0  0  0  0  0  0
   12.3696  -16.6457   20.0181 O   0  0  0  0  0  0  0  0  0  0  0  0
   13.3771  -14.6881   20.6614 N   0  0  0  0  0  0  0  0  0  0  0  0
   14.4869  -15.4481   21.2158 C   0  0  1  0  0  0  0  0  0  0  0  0
   15.7802  -14.6535   21.0667 C   0  0  0  0  0  0  0  0  0  0  0  0
   16.1378  -14.6340   19.6341 C   0  0  0  0  0  0  0  0  0  0  0  0
   16.0149  -15.6830   18.9580 O   0  0  0  0  0  0  0  0  0  0  0  0
   14.1768  -15.7719   22.6122 C   0  0  0  0  0  0  0  0  0  0  0  0
   14.9366  -16.4676   23.3289 O   0  0  0  0  0  0  0  0  0  0  0  0
   16.6007  -13.4956   19.0273 O   0  0  0  0  0  0  0  0  0  0  0  0
   13.0184  -15.3135   23.1980 O   0  0  0  0  0  0  0  0  0  0  0  0
  2  1  1  1
  2  3  1  0
  3  4  1  0
  4  5  2  0
  6  2  1  0
  7  6  2  0
  8  4  1  0
  9  6  1  0
 10  9  1  0
 11 12  1  0
 10 11  1  1
 12 13  2  0
 13 14  1  0
 15 14  1  0
 16 12  1  0
 16 15  2  0
 17 10  1  0
 17 18  2  0
 19 17  1  0
 20 21  1  1
 20 19  1  0
 22 21  1  0
 22 26  1  0
 23 22  2  0
 24 20  1  0
 25 24  2  0
 27 24  1  0
M  END
$$$$
