DHD.pdb
     RDKit          3D

 27 27  0  0  1  0  0  0  0  0999 V2000
   10.0557  -19.0167   20.5253 N   0  0  0  0  0  0  0  0  0  0  0  0
   11.0561  -18.0509   20.8953 C   0  0  1  0  0  0  0  0  0  0  0  0
   11.4669  -17.1705   19.7493 C   0  0  0  0  0  0  0  0  0  0  0  0
   11.8032  -18.0079   18.5688 C   0  0  0  0  0  0  0  0  0  0  0  0
   12.2584  -19.1669   18.7375 O   0  0  0  0  0  0  0  0  0  0  0  0
   10.6540  -17.3353   22.0974 C   0  0  0  0  0  0  0  0  0  0  0  0
   11.4895  -16.5750   22.6522 O   0  0  0  0  0  0  0  0  0  0  0  0
   11.6377  -17.5682   17.2667 O   0  0  0  0  0  0  0  0  0  0  0  0
    9.3832  -17.4126   22.7195 N   0  0  0  0  0  0  0  0  0  0  0  0
    9.0180  -16.7301   23.9327 C   0  0  1  0  0  0  0  0  0  0  0  0
    7.6530  -16.0820   23.8319 C   0  0  0  0  0  0  0  0  0  0  0  0
    7.7018  -15.0852   22.7065 C   0  0  0  0  0  0  0  0  0  0  0  0
    8.0156  -13.7497   22.7696 C   0  0  0  0  0  0  0  0  0  0  0  0
    7.9446  -13.2178   21.5569 N   0  0  0  0  0  0  0  0  0  0  0  0
    7.5893  -14.2067   20.7344 C   0  0  0  0  0  0  0  0  0  0  0  0
    7.4366  -15.3453   21.4061 N   0  0  0  0  0  0  0  0  0  0  0  0
    8.9695  -17.6632   25.0817 C   0  0  0  0  0  0  0  0  0  0  0  0
    8.4860  -18.8109   24.8818 O   0  0  0  0  0  0  0  0  0  0  0  0
    9.4316  -17.3409   26.3671 N   0  0  0  0  0  0  0  0  0  0  0  0
    9.8850  -18.4176   27.2342 C   0  0  1  0  0  0  0  0  0  0  0  0
   11.0161  -19.1832   26.5554 C   0  0  0  0  0  0  0  0  0  0  0  0
   11.4877  -20.2216   27.4934 C   0  0  0  0  0  0  0  0  0  0  0  0
   12.5232  -20.0118   28.1689 O   0  0  0  0  0  0  0  0  0  0  0  0
   10.2826  -17.8407   28.5226 C   0  0  0  0  0  0  0  0  0  0  0  0
   10.4079  -16.6045   28.6991 O   0  0  0  0  0  0  0  0  0  0  0  0
   10.8193  -21.4089   27.6420 O   0  0  0  0  0  0  0  0  0  0  0  0
   10.5363  -18.6514   29.6059 O   0  0  0  0  0  0  0  0  0  0  0  0
  2  1  1  6
  2  3  1  0
  3  4  1  0
  4  5  2  0
  6  2  1  0
  7  6  2  0
  8  4  1  0
  9  6  1  0
 10  9  1  0
 11 12  1  0
 10 11  1  6
 12 13  2  0
 13 14  1  0
 15 14  1  0
 16 12  1  0
 16 15  2  0
 17 10  1  0
 17 18  2  0
 19 17  1  0
 20 21  1  6
 20 19  1  0
 22 21  1  0
 22 26  1  0
 23 22  2  0
 24 20  1  0
 25 24  2  0
 27 24  1  0
M  END
$$$$
