DHD.pdb
     RDKit          3D

 27 27  0  0  1  0  0  0  0  0999 V2000
   11.2229  -17.1659   16.2399 N   0  0  0  0  0  0  0  0  0  0  0  0
   12.3642  -16.3101   16.4289 C   0  0  1  0  0  0  0  0  0  0  0  0
   12.5906  -15.3785   15.2722 C   0  0  0  0  0  0  0  0  0  0  0  0
   12.4907  -16.1311   13.9949 C   0  0  0  0  0  0  0  0  0  0  0  0
   12.4782  -17.3875   14.0123 O   0  0  0  0  0  0  0  0  0  0  0  0
   12.3040  -15.6599   17.7299 C   0  0  0  0  0  0  0  0  0  0  0  0
   13.2549  -14.9097   18.0715 O   0  0  0  0  0  0  0  0  0  0  0  0
   12.4091  -15.5070   12.7620 O   0  0  0  0  0  0  0  0  0  0  0  0
   11.2543  -15.7922   18.6725 N   0  0  0  0  0  0  0  0  0  0  0  0
   11.2157  -15.1450   19.9573 C   0  0  1  0  0  0  0  0  0  0  0  0
    9.8257  -15.1563   20.5584 C   0  0  0  0  0  0  0  0  0  0  0  0
    8.9987  -14.1413   19.8178 C   0  0  0  0  0  0  0  0  0  0  0  0
    9.3986  -13.2875   18.8192 C   0  0  0  0  0  0  0  0  0  0  0  0
    8.3698  -12.5484   18.4267 N   0  0  0  0  0  0  0  0  0  0  0  0
    7.3291  -12.9306   19.1693 C   0  0  0  0  0  0  0  0  0  0  0  0
    7.6845  -13.8924   20.0176 N   0  0  0  0  0  0  0  0  0  0  0  0
   12.1110  -15.8179   20.9263 C   0  0  0  0  0  0  0  0  0  0  0  0
   12.3170  -17.0525   20.7708 O   0  0  0  0  0  0  0  0  0  0  0  0
   12.7376  -15.1592   21.9954 N   0  0  0  0  0  0  0  0  0  0  0  0
   13.8140  -15.8407   22.6982 C   0  0  1  0  0  0  0  0  0  0  0  0
   14.9520  -14.8621   22.9693 C   0  0  0  0  0  0  0  0  0  0  0  0
   16.0018  -15.5832   23.7167 C   0  0  0  0  0  0  0  0  0  0  0  0
   15.6715  -16.5003   24.5055 O   0  0  0  0  0  0  0  0  0  0  0  0
   13.2678  -16.4308   23.9247 C   0  0  0  0  0  0  0  0  0  0  0  0
   13.7075  -17.4996   24.4138 O   0  0  0  0  0  0  0  0  0  0  0  0
   17.3283  -15.2725   23.5674 O   0  0  0  0  0  0  0  0  0  0  0  0
   12.2333  -15.8198   24.5968 O   0  0  0  0  0  0  0  0  0  0  0  0
  2  1  1  6
  2  3  1  0
  3  4  1  0
  4  5  2  0
  6  2  1  0
  7  6  2  0
  8  4  1  0
  9  6  1  0
 10  9  1  0
 11 12  1  0
 10 11  1  1
 12 13  2  0
 13 14  1  0
 15 14  1  0
 16 12  1  0
 16 15  2  0
 17 10  1  0
 17 18  2  0
 19 17  1  0
 20 21  1  1
 20 19  1  0
 22 21  1  0
 22 26  1  0
 23 22  2  0
 24 20  1  0
 25 24  2  0
 27 24  1  0
M  END
$$$$
