DHD.pdb
     RDKit          3D

 27 27  0  0  1  0  0  0  0  0999 V2000
    9.3907  -16.4625   17.7083 N   0  0  0  0  0  0  0  0  0  0  0  0
    9.7073  -17.3983   18.7544 C   0  0  1  0  0  0  0  0  0  0  0  0
   10.9640  -18.1745   18.4800 C   0  0  0  0  0  0  0  0  0  0  0  0
   10.8043  -18.9625   17.2304 C   0  0  0  0  0  0  0  0  0  0  0  0
    9.6733  -19.0490   16.6896 O   0  0  0  0  0  0  0  0  0  0  0  0
    9.6695  -16.7428   20.0535 C   0  0  0  0  0  0  0  0  0  0  0  0
   10.7582  -16.4989   20.6357 O   0  0  0  0  0  0  0  0  0  0  0  0
   11.8583  -19.6193   16.6190 O   0  0  0  0  0  0  0  0  0  0  0  0
    8.4985  -16.3426   20.7439 N   0  0  0  0  0  0  0  0  0  0  0  0
    8.4793  -15.7372   22.0493 C   0  0  1  0  0  0  0  0  0  0  0  0
    7.0714  -15.4214   22.5093 C   0  0  0  0  0  0  0  0  0  0  0  0
    7.1692  -14.7381   23.8457 C   0  0  0  0  0  0  0  0  0  0  0  0
    8.3004  -14.4422   24.5660 C   0  0  0  0  0  0  0  0  0  0  0  0
    7.9628  -13.8364   25.6964 N   0  0  0  0  0  0  0  0  0  0  0  0
    6.6312  -13.7497   25.6917 C   0  0  0  0  0  0  0  0  0  0  0  0
    6.1287  -14.2880   24.5832 N   0  0  0  0  0  0  0  0  0  0  0  0
    9.0755  -16.6329   23.0670 C   0  0  0  0  0  0  0  0  0  0  0  0
    8.6762  -17.8289   23.0979 O   0  0  0  0  0  0  0  0  0  0  0  0
   10.0536  -16.2247   23.9870 N   0  0  0  0  0  0  0  0  0  0  0  0
   10.5820  -17.2057   24.9225 C   0  0  1  0  0  0  0  0  0  0  0  0
   11.9632  -17.6621   24.4641 C   0  0  0  0  0  0  0  0  0  0  0  0
   12.8360  -16.4726   24.4009 C   0  0  0  0  0  0  0  0  0  0  0  0
   13.3031  -15.9988   25.4639 O   0  0  0  0  0  0  0  0  0  0  0  0
   10.5963  -16.6096   26.2624 C   0  0  0  0  0  0  0  0  0  0  0  0
   10.3271  -15.4010   26.4667 O   0  0  0  0  0  0  0  0  0  0  0  0
   13.1468  -15.8754   23.2071 O   0  0  0  0  0  0  0  0  0  0  0  0
   10.9106  -17.3708   27.3655 O   0  0  0  0  0  0  0  0  0  0  0  0
  2  1  1  6
  2  3  1  0
  3  4  1  0
  4  5  2  0
  6  2  1  0
  7  6  2  0
  8  4  1  0
  9  6  1  0
 10  9  1  0
 11 12  1  0
 10 11  1  1
 12 13  2  0
 13 14  1  0
 15 14  1  0
 16 12  1  0
 16 15  2  0
 17 10  1  0
 17 18  2  0
 19 17  1  0
 20 21  1  6
 20 19  1  0
 22 21  1  0
 22 26  1  0
 23 22  2  0
 24 20  1  0
 25 24  2  0
 27 24  1  0
M  END
$$$$
