DHD.pdb
     RDKit          3D

 27 27  0  0  1  0  0  0  0  0999 V2000
   10.6672  -19.2179   17.8714 N   0  0  0  0  0  0  0  0  0  0  0  0
    9.5408  -18.5723   18.4918 C   0  0  1  0  0  0  0  0  0  0  0  0
    8.5488  -19.5491   19.0565 C   0  0  0  0  0  0  0  0  0  0  0  0
    7.4245  -19.7308   18.1021 C   0  0  0  0  0  0  0  0  0  0  0  0
    6.2419  -19.5735   18.4966 O   0  0  0  0  0  0  0  0  0  0  0  0
    9.9898  -17.5525   19.4283 C   0  0  0  0  0  0  0  0  0  0  0  0
   11.2195  -17.2915   19.4890 O   0  0  0  0  0  0  0  0  0  0  0  0
    7.6166  -20.0711   16.7742 O   0  0  0  0  0  0  0  0  0  0  0  0
    9.1580  -16.8064   20.2997 N   0  0  0  0  0  0  0  0  0  0  0  0
    9.6170  -15.7777   21.1953 C   0  0  1  0  0  0  0  0  0  0  0  0
    8.4961  -14.8527   21.6214 C   0  0  0  0  0  0  0  0  0  0  0  0
    8.1491  -13.9822   20.4448 C   0  0  0  0  0  0  0  0  0  0  0  0
    8.7905  -13.8988   19.2334 C   0  0  0  0  0  0  0  0  0  0  0  0
    8.1743  -13.0121   18.4634 N   0  0  0  0  0  0  0  0  0  0  0  0
    7.1531  -12.5389   19.1803 C   0  0  0  0  0  0  0  0  0  0  0  0
    7.1172  -13.1103   20.3817 N   0  0  0  0  0  0  0  0  0  0  0  0
   10.1925  -16.3569   22.4309 C   0  0  0  0  0  0  0  0  0  0  0  0
    9.4209  -17.0135   23.1822 O   0  0  0  0  0  0  0  0  0  0  0  0
   11.5383  -16.2170   22.8034 N   0  0  0  0  0  0  0  0  0  0  0  0
   12.0711  -17.0974   23.8319 C   0  0  1  0  0  0  0  0  0  0  0  0
   11.8455  -18.5518   23.4317 C   0  0  0  0  0  0  0  0  0  0  0  0
   12.5040  -19.4068   24.4396 C   0  0  0  0  0  0  0  0  0  0  0  0
   12.1315  -19.3419   25.6352 O   0  0  0  0  0  0  0  0  0  0  0  0
   13.4882  -16.7760   24.0304 C   0  0  0  0  0  0  0  0  0  0  0  0
   14.2168  -17.4045   24.8360 O   0  0  0  0  0  0  0  0  0  0  0  0
   13.5127  -20.2693   24.0975 O   0  0  0  0  0  0  0  0  0  0  0  0
   14.0811  -15.7536   23.3246 O   0  0  0  0  0  0  0  0  0  0  0  0
  2  1  1  1
  2  3  1  0
  3  4  1  0
  4  5  2  0
  6  2  1  0
  7  6  2  0
  8  4  1  0
  9  6  1  0
 10  9  1  0
 11 12  1  0
 10 11  1  1
 12 13  2  0
 13 14  1  0
 15 14  1  0
 16 12  1  0
 16 15  2  0
 17 10  1  0
 17 18  2  0
 19 17  1  0
 20 21  1  6
 20 19  1  0
 22 21  1  0
 22 26  1  0
 23 22  2  0
 24 20  1  0
 25 24  2  0
 27 24  1  0
M  END
$$$$
