DHD.pdb
     RDKit          3D

 27 27  0  0  1  0  0  0  0  0999 V2000
   15.1089  -14.3296   16.4505 N   0  0  0  0  0  0  0  0  0  0  0  0
   13.9980  -15.2355   16.5761 C   0  0  1  0  0  0  0  0  0  0  0  0
   14.4285  -16.6680   16.7160 C   0  0  0  0  0  0  0  0  0  0  0  0
   15.0823  -17.1204   15.4607 C   0  0  0  0  0  0  0  0  0  0  0  0
   14.5972  -16.7858   14.3509 O   0  0  0  0  0  0  0  0  0  0  0  0
   13.0779  -14.7743   17.6053 C   0  0  0  0  0  0  0  0  0  0  0  0
   13.5543  -14.3164   18.6763 O   0  0  0  0  0  0  0  0  0  0  0  0
   16.2212  -17.9072   15.4506 O   0  0  0  0  0  0  0  0  0  0  0  0
   11.6637  -14.7906   17.5175 N   0  0  0  0  0  0  0  0  0  0  0  0
   10.7691  -14.3934   18.5725 C   0  0  1  0  0  0  0  0  0  0  0  0
    9.3466  -14.2276   18.0798 C   0  0  0  0  0  0  0  0  0  0  0  0
    8.5114  -13.7635   19.2415 C   0  0  0  0  0  0  0  0  0  0  0  0
    8.2811  -12.4757   19.6593 C   0  0  0  0  0  0  0  0  0  0  0  0
    7.4893  -12.4875   20.7231 N   0  0  0  0  0  0  0  0  0  0  0  0
    7.2210  -13.7699   20.9761 C   0  0  0  0  0  0  0  0  0  0  0  0
    7.8277  -14.5603   20.0940 N   0  0  0  0  0  0  0  0  0  0  0  0
   10.7358  -15.4004   19.6579 C   0  0  0  0  0  0  0  0  0  0  0  0
   10.9336  -16.6055   19.3425 O   0  0  0  0  0  0  0  0  0  0  0  0
   10.5011  -15.0859   21.0054 N   0  0  0  0  0  0  0  0  0  0  0  0
   10.9058  -16.0425   22.0242 C   0  0  1  0  0  0  0  0  0  0  0  0
   12.4218  -16.0088   22.1883 C   0  0  0  0  0  0  0  0  0  0  0  0
   12.7809  -16.9404   23.2764 C   0  0  0  0  0  0  0  0  0  0  0  0
   12.0906  -17.9725   23.4515 O   0  0  0  0  0  0  0  0  0  0  0  0
   10.1927  -15.7279   23.2666 C   0  0  0  0  0  0  0  0  0  0  0  0
   10.3821  -16.3618   24.3330 O   0  0  0  0  0  0  0  0  0  0  0  0
   13.8513  -16.7021   24.0985 O   0  0  0  0  0  0  0  0  0  0  0  0
    9.2727  -14.7046   23.3075 O   0  0  0  0  0  0  0  0  0  0  0  0
  2  1  1  1
  2  3  1  0
  3  4  1  0
  4  5  2  0
  6  2  1  0
  7  6  2  0
  8  4  1  0
  9  6  1  0
 10  9  1  0
 11 12  1  0
 10 11  1  6
 12 13  2  0
 13 14  1  0
 15 14  1  0
 16 12  1  0
 16 15  2  0
 17 10  1  0
 17 18  2  0
 19 17  1  0
 20 21  1  1
 20 19  1  0
 22 21  1  0
 22 26  1  0
 23 22  2  0
 24 20  1  0
 25 24  2  0
 27 24  1  0
M  END
$$$$
