DHD.pdb
     RDKit          3D

 27 27  0  0  1  0  0  0  0  0999 V2000
   10.9538  -18.8270   19.2567 N   0  0  0  0  0  0  0  0  0  0  0  0
   10.1744  -17.6312   19.4382 C   0  0  1  0  0  0  0  0  0  0  0  0
    8.7089  -17.8485   19.1888 C   0  0  0  0  0  0  0  0  0  0  0  0
    8.3527  -19.2595   19.4889 C   0  0  0  0  0  0  0  0  0  0  0  0
    8.9640  -20.1922   18.9100 O   0  0  0  0  0  0  0  0  0  0  0  0
   10.4874  -17.0076   20.7157 C   0  0  0  0  0  0  0  0  0  0  0  0
   11.6678  -17.0786   21.1462 O   0  0  0  0  0  0  0  0  0  0  0  0
    7.3622  -19.6063   20.3916 O   0  0  0  0  0  0  0  0  0  0  0  0
    9.5710  -16.3114   21.5424 N   0  0  0  0  0  0  0  0  0  0  0  0
    9.8749  -15.7858   22.8472 C   0  0  1  0  0  0  0  0  0  0  0  0
    9.3416  -14.3805   23.0328 C   0  0  0  0  0  0  0  0  0  0  0  0
    8.5486  -14.0263   21.8047 C   0  0  0  0  0  0  0  0  0  0  0  0
    8.3501  -14.7831   20.6760 C   0  0  0  0  0  0  0  0  0  0  0  0
    7.5905  -14.1140   19.8192 N   0  0  0  0  0  0  0  0  0  0  0  0
    7.3110  -12.9454   20.3997 C   0  0  0  0  0  0  0  0  0  0  0  0
    7.8791  -12.8690   21.6007 N   0  0  0  0  0  0  0  0  0  0  0  0
    9.2778  -16.6192   23.9159 C   0  0  0  0  0  0  0  0  0  0  0  0
    8.3832  -17.4434   23.5823 O   0  0  0  0  0  0  0  0  0  0  0  0
    9.6540  -16.5422   25.2658 N   0  0  0  0  0  0  0  0  0  0  0  0
    9.9875  -17.7727   25.9668 C   0  0  1  0  0  0  0  0  0  0  0  0
   11.0391  -18.5457   25.1777 C   0  0  0  0  0  0  0  0  0  0  0  0
   11.3765  -19.7627   25.9430 C   0  0  0  0  0  0  0  0  0  0  0  0
   10.4587  -20.5473   26.2814 O   0  0  0  0  0  0  0  0  0  0  0  0
   10.4321  -17.4298   27.3217 C   0  0  0  0  0  0  0  0  0  0  0  0
   11.3151  -16.5664   27.5445 O   0  0  0  0  0  0  0  0  0  0  0  0
   12.6698  -20.0535   26.2914 O   0  0  0  0  0  0  0  0  0  0  0  0
    9.8842  -18.0551   28.4190 O   0  0  0  0  0  0  0  0  0  0  0  0
  2  1  1  1
  2  3  1  0
  3  4  1  0
  4  5  2  0
  6  2  1  0
  7  6  2  0
  8  4  1  0
  9  6  1  0
 10  9  1  0
 11 12  1  0
 10 11  1  6
 12 13  2  0
 13 14  1  0
 15 14  1  0
 16 12  1  0
 16 15  2  0
 17 10  1  0
 17 18  2  0
 19 17  1  0
 20 21  1  6
 20 19  1  0
 22 21  1  0
 22 26  1  0
 23 22  2  0
 24 20  1  0
 25 24  2  0
 27 24  1  0
M  END
$$$$
