DHD.pdb
     RDKit          3D

 27 27  0  0  1  0  0  0  0  0999 V2000
   10.4373  -16.6574   15.9693 N   0  0  0  0  0  0  0  0  0  0  0  0
   10.8648  -17.4791   17.0704 C   0  0  1  0  0  0  0  0  0  0  0  0
   12.1466  -18.2099   16.7875 C   0  0  0  0  0  0  0  0  0  0  0  0
   12.0161  -18.9814   15.5243 C   0  0  0  0  0  0  0  0  0  0  0  0
   11.0643  -19.7897   15.3844 O   0  0  0  0  0  0  0  0  0  0  0  0
   10.8622  -16.7140   18.3087 C   0  0  0  0  0  0  0  0  0  0  0  0
   11.7115  -15.7961   18.4500 O   0  0  0  0  0  0  0  0  0  0  0  0
   12.9068  -18.8528   14.4725 O   0  0  0  0  0  0  0  0  0  0  0  0
    9.9756  -16.9059   19.3973 N   0  0  0  0  0  0  0  0  0  0  0  0
    9.9457  -16.0965   20.5868 C   0  0  1  0  0  0  0  0  0  0  0  0
    8.5307  -15.7845   21.0272 C   0  0  0  0  0  0  0  0  0  0  0  0
    7.9643  -14.7757   20.0659 C   0  0  0  0  0  0  0  0  0  0  0  0
    7.1772  -15.0036   18.9638 C   0  0  0  0  0  0  0  0  0  0  0  0
    6.8862  -13.8498   18.3782 N   0  0  0  0  0  0  0  0  0  0  0  0
    7.4831  -12.9012   19.1025 C   0  0  0  0  0  0  0  0  0  0  0  0
    8.1409  -13.4363   20.1280 N   0  0  0  0  0  0  0  0  0  0  0  0
   10.6102  -16.7801   21.7201 C   0  0  0  0  0  0  0  0  0  0  0  0
   10.7088  -18.0364   21.6673 O   0  0  0  0  0  0  0  0  0  0  0  0
   11.1328  -16.1091   22.8365 N   0  0  0  0  0  0  0  0  0  0  0  0
   11.9730  -16.8509   23.7642 C   0  0  1  0  0  0  0  0  0  0  0  0
   13.3922  -16.2933   23.7317 C   0  0  0  0  0  0  0  0  0  0  0  0
   14.2096  -17.0780   24.6786 C   0  0  0  0  0  0  0  0  0  0  0  0
   13.7497  -18.1479   25.1438 O   0  0  0  0  0  0  0  0  0  0  0  0
   11.3660  -16.7826   25.0975 C   0  0  0  0  0  0  0  0  0  0  0  0
   10.4961  -15.9303   25.4006 O   0  0  0  0  0  0  0  0  0  0  0  0
   15.4589  -16.6632   25.0602 O   0  0  0  0  0  0  0  0  0  0  0  0
   11.7359  -17.6698   26.0830 O   0  0  0  0  0  0  0  0  0  0  0  0
  2  1  1  6
  2  3  1  0
  3  4  1  0
  4  5  2  0
  6  2  1  0
  7  6  2  0
  8  4  1  0
  9  6  1  0
 10  9  1  0
 11 12  1  0
 10 11  1  1
 12 13  2  0
 13 14  1  0
 15 14  1  0
 16 12  1  0
 16 15  2  0
 17 10  1  0
 17 18  2  0
 19 17  1  0
 20 21  1  1
 20 19  1  0
 22 21  1  0
 22 26  1  0
 23 22  2  0
 24 20  1  0
 25 24  2  0
 27 24  1  0
M  END
$$$$
