DHD.pdb
     RDKit          3D

 27 27  0  0  1  0  0  0  0  0999 V2000
   15.5085  -14.5555   15.7636 N   0  0  0  0  0  0  0  0  0  0  0  0
   14.3049  -15.3396   15.8480 C   0  0  1  0  0  0  0  0  0  0  0  0
   14.5760  -16.8156   15.9193 C   0  0  0  0  0  0  0  0  0  0  0  0
   15.5134  -17.2065   14.8347 C   0  0  0  0  0  0  0  0  0  0  0  0
   15.2439  -16.9122   13.6432 O   0  0  0  0  0  0  0  0  0  0  0  0
   13.4369  -14.8298   16.8994 C   0  0  0  0  0  0  0  0  0  0  0  0
   13.9580  -14.2011   17.8570 O   0  0  0  0  0  0  0  0  0  0  0  0
   16.6920  -17.8921   15.0740 O   0  0  0  0  0  0  0  0  0  0  0  0
   12.0284  -14.9755   16.9519 N   0  0  0  0  0  0  0  0  0  0  0  0
   11.1986  -14.5604   18.0519 C   0  0  1  0  0  0  0  0  0  0  0  0
    9.7249  -14.7381   17.7515 C   0  0  0  0  0  0  0  0  0  0  0  0
    8.9496  -14.1043   18.8739 C   0  0  0  0  0  0  0  0  0  0  0  0
    9.4380  -13.4915   20.0016 C   0  0  0  0  0  0  0  0  0  0  0  0
    8.4292  -13.0614   20.7472 N   0  0  0  0  0  0  0  0  0  0  0  0
    7.3132  -13.3985   20.0978 C   0  0  0  0  0  0  0  0  0  0  0  0
    7.6021  -14.0300   18.9626 N   0  0  0  0  0  0  0  0  0  0  0  0
   11.4887  -15.3476   19.2723 C   0  0  0  0  0  0  0  0  0  0  0  0
   11.6644  -16.5894   19.1380 O   0  0  0  0  0  0  0  0  0  0  0  0
   11.5804  -14.7888   20.5564 N   0  0  0  0  0  0  0  0  0  0  0  0
   12.0910  -15.6144   21.6402 C   0  0  1  0  0  0  0  0  0  0  0  0
   13.3886  -15.0170   22.1746 C   0  0  0  0  0  0  0  0  0  0  0  0
   13.9154  -15.9292   23.2094 C   0  0  0  0  0  0  0  0  0  0  0  0
   13.4458  -17.0884   23.3003 O   0  0  0  0  0  0  0  0  0  0  0  0
   11.0513  -15.7268   22.6684 C   0  0  0  0  0  0  0  0  0  0  0  0
   10.0973  -14.9161   22.7556 O   0  0  0  0  0  0  0  0  0  0  0  0
   14.9056  -15.5374   24.0722 O   0  0  0  0  0  0  0  0  0  0  0  0
   11.0855  -16.7471   23.5919 O   0  0  0  0  0  0  0  0  0  0  0  0
  2  1  1  1
  2  3  1  0
  3  4  1  0
  4  5  2  0
  6  2  1  0
  7  6  2  0
  8  4  1  0
  9  6  1  0
 10  9  1  0
 11 12  1  0
 10 11  1  6
 12 13  2  0
 13 14  1  0
 15 14  1  0
 16 12  1  0
 16 15  2  0
 17 10  1  0
 17 18  2  0
 19 17  1  0
 20 21  1  1
 20 19  1  0
 22 21  1  0
 22 26  1  0
 23 22  2  0
 24 20  1  0
 25 24  2  0
 27 24  1  0
M  END
$$$$
