PPC.pdb
     RDKit          3D

 21 22  0  0  1  0  0  0  0  0999 V2000
   19.1197  -12.4818  -16.4740 N   0  0  0  0  0  0  0  0  0  0  0  0
   18.0948  -13.4804  -16.1051 C   0  0  0  0  0  0  0  0  0  0  0  0
   17.5178  -12.8909  -14.8230 C   0  0  0  0  0  0  0  0  0  0  0  0
   17.9236  -11.4155  -14.8428 C   0  0  0  0  0  0  0  0  0  0  0  0
   18.3797  -11.2745  -16.2863 C   0  0  1  0  0  0  0  0  0  0  0  0
   19.0704  -10.0207  -16.5745 C   0  0  0  0  0  0  0  0  0  0  0  0
   20.3040   -9.9720  -16.2601 O   0  0  0  0  0  0  0  0  0  0  0  0
   18.4601   -8.9129  -17.1577 N   0  0  0  0  0  0  0  0  0  0  0  0
   17.1498   -8.8458  -17.7539 C   0  0  0  0  0  0  0  0  0  0  0  0
   16.8188   -7.3532  -17.8958 C   0  0  0  0  0  0  0  0  0  0  0  0
   18.1651   -6.6652  -17.9178 C   0  0  0  0  0  0  0  0  0  0  0  0
   19.1159   -7.5933  -17.2317 C   0  0  1  0  0  0  0  0  0  0  0  0
   19.4746   -7.1017  -15.8893 C   0  0  0  0  0  0  0  0  0  0  0  0
   18.7228   -7.3442  -14.9107 O   0  0  0  0  0  0  0  0  0  0  0  0
   20.6408   -6.3595  -15.6463 N   0  0  0  0  0  0  0  0  0  0  0  0
   21.0828   -5.8357  -14.4080 C   0  0  1  0  0  0  0  0  0  0  0  0
   22.3328   -6.4547  -13.8606 C   0  0  0  0  0  0  0  0  0  0  0  0
   22.6950   -5.6295  -12.2811 S   0  0  0  0  0  0  0  0  0  0  0  0
   21.3083   -4.3810  -14.5305 C   0  0  0  0  0  0  0  0  0  0  0  0
   21.7571   -3.7704  -15.6908 O   0  0  0  0  0  0  0  0  0  0  0  0
   21.0849   -3.6512  -13.5387 O   0  0  0  0  0  0  0  0  0  0  0  0
  2  1  1  0
  3  2  1  0
  4  3  1  0
  4  5  1  0
  5  1  1  0
  6  8  1  0
  5  6  1  1
  7  6  2  0
  8 12  1  0
  9  8  1  0
 10  9  1  0
 10 11  1  0
 11 12  1  0
 12 13  1  1
 13 15  1  0
 13 14  2  0
 15 16  1  0
 16 17  1  6
 17 18  1  0
 19 16  1  0
 19 20  1  0
 21 19  2  0
M  END
$$$$
