PPC.pdb
     RDKit          3D

 21 22  0  0  1  0  0  0  0  0999 V2000
   27.8132  -20.4122  -15.5232 N   0  0  0  0  0  0  0  0  0  0  0  0
   28.8737  -19.4147  -15.7765 C   0  0  0  0  0  0  0  0  0  0  0  0
   28.2120  -18.1188  -15.3215 C   0  0  0  0  0  0  0  0  0  0  0  0
   27.0474  -18.5557  -14.4299 C   0  0  0  0  0  0  0  0  0  0  0  0
   27.3996  -20.0188  -14.2138 C   0  0  1  0  0  0  0  0  0  0  0  0
   26.3376  -20.8027  -13.5894 C   0  0  0  0  0  0  0  0  0  0  0  0
   25.7080  -21.6062  -14.3517 O   0  0  0  0  0  0  0  0  0  0  0  0
   25.9939  -20.7130  -12.2427 N   0  0  0  0  0  0  0  0  0  0  0  0
   26.7784  -20.1501  -11.1728 C   0  0  0  0  0  0  0  0  0  0  0  0
   25.8164  -19.9551   -9.9921 C   0  0  0  0  0  0  0  0  0  0  0  0
   24.6966  -20.9387  -10.2469 C   0  0  0  0  0  0  0  0  0  0  0  0
   24.7049  -21.2037  -11.7186 C   0  0  1  0  0  0  0  0  0  0  0  0
   23.5715  -20.5438  -12.3913 C   0  0  0  0  0  0  0  0  0  0  0  0
   23.5952  -19.3018  -12.5876 O   0  0  0  0  0  0  0  0  0  0  0  0
   22.4426  -21.2515  -12.8326 N   0  0  0  0  0  0  0  0  0  0  0  0
   21.3580  -20.7508  -13.5916 C   0  0  1  0  0  0  0  0  0  0  0  0
   21.1658  -21.3907  -14.9328 C   0  0  0  0  0  0  0  0  0  0  0  0
   19.7870  -20.5294  -15.7475 S   0  0  0  0  0  0  0  0  0  0  0  0
   20.1015  -20.8994  -12.8294 C   0  0  0  0  0  0  0  0  0  0  0  0
   19.1587  -19.8916  -12.7027 O   0  0  0  0  0  0  0  0  0  0  0  0
   19.8657  -21.9904  -12.2635 O   0  0  0  0  0  0  0  0  0  0  0  0
  2  1  1  0
  3  2  1  0
  4  3  1  0
  4  5  1  0
  5  1  1  0
  6  8  1  0
  5  6  1  6
  7  6  2  0
  8 12  1  0
  9  8  1  0
 10  9  1  0
 10 11  1  0
 11 12  1  0
 12 13  1  6
 13 15  1  0
 13 14  2  0
 15 16  1  0
 16 17  1  6
 17 18  1  0
 19 16  1  0
 19 20  1  0
 21 19  2  0
M  END
$$$$
