PPC.pdb
     RDKit          3D

 21 22  0  0  1  0  0  0  0  0999 V2000
   27.5086  -19.1843  -13.8897 N   0  0  0  0  0  0  0  0  0  0  0  0
   28.8283  -19.1624  -14.5543 C   0  0  0  0  0  0  0  0  0  0  0  0
   29.5609  -20.3006  -13.8528 C   0  0  0  0  0  0  0  0  0  0  0  0
   28.4608  -21.1493  -13.2113 C   0  0  0  0  0  0  0  0  0  0  0  0
   27.2345  -20.5860  -13.9115 C   0  0  1  0  0  0  0  0  0  0  0  0
   25.9653  -21.0233  -13.3370 C   0  0  0  0  0  0  0  0  0  0  0  0
   25.1544  -21.5978  -14.1342 O   0  0  0  0  0  0  0  0  0  0  0  0
   25.6140  -20.8454  -12.0011 N   0  0  0  0  0  0  0  0  0  0  0  0
   26.4311  -20.3063  -10.9434 C   0  0  0  0  0  0  0  0  0  0  0  0
   25.4752  -19.9773   -9.7879 C   0  0  0  0  0  0  0  0  0  0  0  0
   24.2771  -20.8703  -10.0189 C   0  0  0  0  0  0  0  0  0  0  0  0
   24.2806  -21.1991  -11.4777 C   0  0  1  0  0  0  0  0  0  0  0  0
   23.2176  -20.4736  -12.1961 C   0  0  0  0  0  0  0  0  0  0  0  0
   23.0931  -19.2314  -12.0445 O   0  0  0  0  0  0  0  0  0  0  0  0
   22.3184  -21.1176  -13.0602 N   0  0  0  0  0  0  0  0  0  0  0  0
   21.2798  -20.5240  -13.8164 C   0  0  1  0  0  0  0  0  0  0  0  0
   21.4675  -20.5626  -15.3025 C   0  0  0  0  0  0  0  0  0  0  0  0
   23.0129  -19.6786  -15.6731 S   0  0  0  0  0  0  0  0  0  0  0  0
   19.9930  -21.1770  -13.5006 C   0  0  0  0  0  0  0  0  0  0  0  0
   18.7628  -20.5554  -13.6452 O   0  0  0  0  0  0  0  0  0  0  0  0
   20.0029  -22.3551  -13.0789 O   0  0  0  0  0  0  0  0  0  0  0  0
  2  1  1  0
  3  2  1  0
  4  3  1  0
  4  5  1  0
  5  1  1  0
  6  8  1  0
  5  6  1  1
  7  6  2  0
  8 12  1  0
  9  8  1  0
 10  9  1  0
 10 11  1  0
 11 12  1  0
 12 13  1  6
 13 15  1  0
 13 14  2  0
 15 16  1  0
 16 17  1  6
 17 18  1  0
 19 16  1  0
 19 20  1  0
 21 19  2  0
M  END
$$$$
