PPC.pdb
     RDKit          3D

 21 22  0  0  1  0  0  0  0  0999 V2000
   19.4794  -11.0528  -15.6596 N   0  0  0  0  0  0  0  0  0  0  0  0
   19.9289  -11.9780  -16.7206 C   0  0  0  0  0  0  0  0  0  0  0  0
   19.7945  -11.1202  -17.9738 C   0  0  0  0  0  0  0  0  0  0  0  0
   19.7410   -9.6771  -17.4672 C   0  0  0  0  0  0  0  0  0  0  0  0
   20.1945   -9.8728  -16.0293 C   0  0  1  0  0  0  0  0  0  0  0  0
   20.0180   -8.6967  -15.1821 C   0  0  0  0  0  0  0  0  0  0  0  0
   18.8733   -8.5595  -14.6401 O   0  0  0  0  0  0  0  0  0  0  0  0
   21.0125   -7.7498  -14.9492 N   0  0  0  0  0  0  0  0  0  0  0  0
   22.3979   -7.8184  -15.3401 C   0  0  0  0  0  0  0  0  0  0  0  0
   22.9576   -6.3968  -15.1878 C   0  0  0  0  0  0  0  0  0  0  0  0
   22.0437   -5.7335  -14.1823 C   0  0  0  0  0  0  0  0  0  0  0  0
   20.7506   -6.4824  -14.2405 C   0  0  1  0  0  0  0  0  0  0  0  0
   19.7043   -5.6988  -14.9213 C   0  0  0  0  0  0  0  0  0  0  0  0
   19.5501   -5.8049  -16.1649 O   0  0  0  0  0  0  0  0  0  0  0  0
   18.8533   -4.8207  -14.2322 N   0  0  0  0  0  0  0  0  0  0  0  0
   17.8156   -4.0269  -14.7764 C   0  0  1  0  0  0  0  0  0  0  0  0
   16.6501   -3.7853  -13.8662 C   0  0  0  0  0  0  0  0  0  0  0  0
   15.4253   -2.8224  -14.8041 S   0  0  0  0  0  0  0  0  0  0  0  0
   18.3525   -2.7146  -15.1906 C   0  0  0  0  0  0  0  0  0  0  0  0
   18.0571   -2.1148  -16.4045 O   0  0  0  0  0  0  0  0  0  0  0  0
   19.1164   -2.1029  -14.4107 O   0  0  0  0  0  0  0  0  0  0  0  0
  2  1  1  0
  3  2  1  0
  4  3  1  0
  4  5  1  0
  5  1  1  0
  6  8  1  0
  5  6  1  1
  7  6  2  0
  8 12  1  0
  9  8  1  0
 10  9  1  0
 10 11  1  0
 11 12  1  0
 12 13  1  6
 13 15  1  0
 13 14  2  0
 15 16  1  0
 16 17  1  1
 17 18  1  0
 19 16  1  0
 19 20  1  0
 21 19  2  0
M  END
$$$$
