PPC.pdb
     RDKit          3D

 21 22  0  0  1  0  0  0  0  0999 V2000
   21.0297  -21.2618  -13.8104 N   0  0  0  0  0  0  0  0  0  0  0  0
   21.0440  -20.0741  -14.6896 C   0  0  0  0  0  0  0  0  0  0  0  0
   20.1081  -19.1197  -13.9566 C   0  0  0  0  0  0  0  0  0  0  0  0
   20.0297  -19.6563  -12.5255 C   0  0  0  0  0  0  0  0  0  0  0  0
   21.1905  -20.6381  -12.5354 C   0  0  1  0  0  0  0  0  0  0  0  0
   21.2408  -21.5150  -11.3689 C   0  0  0  0  0  0  0  0  0  0  0  0
   20.7644  -22.6863  -11.5238 O   0  0  0  0  0  0  0  0  0  0  0  0
   21.7684  -21.1393  -10.1359 N   0  0  0  0  0  0  0  0  0  0  0  0
   22.4746  -19.9241   -9.8174 C   0  0  0  0  0  0  0  0  0  0  0  0
   22.5015  -19.8325   -8.2849 C   0  0  0  0  0  0  0  0  0  0  0  0
   22.3315  -21.2596   -7.8152 C   0  0  0  0  0  0  0  0  0  0  0  0
   21.6530  -21.9856   -8.9327 C   0  0  1  0  0  0  0  0  0  0  0  0
   20.2417  -22.2671   -8.6139 C   0  0  0  0  0  0  0  0  0  0  0  0
   19.3391  -21.4950   -9.0270 O   0  0  0  0  0  0  0  0  0  0  0  0
   19.8493  -23.3805   -7.8547 N   0  0  0  0  0  0  0  0  0  0  0  0
   18.5375  -23.8829   -7.6824 C   0  0  1  0  0  0  0  0  0  0  0  0
   18.1865  -25.0631   -8.5364 C   0  0  0  0  0  0  0  0  0  0  0  0
   16.4585  -25.4965   -8.1717 S   0  0  0  0  0  0  0  0  0  0  0  0
   18.3268  -24.2613   -6.2701 C   0  0  0  0  0  0  0  0  0  0  0  0
   17.1245  -24.0900   -5.6024 O   0  0  0  0  0  0  0  0  0  0  0  0
   19.2790  -24.7646   -5.6328 O   0  0  0  0  0  0  0  0  0  0  0  0
  2  1  1  0
  3  2  1  0
  4  3  1  0
  4  5  1  0
  5  1  1  0
  6  8  1  0
  5  6  1  1
  7  6  2  0
  8 12  1  0
  9  8  1  0
 10  9  1  0
 10 11  1  0
 11 12  1  0
 12 13  1  1
 13 15  1  0
 13 14  2  0
 15 16  1  0
 16 17  1  6
 17 18  1  0
 19 16  1  0
 19 20  1  0
 21 19  2  0
M  END
$$$$
