PPC.pdb
     RDKit          3D

 21 22  0  0  1  0  0  0  0  0999 V2000
   23.5205  -21.7899  -12.4905 N   0  0  0  0  0  0  0  0  0  0  0  0
   22.8948  -21.0585  -13.6118 C   0  0  0  0  0  0  0  0  0  0  0  0
   23.0556  -19.6058  -13.1783 C   0  0  0  0  0  0  0  0  0  0  0  0
   24.1533  -19.6254  -12.1122 C   0  0  0  0  0  0  0  0  0  0  0  0
   24.7137  -21.0235  -12.3193 C   0  0  1  0  0  0  0  0  0  0  0  0
   25.6375  -21.4573  -11.2751 C   0  0  0  0  0  0  0  0  0  0  0  0
   25.1230  -22.0854  -10.2933 O   0  0  0  0  0  0  0  0  0  0  0  0
   27.0099  -21.2219  -11.3039 N   0  0  0  0  0  0  0  0  0  0  0  0
   27.7851  -20.6851  -12.3938 C   0  0  0  0  0  0  0  0  0  0  0  0
   29.1401  -20.2785  -11.7971 C   0  0  0  0  0  0  0  0  0  0  0  0
   29.2777  -21.1260  -10.5525 C   0  0  0  0  0  0  0  0  0  0  0  0
   27.8870  -21.5010  -10.1508 C   0  0  1  0  0  0  0  0  0  0  0  0
   27.4508  -20.7536   -8.9576 C   0  0  0  0  0  0  0  0  0  0  0  0
   26.8582  -19.6522   -9.0892 O   0  0  0  0  0  0  0  0  0  0  0  0
   27.6703  -21.2234   -7.6533 N   0  0  0  0  0  0  0  0  0  0  0  0
   27.5230  -20.5019   -6.4447 C   0  0  1  0  0  0  0  0  0  0  0  0
   27.9305  -21.2389   -5.2054 C   0  0  0  0  0  0  0  0  0  0  0  0
   27.7282  -20.0939   -3.8072 S   0  0  0  0  0  0  0  0  0  0  0  0
   28.3037  -19.2495   -6.5099 C   0  0  0  0  0  0  0  0  0  0  0  0
   27.8347  -18.0297   -6.0487 O   0  0  0  0  0  0  0  0  0  0  0  0
   29.4519  -19.2806   -7.0067 O   0  0  0  0  0  0  0  0  0  0  0  0
  2  1  1  0
  3  2  1  0
  4  3  1  0
  4  5  1  0
  5  1  1  0
  6  8  1  0
  5  6  1  1
  7  6  2  0
  8 12  1  0
  9  8  1  0
 10  9  1  0
 10 11  1  0
 11 12  1  0
 12 13  1  1
 13 15  1  0
 13 14  2  0
 15 16  1  0
 16 17  1  1
 17 18  1  0
 19 16  1  0
 19 20  1  0
 21 19  2  0
M  END
$$$$
