PPC.pdb
     RDKit          3D

 21 22  0  0  1  0  0  0  0  0999 V2000
   27.8365  -20.8347  -15.1987 N   0  0  0  0  0  0  0  0  0  0  0  0
   28.8627  -19.8317  -15.5520 C   0  0  0  0  0  0  0  0  0  0  0  0
   28.0970  -18.5218  -15.4035 C   0  0  0  0  0  0  0  0  0  0  0  0
   26.8812  -18.8645  -14.5396 C   0  0  0  0  0  0  0  0  0  0  0  0
   27.2874  -20.2359  -14.0238 C   0  0  1  0  0  0  0  0  0  0  0  0
   26.2155  -20.9612  -13.3478 C   0  0  0  0  0  0  0  0  0  0  0  0
   25.5929  -21.8259  -14.0461 O   0  0  0  0  0  0  0  0  0  0  0  0
   25.8556  -20.7555  -12.0181 N   0  0  0  0  0  0  0  0  0  0  0  0
   26.5871  -20.0245  -11.0143 C   0  0  0  0  0  0  0  0  0  0  0  0
   25.6040  -19.7789   -9.8607 C   0  0  0  0  0  0  0  0  0  0  0  0
   24.5636  -20.8660  -10.0093 C   0  0  0  0  0  0  0  0  0  0  0  0
   24.6032  -21.2841  -11.4445 C   0  0  1  0  0  0  0  0  0  0  0  0
   23.4286  -20.7871  -12.1831 C   0  0  0  0  0  0  0  0  0  0  0  0
   23.4143  -19.6073  -12.6185 O   0  0  0  0  0  0  0  0  0  0  0  0
   22.3008  -21.5857  -12.4289 N   0  0  0  0  0  0  0  0  0  0  0  0
   21.1710  -21.2571  -13.2153 C   0  0  1  0  0  0  0  0  0  0  0  0
   20.4925  -22.4174  -13.8776 C   0  0  0  0  0  0  0  0  0  0  0  0
   18.9941  -21.7761  -14.6839 S   0  0  0  0  0  0  0  0  0  0  0  0
   20.1704  -20.5540  -12.3867 C   0  0  0  0  0  0  0  0  0  0  0  0
   19.3260  -19.5699  -12.8758 O   0  0  0  0  0  0  0  0  0  0  0  0
   20.0715  -20.8557  -11.1763 O   0  0  0  0  0  0  0  0  0  0  0  0
  2  1  1  0
  3  2  1  0
  4  3  1  0
  4  5  1  0
  5  1  1  0
  6  8  1  0
  5  6  1  6
  7  6  2  0
  8 12  1  0
  9  8  1  0
 10  9  1  0
 10 11  1  0
 11 12  1  0
 12 13  1  6
 13 15  1  0
 13 14  2  0
 15 16  1  0
 16 17  1  1
 17 18  1  0
 19 16  1  0
 19 20  1  0
 21 19  2  0
M  END
$$$$
