PPC.pdb
     RDKit          3D

 21 22  0  0  1  0  0  0  0  0999 V2000
   27.2105  -19.2000  -17.2762 N   0  0  0  0  0  0  0  0  0  0  0  0
   28.0442  -18.1607  -17.9154 C   0  0  0  0  0  0  0  0  0  0  0  0
   27.9128  -16.9972  -16.9392 C   0  0  0  0  0  0  0  0  0  0  0  0
   27.4216  -17.6245  -15.6325 C   0  0  0  0  0  0  0  0  0  0  0  0
   27.6638  -19.0966  -15.9255 C   0  0  1  0  0  0  0  0  0  0  0  0
   27.0645  -20.0055  -14.9526 C   0  0  0  0  0  0  0  0  0  0  0  0
   25.9308  -20.4962  -15.2640 O   0  0  0  0  0  0  0  0  0  0  0  0
   27.6575  -20.3475  -13.7396 N   0  0  0  0  0  0  0  0  0  0  0  0
   29.0064  -20.0712  -13.3140 C   0  0  0  0  0  0  0  0  0  0  0  0
   29.0353  -20.3103  -11.7976 C   0  0  0  0  0  0  0  0  0  0  0  0
   27.8834  -21.2550  -11.5391 C   0  0  0  0  0  0  0  0  0  0  0  0
   26.9310  -21.0680  -12.6767 C   0  0  1  0  0  0  0  0  0  0  0  0
   25.7291  -20.3254  -12.2566 C   0  0  0  0  0  0  0  0  0  0  0  0
   25.7416  -19.0680  -12.2423 O   0  0  0  0  0  0  0  0  0  0  0  0
   24.5456  -20.9695  -11.8632 N   0  0  0  0  0  0  0  0  0  0  0  0
   23.3189  -20.3644  -11.4999 C   0  0  1  0  0  0  0  0  0  0  0  0
   22.1415  -20.7474  -12.3438 C   0  0  0  0  0  0  0  0  0  0  0  0
   20.6919  -19.8801  -11.6706 S   0  0  0  0  0  0  0  0  0  0  0  0
   22.9982  -20.6856  -10.0942 C   0  0  0  0  0  0  0  0  0  0  0  0
   22.5181  -19.7552   -9.1861 O   0  0  0  0  0  0  0  0  0  0  0  0
   23.1653  -21.8585   -9.6910 O   0  0  0  0  0  0  0  0  0  0  0  0
  2  1  1  0
  3  2  1  0
  4  3  1  0
  4  5  1  0
  5  1  1  0
  6  8  1  0
  5  6  1  1
  7  6  2  0
  8 12  1  0
  9  8  1  0
 10  9  1  0
 10 11  1  0
 11 12  1  0
 12 13  1  1
 13 15  1  0
 13 14  2  0
 15 16  1  0
 16 17  1  6
 17 18  1  0
 19 16  1  0
 19 20  1  0
 21 19  2  0
M  END
$$$$
