PPC.pdb
     RDKit          3D

 21 22  0  0  1  0  0  0  0  0999 V2000
   19.9763  -12.3283  -17.9524 N   0  0  0  0  0  0  0  0  0  0  0  0
   20.6077  -12.9201  -19.1504 C   0  0  0  0  0  0  0  0  0  0  0  0
   20.4395  -11.8117  -20.1835 C   0  0  0  0  0  0  0  0  0  0  0  0
   20.1664  -10.5444  -19.3702 C   0  0  0  0  0  0  0  0  0  0  0  0
   20.5521  -11.0214  -17.9790 C   0  0  1  0  0  0  0  0  0  0  0  0
   20.1713  -10.1061  -16.9070 C   0  0  0  0  0  0  0  0  0  0  0  0
   18.9672  -10.1867  -16.4987 O   0  0  0  0  0  0  0  0  0  0  0  0
   21.0372   -9.1795  -16.3312 N   0  0  0  0  0  0  0  0  0  0  0  0
   22.4511   -9.0341  -16.5697 C   0  0  0  0  0  0  0  0  0  0  0  0
   22.8438   -7.6638  -15.9991 C   0  0  0  0  0  0  0  0  0  0  0  0
   21.7812   -7.3629  -14.9662 C   0  0  0  0  0  0  0  0  0  0  0  0
   20.5836   -8.1685  -15.3570 C   0  0  1  0  0  0  0  0  0  0  0  0
   19.5245   -7.3173  -15.9282 C   0  0  0  0  0  0  0  0  0  0  0  0
   19.4230   -7.1943  -17.1756 O   0  0  0  0  0  0  0  0  0  0  0  0
   18.6041   -6.6224  -15.1282 N   0  0  0  0  0  0  0  0  0  0  0  0
   17.5364   -5.8015  -15.5632 C   0  0  1  0  0  0  0  0  0  0  0  0
   16.1643   -6.3437  -15.3013 C   0  0  0  0  0  0  0  0  0  0  0  0
   14.9735   -5.1154  -15.9181 S   0  0  0  0  0  0  0  0  0  0  0  0
   17.6330   -4.4728  -14.9250 C   0  0  0  0  0  0  0  0  0  0  0  0
   17.4425   -3.2806  -15.6054 O   0  0  0  0  0  0  0  0  0  0  0  0
   17.9009   -4.4090  -13.7043 O   0  0  0  0  0  0  0  0  0  0  0  0
  2  1  1  0
  3  2  1  0
  4  3  1  0
  4  5  1  0
  5  1  1  0
  6  8  1  0
  5  6  1  1
  7  6  2  0
  8 12  1  0
  9  8  1  0
 10  9  1  0
 10 11  1  0
 11 12  1  0
 12 13  1  6
 13 15  1  0
 13 14  2  0
 15 16  1  0
 16 17  1  1
 17 18  1  0
 19 16  1  0
 19 20  1  0
 21 19  2  0
M  END
$$$$
