PPC.pdb
     RDKit          3D

 21 22  0  0  1  0  0  0  0  0999 V2000
   26.6559  -18.8997   -7.8035 N   0  0  0  0  0  0  0  0  0  0  0  0
   27.5440  -19.3290   -6.7031 C   0  0  0  0  0  0  0  0  0  0  0  0
   27.1262  -20.7810   -6.5001 C   0  0  0  0  0  0  0  0  0  0  0  0
   26.3974  -21.1716   -7.7879 C   0  0  0  0  0  0  0  0  0  0  0  0
   26.7904  -20.0121   -8.6894 C   0  0  1  0  0  0  0  0  0  0  0  0
   26.0481  -19.9542   -9.9455 C   0  0  0  0  0  0  0  0  0  0  0  0
   24.9956  -19.2363   -9.9452 O   0  0  0  0  0  0  0  0  0  0  0  0
   26.4271  -20.6271  -11.1045 N   0  0  0  0  0  0  0  0  0  0  0  0
   27.6010  -21.4391  -11.3034 C   0  0  0  0  0  0  0  0  0  0  0  0
   27.3568  -22.2383  -12.5914 C   0  0  0  0  0  0  0  0  0  0  0  0
   26.3377  -21.4246  -13.3568 C   0  0  0  0  0  0  0  0  0  0  0  0
   25.6201  -20.5964  -12.3394 C   0  0  1  0  0  0  0  0  0  0  0  0
   24.2572  -21.1024  -12.0968 C   0  0  0  0  0  0  0  0  0  0  0  0
   24.0905  -22.1826  -11.4746 O   0  0  0  0  0  0  0  0  0  0  0  0
   23.1119  -20.4208  -12.5368 N   0  0  0  0  0  0  0  0  0  0  0  0
   21.7611  -20.7898  -12.3312 C   0  0  1  0  0  0  0  0  0  0  0  0
   20.8371  -19.6650  -11.9761 C   0  0  0  0  0  0  0  0  0  0  0  0
   21.4296  -18.9557  -10.4100 S   0  0  0  0  0  0  0  0  0  0  0  0
   21.2322  -21.4519  -13.5412 C   0  0  0  0  0  0  0  0  0  0  0  0
   20.0550  -22.1829  -13.5618 O   0  0  0  0  0  0  0  0  0  0  0  0
   21.8741  -21.3536  -14.6109 O   0  0  0  0  0  0  0  0  0  0  0  0
  2  1  1  0
  3  2  1  0
  4  3  1  0
  4  5  1  0
  5  1  1  0
  6  8  1  0
  5  6  1  6
  7  6  2  0
  8 12  1  0
  9  8  1  0
 10  9  1  0
 10 11  1  0
 11 12  1  0
 12 13  1  1
 13 15  1  0
 13 14  2  0
 15 16  1  0
 16 17  1  6
 17 18  1  0
 19 16  1  0
 19 20  1  0
 21 19  2  0
M  END
$$$$
