PPC.pdb
     RDKit          3D

 21 22  0  0  1  0  0  0  0  0999 V2000
   27.8511  -20.3521  -15.3119 N   0  0  0  0  0  0  0  0  0  0  0  0
   28.8821  -19.3067  -15.4799 C   0  0  0  0  0  0  0  0  0  0  0  0
   28.1374  -18.0482  -15.0491 C   0  0  0  0  0  0  0  0  0  0  0  0
   26.9374  -18.5494  -14.2424 C   0  0  0  0  0  0  0  0  0  0  0  0
   27.3373  -20.0003  -14.0264 C   0  0  1  0  0  0  0  0  0  0  0  0
   26.2718  -20.8391  -13.4850 C   0  0  0  0  0  0  0  0  0  0  0  0
   25.7291  -21.6555  -14.2986 O   0  0  0  0  0  0  0  0  0  0  0  0
   25.8369  -20.7869  -12.1628 N   0  0  0  0  0  0  0  0  0  0  0  0
   26.5239  -20.2089  -11.0355 C   0  0  0  0  0  0  0  0  0  0  0  0
   25.4789  -20.0754   -9.9186 C   0  0  0  0  0  0  0  0  0  0  0  0
   24.4226  -21.1018  -10.2608 C   0  0  0  0  0  0  0  0  0  0  0  0
   24.5391  -21.3413  -11.7322 C   0  0  1  0  0  0  0  0  0  0  0  0
   23.4243  -20.7195  -12.4693 C   0  0  0  0  0  0  0  0  0  0  0  0
   23.3907  -19.4715  -12.6202 O   0  0  0  0  0  0  0  0  0  0  0  0
   22.3758  -21.4710  -13.0226 N   0  0  0  0  0  0  0  0  0  0  0  0
   21.3025  -20.9952  -13.8129 C   0  0  1  0  0  0  0  0  0  0  0  0
   20.9929  -21.8118  -15.0304 C   0  0  0  0  0  0  0  0  0  0  0  0
   22.5317  -21.9537  -15.9890 S   0  0  0  0  0  0  0  0  0  0  0  0
   20.0758  -20.9108  -12.9943 C   0  0  0  0  0  0  0  0  0  0  0  0
   19.9674  -21.4436  -11.7195 O   0  0  0  0  0  0  0  0  0  0  0  0
   19.0743  -20.3289  -13.4681 O   0  0  0  0  0  0  0  0  0  0  0  0
  2  1  1  0
  3  2  1  0
  4  3  1  0
  4  5  1  0
  5  1  1  0
  6  8  1  0
  5  6  1  6
  7  6  2  0
  8 12  1  0
  9  8  1  0
 10  9  1  0
 10 11  1  0
 11 12  1  0
 12 13  1  6
 13 15  1  0
 13 14  2  0
 15 16  1  0
 16 17  1  6
 17 18  1  0
 19 16  1  0
 19 20  1  0
 21 19  2  0
M  END
$$$$
