TTK.pdb
     RDKit          3D

 24 23  0  0  1  0  0  0  0  0999 V2000
    5.6014  -18.4875   22.0227 C   0  0  0  0  0  0  0  0  0  0  0  0
    6.4689  -19.0480   20.9328 C   0  0  1  0  0  0  0  0  0  0  0  0
    5.8401  -20.1082   20.2835 O   0  0  0  0  0  0  0  0  0  0  0  0
    6.6566  -17.9563   19.8858 C   0  0  2  0  0  0  0  0  0  0  0  0
    7.1439  -18.6012   18.6867 N   0  0  0  0  0  0  0  0  0  0  0  0
    7.6016  -16.9120   20.3717 C   0  0  0  0  0  0  0  0  0  0  0  0
    8.8487  -17.0422   20.2812 O   0  0  0  0  0  0  0  0  0  0  0  0
    8.3486  -13.5388   19.1413 C   0  0  0  0  0  0  0  0  0  0  0  0
    7.7191  -13.3573   20.5089 C   0  0  1  0  0  0  0  0  0  0  0  0
    6.3684  -13.1286   20.3546 O   0  0  0  0  0  0  0  0  0  0  0  0
    8.0261  -14.6012   21.3050 C   0  0  2  0  0  0  0  0  0  0  0  0
    7.1416  -15.6947   20.9721 N   0  0  0  0  0  0  0  0  0  0  0  0
    8.1060  -14.3487   22.7617 C   0  0  0  0  0  0  0  0  0  0  0  0
    8.9777  -13.5359   23.1481 O   0  0  0  0  0  0  0  0  0  0  0  0
    7.2689  -14.9626   23.7206 N   0  0  0  0  0  0  0  0  0  0  0  0
    7.7651  -15.7802   24.8472 C   0  0  1  0  0  0  0  0  0  0  0  0
    7.5033  -17.1953   24.6854 C   0  0  0  0  0  0  0  0  0  0  0  0
    8.0594  -18.1720   25.6450 C   0  0  0  0  0  0  0  0  0  0  0  0
    7.1645  -19.1324   26.3248 C   0  0  0  0  0  0  0  0  0  0  0  0
    7.6419  -20.1033   27.3105 C   0  0  0  0  0  0  0  0  0  0  0  0
    6.6773  -20.9617   27.9248 N   0  0  0  0  0  0  0  0  0  0  0  0
    9.2429  -15.4620   24.9895 C   0  0  0  0  0  0  0  0  0  0  0  0
    9.8327  -15.1955   26.2110 O   0  0  0  0  0  0  0  0  0  0  0  0
    9.9482  -15.4413   23.9831 O   0  0  0  0  0  0  0  0  0  0  0  0
  2  3  1  0
  2  1  1  1
  4  2  1  0
  4  5  1  6
  6  7  2  0
  6  4  1  0
  9  8  1  6
  9 10  1  0
  9 11  1  0
 11 12  1  1
 12  6  1  0
 13 11  1  0
 13 15  1  0
 14 13  2  0
 16 15  1  0
 16 22  1  0
 16 17  1  6
 17 18  1  0
 19 18  1  0
 20 19  1  0
 20 21  1  0
 22 23  1  0
 24 22  2  0
M  END
$$$$
