TTK.pdb
     RDKit          3D

 24 23  0  0  1  0  0  0  0  0999 V2000
   10.1780  -19.7309   17.7099 C   0  0  0  0  0  0  0  0  0  0  0  0
   10.0529  -18.8685   18.9327 C   0  0  1  0  0  0  0  0  0  0  0  0
   11.1480  -19.0317   19.7783 O   0  0  0  0  0  0  0  0  0  0  0  0
   10.0783  -17.4145   18.4759 C   0  0  2  0  0  0  0  0  0  0  0  0
   11.3100  -17.2244   17.7423 N   0  0  0  0  0  0  0  0  0  0  0  0
    9.9836  -16.4907   19.6408 C   0  0  0  0  0  0  0  0  0  0  0  0
   10.9437  -15.7619   19.9982 O   0  0  0  0  0  0  0  0  0  0  0  0
    6.8909  -14.2201   20.3341 C   0  0  0  0  0  0  0  0  0  0  0  0
    7.2302  -14.9235   21.6339 C   0  0  1  0  0  0  0  0  0  0  0  0
    6.3097  -15.9255   21.8558 O   0  0  0  0  0  0  0  0  0  0  0  0
    8.6447  -15.4312   21.5052 C   0  0  2  0  0  0  0  0  0  0  0  0
    8.7884  -16.3792   20.4238 N   0  0  0  0  0  0  0  0  0  0  0  0
    9.1972  -15.9302   22.7851 C   0  0  0  0  0  0  0  0  0  0  0  0
    9.6685  -17.0911   22.7836 O   0  0  0  0  0  0  0  0  0  0  0  0
    9.2212  -15.1827   23.9841 N   0  0  0  0  0  0  0  0  0  0  0  0
    9.7392  -15.6985   25.2685 C   0  0  1  0  0  0  0  0  0  0  0  0
    9.7328  -14.7092   26.3261 C   0  0  0  0  0  0  0  0  0  0  0  0
   10.1645  -15.0734   27.6917 C   0  0  0  0  0  0  0  0  0  0  0  0
   10.0729  -14.0826   28.7851 C   0  0  0  0  0  0  0  0  0  0  0  0
   10.4411  -14.3886   30.1682 C   0  0  0  0  0  0  0  0  0  0  0  0
   10.2883  -13.3554   31.1448 N   0  0  0  0  0  0  0  0  0  0  0  0
    8.9133  -16.9286   25.6007 C   0  0  0  0  0  0  0  0  0  0  0  0
    7.5784  -17.0430   25.2603 O   0  0  0  0  0  0  0  0  0  0  0  0
    9.4475  -17.8635   26.1934 O   0  0  0  0  0  0  0  0  0  0  0  0
  2  3  1  0
  2  1  1  6
  4  2  1  0
  4  5  1  1
  6  7  2  0
  6  4  1  0
  9  8  1  6
  9 10  1  0
  9 11  1  0
 11 12  1  6
 12  6  1  0
 13 11  1  0
 13 15  1  0
 14 13  2  0
 16 15  1  0
 16 22  1  0
 16 17  1  1
 17 18  1  0
 19 18  1  0
 20 19  1  0
 20 21  1  0
 22 23  1  0
 24 22  2  0
M  END
$$$$
