TTK.pdb
     RDKit          3D

 24 23  0  0  1  0  0  0  0  0999 V2000
    7.1071  -19.1109   18.2924 C   0  0  0  0  0  0  0  0  0  0  0  0
    8.0370  -19.0344   17.1159 C   0  0  1  0  0  0  0  0  0  0  0  0
    7.5637  -19.7956   16.0493 O   0  0  0  0  0  0  0  0  0  0  0  0
    8.0538  -17.5881   16.6349 C   0  0  2  0  0  0  0  0  0  0  0  0
    8.8215  -17.5600   15.4097 N   0  0  0  0  0  0  0  0  0  0  0  0
    8.6381  -16.6911   17.6710 C   0  0  0  0  0  0  0  0  0  0  0  0
    9.8552  -16.7312   17.9831 O   0  0  0  0  0  0  0  0  0  0  0  0
    8.2517  -12.8156   20.6883 C   0  0  0  0  0  0  0  0  0  0  0  0
    7.5328  -13.6595   19.6538 C   0  0  1  0  0  0  0  0  0  0  0  0
    7.3454  -12.9084   18.5131 O   0  0  0  0  0  0  0  0  0  0  0  0
    8.3743  -14.8903   19.4256 C   0  0  2  0  0  0  0  0  0  0  0  0
    7.8434  -15.7276   18.3740 N   0  0  0  0  0  0  0  0  0  0  0  0
    8.6514  -15.6390   20.6726 C   0  0  0  0  0  0  0  0  0  0  0  0
    7.7201  -16.3414   21.1297 O   0  0  0  0  0  0  0  0  0  0  0  0
    9.8850  -15.6048   21.3612 N   0  0  0  0  0  0  0  0  0  0  0  0
   10.1945  -16.4368   22.5427 C   0  0  1  0  0  0  0  0  0  0  0  0
   10.7992  -17.7083   22.2039 C   0  0  0  0  0  0  0  0  0  0  0  0
    9.9631  -18.9187   22.0626 C   0  0  0  0  0  0  0  0  0  0  0  0
   10.5845  -20.2074   21.6904 C   0  0  0  0  0  0  0  0  0  0  0  0
    9.8188  -21.4458   21.5420 C   0  0  0  0  0  0  0  0  0  0  0  0
   10.5294  -22.6313   21.1757 N   0  0  0  0  0  0  0  0  0  0  0  0
   11.0673  -15.5867   23.4488 C   0  0  0  0  0  0  0  0  0  0  0  0
   11.0953  -15.7489   24.8213 O   0  0  0  0  0  0  0  0  0  0  0  0
   11.7809  -14.7202   22.9480 O   0  0  0  0  0  0  0  0  0  0  0  0
  2  3  1  0
  2  1  1  1
  4  2  1  0
  4  5  1  6
  6  7  2  0
  6  4  1  0
  9  8  1  1
  9 10  1  0
  9 11  1  0
 11 12  1  6
 12  6  1  0
 13 11  1  0
 13 15  1  0
 14 13  2  0
 16 15  1  0
 16 22  1  0
 16 17  1  6
 17 18  1  0
 19 18  1  0
 20 19  1  0
 20 21  1  0
 22 23  1  0
 24 22  2  0
M  END
$$$$
