TTK.pdb
     RDKit          3D

 24 23  0  0  1  0  0  0  0  0999 V2000
    7.6403  -12.4088   19.1929 C   0  0  0  0  0  0  0  0  0  0  0  0
    8.4355  -13.4818   18.5066 C   0  0  1  0  0  0  0  0  0  0  0  0
    8.9970  -13.0124   17.3212 O   0  0  0  0  0  0  0  0  0  0  0  0
    9.6020  -13.8452   19.4179 C   0  0  2  0  0  0  0  0  0  0  0  0
   10.5909  -14.5049   18.5944 N   0  0  0  0  0  0  0  0  0  0  0  0
    9.1487  -14.7167   20.5380 C   0  0  0  0  0  0  0  0  0  0  0  0
    8.1954  -14.3969   21.2926 O   0  0  0  0  0  0  0  0  0  0  0  0
    9.2764  -19.0385   22.9106 C   0  0  0  0  0  0  0  0  0  0  0  0
    9.8307  -18.2451   21.7433 C   0  0  1  0  0  0  0  0  0  0  0  0
    9.3890  -18.8104   20.5661 O   0  0  0  0  0  0  0  0  0  0  0  0
    9.3790  -16.8175   21.9253 C   0  0  2  0  0  0  0  0  0  0  0  0
    9.7755  -15.9741   20.8206 N   0  0  0  0  0  0  0  0  0  0  0  0
    9.7571  -16.2563   23.2423 C   0  0  0  0  0  0  0  0  0  0  0  0
   10.9542  -15.9176   23.3904 O   0  0  0  0  0  0  0  0  0  0  0  0
    8.8586  -16.0855   24.3196 N   0  0  0  0  0  0  0  0  0  0  0  0
    9.2242  -15.4627   25.6089 C   0  0  1  0  0  0  0  0  0  0  0  0
    8.1183  -14.7801   26.2480 C   0  0  0  0  0  0  0  0  0  0  0  0
    7.7896  -13.3864   25.8825 C   0  0  0  0  0  0  0  0  0  0  0  0
    6.6394  -12.7075   26.5162 C   0  0  0  0  0  0  0  0  0  0  0  0
    6.3151  -11.3007   26.2752 C   0  0  0  0  0  0  0  0  0  0  0  0
    5.1614  -10.7600   26.9242 N   0  0  0  0  0  0  0  0  0  0  0  0
    9.8155  -16.5676   26.4663 C   0  0  0  0  0  0  0  0  0  0  0  0
   10.7578  -16.3243   27.4480 O   0  0  0  0  0  0  0  0  0  0  0  0
    9.4441  -17.7254   26.2866 O   0  0  0  0  0  0  0  0  0  0  0  0
  2  3  1  0
  2  1  1  1
  4  2  1  0
  4  5  1  6
  6  7  2  0
  6  4  1  0
  9  8  1  1
  9 10  1  0
  9 11  1  0
 11 12  1  6
 12  6  1  0
 13 11  1  0
 13 15  1  0
 14 13  2  0
 16 15  1  0
 16 22  1  0
 16 17  1  1
 17 18  1  0
 19 18  1  0
 20 19  1  0
 20 21  1  0
 22 23  1  0
 24 22  2  0
M  END
$$$$
