TTK.pdb
     RDKit          3D

 24 23  0  0  1  0  0  0  0  0999 V2000
    9.6702  -13.2081   16.6760 C   0  0  0  0  0  0  0  0  0  0  0  0
    9.7134  -13.9099   18.0027 C   0  0  1  0  0  0  0  0  0  0  0  0
   10.4242  -13.1669   18.9427 O   0  0  0  0  0  0  0  0  0  0  0  0
    8.2834  -14.0015   18.5224 C   0  0  2  0  0  0  0  0  0  0  0  0
    7.8107  -12.6461   18.6975 N   0  0  0  0  0  0  0  0  0  0  0  0
    8.2304  -14.7715   19.7967 C   0  0  0  0  0  0  0  0  0  0  0  0
    7.9263  -14.2347   20.8921 O   0  0  0  0  0  0  0  0  0  0  0  0
    8.2336  -19.1157   22.1367 C   0  0  0  0  0  0  0  0  0  0  0  0
    8.4828  -18.4287   20.8081 C   0  0  1  0  0  0  0  0  0  0  0  0
    7.5222  -18.8338   19.9061 O   0  0  0  0  0  0  0  0  0  0  0  0
    8.4667  -16.9432   21.0691 C   0  0  2  0  0  0  0  0  0  0  0  0
    8.5241  -16.1734   19.8473 N   0  0  0  0  0  0  0  0  0  0  0  0
    9.4797  -16.5212   22.0632 C   0  0  0  0  0  0  0  0  0  0  0  0
   10.6308  -16.2807   21.6309 O   0  0  0  0  0  0  0  0  0  0  0  0
    9.2233  -16.3780   23.4455 N   0  0  0  0  0  0  0  0  0  0  0  0
   10.2230  -15.9061   24.4262 C   0  0  1  0  0  0  0  0  0  0  0  0
    9.6411  -15.5190   25.6946 C   0  0  0  0  0  0  0  0  0  0  0  0
   10.5083  -15.2112   26.8510 C   0  0  0  0  0  0  0  0  0  0  0  0
    9.9072  -14.7967   28.1364 C   0  0  0  0  0  0  0  0  0  0  0  0
   10.7045  -14.4905   29.3249 C   0  0  0  0  0  0  0  0  0  0  0  0
   10.0088  -14.1876   30.5368 N   0  0  0  0  0  0  0  0  0  0  0  0
   11.2509  -17.0158   24.5583 C   0  0  0  0  0  0  0  0  0  0  0  0
   10.8980  -18.3472   24.6756 O   0  0  0  0  0  0  0  0  0  0  0  0
   12.4453  -16.7255   24.5592 O   0  0  0  0  0  0  0  0  0  0  0  0
  2  3  1  0
  2  1  1  6
  4  2  1  0
  4  5  1  1
  6  7  2  0
  6  4  1  0
  9  8  1  1
  9 10  1  0
  9 11  1  0
 11 12  1  6
 12  6  1  0
 13 11  1  0
 13 15  1  0
 14 13  2  0
 16 15  1  0
 16 22  1  0
 16 17  1  1
 17 18  1  0
 19 18  1  0
 20 19  1  0
 20 21  1  0
 22 23  1  0
 24 22  2  0
M  END
$$$$
