TTK.pdb
     RDKit          3D

 24 23  0  0  1  0  0  0  0  0999 V2000
   14.1945  -15.0719   17.7277 C   0  0  0  0  0  0  0  0  0  0  0  0
   13.1005  -15.2415   16.7133 C   0  0  1  0  0  0  0  0  0  0  0  0
   13.5316  -16.0047   15.6303 O   0  0  0  0  0  0  0  0  0  0  0  0
   11.9777  -16.0327   17.3741 C   0  0  2  0  0  0  0  0  0  0  0  0
   11.0398  -16.3852   16.3313 N   0  0  0  0  0  0  0  0  0  0  0  0
   11.3285  -15.2339   18.4511 C   0  0  0  0  0  0  0  0  0  0  0  0
   11.9721  -14.7847   19.4332 O   0  0  0  0  0  0  0  0  0  0  0  0
    7.4133  -12.9113   20.3207 C   0  0  0  0  0  0  0  0  0  0  0  0
    7.9310  -13.6913   19.1278 C   0  0  1  0  0  0  0  0  0  0  0  0
    8.0471  -12.8392   18.0503 O   0  0  0  0  0  0  0  0  0  0  0  0
    9.2421  -14.3119   19.5411 C   0  0  2  0  0  0  0  0  0  0  0  0
    9.9280  -14.9305   18.4294 N   0  0  0  0  0  0  0  0  0  0  0  0
    9.1115  -15.2119   20.7095 C   0  0  0  0  0  0  0  0  0  0  0  0
    8.5946  -16.3346   20.5039 O   0  0  0  0  0  0  0  0  0  0  0  0
    9.5299  -14.8798   22.0177 N   0  0  0  0  0  0  0  0  0  0  0  0
    9.3278  -15.7496   23.1952 C   0  0  1  0  0  0  0  0  0  0  0  0
   10.5646  -16.2671   23.7428 C   0  0  0  0  0  0  0  0  0  0  0  0
   11.2269  -17.4323   23.1203 C   0  0  0  0  0  0  0  0  0  0  0  0
   12.5278  -17.9071   23.6378 C   0  0  0  0  0  0  0  0  0  0  0  0
   13.2081  -19.0915   23.1119 C   0  0  0  0  0  0  0  0  0  0  0  0
   14.5288  -19.3688   23.5848 N   0  0  0  0  0  0  0  0  0  0  0  0
    8.5292  -14.9353   24.1975 C   0  0  0  0  0  0  0  0  0  0  0  0
    7.8439  -15.5142   25.2493 O   0  0  0  0  0  0  0  0  0  0  0  0
    8.4885  -13.7129   24.0756 O   0  0  0  0  0  0  0  0  0  0  0  0
  2  3  1  0
  2  1  1  1
  4  2  1  0
  4  5  1  6
  6  7  2  0
  6  4  1  0
  9  8  1  1
  9 10  1  0
  9 11  1  0
 11 12  1  6
 12  6  1  0
 13 11  1  0
 13 15  1  0
 14 13  2  0
 16 15  1  0
 16 22  1  0
 16 17  1  1
 17 18  1  0
 19 18  1  0
 20 19  1  0
 20 21  1  0
 22 23  1  0
 24 22  2  0
M  END
$$$$
