TTK.pdb
     RDKit          3D

 24 23  0  0  1  0  0  0  0  0999 V2000
    7.8800  -11.9637   19.8713 C   0  0  0  0  0  0  0  0  0  0  0  0
    8.3288  -13.2908   20.4115 C   0  0  1  0  0  0  0  0  0  0  0  0
    7.3097  -14.2376   20.3327 O   0  0  0  0  0  0  0  0  0  0  0  0
    9.4530  -13.7970   19.5153 C   0  0  2  0  0  0  0  0  0  0  0  0
    8.9202  -13.8740   18.1731 N   0  0  0  0  0  0  0  0  0  0  0  0
    9.9520  -15.1196   19.9858 C   0  0  0  0  0  0  0  0  0  0  0  0
   10.2335  -16.0515   19.1903 O   0  0  0  0  0  0  0  0  0  0  0  0
   12.0323  -16.7562   19.7463 C   0  0  0  0  0  0  0  0  0  0  0  0
   12.1998  -16.7315   21.2532 C   0  0  1  0  0  0  0  0  0  0  0  0
   13.0479  -15.6995   21.5938 O   0  0  0  0  0  0  0  0  0  0  0  0
   10.8210  -16.5913   21.8486 C   0  0  2  0  0  0  0  0  0  0  0  0
   10.1405  -15.4066   21.3772 N   0  0  0  0  0  0  0  0  0  0  0  0
   10.8153  -16.7094   23.3245 C   0  0  0  0  0  0  0  0  0  0  0  0
   10.9238  -15.6457   23.9776 O   0  0  0  0  0  0  0  0  0  0  0  0
   10.6965  -17.9325   24.0222 N   0  0  0  0  0  0  0  0  0  0  0  0
   10.0566  -18.0684   25.3474 C   0  0  1  0  0  0  0  0  0  0  0  0
    9.0040  -19.0627   25.3746 C   0  0  0  0  0  0  0  0  0  0  0  0
    7.7991  -18.8975   24.5350 C   0  0  0  0  0  0  0  0  0  0  0  0
    6.8003  -19.9844   24.4532 C   0  0  0  0  0  0  0  0  0  0  0  0
    5.6305  -19.9246   23.5756 C   0  0  0  0  0  0  0  0  0  0  0  0
    4.7623  -21.0602   23.5408 N   0  0  0  0  0  0  0  0  0  0  0  0
   11.1731  -18.3582   26.3347 C   0  0  0  0  0  0  0  0  0  0  0  0
   11.0092  -18.2327   27.7016 O   0  0  0  0  0  0  0  0  0  0  0  0
   12.2672  -18.7212   25.9082 O   0  0  0  0  0  0  0  0  0  0  0  0
  2  3  1  0
  2  1  1  6
  4  2  1  0
  4  5  1  6
  6  7  2  0
  6  4  1  0
  9  8  1  6
  9 10  1  0
  9 11  1  0
 11 12  1  1
 12  6  1  0
 13 11  1  0
 13 15  1  0
 14 13  2  0
 16 15  1  0
 16 22  1  0
 16 17  1  6
 17 18  1  0
 19 18  1  0
 20 19  1  0
 20 21  1  0
 22 23  1  0
 24 22  2  0
M  END
$$$$
