TTK.pdb
     RDKit          3D

 24 23  0  0  1  0  0  0  0  0999 V2000
    7.5505  -11.7888   19.6579 C   0  0  0  0  0  0  0  0  0  0  0  0
    8.4033  -12.9914   19.9429 C   0  0  1  0  0  0  0  0  0  0  0  0
    7.6429  -14.0363   20.4633 O   0  0  0  0  0  0  0  0  0  0  0  0
    8.9591  -13.4879   18.6133 C   0  0  2  0  0  0  0  0  0  0  0  0
    7.8267  -13.8702   17.7992 N   0  0  0  0  0  0  0  0  0  0  0  0
    9.8961  -14.6272   18.8222 C   0  0  0  0  0  0  0  0  0  0  0  0
    9.5409  -15.8237   18.6708 O   0  0  0  0  0  0  0  0  0  0  0  0
   13.0790  -15.5604   17.3029 C   0  0  0  0  0  0  0  0  0  0  0  0
   13.4410  -15.4574   18.7718 C   0  0  1  0  0  0  0  0  0  0  0  0
   14.1532  -14.2953   18.9783 O   0  0  0  0  0  0  0  0  0  0  0  0
   12.1499  -15.5116   19.5497 C   0  0  2  0  0  0  0  0  0  0  0  0
   11.2610  -14.4241   19.2091 N   0  0  0  0  0  0  0  0  0  0  0  0
   12.3609  -15.6467   21.0090 C   0  0  0  0  0  0  0  0  0  0  0  0
   12.3783  -14.5879   21.6786 O   0  0  0  0  0  0  0  0  0  0  0  0
   12.5401  -16.8807   21.6740 N   0  0  0  0  0  0  0  0  0  0  0  0
   12.8255  -17.0065   23.1185 C   0  0  1  0  0  0  0  0  0  0  0  0
   12.3193  -18.2341   23.6964 C   0  0  0  0  0  0  0  0  0  0  0  0
   12.5930  -18.5617   25.1112 C   0  0  0  0  0  0  0  0  0  0  0  0
   12.0174  -19.7837   25.7120 C   0  0  0  0  0  0  0  0  0  0  0  0
   12.1655  -20.1187   27.1290 C   0  0  0  0  0  0  0  0  0  0  0  0
   11.4370  -21.2424   27.6300 N   0  0  0  0  0  0  0  0  0  0  0  0
   14.3280  -16.8524   23.2735 C   0  0  0  0  0  0  0  0  0  0  0  0
   14.9091  -16.3332   24.4154 O   0  0  0  0  0  0  0  0  0  0  0  0
   15.0618  -17.2032   22.3520 O   0  0  0  0  0  0  0  0  0  0  0  0
  2  3  1  0
  2  1  1  6
  4  2  1  0
  4  5  1  6
  6  7  2  0
  6  4  1  0
  9  8  1  6
  9 10  1  0
  9 11  1  0
 11 12  1  1
 12  6  1  0
 13 11  1  0
 13 15  1  0
 14 13  2  0
 16 15  1  0
 16 22  1  0
 16 17  1  6
 17 18  1  0
 19 18  1  0
 20 19  1  0
 20 21  1  0
 22 23  1  0
 24 22  2  0
M  END
$$$$
