TTK.pdb
     RDKit          3D

 24 23  0  0  1  0  0  0  0  0999 V2000
    8.6095  -18.3549   16.3936 C   0  0  0  0  0  0  0  0  0  0  0  0
    9.2790  -17.4995   15.3569 C   0  0  1  0  0  0  0  0  0  0  0  0
    8.8517  -17.8355   14.0741 O   0  0  0  0  0  0  0  0  0  0  0  0
    8.8367  -16.0598   15.5916 C   0  0  2  0  0  0  0  0  0  0  0  0
    9.3400  -15.2782   14.4839 N   0  0  0  0  0  0  0  0  0  0  0  0
    9.3456  -15.5546   16.8975 C   0  0  0  0  0  0  0  0  0  0  0  0
   10.5737  -15.4261   17.1339 O   0  0  0  0  0  0  0  0  0  0  0  0
    7.7816  -12.6304   19.1269 C   0  0  0  0  0  0  0  0  0  0  0  0
    7.9402  -13.8795   19.9719 C   0  0  1  0  0  0  0  0  0  0  0  0
    6.7048  -14.4676   20.1401 O   0  0  0  0  0  0  0  0  0  0  0  0
    8.9324  -14.7684   19.2643 C   0  0  2  0  0  0  0  0  0  0  0  0
    8.4614  -15.1849   17.9630 N   0  0  0  0  0  0  0  0  0  0  0  0
    9.3904  -15.9014   20.1002 C   0  0  0  0  0  0  0  0  0  0  0  0
    8.9317  -17.0331   19.8198 O   0  0  0  0  0  0  0  0  0  0  0  0
   10.2987  -15.7778   21.1757 N   0  0  0  0  0  0  0  0  0  0  0  0
   10.7616  -16.9134   22.0004 C   0  0  1  0  0  0  0  0  0  0  0  0
   12.1304  -17.2985   21.7262 C   0  0  0  0  0  0  0  0  0  0  0  0
   12.4613  -18.0599   20.5036 C   0  0  0  0  0  0  0  0  0  0  0  0
   13.8536  -18.4894   20.2540 C   0  0  0  0  0  0  0  0  0  0  0  0
   14.2617  -19.1976   19.0399 C   0  0  0  0  0  0  0  0  0  0  0  0
   15.6346  -19.5776   18.9172 N   0  0  0  0  0  0  0  0  0  0  0  0
   10.5358  -16.5123   23.4473 C   0  0  0  0  0  0  0  0  0  0  0  0
   10.1872  -17.4236   24.4266 O   0  0  0  0  0  0  0  0  0  0  0  0
   10.6690  -15.3330   23.7671 O   0  0  0  0  0  0  0  0  0  0  0  0
  2  3  1  0
  2  1  1  1
  4  2  1  0
  4  5  1  6
  6  7  2  0
  6  4  1  0
  9  8  1  6
  9 10  1  0
  9 11  1  0
 11 12  1  6
 12  6  1  0
 13 11  1  0
 13 15  1  0
 14 13  2  0
 16 15  1  0
 16 22  1  0
 16 17  1  1
 17 18  1  0
 19 18  1  0
 20 19  1  0
 20 21  1  0
 22 23  1  0
 24 22  2  0
M  END
$$$$
