TTK.pdb
     RDKit          3D

 24 23  0  0  1  0  0  0  0  0999 V2000
    7.5490  -19.9863   16.2225 C   0  0  0  0  0  0  0  0  0  0  0  0
    8.0292  -18.5832   16.4575 C   0  0  1  0  0  0  0  0  0  0  0  0
    7.0805  -17.6502   16.0445 O   0  0  0  0  0  0  0  0  0  0  0  0
    8.1865  -18.3958   17.9620 C   0  0  2  0  0  0  0  0  0  0  0  0
    6.8737  -18.5573   18.5467 N   0  0  0  0  0  0  0  0  0  0  0  0
    8.7662  -17.0589   18.2724 C   0  0  0  0  0  0  0  0  0  0  0  0
    9.9418  -16.7478   17.9536 O   0  0  0  0  0  0  0  0  0  0  0  0
    8.3798  -12.4091   19.7571 C   0  0  0  0  0  0  0  0  0  0  0  0
    7.6702  -13.6335   19.2125 C   0  0  1  0  0  0  0  0  0  0  0  0
    7.3406  -13.4115   17.8924 O   0  0  0  0  0  0  0  0  0  0  0  0
    8.6000  -14.8054   19.4059 C   0  0  2  0  0  0  0  0  0  0  0  0
    8.0145  -16.0473   18.9546 N   0  0  0  0  0  0  0  0  0  0  0  0
    9.1420  -14.8909   20.7811 C   0  0  0  0  0  0  0  0  0  0  0  0
    8.3137  -14.8409   21.7198 O   0  0  0  0  0  0  0  0  0  0  0  0
   10.5155  -15.0233   21.0858 N   0  0  0  0  0  0  0  0  0  0  0  0
   11.0306  -15.4996   22.3865 C   0  0  1  0  0  0  0  0  0  0  0  0
   10.5644  -16.8257   22.7350 C   0  0  0  0  0  0  0  0  0  0  0  0
   11.0437  -17.4858   23.9673 C   0  0  0  0  0  0  0  0  0  0  0  0
   10.5628  -18.8395   24.3159 C   0  0  0  0  0  0  0  0  0  0  0  0
   11.0502  -19.5810   25.4799 C   0  0  0  0  0  0  0  0  0  0  0  0
   10.4936  -20.8743   25.7296 N   0  0  0  0  0  0  0  0  0  0  0  0
   12.5440  -15.4033   22.3094 C   0  0  0  0  0  0  0  0  0  0  0  0
   13.2080  -15.0242   21.1577 O   0  0  0  0  0  0  0  0  0  0  0  0
   13.2102  -15.6695   23.3074 O   0  0  0  0  0  0  0  0  0  0  0  0
  2  3  1  0
  2  1  1  1
  4  2  1  0
  4  5  1  1
  6  7  2  0
  6  4  1  0
  9  8  1  6
  9 10  1  0
  9 11  1  0
 11 12  1  1
 12  6  1  0
 13 11  1  0
 13 15  1  0
 14 13  2  0
 16 15  1  0
 16 22  1  0
 16 17  1  6
 17 18  1  0
 19 18  1  0
 20 19  1  0
 20 21  1  0
 22 23  1  0
 24 22  2  0
M  END
$$$$
