TTK.pdb
     RDKit          3D

 24 23  0  0  1  0  0  0  0  0999 V2000
    4.8453  -17.3834   22.9910 C   0  0  0  0  0  0  0  0  0  0  0  0
    4.7017  -18.3828   21.8796 C   0  0  1  0  0  0  0  0  0  0  0  0
    3.3875  -18.8330   21.7736 O   0  0  0  0  0  0  0  0  0  0  0  0
    5.0149  -17.6658   20.5715 C   0  0  2  0  0  0  0  0  0  0  0  0
    4.7047  -18.5870   19.5008 N   0  0  0  0  0  0  0  0  0  0  0  0
    6.4405  -17.2349   20.5308 C   0  0  0  0  0  0  0  0  0  0  0  0
    7.3898  -18.0591   20.5204 O   0  0  0  0  0  0  0  0  0  0  0  0
    7.7908  -14.0541   18.6331 C   0  0  0  0  0  0  0  0  0  0  0  0
    8.3866  -14.0317   20.0274 C   0  0  1  0  0  0  0  0  0  0  0  0
    7.7829  -13.0303   20.7576 O   0  0  0  0  0  0  0  0  0  0  0  0
    8.1827  -15.4051   20.6169 C   0  0  2  0  0  0  0  0  0  0  0  0
    6.8130  -15.8513   20.5011 N   0  0  0  0  0  0  0  0  0  0  0  0
    8.7129  -15.5262   21.9941 C   0  0  0  0  0  0  0  0  0  0  0  0
    7.8855  -15.4266   22.9296 O   0  0  0  0  0  0  0  0  0  0  0  0
   10.0744  -15.7435   22.3040 N   0  0  0  0  0  0  0  0  0  0  0  0
   10.5951  -15.8896   23.6793 C   0  0  1  0  0  0  0  0  0  0  0  0
   10.0077  -17.0013   24.3979 C   0  0  0  0  0  0  0  0  0  0  0  0
   10.4757  -17.3424   25.7575 C   0  0  0  0  0  0  0  0  0  0  0  0
    9.9752  -18.5613   26.4277 C   0  0  0  0  0  0  0  0  0  0  0  0
   10.4237  -18.9788   27.7569 C   0  0  0  0  0  0  0  0  0  0  0  0
    9.8117  -20.1338   28.3366 N   0  0  0  0  0  0  0  0  0  0  0  0
   12.1050  -15.9927   23.5571 C   0  0  0  0  0  0  0  0  0  0  0  0
   12.9462  -15.9336   24.6526 O   0  0  0  0  0  0  0  0  0  0  0  0
   12.6050  -16.1365   22.4435 O   0  0  0  0  0  0  0  0  0  0  0  0
  2  3  1  0
  2  1  1  1
  4  2  1  0
  4  5  1  6
  6  7  2  0
  6  4  1  0
  9  8  1  6
  9 10  1  0
  9 11  1  0
 11 12  1  1
 12  6  1  0
 13 11  1  0
 13 15  1  0
 14 13  2  0
 16 15  1  0
 16 22  1  0
 16 17  1  6
 17 18  1  0
 19 18  1  0
 20 19  1  0
 20 21  1  0
 22 23  1  0
 24 22  2  0
M  END
$$$$
