TTK.pdb
     RDKit          3D

 24 23  0  0  1  0  0  0  0  0999 V2000
    8.6276  -16.7470   17.5188 C   0  0  0  0  0  0  0  0  0  0  0  0
    8.9436  -15.3913   16.9559 C   0  0  1  0  0  0  0  0  0  0  0  0
    8.4905  -15.2727   15.6437 O   0  0  0  0  0  0  0  0  0  0  0  0
    8.1689  -14.3619   17.7704 C   0  0  2  0  0  0  0  0  0  0  0  0
    8.2662  -13.1044   17.0630 N   0  0  0  0  0  0  0  0  0  0  0  0
    8.7150  -14.2592   19.1527 C   0  0  0  0  0  0  0  0  0  0  0  0
    9.8334  -13.7383   19.3946 O   0  0  0  0  0  0  0  0  0  0  0  0
    7.0158  -13.0514   22.4043 C   0  0  0  0  0  0  0  0  0  0  0  0
    7.5181  -14.4559   22.6772 C   0  0  1  0  0  0  0  0  0  0  0  0
    6.4485  -15.3255   22.6657 O   0  0  0  0  0  0  0  0  0  0  0  0
    8.5515  -14.7679   21.6237 C   0  0  2  0  0  0  0  0  0  0  0  0
    7.9944  -14.7500   20.2902 N   0  0  0  0  0  0  0  0  0  0  0  0
    9.3144  -16.0036   21.9120 C   0  0  0  0  0  0  0  0  0  0  0  0
    9.3117  -16.8899   21.0264 O   0  0  0  0  0  0  0  0  0  0  0  0
   10.0311  -16.2328   23.1082 N   0  0  0  0  0  0  0  0  0  0  0  0
   10.8025  -17.4623   23.3860 C   0  0  1  0  0  0  0  0  0  0  0  0
   11.8770  -17.6886   22.4418 C   0  0  0  0  0  0  0  0  0  0  0  0
   12.8012  -18.8278   22.6215 C   0  0  0  0  0  0  0  0  0  0  0  0
   13.9461  -19.0031   21.7027 C   0  0  0  0  0  0  0  0  0  0  0  0
   14.8410  -20.1598   21.7595 C   0  0  0  0  0  0  0  0  0  0  0  0
   15.8340  -20.2873   20.7386 N   0  0  0  0  0  0  0  0  0  0  0  0
   11.2864  -17.3496   24.8208 C   0  0  0  0  0  0  0  0  0  0  0  0
   10.9818  -16.2682   25.6263 O   0  0  0  0  0  0  0  0  0  0  0  0
   11.9744  -18.2531   25.2909 O   0  0  0  0  0  0  0  0  0  0  0  0
  2  3  1  0
  2  1  1  1
  4  2  1  0
  4  5  1  6
  6  7  2  0
  6  4  1  0
  9  8  1  6
  9 10  1  0
  9 11  1  0
 11 12  1  6
 12  6  1  0
 13 11  1  0
 13 15  1  0
 14 13  2  0
 16 15  1  0
 16 22  1  0
 16 17  1  6
 17 18  1  0
 19 18  1  0
 20 19  1  0
 20 21  1  0
 22 23  1  0
 24 22  2  0
M  END
$$$$
