FED.pdb
     RDKit          3D

 29 29  0  0  1  0  0  0  0  0999 V2000
   27.3596  -22.1124  -12.4582 N   0  0  0  0  0  0  0  0  0  0  0  0
   26.3541  -21.4193  -11.7180 C   0  0  1  0  0  0  0  0  0  0  0  0
   26.8926  -20.1111  -11.1219 C   0  0  0  0  0  0  0  0  0  0  0  0
   27.4630  -20.2836   -9.7846 C   0  0  0  0  0  0  0  0  0  0  0  0
   28.8097  -20.5441   -9.6525 C   0  0  0  0  0  0  0  0  0  0  0  0
   29.3675  -20.7128   -8.3851 C   0  0  0  0  0  0  0  0  0  0  0  0
   28.5569  -20.6160   -7.2700 C   0  0  0  0  0  0  0  0  0  0  0  0
   27.2122  -20.3567   -7.3869 C   0  0  0  0  0  0  0  0  0  0  0  0
   26.6743  -20.1917   -8.6548 C   0  0  0  0  0  0  0  0  0  0  0  0
   25.2344  -21.0074  -12.6034 C   0  0  0  0  0  0  0  0  0  0  0  0
   25.4948  -20.7758  -13.7969 O   0  0  0  0  0  0  0  0  0  0  0  0
   23.9068  -20.8688  -12.1564 N   0  0  0  0  0  0  0  0  0  0  0  0
   22.7525  -20.6241  -12.9332 C   0  0  1  0  0  0  0  0  0  0  0  0
   21.4112  -20.9610  -12.3579 C   0  0  0  0  0  0  0  0  0  0  0  0
   20.2460  -20.8399  -13.2892 C   0  0  0  0  0  0  0  0  0  0  0  0
   19.0147  -21.3476  -12.5842 C   0  0  0  0  0  0  0  0  0  0  0  0
   17.8807  -21.2962  -13.1033 O   0  0  0  0  0  0  0  0  0  0  0  0
   22.7757  -19.4297  -13.7973 C   0  0  0  0  0  0  0  0  0  0  0  0
   23.0108  -18.2668  -13.3665 O   0  0  0  0  0  0  0  0  0  0  0  0
   19.2051  -21.8803  -11.3174 O   0  0  0  0  0  0  0  0  0  0  0  0
   22.5273  -19.5383  -15.1920 N   0  0  0  0  0  0  0  0  0  0  0  0
   22.5667  -18.3420  -16.0817 C   0  0  1  0  0  0  0  0  0  0  0  0
   23.7906  -18.5017  -16.9235 C   0  0  0  0  0  0  0  0  0  0  0  0
   23.9137  -17.4504  -17.9299 C   0  0  0  0  0  0  0  0  0  0  0  0
   23.0942  -16.5216  -18.0063 O   0  0  0  0  0  0  0  0  0  0  0  0
   21.2950  -18.3132  -16.8418 C   0  0  0  0  0  0  0  0  0  0  0  0
   20.5285  -17.3339  -16.7834 O   0  0  0  0  0  0  0  0  0  0  0  0
   24.9579  -17.4253  -18.8656 O   0  0  0  0  0  0  0  0  0  0  0  0
   20.9875  -19.4291  -17.6283 O   0  0  0  0  0  0  0  0  0  0  0  0
  2  1  1  6
  2 10  1  0
  2  3  1  0
  3  4  1  0
  4  9  2  0
  4  5  1  0
  5  6  2  0
  6  7  1  0
  8  7  2  0
  9  8  1  0
 10 11  2  0
 10 12  1  0
 12 13  1  0
 13 14  1  1
 14 15  1  0
 16 20  1  0
 16 15  1  0
 17 16  2  0
 18 21  1  0
 18 13  1  0
 19 18  2  0
 22 26  1  0
 22 21  1  0
 22 23  1  6
 23 24  1  0
 24 25  2  0
 26 29  1  0
 27 26  2  0
 28 24  1  0
M  END
$$$$
