FED.pdb
     RDKit          3D

 29 29  0  0  1  0  0  0  0  0999 V2000
   17.4320  -11.9916  -17.1795 N   0  0  0  0  0  0  0  0  0  0  0  0
   18.0164  -10.8631  -17.8309 C   0  0  1  0  0  0  0  0  0  0  0  0
   16.9605   -9.8072  -18.1868 C   0  0  0  0  0  0  0  0  0  0  0  0
   15.9855  -10.2816  -19.1706 C   0  0  0  0  0  0  0  0  0  0  0  0
   16.3798  -10.4669  -20.4779 C   0  0  0  0  0  0  0  0  0  0  0  0
   15.4620  -10.9167  -21.4272 C   0  0  0  0  0  0  0  0  0  0  0  0
   14.1596  -11.1726  -21.0421 C   0  0  0  0  0  0  0  0  0  0  0  0
   13.7525  -10.9922  -19.7418 C   0  0  0  0  0  0  0  0  0  0  0  0
   14.6784  -10.5444  -18.8110 C   0  0  0  0  0  0  0  0  0  0  0  0
   18.9698  -10.1664  -16.9292 C   0  0  0  0  0  0  0  0  0  0  0  0
   18.5251   -9.6975  -15.8670 O   0  0  0  0  0  0  0  0  0  0  0  0
   20.3386  -10.0148  -17.2206 N   0  0  0  0  0  0  0  0  0  0  0  0
   21.3065   -9.2966  -16.4839 C   0  0  1  0  0  0  0  0  0  0  0  0
   22.7065   -9.8257  -16.4245 C   0  0  0  0  0  0  0  0  0  0  0  0
   22.8452  -11.3132  -16.3360 C   0  0  0  0  0  0  0  0  0  0  0  0
   24.3122  -11.6574  -16.3216 C   0  0  0  0  0  0  0  0  0  0  0  0
   25.2021  -10.7822  -16.3252 O   0  0  0  0  0  0  0  0  0  0  0  0
   21.1984   -7.8263  -16.5038 C   0  0  0  0  0  0  0  0  0  0  0  0
   21.1287   -7.1505  -17.5675 O   0  0  0  0  0  0  0  0  0  0  0  0
   24.6284  -13.0081  -16.3039 O   0  0  0  0  0  0  0  0  0  0  0  0
   21.1671   -7.0847  -15.2922 N   0  0  0  0  0  0  0  0  0  0  0  0
   21.0464   -5.5981  -15.2964 C   0  0  1  0  0  0  0  0  0  0  0  0
   19.5927   -5.3079  -15.1106 C   0  0  0  0  0  0  0  0  0  0  0  0
   19.3215   -3.8770  -15.0014 C   0  0  0  0  0  0  0  0  0  0  0  0
   19.0342   -3.3486  -13.9159 O   0  0  0  0  0  0  0  0  0  0  0  0
   21.9214   -5.0798  -14.2186 C   0  0  0  0  0  0  0  0  0  0  0  0
   22.4548   -5.8451  -13.3941 O   0  0  0  0  0  0  0  0  0  0  0  0
   19.3686   -3.0173  -16.1084 O   0  0  0  0  0  0  0  0  0  0  0  0
   22.1255   -3.6965  -14.1620 O   0  0  0  0  0  0  0  0  0  0  0  0
  2  1  1  1
  2 10  1  0
  2  3  1  0
  3  4  1  0
  4  9  2  0
  4  5  1  0
  5  6  2  0
  6  7  1  0
  8  7  2  0
  9  8  1  0
 10 11  2  0
 10 12  1  0
 12 13  1  0
 13 14  1  6
 14 15  1  0
 16 20  1  0
 16 15  1  0
 17 16  2  0
 18 21  1  0
 18 13  1  0
 19 18  2  0
 22 26  1  0
 22 21  1  0
 22 23  1  1
 23 24  1  0
 24 25  2  0
 26 29  1  0
 27 26  2  0
 28 24  1  0
M  END
$$$$
