FED.pdb
     RDKit          3D

 29 29  0  0  1  0  0  0  0  0999 V2000
   28.0158  -21.0848  -16.7470 N   0  0  0  0  0  0  0  0  0  0  0  0
   27.6461  -20.2350  -15.6605 C   0  0  1  0  0  0  0  0  0  0  0  0
   26.8473  -19.0162  -16.1433 C   0  0  0  0  0  0  0  0  0  0  0  0
   27.6538  -18.0757  -16.9235 C   0  0  0  0  0  0  0  0  0  0  0  0
   28.3378  -17.0712  -16.2740 C   0  0  0  0  0  0  0  0  0  0  0  0
   29.1088  -16.1663  -17.0037 C   0  0  0  0  0  0  0  0  0  0  0  0
   29.1776  -16.2893  -18.3785 C   0  0  0  0  0  0  0  0  0  0  0  0
   28.5005  -17.2863  -19.0394 C   0  0  0  0  0  0  0  0  0  0  0  0
   27.7386  -18.1773  -18.2981 C   0  0  0  0  0  0  0  0  0  0  0  0
   26.7394  -20.9423  -14.7199 C   0  0  0  0  0  0  0  0  0  0  0  0
   25.9658  -21.7938  -15.1912 O   0  0  0  0  0  0  0  0  0  0  0  0
   26.7171  -20.6940  -13.3345 N   0  0  0  0  0  0  0  0  0  0  0  0
   25.6185  -20.8015  -12.4529 C   0  0  1  0  0  0  0  0  0  0  0  0
   25.8639  -20.6997  -10.9789 C   0  0  0  0  0  0  0  0  0  0  0  0
   24.6977  -21.0113  -10.0941 C   0  0  0  0  0  0  0  0  0  0  0  0
   25.1354  -20.8735   -8.6587 C   0  0  0  0  0  0  0  0  0  0  0  0
   24.3919  -21.1774   -7.7033 O   0  0  0  0  0  0  0  0  0  0  0  0
   24.3415  -20.2245  -12.9115 C   0  0  0  0  0  0  0  0  0  0  0  0
   24.2426  -19.0706  -13.4132 O   0  0  0  0  0  0  0  0  0  0  0  0
   26.4178  -20.3876   -8.4491 O   0  0  0  0  0  0  0  0  0  0  0  0
   23.1322  -20.9629  -12.8056 N   0  0  0  0  0  0  0  0  0  0  0  0
   21.8441  -20.4190  -13.3246 C   0  0  1  0  0  0  0  0  0  0  0  0
   21.9108  -20.5641  -14.8100 C   0  0  0  0  0  0  0  0  0  0  0  0
   20.8559  -19.8163  -15.4890 C   0  0  0  0  0  0  0  0  0  0  0  0
   20.1587  -20.3321  -16.3766 O   0  0  0  0  0  0  0  0  0  0  0  0
   20.7494  -21.1812  -12.6791 C   0  0  0  0  0  0  0  0  0  0  0  0
   20.9073  -22.3634  -12.3223 O   0  0  0  0  0  0  0  0  0  0  0  0
   20.5673  -18.4786  -15.1824 O   0  0  0  0  0  0  0  0  0  0  0  0
   19.5303  -20.5218  -12.4857 O   0  0  0  0  0  0  0  0  0  0  0  0
  2  1  1  6
  2 10  1  0
  2  3  1  0
  3  4  1  0
  4  9  2  0
  4  5  1  0
  5  6  2  0
  6  7  1  0
  8  7  2  0
  9  8  1  0
 10 11  2  0
 10 12  1  0
 12 13  1  0
 13 14  1  1
 14 15  1  0
 16 20  1  0
 16 15  1  0
 17 16  2  0
 18 21  1  0
 18 13  1  0
 19 18  2  0
 22 26  1  0
 22 21  1  0
 22 23  1  6
 23 24  1  0
 24 25  2  0
 26 29  1  0
 27 26  2  0
 28 24  1  0
M  END
$$$$
