FED.pdb
     RDKit          3D

 29 29  0  0  1  0  0  0  0  0999 V2000
   27.0037  -18.4810   -8.4348 N   0  0  0  0  0  0  0  0  0  0  0  0
   27.0397  -19.8692   -8.7681 C   0  0  1  0  0  0  0  0  0  0  0  0
   26.8449  -20.7529   -7.5281 C   0  0  0  0  0  0  0  0  0  0  0  0
   27.8178  -20.4762   -6.4695 C   0  0  0  0  0  0  0  0  0  0  0  0
   29.1495  -20.7572   -6.6850 C   0  0  0  0  0  0  0  0  0  0  0  0
   30.0881  -20.5010   -5.6854 C   0  0  0  0  0  0  0  0  0  0  0  0
   29.6677  -19.9648   -4.4829 C   0  0  0  0  0  0  0  0  0  0  0  0
   28.3428  -19.6797   -4.2543 C   0  0  0  0  0  0  0  0  0  0  0  0
   27.4231  -19.9408   -5.2593 C   0  0  0  0  0  0  0  0  0  0  0  0
   25.9183  -20.2251   -9.6753 C   0  0  0  0  0  0  0  0  0  0  0  0
   24.7630  -19.9613   -9.2992 O   0  0  0  0  0  0  0  0  0  0  0  0
   26.1033  -20.8411  -10.9274 N   0  0  0  0  0  0  0  0  0  0  0  0
   25.2920  -20.7248  -12.0781 C   0  0  1  0  0  0  0  0  0  0  0  0
   25.9120  -20.9474  -13.4232 C   0  0  0  0  0  0  0  0  0  0  0  0
   27.3122  -20.4473  -13.5940 C   0  0  0  0  0  0  0  0  0  0  0  0
   28.0689  -21.4262  -14.4542 C   0  0  0  0  0  0  0  0  0  0  0  0
   27.5433  -22.4673  -14.8992 O   0  0  0  0  0  0  0  0  0  0  0  0
   23.8959  -21.1824  -11.9541 C   0  0  0  0  0  0  0  0  0  0  0  0
   23.5511  -22.1745  -11.2541 O   0  0  0  0  0  0  0  0  0  0  0  0
   29.3913  -21.1106  -14.7303 O   0  0  0  0  0  0  0  0  0  0  0  0
   22.8480  -20.5078  -12.6364 N   0  0  0  0  0  0  0  0  0  0  0  0
   21.4236  -20.9158  -12.4661 C   0  0  1  0  0  0  0  0  0  0  0  0
   20.6399  -19.6448  -12.4167 C   0  0  0  0  0  0  0  0  0  0  0  0
   19.2062  -19.8816  -12.2700 C   0  0  0  0  0  0  0  0  0  0  0  0
   18.7478  -21.0220  -12.0983 O   0  0  0  0  0  0  0  0  0  0  0  0
   21.0802  -21.8084  -13.5980 C   0  0  0  0  0  0  0  0  0  0  0  0
   20.3054  -22.7716  -13.4503 O   0  0  0  0  0  0  0  0  0  0  0  0
   18.2653  -18.8427  -12.3135 O   0  0  0  0  0  0  0  0  0  0  0  0
   21.6602  -21.5279  -14.8404 O   0  0  0  0  0  0  0  0  0  0  0  0
  2  1  1  1
  2 10  1  0
  2  3  1  0
  3  4  1  0
  4  9  2  0
  4  5  1  0
  5  6  2  0
  6  7  1  0
  8  7  2  0
  9  8  1  0
 10 11  2  0
 10 12  1  0
 12 13  1  0
 13 14  1  6
 14 15  1  0
 16 20  1  0
 16 15  1  0
 17 16  2  0
 18 21  1  0
 18 13  1  0
 19 18  2  0
 22 26  1  0
 22 21  1  0
 22 23  1  6
 23 24  1  0
 24 25  2  0
 26 29  1  0
 27 26  2  0
 28 24  1  0
M  END
$$$$
