FED.pdb
     RDKit          3D

 29 29  0  0  1  0  0  0  0  0999 V2000
   23.7683  -13.8832  -18.0549 N   0  0  0  0  0  0  0  0  0  0  0  0
   23.6539  -13.2384  -16.7859 C   0  0  1  0  0  0  0  0  0  0  0  0
   25.0220  -12.7844  -16.2578 C   0  0  0  0  0  0  0  0  0  0  0  0
   25.9379  -13.8991  -16.0083 C   0  0  0  0  0  0  0  0  0  0  0  0
   25.8358  -14.6071  -14.8305 C   0  0  0  0  0  0  0  0  0  0  0  0
   26.7025  -15.6705  -14.5775 C   0  0  0  0  0  0  0  0  0  0  0  0
   27.6593  -16.0030  -15.5177 C   0  0  0  0  0  0  0  0  0  0  0  0
   27.7724  -15.3055  -16.6966 C   0  0  0  0  0  0  0  0  0  0  0  0
   26.9024  -14.2510  -16.9317 C   0  0  0  0  0  0  0  0  0  0  0  0
   22.8502  -11.9936  -16.8949 C   0  0  0  0  0  0  0  0  0  0  0  0
   22.9102  -11.3571  -17.9612 O   0  0  0  0  0  0  0  0  0  0  0  0
   22.0334  -11.5080  -15.8565 N   0  0  0  0  0  0  0  0  0  0  0  0
   21.1434  -10.4116  -15.8953 C   0  0  1  0  0  0  0  0  0  0  0  0
   19.6733  -10.6711  -15.7731 C   0  0  0  0  0  0  0  0  0  0  0  0
   19.1577  -11.8843  -16.4816 C   0  0  0  0  0  0  0  0  0  0  0  0
   17.6742  -11.9871  -16.2375 C   0  0  0  0  0  0  0  0  0  0  0  0
   16.8332  -11.6998  -17.1139 O   0  0  0  0  0  0  0  0  0  0  0  0
   21.6071   -9.1588  -15.2712 C   0  0  0  0  0  0  0  0  0  0  0  0
   22.2842   -9.1238  -14.2066 O   0  0  0  0  0  0  0  0  0  0  0  0
   17.2851  -12.4211  -14.9786 O   0  0  0  0  0  0  0  0  0  0  0  0
   21.3035   -7.9006  -15.8573 N   0  0  0  0  0  0  0  0  0  0  0  0
   21.8329   -6.6301  -15.2829 C   0  0  1  0  0  0  0  0  0  0  0  0
   21.9273   -5.6748  -16.4277 C   0  0  0  0  0  0  0  0  0  0  0  0
   22.3133   -4.3326  -16.0007 C   0  0  0  0  0  0  0  0  0  0  0  0
   23.3605   -4.1254  -15.3679 O   0  0  0  0  0  0  0  0  0  0  0  0
   20.9061   -6.2112  -14.2052 C   0  0  0  0  0  0  0  0  0  0  0  0
   19.7417   -6.6480  -14.1473 O   0  0  0  0  0  0  0  0  0  0  0  0
   21.5304   -3.2025  -16.2773 O   0  0  0  0  0  0  0  0  0  0  0  0
   21.3891   -5.3052  -13.2542 O   0  0  0  0  0  0  0  0  0  0  0  0
  2  1  1  6
  2 10  1  0
  2  3  1  0
  3  4  1  0
  4  9  2  0
  4  5  1  0
  5  6  2  0
  6  7  1  0
  8  7  2  0
  9  8  1  0
 10 11  2  0
 10 12  1  0
 12 13  1  0
 13 14  1  1
 14 15  1  0
 16 20  1  0
 16 15  1  0
 17 16  2  0
 18 21  1  0
 18 13  1  0
 19 18  2  0
 22 26  1  0
 22 21  1  0
 22 23  1  6
 23 24  1  0
 24 25  2  0
 26 29  1  0
 27 26  2  0
 28 24  1  0
M  END
$$$$
