FED.pdb
     RDKit          3D

 29 29  0  0  1  0  0  0  0  0999 V2000
   21.0855   -8.3052  -13.2538 N   0  0  0  0  0  0  0  0  0  0  0  0
   21.8372   -7.1647  -13.6703 C   0  0  1  0  0  0  0  0  0  0  0  0
   23.2674   -7.5482  -14.0755 C   0  0  0  0  0  0  0  0  0  0  0  0
   23.3337   -8.8090  -14.8167 C   0  0  0  0  0  0  0  0  0  0  0  0
   24.1445   -9.8229  -14.3546 C   0  0  0  0  0  0  0  0  0  0  0  0
   24.2198  -11.0293  -15.0509 C   0  0  0  0  0  0  0  0  0  0  0  0
   23.4751  -11.1938  -16.2035 C   0  0  0  0  0  0  0  0  0  0  0  0
   22.6623  -10.1911  -16.6758 C   0  0  0  0  0  0  0  0  0  0  0  0
   22.5996   -8.9981  -15.9709 C   0  0  0  0  0  0  0  0  0  0  0  0
   21.2423   -6.5541  -14.8871 C   0  0  0  0  0  0  0  0  0  0  0  0
   20.1686   -7.0221  -15.3042 O   0  0  0  0  0  0  0  0  0  0  0  0
   21.8335   -5.4817  -15.5813 N   0  0  0  0  0  0  0  0  0  0  0  0
   21.2607   -4.6890  -16.6007 C   0  0  1  0  0  0  0  0  0  0  0  0
   21.7777   -3.2989  -16.8099 C   0  0  0  0  0  0  0  0  0  0  0  0
   21.7582   -2.4018  -15.6121 C   0  0  0  0  0  0  0  0  0  0  0  0
   22.2642   -1.0432  -16.0230 C   0  0  0  0  0  0  0  0  0  0  0  0
   21.5102   -0.1640  -16.4883 O   0  0  0  0  0  0  0  0  0  0  0  0
   20.8450   -5.3888  -17.8301 C   0  0  0  0  0  0  0  0  0  0  0  0
   21.5146   -6.3193  -18.3584 O   0  0  0  0  0  0  0  0  0  0  0  0
   23.6226   -0.8151  -15.8573 O   0  0  0  0  0  0  0  0  0  0  0  0
   19.6386   -5.0364  -18.4929 N   0  0  0  0  0  0  0  0  0  0  0  0
   19.2045   -5.7364  -19.7363 C   0  0  1  0  0  0  0  0  0  0  0  0
   17.7822   -6.1311  -19.5049 C   0  0  0  0  0  0  0  0  0  0  0  0
   17.1752   -6.7385  -20.6863 C   0  0  0  0  0  0  0  0  0  0  0  0
   16.4022   -6.1044  -21.4214 O   0  0  0  0  0  0  0  0  0  0  0  0
   19.4084   -4.7995  -20.8661 C   0  0  0  0  0  0  0  0  0  0  0  0
   19.5519   -3.5776  -20.6754 O   0  0  0  0  0  0  0  0  0  0  0  0
   17.4264   -8.0664  -21.0608 O   0  0  0  0  0  0  0  0  0  0  0  0
   19.4334   -5.3401  -22.1567 O   0  0  0  0  0  0  0  0  0  0  0  0
  2  1  1  6
  2 10  1  0
  2  3  1  0
  3  4  1  0
  4  9  2  0
  4  5  1  0
  5  6  2  0
  6  7  1  0
  8  7  2  0
  9  8  1  0
 10 11  2  0
 10 12  1  0
 12 13  1  0
 13 14  1  6
 14 15  1  0
 16 20  1  0
 16 15  1  0
 17 16  2  0
 18 21  1  0
 18 13  1  0
 19 18  2  0
 22 26  1  0
 22 21  1  0
 22 23  1  1
 23 24  1  0
 24 25  2  0
 26 29  1  0
 27 26  2  0
 28 24  1  0
M  END
$$$$
