FED.pdb
     RDKit          3D

 29 29  0  0  1  0  0  0  0  0999 V2000
   24.6762  -11.0525  -17.9856 N   0  0  0  0  0  0  0  0  0  0  0  0
   24.3776  -10.3762  -16.7638 C   0  0  1  0  0  0  0  0  0  0  0  0
   25.5657   -9.5329  -16.2802 C   0  0  0  0  0  0  0  0  0  0  0  0
   26.8054  -10.3033  -16.1655 C   0  0  0  0  0  0  0  0  0  0  0  0
   27.8993   -9.9399  -16.9206 C   0  0  0  0  0  0  0  0  0  0  0  0
   29.0869  -10.6653  -16.8238 C   0  0  0  0  0  0  0  0  0  0  0  0
   29.1521  -11.7468  -15.9657 C   0  0  0  0  0  0  0  0  0  0  0  0
   28.0688  -12.1204  -15.2067 C   0  0  0  0  0  0  0  0  0  0  0  0
   26.8959  -11.3879  -15.3156 C   0  0  0  0  0  0  0  0  0  0  0  0
   23.2680   -9.4065  -16.9529 C   0  0  0  0  0  0  0  0  0  0  0  0
   23.0816   -8.9555  -18.0964 O   0  0  0  0  0  0  0  0  0  0  0  0
   22.4279   -8.9801  -15.9070 N   0  0  0  0  0  0  0  0  0  0  0  0
   21.3377   -8.0850  -15.9820 C   0  0  1  0  0  0  0  0  0  0  0  0
   19.9769   -8.5710  -15.5877 C   0  0  0  0  0  0  0  0  0  0  0  0
   19.9396   -9.7702  -14.6930 C   0  0  0  0  0  0  0  0  0  0  0  0
   18.4993  -10.1267  -14.4298 C   0  0  0  0  0  0  0  0  0  0  0  0
   18.1689  -10.9874  -13.5884 O   0  0  0  0  0  0  0  0  0  0  0  0
   21.6135   -6.6748  -15.6516 C   0  0  0  0  0  0  0  0  0  0  0  0
   22.6591   -6.2941  -15.0558 O   0  0  0  0  0  0  0  0  0  0  0  0
   17.5491   -9.4446  -15.1758 O   0  0  0  0  0  0  0  0  0  0  0  0
   20.6885   -5.6539  -15.9990 N   0  0  0  0  0  0  0  0  0  0  0  0
   20.9874   -4.2160  -15.7392 C   0  0  1  0  0  0  0  0  0  0  0  0
   22.1912   -3.8957  -16.5640 C   0  0  0  0  0  0  0  0  0  0  0  0
   22.5102   -2.4705  -16.5512 C   0  0  0  0  0  0  0  0  0  0  0  0
   22.7695   -1.8697  -15.4967 O   0  0  0  0  0  0  0  0  0  0  0  0
   19.7746   -3.4408  -16.0913 C   0  0  0  0  0  0  0  0  0  0  0  0
   18.8582   -3.9448  -16.7667 O   0  0  0  0  0  0  0  0  0  0  0  0
   22.5432   -1.6979  -17.7210 O   0  0  0  0  0  0  0  0  0  0  0  0
   19.6979   -2.1197  -15.6359 O   0  0  0  0  0  0  0  0  0  0  0  0
  2  1  1  6
  2 10  1  0
  2  3  1  0
  3  4  1  0
  4  9  2  0
  4  5  1  0
  5  6  2  0
  6  7  1  0
  8  7  2  0
  9  8  1  0
 10 11  2  0
 10 12  1  0
 12 13  1  0
 13 14  1  1
 14 15  1  0
 16 20  1  0
 16 15  1  0
 17 16  2  0
 18 21  1  0
 18 13  1  0
 19 18  2  0
 22 26  1  0
 22 21  1  0
 22 23  1  6
 23 24  1  0
 24 25  2  0
 26 29  1  0
 27 26  2  0
 28 24  1  0
M  END
$$$$
