FED.pdb
     RDKit          3D

 29 29  0  0  1  0  0  0  0  0999 V2000
   23.3271  -13.9989  -17.7849 N   0  0  0  0  0  0  0  0  0  0  0  0
   22.0638  -13.6369  -17.2260 C   0  0  1  0  0  0  0  0  0  0  0  0
   21.9655  -14.0359  -15.7469 C   0  0  0  0  0  0  0  0  0  0  0  0
   21.8999  -15.4850  -15.5481 C   0  0  0  0  0  0  0  0  0  0  0  0
   20.7011  -16.1390  -15.7323 C   0  0  0  0  0  0  0  0  0  0  0  0
   20.6223  -17.5190  -15.5448 C   0  0  0  0  0  0  0  0  0  0  0  0
   21.7554  -18.2180  -15.1740 C   0  0  0  0  0  0  0  0  0  0  0  0
   22.9576  -17.5787  -14.9868 C   0  0  0  0  0  0  0  0  0  0  0  0
   23.0178  -16.2061  -15.1775 C   0  0  0  0  0  0  0  0  0  0  0  0
   21.8813  -12.1626  -17.2406 C   0  0  0  0  0  0  0  0  0  0  0  0
   22.8907  -11.4525  -17.0902 O   0  0  0  0  0  0  0  0  0  0  0  0
   20.6306  -11.5406  -17.4149 N   0  0  0  0  0  0  0  0  0  0  0  0
   20.3623  -10.1617  -17.5641 C   0  0  1  0  0  0  0  0  0  0  0  0
   19.3827   -9.7266  -18.6103 C   0  0  0  0  0  0  0  0  0  0  0  0
   19.3140   -8.2555  -18.8770 C   0  0  0  0  0  0  0  0  0  0  0  0
   18.3122   -8.0145  -19.9765 C   0  0  0  0  0  0  0  0  0  0  0  0
   17.6467   -8.9393  -20.4863 O   0  0  0  0  0  0  0  0  0  0  0  0
   20.3584   -9.3500  -16.3333 C   0  0  0  0  0  0  0  0  0  0  0  0
   19.7413   -9.6843  -15.2843 O   0  0  0  0  0  0  0  0  0  0  0  0
   18.1642   -6.7012  -20.3987 O   0  0  0  0  0  0  0  0  0  0  0  0
   21.0691   -8.1211  -16.2724 N   0  0  0  0  0  0  0  0  0  0  0  0
   21.0603   -7.2810  -15.0402 C   0  0  1  0  0  0  0  0  0  0  0  0
   22.1754   -6.3011  -15.2085 C   0  0  0  0  0  0  0  0  0  0  0  0
   22.2916   -5.3912  -14.0720 C   0  0  0  0  0  0  0  0  0  0  0  0
   21.5286   -5.4660  -13.0961 O   0  0  0  0  0  0  0  0  0  0  0  0
   19.7145   -6.6707  -14.9298 C   0  0  0  0  0  0  0  0  0  0  0  0
   19.2148   -6.0312  -15.8739 O   0  0  0  0  0  0  0  0  0  0  0  0
   23.2655   -4.3840  -14.0130 O   0  0  0  0  0  0  0  0  0  0  0  0
   19.0257   -6.8400  -13.7234 O   0  0  0  0  0  0  0  0  0  0  0  0
  2  1  1  1
  2 10  1  0
  2  3  1  0
  3  4  1  0
  4  9  2  0
  4  5  1  0
  5  6  2  0
  6  7  1  0
  8  7  2  0
  9  8  1  0
 10 11  2  0
 10 12  1  0
 12 13  1  0
 13 14  1  1
 14 15  1  0
 16 20  1  0
 16 15  1  0
 17 16  2  0
 18 21  1  0
 18 13  1  0
 19 18  2  0
 22 26  1  0
 22 21  1  0
 22 23  1  6
 23 24  1  0
 24 25  2  0
 26 29  1  0
 27 26  2  0
 28 24  1  0
M  END
$$$$
