FED.pdb
     RDKit          3D

 29 29  0  0  1  0  0  0  0  0999 V2000
   24.8046  -11.8529  -17.8331 N   0  0  0  0  0  0  0  0  0  0  0  0
   24.5368  -11.2615  -16.5611 C   0  0  1  0  0  0  0  0  0  0  0  0
   25.7239  -10.4227  -16.0672 C   0  0  0  0  0  0  0  0  0  0  0  0
   26.9778  -11.1771  -16.0206 C   0  0  0  0  0  0  0  0  0  0  0  0
   27.0429  -12.3346  -15.2759 C   0  0  0  0  0  0  0  0  0  0  0  0
   28.2311  -13.0633  -15.2201 C   0  0  0  0  0  0  0  0  0  0  0  0
   29.3358  -12.6121  -15.9173 C   0  0  0  0  0  0  0  0  0  0  0  0
   29.2851  -11.4593  -16.6640 C   0  0  0  0  0  0  0  0  0  0  0  0
   28.0955  -10.7473  -16.7083 C   0  0  0  0  0  0  0  0  0  0  0  0
   23.4010  -10.3080  -16.6492 C   0  0  0  0  0  0  0  0  0  0  0  0
   23.1327   -9.8282  -17.7644 O   0  0  0  0  0  0  0  0  0  0  0  0
   22.6239   -9.9274  -15.5389 N   0  0  0  0  0  0  0  0  0  0  0  0
   21.4457   -9.1481  -15.5327 C   0  0  1  0  0  0  0  0  0  0  0  0
   20.1435   -9.8118  -15.2051 C   0  0  0  0  0  0  0  0  0  0  0  0
   18.9141   -8.9796  -15.3943 C   0  0  0  0  0  0  0  0  0  0  0  0
   17.7190   -9.7830  -14.9505 C   0  0  0  0  0  0  0  0  0  0  0  0
   16.5536   -9.3432  -15.0302 O   0  0  0  0  0  0  0  0  0  0  0  0
   21.5721   -7.7588  -15.0555 C   0  0  0  0  0  0  0  0  0  0  0  0
   22.1854   -7.4417  -13.9989 O   0  0  0  0  0  0  0  0  0  0  0  0
   17.9799  -11.0479  -14.4440 O   0  0  0  0  0  0  0  0  0  0  0  0
   20.9927   -6.6857  -15.7846 N   0  0  0  0  0  0  0  0  0  0  0  0
   21.1321   -5.2731  -15.3266 C   0  0  1  0  0  0  0  0  0  0  0  0
   21.6796   -4.5194  -16.4946 C   0  0  0  0  0  0  0  0  0  0  0  0
   21.8286   -3.0937  -16.2153 C   0  0  0  0  0  0  0  0  0  0  0  0
   22.8911   -2.6216  -15.7815 O   0  0  0  0  0  0  0  0  0  0  0  0
   19.7961   -4.8209  -14.8724 C   0  0  0  0  0  0  0  0  0  0  0  0
   18.7644   -5.4515  -15.1689 O   0  0  0  0  0  0  0  0  0  0  0  0
   20.7878   -2.1760  -16.4185 O   0  0  0  0  0  0  0  0  0  0  0  0
   19.7374   -3.6573  -14.0972 O   0  0  0  0  0  0  0  0  0  0  0  0
  2  1  1  6
  2 10  1  0
  2  3  1  0
  3  4  1  0
  4  9  2  0
  4  5  1  0
  5  6  2  0
  6  7  1  0
  8  7  2  0
  9  8  1  0
 10 11  2  0
 10 12  1  0
 12 13  1  0
 13 14  1  1
 14 15  1  0
 16 20  1  0
 16 15  1  0
 17 16  2  0
 18 21  1  0
 18 13  1  0
 19 18  2  0
 22 26  1  0
 22 21  1  0
 22 23  1  6
 23 24  1  0
 24 25  2  0
 26 29  1  0
 27 26  2  0
 28 24  1  0
M  END
$$$$
