FED.pdb
     RDKit          3D

 29 29  0  0  1  0  0  0  0  0999 V2000
   25.2833  -10.4151  -18.2668 N   0  0  0  0  0  0  0  0  0  0  0  0
   24.7897  -10.7139  -16.9605 C   0  0  1  0  0  0  0  0  0  0  0  0
   25.7573  -10.2368  -15.8684 C   0  0  0  0  0  0  0  0  0  0  0  0
   27.0390  -10.9442  -15.8904 C   0  0  0  0  0  0  0  0  0  0  0  0
   28.1340  -10.3411  -16.4700 C   0  0  0  0  0  0  0  0  0  0  0  0
   29.3615  -11.0031  -16.5005 C   0  0  0  0  0  0  0  0  0  0  0  0
   29.4648  -12.2644  -15.9450 C   0  0  0  0  0  0  0  0  0  0  0  0
   28.3809  -12.8778  -15.3636 C   0  0  0  0  0  0  0  0  0  0  0  0
   27.1681  -12.2050  -15.3422 C   0  0  0  0  0  0  0  0  0  0  0  0
   23.5207   -9.9882  -16.6952 C   0  0  0  0  0  0  0  0  0  0  0  0
   23.4084   -8.8345  -17.1449 O   0  0  0  0  0  0  0  0  0  0  0  0
   22.4520  -10.5420  -15.9654 N   0  0  0  0  0  0  0  0  0  0  0  0
   21.2007   -9.9521  -15.6797 C   0  0  1  0  0  0  0  0  0  0  0  0
   20.0624  -10.8365  -15.2725 C   0  0  0  0  0  0  0  0  0  0  0  0
   18.7248  -10.1758  -15.1544 C   0  0  0  0  0  0  0  0  0  0  0  0
   17.7216  -11.2036  -14.6983 C   0  0  0  0  0  0  0  0  0  0  0  0
   17.6497  -12.3387  -15.2126 O   0  0  0  0  0  0  0  0  0  0  0  0
   21.2244   -8.6301  -15.0272 C   0  0  0  0  0  0  0  0  0  0  0  0
   21.8536   -8.3956  -13.9586 O   0  0  0  0  0  0  0  0  0  0  0  0
   16.8736  -10.8229  -13.6685 O   0  0  0  0  0  0  0  0  0  0  0  0
   20.5200   -7.5313  -15.5887 N   0  0  0  0  0  0  0  0  0  0  0  0
   20.4918   -6.2020  -14.9129 C   0  0  1  0  0  0  0  0  0  0  0  0
   21.5970   -5.4086  -15.5305 C   0  0  0  0  0  0  0  0  0  0  0  0
   21.6500   -4.0406  -15.0219 C   0  0  0  0  0  0  0  0  0  0  0  0
   20.8217   -3.6177  -14.2002 O   0  0  0  0  0  0  0  0  0  0  0  0
   19.1383   -5.6326  -15.1120 C   0  0  0  0  0  0  0  0  0  0  0  0
   18.6056   -5.6087  -16.2370 O   0  0  0  0  0  0  0  0  0  0  0  0
   22.6332   -3.1265  -15.4272 O   0  0  0  0  0  0  0  0  0  0  0  0
   18.4808   -5.1220  -13.9871 O   0  0  0  0  0  0  0  0  0  0  0  0
  2  1  1  6
  2 10  1  0
  2  3  1  0
  3  4  1  0
  4  9  2  0
  4  5  1  0
  5  6  2  0
  6  7  1  0
  8  7  2  0
  9  8  1  0
 10 11  2  0
 10 12  1  0
 12 13  1  0
 13 14  1  1
 14 15  1  0
 16 20  1  0
 16 15  1  0
 17 16  2  0
 18 21  1  0
 18 13  1  0
 19 18  2  0
 22 26  1  0
 22 21  1  0
 22 23  1  6
 23 24  1  0
 24 25  2  0
 26 29  1  0
 27 26  2  0
 28 24  1  0
M  END
$$$$
