FED.pdb
     RDKit          3D

 29 29  0  0  1  0  0  0  0  0999 V2000
   25.5847  -19.5511  -17.5915 N   0  0  0  0  0  0  0  0  0  0  0  0
   24.7162  -19.1050  -16.5493 C   0  0  1  0  0  0  0  0  0  0  0  0
   25.2840  -17.8740  -15.8291 C   0  0  0  0  0  0  0  0  0  0  0  0
   26.6525  -18.0728  -15.3482 C   0  0  0  0  0  0  0  0  0  0  0  0
   27.7049  -17.5537  -16.0705 C   0  0  0  0  0  0  0  0  0  0  0  0
   29.0145  -17.7365  -15.6262 C   0  0  0  0  0  0  0  0  0  0  0  0
   29.2418  -18.4408  -14.4591 C   0  0  0  0  0  0  0  0  0  0  0  0
   28.2017  -18.9641  -13.7286 C   0  0  0  0  0  0  0  0  0  0  0  0
   26.9059  -18.7728  -14.1851 C   0  0  0  0  0  0  0  0  0  0  0  0
   23.4108  -18.6604  -17.1021 C   0  0  0  0  0  0  0  0  0  0  0  0
   23.4125  -18.1001  -18.2120 O   0  0  0  0  0  0  0  0  0  0  0  0
   22.1859  -18.8427  -16.4327 N   0  0  0  0  0  0  0  0  0  0  0  0
   20.9345  -19.1816  -16.9936 C   0  0  1  0  0  0  0  0  0  0  0  0
   20.8902  -20.1839  -18.1058 C   0  0  0  0  0  0  0  0  0  0  0  0
   19.5446  -20.4390  -18.7092 C   0  0  0  0  0  0  0  0  0  0  0  0
   19.4188  -21.9135  -18.9930 C   0  0  0  0  0  0  0  0  0  0  0  0
   18.7029  -22.6666  -18.3014 O   0  0  0  0  0  0  0  0  0  0  0  0
   19.7846  -19.2252  -16.0719 C   0  0  0  0  0  0  0  0  0  0  0  0
   19.7148  -20.0118  -15.0873 O   0  0  0  0  0  0  0  0  0  0  0  0
   20.1447  -22.3980  -20.0714 O   0  0  0  0  0  0  0  0  0  0  0  0
   18.6734  -18.3593  -16.2566 N   0  0  0  0  0  0  0  0  0  0  0  0
   17.5359  -18.3415  -15.2921 C   0  0  1  0  0  0  0  0  0  0  0  0
   16.8028  -17.0659  -15.5519 C   0  0  0  0  0  0  0  0  0  0  0  0
   15.6036  -16.9369  -14.7282 C   0  0  0  0  0  0  0  0  0  0  0  0
   14.4825  -16.7634  -15.2312 O   0  0  0  0  0  0  0  0  0  0  0  0
   16.7390  -19.5690  -15.5245 C   0  0  0  0  0  0  0  0  0  0  0  0
   15.7800  -19.8666  -14.7885 O   0  0  0  0  0  0  0  0  0  0  0  0
   15.6441  -17.0006  -13.3279 O   0  0  0  0  0  0  0  0  0  0  0  0
   17.1053  -20.3821  -16.6030 O   0  0  0  0  0  0  0  0  0  0  0  0
  2  1  1  6
  2 10  1  0
  2  3  1  0
  3  4  1  0
  4  9  2  0
  4  5  1  0
  5  6  2  0
  6  7  1  0
  8  7  2  0
  9  8  1  0
 10 11  2  0
 10 12  1  0
 12 13  1  0
 13 14  1  1
 14 15  1  0
 16 20  1  0
 16 15  1  0
 17 16  2  0
 18 21  1  0
 18 13  1  0
 19 18  2  0
 22 26  1  0
 22 21  1  0
 22 23  1  6
 23 24  1  0
 24 25  2  0
 26 29  1  0
 27 26  2  0
 28 24  1  0
M  END
$$$$
