FED.pdb
     RDKit          3D

 29 29  0  0  1  0  0  0  0  0999 V2000
   23.3782  -13.4969  -17.7195 N   0  0  0  0  0  0  0  0  0  0  0  0
   23.5130  -12.6742  -16.5601 C   0  0  1  0  0  0  0  0  0  0  0  0
   24.9759  -12.2783  -16.3154 C   0  0  0  0  0  0  0  0  0  0  0  0
   25.8547  -13.4317  -16.1131 C   0  0  0  0  0  0  0  0  0  0  0  0
   26.7076  -13.8172  -17.1245 C   0  0  0  0  0  0  0  0  0  0  0  0
   27.5496  -14.9152  -16.9476 C   0  0  0  0  0  0  0  0  0  0  0  0
   27.5178  -15.6075  -15.7518 C   0  0  0  0  0  0  0  0  0  0  0  0
   26.6723  -15.2341  -14.7346 C   0  0  0  0  0  0  0  0  0  0  0  0
   25.8418  -14.1399  -14.9277 C   0  0  0  0  0  0  0  0  0  0  0  0
   22.7899  -11.3884  -16.7363 C   0  0  0  0  0  0  0  0  0  0  0  0
   22.7128  -10.9200  -17.8854 O   0  0  0  0  0  0  0  0  0  0  0  0
   22.1951  -10.6844  -15.6723 N   0  0  0  0  0  0  0  0  0  0  0  0
   21.3716   -9.5388  -15.7447 C   0  0  1  0  0  0  0  0  0  0  0  0
   19.8853   -9.7140  -15.6854 C   0  0  0  0  0  0  0  0  0  0  0  0
   19.3922  -11.1224  -15.5704 C   0  0  0  0  0  0  0  0  0  0  0  0
   17.9141  -11.0900  -15.2792 C   0  0  0  0  0  0  0  0  0  0  0  0
   17.2712  -10.0221  -15.2128 O   0  0  0  0  0  0  0  0  0  0  0  0
   21.8793   -8.3153  -15.0973 C   0  0  0  0  0  0  0  0  0  0  0  0
   22.4721   -8.3154  -13.9831 O   0  0  0  0  0  0  0  0  0  0  0  0
   17.2965  -12.3173  -15.0866 O   0  0  0  0  0  0  0  0  0  0  0  0
   21.7189   -7.0467  -15.7168 N   0  0  0  0  0  0  0  0  0  0  0  0
   22.2175   -5.7993  -15.0690 C   0  0  1  0  0  0  0  0  0  0  0  0
   22.2365   -4.7624  -16.1445 C   0  0  0  0  0  0  0  0  0  0  0  0
   22.7349   -3.4755  -15.6666 C   0  0  0  0  0  0  0  0  0  0  0  0
   23.2067   -3.3414  -14.5267 O   0  0  0  0  0  0  0  0  0  0  0  0
   21.3117   -5.4960  -13.9361 C   0  0  0  0  0  0  0  0  0  0  0  0
   20.1353   -5.9034  -13.9215 O   0  0  0  0  0  0  0  0  0  0  0  0
   22.7117   -2.3197  -16.4604 O   0  0  0  0  0  0  0  0  0  0  0  0
   21.8285   -4.7336  -12.8825 O   0  0  0  0  0  0  0  0  0  0  0  0
  2  1  1  6
  2 10  1  0
  2  3  1  0
  3  4  1  0
  4  9  2  0
  4  5  1  0
  5  6  2  0
  6  7  1  0
  8  7  2  0
  9  8  1  0
 10 11  2  0
 10 12  1  0
 12 13  1  0
 13 14  1  1
 14 15  1  0
 16 20  1  0
 16 15  1  0
 17 16  2  0
 18 21  1  0
 18 13  1  0
 19 18  2  0
 22 26  1  0
 22 21  1  0
 22 23  1  6
 23 24  1  0
 24 25  2  0
 26 29  1  0
 27 26  2  0
 28 24  1  0
M  END
$$$$
