FED.pdb
     RDKit          3D

 29 29  0  0  1  0  0  0  0  0999 V2000
   26.5072  -22.3936  -13.4582 N   0  0  0  0  0  0  0  0  0  0  0  0
   25.8307  -21.4873  -12.5863 C   0  0  1  0  0  0  0  0  0  0  0  0
   26.6269  -20.1892  -12.3927 C   0  0  0  0  0  0  0  0  0  0  0  0
   27.9287  -20.4054  -11.7585 C   0  0  0  0  0  0  0  0  0  0  0  0
   27.9807  -20.7989  -10.4390 C   0  0  0  0  0  0  0  0  0  0  0  0
   29.2135  -21.0070   -9.8202 C   0  0  0  0  0  0  0  0  0  0  0  0
   30.3754  -20.8146  -10.5434 C   0  0  0  0  0  0  0  0  0  0  0  0
   30.3384  -20.4222  -11.8601 C   0  0  0  0  0  0  0  0  0  0  0  0
   29.1040  -20.2198  -12.4595 C   0  0  0  0  0  0  0  0  0  0  0  0
   24.5329  -21.0603  -13.1700 C   0  0  0  0  0  0  0  0  0  0  0  0
   24.4395  -21.0233  -14.4092 O   0  0  0  0  0  0  0  0  0  0  0  0
   23.4170  -20.6994  -12.3915 N   0  0  0  0  0  0  0  0  0  0  0  0
   22.0689  -20.6033  -12.8025 C   0  0  1  0  0  0  0  0  0  0  0  0
   20.9894  -20.9344  -11.8183 C   0  0  0  0  0  0  0  0  0  0  0  0
   19.5897  -20.9239  -12.3478 C   0  0  0  0  0  0  0  0  0  0  0  0
   18.6471  -21.2417  -11.2159 C   0  0  0  0  0  0  0  0  0  0  0  0
   17.8663  -20.3919  -10.7403 O   0  0  0  0  0  0  0  0  0  0  0  0
   21.7388  -19.5187  -13.7451 C   0  0  0  0  0  0  0  0  0  0  0  0
   21.7499  -18.2971  -13.4279 O   0  0  0  0  0  0  0  0  0  0  0  0
   18.6898  -22.5380  -10.7234 O   0  0  0  0  0  0  0  0  0  0  0  0
   21.3836  -19.8092  -15.0898 N   0  0  0  0  0  0  0  0  0  0  0  0
   21.0570  -18.7222  -16.0573 C   0  0  1  0  0  0  0  0  0  0  0  0
   22.1003  -18.8004  -17.1239 C   0  0  0  0  0  0  0  0  0  0  0  0
   21.8461  -17.8680  -18.2189 C   0  0  0  0  0  0  0  0  0  0  0  0
   20.8518  -17.1255  -18.2257 O   0  0  0  0  0  0  0  0  0  0  0  0
   19.6720  -18.9526  -16.5314 C   0  0  0  0  0  0  0  0  0  0  0  0
   19.1766  -20.0945  -16.5510 O   0  0  0  0  0  0  0  0  0  0  0  0
   22.7036  -17.7546  -19.3227 O   0  0  0  0  0  0  0  0  0  0  0  0
   18.9414  -17.8375  -16.9570 O   0  0  0  0  0  0  0  0  0  0  0  0
  2  1  1  6
  2 10  1  0
  2  3  1  0
  3  4  1  0
  4  9  2  0
  4  5  1  0
  5  6  2  0
  6  7  1  0
  8  7  2  0
  9  8  1  0
 10 11  2  0
 10 12  1  0
 12 13  1  0
 13 14  1  1
 14 15  1  0
 16 20  1  0
 16 15  1  0
 17 16  2  0
 18 21  1  0
 18 13  1  0
 19 18  2  0
 22 26  1  0
 22 21  1  0
 22 23  1  6
 23 24  1  0
 24 25  2  0
 26 29  1  0
 27 26  2  0
 28 24  1  0
M  END
$$$$
