FED.pdb
     RDKit          3D

 29 29  0  0  1  0  0  0  0  0999 V2000
   28.6685  -20.4491   -9.5978 N   0  0  0  0  0  0  0  0  0  0  0  0
   27.4193  -21.1412   -9.5966 C   0  0  1  0  0  0  0  0  0  0  0  0
   26.6098  -20.8431   -8.3267 C   0  0  0  0  0  0  0  0  0  0  0  0
   27.4509  -20.4903   -7.1815 C   0  0  0  0  0  0  0  0  0  0  0  0
   27.1466  -19.3698   -6.4392 C   0  0  0  0  0  0  0  0  0  0  0  0
   27.9396  -19.0195   -5.3463 C   0  0  0  0  0  0  0  0  0  0  0  0
   29.0280  -19.8060   -5.0194 C   0  0  0  0  0  0  0  0  0  0  0  0
   29.3431  -20.9261   -5.7508 C   0  0  0  0  0  0  0  0  0  0  0  0
   28.5438  -21.2596   -6.8343 C   0  0  0  0  0  0  0  0  0  0  0  0
   26.5594  -20.6835  -10.7183 C   0  0  0  0  0  0  0  0  0  0  0  0
   26.3103  -19.4681  -10.7985 O   0  0  0  0  0  0  0  0  0  0  0  0
   26.0198  -21.5547  -11.6834 N   0  0  0  0  0  0  0  0  0  0  0  0
   25.2323  -21.2210  -12.8077 C   0  0  1  0  0  0  0  0  0  0  0  0
   25.7624  -21.5243  -14.1753 C   0  0  0  0  0  0  0  0  0  0  0  0
   24.8894  -21.1249  -15.3235 C   0  0  0  0  0  0  0  0  0  0  0  0
   25.5502  -21.5665  -16.6037 C   0  0  0  0  0  0  0  0  0  0  0  0
   26.4643  -20.9094  -17.1430 O   0  0  0  0  0  0  0  0  0  0  0  0
   23.7724  -21.3656  -12.6611 C   0  0  0  0  0  0  0  0  0  0  0  0
   23.2196  -22.4143  -12.2279 O   0  0  0  0  0  0  0  0  0  0  0  0
   25.0884  -22.7508  -17.1593 O   0  0  0  0  0  0  0  0  0  0  0  0
   22.8991  -20.3007  -13.0108 N   0  0  0  0  0  0  0  0  0  0  0  0
   21.4186  -20.4452  -12.9028 C   0  0  1  0  0  0  0  0  0  0  0  0
   20.8604  -19.0747  -13.1083 C   0  0  0  0  0  0  0  0  0  0  0  0
   19.4077  -19.0390  -12.9624 C   0  0  0  0  0  0  0  0  0  0  0  0
   18.7606  -20.0446  -12.6307 O   0  0  0  0  0  0  0  0  0  0  0  0
   20.9958  -21.4414  -13.9150 C   0  0  0  0  0  0  0  0  0  0  0  0
   21.4926  -21.4546  -15.0565 O   0  0  0  0  0  0  0  0  0  0  0  0
   18.6590  -17.8745  -13.1863 O   0  0  0  0  0  0  0  0  0  0  0  0
   20.0159  -22.3674  -13.5396 O   0  0  0  0  0  0  0  0  0  0  0  0
  2  1  1  1
  2 10  1  0
  2  3  1  0
  3  4  1  0
  4  9  2  0
  4  5  1  0
  5  6  2  0
  6  7  1  0
  8  7  2  0
  9  8  1  0
 10 11  2  0
 10 12  1  0
 12 13  1  0
 13 14  1  6
 14 15  1  0
 16 20  1  0
 16 15  1  0
 17 16  2  0
 18 21  1  0
 18 13  1  0
 19 18  2  0
 22 26  1  0
 22 21  1  0
 22 23  1  6
 23 24  1  0
 24 25  2  0
 26 29  1  0
 27 26  2  0
 28 24  1  0
M  END
$$$$
