FSM.pdb
     RDKit          3D

 26 26  0  0  1  0  0  0  0  0999 V2000
    6.2634  -16.4537   25.3677 N   0  0  0  0  0  0  0  0  0  0  0  0
    7.2066  -15.7789   24.4913 C   0  0  1  0  0  0  0  0  0  0  0  0
    7.8055  -14.6712   25.2931 C   0  0  0  0  0  0  0  0  0  0  0  0
    7.0372  -13.4504   25.4189 C   0  0  0  0  0  0  0  0  0  0  0  0
    6.0308  -13.2496   26.3520 C   0  0  0  0  0  0  0  0  0  0  0  0
    5.3502  -12.0635   26.4112 C   0  0  0  0  0  0  0  0  0  0  0  0
    5.6254  -11.0238   25.5603 C   0  0  0  0  0  0  0  0  0  0  0  0
    6.6190  -11.2127   24.6342 C   0  0  0  0  0  0  0  0  0  0  0  0
    7.3176  -12.4046   24.5596 C   0  0  0  0  0  0  0  0  0  0  0  0
    8.2410  -16.7653   24.1060 C   0  0  0  0  0  0  0  0  0  0  0  0
    8.5681  -17.7072   24.9043 O   0  0  0  0  0  0  0  0  0  0  0  0
   10.1991  -15.6944   20.7995 O   0  0  0  0  0  0  0  0  0  0  0  0
   10.5766  -16.9807   21.1192 C   0  0  0  0  0  0  0  0  0  0  0  0
   10.1363  -17.3385   22.5447 C   0  0  2  0  0  0  0  0  0  0  0  0
    8.8869  -16.6958   22.8638 N   0  0  0  0  0  0  0  0  0  0  0  0
   11.2164  -16.7915   23.4315 C   0  0  0  0  0  0  0  0  0  0  0  0
   11.4347  -15.5561   23.4160 O   0  0  0  0  0  0  0  0  0  0  0  0
    9.9860  -14.1712   28.2114 C   0  0  0  0  0  0  0  0  0  0  0  0
   10.5568  -15.7763   28.8737 S   0  0  0  0  0  0  0  0  0  0  0  0
   11.9142  -16.3898   27.8127 C   0  0  0  0  0  0  0  0  0  0  0  0
   11.4200  -16.7122   26.4435 C   0  0  0  0  0  0  0  0  0  0  0  0
   12.5283  -17.1402   25.5319 C   0  0  2  0  0  0  0  0  0  0  0  0
   11.9765  -17.6219   24.2653 N   0  0  0  0  0  0  0  0  0  0  0  0
   13.3321  -18.2373   26.1016 C   0  0  0  0  0  0  0  0  0  0  0  0
   14.5171  -17.9558   26.8070 O   0  0  0  0  0  0  0  0  0  0  0  0
   13.0519  -19.4588   26.0173 O   0  0  0  0  0  0  0  0  0  0  0  0
  2 10  1  0
  2  1  1  1
  3  2  1  0
  4  3  1  0
  5  4  2  0
  6  5  1  0
  7  6  2  0
  7  8  1  0
  8  9  2  0
  9  4  1  0
 10 11  2  0
 13 12  1  0
 14 13  1  6
 15 14  1  0
 15 10  1  0
 16 14  1  0
 17 16  2  0
 18 19  1  0
 19 20  1  0
 20 21  1  0
 22 21  1  1
 22 23  1  0
 23 16  1  0
 24 22  1  0
 24 25  1  0
 26 24  2  0
M  END
$$$$
