FSM.pdb
     RDKit          3D

 26 26  0  0  1  0  0  0  0  0999 V2000
    5.8293  -18.1857   25.0455 N   0  0  0  0  0  0  0  0  0  0  0  0
    6.3217  -16.8822   24.6314 C   0  0  1  0  0  0  0  0  0  0  0  0
    6.4178  -16.0569   25.8716 C   0  0  0  0  0  0  0  0  0  0  0  0
    6.4323  -14.6177   25.7136 C   0  0  0  0  0  0  0  0  0  0  0  0
    7.5415  -13.8829   25.3215 C   0  0  0  0  0  0  0  0  0  0  0  0
    7.4757  -12.5219   25.1911 C   0  0  0  0  0  0  0  0  0  0  0  0
    6.3224  -11.8225   25.4384 C   0  0  0  0  0  0  0  0  0  0  0  0
    5.2203  -12.5402   25.8265 C   0  0  0  0  0  0  0  0  0  0  0  0
    5.2679  -13.9162   25.9637 C   0  0  0  0  0  0  0  0  0  0  0  0
    7.6595  -17.0819   24.0300 C   0  0  0  0  0  0  0  0  0  0  0  0
    8.4953  -17.8887   24.5609 O   0  0  0  0  0  0  0  0  0  0  0  0
   10.5884  -15.8870   20.3004 O   0  0  0  0  0  0  0  0  0  0  0  0
    9.3715  -15.7267   20.9270 C   0  0  0  0  0  0  0  0  0  0  0  0
    9.3647  -16.4302   22.2904 C   0  0  2  0  0  0  0  0  0  0  0  0
    8.0457  -16.3972   22.8694 N   0  0  0  0  0  0  0  0  0  0  0  0
   10.3017  -15.6270   23.1444 C   0  0  0  0  0  0  0  0  0  0  0  0
    9.8993  -14.5327   23.6080 O   0  0  0  0  0  0  0  0  0  0  0  0
   11.3152  -14.5225   29.8558 C   0  0  0  0  0  0  0  0  0  0  0  0
   10.9191  -15.6789   28.4969 S   0  0  0  0  0  0  0  0  0  0  0  0
   11.9562  -15.2507   27.0526 C   0  0  0  0  0  0  0  0  0  0  0  0
   11.5618  -16.0466   25.8551 C   0  0  0  0  0  0  0  0  0  0  0  0
   12.3139  -15.6286   24.6295 C   0  0  2  0  0  0  0  0  0  0  0  0
   11.6001  -16.0684   23.4304 N   0  0  0  0  0  0  0  0  0  0  0  0
   13.6649  -16.2164   24.5718 C   0  0  0  0  0  0  0  0  0  0  0  0
   14.7557  -15.5453   25.1555 O   0  0  0  0  0  0  0  0  0  0  0  0
   13.9553  -17.3106   24.0277 O   0  0  0  0  0  0  0  0  0  0  0  0
  2 10  1  0
  2  1  1  1
  3  2  1  0
  4  3  1  0
  5  4  2  0
  6  5  1  0
  7  6  2  0
  7  8  1  0
  8  9  2  0
  9  4  1  0
 10 11  2  0
 13 12  1  0
 14 13  1  6
 15 14  1  0
 15 10  1  0
 16 14  1  0
 17 16  2  0
 18 19  1  0
 19 20  1  0
 20 21  1  0
 22 21  1  1
 22 23  1  0
 23 16  1  0
 24 22  1  0
 24 25  1  0
 26 24  2  0
M  END
$$$$
