FSM.pdb
     RDKit          3D

 26 26  0  0  1  0  0  0  0  0999 V2000
    6.6050  -17.3482   21.5634 N   0  0  0  0  0  0  0  0  0  0  0  0
    7.3183  -16.5371   22.5362 C   0  0  1  0  0  0  0  0  0  0  0  0
    6.4426  -16.4626   23.7428 C   0  0  0  0  0  0  0  0  0  0  0  0
    6.5373  -15.2718   24.5610 C   0  0  0  0  0  0  0  0  0  0  0  0
    7.0431  -14.0569   24.1226 C   0  0  0  0  0  0  0  0  0  0  0  0
    7.0970  -12.9730   24.9566 C   0  0  0  0  0  0  0  0  0  0  0  0
    6.6582  -13.0315   26.2546 C   0  0  0  0  0  0  0  0  0  0  0  0
    6.1563  -14.2284   26.6974 C   0  0  0  0  0  0  0  0  0  0  0  0
    6.0940  -15.3346   25.8688 C   0  0  0  0  0  0  0  0  0  0  0  0
    8.5867  -17.2323   22.8514 C   0  0  0  0  0  0  0  0  0  0  0  0
    8.5766  -18.4284   23.2993 O   0  0  0  0  0  0  0  0  0  0  0  0
   12.2277  -15.1711   22.3776 O   0  0  0  0  0  0  0  0  0  0  0  0
   12.1749  -16.4944   21.9964 C   0  0  0  0  0  0  0  0  0  0  0  0
   11.1077  -17.2497   22.7993 C   0  0  2  0  0  0  0  0  0  0  0  0
    9.8264  -16.6038   22.6691 N   0  0  0  0  0  0  0  0  0  0  0  0
   11.5644  -17.1632   24.2262 C   0  0  0  0  0  0  0  0  0  0  0  0
   12.6516  -17.7051   24.5403 O   0  0  0  0  0  0  0  0  0  0  0  0
   10.4286  -12.9636   29.5263 C   0  0  0  0  0  0  0  0  0  0  0  0
    9.8123  -12.8252   27.8111 S   0  0  0  0  0  0  0  0  0  0  0  0
   10.6456  -14.0957   26.7931 C   0  0  0  0  0  0  0  0  0  0  0  0
   10.4372  -15.4585   27.3610 C   0  0  0  0  0  0  0  0  0  0  0  0
   11.2046  -16.5033   26.6115 C   0  0  2  0  0  0  0  0  0  0  0  0
   10.8109  -16.4985   25.2023 N   0  0  0  0  0  0  0  0  0  0  0  0
   10.9556  -17.8617   27.1281 C   0  0  0  0  0  0  0  0  0  0  0  0
    9.9311  -18.6535   26.5764 O   0  0  0  0  0  0  0  0  0  0  0  0
   11.5980  -18.4116   28.0570 O   0  0  0  0  0  0  0  0  0  0  0  0
  2 10  1  0
  2  1  1  6
  3  2  1  0
  4  3  1  0
  5  4  2  0
  6  5  1  0
  7  6  2  0
  7  8  1  0
  8  9  2  0
  9  4  1  0
 10 11  2  0
 13 12  1  0
 14 13  1  6
 15 14  1  0
 15 10  1  0
 16 14  1  0
 17 16  2  0
 18 19  1  0
 19 20  1  0
 20 21  1  0
 22 21  1  1
 22 23  1  0
 23 16  1  0
 24 22  1  0
 24 25  1  0
 26 24  2  0
M  END
$$$$
