FSM.pdb
     RDKit          3D

 26 26  0  0  1  0  0  0  0  0999 V2000
    5.7034  -18.1502   24.2407 N   0  0  0  0  0  0  0  0  0  0  0  0
    6.4527  -16.9126   24.0996 C   0  0  1  0  0  0  0  0  0  0  0  0
    6.2616  -16.1591   25.3740 C   0  0  0  0  0  0  0  0  0  0  0  0
    6.4331  -14.7221   25.3293 C   0  0  0  0  0  0  0  0  0  0  0  0
    7.1561  -14.0483   24.3560 C   0  0  0  0  0  0  0  0  0  0  0  0
    7.2702  -12.6845   24.3798 C   0  0  0  0  0  0  0  0  0  0  0  0
    6.6820  -11.9223   25.3563 C   0  0  0  0  0  0  0  0  0  0  0  0
    5.9650  -12.5794   26.3231 C   0  0  0  0  0  0  0  0  0  0  0  0
    5.8387  -13.9572   26.3153 C   0  0  0  0  0  0  0  0  0  0  0  0
    7.8763  -17.2727   23.9121 C   0  0  0  0  0  0  0  0  0  0  0  0
    8.4635  -18.0482   24.7400 O   0  0  0  0  0  0  0  0  0  0  0  0
    9.9907  -15.2118   21.0871 O   0  0  0  0  0  0  0  0  0  0  0  0
   10.4151  -16.5186   21.1932 C   0  0  0  0  0  0  0  0  0  0  0  0
    9.9838  -17.1234   22.5356 C   0  0  2  0  0  0  0  0  0  0  0  0
    8.6163  -16.7775   22.8294 N   0  0  0  0  0  0  0  0  0  0  0  0
   10.8859  -16.4885   23.5531 C   0  0  0  0  0  0  0  0  0  0  0  0
   11.2368  -15.2964   23.3804 O   0  0  0  0  0  0  0  0  0  0  0  0
   10.4606  -13.2927   28.8318 C   0  0  0  0  0  0  0  0  0  0  0  0
    9.4829  -14.8060   28.5239 S   0  0  0  0  0  0  0  0  0  0  0  0
   10.5689  -16.0439   27.7282 C   0  0  0  0  0  0  0  0  0  0  0  0
   11.1024  -15.5344   26.4325 C   0  0  0  0  0  0  0  0  0  0  0  0
   12.0251  -16.5165   25.7793 C   0  0  2  0  0  0  0  0  0  0  0  0
   11.3387  -17.1911   24.6772 N   0  0  0  0  0  0  0  0  0  0  0  0
   12.4835  -17.5625   26.7119 C   0  0  0  0  0  0  0  0  0  0  0  0
   11.9176  -18.8504   26.6666 O   0  0  0  0  0  0  0  0  0  0  0  0
   13.3730  -17.4132   27.5861 O   0  0  0  0  0  0  0  0  0  0  0  0
  2 10  1  0
  2  1  1  1
  3  2  1  0
  4  3  1  0
  5  4  2  0
  6  5  1  0
  7  6  2  0
  7  8  1  0
  8  9  2  0
  9  4  1  0
 10 11  2  0
 13 12  1  0
 14 13  1  6
 15 14  1  0
 15 10  1  0
 16 14  1  0
 17 16  2  0
 18 19  1  0
 19 20  1  0
 20 21  1  0
 22 21  1  1
 22 23  1  0
 23 16  1  0
 24 22  1  0
 24 25  1  0
 26 24  2  0
M  END
$$$$
