FSM.pdb
     RDKit          3D

 26 26  0  0  1  0  0  0  0  0999 V2000
    6.2321  -16.7210   25.2969 N   0  0  0  0  0  0  0  0  0  0  0  0
    7.0871  -15.8521   24.5050 C   0  0  1  0  0  0  0  0  0  0  0  0
    7.7091  -14.8903   25.4622 C   0  0  0  0  0  0  0  0  0  0  0  0
    6.9873  -13.6659   25.7384 C   0  0  0  0  0  0  0  0  0  0  0  0
    5.7318  -13.6109   26.3256 C   0  0  0  0  0  0  0  0  0  0  0  0
    5.1138  -12.4119   26.5580 C   0  0  0  0  0  0  0  0  0  0  0  0
    5.6977  -11.2163   26.2262 C   0  0  0  0  0  0  0  0  0  0  0  0
    6.9391  -11.2603   25.6452 C   0  0  0  0  0  0  0  0  0  0  0  0
    7.5791  -12.4627   25.4026 C   0  0  0  0  0  0  0  0  0  0  0  0
    8.1199  -16.7017   23.8703 C   0  0  0  0  0  0  0  0  0  0  0  0
    8.4983  -17.7873   24.4267 O   0  0  0  0  0  0  0  0  0  0  0  0
   10.0446  -15.0417   20.6062 O   0  0  0  0  0  0  0  0  0  0  0  0
   10.1759  -16.4107   20.6946 C   0  0  0  0  0  0  0  0  0  0  0  0
    9.9381  -16.8883   22.1330 C   0  0  2  0  0  0  0  0  0  0  0  0
    8.7086  -16.3429   22.6497 N   0  0  0  0  0  0  0  0  0  0  0  0
   11.0932  -16.3394   22.9184 C   0  0  0  0  0  0  0  0  0  0  0  0
   11.2915  -15.1006   22.9039 O   0  0  0  0  0  0  0  0  0  0  0  0
   11.0574  -13.1034   27.7483 C   0  0  0  0  0  0  0  0  0  0  0  0
   11.0807  -14.8739   28.2013 S   0  0  0  0  0  0  0  0  0  0  0  0
   12.2738  -15.7332   27.1138 C   0  0  0  0  0  0  0  0  0  0  0  0
   11.6417  -16.1098   25.8170 C   0  0  0  0  0  0  0  0  0  0  0  0
   12.6316  -16.6948   24.8578 C   0  0  2  0  0  0  0  0  0  0  0  0
   11.9437  -17.1716   23.6576 N   0  0  0  0  0  0  0  0  0  0  0  0
   13.3560  -17.8447   25.4299 C   0  0  0  0  0  0  0  0  0  0  0  0
   12.7228  -19.0966   25.5429 O   0  0  0  0  0  0  0  0  0  0  0  0
   14.5405  -17.8189   25.8469 O   0  0  0  0  0  0  0  0  0  0  0  0
  2 10  1  0
  2  1  1  1
  3  2  1  0
  4  3  1  0
  5  4  2  0
  6  5  1  0
  7  6  2  0
  7  8  1  0
  8  9  2  0
  9  4  1  0
 10 11  2  0
 13 12  1  0
 14 13  1  6
 15 14  1  0
 15 10  1  0
 16 14  1  0
 17 16  2  0
 18 19  1  0
 19 20  1  0
 20 21  1  0
 22 21  1  1
 22 23  1  0
 23 16  1  0
 24 22  1  0
 24 25  1  0
 26 24  2  0
M  END
$$$$
