FSM.pdb
     RDKit          3D

 26 26  0  0  1  0  0  0  0  0999 V2000
    5.7345  -18.4883   23.6581 N   0  0  0  0  0  0  0  0  0  0  0  0
    6.4328  -17.2147   23.6007 C   0  0  1  0  0  0  0  0  0  0  0  0
    5.9396  -16.4134   24.7596 C   0  0  0  0  0  0  0  0  0  0  0  0
    6.3725  -15.0345   24.8474 C   0  0  0  0  0  0  0  0  0  0  0  0
    6.7870  -14.2721   23.7653 C   0  0  0  0  0  0  0  0  0  0  0  0
    7.1796  -12.9710   23.9283 C   0  0  0  0  0  0  0  0  0  0  0  0
    7.1834  -12.3608   25.1565 C   0  0  0  0  0  0  0  0  0  0  0  0
    6.7752  -13.1065   26.2325 C   0  0  0  0  0  0  0  0  0  0  0  0
    6.3749  -14.4229   26.0870 C   0  0  0  0  0  0  0  0  0  0  0  0
    7.8803  -17.4939   23.7349 C   0  0  0  0  0  0  0  0  0  0  0  0
    8.3212  -18.1712   24.7240 O   0  0  0  0  0  0  0  0  0  0  0  0
   10.6827  -15.5604   21.2522 O   0  0  0  0  0  0  0  0  0  0  0  0
   10.8430  -16.9156   21.4446 C   0  0  0  0  0  0  0  0  0  0  0  0
   10.2055  -17.3563   22.7687 C   0  0  2  0  0  0  0  0  0  0  0  0
    8.8028  -17.0272   22.7882 N   0  0  0  0  0  0  0  0  0  0  0  0
   10.9166  -16.5605   23.8238 C   0  0  0  0  0  0  0  0  0  0  0  0
   11.0298  -15.3213   23.6636 O   0  0  0  0  0  0  0  0  0  0  0  0
   10.5369  -13.3951   29.1179 C   0  0  0  0  0  0  0  0  0  0  0  0
    9.3832  -14.6771   28.5129 S   0  0  0  0  0  0  0  0  0  0  0  0
   10.3531  -15.9703   27.6574 C   0  0  0  0  0  0  0  0  0  0  0  0
   11.2114  -15.3789   26.5912 C   0  0  0  0  0  0  0  0  0  0  0  0
   12.1440  -16.3879   25.9959 C   0  0  2  0  0  0  0  0  0  0  0  0
   11.4501  -17.1657   24.9690 N   0  0  0  0  0  0  0  0  0  0  0  0
   12.6508  -17.3440   26.9975 C   0  0  0  0  0  0  0  0  0  0  0  0
   13.5504  -16.9181   27.9927 O   0  0  0  0  0  0  0  0  0  0  0  0
   12.3451  -18.5609   27.0558 O   0  0  0  0  0  0  0  0  0  0  0  0
  2 10  1  0
  2  1  1  1
  3  2  1  0
  4  3  1  0
  5  4  2  0
  6  5  1  0
  7  6  2  0
  7  8  1  0
  8  9  2  0
  9  4  1  0
 10 11  2  0
 13 12  1  0
 14 13  1  6
 15 14  1  0
 15 10  1  0
 16 14  1  0
 17 16  2  0
 18 19  1  0
 19 20  1  0
 20 21  1  0
 22 21  1  1
 22 23  1  0
 23 16  1  0
 24 22  1  0
 24 25  1  0
 26 24  2  0
M  END
$$$$
