FSM.pdb
     RDKit          3D

 26 26  0  0  1  0  0  0  0  0999 V2000
    9.4256  -18.1626   20.7312 N   0  0  0  0  0  0  0  0  0  0  0  0
    9.3469  -16.7166   20.8564 C   0  0  1  0  0  0  0  0  0  0  0  0
    8.3835  -16.2571   19.8128 C   0  0  0  0  0  0  0  0  0  0  0  0
    8.0859  -14.8411   19.7594 C   0  0  0  0  0  0  0  0  0  0  0  0
    8.9002  -13.8904   19.1618 C   0  0  0  0  0  0  0  0  0  0  0  0
    8.5482  -12.5678   19.1490 C   0  0  0  0  0  0  0  0  0  0  0  0
    7.3848  -12.1193   19.7201 C   0  0  0  0  0  0  0  0  0  0  0  0
    6.5730  -13.0517   20.3134 C   0  0  0  0  0  0  0  0  0  0  0  0
    6.9124  -14.3928   20.3360 C   0  0  0  0  0  0  0  0  0  0  0  0
    8.8347  -16.4140   22.2120 C   0  0  0  0  0  0  0  0  0  0  0  0
    8.7027  -15.2044   22.6003 O   0  0  0  0  0  0  0  0  0  0  0  0
    8.5181  -19.4581   25.1260 O   0  0  0  0  0  0  0  0  0  0  0  0
    7.4736  -18.5650   25.0239 C   0  0  0  0  0  0  0  0  0  0  0  0
    7.9514  -17.2350   24.4265 C   0  0  2  0  0  0  0  0  0  0  0  0
    8.4823  -17.4377   23.1025 N   0  0  0  0  0  0  0  0  0  0  0  0
    9.0519  -16.7754   25.3375 C   0  0  0  0  0  0  0  0  0  0  0  0
   10.2367  -17.0528   25.0316 O   0  0  0  0  0  0  0  0  0  0  0  0
    6.6363  -12.4230   26.7259 C   0  0  0  0  0  0  0  0  0  0  0  0
    8.3392  -11.8140   26.9903 S   0  0  0  0  0  0  0  0  0  0  0  0
    9.5020  -13.1856   26.6564 C   0  0  0  0  0  0  0  0  0  0  0  0
    9.5424  -14.1435   27.7982 C   0  0  0  0  0  0  0  0  0  0  0  0
    9.8640  -15.5365   27.3524 C   0  0  2  0  0  0  0  0  0  0  0  0
    8.7865  -16.0527   26.5078 N   0  0  0  0  0  0  0  0  0  0  0  0
   10.0133  -16.4684   28.4853 C   0  0  0  0  0  0  0  0  0  0  0  0
    9.0991  -17.5242   28.6602 O   0  0  0  0  0  0  0  0  0  0  0  0
   10.9194  -16.4129   29.3533 O   0  0  0  0  0  0  0  0  0  0  0  0
  2 10  1  0
  2  1  1  1
  3  2  1  0
  4  3  1  0
  5  4  2  0
  6  5  1  0
  7  6  2  0
  7  8  1  0
  8  9  2  0
  9  4  1  0
 10 11  2  0
 13 12  1  0
 14 13  1  1
 15 14  1  0
 15 10  1  0
 16 14  1  0
 17 16  2  0
 18 19  1  0
 19 20  1  0
 20 21  1  0
 22 21  1  1
 22 23  1  0
 23 16  1  0
 24 22  1  0
 24 25  1  0
 26 24  2  0
M  END
$$$$
