FSM.pdb
     RDKit          3D

 26 26  0  0  1  0  0  0  0  0999 V2000
   10.8406  -18.4931   18.1290 N   0  0  0  0  0  0  0  0  0  0  0  0
   10.4375  -18.6569   19.5160 C   0  0  1  0  0  0  0  0  0  0  0  0
   11.6972  -18.7881   20.3061 C   0  0  0  0  0  0  0  0  0  0  0  0
   11.5695  -18.9644   21.7375 C   0  0  0  0  0  0  0  0  0  0  0  0
   11.0476  -20.0970   22.3449 C   0  0  0  0  0  0  0  0  0  0  0  0
   10.9624  -20.1906   23.7078 C   0  0  0  0  0  0  0  0  0  0  0  0
   11.3840  -19.1806   24.5340 C   0  0  0  0  0  0  0  0  0  0  0  0
   11.9015  -18.0567   23.9429 C   0  0  0  0  0  0  0  0  0  0  0  0
   11.9956  -17.9442   22.5671 C   0  0  0  0  0  0  0  0  0  0  0  0
    9.6958  -17.4382   19.9111 C   0  0  0  0  0  0  0  0  0  0  0  0
   10.1144  -16.2828   19.5630 O   0  0  0  0  0  0  0  0  0  0  0  0
    5.9806  -17.9816   21.5644 O   0  0  0  0  0  0  0  0  0  0  0  0
    6.2111  -16.7663   20.9569 C   0  0  0  0  0  0  0  0  0  0  0  0
    7.6967  -16.3913   21.0364 C   0  0  2  0  0  0  0  0  0  0  0  0
    8.5215  -17.5154   20.6729 N   0  0  0  0  0  0  0  0  0  0  0  0
    7.9321  -16.0487   22.4785 C   0  0  0  0  0  0  0  0  0  0  0  0
    8.5854  -16.8535   23.1855 O   0  0  0  0  0  0  0  0  0  0  0  0
    6.8055  -10.7857   28.2886 C   0  0  0  0  0  0  0  0  0  0  0  0
    6.3964  -11.2516   26.5692 S   0  0  0  0  0  0  0  0  0  0  0  0
    7.1039  -12.9044   26.2342 C   0  0  0  0  0  0  0  0  0  0  0  0
    6.8863  -13.3025   24.8139 C   0  0  0  0  0  0  0  0  0  0  0  0
    7.6115  -14.5657   24.4665 C   0  0  2  0  0  0  0  0  0  0  0  0
    7.4432  -14.8641   23.0440 N   0  0  0  0  0  0  0  0  0  0  0  0
    7.1051  -15.7289   25.2180 C   0  0  0  0  0  0  0  0  0  0  0  0
    7.8583  -16.2724   26.2755 O   0  0  0  0  0  0  0  0  0  0  0  0
    6.0147  -16.3127   24.9992 O   0  0  0  0  0  0  0  0  0  0  0  0
  2 10  1  0
  2  1  1  6
  3  2  1  0
  4  3  1  0
  5  4  2  0
  6  5  1  0
  7  6  2  0
  7  8  1  0
  8  9  2  0
  9  4  1  0
 10 11  2  0
 13 12  1  0
 14 13  1  1
 15 14  1  0
 15 10  1  0
 16 14  1  0
 17 16  2  0
 18 19  1  0
 19 20  1  0
 20 21  1  0
 22 21  1  1
 22 23  1  0
 23 16  1  0
 24 22  1  0
 24 25  1  0
 26 24  2  0
M  END
$$$$
