FSM.pdb
     RDKit          3D

 26 26  0  0  1  0  0  0  0  0999 V2000
    5.9718  -17.5913   20.9392 N   0  0  0  0  0  0  0  0  0  0  0  0
    6.8250  -16.5734   21.5299 C   0  0  1  0  0  0  0  0  0  0  0  0
    5.9570  -15.7813   22.4505 C   0  0  0  0  0  0  0  0  0  0  0  0
    6.6054  -14.8040   23.2997 C   0  0  0  0  0  0  0  0  0  0  0  0
    6.7106  -14.9101   24.6787 C   0  0  0  0  0  0  0  0  0  0  0  0
    7.3428  -13.9442   25.4142 C   0  0  0  0  0  0  0  0  0  0  0  0
    7.8989  -12.8341   24.8319 C   0  0  0  0  0  0  0  0  0  0  0  0
    7.8000  -12.7203   23.4689 C   0  0  0  0  0  0  0  0  0  0  0  0
    7.1647  -13.6865   22.7091 C   0  0  0  0  0  0  0  0  0  0  0  0
    7.8916  -17.2693   22.2847 C   0  0  0  0  0  0  0  0  0  0  0  0
    7.6079  -18.2475   23.0555 O   0  0  0  0  0  0  0  0  0  0  0  0
   11.8394  -16.4308   21.3029 O   0  0  0  0  0  0  0  0  0  0  0  0
   11.5248  -17.6620   21.8362 C   0  0  0  0  0  0  0  0  0  0  0  0
   10.3426  -17.5483   22.8074 C   0  0  2  0  0  0  0  0  0  0  0  0
    9.2335  -16.8786   22.1769 N   0  0  0  0  0  0  0  0  0  0  0  0
   10.8524  -16.7055   23.9397 C   0  0  0  0  0  0  0  0  0  0  0  0
   10.7560  -15.4580   23.8475 O   0  0  0  0  0  0  0  0  0  0  0  0
    8.8764  -14.3852   29.3350 C   0  0  0  0  0  0  0  0  0  0  0  0
   10.1813  -13.5162   28.3955 S   0  0  0  0  0  0  0  0  0  0  0  0
   11.4245  -14.7460   27.8601 C   0  0  0  0  0  0  0  0  0  0  0  0
   10.9524  -15.4986   26.6627 C   0  0  0  0  0  0  0  0  0  0  0  0
   11.9888  -16.4519   26.1530 C   0  0  2  0  0  0  0  0  0  0  0  0
   11.4269  -17.2763   25.0828 N   0  0  0  0  0  0  0  0  0  0  0  0
   12.4717  -17.3695   27.2013 C   0  0  0  0  0  0  0  0  0  0  0  0
   13.5278  -16.9852   28.0486 O   0  0  0  0  0  0  0  0  0  0  0  0
   12.0126  -18.5168   27.4262 O   0  0  0  0  0  0  0  0  0  0  0  0
  2 10  1  0
  2  1  1  1
  3  2  1  0
  4  3  1  0
  5  4  2  0
  6  5  1  0
  7  6  2  0
  7  8  1  0
  8  9  2  0
  9  4  1  0
 10 11  2  0
 13 12  1  0
 14 13  1  6
 15 14  1  0
 15 10  1  0
 16 14  1  0
 17 16  2  0
 18 19  1  0
 19 20  1  0
 20 21  1  0
 22 21  1  1
 22 23  1  0
 23 16  1  0
 24 22  1  0
 24 25  1  0
 26 24  2  0
M  END
$$$$
