FSM.pdb
     RDKit          3D

 26 26  0  0  1  0  0  0  0  0999 V2000
    5.9228  -18.3261   22.6905 N   0  0  0  0  0  0  0  0  0  0  0  0
    6.6630  -17.1372   23.0800 C   0  0  1  0  0  0  0  0  0  0  0  0
    6.0888  -16.6946   24.3849 C   0  0  0  0  0  0  0  0  0  0  0  0
    6.5650  -15.4407   24.9302 C   0  0  0  0  0  0  0  0  0  0  0  0
    7.0760  -14.3987   24.1705 C   0  0  0  0  0  0  0  0  0  0  0  0
    7.5043  -13.2400   24.7601 C   0  0  0  0  0  0  0  0  0  0  0  0
    7.4508  -13.0517   26.1174 C   0  0  0  0  0  0  0  0  0  0  0  0
    6.9471  -14.0762   26.8770 C   0  0  0  0  0  0  0  0  0  0  0  0
    6.5094  -15.2545   26.2987 C   0  0  0  0  0  0  0  0  0  0  0  0
    8.0822  -17.5277   23.2374 C   0  0  0  0  0  0  0  0  0  0  0  0
    8.3997  -18.5528   23.9301 O   0  0  0  0  0  0  0  0  0  0  0  0
   10.9378  -15.1027   21.4846 O   0  0  0  0  0  0  0  0  0  0  0  0
   11.2540  -16.4438   21.5093 C   0  0  0  0  0  0  0  0  0  0  0  0
   10.5043  -17.1588   22.6410 C   0  0  2  0  0  0  0  0  0  0  0  0
    9.1114  -16.7901   22.6360 N   0  0  0  0  0  0  0  0  0  0  0  0
   11.1448  -16.6611   23.9036 C   0  0  0  0  0  0  0  0  0  0  0  0
   12.2364  -16.0483   23.8193 O   0  0  0  0  0  0  0  0  0  0  0  0
    9.7355  -13.6362   29.1814 C   0  0  0  0  0  0  0  0  0  0  0  0
   10.0630  -12.9712   27.5107 S   0  0  0  0  0  0  0  0  0  0  0  0
   10.6565  -14.3381   26.4505 C   0  0  0  0  0  0  0  0  0  0  0  0
   10.7604  -15.6090   27.2232 C   0  0  0  0  0  0  0  0  0  0  0  0
   11.3221  -16.7248   26.3974 C   0  0  2  0  0  0  0  0  0  0  0  0
   10.5564  -16.8647   25.1584 N   0  0  0  0  0  0  0  0  0  0  0  0
   11.2640  -18.0232   27.0938 C   0  0  0  0  0  0  0  0  0  0  0  0
   12.0575  -18.2527   28.2334 O   0  0  0  0  0  0  0  0  0  0  0  0
   10.5415  -18.9935   26.7563 O   0  0  0  0  0  0  0  0  0  0  0  0
  2 10  1  0
  2  1  1  1
  3  2  1  0
  4  3  1  0
  5  4  2  0
  6  5  1  0
  7  6  2  0
  7  8  1  0
  8  9  2  0
  9  4  1  0
 10 11  2  0
 13 12  1  0
 14 13  1  6
 15 14  1  0
 15 10  1  0
 16 14  1  0
 17 16  2  0
 18 19  1  0
 19 20  1  0
 20 21  1  0
 22 21  1  1
 22 23  1  0
 23 16  1  0
 24 22  1  0
 24 25  1  0
 26 24  2  0
M  END
$$$$
