FSM.pdb
     RDKit          3D

 26 26  0  0  1  0  0  0  0  0999 V2000
    6.1070  -18.1662   21.8390 N   0  0  0  0  0  0  0  0  0  0  0  0
    6.8208  -16.9844   22.2938 C   0  0  1  0  0  0  0  0  0  0  0  0
    6.0457  -16.4456   23.4503 C   0  0  0  0  0  0  0  0  0  0  0  0
    6.5079  -15.2076   24.0420 C   0  0  0  0  0  0  0  0  0  0  0  0
    7.0557  -14.1528   23.3268 C   0  0  0  0  0  0  0  0  0  0  0  0
    7.4676  -13.0107   23.9588 C   0  0  0  0  0  0  0  0  0  0  0  0
    7.3610  -12.8520   25.3167 C   0  0  0  0  0  0  0  0  0  0  0  0
    6.8206  -13.8893   26.0326 C   0  0  0  0  0  0  0  0  0  0  0  0
    6.3988  -15.0513   25.4110 C   0  0  0  0  0  0  0  0  0  0  0  0
    8.1700  -17.4166   22.7231 C   0  0  0  0  0  0  0  0  0  0  0  0
    8.3099  -18.2485   23.6822 O   0  0  0  0  0  0  0  0  0  0  0  0
   11.4619  -15.3994   21.2475 O   0  0  0  0  0  0  0  0  0  0  0  0
   11.6585  -16.7565   21.3852 C   0  0  0  0  0  0  0  0  0  0  0  0
   10.6696  -17.3496   22.3972 C   0  0  2  0  0  0  0  0  0  0  0  0
    9.3248  -16.9297   22.0950 N   0  0  0  0  0  0  0  0  0  0  0  0
   11.0823  -16.7773   23.7217 C   0  0  0  0  0  0  0  0  0  0  0  0
   11.2542  -15.5376   23.8104 O   0  0  0  0  0  0  0  0  0  0  0  0
   11.0207  -13.1351   29.1303 C   0  0  0  0  0  0  0  0  0  0  0  0
    9.7494  -14.0164   28.1567 S   0  0  0  0  0  0  0  0  0  0  0  0
   10.2730  -15.7581   27.9645 C   0  0  0  0  0  0  0  0  0  0  0  0
   10.2689  -16.1635   26.5296 C   0  0  0  0  0  0  0  0  0  0  0  0
   11.4477  -17.0198   26.1839 C   0  0  2  0  0  0  0  0  0  0  0  0
   11.2775  -17.5889   24.8467 N   0  0  0  0  0  0  0  0  0  0  0  0
   11.6161  -18.1476   27.1186 C   0  0  0  0  0  0  0  0  0  0  0  0
   11.5588  -19.4730   26.6483 O   0  0  0  0  0  0  0  0  0  0  0  0
   11.8160  -18.0399   28.3540 O   0  0  0  0  0  0  0  0  0  0  0  0
  2 10  1  0
  2  1  1  1
  3  2  1  0
  4  3  1  0
  5  4  2  0
  6  5  1  0
  7  6  2  0
  7  8  1  0
  8  9  2  0
  9  4  1  0
 10 11  2  0
 13 12  1  0
 14 13  1  6
 15 14  1  0
 15 10  1  0
 16 14  1  0
 17 16  2  0
 18 19  1  0
 19 20  1  0
 20 21  1  0
 22 21  1  1
 22 23  1  0
 23 16  1  0
 24 22  1  0
 24 25  1  0
 26 24  2  0
M  END
$$$$
