FSM.pdb
     RDKit          3D

 26 26  0  0  1  0  0  0  0  0999 V2000
    9.8069  -15.3725   21.3061 N   0  0  0  0  0  0  0  0  0  0  0  0
    8.8217  -14.9505   22.2881 C   0  0  1  0  0  0  0  0  0  0  0  0
    7.4934  -15.0336   21.6120 C   0  0  0  0  0  0  0  0  0  0  0  0
    7.3440  -14.3377   20.3511 C   0  0  0  0  0  0  0  0  0  0  0  0
    6.8142  -14.9035   19.2009 C   0  0  0  0  0  0  0  0  0  0  0  0
    6.7022  -14.1785   18.0453 C   0  0  0  0  0  0  0  0  0  0  0  0
    7.1036  -12.8695   17.9661 C   0  0  0  0  0  0  0  0  0  0  0  0
    7.6287  -12.3012   19.0983 C   0  0  0  0  0  0  0  0  0  0  0  0
    7.7497  -13.0185   20.2753 C   0  0  0  0  0  0  0  0  0  0  0  0
    8.8915  -15.8970   23.4243 C   0  0  0  0  0  0  0  0  0  0  0  0
    7.9133  -16.0062   24.2383 O   0  0  0  0  0  0  0  0  0  0  0  0
   12.4341  -17.8511   23.8780 O   0  0  0  0  0  0  0  0  0  0  0  0
   11.4145  -18.4869   24.5527 C   0  0  0  0  0  0  0  0  0  0  0  0
   10.2411  -17.5284   24.7939 C   0  0  2  0  0  0  0  0  0  0  0  0
   10.0239  -16.6950   23.6388 N   0  0  0  0  0  0  0  0  0  0  0  0
   10.6723  -16.6727   25.9491 C   0  0  0  0  0  0  0  0  0  0  0  0
   11.8314  -16.8233   26.4051 O   0  0  0  0  0  0  0  0  0  0  0  0
    7.3966  -11.0710   27.3884 C   0  0  0  0  0  0  0  0  0  0  0  0
    6.7243  -12.7671   27.4980 S   0  0  0  0  0  0  0  0  0  0  0  0
    8.0426  -13.9432   27.0251 C   0  0  0  0  0  0  0  0  0  0  0  0
    9.1408  -13.9507   28.0336 C   0  0  0  0  0  0  0  0  0  0  0  0
   10.2205  -14.9270   27.6818 C   0  0  2  0  0  0  0  0  0  0  0  0
    9.8175  -15.7219   26.5214 N   0  0  0  0  0  0  0  0  0  0  0  0
   10.5035  -15.8708   28.7788 C   0  0  0  0  0  0  0  0  0  0  0  0
   10.1651  -17.2308   28.6490 O   0  0  0  0  0  0  0  0  0  0  0  0
   11.0434  -15.5688   29.8719 O   0  0  0  0  0  0  0  0  0  0  0  0
  2 10  1  0
  2  1  1  6
  3  2  1  0
  4  3  1  0
  5  4  2  0
  6  5  1  0
  7  6  2  0
  7  8  1  0
  8  9  2  0
  9  4  1  0
 10 11  2  0
 13 12  1  0
 14 13  1  6
 15 14  1  0
 15 10  1  0
 16 14  1  0
 17 16  2  0
 18 19  1  0
 19 20  1  0
 20 21  1  0
 22 21  1  1
 22 23  1  0
 23 16  1  0
 24 22  1  0
 24 25  1  0
 26 24  2  0
M  END
$$$$
