FSM.pdb
     RDKit          3D

 26 26  0  0  1  0  0  0  0  0999 V2000
    6.3309  -18.2627   20.5958 N   0  0  0  0  0  0  0  0  0  0  0  0
    7.1507  -17.0685   20.7182 C   0  0  1  0  0  0  0  0  0  0  0  0
    6.2374  -15.9772   21.1691 C   0  0  0  0  0  0  0  0  0  0  0  0
    6.8020  -14.6509   21.3054 C   0  0  0  0  0  0  0  0  0  0  0  0
    6.8783  -13.9499   22.4998 C   0  0  0  0  0  0  0  0  0  0  0  0
    7.4305  -12.6984   22.5491 C   0  0  0  0  0  0  0  0  0  0  0  0
    7.9314  -12.0800   21.4322 C   0  0  0  0  0  0  0  0  0  0  0  0
    7.8605  -12.7652   20.2465 C   0  0  0  0  0  0  0  0  0  0  0  0
    7.3059  -14.0309   20.1775 C   0  0  0  0  0  0  0  0  0  0  0  0
    8.1857  -17.3416   21.7407 C   0  0  0  0  0  0  0  0  0  0  0  0
    7.8547  -17.7420   22.9076 O   0  0  0  0  0  0  0  0  0  0  0  0
   12.1532  -16.1027   21.1644 O   0  0  0  0  0  0  0  0  0  0  0  0
   11.9780  -17.3838   21.6413 C   0  0  0  0  0  0  0  0  0  0  0  0
   10.6255  -17.5193   22.3527 C   0  0  2  0  0  0  0  0  0  0  0  0
    9.5486  -17.1704   21.4612 N   0  0  0  0  0  0  0  0  0  0  0  0
   10.6795  -16.5275   23.4777 C   0  0  0  0  0  0  0  0  0  0  0  0
   10.5769  -15.3072   23.2048 O   0  0  0  0  0  0  0  0  0  0  0  0
    8.0025  -12.2287   28.6231 C   0  0  0  0  0  0  0  0  0  0  0  0
    7.9395  -13.4222   27.2402 S   0  0  0  0  0  0  0  0  0  0  0  0
    9.5677  -14.2451   27.1121 C   0  0  0  0  0  0  0  0  0  0  0  0
    9.5925  -15.2096   25.9754 C   0  0  0  0  0  0  0  0  0  0  0  0
   10.8847  -15.9631   25.9054 C   0  0  2  0  0  0  0  0  0  0  0  0
   10.8404  -16.9314   24.8094 N   0  0  0  0  0  0  0  0  0  0  0  0
   11.1626  -16.7175   27.1415 C   0  0  0  0  0  0  0  0  0  0  0  0
   11.6489  -16.0535   28.2833 O   0  0  0  0  0  0  0  0  0  0  0  0
   11.0005  -17.9546   27.2860 O   0  0  0  0  0  0  0  0  0  0  0  0
  2 10  1  0
  2  1  1  1
  3  2  1  0
  4  3  1  0
  5  4  2  0
  6  5  1  0
  7  6  2  0
  7  8  1  0
  8  9  2  0
  9  4  1  0
 10 11  2  0
 13 12  1  0
 14 13  1  6
 15 14  1  0
 15 10  1  0
 16 14  1  0
 17 16  2  0
 18 19  1  0
 19 20  1  0
 20 21  1  0
 22 21  1  1
 22 23  1  0
 23 16  1  0
 24 22  1  0
 24 25  1  0
 26 24  2  0
M  END
$$$$
