FSM.pdb
     RDKit          3D

 26 26  0  0  1  0  0  0  0  0999 V2000
    5.8627  -18.0354   21.4552 N   0  0  0  0  0  0  0  0  0  0  0  0
    6.9024  -17.0222   21.3824 C   0  0  1  0  0  0  0  0  0  0  0  0
    6.2073  -15.7027   21.4469 C   0  0  0  0  0  0  0  0  0  0  0  0
    7.0150  -14.5155   21.2609 C   0  0  0  0  0  0  0  0  0  0  0  0
    7.4876  -14.0725   20.0343 C   0  0  0  0  0  0  0  0  0  0  0  0
    8.2445  -12.9361   19.9387 C   0  0  0  0  0  0  0  0  0  0  0  0
    8.5710  -12.1850   21.0387 C   0  0  0  0  0  0  0  0  0  0  0  0
    8.1083  -12.6148   22.2559 C   0  0  0  0  0  0  0  0  0  0  0  0
    7.3420  -13.7610   22.3719 C   0  0  0  0  0  0  0  0  0  0  0  0
    7.7869  -17.2064   22.5551 C   0  0  0  0  0  0  0  0  0  0  0  0
    7.3135  -17.6258   23.6648 O   0  0  0  0  0  0  0  0  0  0  0  0
   11.9109  -16.1589   22.3344 O   0  0  0  0  0  0  0  0  0  0  0  0
   11.5283  -17.3456   22.9213 C   0  0  0  0  0  0  0  0  0  0  0  0
   10.1185  -17.2291   23.5152 C   0  0  2  0  0  0  0  0  0  0  0  0
    9.1589  -16.9283   22.4833 N   0  0  0  0  0  0  0  0  0  0  0  0
   10.1963  -16.0756   24.4720 C   0  0  0  0  0  0  0  0  0  0  0  0
    9.9741  -14.9204   24.0356 O   0  0  0  0  0  0  0  0  0  0  0  0
    5.9819  -14.2982   26.8471 C   0  0  0  0  0  0  0  0  0  0  0  0
    6.9079  -13.3410   28.0989 S   0  0  0  0  0  0  0  0  0  0  0  0
    8.6879  -13.7184   27.9149 C   0  0  0  0  0  0  0  0  0  0  0  0
    8.9047  -14.8054   26.9177 C   0  0  0  0  0  0  0  0  0  0  0  0
   10.3491  -15.1837   26.8034 C   0  0  2  0  0  0  0  0  0  0  0  0
   10.5084  -16.2600   25.8251 N   0  0  0  0  0  0  0  0  0  0  0  0
   10.9050  -15.6700   28.0796 C   0  0  0  0  0  0  0  0  0  0  0  0
   11.6395  -14.8024   28.9095 O   0  0  0  0  0  0  0  0  0  0  0  0
   10.7826  -16.8386   28.5236 O   0  0  0  0  0  0  0  0  0  0  0  0
  2 10  1  0
  2  1  1  1
  3  2  1  0
  4  3  1  0
  5  4  2  0
  6  5  1  0
  7  6  2  0
  7  8  1  0
  8  9  2  0
  9  4  1  0
 10 11  2  0
 13 12  1  0
 14 13  1  6
 15 14  1  0
 15 10  1  0
 16 14  1  0
 17 16  2  0
 18 19  1  0
 19 20  1  0
 20 21  1  0
 22 21  1  1
 22 23  1  0
 23 16  1  0
 24 22  1  0
 24 25  1  0
 26 24  2  0
M  END
$$$$
