PLQ.pdb
     RDKit          3D

 25 25  0  0  1  0  0  0  0  0999 V2000
   18.3402  -12.2826  -17.9244 N   0  0  0  0  0  0  0  0  0  0  0  0
   16.9324  -11.9838  -18.1084 C   0  0  0  0  0  0  0  0  0  0  0  0
   16.8704  -11.2142  -19.4102 C   0  0  0  0  0  0  0  0  0  0  0  0
   18.1723  -10.4124  -19.3778 C   0  0  0  0  0  0  0  0  0  0  0  0
   19.0747  -11.1518  -18.4214 C   0  0  1  0  0  0  0  0  0  0  0  0
   19.5797  -10.2827  -17.3277 C   0  0  0  0  0  0  0  0  0  0  0  0
   18.7456   -9.8715  -16.4649 O   0  0  0  0  0  0  0  0  0  0  0  0
   22.0969  -10.6289  -13.7018 C   0  0  0  0  0  0  0  0  0  0  0  0
   22.9972  -10.5740  -14.9306 C   0  0  2  0  0  0  0  0  0  0  0  0
   24.3954  -10.9325  -14.5796 C   0  0  0  0  0  0  0  0  0  0  0  0
   22.7953   -9.3645  -15.7358 C   0  0  0  0  0  0  0  0  0  0  0  0
   21.4637   -9.0003  -16.2380 C   0  0  2  0  0  0  0  0  0  0  0  0
   20.9331   -9.9108  -17.2256 N   0  0  0  0  0  0  0  0  0  0  0  0
   21.2591   -7.5812  -16.6049 C   0  0  0  0  0  0  0  0  0  0  0  0
   21.4715   -7.1429  -17.7758 O   0  0  0  0  0  0  0  0  0  0  0  0
   16.6216   -4.3289  -15.5715 N   0  0  0  0  0  0  0  0  0  0  0  0
   17.4281   -3.2155  -15.8904 C   0  0  0  0  0  0  0  0  0  0  0  0
   16.9307   -2.0846  -16.0076 O   0  0  0  0  0  0  0  0  0  0  0  0
   18.8835   -3.4176  -16.0841 C   0  0  0  0  0  0  0  0  0  0  0  0
   19.1980   -4.8702  -15.8644 C   0  0  0  0  0  0  0  0  0  0  0  0
   20.6539   -5.1892  -16.0821 C   0  0  2  0  0  0  0  0  0  0  0  0
   20.8087   -6.6080  -15.6707 N   0  0  0  0  0  0  0  0  0  0  0  0
   21.4939   -4.3820  -15.1737 C   0  0  0  0  0  0  0  0  0  0  0  0
   22.1094   -4.8993  -14.0555 O   0  0  0  0  0  0  0  0  0  0  0  0
   21.6769   -3.1419  -15.4065 O   0  0  0  0  0  0  0  0  0  0  0  0
  1  2  1  0
  3  2  1  0
  4  5  1  0
  4  3  1  0
  5  1  1  0
  6  7  2  0
  5  6  1  1
  9 10  1  1
  9  8  1  0
 11  9  1  0
 12 11  1  6
 12 13  1  0
 13  6  1  0
 14 15  2  0
 14 12  1  0
 16 17  1  0
 17 18  2  0
 19 17  1  0
 19 20  1  0
 21 20  1  1
 21 22  1  0
 22 14  1  0
 23 21  1  0
 24 23  1  0
 25 23  2  0
M  END
$$$$
