PLQ.pdb
     RDKit          3D

 25 25  0  0  1  0  0  0  0  0999 V2000
   28.5448  -20.9871  -15.3264 N   0  0  0  0  0  0  0  0  0  0  0  0
   28.1623  -20.8160  -16.7155 C   0  0  0  0  0  0  0  0  0  0  0  0
   27.9543  -19.3254  -16.8755 C   0  0  0  0  0  0  0  0  0  0  0  0
   27.3765  -18.9286  -15.5162 C   0  0  0  0  0  0  0  0  0  0  0  0
   27.7980  -20.0225  -14.5667 C   0  0  1  0  0  0  0  0  0  0  0  0
   26.6465  -20.6342  -13.8553 C   0  0  0  0  0  0  0  0  0  0  0  0
   26.1216  -21.6723  -14.3611 O   0  0  0  0  0  0  0  0  0  0  0  0
   26.4038  -22.1542   -9.5914 C   0  0  0  0  0  0  0  0  0  0  0  0
   26.1247  -20.6569   -9.6509 C   0  0  2  0  0  0  0  0  0  0  0  0
   26.1547  -20.0579   -8.2918 C   0  0  0  0  0  0  0  0  0  0  0  0
   24.9835  -20.3198  -10.5090 C   0  0  0  0  0  0  0  0  0  0  0  0
   24.9944  -20.6327  -11.9442 C   0  0  2  0  0  0  0  0  0  0  0  0
   26.1325  -20.1024  -12.6580 N   0  0  0  0  0  0  0  0  0  0  0  0
   23.7227  -20.4358  -12.6751 C   0  0  0  0  0  0  0  0  0  0  0  0
   23.4655  -19.3751  -13.3209 O   0  0  0  0  0  0  0  0  0  0  0  0
   20.6750  -24.8092  -15.3862 N   0  0  0  0  0  0  0  0  0  0  0  0
   19.6533  -23.8433  -15.5085 C   0  0  0  0  0  0  0  0  0  0  0  0
   18.6147  -24.0947  -16.1396 O   0  0  0  0  0  0  0  0  0  0  0  0
   19.8396  -22.5190  -14.8697 C   0  0  0  0  0  0  0  0  0  0  0  0
   21.1531  -22.5205  -14.1403 C   0  0  0  0  0  0  0  0  0  0  0  0
   21.4619  -21.1944  -13.4962 C   0  0  2  0  0  0  0  0  0  0  0  0
   22.6989  -21.4224  -12.7062 N   0  0  0  0  0  0  0  0  0  0  0  0
   20.3976  -20.8334  -12.5373 C   0  0  0  0  0  0  0  0  0  0  0  0
   19.2413  -20.1808  -12.9033 O   0  0  0  0  0  0  0  0  0  0  0  0
   20.5253  -21.1240  -11.3025 O   0  0  0  0  0  0  0  0  0  0  0  0
  1  2  1  0
  3  2  1  0
  4  5  1  0
  4  3  1  0
  5  1  1  0
  6  7  2  0
  5  6  1  6
  9 10  1  1
  9  8  1  0
 11  9  1  0
 12 11  1  1
 12 13  1  0
 13  6  1  0
 14 15  2  0
 14 12  1  0
 16 17  1  0
 17 18  2  0
 19 17  1  0
 19 20  1  0
 21 20  1  1
 21 22  1  0
 22 14  1  0
 23 21  1  0
 24 23  1  0
 25 23  2  0
M  END
$$$$
