PLQ.pdb
     RDKit          3D

 25 25  0  0  1  0  0  0  0  0999 V2000
   27.0605  -20.3301  -15.2578 N   0  0  0  0  0  0  0  0  0  0  0  0
   28.3775  -20.8287  -14.9086 C   0  0  0  0  0  0  0  0  0  0  0  0
   28.6430  -21.9397  -15.9015 C   0  0  0  0  0  0  0  0  0  0  0  0
   27.2515  -22.5438  -16.0953 C   0  0  0  0  0  0  0  0  0  0  0  0
   26.2841  -21.4636  -15.6793 C   0  0  1  0  0  0  0  0  0  0  0  0
   25.3375  -21.9203  -14.6296 C   0  0  0  0  0  0  0  0  0  0  0  0
   24.5852  -22.9056  -14.8986 O   0  0  0  0  0  0  0  0  0  0  0  0
   26.7608  -21.1020   -9.4680 C   0  0  0  0  0  0  0  0  0  0  0  0
   25.8600  -20.6180  -10.5983 C   0  0  2  0  0  0  0  0  0  0  0  0
   25.4088  -19.2235  -10.3562 C   0  0  0  0  0  0  0  0  0  0  0  0
   24.8373  -21.5993  -10.9768 C   0  0  0  0  0  0  0  0  0  0  0  0
   24.2993  -21.6467  -12.3429 C   0  0  2  0  0  0  0  0  0  0  0  0
   25.2551  -21.3004  -13.3688 N   0  0  0  0  0  0  0  0  0  0  0  0
   22.9796  -21.0125  -12.5579 C   0  0  0  0  0  0  0  0  0  0  0  0
   22.0119  -21.1636  -11.7522 O   0  0  0  0  0  0  0  0  0  0  0  0
   21.5622  -17.4038  -17.3663 N   0  0  0  0  0  0  0  0  0  0  0  0
   20.3443  -17.2738  -16.6650 C   0  0  0  0  0  0  0  0  0  0  0  0
   19.4100  -16.6053  -17.1345 O   0  0  0  0  0  0  0  0  0  0  0  0
   20.1969  -17.9499  -15.3544 C   0  0  0  0  0  0  0  0  0  0  0  0
   21.4808  -18.6629  -15.0371 C   0  0  0  0  0  0  0  0  0  0  0  0
   21.3477  -19.6097  -13.8732 C   0  0  2  0  0  0  0  0  0  0  0  0
   22.7027  -20.1875  -13.6828 N   0  0  0  0  0  0  0  0  0  0  0  0
   20.4474  -20.7269  -14.2254 C   0  0  0  0  0  0  0  0  0  0  0  0
   20.8322  -21.7855  -15.0178 O   0  0  0  0  0  0  0  0  0  0  0  0
   19.2483  -20.7412  -13.7924 O   0  0  0  0  0  0  0  0  0  0  0  0
  1  2  1  0
  3  2  1  0
  4  5  1  0
  4  3  1  0
  5  1  1  0
  6  7  2  0
  5  6  1  1
  9 10  1  1
  9  8  1  0
 11  9  1  0
 12 11  1  1
 12 13  1  0
 13  6  1  0
 14 15  2  0
 14 12  1  0
 16 17  1  0
 17 18  2  0
 19 17  1  0
 19 20  1  0
 21 20  1  6
 21 22  1  0
 22 14  1  0
 23 21  1  0
 24 23  1  0
 25 23  2  0
M  END
$$$$
