PLQ.pdb
     RDKit          3D

 25 25  0  0  1  0  0  0  0  0999 V2000
   20.9388  -11.4634  -18.7566 N   0  0  0  0  0  0  0  0  0  0  0  0
   21.5957  -12.7110  -19.0988 C   0  0  0  0  0  0  0  0  0  0  0  0
   20.7138  -13.7858  -18.5006 C   0  0  0  0  0  0  0  0  0  0  0  0
   20.2117  -13.1200  -17.2186 C   0  0  0  0  0  0  0  0  0  0  0  0
   20.3693  -11.6374  -17.4487 C   0  0  1  0  0  0  0  0  0  0  0  0
   21.1772  -10.9795  -16.3899 C   0  0  0  0  0  0  0  0  0  0  0  0
   20.7876  -11.0973  -15.1885 O   0  0  0  0  0  0  0  0  0  0  0  0
   24.9574  -11.3624  -14.2772 C   0  0  0  0  0  0  0  0  0  0  0  0
   25.2325  -10.7339  -15.6384 C   0  0  2  0  0  0  0  0  0  0  0  0
   26.6867  -10.7410  -15.9413 C   0  0  0  0  0  0  0  0  0  0  0  0
   24.5089   -9.4746  -15.8453 C   0  0  0  0  0  0  0  0  0  0  0  0
   23.0457   -9.4122  -15.7312 C   0  0  2  0  0  0  0  0  0  0  0  0
   22.3411  -10.2432  -16.6793 N   0  0  0  0  0  0  0  0  0  0  0  0
   22.4479   -8.0646  -15.6020 C   0  0  0  0  0  0  0  0  0  0  0  0
   22.8253   -7.2336  -14.7214 O   0  0  0  0  0  0  0  0  0  0  0  0
   20.5792   -4.7379  -20.1706 N   0  0  0  0  0  0  0  0  0  0  0  0
   20.1336   -3.8571  -19.1620 C   0  0  0  0  0  0  0  0  0  0  0  0
   19.7002   -2.7303  -19.4495 O   0  0  0  0  0  0  0  0  0  0  0  0
   20.1912   -4.2992  -17.7485 C   0  0  0  0  0  0  0  0  0  0  0  0
   20.7841   -5.6790  -17.7029 C   0  0  0  0  0  0  0  0  0  0  0  0
   20.8645   -6.2312  -16.3038 C   0  0  2  0  0  0  0  0  0  0  0  0
   21.4083   -7.6049  -16.4567 N   0  0  0  0  0  0  0  0  0  0  0  0
   19.5097   -6.3645  -15.7299 C   0  0  0  0  0  0  0  0  0  0  0  0
   18.9291   -5.4024  -14.9336 O   0  0  0  0  0  0  0  0  0  0  0  0
   18.8180   -7.4100  -15.9622 O   0  0  0  0  0  0  0  0  0  0  0  0
  1  2  1  0
  3  2  1  0
  4  5  1  0
  4  3  1  0
  5  1  1  0
  6  7  2  0
  5  6  1  1
  9 10  1  1
  9  8  1  0
 11  9  1  0
 12 11  1  6
 12 13  1  0
 13  6  1  0
 14 15  2  0
 14 12  1  0
 16 17  1  0
 17 18  2  0
 19 17  1  0
 19 20  1  0
 21 20  1  6
 21 22  1  0
 22 14  1  0
 23 21  1  0
 24 23  1  0
 25 23  2  0
M  END
$$$$
