PLQ.pdb
     RDKit          3D

 25 25  0  0  1  0  0  0  0  0999 V2000
   22.2147  -12.1955  -19.5135 N   0  0  0  0  0  0  0  0  0  0  0  0
   23.1283  -13.3154  -19.3859 C   0  0  0  0  0  0  0  0  0  0  0  0
   22.2899  -14.4296  -18.7973 C   0  0  0  0  0  0  0  0  0  0  0  0
   21.3419  -13.6692  -17.8690 C   0  0  0  0  0  0  0  0  0  0  0  0
   21.3264  -12.2519  -18.3853 C   0  0  1  0  0  0  0  0  0  0  0  0
   21.6815  -11.2602  -17.3380 C   0  0  0  0  0  0  0  0  0  0  0  0
   21.0008  -11.2598  -16.2676 O   0  0  0  0  0  0  0  0  0  0  0  0
   24.4681  -10.5518  -14.0254 C   0  0  0  0  0  0  0  0  0  0  0  0
   25.1305  -10.3852  -15.3881 C   0  0  2  0  0  0  0  0  0  0  0  0
   26.6107  -10.3922  -15.2622 C   0  0  0  0  0  0  0  0  0  0  0  0
   24.5292   -9.3148  -16.1910 C   0  0  0  0  0  0  0  0  0  0  0  0
   23.1001   -9.3321  -16.5309 C   0  0  2  0  0  0  0  0  0  0  0  0
   22.7331  -10.3390  -17.4991 N   0  0  0  0  0  0  0  0  0  0  0  0
   22.4683   -8.0223  -16.8054 C   0  0  0  0  0  0  0  0  0  0  0  0
   22.4832   -7.0700  -15.9680 O   0  0  0  0  0  0  0  0  0  0  0  0
   18.8150   -6.0369  -14.7267 N   0  0  0  0  0  0  0  0  0  0  0  0
   18.6539   -4.9979  -15.6681 C   0  0  0  0  0  0  0  0  0  0  0  0
   17.8410   -4.0816  -15.4690 O   0  0  0  0  0  0  0  0  0  0  0  0
   19.4732   -5.0172  -16.9031 C   0  0  0  0  0  0  0  0  0  0  0  0
   20.2981   -6.2730  -16.9100 C   0  0  0  0  0  0  0  0  0  0  0  0
   21.0569   -6.4629  -18.1972 C   0  0  2  0  0  0  0  0  0  0  0  0
   21.8001   -7.7378  -18.0281 N   0  0  0  0  0  0  0  0  0  0  0  0
   22.0640   -5.3940  -18.3577 C   0  0  0  0  0  0  0  0  0  0  0  0
   21.8523   -4.2653  -19.1179 O   0  0  0  0  0  0  0  0  0  0  0  0
   23.1958   -5.4912  -17.7789 O   0  0  0  0  0  0  0  0  0  0  0  0
  1  2  1  0
  3  2  1  0
  4  5  1  0
  4  3  1  0
  5  1  1  0
  6  7  2  0
  5  6  1  1
  9 10  1  1
  9  8  1  0
 11  9  1  0
 12 11  1  6
 12 13  1  0
 13  6  1  0
 14 15  2  0
 14 12  1  0
 16 17  1  0
 17 18  2  0
 19 17  1  0
 19 20  1  0
 21 20  1  1
 21 22  1  0
 22 14  1  0
 23 21  1  0
 24 23  1  0
 25 23  2  0
M  END
$$$$
