PLQ.pdb
     RDKit          3D

 25 25  0  0  1  0  0  0  0  0999 V2000
   21.1860  -12.2846  -19.1665 N   0  0  0  0  0  0  0  0  0  0  0  0
   21.4835  -13.5597  -18.5413 C   0  0  0  0  0  0  0  0  0  0  0  0
   20.1342  -14.2191  -18.3534 C   0  0  0  0  0  0  0  0  0  0  0  0
   19.2276  -13.0262  -18.0471 C   0  0  0  0  0  0  0  0  0  0  0  0
   19.9480  -11.8224  -18.6017 C   0  0  1  0  0  0  0  0  0  0  0  0
   20.1546  -10.7624  -17.5819 C   0  0  0  0  0  0  0  0  0  0  0  0
   19.1334  -10.3172  -16.9752 O   0  0  0  0  0  0  0  0  0  0  0  0
   22.2561  -10.6190  -13.5654 C   0  0  0  0  0  0  0  0  0  0  0  0
   23.2428  -10.5129  -14.7224 C   0  0  2  0  0  0  0  0  0  0  0  0
   24.6382  -10.6968  -14.2474 C   0  0  0  0  0  0  0  0  0  0  0  0
   22.9768   -9.3676  -15.5997 C   0  0  0  0  0  0  0  0  0  0  0  0
   21.6893   -9.2249  -16.2925 C   0  0  2  0  0  0  0  0  0  0  0  0
   21.4290  -10.2491  -17.2770 N   0  0  0  0  0  0  0  0  0  0  0  0
   21.3440   -7.8698  -16.7770 C   0  0  0  0  0  0  0  0  0  0  0  0
   21.8328   -7.3816  -17.8405 O   0  0  0  0  0  0  0  0  0  0  0  0
   16.4979   -6.3293  -18.6775 N   0  0  0  0  0  0  0  0  0  0  0  0
   16.9228   -4.9842  -18.6323 C   0  0  0  0  0  0  0  0  0  0  0  0
   16.2677   -4.0926  -19.1945 O   0  0  0  0  0  0  0  0  0  0  0  0
   18.1679   -4.6507  -17.9007 C   0  0  0  0  0  0  0  0  0  0  0  0
   18.7677   -5.9231  -17.3729 C   0  0  0  0  0  0  0  0  0  0  0  0
   20.0707   -5.6963  -16.6521 C   0  0  2  0  0  0  0  0  0  0  0  0
   20.4388   -7.0188  -16.0849 N   0  0  0  0  0  0  0  0  0  0  0  0
   19.8695   -4.7784  -15.5121 C   0  0  0  0  0  0  0  0  0  0  0  0
   19.8391   -5.1985  -14.2009 O   0  0  0  0  0  0  0  0  0  0  0  0
   19.7111   -3.5301  -15.7178 O   0  0  0  0  0  0  0  0  0  0  0  0
  1  2  1  0
  3  2  1  0
  4  5  1  0
  4  3  1  0
  5  1  1  0
  6  7  2  0
  5  6  1  1
  9 10  1  1
  9  8  1  0
 11  9  1  0
 12 11  1  6
 12 13  1  0
 13  6  1  0
 14 15  2  0
 14 12  1  0
 16 17  1  0
 17 18  2  0
 19 17  1  0
 19 20  1  0
 21 20  1  1
 21 22  1  0
 22 14  1  0
 23 21  1  0
 24 23  1  0
 25 23  2  0
M  END
$$$$
