PLQ.pdb
     RDKit          3D

 25 25  0  0  1  0  0  0  0  0999 V2000
   21.6166  -21.7955  -10.2318 N   0  0  0  0  0  0  0  0  0  0  0  0
   21.0697  -21.2279   -9.0137 C   0  0  0  0  0  0  0  0  0  0  0  0
   20.0983  -20.1680   -9.4865 C   0  0  0  0  0  0  0  0  0  0  0  0
   20.7879  -19.6293  -10.7407 C   0  0  0  0  0  0  0  0  0  0  0  0
   21.7361  -20.7188  -11.1761 C   0  0  1  0  0  0  0  0  0  0  0  0
   23.1351  -20.2373  -11.3080 C   0  0  0  0  0  0  0  0  0  0  0  0
   23.3450  -19.2198  -12.0358 O   0  0  0  0  0  0  0  0  0  0  0  0
   25.9846  -18.8072   -8.4734 C   0  0  0  0  0  0  0  0  0  0  0  0
   26.2128  -20.3143   -8.4641 C   0  0  2  0  0  0  0  0  0  0  0  0
   27.1220  -20.7058   -7.3565 C   0  0  0  0  0  0  0  0  0  0  0  0
   26.5018  -20.8587   -9.7953 C   0  0  0  0  0  0  0  0  0  0  0  0
   25.6062  -20.6026  -10.9312 C   0  0  2  0  0  0  0  0  0  0  0  0
   24.2128  -20.8682  -10.6592 N   0  0  0  0  0  0  0  0  0  0  0  0
   26.0382  -21.1247  -12.2468 C   0  0  0  0  0  0  0  0  0  0  0  0
   26.1340  -22.3659  -12.4889 O   0  0  0  0  0  0  0  0  0  0  0  0
   22.1677  -21.5456  -15.1673 N   0  0  0  0  0  0  0  0  0  0  0  0
   22.9263  -21.6752  -16.3503 C   0  0  0  0  0  0  0  0  0  0  0  0
   22.3863  -22.0072  -17.4172 O   0  0  0  0  0  0  0  0  0  0  0  0
   24.3832  -21.4080  -16.2996 C   0  0  0  0  0  0  0  0  0  0  0  0
   24.7553  -21.0527  -14.8880 C   0  0  0  0  0  0  0  0  0  0  0  0
   26.2216  -20.7445  -14.7333 C   0  0  2  0  0  0  0  0  0  0  0  0
   26.3759  -20.2719  -13.3336 N   0  0  0  0  0  0  0  0  0  0  0  0
   26.6017  -19.6202  -15.6131 C   0  0  0  0  0  0  0  0  0  0  0  0
   27.1314  -19.7929  -16.8726 O   0  0  0  0  0  0  0  0  0  0  0  0
   26.4464  -18.4185  -15.2165 O   0  0  0  0  0  0  0  0  0  0  0  0
  1  2  1  0
  3  2  1  0
  4  5  1  0
  4  3  1  0
  5  1  1  0
  6  7  2  0
  5  6  1  1
  9 10  1  1
  9  8  1  0
 11  9  1  0
 12 11  1  1
 12 13  1  0
 13  6  1  0
 14 15  2  0
 14 12  1  0
 16 17  1  0
 17 18  2  0
 19 17  1  0
 19 20  1  0
 21 20  1  6
 21 22  1  0
 22 14  1  0
 23 21  1  0
 24 23  1  0
 25 23  2  0
M  END
$$$$
