PLQ.pdb
     RDKit          3D

 25 25  0  0  1  0  0  0  0  0999 V2000
   28.6677  -19.6370  -12.9104 N   0  0  0  0  0  0  0  0  0  0  0  0
   29.9449  -20.2446  -12.5870 C   0  0  0  0  0  0  0  0  0  0  0  0
   30.1615  -21.2815  -13.6681 C   0  0  0  0  0  0  0  0  0  0  0  0
   28.7398  -21.7790  -13.9327 C   0  0  0  0  0  0  0  0  0  0  0  0
   27.8321  -20.6800  -13.4388 C   0  0  1  0  0  0  0  0  0  0  0  0
   26.8393  -21.1645  -12.4458 C   0  0  0  0  0  0  0  0  0  0  0  0
   26.0657  -22.1077  -12.7935 O   0  0  0  0  0  0  0  0  0  0  0  0
   28.3053  -21.1968   -8.3660 C   0  0  0  0  0  0  0  0  0  0  0  0
   27.2277  -20.1198   -8.4129 C   0  0  2  0  0  0  0  0  0  0  0  0
   27.2569  -19.2870   -7.1832 C   0  0  0  0  0  0  0  0  0  0  0  0
   25.9233  -20.6323   -8.8468 C   0  0  0  0  0  0  0  0  0  0  0  0
   25.6067  -20.7926  -10.2723 C   0  0  2  0  0  0  0  0  0  0  0  0
   26.7365  -20.6150  -11.1543 N   0  0  0  0  0  0  0  0  0  0  0  0
   24.3899  -20.1073  -10.7621 C   0  0  0  0  0  0  0  0  0  0  0  0
   24.3354  -18.8510  -10.9270 O   0  0  0  0  0  0  0  0  0  0  0  0
   23.2851  -18.8980  -15.5147 N   0  0  0  0  0  0  0  0  0  0  0  0
   23.1527  -20.2937  -15.3533 C   0  0  0  0  0  0  0  0  0  0  0  0
   23.3885  -21.0666  -16.2951 O   0  0  0  0  0  0  0  0  0  0  0  0
   22.7261  -20.8251  -14.0370 C   0  0  0  0  0  0  0  0  0  0  0  0
   22.5818  -19.6750  -13.0811 C   0  0  0  0  0  0  0  0  0  0  0  0
   22.0622  -20.1011  -11.7331 C   0  0  2  0  0  0  0  0  0  0  0  0
   23.1952  -20.8087  -11.0835 N   0  0  0  0  0  0  0  0  0  0  0  0
   20.9734  -21.0865  -11.8948 C   0  0  0  0  0  0  0  0  0  0  0  0
   19.6743  -20.7350  -12.1871 O   0  0  0  0  0  0  0  0  0  0  0  0
   21.2142  -22.3315  -11.7618 O   0  0  0  0  0  0  0  0  0  0  0  0
  1  2  1  0
  3  2  1  0
  4  5  1  0
  4  3  1  0
  5  1  1  0
  6  7  2  0
  5  6  1  1
  9 10  1  1
  9  8  1  0
 11  9  1  0
 12 11  1  1
 12 13  1  0
 13  6  1  0
 14 15  2  0
 14 12  1  0
 16 17  1  0
 17 18  2  0
 19 17  1  0
 19 20  1  0
 21 20  1  6
 21 22  1  0
 22 14  1  0
 23 21  1  0
 24 23  1  0
 25 23  2  0
M  END
$$$$
