PLQ.pdb
     RDKit          3D

 25 25  0  0  1  0  0  0  0  0999 V2000
   26.3064  -19.4020  -15.1817 N   0  0  0  0  0  0  0  0  0  0  0  0
   27.6206  -19.1378  -14.6264 C   0  0  0  0  0  0  0  0  0  0  0  0
   28.5143  -20.1972  -15.2343 C   0  0  0  0  0  0  0  0  0  0  0  0
   27.5774  -21.4027  -15.3235 C   0  0  0  0  0  0  0  0  0  0  0  0
   26.1825  -20.8290  -15.2978 C   0  0  1  0  0  0  0  0  0  0  0  0
   25.3466  -21.4122  -14.2172 C   0  0  0  0  0  0  0  0  0  0  0  0
   25.1088  -22.6574  -14.2591 O   0  0  0  0  0  0  0  0  0  0  0  0
   26.3511  -22.0682  -10.3829 C   0  0  0  0  0  0  0  0  0  0  0  0
   25.6766  -20.7014  -10.3599 C   0  0  2  0  0  0  0  0  0  0  0  0
   25.9806  -19.9817   -9.0965 C   0  0  0  0  0  0  0  0  0  0  0  0
   24.2738  -20.7470  -10.7867 C   0  0  0  0  0  0  0  0  0  0  0  0
   23.9098  -21.1210  -12.1599 C   0  0  2  0  0  0  0  0  0  0  0  0
   24.8218  -20.6342  -13.1685 N   0  0  0  0  0  0  0  0  0  0  0  0
   22.4913  -20.9417  -12.5417 C   0  0  0  0  0  0  0  0  0  0  0  0
   21.5371  -21.1414  -11.7306 O   0  0  0  0  0  0  0  0  0  0  0  0
   19.6487  -16.7451  -16.0427 N   0  0  0  0  0  0  0  0  0  0  0  0
   18.7951  -17.8078  -15.6765 C   0  0  0  0  0  0  0  0  0  0  0  0
   17.6787  -17.5837  -15.1831 O   0  0  0  0  0  0  0  0  0  0  0  0
   19.2536  -19.2009  -15.8907 C   0  0  0  0  0  0  0  0  0  0  0  0
   20.6218  -19.3519  -15.2886 C   0  0  0  0  0  0  0  0  0  0  0  0
   20.6585  -20.3669  -14.1762 C   0  0  2  0  0  0  0  0  0  0  0  0
   22.0971  -20.5318  -13.8453 N   0  0  0  0  0  0  0  0  0  0  0  0
   20.1749  -21.6749  -14.6636 C   0  0  0  0  0  0  0  0  0  0  0  0
   18.8742  -22.1023  -14.5141 O   0  0  0  0  0  0  0  0  0  0  0  0
   20.9757  -22.4720  -15.2542 O   0  0  0  0  0  0  0  0  0  0  0  0
  1  2  1  0
  3  2  1  0
  4  5  1  0
  4  3  1  0
  5  1  1  0
  6  7  2  0
  5  6  1  1
  9 10  1  1
  9  8  1  0
 11  9  1  0
 12 11  1  1
 12 13  1  0
 13  6  1  0
 14 15  2  0
 14 12  1  0
 16 17  1  0
 17 18  2  0
 19 17  1  0
 19 20  1  0
 21 20  1  6
 21 22  1  0
 22 14  1  0
 23 21  1  0
 24 23  1  0
 25 23  2  0
M  END
$$$$
