PLQ.pdb
     RDKit          3D

 25 25  0  0  1  0  0  0  0  0999 V2000
   19.6307  -11.7623  -18.6505 N   0  0  0  0  0  0  0  0  0  0  0  0
   20.0723  -13.1025  -18.9884 C   0  0  0  0  0  0  0  0  0  0  0  0
   19.0480  -14.0163  -18.3508 C   0  0  0  0  0  0  0  0  0  0  0  0
   18.6925  -13.2636  -17.0680 C   0  0  0  0  0  0  0  0  0  0  0  0
   19.0765  -11.8277  -17.3262 C   0  0  1  0  0  0  0  0  0  0  0  0
   20.0067  -11.2933  -16.2988 C   0  0  0  0  0  0  0  0  0  0  0  0
   19.6160  -11.2871  -15.0920 O   0  0  0  0  0  0  0  0  0  0  0  0
   23.6136  -12.8600  -14.7921 C   0  0  0  0  0  0  0  0  0  0  0  0
   23.9932  -12.0276  -16.0113 C   0  0  2  0  0  0  0  0  0  0  0  0
   25.3853  -12.3192  -16.4396 C   0  0  0  0  0  0  0  0  0  0  0  0
   23.6105  -10.6171  -15.8844 C   0  0  0  0  0  0  0  0  0  0  0  0
   22.2099  -10.2263  -15.6752 C   0  0  2  0  0  0  0  0  0  0  0  0
   21.2855  -10.8033  -16.6230 N   0  0  0  0  0  0  0  0  0  0  0  0
   21.9520   -8.7895  -15.4319 C   0  0  0  0  0  0  0  0  0  0  0  0
   22.6367   -8.1035  -14.6139 O   0  0  0  0  0  0  0  0  0  0  0  0
   19.5751   -5.2220  -19.6741 N   0  0  0  0  0  0  0  0  0  0  0  0
   19.6050   -4.2423  -18.6587 C   0  0  0  0  0  0  0  0  0  0  0  0
   19.2445   -3.0776  -18.8900 O   0  0  0  0  0  0  0  0  0  0  0  0
   20.0753   -4.6264  -17.3066 C   0  0  0  0  0  0  0  0  0  0  0  0
   20.3593   -6.1018  -17.3004 C   0  0  0  0  0  0  0  0  0  0  0  0
   20.8122   -6.6009  -15.9533 C   0  0  2  0  0  0  0  0  0  0  0  0
   20.9186   -8.0753  -16.0986 N   0  0  0  0  0  0  0  0  0  0  0  0
   19.7716   -6.3411  -14.9373 C   0  0  0  0  0  0  0  0  0  0  0  0
   18.6786   -7.1580  -14.7502 O   0  0  0  0  0  0  0  0  0  0  0  0
   19.8585   -5.3180  -14.1816 O   0  0  0  0  0  0  0  0  0  0  0  0
  1  2  1  0
  3  2  1  0
  4  5  1  0
  4  3  1  0
  5  1  1  0
  6  7  2  0
  5  6  1  1
  9 10  1  1
  9  8  1  0
 11  9  1  0
 12 11  1  6
 12 13  1  0
 13  6  1  0
 14 15  2  0
 14 12  1  0
 16 17  1  0
 17 18  2  0
 19 17  1  0
 19 20  1  0
 21 20  1  6
 21 22  1  0
 22 14  1  0
 23 21  1  0
 24 23  1  0
 25 23  2  0
M  END
$$$$
