PLQ.pdb
     RDKit          3D

 25 25  0  0  1  0  0  0  0  0999 V2000
   42.4833   -9.9402   -7.8539 N   0  0  0  0  0  0  0  0  0  0  0  0
   41.2992  -10.1612   -7.0450 C   0  0  0  0  0  0  0  0  0  0  0  0
   41.6505   -9.5929   -5.6869 C   0  0  0  0  0  0  0  0  0  0  0  0
   43.1403   -9.9187   -5.5721 C   0  0  0  0  0  0  0  0  0  0  0  0
   43.6175  -10.1176   -6.9893 C   0  0  1  0  0  0  0  0  0  0  0  0
   44.2780  -11.4331   -7.1886 C   0  0  0  0  0  0  0  0  0  0  0  0
   45.3635  -11.6506   -6.5694 O   0  0  0  0  0  0  0  0  0  0  0  0
   42.7544  -17.0202   -9.5210 C   0  0  0  0  0  0  0  0  0  0  0  0
   43.8225  -16.1423   -8.8792 C   0  0  2  0  0  0  0  0  0  0  0  0
   44.4003  -16.8018   -7.6801 C   0  0  0  0  0  0  0  0  0  0  0  0
   43.4072  -14.7420   -8.7417 C   0  0  0  0  0  0  0  0  0  0  0  0
   44.3457  -13.7146   -8.2711 C   0  0  2  0  0  0  0  0  0  0  0  0
   43.7412  -12.4252   -8.0301 N   0  0  0  0  0  0  0  0  0  0  0  0
   45.6336  -13.6128   -8.9928 C   0  0  0  0  0  0  0  0  0  0  0  0
   45.7383  -13.0465  -10.1228 O   0  0  0  0  0  0  0  0  0  0  0  0
   51.1012  -13.7046   -6.3624 N   0  0  0  0  0  0  0  0  0  0  0  0
   51.5660  -13.8338   -7.6887 C   0  0  0  0  0  0  0  0  0  0  0  0
   52.7816  -13.8298   -7.9382 O   0  0  0  0  0  0  0  0  0  0  0  0
   50.5770  -13.9749   -8.7835 C   0  0  0  0  0  0  0  0  0  0  0  0
   49.1974  -13.9315   -8.1901 C   0  0  0  0  0  0  0  0  0  0  0  0
   48.1133  -14.0062   -9.2331 C   0  0  2  0  0  0  0  0  0  0  0  0
   46.8460  -14.1419   -8.4704 N   0  0  0  0  0  0  0  0  0  0  0  0
   48.2656  -15.2347  -10.0394 C   0  0  0  0  0  0  0  0  0  0  0  0
   47.9076  -16.4848   -9.5856 O   0  0  0  0  0  0  0  0  0  0  0  0
   48.7509  -15.1697  -11.2166 O   0  0  0  0  0  0  0  0  0  0  0  0
  1  2  1  0
  3  2  1  0
  4  5  1  0
  4  3  1  0
  5  1  1  0
  6  7  2  0
  5  6  1  1
  9 10  1  1
  9  8  1  0
 11  9  1  0
 12 11  1  6
 12 13  1  0
 13  6  1  0
 14 15  2  0
 14 12  1  0
 16 17  1  0
 17 18  2  0
 19 17  1  0
 19 20  1  0
 21 20  1  1
 21 22  1  0
 22 14  1  0
 23 21  1  0
 24 23  1  0
 25 23  2  0
M  END
$$$$
