PLQ.pdb
     RDKit          3D

 25 25  0  0  1  0  0  0  0  0999 V2000
   31.2198  -21.2644  -10.3608 N   0  0  0  0  0  0  0  0  0  0  0  0
   32.5613  -21.0774   -9.8407 C   0  0  0  0  0  0  0  0  0  0  0  0
   33.1130  -22.4786   -9.6890 C   0  0  0  0  0  0  0  0  0  0  0  0
   31.8733  -23.2750   -9.2797 C   0  0  0  0  0  0  0  0  0  0  0  0
   30.6971  -22.4541   -9.7471 C   0  0  1  0  0  0  0  0  0  0  0  0
   29.7430  -22.1499   -8.6500 C   0  0  0  0  0  0  0  0  0  0  0  0
   29.1329  -23.1218   -8.1093 O   0  0  0  0  0  0  0  0  0  0  0  0
   28.5406  -17.8537   -4.3935 C   0  0  0  0  0  0  0  0  0  0  0  0
   28.3495  -19.2613   -4.9462 C   0  0  2  0  0  0  0  0  0  0  0  0
   28.5747  -20.2807   -3.8894 C   0  0  0  0  0  0  0  0  0  0  0  0
   29.0218  -19.4680   -6.2337 C   0  0  0  0  0  0  0  0  0  0  0  0
   28.5416  -20.4767   -7.1875 C   0  0  2  0  0  0  0  0  0  0  0  0
   29.5029  -20.8371   -8.2034 N   0  0  0  0  0  0  0  0  0  0  0  0
   27.1823  -20.2753   -7.7369 C   0  0  0  0  0  0  0  0  0  0  0  0
   26.3042  -19.5785   -7.1437 O   0  0  0  0  0  0  0  0  0  0  0  0
   26.2499  -21.1608  -13.6978 N   0  0  0  0  0  0  0  0  0  0  0  0
   25.0523  -20.4630  -13.4324 C   0  0  0  0  0  0  0  0  0  0  0  0
   24.3015  -20.1163  -14.3577 O   0  0  0  0  0  0  0  0  0  0  0  0
   24.7029  -20.1491  -12.0266 C   0  0  0  0  0  0  0  0  0  0  0  0
   25.8157  -20.6293  -11.1387 C   0  0  0  0  0  0  0  0  0  0  0  0
   25.5828  -20.3033   -9.6867 C   0  0  2  0  0  0  0  0  0  0  0  0
   26.7640  -20.8481   -8.9696 N   0  0  0  0  0  0  0  0  0  0  0  0
   24.3993  -21.0311   -9.1845 C   0  0  0  0  0  0  0  0  0  0  0  0
   24.4833  -22.1334   -8.3631 O   0  0  0  0  0  0  0  0  0  0  0  0
   23.2280  -20.6472   -9.5104 O   0  0  0  0  0  0  0  0  0  0  0  0
  1  2  1  0
  3  2  1  0
  4  5  1  0
  4  3  1  0
  5  1  1  0
  6  7  2  0
  5  6  1  1
  9 10  1  1
  9  8  1  0
 11  9  1  0
 12 11  1  6
 12 13  1  0
 13  6  1  0
 14 15  2  0
 14 12  1  0
 16 17  1  0
 17 18  2  0
 19 17  1  0
 19 20  1  0
 21 20  1  6
 21 22  1  0
 22 14  1  0
 23 21  1  0
 24 23  1  0
 25 23  2  0
M  END
$$$$
