LED.pdb
     RDKit          3D

 26 25  0  0  1  0  0  0  0  0999 V2000
    7.1389  -11.7937   27.3973 C   0  0  0  0  0  0  0  0  0  0  0  0
    6.4783  -12.9501   26.6547 C   0  0  1  0  0  0  0  0  0  0  0  0
    5.6093  -12.2980   25.5695 C   0  0  0  0  0  0  0  0  0  0  0  0
    7.4637  -13.8038   25.9416 C   0  0  0  0  0  0  0  0  0  0  0  0
    6.9125  -14.9072   25.0935 C   0  0  2  0  0  0  0  0  0  0  0  0
    6.2284  -15.8517   26.0056 N   0  0  0  0  0  0  0  0  0  0  0  0
    7.9573  -15.6975   24.3720 C   0  0  0  0  0  0  0  0  0  0  0  0
    8.3404  -16.7514   24.9266 O   0  0  0  0  0  0  0  0  0  0  0  0
    8.4974  -15.3010   23.1334 N   0  0  0  0  0  0  0  0  0  0  0  0
    9.3272  -16.0626   22.2462 C   0  0  1  0  0  0  0  0  0  0  0  0
    8.7943  -16.1570   20.8630 C   0  0  0  0  0  0  0  0  0  0  0  0
    9.6770  -17.1262   20.0603 C   0  0  0  0  0  0  0  0  0  0  0  0
    9.0519  -17.3060   18.7093 C   0  0  0  0  0  0  0  0  0  0  0  0
    8.6562  -18.4739   18.4034 O   0  0  0  0  0  0  0  0  0  0  0  0
   10.7785  -15.9141   22.3981 C   0  0  0  0  0  0  0  0  0  0  0  0
   11.6030  -16.2778   21.5256 O   0  0  0  0  0  0  0  0  0  0  0  0
    8.8958  -16.2808   17.8144 O   0  0  0  0  0  0  0  0  0  0  0  0
   11.3731  -15.3313   23.5727 N   0  0  0  0  0  0  0  0  0  0  0  0
   12.2530  -16.1007   24.4343 C   0  0  1  0  0  0  0  0  0  0  0  0
   11.6933  -17.3957   24.8985 C   0  0  0  0  0  0  0  0  0  0  0  0
   12.5918  -18.1572   25.7830 C   0  0  0  0  0  0  0  0  0  0  0  0
   13.8006  -18.2794   25.4674 O   0  0  0  0  0  0  0  0  0  0  0  0
   13.5229  -16.3784   23.6727 C   0  0  0  0  0  0  0  0  0  0  0  0
   14.5382  -15.7114   24.0317 O   0  0  0  0  0  0  0  0  0  0  0  0
   12.1816  -18.7565   26.9622 O   0  0  0  0  0  0  0  0  0  0  0  0
   13.6360  -17.2736   22.6541 O   0  0  0  0  0  0  0  0  0  0  0  0
  2  1  1  6
  2  3  1  0
  4  2  1  0
  5  4  1  0
  5  6  1  1
  7  9  1  0
  7  5  1  0
  8  7  2  0
 10  9  1  0
 11 12  1  0
 10 11  1  6
 12 13  1  0
 13 14  2  0
 13 17  1  0
 15 16  2  0
 15 10  1  0
 18 15  1  0
 19 20  1  6
 19 18  1  0
 21 20  1  0
 21 25  1  0
 22 21  2  0
 23 19  1  0
 24 23  2  0
 26 23  1  0
M  END
$$$$
