LED.pdb
     RDKit          3D

 26 25  0  0  1  0  0  0  0  0999 V2000
    7.3653  -12.2510   21.2478 C   0  0  0  0  0  0  0  0  0  0  0  0
    7.3358  -13.4550   20.3126 C   0  0  1  0  0  0  0  0  0  0  0  0
    7.6260  -12.8947   18.9127 C   0  0  0  0  0  0  0  0  0  0  0  0
    8.4206  -14.4277   20.6048 C   0  0  0  0  0  0  0  0  0  0  0  0
    8.3979  -15.7144   19.8404 C   0  0  2  0  0  0  0  0  0  0  0  0
    7.1095  -16.3759   20.1474 N   0  0  0  0  0  0  0  0  0  0  0  0
    9.4723  -16.6755   20.2385 C   0  0  0  0  0  0  0  0  0  0  0  0
    9.2295  -17.4052   21.2253 O   0  0  0  0  0  0  0  0  0  0  0  0
   10.7004  -16.7761   19.5566 N   0  0  0  0  0  0  0  0  0  0  0  0
   11.8955  -17.4447   19.9815 C   0  0  1  0  0  0  0  0  0  0  0  0
   12.9228  -17.5671   18.9158 C   0  0  0  0  0  0  0  0  0  0  0  0
   14.0849  -18.4212   19.4479 C   0  0  0  0  0  0  0  0  0  0  0  0
   15.0953  -18.5591   18.3486 C   0  0  0  0  0  0  0  0  0  0  0  0
   15.4438  -17.4976   17.7438 O   0  0  0  0  0  0  0  0  0  0  0  0
   12.3686  -17.1653   21.3415 C   0  0  0  0  0  0  0  0  0  0  0  0
   12.0148  -16.1584   22.0005 O   0  0  0  0  0  0  0  0  0  0  0  0
   15.6431  -19.7598   17.9820 O   0  0  0  0  0  0  0  0  0  0  0  0
   13.2839  -18.0366   22.0314 N   0  0  0  0  0  0  0  0  0  0  0  0
   13.5652  -17.8684   23.4461 C   0  0  1  0  0  0  0  0  0  0  0  0
   12.4117  -18.1275   24.3451 C   0  0  0  0  0  0  0  0  0  0  0  0
   12.7328  -18.0302   25.7793 C   0  0  0  0  0  0  0  0  0  0  0  0
   13.9151  -17.7896   26.1258 O   0  0  0  0  0  0  0  0  0  0  0  0
   14.6765  -18.8162   23.8149 C   0  0  0  0  0  0  0  0  0  0  0  0
   14.5460  -20.0064   23.4013 O   0  0  0  0  0  0  0  0  0  0  0  0
   11.7972  -18.1886   26.7880 O   0  0  0  0  0  0  0  0  0  0  0  0
   15.7742  -18.4776   24.5443 O   0  0  0  0  0  0  0  0  0  0  0  0
  2  1  1  1
  2  3  1  0
  4  2  1  0
  5  4  1  0
  5  6  1  1
  7  9  1  0
  7  5  1  0
  8  7  2  0
 10  9  1  0
 11 12  1  0
 10 11  1  6
 12 13  1  0
 13 14  2  0
 13 17  1  0
 15 16  2  0
 15 10  1  0
 18 15  1  0
 19 20  1  1
 19 18  1  0
 21 20  1  0
 21 25  1  0
 22 21  2  0
 23 19  1  0
 24 23  2  0
 26 23  1  0
M  END
$$$$
