LED.pdb
     RDKit          3D

 26 25  0  0  1  0  0  0  0  0999 V2000
    7.1081  -12.7866   21.2079 C   0  0  0  0  0  0  0  0  0  0  0  0
    7.5434  -13.5372   19.9541 C   0  0  1  0  0  0  0  0  0  0  0  0
    7.4933  -12.5042   18.8190 C   0  0  0  0  0  0  0  0  0  0  0  0
    8.9524  -14.0027   20.0314 C   0  0  0  0  0  0  0  0  0  0  0  0
    9.4705  -14.7845   18.8646 C   0  0  2  0  0  0  0  0  0  0  0  0
    8.5736  -15.9499   18.6939 N   0  0  0  0  0  0  0  0  0  0  0  0
   10.8462  -15.3352   19.0662 C   0  0  0  0  0  0  0  0  0  0  0  0
   10.9223  -16.4571   19.6147 O   0  0  0  0  0  0  0  0  0  0  0  0
   12.0107  -14.6503   18.6687 N   0  0  0  0  0  0  0  0  0  0  0  0
   13.3763  -15.0124   18.9129 C   0  0  1  0  0  0  0  0  0  0  0  0
   14.3242  -14.4892   17.8962 C   0  0  0  0  0  0  0  0  0  0  0  0
   15.7443  -14.9482   18.2646 C   0  0  0  0  0  0  0  0  0  0  0  0
   16.6752  -14.4711   17.1903 C   0  0  0  0  0  0  0  0  0  0  0  0
   16.7288  -15.1566   16.1220 O   0  0  0  0  0  0  0  0  0  0  0  0
   13.8252  -15.0188   20.3093 C   0  0  0  0  0  0  0  0  0  0  0  0
   13.9449  -13.9780   20.9989 O   0  0  0  0  0  0  0  0  0  0  0  0
   17.4511  -13.3494   17.3163 O   0  0  0  0  0  0  0  0  0  0  0  0
   14.1646  -16.2343   21.0023 N   0  0  0  0  0  0  0  0  0  0  0  0
   14.4771  -16.2326   22.4204 C   0  0  1  0  0  0  0  0  0  0  0  0
   13.9431  -17.3941   23.1768 C   0  0  0  0  0  0  0  0  0  0  0  0
   14.3223  -17.4111   24.5999 C   0  0  0  0  0  0  0  0  0  0  0  0
   15.0636  -16.5014   25.0458 O   0  0  0  0  0  0  0  0  0  0  0  0
   15.9765  -16.2204   22.5660 C   0  0  0  0  0  0  0  0  0  0  0  0
   16.4146  -16.1440   23.7520 O   0  0  0  0  0  0  0  0  0  0  0  0
   13.9049  -18.3829   25.4941 O   0  0  0  0  0  0  0  0  0  0  0  0
   16.8565  -16.2827   21.5300 O   0  0  0  0  0  0  0  0  0  0  0  0
  2  1  1  1
  2  3  1  0
  4  2  1  0
  5  4  1  0
  5  6  1  1
  7  9  1  0
  7  5  1  0
  8  7  2  0
 10  9  1  0
 11 12  1  0
 10 11  1  6
 12 13  1  0
 13 14  2  0
 13 17  1  0
 15 16  2  0
 15 10  1  0
 18 15  1  0
 19 20  1  6
 19 18  1  0
 21 20  1  0
 21 25  1  0
 22 21  2  0
 23 19  1  0
 24 23  2  0
 26 23  1  0
M  END
$$$$
