LED.pdb
     RDKit          3D

 26 25  0  0  1  0  0  0  0  0999 V2000
    6.4521  -12.8741   19.0096 C   0  0  0  0  0  0  0  0  0  0  0  0
    7.7041  -13.7138   19.2393 C   0  0  1  0  0  0  0  0  0  0  0  0
    8.8856  -12.7766   18.9502 C   0  0  0  0  0  0  0  0  0  0  0  0
    7.8490  -14.1418   20.6549 C   0  0  0  0  0  0  0  0  0  0  0  0
    8.9846  -15.0653   20.9684 C   0  0  2  0  0  0  0  0  0  0  0  0
    8.8579  -16.2282   20.0609 N   0  0  0  0  0  0  0  0  0  0  0  0
    8.9565  -15.6103   22.3608 C   0  0  0  0  0  0  0  0  0  0  0  0
    8.9622  -14.7704   23.2880 O   0  0  0  0  0  0  0  0  0  0  0  0
    8.9239  -16.9898   22.6423 N   0  0  0  0  0  0  0  0  0  0  0  0
    8.8952  -17.6300   23.9248 C   0  0  1  0  0  0  0  0  0  0  0  0
    7.6959  -18.4789   24.1423 C   0  0  0  0  0  0  0  0  0  0  0  0
    6.7915  -18.3802   22.9032 C   0  0  0  0  0  0  0  0  0  0  0  0
    5.7679  -19.4722   22.9927 C   0  0  0  0  0  0  0  0  0  0  0  0
    4.6524  -19.1801   23.5258 O   0  0  0  0  0  0  0  0  0  0  0  0
   10.1717  -18.1231   24.4530 C   0  0  0  0  0  0  0  0  0  0  0  0
   10.4086  -18.2459   25.6786 O   0  0  0  0  0  0  0  0  0  0  0  0
    5.9872  -20.7431   22.5311 O   0  0  0  0  0  0  0  0  0  0  0  0
   11.2612  -18.5095   23.5946 N   0  0  0  0  0  0  0  0  0  0  0  0
   12.5423  -17.8278   23.6475 C   0  0  1  0  0  0  0  0  0  0  0  0
   12.5667  -16.4968   22.9889 C   0  0  0  0  0  0  0  0  0  0  0  0
   13.9004  -15.8735   22.9412 C   0  0  0  0  0  0  0  0  0  0  0  0
   14.6744  -16.0107   23.9198 O   0  0  0  0  0  0  0  0  0  0  0  0
   12.9131  -17.6471   25.0965 C   0  0  0  0  0  0  0  0  0  0  0  0
   14.1152  -17.3167   25.3209 O   0  0  0  0  0  0  0  0  0  0  0  0
   14.3640  -15.1335   21.8662 O   0  0  0  0  0  0  0  0  0  0  0  0
   12.0587  -17.8150   26.1422 O   0  0  0  0  0  0  0  0  0  0  0  0
  2  1  1  1
  2  3  1  0
  4  2  1  0
  5  4  1  0
  5  6  1  6
  7  9  1  0
  7  5  1  0
  8  7  2  0
 10  9  1  0
 11 12  1  0
 10 11  1  6
 12 13  1  0
 13 14  2  0
 13 17  1  0
 15 16  2  0
 15 10  1  0
 18 15  1  0
 19 20  1  1
 19 18  1  0
 21 20  1  0
 21 25  1  0
 22 21  2  0
 23 19  1  0
 24 23  2  0
 26 23  1  0
M  END
$$$$
