LED.pdb
     RDKit          3D

 26 25  0  0  1  0  0  0  0  0999 V2000
    5.2493  -11.9165   26.2946 C   0  0  0  0  0  0  0  0  0  0  0  0
    6.5512  -12.4350   25.6934 C   0  0  1  0  0  0  0  0  0  0  0  0
    7.6686  -11.6473   26.3927 C   0  0  0  0  0  0  0  0  0  0  0  0
    6.7915  -13.8671   26.0086 C   0  0  0  0  0  0  0  0  0  0  0  0
    8.1955  -14.3648   25.8611 C   0  0  2  0  0  0  0  0  0  0  0  0
    8.9160  -13.3809   25.0217 N   0  0  0  0  0  0  0  0  0  0  0  0
    8.3021  -15.6800   25.1571 C   0  0  0  0  0  0  0  0  0  0  0  0
    7.7594  -16.6577   25.7181 O   0  0  0  0  0  0  0  0  0  0  0  0
    8.9700  -15.8380   23.9274 N   0  0  0  0  0  0  0  0  0  0  0  0
    9.3355  -17.0587   23.2702 C   0  0  1  0  0  0  0  0  0  0  0  0
    9.4666  -16.9279   21.7965 C   0  0  0  0  0  0  0  0  0  0  0  0
    9.8943  -18.2862   21.2177 C   0  0  0  0  0  0  0  0  0  0  0  0
    9.4273  -18.3473   19.7942 C   0  0  0  0  0  0  0  0  0  0  0  0
   10.0908  -19.0803   18.9964 O   0  0  0  0  0  0  0  0  0  0  0  0
   10.3025  -17.9222   23.9565 C   0  0  0  0  0  0  0  0  0  0  0  0
   11.5392  -17.8679   23.7541 O   0  0  0  0  0  0  0  0  0  0  0  0
    8.3369  -17.6576   19.3341 O   0  0  0  0  0  0  0  0  0  0  0  0
    9.9008  -18.9072   24.9266 N   0  0  0  0  0  0  0  0  0  0  0  0
   10.8032  -19.3438   25.9772 C   0  0  1  0  0  0  0  0  0  0  0  0
   11.1796  -18.2888   26.9526 C   0  0  0  0  0  0  0  0  0  0  0  0
   12.0882  -18.7494   28.0164 C   0  0  0  0  0  0  0  0  0  0  0  0
   12.4980  -19.9357   27.9988 O   0  0  0  0  0  0  0  0  0  0  0  0
   10.1348  -20.4666   26.7271 C   0  0  0  0  0  0  0  0  0  0  0  0
   10.7842  -20.9384   27.7070 O   0  0  0  0  0  0  0  0  0  0  0  0
   12.5283  -17.9428   29.0527 O   0  0  0  0  0  0  0  0  0  0  0  0
    8.9151  -20.9859   26.4200 O   0  0  0  0  0  0  0  0  0  0  0  0
  2  1  1  1
  2  3  1  0
  4  2  1  0
  5  4  1  0
  5  6  1  6
  7  9  1  0
  7  5  1  0
  8  7  2  0
 10  9  1  0
 11 12  1  0
 10 11  1  6
 12 13  1  0
 13 14  2  0
 13 17  1  0
 15 16  2  0
 15 10  1  0
 18 15  1  0
 19 20  1  1
 19 18  1  0
 21 20  1  0
 21 25  1  0
 22 21  2  0
 23 19  1  0
 24 23  2  0
 26 23  1  0
M  END
$$$$
