LED.pdb
     RDKit          3D

 26 25  0  0  1  0  0  0  0  0999 V2000
    6.9656  -12.5164   20.7813 C   0  0  0  0  0  0  0  0  0  0  0  0
    7.4226  -13.3614   19.5971 C   0  0  1  0  0  0  0  0  0  0  0  0
    7.4477  -12.4052   18.3959 C   0  0  0  0  0  0  0  0  0  0  0  0
    8.8122  -13.8621   19.7595 C   0  0  0  0  0  0  0  0  0  0  0  0
    9.3687  -14.6854   18.6400 C   0  0  2  0  0  0  0  0  0  0  0  0
    8.4339  -15.8139   18.4286 N   0  0  0  0  0  0  0  0  0  0  0  0
   10.7030  -15.2916   18.9380 C   0  0  0  0  0  0  0  0  0  0  0  0
   10.6952  -16.3813   19.5525 O   0  0  0  0  0  0  0  0  0  0  0  0
   11.9186  -14.6907   18.5579 N   0  0  0  0  0  0  0  0  0  0  0  0
   13.2515  -15.1206   18.8652 C   0  0  1  0  0  0  0  0  0  0  0  0
   14.2158  -14.9184   17.7538 C   0  0  0  0  0  0  0  0  0  0  0  0
   15.4052  -14.0972   18.2771 C   0  0  0  0  0  0  0  0  0  0  0  0
   16.3673  -13.9069   17.1429 C   0  0  0  0  0  0  0  0  0  0  0  0
   17.3999  -13.2024   17.3695 O   0  0  0  0  0  0  0  0  0  0  0  0
   13.7351  -14.8721   20.2276 C   0  0  0  0  0  0  0  0  0  0  0  0
   13.3521  -13.9052   20.9286 O   0  0  0  0  0  0  0  0  0  0  0  0
   16.1774  -14.4524   15.9009 O   0  0  0  0  0  0  0  0  0  0  0  0
   14.6957  -15.7302   20.8709 N   0  0  0  0  0  0  0  0  0  0  0  0
   14.7706  -15.8279   22.3178 C   0  0  1  0  0  0  0  0  0  0  0  0
   13.6314  -16.5379   22.9535 C   0  0  0  0  0  0  0  0  0  0  0  0
   13.7556  -16.6889   24.4134 C   0  0  0  0  0  0  0  0  0  0  0  0
   14.7628  -16.2148   24.9933 O   0  0  0  0  0  0  0  0  0  0  0  0
   16.0405  -16.5584   22.6692 C   0  0  0  0  0  0  0  0  0  0  0  0
   16.1142  -17.7588   22.2712 O   0  0  0  0  0  0  0  0  0  0  0  0
   12.8150  -17.3308   25.2016 O   0  0  0  0  0  0  0  0  0  0  0  0
   17.0766  -16.0201   23.3680 O   0  0  0  0  0  0  0  0  0  0  0  0
  2  1  1  1
  2  3  1  0
  4  2  1  0
  5  4  1  0
  5  6  1  1
  7  9  1  0
  7  5  1  0
  8  7  2  0
 10  9  1  0
 11 12  1  0
 10 11  1  6
 12 13  1  0
 13 14  2  0
 13 17  1  0
 15 16  2  0
 15 10  1  0
 18 15  1  0
 19 20  1  6
 19 18  1  0
 21 20  1  0
 21 25  1  0
 22 21  2  0
 23 19  1  0
 24 23  2  0
 26 23  1  0
M  END
$$$$
