LED.pdb
     RDKit          3D

 26 25  0  0  1  0  0  0  0  0999 V2000
    6.9951  -11.9390   27.5872 C   0  0  0  0  0  0  0  0  0  0  0  0
    6.4446  -12.8780   26.5193 C   0  0  1  0  0  0  0  0  0  0  0  0
    6.1902  -11.9957   25.2885 C   0  0  0  0  0  0  0  0  0  0  0  0
    7.4351  -13.9029   26.0991 C   0  0  0  0  0  0  0  0  0  0  0  0
    6.9755  -14.9154   25.0968 C   0  0  2  0  0  0  0  0  0  0  0  0
    5.7752  -15.5702   25.6645 N   0  0  0  0  0  0  0  0  0  0  0  0
    7.9674  -16.0037   24.8355 C   0  0  0  0  0  0  0  0  0  0  0  0
    8.0696  -16.8874   25.7151 O   0  0  0  0  0  0  0  0  0  0  0  0
    8.7562  -16.0566   23.6700 N   0  0  0  0  0  0  0  0  0  0  0  0
    9.8320  -16.9559   23.3706 C   0  0  1  0  0  0  0  0  0  0  0  0
   10.2230  -16.9637   21.9377 C   0  0  0  0  0  0  0  0  0  0  0  0
   10.1998  -15.5190   21.4131 C   0  0  0  0  0  0  0  0  0  0  0  0
   10.7032  -15.5344   20.0008 C   0  0  0  0  0  0  0  0  0  0  0  0
   10.3023  -16.4788   19.2517 O   0  0  0  0  0  0  0  0  0  0  0  0
   10.9086  -17.0614   24.3612 C   0  0  0  0  0  0  0  0  0  0  0  0
   11.5158  -16.0675   24.8268 O   0  0  0  0  0  0  0  0  0  0  0  0
   11.5593  -14.5890   19.5012 O   0  0  0  0  0  0  0  0  0  0  0  0
   11.3538  -18.3280   24.8812 N   0  0  0  0  0  0  0  0  0  0  0  0
   12.4748  -18.4148   25.8001 C   0  0  1  0  0  0  0  0  0  0  0  0
   12.3067  -19.4038   26.8954 C   0  0  0  0  0  0  0  0  0  0  0  0
   11.1375  -19.1555   27.7560 C   0  0  0  0  0  0  0  0  0  0  0  0
   11.0134  -18.0361   28.3104 O   0  0  0  0  0  0  0  0  0  0  0  0
   13.6988  -18.7899   25.0059 C   0  0  0  0  0  0  0  0  0  0  0  0
   14.7861  -18.8298   25.6545 O   0  0  0  0  0  0  0  0  0  0  0  0
   10.1478  -20.0941   27.9962 O   0  0  0  0  0  0  0  0  0  0  0  0
   13.7020  -19.0767   23.6757 O   0  0  0  0  0  0  0  0  0  0  0  0
  2  1  1  1
  2  3  1  0
  4  2  1  0
  5  4  1  0
  5  6  1  1
  7  9  1  0
  7  5  1  0
  8  7  2  0
 10  9  1  0
 11 12  1  0
 10 11  1  6
 12 13  1  0
 13 14  2  0
 13 17  1  0
 15 16  2  0
 15 10  1  0
 18 15  1  0
 19 20  1  1
 19 18  1  0
 21 20  1  0
 21 25  1  0
 22 21  2  0
 23 19  1  0
 24 23  2  0
 26 23  1  0
M  END
$$$$
