LED.pdb
     RDKit          3D

 26 25  0  0  1  0  0  0  0  0999 V2000
    8.3309  -12.3909   26.1833 C   0  0  0  0  0  0  0  0  0  0  0  0
    7.1787  -13.3701   25.9863 C   0  0  1  0  0  0  0  0  0  0  0  0
    5.9323  -12.6506   26.5217 C   0  0  0  0  0  0  0  0  0  0  0  0
    6.9124  -13.6524   24.5519 C   0  0  0  0  0  0  0  0  0  0  0  0
    6.6902  -15.0839   24.1752 C   0  0  2  0  0  0  0  0  0  0  0  0
    5.7778  -15.6600   25.1888 N   0  0  0  0  0  0  0  0  0  0  0  0
    7.9315  -15.9176   24.2008 C   0  0  0  0  0  0  0  0  0  0  0  0
    8.0624  -16.6921   25.1745 O   0  0  0  0  0  0  0  0  0  0  0  0
    8.9159  -15.8557   23.1957 N   0  0  0  0  0  0  0  0  0  0  0  0
   10.1323  -16.6089   23.1019 C   0  0  1  0  0  0  0  0  0  0  0  0
   10.8685  -16.3990   21.8290 C   0  0  0  0  0  0  0  0  0  0  0  0
   10.4493  -17.4913   20.8319 C   0  0  0  0  0  0  0  0  0  0  0  0
   10.5527  -16.9173   19.4505 C   0  0  0  0  0  0  0  0  0  0  0  0
   11.7094  -16.5823   19.0460 O   0  0  0  0  0  0  0  0  0  0  0  0
   10.9306  -16.7420   24.3252 C   0  0  0  0  0  0  0  0  0  0  0  0
   11.0243  -15.8367   25.1883 O   0  0  0  0  0  0  0  0  0  0  0  0
    9.4704  -16.7455   18.6287 O   0  0  0  0  0  0  0  0  0  0  0  0
   11.6739  -17.9362   24.6322 N   0  0  0  0  0  0  0  0  0  0  0  0
   12.0555  -18.2582   25.9958 C   0  0  1  0  0  0  0  0  0  0  0  0
   10.9249  -18.3407   26.9556 C   0  0  0  0  0  0  0  0  0  0  0  0
   11.3115  -18.7914   28.3034 C   0  0  0  0  0  0  0  0  0  0  0  0
   12.5061  -19.1087   28.5225 O   0  0  0  0  0  0  0  0  0  0  0  0
   12.7616  -19.5889   25.9789 C   0  0  0  0  0  0  0  0  0  0  0  0
   13.3899  -19.8931   27.0360 O   0  0  0  0  0  0  0  0  0  0  0  0
   10.4262  -18.8881   29.3640 O   0  0  0  0  0  0  0  0  0  0  0  0
   12.7639  -20.4521   24.9270 O   0  0  0  0  0  0  0  0  0  0  0  0
  2  1  1  6
  2  3  1  0
  4  2  1  0
  5  4  1  0
  5  6  1  1
  7  9  1  0
  7  5  1  0
  8  7  2  0
 10  9  1  0
 11 12  1  0
 10 11  1  6
 12 13  1  0
 13 14  2  0
 13 17  1  0
 15 16  2  0
 15 10  1  0
 18 15  1  0
 19 20  1  1
 19 18  1  0
 21 20  1  0
 21 25  1  0
 22 21  2  0
 23 19  1  0
 24 23  2  0
 26 23  1  0
M  END
$$$$
