LED.pdb
     RDKit          3D

 26 25  0  0  1  0  0  0  0  0999 V2000
    6.8632  -12.6590   19.2471 C   0  0  0  0  0  0  0  0  0  0  0  0
    8.0570  -13.6066   19.2016 C   0  0  1  0  0  0  0  0  0  0  0  0
    9.2567  -12.7365   18.7997 C   0  0  0  0  0  0  0  0  0  0  0  0
    8.3827  -14.1741   20.5357 C   0  0  0  0  0  0  0  0  0  0  0  0
    9.5129  -15.1538   20.5953 C   0  0  2  0  0  0  0  0  0  0  0  0
    9.2726  -16.1547   19.5312 N   0  0  0  0  0  0  0  0  0  0  0  0
    9.5898  -15.9137   21.8811 C   0  0  0  0  0  0  0  0  0  0  0  0
    9.7306  -15.2342   22.9221 O   0  0  0  0  0  0  0  0  0  0  0  0
    9.5096  -17.3181   21.9462 N   0  0  0  0  0  0  0  0  0  0  0  0
    9.7121  -18.1634   23.0864 C   0  0  1  0  0  0  0  0  0  0  0  0
    8.7611  -19.3018   23.1629 C   0  0  0  0  0  0  0  0  0  0  0  0
    7.6127  -18.9212   24.1112 C   0  0  0  0  0  0  0  0  0  0  0  0
    6.4126  -19.7353   23.7302 C   0  0  0  0  0  0  0  0  0  0  0  0
    6.5279  -20.9994   23.7828 O   0  0  0  0  0  0  0  0  0  0  0  0
   11.0992  -18.4188   23.4896 C   0  0  0  0  0  0  0  0  0  0  0  0
   11.5887  -19.5700   23.5817 O   0  0  0  0  0  0  0  0  0  0  0  0
    5.2246  -19.1782   23.3370 O   0  0  0  0  0  0  0  0  0  0  0  0
   12.0145  -17.3552   23.8119 N   0  0  0  0  0  0  0  0  0  0  0  0
   13.3585  -17.6338   24.2860 C   0  0  1  0  0  0  0  0  0  0  0  0
   14.2976  -16.4859   24.2045 C   0  0  0  0  0  0  0  0  0  0  0  0
   14.6574  -16.0993   22.8296 C   0  0  0  0  0  0  0  0  0  0  0  0
   14.5172  -16.9348   21.9033 O   0  0  0  0  0  0  0  0  0  0  0  0
   13.2630  -18.0674   25.7256 C   0  0  0  0  0  0  0  0  0  0  0  0
   14.3267  -18.5312   26.2334 O   0  0  0  0  0  0  0  0  0  0  0  0
   15.1482  -14.8504   22.4867 O   0  0  0  0  0  0  0  0  0  0  0  0
   12.1360  -17.9932   26.4845 O   0  0  0  0  0  0  0  0  0  0  0  0
  2  1  1  1
  2  3  1  0
  4  2  1  0
  5  4  1  0
  5  6  1  6
  7  9  1  0
  7  5  1  0
  8  7  2  0
 10  9  1  0
 11 12  1  0
 10 11  1  6
 12 13  1  0
 13 14  2  0
 13 17  1  0
 15 16  2  0
 15 10  1  0
 18 15  1  0
 19 20  1  1
 19 18  1  0
 21 20  1  0
 21 25  1  0
 22 21  2  0
 23 19  1  0
 24 23  2  0
 26 23  1  0
M  END
$$$$
