LED.pdb
     RDKit          3D

 26 25  0  0  1  0  0  0  0  0999 V2000
    7.4375  -12.2203   21.2019 C   0  0  0  0  0  0  0  0  0  0  0  0
    7.3892  -13.4683   20.3271 C   0  0  1  0  0  0  0  0  0  0  0  0
    7.4926  -12.9607   18.8816 C   0  0  0  0  0  0  0  0  0  0  0  0
    8.5606  -14.3573   20.5409 C   0  0  0  0  0  0  0  0  0  0  0  0
    8.5653  -15.6582   19.8004 C   0  0  2  0  0  0  0  0  0  0  0  0
    7.3643  -16.4066   20.2356 N   0  0  0  0  0  0  0  0  0  0  0  0
    9.7414  -16.5285   20.1105 C   0  0  0  0  0  0  0  0  0  0  0  0
    9.6372  -17.2694   21.1131 O   0  0  0  0  0  0  0  0  0  0  0  0
   10.9150  -16.5349   19.3322 N   0  0  0  0  0  0  0  0  0  0  0  0
   12.1524  -17.2064   19.6038 C   0  0  1  0  0  0  0  0  0  0  0  0
   13.0769  -17.2486   18.4421 C   0  0  0  0  0  0  0  0  0  0  0  0
   14.2438  -18.1921   18.7756 C   0  0  0  0  0  0  0  0  0  0  0  0
   15.1437  -18.2519   17.5777 C   0  0  0  0  0  0  0  0  0  0  0  0
   16.1525  -19.0209   17.6472 O   0  0  0  0  0  0  0  0  0  0  0  0
   12.7473  -16.9986   20.9284 C   0  0  0  0  0  0  0  0  0  0  0  0
   13.1664  -15.8861   21.3282 O   0  0  0  0  0  0  0  0  0  0  0  0
   14.9222  -17.5247   16.4383 O   0  0  0  0  0  0  0  0  0  0  0  0
   12.8950  -18.0678   21.8812 N   0  0  0  0  0  0  0  0  0  0  0  0
   13.4053  -17.8221   23.2184 C   0  0  1  0  0  0  0  0  0  0  0  0
   12.9213  -18.7711   24.2534 C   0  0  0  0  0  0  0  0  0  0  0  0
   12.6273  -18.1448   25.5536 C   0  0  0  0  0  0  0  0  0  0  0  0
   13.0062  -16.9667   25.7641 O   0  0  0  0  0  0  0  0  0  0  0  0
   14.9086  -17.9049   23.1647 C   0  0  0  0  0  0  0  0  0  0  0  0
   15.5142  -17.6425   24.2459 O   0  0  0  0  0  0  0  0  0  0  0  0
   11.9463  -18.7831   26.5769 O   0  0  0  0  0  0  0  0  0  0  0  0
   15.6279  -18.2325   22.0570 O   0  0  0  0  0  0  0  0  0  0  0  0
  2  1  1  1
  2  3  1  0
  4  2  1  0
  5  4  1  0
  5  6  1  1
  7  9  1  0
  7  5  1  0
  8  7  2  0
 10  9  1  0
 11 12  1  0
 10 11  1  6
 12 13  1  0
 13 14  2  0
 13 17  1  0
 15 16  2  0
 15 10  1  0
 18 15  1  0
 19 20  1  1
 19 18  1  0
 21 20  1  0
 21 25  1  0
 22 21  2  0
 23 19  1  0
 24 23  2  0
 26 23  1  0
M  END
$$$$
