LED.pdb
     RDKit          3D

 26 25  0  0  1  0  0  0  0  0999 V2000
    7.3394  -12.2876   25.2470 C   0  0  0  0  0  0  0  0  0  0  0  0
    7.5893  -13.3887   26.2718 C   0  0  1  0  0  0  0  0  0  0  0  0
    7.5579  -12.6914   27.6396 C   0  0  0  0  0  0  0  0  0  0  0  0
    6.5011  -14.4003   26.2952 C   0  0  0  0  0  0  0  0  0  0  0  0
    6.3797  -15.2896   25.0972 C   0  0  2  0  0  0  0  0  0  0  0  0
    5.3336  -16.2903   25.4071 N   0  0  0  0  0  0  0  0  0  0  0  0
    7.6230  -16.0600   24.7853 C   0  0  0  0  0  0  0  0  0  0  0  0
    7.9452  -16.9519   25.6014 O   0  0  0  0  0  0  0  0  0  0  0  0
    8.4073  -15.8168   23.6413 N   0  0  0  0  0  0  0  0  0  0  0  0
    9.6291  -16.4596   23.2538 C   0  0  1  0  0  0  0  0  0  0  0  0
   10.0785  -16.1112   21.8817 C   0  0  0  0  0  0  0  0  0  0  0  0
   11.3326  -16.9360   21.5501 C   0  0  0  0  0  0  0  0  0  0  0  0
   11.4445  -17.0229   20.0574 C   0  0  0  0  0  0  0  0  0  0  0  0
   10.4753  -17.5559   19.4325 O   0  0  0  0  0  0  0  0  0  0  0  0
   10.6638  -16.6016   24.2837 C   0  0  0  0  0  0  0  0  0  0  0  0
   11.3324  -15.6368   24.7258 O   0  0  0  0  0  0  0  0  0  0  0  0
   12.5284  -16.5591   19.3600 O   0  0  0  0  0  0  0  0  0  0  0  0
   10.9928  -17.8734   24.8730 N   0  0  0  0  0  0  0  0  0  0  0  0
   12.0341  -17.9930   25.8780 C   0  0  1  0  0  0  0  0  0  0  0  0
   11.7879  -19.0337   26.9086 C   0  0  0  0  0  0  0  0  0  0  0  0
   10.8728  -18.6121   27.9829 C   0  0  0  0  0  0  0  0  0  0  0  0
   10.6290  -17.3900   28.1334 O   0  0  0  0  0  0  0  0  0  0  0  0
   13.3250  -18.3192   25.1731 C   0  0  0  0  0  0  0  0  0  0  0  0
   14.3623  -18.3310   25.9000 O   0  0  0  0  0  0  0  0  0  0  0  0
   10.2518  -19.4933   28.8524 O   0  0  0  0  0  0  0  0  0  0  0  0
   13.4357  -18.5907   23.8443 O   0  0  0  0  0  0  0  0  0  0  0  0
  2  1  1  6
  2  3  1  0
  4  2  1  0
  5  4  1  0
  5  6  1  1
  7  9  1  0
  7  5  1  0
  8  7  2  0
 10  9  1  0
 11 12  1  0
 10 11  1  6
 12 13  1  0
 13 14  2  0
 13 17  1  0
 15 16  2  0
 15 10  1  0
 18 15  1  0
 19 20  1  1
 19 18  1  0
 21 20  1  0
 21 25  1  0
 22 21  2  0
 23 19  1  0
 24 23  2  0
 26 23  1  0
M  END
$$$$
