LED.pdb
     RDKit          3D

 26 25  0  0  1  0  0  0  0  0999 V2000
    6.9410  -11.5133   27.0937 C   0  0  0  0  0  0  0  0  0  0  0  0
    6.3361  -12.5802   26.1875 C   0  0  1  0  0  0  0  0  0  0  0  0
    6.1055  -11.8884   24.8362 C   0  0  0  0  0  0  0  0  0  0  0  0
    7.2749  -13.7020   25.9260 C   0  0  0  0  0  0  0  0  0  0  0  0
    6.8088  -14.7668   24.9828 C   0  0  2  0  0  0  0  0  0  0  0  0
    5.6717  -15.4540   25.6358 N   0  0  0  0  0  0  0  0  0  0  0  0
    7.8338  -15.8189   24.7014 C   0  0  0  0  0  0  0  0  0  0  0  0
    8.0163  -16.6726   25.5974 O   0  0  0  0  0  0  0  0  0  0  0  0
    8.5677  -15.8706   23.5006 N   0  0  0  0  0  0  0  0  0  0  0  0
    9.6176  -16.7799   23.1445 C   0  0  1  0  0  0  0  0  0  0  0  0
   10.0429  -16.6753   21.7253 C   0  0  0  0  0  0  0  0  0  0  0  0
   11.0416  -17.8049   21.4260 C   0  0  0  0  0  0  0  0  0  0  0  0
   11.3870  -17.7394   19.9684 C   0  0  0  0  0  0  0  0  0  0  0  0
   12.5553  -17.3426   19.6658 O   0  0  0  0  0  0  0  0  0  0  0  0
   10.6653  -17.0135   24.1442 C   0  0  0  0  0  0  0  0  0  0  0  0
   11.4063  -16.1051   24.5903 O   0  0  0  0  0  0  0  0  0  0  0  0
   10.5090  -18.0839   18.9751 O   0  0  0  0  0  0  0  0  0  0  0  0
   10.9241  -18.3176   24.6964 N   0  0  0  0  0  0  0  0  0  0  0  0
   11.9393  -18.5181   25.7152 C   0  0  1  0  0  0  0  0  0  0  0  0
   11.6644  -19.6333   26.6569 C   0  0  0  0  0  0  0  0  0  0  0  0
   12.7454  -19.8831   27.6256 C   0  0  0  0  0  0  0  0  0  0  0  0
   12.6059  -20.7970   28.4748 O   0  0  0  0  0  0  0  0  0  0  0  0
   13.2468  -18.7954   25.0202 C   0  0  0  0  0  0  0  0  0  0  0  0
   13.1828  -19.5527   24.0068 O   0  0  0  0  0  0  0  0  0  0  0  0
   13.9277  -19.1626   27.6595 O   0  0  0  0  0  0  0  0  0  0  0  0
   14.4520  -18.2965   25.4079 O   0  0  0  0  0  0  0  0  0  0  0  0
  2  1  1  1
  2  3  1  0
  4  2  1  0
  5  4  1  0
  5  6  1  1
  7  9  1  0
  7  5  1  0
  8  7  2  0
 10  9  1  0
 11 12  1  0
 10 11  1  6
 12 13  1  0
 13 14  2  0
 13 17  1  0
 15 16  2  0
 15 10  1  0
 18 15  1  0
 19 20  1  1
 19 18  1  0
 21 20  1  0
 21 25  1  0
 22 21  2  0
 23 19  1  0
 24 23  2  0
 26 23  1  0
M  END
$$$$
