LED.pdb
     RDKit          3D

 26 25  0  0  1  0  0  0  0  0999 V2000
    7.6602  -11.9164   27.1514 C   0  0  0  0  0  0  0  0  0  0  0  0
    6.8308  -12.9278   26.3677 C   0  0  1  0  0  0  0  0  0  0  0  0
    5.7406  -12.1071   25.6636 C   0  0  0  0  0  0  0  0  0  0  0  0
    7.6123  -13.5913   25.2920 C   0  0  0  0  0  0  0  0  0  0  0  0
    7.0485  -14.8599   24.7319 C   0  0  2  0  0  0  0  0  0  0  0  0
    6.1558  -15.4291   25.7668 N   0  0  0  0  0  0  0  0  0  0  0  0
    8.0782  -15.9045   24.4403 C   0  0  0  0  0  0  0  0  0  0  0  0
    8.2000  -16.8182   25.2862 O   0  0  0  0  0  0  0  0  0  0  0  0
    8.8806  -15.8863   23.2831 N   0  0  0  0  0  0  0  0  0  0  0  0
    9.8909  -16.8258   22.8929 C   0  0  1  0  0  0  0  0  0  0  0  0
   10.2564  -16.7476   21.4553 C   0  0  0  0  0  0  0  0  0  0  0  0
   11.1670  -17.9379   21.1133 C   0  0  0  0  0  0  0  0  0  0  0  0
   11.4981  -17.8590   19.6531 C   0  0  0  0  0  0  0  0  0  0  0  0
   12.6780  -17.5039   19.3436 O   0  0  0  0  0  0  0  0  0  0  0  0
   10.9750  -17.0752   23.8489 C   0  0  0  0  0  0  0  0  0  0  0  0
   11.7874  -16.1922   24.2144 O   0  0  0  0  0  0  0  0  0  0  0  0
   10.5957  -18.1493   18.6643 O   0  0  0  0  0  0  0  0  0  0  0  0
   11.1900  -18.3666   24.4481 N   0  0  0  0  0  0  0  0  0  0  0  0
   12.2452  -18.5804   25.4225 C   0  0  1  0  0  0  0  0  0  0  0  0
   12.0383  -19.7471   26.3181 C   0  0  0  0  0  0  0  0  0  0  0  0
   11.5527  -19.3945   27.6632 C   0  0  0  0  0  0  0  0  0  0  0  0
   12.0761  -18.4269   28.2677 O   0  0  0  0  0  0  0  0  0  0  0  0
   13.5365  -18.7807   24.6729 C   0  0  0  0  0  0  0  0  0  0  0  0
   14.5913  -18.7499   25.3737 O   0  0  0  0  0  0  0  0  0  0  0  0
   10.5366  -20.0734   28.3150 O   0  0  0  0  0  0  0  0  0  0  0  0
   13.6303  -18.9840   23.3307 O   0  0  0  0  0  0  0  0  0  0  0  0
  2  1  1  6
  2  3  1  0
  4  2  1  0
  5  4  1  0
  5  6  1  1
  7  9  1  0
  7  5  1  0
  8  7  2  0
 10  9  1  0
 11 12  1  0
 10 11  1  6
 12 13  1  0
 13 14  2  0
 13 17  1  0
 15 16  2  0
 15 10  1  0
 18 15  1  0
 19 20  1  6
 19 18  1  0
 21 20  1  0
 21 25  1  0
 22 21  2  0
 23 19  1  0
 24 23  2  0
 26 23  1  0
M  END
$$$$
