LED.pdb
     RDKit          3D

 26 25  0  0  1  0  0  0  0  0999 V2000
    6.9083  -12.5721   19.3106 C   0  0  0  0  0  0  0  0  0  0  0  0
    8.3951  -12.9083   19.3526 C   0  0  1  0  0  0  0  0  0  0  0  0
    9.1002  -11.6030   19.7486 C   0  0  0  0  0  0  0  0  0  0  0  0
    8.7240  -13.8971   20.4119 C   0  0  0  0  0  0  0  0  0  0  0  0
   10.1740  -14.2019   20.6246 C   0  0  2  0  0  0  0  0  0  0  0  0
   10.8158  -14.1981   19.2905 N   0  0  0  0  0  0  0  0  0  0  0  0
   10.4299  -15.5527   21.2133 C   0  0  0  0  0  0  0  0  0  0  0  0
    9.7723  -15.8485   22.2357 O   0  0  0  0  0  0  0  0  0  0  0  0
   11.3546  -16.4632   20.6664 N   0  0  0  0  0  0  0  0  0  0  0  0
   11.6712  -17.7844   21.1248 C   0  0  1  0  0  0  0  0  0  0  0  0
   12.1788  -18.6821   20.0559 C   0  0  0  0  0  0  0  0  0  0  0  0
   13.5526  -18.1701   19.5940 C   0  0  0  0  0  0  0  0  0  0  0  0
   14.0774  -19.1258   18.5646 C   0  0  0  0  0  0  0  0  0  0  0  0
   13.5835  -19.0499   17.3966 O   0  0  0  0  0  0  0  0  0  0  0  0
   12.2905  -17.9003   22.4494 C   0  0  0  0  0  0  0  0  0  0  0  0
   13.2955  -17.2369   22.8002 O   0  0  0  0  0  0  0  0  0  0  0  0
   15.0471  -20.0555   18.8320 O   0  0  0  0  0  0  0  0  0  0  0  0
   11.7847  -18.7933   23.4592 N   0  0  0  0  0  0  0  0  0  0  0  0
   12.3608  -18.8299   24.7917 C   0  0  1  0  0  0  0  0  0  0  0  0
   11.4441  -19.3195   25.8528 C   0  0  0  0  0  0  0  0  0  0  0  0
   12.0446  -19.3553   27.1973 C   0  0  0  0  0  0  0  0  0  0  0  0
   12.9093  -20.2273   27.4574 O   0  0  0  0  0  0  0  0  0  0  0  0
   13.5661  -19.7328   24.7522 C   0  0  0  0  0  0  0  0  0  0  0  0
   14.2287  -19.8152   25.8287 O   0  0  0  0  0  0  0  0  0  0  0  0
   11.7116  -18.4719   28.2107 O   0  0  0  0  0  0  0  0  0  0  0  0
   13.9704  -20.4392   23.6617 O   0  0  0  0  0  0  0  0  0  0  0  0
  2  1  1  1
  2  3  1  0
  4  2  1  0
  5  4  1  0
  5  6  1  6
  7  9  1  0
  7  5  1  0
  8  7  2  0
 10  9  1  0
 11 12  1  0
 10 11  1  6
 12 13  1  0
 13 14  2  0
 13 17  1  0
 15 16  2  0
 15 10  1  0
 18 15  1  0
 19 20  1  1
 19 18  1  0
 21 20  1  0
 21 25  1  0
 22 21  2  0
 23 19  1  0
 24 23  2  0
 26 23  1  0
M  END
$$$$
