LED.pdb
     RDKit          3D

 26 25  0  0  1  0  0  0  0  0999 V2000
    6.7373  -12.0641   27.6353 C   0  0  0  0  0  0  0  0  0  0  0  0
    6.2888  -12.8976   26.4398 C   0  0  1  0  0  0  0  0  0  0  0  0
    6.3899  -11.9624   25.2261 C   0  0  0  0  0  0  0  0  0  0  0  0
    7.2041  -14.0357   26.1657 C   0  0  0  0  0  0  0  0  0  0  0  0
    6.8472  -14.9283   25.0182 C   0  0  2  0  0  0  0  0  0  0  0  0
    5.6292  -15.6718   25.4127 N   0  0  0  0  0  0  0  0  0  0  0  0
    7.8868  -15.9561   24.7031 C   0  0  0  0  0  0  0  0  0  0  0  0
    7.9235  -16.9587   25.4505 O   0  0  0  0  0  0  0  0  0  0  0  0
    8.7879  -15.8288   23.6283 N   0  0  0  0  0  0  0  0  0  0  0  0
    9.8647  -16.7046   23.2689 C   0  0  1  0  0  0  0  0  0  0  0  0
   10.3475  -16.5179   21.8767 C   0  0  0  0  0  0  0  0  0  0  0  0
   11.3304  -17.6509   21.5403 C   0  0  0  0  0  0  0  0  0  0  0  0
   11.7390  -17.4946   20.1061 C   0  0  0  0  0  0  0  0  0  0  0  0
   10.8491  -17.7002   19.2231 O   0  0  0  0  0  0  0  0  0  0  0  0
   10.8730  -16.9794   24.2982 C   0  0  0  0  0  0  0  0  0  0  0  0
   11.6500  -16.1055   24.7517 O   0  0  0  0  0  0  0  0  0  0  0  0
   13.0072  -17.1461   19.7230 O   0  0  0  0  0  0  0  0  0  0  0  0
   11.0476  -18.2876   24.8736 N   0  0  0  0  0  0  0  0  0  0  0  0
   12.0475  -18.5347   25.8972 C   0  0  1  0  0  0  0  0  0  0  0  0
   11.7407  -19.6684   26.8063 C   0  0  0  0  0  0  0  0  0  0  0  0
   11.3332  -19.2597   28.1614 C   0  0  0  0  0  0  0  0  0  0  0  0
   11.4786  -18.0621   28.5082 O   0  0  0  0  0  0  0  0  0  0  0  0
   13.3569  -18.8196   25.2087 C   0  0  0  0  0  0  0  0  0  0  0  0
   13.2728  -19.3598   24.0660 O   0  0  0  0  0  0  0  0  0  0  0  0
   10.7888  -20.1271   29.0938 O   0  0  0  0  0  0  0  0  0  0  0  0
   14.5831  -18.5406   25.7286 O   0  0  0  0  0  0  0  0  0  0  0  0
  2  1  1  1
  2  3  1  0
  4  2  1  0
  5  4  1  0
  5  6  1  1
  7  9  1  0
  7  5  1  0
  8  7  2  0
 10  9  1  0
 11 12  1  0
 10 11  1  6
 12 13  1  0
 13 14  2  0
 13 17  1  0
 15 16  2  0
 15 10  1  0
 18 15  1  0
 19 20  1  6
 19 18  1  0
 21 20  1  0
 21 25  1  0
 22 21  2  0
 23 19  1  0
 24 23  2  0
 26 23  1  0
M  END
$$$$
