PGD.pdb
     RDKit          3D

 20 20  0  0  1  0  0  0  0  0999 V2000
   24.1939  -11.3989  -16.7743 N   0  0  0  0  0  0  0  0  0  0  0  0
   25.6077  -11.6250  -16.4448 C   0  0  0  0  0  0  0  0  0  0  0  0
   25.6263  -12.7847  -15.4757 C   0  0  0  0  0  0  0  0  0  0  0  0
   24.1597  -13.1555  -15.2964 C   0  0  0  0  0  0  0  0  0  0  0  0
   23.5975  -12.6968  -16.6474 C   0  0  1  0  0  0  0  0  0  0  0  0
   22.1319  -12.6603  -16.5681 C   0  0  0  0  0  0  0  0  0  0  0  0
   21.4797  -13.6635  -16.2580 O   0  0  0  0  0  0  0  0  0  0  0  0
   21.3973  -11.4606  -16.8467 N   0  0  0  0  0  0  0  0  0  0  0  0
   20.1106  -11.2355  -16.2764 C   0  0  0  0  0  0  0  0  0  0  0  0
   19.9458   -9.9067  -15.6738 C   0  0  0  0  0  0  0  0  0  0  0  0
   18.8621   -9.5227  -15.1825 O   0  0  0  0  0  0  0  0  0  0  0  0
   21.0525   -9.0200  -15.6441 N   0  0  0  0  0  0  0  0  0  0  0  0
   20.9397   -7.6389  -15.1446 C   0  0  1  0  0  0  0  0  0  0  0  0
   22.2228   -7.2677  -14.4450 C   0  0  0  0  0  0  0  0  0  0  0  0
   22.0895   -5.9048  -13.8937 C   0  0  0  0  0  0  0  0  0  0  0  0
   20.9923   -5.4258  -13.4838 O   0  0  0  0  0  0  0  0  0  0  0  0
   20.6537   -6.7166  -16.2685 C   0  0  0  0  0  0  0  0  0  0  0  0
   20.9916   -6.8939  -17.4528 O   0  0  0  0  0  0  0  0  0  0  0  0
   23.2154   -5.0959  -13.8144 O   0  0  0  0  0  0  0  0  0  0  0  0
   19.9412   -5.5303  -16.0071 O   0  0  0  0  0  0  0  0  0  0  0  0
  1  2  1  0
  3  2  1  0
  4  3  1  0
  5  4  1  0
  5  1  1  0
  6  8  1  0
  5  6  1  1
  7  6  2  0
  9  8  1  0
 10  9  1  0
 10 11  2  0
 12 10  1  0
 13 12  1  0
 13 14  1  6
 14 15  1  0
 15 19  1  0
 15 16  2  0
 17 13  1  0
 18 17  2  0
 20 17  1  0
M  END
$$$$
