PGD.pdb
     RDKit          3D

 20 20  0  0  1  0  0  0  0  0999 V2000
   28.0743  -21.4867  -12.0099 N   0  0  0  0  0  0  0  0  0  0  0  0
   29.1062  -21.9386  -11.0668 C   0  0  0  0  0  0  0  0  0  0  0  0
   30.0441  -20.7670  -10.8874 C   0  0  0  0  0  0  0  0  0  0  0  0
   29.4712  -19.6786  -11.7860 C   0  0  0  0  0  0  0  0  0  0  0  0
   27.9895  -20.0740  -11.7789 C   0  0  1  0  0  0  0  0  0  0  0  0
   27.2957  -19.3482  -12.8501 C   0  0  0  0  0  0  0  0  0  0  0  0
   27.1034  -18.1292  -12.7808 O   0  0  0  0  0  0  0  0  0  0  0  0
   26.8129  -20.0229  -14.0199 N   0  0  0  0  0  0  0  0  0  0  0  0
   26.1988  -19.3022  -15.0852 C   0  0  0  0  0  0  0  0  0  0  0  0
   24.7500  -19.5136  -15.1955 C   0  0  0  0  0  0  0  0  0  0  0  0
   24.0859  -19.1102  -16.1751 O   0  0  0  0  0  0  0  0  0  0  0  0
   24.0713  -20.2002  -14.1563 N   0  0  0  0  0  0  0  0  0  0  0  0
   22.6350  -20.5179  -14.2317 C   0  0  1  0  0  0  0  0  0  0  0  0
   22.1896  -21.0768  -12.9039 C   0  0  0  0  0  0  0  0  0  0  0  0
   21.1844  -22.1312  -13.1424 C   0  0  0  0  0  0  0  0  0  0  0  0
   20.8019  -22.4775  -14.2980 O   0  0  0  0  0  0  0  0  0  0  0  0
   21.8664  -19.3023  -14.5886 C   0  0  0  0  0  0  0  0  0  0  0  0
   21.0152  -19.2250  -15.4928 O   0  0  0  0  0  0  0  0  0  0  0  0
   20.6212  -22.7850  -12.0544 O   0  0  0  0  0  0  0  0  0  0  0  0
   22.0955  -18.1181  -13.8617 O   0  0  0  0  0  0  0  0  0  0  0  0
  1  2  1  0
  3  2  1  0
  4  3  1  0
  5  4  1  0
  5  1  1  0
  6  8  1  0
  5  6  1  6
  7  6  2  0
  9  8  1  0
 10  9  1  0
 10 11  2  0
 12 10  1  0
 13 12  1  0
 13 14  1  1
 14 15  1  0
 15 19  1  0
 15 16  2  0
 17 13  1  0
 18 17  2  0
 20 17  1  0
M  END
$$$$
