PGD.pdb
     RDKit          3D

 20 20  0  0  1  0  0  0  0  0999 V2000
   25.6713  -13.5094  -17.0114 N   0  0  0  0  0  0  0  0  0  0  0  0
   26.4570  -14.6007  -16.4196 C   0  0  0  0  0  0  0  0  0  0  0  0
   25.6932  -15.0419  -15.1922 C   0  0  0  0  0  0  0  0  0  0  0  0
   24.4747  -14.1286  -15.1524 C   0  0  0  0  0  0  0  0  0  0  0  0
   24.3196  -13.8192  -16.6465 C   0  0  1  0  0  0  0  0  0  0  0  0
   23.3978  -12.6879  -16.8074 C   0  0  0  0  0  0  0  0  0  0  0  0
   22.2064  -12.7793  -16.4909 O   0  0  0  0  0  0  0  0  0  0  0  0
   23.8410  -11.4314  -17.3378 N   0  0  0  0  0  0  0  0  0  0  0  0
   22.9460  -10.3298  -17.4679 C   0  0  0  0  0  0  0  0  0  0  0  0
   22.8566   -9.4850  -16.2703 C   0  0  0  0  0  0  0  0  0  0  0  0
   23.1758   -9.8967  -15.1337 O   0  0  0  0  0  0  0  0  0  0  0  0
   22.3917   -8.1511  -16.3995 N   0  0  0  0  0  0  0  0  0  0  0  0
   22.2176   -7.2637  -15.2369 C   0  0  1  0  0  0  0  0  0  0  0  0
   22.2481   -5.8317  -15.7084 C   0  0  0  0  0  0  0  0  0  0  0  0
   22.1534   -4.9403  -14.5356 C   0  0  0  0  0  0  0  0  0  0  0  0
   22.9018   -5.0462  -13.5206 O   0  0  0  0  0  0  0  0  0  0  0  0
   20.9430   -7.5761  -14.5487 C   0  0  0  0  0  0  0  0  0  0  0  0
   19.9117   -8.0045  -15.0973 O   0  0  0  0  0  0  0  0  0  0  0  0
   21.2005   -3.9302  -14.5310 O   0  0  0  0  0  0  0  0  0  0  0  0
   20.8597   -7.3826  -13.1563 O   0  0  0  0  0  0  0  0  0  0  0  0
  1  2  1  0
  3  2  1  0
  4  3  1  0
  5  4  1  0
  5  1  1  0
  6  8  1  0
  5  6  1  1
  7  6  2  0
  9  8  1  0
 10  9  1  0
 10 11  2  0
 12 10  1  0
 13 12  1  0
 13 14  1  6
 14 15  1  0
 15 19  1  0
 15 16  2  0
 17 13  1  0
 18 17  2  0
 20 17  1  0
M  END
$$$$
