PGD.pdb
     RDKit          3D

 20 20  0  0  1  0  0  0  0  0999 V2000
   25.5008  -19.5659  -11.7177 N   0  0  0  0  0  0  0  0  0  0  0  0
   25.2638  -20.3586  -10.5037 C   0  0  0  0  0  0  0  0  0  0  0  0
   25.9789  -21.6723  -10.7213 C   0  0  0  0  0  0  0  0  0  0  0  0
   26.5950  -21.5460  -12.1087 C   0  0  0  0  0  0  0  0  0  0  0  0
   26.7756  -20.0251  -12.1871 C   0  0  1  0  0  0  0  0  0  0  0  0
   27.0557  -19.6478  -13.5781 C   0  0  0  0  0  0  0  0  0  0  0  0
   28.1073  -19.9816  -14.1354 O   0  0  0  0  0  0  0  0  0  0  0  0
   26.1219  -18.8773  -14.3467 N   0  0  0  0  0  0  0  0  0  0  0  0
   25.6544  -19.3357  -15.6127 C   0  0  0  0  0  0  0  0  0  0  0  0
   24.2897  -19.8769  -15.5881 C   0  0  0  0  0  0  0  0  0  0  0  0
   23.6598  -20.1558  -16.6316 O   0  0  0  0  0  0  0  0  0  0  0  0
   23.6556  -20.0942  -14.3381 N   0  0  0  0  0  0  0  0  0  0  0  0
   22.2925  -20.6425  -14.2332 C   0  0  1  0  0  0  0  0  0  0  0  0
   22.1049  -21.2203  -12.8531 C   0  0  0  0  0  0  0  0  0  0  0  0
   20.7177  -21.7082  -12.7239 C   0  0  0  0  0  0  0  0  0  0  0  0
   20.1177  -22.3454  -13.6380 O   0  0  0  0  0  0  0  0  0  0  0  0
   21.2975  -19.5803  -14.5113 C   0  0  0  0  0  0  0  0  0  0  0  0
   21.4670  -18.3629  -14.3187 O   0  0  0  0  0  0  0  0  0  0  0  0
   20.0233  -21.4636  -11.5465 O   0  0  0  0  0  0  0  0  0  0  0  0
   20.0443  -19.9472  -15.0387 O   0  0  0  0  0  0  0  0  0  0  0  0
  1  2  1  0
  3  2  1  0
  4  3  1  0
  5  4  1  0
  5  1  1  0
  6  8  1  0
  5  6  1  6
  7  6  2  0
  9  8  1  0
 10  9  1  0
 10 11  2  0
 12 10  1  0
 13 12  1  0
 13 14  1  1
 14 15  1  0
 15 19  1  0
 15 16  2  0
 17 13  1  0
 18 17  2  0
 20 17  1  0
M  END
$$$$
