PGD.pdb
     RDKit          3D

 20 20  0  0  1  0  0  0  0  0999 V2000
   20.3523  -28.0281    4.6939 N   0  0  0  0  0  0  0  0  0  0  0  0
   19.5191  -26.9471    4.1505 C   0  0  0  0  0  0  0  0  0  0  0  0
   18.4322  -26.7086    5.1735 C   0  0  0  0  0  0  0  0  0  0  0  0
   18.7186  -27.7188    6.2770 C   0  0  0  0  0  0  0  0  0  0  0  0
   20.2357  -27.8738    6.1148 C   0  0  1  0  0  0  0  0  0  0  0  0
   20.6793  -29.0532    6.8683 C   0  0  0  0  0  0  0  0  0  0  0  0
   20.6778  -29.0645    8.1043 O   0  0  0  0  0  0  0  0  0  0  0  0
   21.1320  -30.2397    6.2021 N   0  0  0  0  0  0  0  0  0  0  0  0
   21.4817  -31.4096    6.9374 C   0  0  0  0  0  0  0  0  0  0  0  0
   22.9168  -31.7195    6.9245 C   0  0  0  0  0  0  0  0  0  0  0  0
   23.3847  -32.7528    7.4505 O   0  0  0  0  0  0  0  0  0  0  0  0
   23.8122  -30.8181    6.2937 N   0  0  0  0  0  0  0  0  0  0  0  0
   25.2693  -31.0336    6.2869 C   0  0  1  0  0  0  0  0  0  0  0  0
   25.8422  -30.4486    5.0207 C   0  0  0  0  0  0  0  0  0  0  0  0
   25.5929  -31.3843    3.9066 C   0  0  0  0  0  0  0  0  0  0  0  0
   25.1682  -32.5648    4.0729 O   0  0  0  0  0  0  0  0  0  0  0  0
   25.8775  -30.4152    7.4883 C   0  0  0  0  0  0  0  0  0  0  0  0
   25.3430  -29.5496    8.2046 O   0  0  0  0  0  0  0  0  0  0  0  0
   25.8315  -30.9627    2.6052 O   0  0  0  0  0  0  0  0  0  0  0  0
   27.1687  -30.8199    7.8786 O   0  0  0  0  0  0  0  0  0  0  0  0
  1  2  1  0
  3  2  1  0
  4  3  1  0
  5  4  1  0
  5  1  1  0
  6  8  1  0
  5  6  1  1
  7  6  2  0
  9  8  1  0
 10  9  1  0
 10 11  2  0
 12 10  1  0
 13 12  1  0
 13 14  1  6
 14 15  1  0
 15 19  1  0
 15 16  2  0
 17 13  1  0
 18 17  2  0
 20 17  1  0
M  END
$$$$
