PGD.pdb
     RDKit          3D

 20 20  0  0  1  0  0  0  0  0999 V2000
   18.7302  -14.0411  -17.1100 N   0  0  0  0  0  0  0  0  0  0  0  0
   17.5102  -14.8237  -17.3496 C   0  0  0  0  0  0  0  0  0  0  0  0
   16.7690  -14.1064  -18.4544 C   0  0  0  0  0  0  0  0  0  0  0  0
   17.6434  -12.9026  -18.7814 C   0  0  0  0  0  0  0  0  0  0  0  0
   19.0192  -13.4520  -18.3850 C   0  0  1  0  0  0  0  0  0  0  0  0
   19.9750  -12.3400  -18.3109 C   0  0  0  0  0  0  0  0  0  0  0  0
   20.3431  -11.7398  -19.3269 O   0  0  0  0  0  0  0  0  0  0  0  0
   20.5204  -11.9046  -17.0582 N   0  0  0  0  0  0  0  0  0  0  0  0
   21.3667  -10.7603  -16.9810 C   0  0  0  0  0  0  0  0  0  0  0  0
   20.6710   -9.5242  -16.6017 C   0  0  0  0  0  0  0  0  0  0  0  0
   20.0682   -8.8115  -17.4336 O   0  0  0  0  0  0  0  0  0  0  0  0
   20.6785   -9.1168  -15.2431 N   0  0  0  0  0  0  0  0  0  0  0  0
   19.9823   -7.9030  -14.7829 C   0  0  1  0  0  0  0  0  0  0  0  0
   19.7174   -8.0249  -13.3034 C   0  0  0  0  0  0  0  0  0  0  0  0
   18.6467   -9.0183  -13.0899 C   0  0  0  0  0  0  0  0  0  0  0  0
   17.9329   -9.4822  -14.0264 O   0  0  0  0  0  0  0  0  0  0  0  0
   20.8004   -6.7053  -15.0859 C   0  0  0  0  0  0  0  0  0  0  0  0
   21.9931   -6.7155  -15.4400 O   0  0  0  0  0  0  0  0  0  0  0  0
   18.3982   -9.4765  -11.8028 O   0  0  0  0  0  0  0  0  0  0  0  0
   20.2070   -5.4331  -14.9728 O   0  0  0  0  0  0  0  0  0  0  0  0
  1  2  1  0
  3  2  1  0
  4  3  1  0
  5  4  1  0
  5  1  1  0
  6  8  1  0
  5  6  1  1
  7  6  2  0
  9  8  1  0
 10  9  1  0
 10 11  2  0
 12 10  1  0
 13 12  1  0
 13 14  1  1
 14 15  1  0
 15 19  1  0
 15 16  2  0
 17 13  1  0
 18 17  2  0
 20 17  1  0
M  END
$$$$
