PGD.pdb
     RDKit          3D

 20 20  0  0  1  0  0  0  0  0999 V2000
   26.3262  -19.3950  -16.5796 N   0  0  0  0  0  0  0  0  0  0  0  0
   27.3848  -18.7061  -17.3301 C   0  0  0  0  0  0  0  0  0  0  0  0
   28.1196  -17.8539  -16.3210 C   0  0  0  0  0  0  0  0  0  0  0  0
   27.3966  -18.1118  -15.0053 C   0  0  0  0  0  0  0  0  0  0  0  0
   26.8696  -19.5294  -15.2594 C   0  0  1  0  0  0  0  0  0  0  0  0
   25.8608  -19.8540  -14.2434 C   0  0  0  0  0  0  0  0  0  0  0  0
   26.1356  -19.8436  -13.0383 O   0  0  0  0  0  0  0  0  0  0  0  0
   24.5164  -20.1962  -14.6066 N   0  0  0  0  0  0  0  0  0  0  0  0
   23.4631  -20.1641  -13.6469 C   0  0  0  0  0  0  0  0  0  0  0  0
   22.1391  -20.4779  -14.1986 C   0  0  0  0  0  0  0  0  0  0  0  0
   21.9310  -20.5777  -15.4275 O   0  0  0  0  0  0  0  0  0  0  0  0
   21.0506  -20.6765  -13.3111 N   0  0  0  0  0  0  0  0  0  0  0  0
   19.6864  -20.9560  -13.7910 C   0  0  1  0  0  0  0  0  0  0  0  0
   18.8496  -21.4313  -12.6301 C   0  0  0  0  0  0  0  0  0  0  0  0
   19.2795  -22.7934  -12.2573 C   0  0  0  0  0  0  0  0  0  0  0  0
   18.8843  -23.3841  -11.2102 O   0  0  0  0  0  0  0  0  0  0  0  0
   19.1082  -19.7391  -14.4080 C   0  0  0  0  0  0  0  0  0  0  0  0
   19.3073  -18.5714  -14.0272 O   0  0  0  0  0  0  0  0  0  0  0  0
   20.1612  -23.4735  -13.0870 O   0  0  0  0  0  0  0  0  0  0  0  0
   18.2574  -19.8826  -15.5210 O   0  0  0  0  0  0  0  0  0  0  0  0
  1  2  1  0
  3  2  1  0
  4  3  1  0
  5  4  1  0
  5  1  1  0
  6  8  1  0
  5  6  1  1
  7  6  2  0
  9  8  1  0
 10  9  1  0
 10 11  2  0
 12 10  1  0
 13 12  1  0
 13 14  1  1
 14 15  1  0
 15 19  1  0
 15 16  2  0
 17 13  1  0
 18 17  2  0
 20 17  1  0
M  END
$$$$
