PGD.pdb
     RDKit          3D

 20 20  0  0  1  0  0  0  0  0999 V2000
   29.5127  -21.6614  -12.1827 N   0  0  0  0  0  0  0  0  0  0  0  0
   30.7167  -22.2049  -11.5399 C   0  0  0  0  0  0  0  0  0  0  0  0
   30.8197  -21.5113  -10.2009 C   0  0  0  0  0  0  0  0  0  0  0  0
   29.6246  -20.5674  -10.1674 C   0  0  0  0  0  0  0  0  0  0  0  0
   28.6556  -21.3250  -11.0833 C   0  0  1  0  0  0  0  0  0  0  0  0
   27.5520  -20.4313  -11.4560 C   0  0  0  0  0  0  0  0  0  0  0  0
   26.7595  -20.0013  -10.6105 O   0  0  0  0  0  0  0  0  0  0  0  0
   27.3482  -20.0207  -12.8148 N   0  0  0  0  0  0  0  0  0  0  0  0
   26.6003  -18.8478  -13.1256 C   0  0  0  0  0  0  0  0  0  0  0  0
   25.2344  -19.1141  -13.5941 C   0  0  0  0  0  0  0  0  0  0  0  0
   24.4313  -18.1980  -13.8756 O   0  0  0  0  0  0  0  0  0  0  0  0
   24.8025  -20.4577  -13.7352 N   0  0  0  0  0  0  0  0  0  0  0  0
   23.4043  -20.8056  -14.0411 C   0  0  1  0  0  0  0  0  0  0  0  0
   23.3448  -22.2495  -14.4718 C   0  0  0  0  0  0  0  0  0  0  0  0
   21.9509  -22.5868  -14.8215 C   0  0  0  0  0  0  0  0  0  0  0  0
   21.2174  -21.8484  -15.5415 O   0  0  0  0  0  0  0  0  0  0  0  0
   22.5515  -20.5630  -12.8540 C   0  0  0  0  0  0  0  0  0  0  0  0
   22.8852  -20.7610  -11.6718 O   0  0  0  0  0  0  0  0  0  0  0  0
   21.4029  -23.7701  -14.3442 O   0  0  0  0  0  0  0  0  0  0  0  0
   21.2477  -20.0664  -13.0463 O   0  0  0  0  0  0  0  0  0  0  0  0
  1  2  1  0
  3  2  1  0
  4  3  1  0
  5  4  1  0
  5  1  1  0
  6  8  1  0
  5  6  1  6
  7  6  2  0
  9  8  1  0
 10  9  1  0
 10 11  2  0
 12 10  1  0
 13 12  1  0
 13 14  1  1
 14 15  1  0
 15 19  1  0
 15 16  2  0
 17 13  1  0
 18 17  2  0
 20 17  1  0
M  END
$$$$
