PGD.pdb
     RDKit          3D

 20 20  0  0  1  0  0  0  0  0999 V2000
   26.5604   -9.5528  -16.1471 N   0  0  0  0  0  0  0  0  0  0  0  0
   26.7033  -10.6632  -15.1959 C   0  0  0  0  0  0  0  0  0  0  0  0
   25.4067  -11.4369  -15.2654 C   0  0  0  0  0  0  0  0  0  0  0  0
   24.5657  -10.6810  -16.2860 C   0  0  0  0  0  0  0  0  0  0  0  0
   25.6747  -10.0685  -17.1502 C   0  0  1  0  0  0  0  0  0  0  0  0
   25.0937   -9.0272  -18.0067 C   0  0  0  0  0  0  0  0  0  0  0  0
   24.2776   -9.3049  -18.8926 O   0  0  0  0  0  0  0  0  0  0  0  0
   25.4484   -7.6465  -17.8511 N   0  0  0  0  0  0  0  0  0  0  0  0
   24.8019   -6.6295  -18.6121 C   0  0  0  0  0  0  0  0  0  0  0  0
   23.6965   -5.9659  -17.9095 C   0  0  0  0  0  0  0  0  0  0  0  0
   23.1683   -4.9142  -18.3320 O   0  0  0  0  0  0  0  0  0  0  0  0
   23.2039   -6.5328  -16.7062 N   0  0  0  0  0  0  0  0  0  0  0  0
   22.0934   -5.9289  -15.9501 C   0  0  1  0  0  0  0  0  0  0  0  0
   21.1400   -7.0192  -15.5308 C   0  0  0  0  0  0  0  0  0  0  0  0
   19.9964   -6.4087  -14.8248 C   0  0  0  0  0  0  0  0  0  0  0  0
   19.0919   -5.7457  -15.4112 O   0  0  0  0  0  0  0  0  0  0  0  0
   22.6213   -5.1953  -14.7758 C   0  0  0  0  0  0  0  0  0  0  0  0
   23.7949   -5.2379  -14.3648 O   0  0  0  0  0  0  0  0  0  0  0  0
   19.8942   -6.5606  -13.4483 O   0  0  0  0  0  0  0  0  0  0  0  0
   21.7459   -4.3719  -14.0416 O   0  0  0  0  0  0  0  0  0  0  0  0
  1  2  1  0
  3  2  1  0
  4  3  1  0
  5  4  1  0
  5  1  1  0
  6  8  1  0
  5  6  1  6
  7  6  2  0
  9  8  1  0
 10  9  1  0
 10 11  2  0
 12 10  1  0
 13 12  1  0
 13 14  1  1
 14 15  1  0
 15 19  1  0
 15 16  2  0
 17 13  1  0
 18 17  2  0
 20 17  1  0
M  END
$$$$
