PGD.pdb
     RDKit          3D

 20 20  0  0  1  0  0  0  0  0999 V2000
   18.8736  -11.1655  -17.0752 N   0  0  0  0  0  0  0  0  0  0  0  0
   17.7569  -11.5007  -17.9690 C   0  0  0  0  0  0  0  0  0  0  0  0
   18.1029  -10.8933  -19.3091 C   0  0  0  0  0  0  0  0  0  0  0  0
   19.4461  -10.2111  -19.0833 C   0  0  0  0  0  0  0  0  0  0  0  0
   20.0054  -11.0825  -17.9519 C   0  0  1  0  0  0  0  0  0  0  0  0
   21.1602  -10.4033  -17.3514 C   0  0  0  0  0  0  0  0  0  0  0  0
   22.2535  -10.3638  -17.9268 O   0  0  0  0  0  0  0  0  0  0  0  0
   21.0676   -9.7584  -16.0739 N   0  0  0  0  0  0  0  0  0  0  0  0
   22.1418   -8.9706  -15.5668 C   0  0  0  0  0  0  0  0  0  0  0  0
   21.9900   -7.5288  -15.7994 C   0  0  0  0  0  0  0  0  0  0  0  0
   22.4498   -6.9610  -16.8141 O   0  0  0  0  0  0  0  0  0  0  0  0
   21.2973   -6.7442  -14.8421 N   0  0  0  0  0  0  0  0  0  0  0  0
   21.1103   -5.2921  -15.0034 C   0  0  1  0  0  0  0  0  0  0  0  0
   19.6859   -4.9426  -14.6528 C   0  0  0  0  0  0  0  0  0  0  0  0
   18.8058   -5.3524  -15.7648 C   0  0  0  0  0  0  0  0  0  0  0  0
   19.0180   -5.0352  -16.9714 O   0  0  0  0  0  0  0  0  0  0  0  0
   22.0705   -4.5601  -14.1445 C   0  0  0  0  0  0  0  0  0  0  0  0
   22.7736   -5.0669  -13.2518 O   0  0  0  0  0  0  0  0  0  0  0  0
   17.6852   -6.1246  -15.4890 O   0  0  0  0  0  0  0  0  0  0  0  0
   22.2235   -3.1724  -14.3293 O   0  0  0  0  0  0  0  0  0  0  0  0
  1  2  1  0
  3  2  1  0
  4  3  1  0
  5  4  1  0
  5  1  1  0
  6  8  1  0
  5  6  1  1
  7  6  2  0
  9  8  1  0
 10  9  1  0
 10 11  2  0
 12 10  1  0
 13 12  1  0
 13 14  1  1
 14 15  1  0
 15 19  1  0
 15 16  2  0
 17 13  1  0
 18 17  2  0
 20 17  1  0
M  END
$$$$
