PGD.pdb
     RDKit          3D

 20 20  0  0  1  0  0  0  0  0999 V2000
   24.3595  -12.6147  -16.1145 N   0  0  0  0  0  0  0  0  0  0  0  0
   25.0979  -13.8413  -15.7853 C   0  0  0  0  0  0  0  0  0  0  0  0
   24.0744  -14.8028  -15.2262 C   0  0  0  0  0  0  0  0  0  0  0  0
   22.7635  -14.0278  -15.2621 C   0  0  0  0  0  0  0  0  0  0  0  0
   23.0415  -13.0800  -16.4352 C   0  0  1  0  0  0  0  0  0  0  0  0
   22.0314  -12.0145  -16.4390 C   0  0  0  0  0  0  0  0  0  0  0  0
   20.8441  -12.2552  -16.6841 O   0  0  0  0  0  0  0  0  0  0  0  0
   22.3802  -10.6521  -16.1588 N   0  0  0  0  0  0  0  0  0  0  0  0
   21.3811   -9.6396  -16.0681 C   0  0  0  0  0  0  0  0  0  0  0  0
   21.9053   -8.3069  -15.7438 C   0  0  0  0  0  0  0  0  0  0  0  0
   23.1130   -8.1044  -15.4913 O   0  0  0  0  0  0  0  0  0  0  0  0
   21.0149   -7.2032  -15.7138 N   0  0  0  0  0  0  0  0  0  0  0  0
   21.4751   -5.8293  -15.4495 C   0  0  1  0  0  0  0  0  0  0  0  0
   20.3868   -4.8655  -15.8501 C   0  0  0  0  0  0  0  0  0  0  0  0
   20.8847   -3.4860  -15.6829 C   0  0  0  0  0  0  0  0  0  0  0  0
   21.8580   -3.0146  -16.3402 O   0  0  0  0  0  0  0  0  0  0  0  0
   21.8252   -5.6800  -14.0174 C   0  0  0  0  0  0  0  0  0  0  0  0
   21.3741   -6.3723  -13.0872 O   0  0  0  0  0  0  0  0  0  0  0  0
   20.2646   -2.6517  -14.7622 O   0  0  0  0  0  0  0  0  0  0  0  0
   22.7432   -4.6791  -13.6450 O   0  0  0  0  0  0  0  0  0  0  0  0
  1  2  1  0
  3  2  1  0
  4  3  1  0
  5  4  1  0
  5  1  1  0
  6  8  1  0
  5  6  1  1
  7  6  2  0
  9  8  1  0
 10  9  1  0
 10 11  2  0
 12 10  1  0
 13 12  1  0
 13 14  1  1
 14 15  1  0
 15 19  1  0
 15 16  2  0
 17 13  1  0
 18 17  2  0
 20 17  1  0
M  END
$$$$
