PGD.pdb
     RDKit          3D

 20 20  0  0  1  0  0  0  0  0999 V2000
   19.1480   -9.0394  -16.2224 N   0  0  0  0  0  0  0  0  0  0  0  0
   18.7500  -10.1390  -17.1117 C   0  0  0  0  0  0  0  0  0  0  0  0
   19.6308  -11.3101  -16.7412 C   0  0  0  0  0  0  0  0  0  0  0  0
   20.5214  -10.7795  -15.6251 C   0  0  0  0  0  0  0  0  0  0  0  0
   19.6031   -9.7023  -15.0350 C   0  0  1  0  0  0  0  0  0  0  0  0
   20.3899   -8.8363  -14.1483 C   0  0  0  0  0  0  0  0  0  0  0  0
   20.8504   -9.2573  -13.0813 O   0  0  0  0  0  0  0  0  0  0  0  0
   20.6566   -7.4676  -14.4831 N   0  0  0  0  0  0  0  0  0  0  0  0
   21.5233   -6.6686  -13.6819 C   0  0  0  0  0  0  0  0  0  0  0  0
   21.7147   -5.3023  -14.1844 C   0  0  0  0  0  0  0  0  0  0  0  0
   22.3879   -4.4486  -13.5668 O   0  0  0  0  0  0  0  0  0  0  0  0
   21.1169   -4.9294  -15.4154 N   0  0  0  0  0  0  0  0  0  0  0  0
   21.2837   -3.5854  -15.9947 C   0  0  1  0  0  0  0  0  0  0  0  0
   21.1247   -3.6770  -17.4914 C   0  0  0  0  0  0  0  0  0  0  0  0
   21.2133   -2.3199  -18.0653 C   0  0  0  0  0  0  0  0  0  0  0  0
   22.0765   -1.4680  -17.7038 O   0  0  0  0  0  0  0  0  0  0  0  0
   20.2937   -2.6541  -15.4048 C   0  0  0  0  0  0  0  0  0  0  0  0
   20.2117   -1.4368  -15.6489 O   0  0  0  0  0  0  0  0  0  0  0  0
   20.3114   -1.9444  -19.0521 O   0  0  0  0  0  0  0  0  0  0  0  0
   19.3522   -3.1583  -14.4867 O   0  0  0  0  0  0  0  0  0  0  0  0
  1  2  1  0
  3  2  1  0
  4  3  1  0
  5  4  1  0
  5  1  1  0
  6  8  1  0
  5  6  1  1
  7  6  2  0
  9  8  1  0
 10  9  1  0
 10 11  2  0
 12 10  1  0
 13 12  1  0
 13 14  1  6
 14 15  1  0
 15 19  1  0
 15 16  2  0
 17 13  1  0
 18 17  2  0
 20 17  1  0
M  END
$$$$
