VLE.pdb
     RDKit          3D

 25 24  0  0  1  0  0  0  0  0999 V2000
    7.9759  -17.7767   20.5366 C   0  0  0  0  0  0  0  0  0  0  0  0
    6.7616  -16.8547   20.3174 C   0  0  2  0  0  0  0  0  0  0  0  0
    6.1646  -17.2766   18.9957 C   0  0  0  0  0  0  0  0  0  0  0  0
    7.3521  -15.4537   20.2832 C   0  0  2  0  0  0  0  0  0  0  0  0
    8.4730  -15.4533   19.3246 N   0  0  0  0  0  0  0  0  0  0  0  0
    7.9272  -15.0277   21.5800 C   0  0  0  0  0  0  0  0  0  0  0  0
    9.1487  -15.2927   21.8766 O   0  0  0  0  0  0  0  0  0  0  0  0
    6.5242  -11.4503   26.5841 C   0  0  0  0  0  0  0  0  0  0  0  0
    7.3220  -12.5471   25.9364 C   0  0  1  0  0  0  0  0  0  0  0  0
    7.1456  -13.7693   26.8570 C   0  0  0  0  0  0  0  0  0  0  0  0
    6.8639  -12.9772   24.5917 C   0  0  0  0  0  0  0  0  0  0  0  0
    7.7292  -13.9349   23.8532 C   0  0  2  0  0  0  0  0  0  0  0  0
    7.1828  -14.3104   22.5625 N   0  0  0  0  0  0  0  0  0  0  0  0
    8.0908  -15.0819   24.7075 C   0  0  0  0  0  0  0  0  0  0  0  0
    7.1963  -15.9089   25.0946 O   0  0  0  0  0  0  0  0  0  0  0  0
    9.4072  -15.3566   25.1510 N   0  0  0  0  0  0  0  0  0  0  0  0
    9.8627  -16.6872   25.5002 C   0  0  1  0  0  0  0  0  0  0  0  0
   11.1473  -17.0252   24.7391 C   0  0  0  0  0  0  0  0  0  0  0  0
   11.7192  -18.3368   25.1857 C   0  0  0  0  0  0  0  0  0  0  0  0
   12.8775  -18.6422   24.3071 C   0  0  0  0  0  0  0  0  0  0  0  0
   13.1759  -17.8554   23.3579 O   0  0  0  0  0  0  0  0  0  0  0  0
   10.2292  -16.6948   26.9243 C   0  0  0  0  0  0  0  0  0  0  0  0
   10.4566  -17.8975   27.5635 O   0  0  0  0  0  0  0  0  0  0  0  0
   13.6747  -19.7632   24.4632 O   0  0  0  0  0  0  0  0  0  0  0  0
   10.3485  -15.6342   27.6094 O   0  0  0  0  0  0  0  0  0  0  0  0
  2  1  1  6
  2  4  1  0
  2  3  1  0
  4  6  1  0
  4  5  1  6
  6  7  2  0
  9  8  1  1
 10  9  1  0
 11  9  1  0
 12 11  1  1
 13  6  1  0
 13 12  1  0
 14 12  1  0
 14 15  2  0
 16 14  1  0
 17 18  1  6
 17 16  1  0
 19 18  1  0
 19 20  1  0
 20 21  2  0
 22 17  1  0
 23 22  1  0
 24 20  1  0
 25 22  2  0
M  END
$$$$
