VLE.pdb
     RDKit          3D

 25 24  0  0  1  0  0  0  0  0999 V2000
    8.2591  -16.6134   20.3746 C   0  0  0  0  0  0  0  0  0  0  0  0
    6.8829  -15.9510   20.5744 C   0  0  2  0  0  0  0  0  0  0  0  0
    6.2091  -15.9989   19.2234 C   0  0  0  0  0  0  0  0  0  0  0  0
    7.2067  -14.5361   21.0278 C   0  0  2  0  0  0  0  0  0  0  0  0
    8.1487  -13.9491   20.0565 N   0  0  0  0  0  0  0  0  0  0  0  0
    7.8916  -14.4828   22.3401 C   0  0  0  0  0  0  0  0  0  0  0  0
    9.1702  -14.5776   22.4191 O   0  0  0  0  0  0  0  0  0  0  0  0
    5.3776  -12.3455   26.9862 C   0  0  0  0  0  0  0  0  0  0  0  0
    6.4241  -12.6753   25.9591 C   0  0  1  0  0  0  0  0  0  0  0  0
    7.6119  -11.7503   26.2846 C   0  0  0  0  0  0  0  0  0  0  0  0
    6.9596  -14.0591   25.9976 C   0  0  0  0  0  0  0  0  0  0  0  0
    7.8311  -14.4821   24.8694 C   0  0  2  0  0  0  0  0  0  0  0  0
    7.1952  -14.3248   23.5747 N   0  0  0  0  0  0  0  0  0  0  0  0
    8.3806  -15.8303   25.1074 C   0  0  0  0  0  0  0  0  0  0  0  0
    7.6715  -16.8687   24.8777 O   0  0  0  0  0  0  0  0  0  0  0  0
    9.6890  -16.0801   25.5874 N   0  0  0  0  0  0  0  0  0  0  0  0
   10.2648  -17.4079   25.6600 C   0  0  1  0  0  0  0  0  0  0  0  0
   11.6373  -17.4289   24.9821 C   0  0  0  0  0  0  0  0  0  0  0  0
   12.2278  -18.8067   24.9840 C   0  0  0  0  0  0  0  0  0  0  0  0
   13.5276  -18.7374   24.2682 C   0  0  0  0  0  0  0  0  0  0  0  0
   13.5489  -18.6576   23.0023 O   0  0  0  0  0  0  0  0  0  0  0  0
   10.5130  -17.7310   27.0730 C   0  0  0  0  0  0  0  0  0  0  0  0
   10.2978  -16.7694   28.0404 O   0  0  0  0  0  0  0  0  0  0  0  0
   14.7523  -18.7549   24.9135 O   0  0  0  0  0  0  0  0  0  0  0  0
   10.9233  -18.8680   27.4567 O   0  0  0  0  0  0  0  0  0  0  0  0
  2  1  1  6
  2  4  1  0
  2  3  1  0
  4  6  1  0
  4  5  1  6
  6  7  2  0
  9  8  1  1
 10  9  1  0
 11  9  1  0
 12 11  1  1
 13  6  1  0
 13 12  1  0
 14 12  1  0
 14 15  2  0
 16 14  1  0
 17 18  1  6
 17 16  1  0
 19 18  1  0
 19 20  1  0
 20 21  2  0
 22 17  1  0
 23 22  1  0
 24 20  1  0
 25 22  2  0
M  END
$$$$
