VLE.pdb
     RDKit          3D

 25 24  0  0  1  0  0  0  0  0999 V2000
    7.0175  -16.8867   18.8669 C   0  0  0  0  0  0  0  0  0  0  0  0
    7.5503  -16.6928   20.2991 C   0  0  2  0  0  0  0  0  0  0  0  0
    6.4992  -17.2861   21.2073 C   0  0  0  0  0  0  0  0  0  0  0  0
    7.6857  -15.1858   20.4512 C   0  0  2  0  0  0  0  0  0  0  0  0
    8.7168  -14.7215   19.5044 N   0  0  0  0  0  0  0  0  0  0  0  0
    8.1524  -14.7715   21.7946 C   0  0  0  0  0  0  0  0  0  0  0  0
    9.3820  -14.9160   22.1372 O   0  0  0  0  0  0  0  0  0  0  0  0
    8.0569  -12.0633   26.7252 C   0  0  0  0  0  0  0  0  0  0  0  0
    6.9461  -13.0141   26.3772 C   0  0  1  0  0  0  0  0  0  0  0  0
    5.6724  -12.3744   26.9610 C   0  0  0  0  0  0  0  0  0  0  0  0
    6.6826  -13.2041   24.9289 C   0  0  0  0  0  0  0  0  0  0  0  0
    7.6942  -13.9648   24.1483 C   0  0  2  0  0  0  0  0  0  0  0  0
    7.2900  -14.1964   22.7742 N   0  0  0  0  0  0  0  0  0  0  0  0
    8.1017  -15.1868   24.8673 C   0  0  0  0  0  0  0  0  0  0  0  0
    7.2354  -16.0721   25.1828 O   0  0  0  0  0  0  0  0  0  0  0  0
    9.4340  -15.4745   25.2506 N   0  0  0  0  0  0  0  0  0  0  0  0
    9.8249  -16.7203   25.8791 C   0  0  1  0  0  0  0  0  0  0  0  0
   11.0940  -17.2705   25.2231 C   0  0  0  0  0  0  0  0  0  0  0  0
   10.8235  -17.7592   23.8321 C   0  0  0  0  0  0  0  0  0  0  0  0
   12.1078  -18.2556   23.2746 C   0  0  0  0  0  0  0  0  0  0  0  0
   13.1542  -18.2462   23.9918 O   0  0  0  0  0  0  0  0  0  0  0  0
   10.1869  -16.4428   27.2772 C   0  0  0  0  0  0  0  0  0  0  0  0
   10.4711  -17.4917   28.1290 O   0  0  0  0  0  0  0  0  0  0  0  0
   12.2390  -18.7417   21.9850 O   0  0  0  0  0  0  0  0  0  0  0  0
   10.2517  -15.2680   27.7506 O   0  0  0  0  0  0  0  0  0  0  0  0
  2  1  1  6
  2  4  1  0
  2  3  1  0
  4  6  1  0
  4  5  1  6
  6  7  2  0
  9  8  1  6
 10  9  1  0
 11  9  1  0
 12 11  1  1
 13  6  1  0
 13 12  1  0
 14 12  1  0
 14 15  2  0
 16 14  1  0
 17 18  1  6
 17 16  1  0
 19 18  1  0
 19 20  1  0
 20 21  2  0
 22 17  1  0
 23 22  1  0
 24 20  1  0
 25 22  2  0
M  END
$$$$
