VLE.pdb
     RDKit          3D

 25 24  0  0  1  0  0  0  0  0999 V2000
    6.6584  -16.7556   19.0367 C   0  0  0  0  0  0  0  0  0  0  0  0
    7.0078  -15.6133   20.0092 C   0  0  2  0  0  0  0  0  0  0  0  0
    7.8323  -14.6346   19.2068 C   0  0  0  0  0  0  0  0  0  0  0  0
    7.7994  -16.2894   21.1177 C   0  0  2  0  0  0  0  0  0  0  0  0
    6.9114  -17.2568   21.7891 N   0  0  0  0  0  0  0  0  0  0  0  0
    8.2496  -15.3520   22.1726 C   0  0  0  0  0  0  0  0  0  0  0  0
    9.2745  -14.5995   21.9901 O   0  0  0  0  0  0  0  0  0  0  0  0
    7.6003  -11.5186   25.9723 C   0  0  0  0  0  0  0  0  0  0  0  0
    7.2635  -12.9075   26.4376 C   0  0  1  0  0  0  0  0  0  0  0  0
    5.9874  -12.7486   27.2853 C   0  0  0  0  0  0  0  0  0  0  0  0
    6.9294  -13.8867   25.3733 C   0  0  0  0  0  0  0  0  0  0  0  0
    8.0302  -14.3057   24.4656 C   0  0  2  0  0  0  0  0  0  0  0  0
    7.5908  -15.2231   23.4309 N   0  0  0  0  0  0  0  0  0  0  0  0
    9.1930  -14.7845   25.2368 C   0  0  0  0  0  0  0  0  0  0  0  0
    9.6717  -14.0812   26.1908 O   0  0  0  0  0  0  0  0  0  0  0  0
    9.8498  -16.0160   24.9989 N   0  0  0  0  0  0  0  0  0  0  0  0
   11.0596  -16.4137   25.6903 C   0  0  1  0  0  0  0  0  0  0  0  0
   10.8930  -17.8125   26.2898 C   0  0  0  0  0  0  0  0  0  0  0  0
    9.8998  -17.8122   27.4125 C   0  0  0  0  0  0  0  0  0  0  0  0
    9.8727  -19.1821   27.9864 C   0  0  0  0  0  0  0  0  0  0  0  0
   10.3951  -20.1457   27.3477 O   0  0  0  0  0  0  0  0  0  0  0  0
   12.1433  -16.5297   24.7029 C   0  0  0  0  0  0  0  0  0  0  0  0
   13.4385  -16.7389   25.1334 O   0  0  0  0  0  0  0  0  0  0  0  0
    9.2970  -19.4825   29.2091 O   0  0  0  0  0  0  0  0  0  0  0  0
   11.9466  -16.4447   23.4529 O   0  0  0  0  0  0  0  0  0  0  0  0
  2  1  1  6
  2  4  1  0
  2  3  1  0
  4  6  1  0
  4  5  1  1
  6  7  2  0
  9  8  1  6
 10  9  1  0
 11  9  1  0
 12 11  1  1
 13  6  1  0
 13 12  1  0
 14 12  1  0
 14 15  2  0
 16 14  1  0
 17 18  1  6
 17 16  1  0
 19 18  1  0
 19 20  1  0
 20 21  2  0
 22 17  1  0
 23 22  1  0
 24 20  1  0
 25 22  2  0
M  END
$$$$
