VLE.pdb
     RDKit          3D

 25 24  0  0  1  0  0  0  0  0999 V2000
    6.9225  -17.2953   19.0767 C   0  0  0  0  0  0  0  0  0  0  0  0
    7.4941  -17.0108   20.4785 C   0  0  2  0  0  0  0  0  0  0  0  0
    6.5723  -17.7175   21.4441 C   0  0  0  0  0  0  0  0  0  0  0  0
    7.4427  -15.4964   20.6074 C   0  0  2  0  0  0  0  0  0  0  0  0
    8.2782  -14.9179   19.5385 N   0  0  0  0  0  0  0  0  0  0  0  0
    8.0101  -14.9966   21.8811 C   0  0  0  0  0  0  0  0  0  0  0  0
    9.2772  -15.0198   22.0906 O   0  0  0  0  0  0  0  0  0  0  0  0
    8.3043  -11.7666   26.4444 C   0  0  0  0  0  0  0  0  0  0  0  0
    7.2486  -12.8342   26.3759 C   0  0  1  0  0  0  0  0  0  0  0  0
    6.0098  -12.2179   27.0526 C   0  0  0  0  0  0  0  0  0  0  0  0
    6.8153  -13.2337   25.0136 C   0  0  0  0  0  0  0  0  0  0  0  0
    7.7477  -14.0831   24.2258 C   0  0  2  0  0  0  0  0  0  0  0  0
    7.2080  -14.4670   22.9348 N   0  0  0  0  0  0  0  0  0  0  0  0
    8.2339  -15.2177   25.0336 C   0  0  0  0  0  0  0  0  0  0  0  0
    7.4283  -16.1341   25.4144 O   0  0  0  0  0  0  0  0  0  0  0  0
    9.5809  -15.3846   25.4368 N   0  0  0  0  0  0  0  0  0  0  0  0
   10.0956  -16.6249   25.9813 C   0  0  1  0  0  0  0  0  0  0  0  0
   11.5241  -16.8689   25.4875 C   0  0  0  0  0  0  0  0  0  0  0  0
   11.5329  -17.5504   24.1524 C   0  0  0  0  0  0  0  0  0  0  0  0
   12.9495  -17.6764   23.7237 C   0  0  0  0  0  0  0  0  0  0  0  0
   13.2248  -18.1660   22.5863 O   0  0  0  0  0  0  0  0  0  0  0  0
   10.1971  -16.4854   27.4417 C   0  0  0  0  0  0  0  0  0  0  0  0
    9.8636  -15.2849   28.0369 O   0  0  0  0  0  0  0  0  0  0  0  0
   14.0191  -17.2822   24.5094 O   0  0  0  0  0  0  0  0  0  0  0  0
   10.5833  -17.4279   28.1974 O   0  0  0  0  0  0  0  0  0  0  0  0
  2  1  1  6
  2  4  1  0
  2  3  1  0
  4  6  1  0
  4  5  1  6
  6  7  2  0
  9  8  1  6
 10  9  1  0
 11  9  1  0
 12 11  1  1
 13  6  1  0
 13 12  1  0
 14 12  1  0
 14 15  2  0
 16 14  1  0
 17 18  1  6
 17 16  1  0
 19 18  1  0
 19 20  1  0
 20 21  2  0
 22 17  1  0
 23 22  1  0
 24 20  1  0
 25 22  2  0
M  END
$$$$
