VLE.pdb
     RDKit          3D

 25 24  0  0  1  0  0  0  0  0999 V2000
    7.7576  -12.4080   21.1462 C   0  0  0  0  0  0  0  0  0  0  0  0
    8.5224  -13.3995   20.2492 C   0  0  2  0  0  0  0  0  0  0  0  0
    7.8739  -13.3000   18.8887 C   0  0  0  0  0  0  0  0  0  0  0  0
    8.3090  -14.7513   20.9123 C   0  0  2  0  0  0  0  0  0  0  0  0
    6.8644  -15.0480   20.8911 N   0  0  0  0  0  0  0  0  0  0  0  0
    8.7069  -14.7742   22.3389 C   0  0  0  0  0  0  0  0  0  0  0  0
    9.9464  -14.7905   22.6758 O   0  0  0  0  0  0  0  0  0  0  0  0
    5.6833  -12.2810   26.3795 C   0  0  0  0  0  0  0  0  0  0  0  0
    6.8282  -12.8072   25.5602 C   0  0  1  0  0  0  0  0  0  0  0  0
    8.0702  -12.0573   26.0774 C   0  0  0  0  0  0  0  0  0  0  0  0
    7.1281  -14.2526   25.7148 C   0  0  0  0  0  0  0  0  0  0  0  0
    8.1511  -14.8353   24.8064 C   0  0  2  0  0  0  0  0  0  0  0  0
    7.7642  -14.7778   23.4091 N   0  0  0  0  0  0  0  0  0  0  0  0
    8.5532  -16.1795   25.2621 C   0  0  0  0  0  0  0  0  0  0  0  0
    7.6725  -17.0796   25.4814 O   0  0  0  0  0  0  0  0  0  0  0  0
    9.8951  -16.5737   25.4829 N   0  0  0  0  0  0  0  0  0  0  0  0
   10.2686  -17.9107   25.8985 C   0  0  1  0  0  0  0  0  0  0  0  0
   11.7008  -18.2230   25.4570 C   0  0  0  0  0  0  0  0  0  0  0  0
   12.1813  -19.5201   26.0348 C   0  0  0  0  0  0  0  0  0  0  0  0
   13.5675  -19.7404   25.5483 C   0  0  0  0  0  0  0  0  0  0  0  0
   14.5180  -19.0367   26.0072 O   0  0  0  0  0  0  0  0  0  0  0  0
   10.2862  -17.9533   27.3684 C   0  0  0  0  0  0  0  0  0  0  0  0
   10.2255  -19.1713   28.0160 O   0  0  0  0  0  0  0  0  0  0  0  0
   13.8972  -20.6924   24.5988 O   0  0  0  0  0  0  0  0  0  0  0  0
   10.3544  -16.9097   28.0858 O   0  0  0  0  0  0  0  0  0  0  0  0
  2  1  1  1
  2  4  1  0
  2  3  1  0
  4  6  1  0
  4  5  1  1
  6  7  2  0
  9  8  1  1
 10  9  1  0
 11  9  1  0
 12 11  1  1
 13  6  1  0
 13 12  1  0
 14 12  1  0
 14 15  2  0
 16 14  1  0
 17 18  1  6
 17 16  1  0
 19 18  1  0
 19 20  1  0
 20 21  2  0
 22 17  1  0
 23 22  1  0
 24 20  1  0
 25 22  2  0
M  END
$$$$
