VLE.pdb
     RDKit          3D

 25 24  0  0  1  0  0  0  0  0999 V2000
    7.4582  -17.2016   18.8316 C   0  0  0  0  0  0  0  0  0  0  0  0
    7.9038  -17.0163   20.2944 C   0  0  2  0  0  0  0  0  0  0  0  0
    6.7619  -17.5355   21.1358 C   0  0  0  0  0  0  0  0  0  0  0  0
    8.1149  -15.5172   20.4382 C   0  0  2  0  0  0  0  0  0  0  0  0
    9.2403  -15.1283   19.5679 N   0  0  0  0  0  0  0  0  0  0  0  0
    8.5015  -15.1080   21.8084 C   0  0  0  0  0  0  0  0  0  0  0  0
    9.7142  -15.2305   22.2138 O   0  0  0  0  0  0  0  0  0  0  0  0
    8.1393  -12.2625   26.6671 C   0  0  0  0  0  0  0  0  0  0  0  0
    7.0783  -13.2574   26.2888 C   0  0  1  0  0  0  0  0  0  0  0  0
    5.7585  -12.6518   26.8022 C   0  0  0  0  0  0  0  0  0  0  0  0
    6.8874  -13.4830   24.8342 C   0  0  0  0  0  0  0  0  0  0  0  0
    7.9180  -14.2920   24.1310 C   0  0  2  0  0  0  0  0  0  0  0  0
    7.5767  -14.5620   22.7468 N   0  0  0  0  0  0  0  0  0  0  0  0
    8.2608  -15.4971   24.9098 C   0  0  0  0  0  0  0  0  0  0  0  0
    7.3526  -16.3314   25.2457 O   0  0  0  0  0  0  0  0  0  0  0  0
    9.5727  -15.8222   25.3317 N   0  0  0  0  0  0  0  0  0  0  0  0
    9.9062  -17.0706   25.9874 C   0  0  1  0  0  0  0  0  0  0  0  0
   11.1592  -17.6834   25.3564 C   0  0  0  0  0  0  0  0  0  0  0  0
   10.9092  -18.1034   23.9393 C   0  0  0  0  0  0  0  0  0  0  0  0
   12.1661  -18.7024   23.4217 C   0  0  0  0  0  0  0  0  0  0  0  0
   12.8259  -19.5100   24.1439 O   0  0  0  0  0  0  0  0  0  0  0  0
   10.2638  -16.7817   27.3842 C   0  0  0  0  0  0  0  0  0  0  0  0
   10.3197  -15.4715   27.8168 O   0  0  0  0  0  0  0  0  0  0  0  0
   12.6778  -18.4271   22.1651 O   0  0  0  0  0  0  0  0  0  0  0  0
   10.5299  -17.6903   28.2281 O   0  0  0  0  0  0  0  0  0  0  0  0
  2  1  1  6
  2  4  1  0
  2  3  1  0
  4  6  1  0
  4  5  1  6
  6  7  2  0
  9  8  1  6
 10  9  1  0
 11  9  1  0
 12 11  1  1
 13  6  1  0
 13 12  1  0
 14 12  1  0
 14 15  2  0
 16 14  1  0
 17 18  1  6
 17 16  1  0
 19 18  1  0
 19 20  1  0
 20 21  2  0
 22 17  1  0
 23 22  1  0
 24 20  1  0
 25 22  2  0
M  END
$$$$
