VLE.pdb
     RDKit          3D

 25 24  0  0  1  0  0  0  0  0999 V2000
    7.7630  -18.0739   20.5160 C   0  0  0  0  0  0  0  0  0  0  0  0
    8.5489  -17.4297   21.6736 C   0  0  2  0  0  0  0  0  0  0  0  0
    8.4653  -18.4123   22.8177 C   0  0  0  0  0  0  0  0  0  0  0  0
    7.8127  -16.1285   21.9522 C   0  0  2  0  0  0  0  0  0  0  0  0
    7.7729  -15.3488   20.7010 N   0  0  0  0  0  0  0  0  0  0  0  0
    8.4974  -15.2681   22.9447 C   0  0  0  0  0  0  0  0  0  0  0  0
    9.6609  -14.7809   22.7014 O   0  0  0  0  0  0  0  0  0  0  0  0
    5.6740  -12.1537   26.6363 C   0  0  0  0  0  0  0  0  0  0  0  0
    6.6774  -12.6801   25.6489 C   0  0  1  0  0  0  0  0  0  0  0  0
    7.3738  -11.4301   25.0789 C   0  0  0  0  0  0  0  0  0  0  0  0
    7.7567  -13.5309   26.2096 C   0  0  0  0  0  0  0  0  0  0  0  0
    8.6519  -14.2186   25.2416 C   0  0  2  0  0  0  0  0  0  0  0  0
    7.9248  -14.9290   24.2061 N   0  0  0  0  0  0  0  0  0  0  0  0
    9.6514  -15.0440   25.9459 C   0  0  0  0  0  0  0  0  0  0  0  0
   10.3964  -14.5297   26.8483 O   0  0  0  0  0  0  0  0  0  0  0  0
    9.8603  -16.4219   25.6958 N   0  0  0  0  0  0  0  0  0  0  0  0
   10.8780  -17.2027   26.3698 C   0  0  1  0  0  0  0  0  0  0  0  0
   10.2717  -18.4895   26.9359 C   0  0  0  0  0  0  0  0  0  0  0  0
   11.3132  -19.3405   27.5977 C   0  0  0  0  0  0  0  0  0  0  0  0
   10.6065  -20.4129   28.3442 C   0  0  0  0  0  0  0  0  0  0  0  0
   10.7559  -20.5131   29.5999 O   0  0  0  0  0  0  0  0  0  0  0  0
   11.8697  -17.6341   25.3733 C   0  0  0  0  0  0  0  0  0  0  0  0
   13.1711  -17.8759   25.7667 O   0  0  0  0  0  0  0  0  0  0  0  0
    9.7713  -21.3363   27.7390 O   0  0  0  0  0  0  0  0  0  0  0  0
   11.5870  -17.7976   24.1478 O   0  0  0  0  0  0  0  0  0  0  0  0
  2  1  1  6
  2  4  1  0
  2  3  1  0
  4  6  1  0
  4  5  1  6
  6  7  2  0
  9  8  1  1
 10  9  1  0
 11  9  1  0
 12 11  1  1
 13  6  1  0
 13 12  1  0
 14 12  1  0
 14 15  2  0
 16 14  1  0
 17 18  1  6
 17 16  1  0
 19 18  1  0
 19 20  1  0
 20 21  2  0
 22 17  1  0
 23 22  1  0
 24 20  1  0
 25 22  2  0
M  END
$$$$
