VLE.pdb
     RDKit          3D

 25 24  0  0  1  0  0  0  0  0999 V2000
    8.5377  -15.5710   20.0201 C   0  0  0  0  0  0  0  0  0  0  0  0
    7.1181  -14.9874   20.1503 C   0  0  2  0  0  0  0  0  0  0  0  0
    6.5586  -14.9632   18.7475 C   0  0  0  0  0  0  0  0  0  0  0  0
    7.3324  -13.5976   20.7292 C   0  0  2  0  0  0  0  0  0  0  0  0
    8.2795  -12.8795   19.8559 N   0  0  0  0  0  0  0  0  0  0  0  0
    7.9521  -13.6117   22.0746 C   0  0  0  0  0  0  0  0  0  0  0  0
    9.2248  -13.5072   22.2136 O   0  0  0  0  0  0  0  0  0  0  0  0
    5.1723  -12.1608   26.8086 C   0  0  0  0  0  0  0  0  0  0  0  0
    6.2435  -12.3391   25.7696 C   0  0  1  0  0  0  0  0  0  0  0  0
    7.3667  -11.3684   26.1801 C   0  0  0  0  0  0  0  0  0  0  0  0
    6.8679  -13.6840   25.7035 C   0  0  0  0  0  0  0  0  0  0  0  0
    7.8048  -13.9438   24.5783 C   0  0  2  0  0  0  0  0  0  0  0  0
    7.1962  -13.7374   23.2774 N   0  0  0  0  0  0  0  0  0  0  0  0
    8.4590  -15.2570   24.7324 C   0  0  0  0  0  0  0  0  0  0  0  0
    7.7689  -16.3324   24.6992 O   0  0  0  0  0  0  0  0  0  0  0  0
    9.8516  -15.4324   24.9188 N   0  0  0  0  0  0  0  0  0  0  0  0
   10.4797  -16.7351   25.0088 C   0  0  1  0  0  0  0  0  0  0  0  0
   11.9559  -16.6410   24.6140 C   0  0  0  0  0  0  0  0  0  0  0  0
   12.6410  -17.9686   24.7364 C   0  0  0  0  0  0  0  0  0  0  0  0
   14.0477  -17.7885   24.2943 C   0  0  0  0  0  0  0  0  0  0  0  0
   14.4768  -16.6299   24.0067 O   0  0  0  0  0  0  0  0  0  0  0  0
   10.4698  -17.1604   26.4165 C   0  0  0  0  0  0  0  0  0  0  0  0
   10.0828  -16.2672   27.3960 O   0  0  0  0  0  0  0  0  0  0  0  0
   14.9459  -18.8351   24.1728 O   0  0  0  0  0  0  0  0  0  0  0  0
   10.8057  -18.3265   26.7851 O   0  0  0  0  0  0  0  0  0  0  0  0
  2  1  1  6
  2  4  1  0
  2  3  1  0
  4  6  1  0
  4  5  1  6
  6  7  2  0
  9  8  1  1
 10  9  1  0
 11  9  1  0
 12 11  1  1
 13  6  1  0
 13 12  1  0
 14 12  1  0
 14 15  2  0
 16 14  1  0
 17 18  1  1
 17 16  1  0
 19 18  1  0
 19 20  1  0
 20 21  2  0
 22 17  1  0
 23 22  1  0
 24 20  1  0
 25 22  2  0
M  END
$$$$
