VLE.pdb
     RDKit          3D

 25 24  0  0  1  0  0  0  0  0999 V2000
    8.3377  -18.0993   21.1899 C   0  0  0  0  0  0  0  0  0  0  0  0
    7.0238  -17.3591   20.8761 C   0  0  2  0  0  0  0  0  0  0  0  0
    6.5083  -17.9718   19.5953 C   0  0  0  0  0  0  0  0  0  0  0  0
    7.4384  -15.9049   20.7150 C   0  0  2  0  0  0  0  0  0  0  0  0
    8.5304  -15.8478   19.7253 N   0  0  0  0  0  0  0  0  0  0  0  0
    7.9846  -15.3097   21.9565 C   0  0  0  0  0  0  0  0  0  0  0  0
    9.2483  -15.1281   22.0982 O   0  0  0  0  0  0  0  0  0  0  0  0
    7.8470  -11.6624   26.1228 C   0  0  0  0  0  0  0  0  0  0  0  0
    7.0586  -12.9289   26.3058 C   0  0  1  0  0  0  0  0  0  0  0  0
    5.7653  -12.4968   27.0221 C   0  0  0  0  0  0  0  0  0  0  0  0
    6.6287  -13.6129   25.0606 C   0  0  0  0  0  0  0  0  0  0  0  0
    7.6886  -14.2499   24.2347 C   0  0  2  0  0  0  0  0  0  0  0  0
    7.1646  -14.9060   23.0514 N   0  0  0  0  0  0  0  0  0  0  0  0
    8.5538  -15.1105   25.0636 C   0  0  0  0  0  0  0  0  0  0  0  0
    9.3288  -14.5969   25.9408 O   0  0  0  0  0  0  0  0  0  0  0  0
    8.5957  -16.5224   24.9656 N   0  0  0  0  0  0  0  0  0  0  0  0
    9.7503  -17.3082   25.3516 C   0  0  1  0  0  0  0  0  0  0  0  0
   10.9754  -16.8878   24.5353 C   0  0  0  0  0  0  0  0  0  0  0  0
   12.1983  -17.6476   24.9525 C   0  0  0  0  0  0  0  0  0  0  0  0
   13.3071  -17.2402   24.0519 C   0  0  0  0  0  0  0  0  0  0  0  0
   13.1247  -17.2123   22.7969 O   0  0  0  0  0  0  0  0  0  0  0  0
   10.0780  -16.9975   26.7511 C   0  0  0  0  0  0  0  0  0  0  0  0
    9.3259  -16.0641   27.4366 O   0  0  0  0  0  0  0  0  0  0  0  0
   14.5630  -16.8785   24.5086 O   0  0  0  0  0  0  0  0  0  0  0  0
   11.0344  -17.5517   27.3729 O   0  0  0  0  0  0  0  0  0  0  0  0
  2  1  1  6
  2  4  1  0
  2  3  1  0
  4  6  1  0
  4  5  1  6
  6  7  2  0
  9  8  1  6
 10  9  1  0
 11  9  1  0
 12 11  1  1
 13  6  1  0
 13 12  1  0
 14 12  1  0
 14 15  2  0
 16 14  1  0
 17 18  1  6
 17 16  1  0
 19 18  1  0
 19 20  1  0
 20 21  2  0
 22 17  1  0
 23 22  1  0
 24 20  1  0
 25 22  2  0
M  END
$$$$
