VLE.pdb
     RDKit          3D

 25 24  0  0  1  0  0  0  0  0999 V2000
    8.7626  -17.3783   20.7694 C   0  0  0  0  0  0  0  0  0  0  0  0
    7.2388  -17.2484   20.9530 C   0  0  2  0  0  0  0  0  0  0  0  0
    6.6246  -18.0803   19.8520 C   0  0  0  0  0  0  0  0  0  0  0  0
    6.9648  -15.7607   20.7977 C   0  0  2  0  0  0  0  0  0  0  0  0
    7.5598  -15.3169   19.5232 N   0  0  0  0  0  0  0  0  0  0  0  0
    7.5989  -14.9344   21.8509 C   0  0  0  0  0  0  0  0  0  0  0  0
    8.7567  -14.4092   21.6668 O   0  0  0  0  0  0  0  0  0  0  0  0
    7.5844  -11.2250   25.9637 C   0  0  0  0  0  0  0  0  0  0  0  0
    7.2031  -12.6342   26.3210 C   0  0  1  0  0  0  0  0  0  0  0  0
    6.0619  -12.4938   27.3458 C   0  0  0  0  0  0  0  0  0  0  0  0
    6.6609  -13.4616   25.2144 C   0  0  0  0  0  0  0  0  0  0  0  0
    7.6123  -13.8837   24.1523 C   0  0  2  0  0  0  0  0  0  0  0  0
    6.9815  -14.6707   23.1092 N   0  0  0  0  0  0  0  0  0  0  0  0
    8.8082  -14.5164   24.7402 C   0  0  0  0  0  0  0  0  0  0  0  0
    9.3672  -14.0111   25.7727 O   0  0  0  0  0  0  0  0  0  0  0  0
    9.4130  -15.6925   24.2343 N   0  0  0  0  0  0  0  0  0  0  0  0
   10.5526  -16.3293   24.8632 C   0  0  1  0  0  0  0  0  0  0  0  0
   10.1124  -17.0818   26.1217 C   0  0  0  0  0  0  0  0  0  0  0  0
   11.2637  -17.7950   26.7640 C   0  0  0  0  0  0  0  0  0  0  0  0
   10.7363  -18.5207   27.9480 C   0  0  0  0  0  0  0  0  0  0  0  0
    9.4969  -18.7781   28.0314 O   0  0  0  0  0  0  0  0  0  0  0  0
   11.0764  -17.3546   23.9484 C   0  0  0  0  0  0  0  0  0  0  0  0
   12.3071  -17.9282   24.1996 O   0  0  0  0  0  0  0  0  0  0  0  0
   11.5344  -18.9460   28.9962 O   0  0  0  0  0  0  0  0  0  0  0  0
   10.4452  -17.7462   22.9204 O   0  0  0  0  0  0  0  0  0  0  0  0
  2  1  1  6
  2  4  1  0
  2  3  1  0
  4  6  1  0
  4  5  1  6
  6  7  2  0
  9  8  1  6
 10  9  1  0
 11  9  1  0
 12 11  1  1
 13  6  1  0
 13 12  1  0
 14 12  1  0
 14 15  2  0
 16 14  1  0
 17 18  1  1
 17 16  1  0
 19 18  1  0
 19 20  1  0
 20 21  2  0
 22 17  1  0
 23 22  1  0
 24 20  1  0
 25 22  2  0
M  END
$$$$
