VLE.pdb
     RDKit          3D

 25 24  0  0  1  0  0  0  0  0999 V2000
    8.2706  -15.6850   19.8040 C   0  0  0  0  0  0  0  0  0  0  0  0
    6.9597  -14.9012   20.0036 C   0  0  2  0  0  0  0  0  0  0  0  0
    6.3899  -14.7033   18.6189 C   0  0  0  0  0  0  0  0  0  0  0  0
    7.3936  -13.5997   20.6597 C   0  0  2  0  0  0  0  0  0  0  0  0
    8.4327  -12.9849   19.8126 N   0  0  0  0  0  0  0  0  0  0  0  0
    8.0164  -13.7925   21.9898 C   0  0  0  0  0  0  0  0  0  0  0  0
    9.2883  -13.9290   22.1070 O   0  0  0  0  0  0  0  0  0  0  0  0
    5.4142  -12.0113   26.7557 C   0  0  0  0  0  0  0  0  0  0  0  0
    6.4188  -12.2917   25.6736 C   0  0  1  0  0  0  0  0  0  0  0  0
    7.6204  -11.3837   25.9961 C   0  0  0  0  0  0  0  0  0  0  0  0
    6.9525  -13.6759   25.6246 C   0  0  0  0  0  0  0  0  0  0  0  0
    7.8744  -14.0096   24.5065 C   0  0  2  0  0  0  0  0  0  0  0  0
    7.2648  -13.8369   23.2011 N   0  0  0  0  0  0  0  0  0  0  0  0
    8.4887  -15.3352   24.7104 C   0  0  0  0  0  0  0  0  0  0  0  0
    7.7568  -16.3742   24.8479 O   0  0  0  0  0  0  0  0  0  0  0  0
    9.8852  -15.5622   24.7653 N   0  0  0  0  0  0  0  0  0  0  0  0
   10.4678  -16.8840   24.8805 C   0  0  1  0  0  0  0  0  0  0  0  0
   11.9423  -16.8517   24.4701 C   0  0  0  0  0  0  0  0  0  0  0  0
   12.5807  -18.2001   24.6153 C   0  0  0  0  0  0  0  0  0  0  0  0
   13.9935  -18.0762   24.1735 C   0  0  0  0  0  0  0  0  0  0  0  0
   14.6986  -17.1014   24.5757 O   0  0  0  0  0  0  0  0  0  0  0  0
   10.4569  -17.2755   26.2979 C   0  0  0  0  0  0  0  0  0  0  0  0
   10.0910  -16.3525   27.2575 O   0  0  0  0  0  0  0  0  0  0  0  0
   14.6071  -18.9832   23.3264 O   0  0  0  0  0  0  0  0  0  0  0  0
   10.7732  -18.4386   26.6926 O   0  0  0  0  0  0  0  0  0  0  0  0
  2  1  1  6
  2  4  1  0
  2  3  1  0
  4  6  1  0
  4  5  1  6
  6  7  2  0
  9  8  1  1
 10  9  1  0
 11  9  1  0
 12 11  1  1
 13  6  1  0
 13 12  1  0
 14 12  1  0
 14 15  2  0
 16 14  1  0
 17 18  1  1
 17 16  1  0
 19 18  1  0
 19 20  1  0
 20 21  2  0
 22 17  1  0
 23 22  1  0
 24 20  1  0
 25 22  2  0
M  END
$$$$
