VLE.pdb
     RDKit          3D

 25 24  0  0  1  0  0  0  0  0999 V2000
    6.7068  -14.2240   19.1216 C   0  0  0  0  0  0  0  0  0  0  0  0
    7.2045  -13.6442   20.4591 C   0  0  2  0  0  0  0  0  0  0  0  0
    7.8856  -12.3423   20.1091 C   0  0  0  0  0  0  0  0  0  0  0  0
    8.1667  -14.6944   20.9917 C   0  0  2  0  0  0  0  0  0  0  0  0
    7.4450  -15.9783   21.0693 N   0  0  0  0  0  0  0  0  0  0  0  0
    8.6411  -14.4120   22.3662 C   0  0  0  0  0  0  0  0  0  0  0  0
    9.7897  -13.8732   22.5678 O   0  0  0  0  0  0  0  0  0  0  0  0
    5.4126  -12.5826   26.5491 C   0  0  0  0  0  0  0  0  0  0  0  0
    6.6114  -12.8291   25.6767 C   0  0  1  0  0  0  0  0  0  0  0  0
    7.6490  -11.7783   26.1138 C   0  0  0  0  0  0  0  0  0  0  0  0
    7.2718  -14.1488   25.8369 C   0  0  0  0  0  0  0  0  0  0  0  0
    8.3584  -14.4855   24.8793 C   0  0  2  0  0  0  0  0  0  0  0  0
    7.8731  -14.7100   23.5304 N   0  0  0  0  0  0  0  0  0  0  0  0
    9.1998  -15.5781   25.4031 C   0  0  0  0  0  0  0  0  0  0  0  0
    9.8288  -15.4392   26.5072 O   0  0  0  0  0  0  0  0  0  0  0  0
    9.3729  -16.8257   24.7563 N   0  0  0  0  0  0  0  0  0  0  0  0
   10.3157  -17.8281   25.2104 C   0  0  1  0  0  0  0  0  0  0  0  0
   11.7496  -17.3106   25.0694 C   0  0  0  0  0  0  0  0  0  0  0  0
   12.1573  -17.2125   23.6303 C   0  0  0  0  0  0  0  0  0  0  0  0
   13.6170  -16.9392   23.5964 C   0  0  0  0  0  0  0  0  0  0  0  0
   14.0360  -15.7420   23.5816 O   0  0  0  0  0  0  0  0  0  0  0  0
   10.1091  -18.0428   26.6505 C   0  0  0  0  0  0  0  0  0  0  0  0
   10.7945  -19.0539   27.2944 O   0  0  0  0  0  0  0  0  0  0  0  0
   14.5766  -17.9370   23.5793 O   0  0  0  0  0  0  0  0  0  0  0  0
    9.3183  -17.3350   27.3449 O   0  0  0  0  0  0  0  0  0  0  0  0
  2  1  1  6
  2  4  1  0
  2  3  1  0
  4  6  1  0
  4  5  1  1
  6  7  2  0
  9  8  1  1
 10  9  1  0
 11  9  1  0
 12 11  1  1
 13  6  1  0
 13 12  1  0
 14 12  1  0
 14 15  2  0
 16 14  1  0
 17 18  1  1
 17 16  1  0
 19 18  1  0
 19 20  1  0
 20 21  2  0
 22 17  1  0
 23 22  1  0
 24 20  1  0
 25 22  2  0
M  END
$$$$
