VLE.pdb
     RDKit          3D

 25 24  0  0  1  0  0  0  0  0999 V2000
    7.3957  -12.4854   20.2462 C   0  0  0  0  0  0  0  0  0  0  0  0
    8.4700  -13.3591   19.5714 C   0  0  2  0  0  0  0  0  0  0  0  0
    8.0160  -13.5286   18.1408 C   0  0  0  0  0  0  0  0  0  0  0  0
    8.4498  -14.6593   20.3598 C   0  0  2  0  0  0  0  0  0  0  0  0
    7.1131  -15.2644   20.2096 N   0  0  0  0  0  0  0  0  0  0  0  0
    8.6463  -14.4659   21.8152 C   0  0  0  0  0  0  0  0  0  0  0  0
    9.8050  -14.1799   22.2901 O   0  0  0  0  0  0  0  0  0  0  0  0
    7.5308  -12.2910   26.6568 C   0  0  0  0  0  0  0  0  0  0  0  0
    6.6810  -13.4770   26.2959 C   0  0  1  0  0  0  0  0  0  0  0  0
    5.2587  -13.1070   26.7569 C   0  0  0  0  0  0  0  0  0  0  0  0
    6.5755  -13.7847   24.8477 C   0  0  0  0  0  0  0  0  0  0  0  0
    7.7737  -14.3680   24.1879 C   0  0  2  0  0  0  0  0  0  0  0  0
    7.5880  -14.5795   22.7645 N   0  0  0  0  0  0  0  0  0  0  0  0
    8.2439  -15.5625   24.9149 C   0  0  0  0  0  0  0  0  0  0  0  0
    7.4314  -16.5052   25.2062 O   0  0  0  0  0  0  0  0  0  0  0  0
    9.5823  -15.7611   25.3321 N   0  0  0  0  0  0  0  0  0  0  0  0
   10.0479  -16.9932   25.9364 C   0  0  1  0  0  0  0  0  0  0  0  0
   11.4257  -17.3677   25.3840 C   0  0  0  0  0  0  0  0  0  0  0  0
   11.3721  -17.6267   23.9086 C   0  0  0  0  0  0  0  0  0  0  0  0
   12.7501  -17.9552   23.4616 C   0  0  0  0  0  0  0  0  0  0  0  0
   13.3240  -17.2279   22.5951 O   0  0  0  0  0  0  0  0  0  0  0  0
   10.2448  -16.7606   27.3750 C   0  0  0  0  0  0  0  0  0  0  0  0
   10.0357  -15.4994   27.8968 O   0  0  0  0  0  0  0  0  0  0  0  0
   13.4683  -19.0357   23.9446 O   0  0  0  0  0  0  0  0  0  0  0  0
   10.6048  -17.6752   28.1766 O   0  0  0  0  0  0  0  0  0  0  0  0
  2  1  1  1
  2  4  1  0
  2  3  1  0
  4  6  1  0
  4  5  1  1
  6  7  2  0
  9  8  1  6
 10  9  1  0
 11  9  1  0
 12 11  1  1
 13  6  1  0
 13 12  1  0
 14 12  1  0
 14 15  2  0
 16 14  1  0
 17 18  1  6
 17 16  1  0
 19 18  1  0
 19 20  1  0
 20 21  2  0
 22 17  1  0
 23 22  1  0
 24 20  1  0
 25 22  2  0
M  END
$$$$
