FEM.pdb
     RDKit          3D

 29 29  0  0  1  0  0  0  0  0999 V2000
    6.8563  -18.4593   19.5537 N   0  0  0  0  0  0  0  0  0  0  0  0
    7.3916  -17.3912   20.3687 C   0  0  1  0  0  0  0  0  0  0  0  0
    6.2409  -16.5720   20.8754 C   0  0  0  0  0  0  0  0  0  0  0  0
    6.7638  -15.1940   21.0729 C   0  0  0  0  0  0  0  0  0  0  0  0
    6.8547  -14.6219   22.3240 C   0  0  0  0  0  0  0  0  0  0  0  0
    7.3398  -13.3336   22.4959 C   0  0  0  0  0  0  0  0  0  0  0  0
    7.7503  -12.5762   21.4235 C   0  0  0  0  0  0  0  0  0  0  0  0
    7.6685  -13.1267   20.1670 C   0  0  0  0  0  0  0  0  0  0  0  0
    7.1757  -14.4291   20.0093 C   0  0  0  0  0  0  0  0  0  0  0  0
    8.2334  -17.9679   21.4224 C   0  0  0  0  0  0  0  0  0  0  0  0
    8.6080  -19.1905   21.3621 O   0  0  0  0  0  0  0  0  0  0  0  0
    8.6999  -17.2639   22.5668 N   0  0  0  0  0  0  0  0  0  0  0  0
   10.1002  -17.1452   22.9129 C   0  0  1  0  0  0  0  0  0  0  0  0
   10.8848  -16.6215   21.7593 C   0  0  0  0  0  0  0  0  0  0  0  0
   11.5412  -17.6089   20.8715 C   0  0  0  0  0  0  0  0  0  0  0  0
   12.9826  -17.5404   20.7152 C   0  0  0  0  0  0  0  0  0  0  0  0
   13.5103  -16.7580   19.8892 O   0  0  0  0  0  0  0  0  0  0  0  0
   10.3730  -16.4065   24.1425 C   0  0  0  0  0  0  0  0  0  0  0  0
   11.5462  -16.1329   24.5413 O   0  0  0  0  0  0  0  0  0  0  0  0
   13.8139  -18.3434   21.4794 O   0  0  0  0  0  0  0  0  0  0  0  0
    6.2862  -11.7114   26.8917 C   0  0  0  0  0  0  0  0  0  0  0  0
    6.2004  -12.9263   25.5936 S   0  0  0  0  0  0  0  0  0  0  0  0
    7.7489  -13.6800   25.1731 C   0  0  0  0  0  0  0  0  0  0  0  0
    8.6293  -14.0339   26.3085 C   0  0  0  0  0  0  0  0  0  0  0  0
    9.4691  -15.2371   26.1807 C   0  0  2  0  0  0  0  0  0  0  0  0
    9.2888  -15.9635   24.9367 N   0  0  0  0  0  0  0  0  0  0  0  0
    9.4743  -16.1411   27.3691 C   0  0  0  0  0  0  0  0  0  0  0  0
    9.0822  -17.3322   27.1835 O   0  0  0  0  0  0  0  0  0  0  0  0
    9.8581  -15.8066   28.6328 O   0  0  0  0  0  0  0  0  0  0  0  0
  2  1  1  1
  3  4  1  0
  3  2  1  0
  4  5  2  0
  4  9  1  0
  5  6  1  0
  6  7  2  0
  8  7  1  0
  9  8  2  0
 10  2  1  0
 11 10  2  0
 12 10  1  0
 13 12  1  0
 13 18  1  0
 13 14  1  6
 15 16  1  0
 15 14  1  0
 16 20  1  0
 17 16  2  0
 18 26  1  0
 19 18  2  0
 21 22  1  0
 23 22  1  0
 24 23  1  0
 25 24  1  1
 25 27  1  0
 26 25  1  0
 27 28  2  0
 27 29  1  0
M  END
$$$$
