FEM.pdb
     RDKit          3D

 29 29  0  0  1  0  0  0  0  0999 V2000
    5.8013  -18.2466   23.6755 N   0  0  0  0  0  0  0  0  0  0  0  0
    6.6517  -17.0847   23.8107 C   0  0  1  0  0  0  0  0  0  0  0  0
    6.3498  -16.4392   25.1314 C   0  0  0  0  0  0  0  0  0  0  0  0
    6.6504  -14.9920   24.9678 C   0  0  0  0  0  0  0  0  0  0  0  0
    6.0459  -14.0299   25.7485 C   0  0  0  0  0  0  0  0  0  0  0  0
    6.3305  -12.6821   25.5839 C   0  0  0  0  0  0  0  0  0  0  0  0
    7.2287  -12.2528   24.6346 C   0  0  0  0  0  0  0  0  0  0  0  0
    7.8433  -13.1949   23.8452 C   0  0  0  0  0  0  0  0  0  0  0  0
    7.5449  -14.5526   24.0230 C   0  0  0  0  0  0  0  0  0  0  0  0
    8.0506  -17.4922   23.6428 C   0  0  0  0  0  0  0  0  0  0  0  0
    8.5277  -18.4766   24.3079 O   0  0  0  0  0  0  0  0  0  0  0  0
    8.9799  -16.8674   22.7659 N   0  0  0  0  0  0  0  0  0  0  0  0
   10.3646  -17.2730   22.6524 C   0  0  1  0  0  0  0  0  0  0  0  0
   11.0072  -16.6270   21.4732 C   0  0  0  0  0  0  0  0  0  0  0  0
   12.4107  -16.9918   21.1713 C   0  0  0  0  0  0  0  0  0  0  0  0
   13.0620  -16.3445   20.0473 C   0  0  0  0  0  0  0  0  0  0  0  0
   14.2121  -15.8562   20.1556 O   0  0  0  0  0  0  0  0  0  0  0  0
   11.1583  -17.1104   23.8672 C   0  0  0  0  0  0  0  0  0  0  0  0
   12.3753  -17.4596   23.9523 O   0  0  0  0  0  0  0  0  0  0  0  0
   12.4238  -16.2502   18.8209 O   0  0  0  0  0  0  0  0  0  0  0  0
    9.8995  -12.7686   29.2741 C   0  0  0  0  0  0  0  0  0  0  0  0
   10.2528  -14.4392   29.7771 S   0  0  0  0  0  0  0  0  0  0  0  0
   11.1734  -15.3939   28.6007 C   0  0  0  0  0  0  0  0  0  0  0  0
   10.5479  -15.5655   27.2707 C   0  0  0  0  0  0  0  0  0  0  0  0
   11.2515  -16.3981   26.2803 C   0  0  2  0  0  0  0  0  0  0  0  0
   10.5583  -16.5340   25.0119 N   0  0  0  0  0  0  0  0  0  0  0  0
   11.7594  -17.7059   26.7913 C   0  0  0  0  0  0  0  0  0  0  0  0
   12.9909  -17.7655   27.0861 O   0  0  0  0  0  0  0  0  0  0  0  0
   11.0259  -18.8402   26.9683 O   0  0  0  0  0  0  0  0  0  0  0  0
  2  1  1  1
  3  4  1  0
  3  2  1  0
  4  5  2  0
  4  9  1  0
  5  6  1  0
  6  7  2  0
  8  7  1  0
  9  8  2  0
 10  2  1  0
 11 10  2  0
 12 10  1  0
 13 12  1  0
 13 18  1  0
 13 14  1  6
 15 16  1  0
 15 14  1  0
 16 20  1  0
 17 16  2  0
 18 26  1  0
 19 18  2  0
 21 22  1  0
 23 22  1  0
 24 23  1  0
 25 24  1  1
 25 27  1  0
 26 25  1  0
 27 28  2  0
 27 29  1  0
M  END
$$$$
