FEM.pdb
     RDKit          3D

 29 29  0  0  1  0  0  0  0  0999 V2000
    6.2512  -17.9127   20.8088 N   0  0  0  0  0  0  0  0  0  0  0  0
    7.0859  -16.7838   21.1554 C   0  0  1  0  0  0  0  0  0  0  0  0
    6.1957  -15.6835   21.6543 C   0  0  0  0  0  0  0  0  0  0  0  0
    6.8019  -14.4096   21.1841 C   0  0  0  0  0  0  0  0  0  0  0  0
    7.5236  -13.5917   22.0271 C   0  0  0  0  0  0  0  0  0  0  0  0
    8.0808  -12.4030   21.5785 C   0  0  0  0  0  0  0  0  0  0  0  0
    7.9352  -11.9941   20.2732 C   0  0  0  0  0  0  0  0  0  0  0  0
    7.2196  -12.7942   19.4152 C   0  0  0  0  0  0  0  0  0  0  0  0
    6.6623  -13.9918   19.8833 C   0  0  0  0  0  0  0  0  0  0  0  0
    8.1059  -17.2184   22.1155 C   0  0  0  0  0  0  0  0  0  0  0  0
    7.7707  -17.8087   23.2010 O   0  0  0  0  0  0  0  0  0  0  0  0
    9.5071  -17.0390   21.9503 N   0  0  0  0  0  0  0  0  0  0  0  0
   10.4768  -17.3511   22.9785 C   0  0  1  0  0  0  0  0  0  0  0  0
   11.8309  -17.5386   22.3853 C   0  0  0  0  0  0  0  0  0  0  0  0
   12.9453  -17.8585   23.3071 C   0  0  0  0  0  0  0  0  0  0  0  0
   14.2605  -18.0927   22.7395 C   0  0  0  0  0  0  0  0  0  0  0  0
   14.8844  -19.1576   22.9625 O   0  0  0  0  0  0  0  0  0  0  0  0
   10.4966  -16.4289   24.1105 C   0  0  0  0  0  0  0  0  0  0  0  0
   10.6012  -15.1712   23.9784 O   0  0  0  0  0  0  0  0  0  0  0  0
   14.8610  -17.1390   21.9334 O   0  0  0  0  0  0  0  0  0  0  0  0
    8.2395  -11.5569   26.2826 C   0  0  0  0  0  0  0  0  0  0  0  0
    7.6745  -12.9067   27.2961 S   0  0  0  0  0  0  0  0  0  0  0  0
    8.8722  -14.1840   27.5736 C   0  0  0  0  0  0  0  0  0  0  0  0
    9.1751  -15.0540   26.4156 C   0  0  0  0  0  0  0  0  0  0  0  0
   10.1962  -16.1012   26.5886 C   0  0  2  0  0  0  0  0  0  0  0  0
   10.3910  -16.9455   25.4237 N   0  0  0  0  0  0  0  0  0  0  0  0
   10.0918  -16.8922   27.8506 C   0  0  0  0  0  0  0  0  0  0  0  0
    9.8660  -18.1338   27.7305 O   0  0  0  0  0  0  0  0  0  0  0  0
   10.2141  -16.4060   29.1174 O   0  0  0  0  0  0  0  0  0  0  0  0
  2  1  1  1
  3  4  1  0
  3  2  1  0
  4  5  2  0
  4  9  1  0
  5  6  1  0
  6  7  2  0
  8  7  1  0
  9  8  2  0
 10  2  1  0
 11 10  2  0
 12 10  1  0
 13 12  1  0
 13 18  1  0
 13 14  1  6
 15 16  1  0
 15 14  1  0
 16 20  1  0
 17 16  2  0
 18 26  1  0
 19 18  2  0
 21 22  1  0
 23 22  1  0
 24 23  1  0
 25 24  1  6
 25 27  1  0
 26 25  1  0
 27 28  2  0
 27 29  1  0
M  END
$$$$
