FEM.pdb
     RDKit          3D

 29 29  0  0  1  0  0  0  0  0999 V2000
    6.0267  -17.2712   25.0683 N   0  0  0  0  0  0  0  0  0  0  0  0
    6.6606  -17.1683   23.7725 C   0  0  1  0  0  0  0  0  0  0  0  0
    6.1775  -15.9073   23.1178 C   0  0  0  0  0  0  0  0  0  0  0  0
    6.5264  -14.7961   24.0424 C   0  0  0  0  0  0  0  0  0  0  0  0
    7.5832  -13.9464   23.7937 C   0  0  0  0  0  0  0  0  0  0  0  0
    7.9024  -12.9157   24.6658 C   0  0  0  0  0  0  0  0  0  0  0  0
    7.1754  -12.7008   25.8137 C   0  0  0  0  0  0  0  0  0  0  0  0
    6.1174  -13.5360   26.0814 C   0  0  0  0  0  0  0  0  0  0  0  0
    5.8077  -14.5730   25.1912 C   0  0  0  0  0  0  0  0  0  0  0  0
    8.1155  -17.2417   23.9432 C   0  0  0  0  0  0  0  0  0  0  0  0
    8.6233  -17.6367   25.0500 O   0  0  0  0  0  0  0  0  0  0  0  0
    9.0695  -16.8987   22.9457 N   0  0  0  0  0  0  0  0  0  0  0  0
   10.4847  -17.1767   23.0679 C   0  0  1  0  0  0  0  0  0  0  0  0
   11.1843  -16.9226   21.7769 C   0  0  0  0  0  0  0  0  0  0  0  0
   12.6179  -17.2850   21.6908 C   0  0  0  0  0  0  0  0  0  0  0  0
   13.2788  -17.1715   20.4035 C   0  0  0  0  0  0  0  0  0  0  0  0
   13.8115  -18.1664   19.8565 O   0  0  0  0  0  0  0  0  0  0  0  0
   11.1492  -16.5206   24.1904 C   0  0  0  0  0  0  0  0  0  0  0  0
   11.2212  -15.2596   24.3127 O   0  0  0  0  0  0  0  0  0  0  0  0
   13.3372  -15.9535   19.7454 O   0  0  0  0  0  0  0  0  0  0  0  0
   11.0940  -13.0713   28.4257 C   0  0  0  0  0  0  0  0  0  0  0  0
    9.8636  -14.2913   28.8335 S   0  0  0  0  0  0  0  0  0  0  0  0
   10.3250  -15.9652   28.4756 C   0  0  0  0  0  0  0  0  0  0  0  0
   10.4633  -16.3094   27.0432 C   0  0  0  0  0  0  0  0  0  0  0  0
   11.7158  -16.9492   26.6058 C   0  0  2  0  0  0  0  0  0  0  0  0
   11.7427  -17.3139   25.2008 N   0  0  0  0  0  0  0  0  0  0  0  0
   12.2124  -18.0482   27.4861 C   0  0  0  0  0  0  0  0  0  0  0  0
   11.9492  -19.2342   27.1241 O   0  0  0  0  0  0  0  0  0  0  0  0
   12.9189  -17.8969   28.6411 O   0  0  0  0  0  0  0  0  0  0  0  0
  2  1  1  1
  3  4  1  0
  3  2  1  0
  4  5  2  0
  4  9  1  0
  5  6  1  0
  6  7  2  0
  8  7  1  0
  9  8  2  0
 10  2  1  0
 11 10  2  0
 12 10  1  0
 13 12  1  0
 13 18  1  0
 13 14  1  6
 15 16  1  0
 15 14  1  0
 16 20  1  0
 17 16  2  0
 18 26  1  0
 19 18  2  0
 21 22  1  0
 23 22  1  0
 24 23  1  0
 25 24  1  1
 25 27  1  0
 26 25  1  0
 27 28  2  0
 27 29  1  0
M  END
$$$$
