FEM.pdb
     RDKit          3D

 29 29  0  0  1  0  0  0  0  0999 V2000
    6.9448  -18.2118   19.4511 N   0  0  0  0  0  0  0  0  0  0  0  0
    7.6223  -17.1214   20.1170 C   0  0  1  0  0  0  0  0  0  0  0  0
    6.5804  -16.1694   20.6272 C   0  0  0  0  0  0  0  0  0  0  0  0
    7.1178  -14.8013   20.4015 C   0  0  0  0  0  0  0  0  0  0  0  0
    7.2105  -14.2543   19.1395 C   0  0  0  0  0  0  0  0  0  0  0  0
    7.7179  -12.9785   18.9404 C   0  0  0  0  0  0  0  0  0  0  0  0
    8.1480  -12.2084   19.9960 C   0  0  0  0  0  0  0  0  0  0  0  0
    8.0646  -12.7338   21.2630 C   0  0  0  0  0  0  0  0  0  0  0  0
    7.5503  -14.0243   21.4481 C   0  0  0  0  0  0  0  0  0  0  0  0
    8.5031  -17.6667   21.1553 C   0  0  0  0  0  0  0  0  0  0  0  0
    8.6370  -18.9318   21.2987 O   0  0  0  0  0  0  0  0  0  0  0  0
    9.2646  -16.8858   22.0681 N   0  0  0  0  0  0  0  0  0  0  0  0
   10.2373  -17.4494   22.9798 C   0  0  1  0  0  0  0  0  0  0  0  0
   11.2722  -18.2203   22.2344 C   0  0  0  0  0  0  0  0  0  0  0  0
   11.8005  -17.6278   20.9838 C   0  0  0  0  0  0  0  0  0  0  0  0
   12.8321  -18.3513   20.2634 C   0  0  0  0  0  0  0  0  0  0  0  0
   12.9637  -18.2313   19.0220 O   0  0  0  0  0  0  0  0  0  0  0  0
   10.8300  -16.4992   23.9168 C   0  0  0  0  0  0  0  0  0  0  0  0
   11.9233  -16.7142   24.5238 O   0  0  0  0  0  0  0  0  0  0  0  0
   13.7004  -19.1970   20.9349 O   0  0  0  0  0  0  0  0  0  0  0  0
    5.7237  -11.9038   27.9375 C   0  0  0  0  0  0  0  0  0  0  0  0
    6.2081  -12.7925   26.4733 S   0  0  0  0  0  0  0  0  0  0  0  0
    7.6953  -13.7437   26.6354 C   0  0  0  0  0  0  0  0  0  0  0  0
    8.3058  -14.2161   25.3729 C   0  0  0  0  0  0  0  0  0  0  0  0
    9.5835  -14.9440   25.4552 C   0  0  2  0  0  0  0  0  0  0  0  0
   10.1686  -15.2736   24.1680 N   0  0  0  0  0  0  0  0  0  0  0  0
    9.5989  -16.1020   26.3977 C   0  0  0  0  0  0  0  0  0  0  0  0
    9.0552  -17.1741   25.9955 O   0  0  0  0  0  0  0  0  0  0  0  0
   10.1395  -16.1144   27.6482 O   0  0  0  0  0  0  0  0  0  0  0  0
  2  1  1  1
  3  4  1  0
  3  2  1  0
  4  5  2  0
  4  9  1  0
  5  6  1  0
  6  7  2  0
  8  7  1  0
  9  8  2  0
 10  2  1  0
 11 10  2  0
 12 10  1  0
 13 12  1  0
 13 18  1  0
 13 14  1  6
 15 16  1  0
 15 14  1  0
 16 20  1  0
 17 16  2  0
 18 26  1  0
 19 18  2  0
 21 22  1  0
 23 22  1  0
 24 23  1  0
 25 24  1  6
 25 27  1  0
 26 25  1  0
 27 28  2  0
 27 29  1  0
M  END
$$$$
