FEM.pdb
     RDKit          3D

 29 29  0  0  1  0  0  0  0  0999 V2000
    8.8482  -16.7569   20.6013 N   0  0  0  0  0  0  0  0  0  0  0  0
    8.7777  -15.8799   21.7490 C   0  0  1  0  0  0  0  0  0  0  0  0
    7.3996  -15.2878   21.7974 C   0  0  0  0  0  0  0  0  0  0  0  0
    7.3689  -14.2155   20.7675 C   0  0  0  0  0  0  0  0  0  0  0  0
    8.0014  -13.0053   20.9571 C   0  0  0  0  0  0  0  0  0  0  0  0
    7.9621  -12.0103   19.9912 C   0  0  0  0  0  0  0  0  0  0  0  0
    7.2904  -12.1932   18.8047 C   0  0  0  0  0  0  0  0  0  0  0  0
    6.6528  -13.3922   18.5944 C   0  0  0  0  0  0  0  0  0  0  0  0
    6.7010  -14.3874   19.5799 C   0  0  0  0  0  0  0  0  0  0  0  0
    9.1552  -16.6314   22.9507 C   0  0  0  0  0  0  0  0  0  0  0  0
    8.3596  -16.7049   23.9510 O   0  0  0  0  0  0  0  0  0  0  0  0
   10.3852  -17.3244   23.1234 N   0  0  0  0  0  0  0  0  0  0  0  0
   10.9529  -17.6285   24.4195 C   0  0  1  0  0  0  0  0  0  0  0  0
   12.1634  -18.4857   24.2758 C   0  0  0  0  0  0  0  0  0  0  0  0
   12.5776  -18.8632   22.9046 C   0  0  0  0  0  0  0  0  0  0  0  0
   13.8768  -18.4200   22.4331 C   0  0  0  0  0  0  0  0  0  0  0  0
   14.9044  -19.1172   22.6085 O   0  0  0  0  0  0  0  0  0  0  0  0
   11.1991  -16.4703   25.2741 C   0  0  0  0  0  0  0  0  0  0  0  0
   11.3975  -15.3025   24.8190 O   0  0  0  0  0  0  0  0  0  0  0  0
   14.0125  -17.2084   21.7745 O   0  0  0  0  0  0  0  0  0  0  0  0
    7.0158  -13.3335   25.9741 C   0  0  0  0  0  0  0  0  0  0  0  0
    7.4474  -13.1823   27.6944 S   0  0  0  0  0  0  0  0  0  0  0  0
    9.0133  -13.8868   28.1357 C   0  0  0  0  0  0  0  0  0  0  0  0
    9.5172  -14.9586   27.2487 C   0  0  0  0  0  0  0  0  0  0  0  0
   10.7933  -15.6032   27.6026 C   0  0  2  0  0  0  0  0  0  0  0  0
   11.2165  -16.6402   26.6789 N   0  0  0  0  0  0  0  0  0  0  0  0
   10.9197  -16.0284   29.0283 C   0  0  0  0  0  0  0  0  0  0  0  0
   10.5923  -17.2225   29.3003 O   0  0  0  0  0  0  0  0  0  0  0  0
   11.3511  -15.2548   30.0634 O   0  0  0  0  0  0  0  0  0  0  0  0
  2  1  1  6
  3  4  1  0
  3  2  1  0
  4  5  2  0
  4  9  1  0
  5  6  1  0
  6  7  2  0
  8  7  1  0
  9  8  2  0
 10  2  1  0
 11 10  2  0
 12 10  1  0
 13 12  1  0
 13 18  1  0
 13 14  1  6
 15 16  1  0
 15 14  1  0
 16 20  1  0
 17 16  2  0
 18 26  1  0
 19 18  2  0
 21 22  1  0
 23 22  1  0
 24 23  1  0
 25 24  1  6
 25 27  1  0
 26 25  1  0
 27 28  2  0
 27 29  1  0
M  END
$$$$
