FEM.pdb
     RDKit          3D

 29 29  0  0  1  0  0  0  0  0999 V2000
    6.3278  -17.7582   24.8123 N   0  0  0  0  0  0  0  0  0  0  0  0
    6.8255  -17.6047   23.4632 C   0  0  1  0  0  0  0  0  0  0  0  0
    6.2305  -16.3528   22.8881 C   0  0  0  0  0  0  0  0  0  0  0  0
    6.4515  -15.2831   23.8972 C   0  0  0  0  0  0  0  0  0  0  0  0
    5.8812  -15.3359   25.1512 C   0  0  0  0  0  0  0  0  0  0  0  0
    6.0906  -14.3297   26.0831 C   0  0  0  0  0  0  0  0  0  0  0  0
    6.8770  -13.2393   25.7921 C   0  0  0  0  0  0  0  0  0  0  0  0
    7.4556  -13.1662   24.5477 C   0  0  0  0  0  0  0  0  0  0  0  0
    7.2343  -14.1901   23.6168 C   0  0  0  0  0  0  0  0  0  0  0  0
    8.2919  -17.6209   23.4883 C   0  0  0  0  0  0  0  0  0  0  0  0
    8.9226  -18.4502   24.2322 O   0  0  0  0  0  0  0  0  0  0  0  0
    9.1277  -16.7590   22.7258 N   0  0  0  0  0  0  0  0  0  0  0  0
   10.5610  -16.9296   22.6182 C   0  0  1  0  0  0  0  0  0  0  0  0
   11.1453  -15.9083   21.7038 C   0  0  0  0  0  0  0  0  0  0  0  0
   12.6147  -15.9152   21.5173 C   0  0  0  0  0  0  0  0  0  0  0  0
   13.1383  -16.2250   20.1995 C   0  0  0  0  0  0  0  0  0  0  0  0
   13.1840  -15.3550   19.2973 O   0  0  0  0  0  0  0  0  0  0  0  0
   11.2730  -16.9978   23.8912 C   0  0  0  0  0  0  0  0  0  0  0  0
   12.4122  -17.5417   24.0203 O   0  0  0  0  0  0  0  0  0  0  0  0
   13.6022  -17.4972   19.9059 O   0  0  0  0  0  0  0  0  0  0  0  0
   10.9442  -12.7597   29.2171 C   0  0  0  0  0  0  0  0  0  0  0  0
   11.8516  -14.2581   29.5333 S   0  0  0  0  0  0  0  0  0  0  0  0
   11.1948  -15.7074   28.7517 C   0  0  0  0  0  0  0  0  0  0  0  0
   10.7843  -15.5545   27.3384 C   0  0  0  0  0  0  0  0  0  0  0  0
   11.2599  -16.5573   26.3700 C   0  0  2  0  0  0  0  0  0  0  0  0
   10.6804  -16.4315   25.0448 N   0  0  0  0  0  0  0  0  0  0  0  0
   11.2562  -17.9682   26.8585 C   0  0  0  0  0  0  0  0  0  0  0  0
   12.0318  -18.2416   27.8232 O   0  0  0  0  0  0  0  0  0  0  0  0
   10.5007  -18.9887   26.3646 O   0  0  0  0  0  0  0  0  0  0  0  0
  2  1  1  1
  3  4  1  0
  3  2  1  0
  4  5  2  0
  4  9  1  0
  5  6  1  0
  6  7  2  0
  8  7  1  0
  9  8  2  0
 10  2  1  0
 11 10  2  0
 12 10  1  0
 13 12  1  0
 13 18  1  0
 13 14  1  6
 15 16  1  0
 15 14  1  0
 16 20  1  0
 17 16  2  0
 18 26  1  0
 19 18  2  0
 21 22  1  0
 23 22  1  0
 24 23  1  0
 25 24  1  1
 25 27  1  0
 26 25  1  0
 27 28  2  0
 27 29  1  0
M  END
$$$$
