FEM.pdb
     RDKit          3D

 29 29  0  0  1  0  0  0  0  0999 V2000
    6.9196  -17.2694   20.5684 N   0  0  0  0  0  0  0  0  0  0  0  0
    7.4439  -16.4006   21.5988 C   0  0  1  0  0  0  0  0  0  0  0  0
    6.3202  -16.0552   22.5315 C   0  0  0  0  0  0  0  0  0  0  0  0
    6.8695  -15.0710   23.5015 C   0  0  0  0  0  0  0  0  0  0  0  0
    6.9276  -15.3354   24.8533 C   0  0  0  0  0  0  0  0  0  0  0  0
    7.4379  -14.4077   25.7497 C   0  0  0  0  0  0  0  0  0  0  0  0
    7.9072  -13.1867   25.3240 C   0  0  0  0  0  0  0  0  0  0  0  0
    7.8591  -12.9020   23.9805 C   0  0  0  0  0  0  0  0  0  0  0  0
    7.3402  -13.8491   23.0873 C   0  0  0  0  0  0  0  0  0  0  0  0
    8.5854  -17.0572   22.2446 C   0  0  0  0  0  0  0  0  0  0  0  0
    8.4121  -18.0861   22.9863 O   0  0  0  0  0  0  0  0  0  0  0  0
    9.9397  -16.6406   22.1211 N   0  0  0  0  0  0  0  0  0  0  0  0
   11.0263  -17.2307   22.8735 C   0  0  1  0  0  0  0  0  0  0  0  0
   12.2817  -17.2332   22.0705 C   0  0  0  0  0  0  0  0  0  0  0  0
   12.2756  -17.9785   20.7904 C   0  0  0  0  0  0  0  0  0  0  0  0
   13.4797  -17.9616   19.9802 C   0  0  0  0  0  0  0  0  0  0  0  0
   14.6151  -18.0742   20.5009 O   0  0  0  0  0  0  0  0  0  0  0  0
   11.2295  -16.6728   24.2075 C   0  0  0  0  0  0  0  0  0  0  0  0
   11.5420  -15.4601   24.4118 O   0  0  0  0  0  0  0  0  0  0  0  0
   13.4020  -17.8194   18.6040 O   0  0  0  0  0  0  0  0  0  0  0  0
   10.3277  -12.3340   28.6918 C   0  0  0  0  0  0  0  0  0  0  0  0
    9.3635  -13.8283   28.6133 S   0  0  0  0  0  0  0  0  0  0  0  0
   10.3028  -15.3100   28.3580 C   0  0  0  0  0  0  0  0  0  0  0  0
   10.3296  -15.8324   26.9738 C   0  0  0  0  0  0  0  0  0  0  0  0
   11.1594  -17.0181   26.7004 C   0  0  2  0  0  0  0  0  0  0  0  0
   11.0701  -17.5099   25.3374 N   0  0  0  0  0  0  0  0  0  0  0  0
   11.0550  -18.1161   27.7069 C   0  0  0  0  0  0  0  0  0  0  0  0
   10.4524  -19.1703   27.3429 O   0  0  0  0  0  0  0  0  0  0  0  0
   11.5435  -18.0912   28.9784 O   0  0  0  0  0  0  0  0  0  0  0  0
  2  1  1  6
  3  4  1  0
  3  2  1  0
  4  5  2  0
  4  9  1  0
  5  6  1  0
  6  7  2  0
  8  7  1  0
  9  8  2  0
 10  2  1  0
 11 10  2  0
 12 10  1  0
 13 12  1  0
 13 18  1  0
 13 14  1  6
 15 16  1  0
 15 14  1  0
 16 20  1  0
 17 16  2  0
 18 26  1  0
 19 18  2  0
 21 22  1  0
 23 22  1  0
 24 23  1  0
 25 24  1  1
 25 27  1  0
 26 25  1  0
 27 28  2  0
 27 29  1  0
M  END
$$$$
