FEM.pdb
     RDKit          3D

 29 29  0  0  1  0  0  0  0  0999 V2000
    5.4698  -17.6523   24.4127 N   0  0  0  0  0  0  0  0  0  0  0  0
    6.5255  -16.6639   24.3961 C   0  0  1  0  0  0  0  0  0  0  0  0
    6.6394  -16.0825   25.7748 C   0  0  0  0  0  0  0  0  0  0  0  0
    6.7093  -14.6072   25.6019 C   0  0  0  0  0  0  0  0  0  0  0  0
    7.6843  -14.0096   24.8320 C   0  0  0  0  0  0  0  0  0  0  0  0
    7.7426  -12.6316   24.6815 C   0  0  0  0  0  0  0  0  0  0  0  0
    6.8282  -11.8071   25.2949 C   0  0  0  0  0  0  0  0  0  0  0  0
    5.8473  -12.3816   26.0672 C   0  0  0  0  0  0  0  0  0  0  0  0
    5.8019  -13.7749   26.2101 C   0  0  0  0  0  0  0  0  0  0  0  0
    7.7570  -17.2862   23.8988 C   0  0  0  0  0  0  0  0  0  0  0  0
    8.3192  -18.2331   24.5516 O   0  0  0  0  0  0  0  0  0  0  0  0
    8.4245  -16.9212   22.6970 N   0  0  0  0  0  0  0  0  0  0  0  0
    9.8262  -17.1863   22.4523 C   0  0  1  0  0  0  0  0  0  0  0  0
   10.1840  -16.8656   21.0417 C   0  0  0  0  0  0  0  0  0  0  0  0
   11.6028  -17.0142   20.6432 C   0  0  0  0  0  0  0  0  0  0  0  0
   11.9466  -16.8290   19.2453 C   0  0  0  0  0  0  0  0  0  0  0  0
   11.2079  -17.2663   18.3309 O   0  0  0  0  0  0  0  0  0  0  0  0
   10.7472  -16.5729   23.4050 C   0  0  0  0  0  0  0  0  0  0  0  0
   11.1445  -15.3715   23.3101 O   0  0  0  0  0  0  0  0  0  0  0  0
   13.1063  -16.1610   18.8865 O   0  0  0  0  0  0  0  0  0  0  0  0
   10.7840  -13.3109   29.7194 C   0  0  0  0  0  0  0  0  0  0  0  0
   10.2094  -14.8022   28.9356 S   0  0  0  0  0  0  0  0  0  0  0  0
   11.3940  -15.5959   27.8822 C   0  0  0  0  0  0  0  0  0  0  0  0
   10.8710  -16.1385   26.6087 C   0  0  0  0  0  0  0  0  0  0  0  0
   11.8322  -16.7429   25.6706 C   0  0  2  0  0  0  0  0  0  0  0  0
   11.2258  -17.3394   24.4940 N   0  0  0  0  0  0  0  0  0  0  0  0
   12.8577  -17.6324   26.2921 C   0  0  0  0  0  0  0  0  0  0  0  0
   12.7287  -18.8782   26.0962 O   0  0  0  0  0  0  0  0  0  0  0  0
   13.9163  -17.2324   27.0508 O   0  0  0  0  0  0  0  0  0  0  0  0
  2  1  1  1
  3  4  1  0
  3  2  1  0
  4  5  2  0
  4  9  1  0
  5  6  1  0
  6  7  2  0
  8  7  1  0
  9  8  2  0
 10  2  1  0
 11 10  2  0
 12 10  1  0
 13 12  1  0
 13 18  1  0
 13 14  1  6
 15 16  1  0
 15 14  1  0
 16 20  1  0
 17 16  2  0
 18 26  1  0
 19 18  2  0
 21 22  1  0
 23 22  1  0
 24 23  1  0
 25 24  1  1
 25 27  1  0
 26 25  1  0
 27 28  2  0
 27 29  1  0
M  END
$$$$
