FEM.pdb
     RDKit          3D

 29 29  0  0  1  0  0  0  0  0999 V2000
    6.8332  -18.6010   21.9888 N   0  0  0  0  0  0  0  0  0  0  0  0
    7.2879  -17.3018   22.4322 C   0  0  1  0  0  0  0  0  0  0  0  0
    6.1821  -16.6677   23.2240 C   0  0  0  0  0  0  0  0  0  0  0  0
    6.6367  -15.2894   23.5476 C   0  0  0  0  0  0  0  0  0  0  0  0
    6.6508  -14.8119   24.8409 C   0  0  0  0  0  0  0  0  0  0  0  0
    7.0727  -13.5225   25.1305 C   0  0  0  0  0  0  0  0  0  0  0  0
    7.4946  -12.6693   24.1374 C   0  0  0  0  0  0  0  0  0  0  0  0
    7.4890  -13.1244   22.8408 C   0  0  0  0  0  0  0  0  0  0  0  0
    7.0595  -14.4293   22.5639 C   0  0  0  0  0  0  0  0  0  0  0  0
    8.5457  -17.4600   23.1699 C   0  0  0  0  0  0  0  0  0  0  0  0
    8.5884  -18.1531   24.2455 O   0  0  0  0  0  0  0  0  0  0  0  0
    9.7904  -16.8882   22.7871 N   0  0  0  0  0  0  0  0  0  0  0  0
   11.0122  -17.0600   23.5438 C   0  0  1  0  0  0  0  0  0  0  0  0
   12.2002  -16.7301   22.7069 C   0  0  0  0  0  0  0  0  0  0  0  0
   13.5368  -16.8582   23.3324 C   0  0  0  0  0  0  0  0  0  0  0  0
   14.7070  -16.6250   22.5061 C   0  0  0  0  0  0  0  0  0  0  0  0
   15.8655  -16.7732   22.9632 O   0  0  0  0  0  0  0  0  0  0  0  0
   11.0425  -16.3757   24.8334 C   0  0  0  0  0  0  0  0  0  0  0  0
   11.1610  -15.1175   24.9481 O   0  0  0  0  0  0  0  0  0  0  0  0
   14.5704  -16.2302   21.1849 O   0  0  0  0  0  0  0  0  0  0  0  0
    7.8379  -12.6640   27.5585 C   0  0  0  0  0  0  0  0  0  0  0  0
    9.5949  -12.8607   27.3522 S   0  0  0  0  0  0  0  0  0  0  0  0
   10.2913  -14.2645   28.1812 C   0  0  0  0  0  0  0  0  0  0  0  0
    9.9177  -15.5902   27.6406 C   0  0  0  0  0  0  0  0  0  0  0  0
   11.0002  -16.5442   27.3451 C   0  0  2  0  0  0  0  0  0  0  0  0
   10.9313  -17.1365   26.0214 N   0  0  0  0  0  0  0  0  0  0  0  0
   11.2635  -17.5599   28.4073 C   0  0  0  0  0  0  0  0  0  0  0  0
   10.9664  -18.7619   28.1356 O   0  0  0  0  0  0  0  0  0  0  0  0
   11.7902  -17.3170   29.6400 O   0  0  0  0  0  0  0  0  0  0  0  0
  2  1  1  1
  3  4  1  0
  3  2  1  0
  4  5  2  0
  4  9  1  0
  5  6  1  0
  6  7  2  0
  8  7  1  0
  9  8  2  0
 10  2  1  0
 11 10  2  0
 12 10  1  0
 13 12  1  0
 13 18  1  0
 13 14  1  6
 15 16  1  0
 15 14  1  0
 16 20  1  0
 17 16  2  0
 18 26  1  0
 19 18  2  0
 21 22  1  0
 23 22  1  0
 24 23  1  0
 25 24  1  1
 25 27  1  0
 26 25  1  0
 27 28  2  0
 27 29  1  0
M  END
$$$$
