FEM.pdb
     RDKit          3D

 29 29  0  0  1  0  0  0  0  0999 V2000
    5.7150  -17.4679   20.7707 N   0  0  0  0  0  0  0  0  0  0  0  0
    7.0311  -17.4166   20.1734 C   0  0  1  0  0  0  0  0  0  0  0  0
    7.0791  -16.2300   19.2560 C   0  0  0  0  0  0  0  0  0  0  0  0
    7.2222  -15.0335   20.1274 C   0  0  0  0  0  0  0  0  0  0  0  0
    8.2537  -14.1333   19.9647 C   0  0  0  0  0  0  0  0  0  0  0  0
    8.3800  -13.0228   20.7866 C   0  0  0  0  0  0  0  0  0  0  0  0
    7.4793  -12.7759   21.7966 C   0  0  0  0  0  0  0  0  0  0  0  0
    6.4429  -13.6602   21.9767 C   0  0  0  0  0  0  0  0  0  0  0  0
    6.3291  -14.7778   21.1388 C   0  0  0  0  0  0  0  0  0  0  0  0
    8.0403  -17.3992   21.2375 C   0  0  0  0  0  0  0  0  0  0  0  0
    7.7053  -17.5946   22.4576 O   0  0  0  0  0  0  0  0  0  0  0  0
    9.4302  -17.1745   21.0364 N   0  0  0  0  0  0  0  0  0  0  0  0
   10.4261  -17.3692   22.0685 C   0  0  1  0  0  0  0  0  0  0  0  0
   11.7773  -17.5540   21.4678 C   0  0  0  0  0  0  0  0  0  0  0  0
   12.9130  -17.7821   22.3909 C   0  0  0  0  0  0  0  0  0  0  0  0
   14.2400  -17.9339   21.8229 C   0  0  0  0  0  0  0  0  0  0  0  0
   15.2109  -17.2656   22.2515 O   0  0  0  0  0  0  0  0  0  0  0  0
   10.4284  -16.3603   23.1241 C   0  0  0  0  0  0  0  0  0  0  0  0
   10.8192  -15.1669   22.9417 O   0  0  0  0  0  0  0  0  0  0  0  0
   14.4661  -18.8261   20.7870 O   0  0  0  0  0  0  0  0  0  0  0  0
    7.2838  -11.1286   27.1303 C   0  0  0  0  0  0  0  0  0  0  0  0
    7.4007  -12.4341   25.9260 S   0  0  0  0  0  0  0  0  0  0  0  0
    8.6217  -13.6694   26.2805 C   0  0  0  0  0  0  0  0  0  0  0  0
    8.8198  -14.7047   25.2420 C   0  0  0  0  0  0  0  0  0  0  0  0
    9.8302  -15.7470   25.4915 C   0  0  2  0  0  0  0  0  0  0  0  0
    9.9723  -16.7124   24.4166 N   0  0  0  0  0  0  0  0  0  0  0  0
    9.7567  -16.3991   26.8327 C   0  0  0  0  0  0  0  0  0  0  0  0
    9.5487  -17.6494   26.8502 O   0  0  0  0  0  0  0  0  0  0  0  0
    9.8899  -15.7777   28.0378 O   0  0  0  0  0  0  0  0  0  0  0  0
  2  1  1  1
  3  4  1  0
  3  2  1  0
  4  5  2  0
  4  9  1  0
  5  6  1  0
  6  7  2  0
  8  7  1  0
  9  8  2  0
 10  2  1  0
 11 10  2  0
 12 10  1  0
 13 12  1  0
 13 18  1  0
 13 14  1  6
 15 16  1  0
 15 14  1  0
 16 20  1  0
 17 16  2  0
 18 26  1  0
 19 18  2  0
 21 22  1  0
 23 22  1  0
 24 23  1  0
 25 24  1  6
 25 27  1  0
 26 25  1  0
 27 28  2  0
 27 29  1  0
M  END
$$$$
