ACY.pdb
     RDKit          3D

 24 24  0  0  1  0  0  0  0  0999 V2000
   17.7162  -12.1530  -15.4620 C   0  0  0  0  0  0  0  0  0  0  0  0
   18.6397  -11.3707  -16.3765 C   0  0  2  0  0  0  0  0  0  0  0  0
   19.3980  -12.3137  -17.1847 N   0  0  0  0  0  0  0  0  0  0  0  0
   19.5472  -10.5051  -15.5755 C   0  0  0  0  0  0  0  0  0  0  0  0
   19.2231  -10.1263  -14.4392 O   0  0  0  0  0  0  0  0  0  0  0  0
   20.7945  -10.1100  -16.1170 N   0  0  0  0  0  0  0  0  0  0  0  0
   21.7242   -9.2496  -15.4593 C   0  0  1  0  0  0  0  0  0  0  0  0
   23.1570   -9.5205  -15.8919 C   0  0  0  0  0  0  0  0  0  0  0  0
   23.7805  -10.8364  -14.7740 S   0  0  0  0  0  0  0  0  0  0  0  0
   21.4747   -7.8106  -15.7218 C   0  0  0  0  0  0  0  0  0  0  0  0
   21.1929   -7.4317  -16.8909 O   0  0  0  0  0  0  0  0  0  0  0  0
   20.1035    0.9412  -14.4090 O   0  0  0  0  0  0  0  0  0  0  0  0
   20.3641   -0.4222  -14.2508 C   0  0  0  0  0  0  0  0  0  0  0  0
   19.3549   -1.3548  -14.1715 C   0  0  0  0  0  0  0  0  0  0  0  0
   19.5993   -2.7037  -14.0153 C   0  0  0  0  0  0  0  0  0  0  0  0
   20.8932   -3.1822  -13.9301 C   0  0  0  0  0  0  0  0  0  0  0  0
   21.1436   -4.6073  -13.7571 C   0  0  0  0  0  0  0  0  0  0  0  0
   21.3596   -5.3814  -15.0074 C   0  0  2  0  0  0  0  0  0  0  0  0
   21.5343   -6.8072  -14.7156 N   0  0  0  0  0  0  0  0  0  0  0  0
   22.5246   -4.8492  -15.7442 C   0  0  0  0  0  0  0  0  0  0  0  0
   23.8335   -5.1766  -15.3527 O   0  0  0  0  0  0  0  0  0  0  0  0
   21.9059   -2.2322  -14.0114 C   0  0  0  0  0  0  0  0  0  0  0  0
   21.6552   -0.8917  -14.1670 C   0  0  0  0  0  0  0  0  0  0  0  0
   22.3937   -4.1011  -16.7257 O   0  0  0  0  0  0  0  0  0  0  0  0
  2  1  1  1
  2  4  1  0
  3  2  1  0
  4  6  1  0
  4  5  2  0
  6  7  1  0
  7 10  1  0
  7  8  1  6
  8  9  1  0
 10 11  2  0
 12 13  1  0
 13 23  2  0
 14 13  1  0
 14 15  2  0
 15 16  1  0
 16 22  2  0
 16 17  1  0
 18 17  1  1
 18 20  1  0
 19 10  1  0
 19 18  1  0
 20 21  1  0
 23 22  1  0
 24 20  2  0
M  END
$$$$
