ACY.pdb
     RDKit          3D

 24 24  0  0  1  0  0  0  0  0999 V2000
   12.3097   -9.4415  -18.0560 C   0  0  0  0  0  0  0  0  0  0  0  0
   12.7096   -8.9089  -16.6931 C   0  0  2  0  0  0  0  0  0  0  0  0
   11.5471   -8.2822  -16.0820 N   0  0  0  0  0  0  0  0  0  0  0  0
   13.8296   -7.9382  -16.8267 C   0  0  0  0  0  0  0  0  0  0  0  0
   13.7016   -6.9126  -17.5133 O   0  0  0  0  0  0  0  0  0  0  0  0
   15.0547   -8.1887  -16.1622 N   0  0  0  0  0  0  0  0  0  0  0  0
   16.1625   -7.2887  -16.1446 C   0  0  1  0  0  0  0  0  0  0  0  0
   15.8733   -6.0440  -15.3199 C   0  0  0  0  0  0  0  0  0  0  0  0
   15.3683   -6.6452  -13.6604 S   0  0  0  0  0  0  0  0  0  0  0  0
   17.3938   -7.8894  -15.5748 C   0  0  0  0  0  0  0  0  0  0  0  0
   17.3112   -8.6285  -14.5565 O   0  0  0  0  0  0  0  0  0  0  0  0
   25.2584  -11.8994  -14.9926 O   0  0  0  0  0  0  0  0  0  0  0  0
   24.0909  -11.2405  -15.3856 C   0  0  0  0  0  0  0  0  0  0  0  0
   22.8397  -11.7230  -15.0753 C   0  0  0  0  0  0  0  0  0  0  0  0
   21.6794  -11.0816  -15.4575 C   0  0  0  0  0  0  0  0  0  0  0  0
   21.7278   -9.9056  -16.1819 C   0  0  0  0  0  0  0  0  0  0  0  0
   20.4982   -9.2379  -16.5891 C   0  0  0  0  0  0  0  0  0  0  0  0
   19.8893   -8.3339  -15.5785 C   0  0  2  0  0  0  0  0  0  0  0  0
   18.6924   -7.6803  -16.1160 N   0  0  0  0  0  0  0  0  0  0  0  0
   20.8770   -7.3321  -15.1266 C   0  0  0  0  0  0  0  0  0  0  0  0
   21.6899   -7.5781  -14.0075 O   0  0  0  0  0  0  0  0  0  0  0  0
   22.9965   -9.4261  -16.4903 C   0  0  0  0  0  0  0  0  0  0  0  0
   24.1467  -10.0695  -16.1066 C   0  0  0  0  0  0  0  0  0  0  0  0
   21.0249   -6.2474  -15.7110 O   0  0  0  0  0  0  0  0  0  0  0  0
  2  1  1  6
  2  4  1  0
  3  2  1  0
  4  6  1  0
  4  5  2  0
  6  7  1  0
  7 10  1  0
  7  8  1  1
  8  9  1  0
 10 11  2  0
 12 13  1  0
 13 23  2  0
 14 13  1  0
 14 15  2  0
 15 16  1  0
 16 22  2  0
 16 17  1  0
 18 17  1  6
 18 20  1  0
 19 10  1  0
 19 18  1  0
 20 21  1  0
 23 22  1  0
 24 20  2  0
M  END
$$$$
