ACY.pdb
     RDKit          3D

 24 24  0  0  1  0  0  0  0  0999 V2000
   20.2192  -14.1465  -18.3995 C   0  0  0  0  0  0  0  0  0  0  0  0
   20.4986  -13.4269  -17.0936 C   0  0  2  0  0  0  0  0  0  0  0  0
   19.7762  -14.1051  -16.0278 N   0  0  0  0  0  0  0  0  0  0  0  0
   20.0871  -12.0002  -17.1923 C   0  0  0  0  0  0  0  0  0  0  0  0
   19.6048  -11.5505  -18.2434 O   0  0  0  0  0  0  0  0  0  0  0  0
   20.2480  -11.1473  -16.0735 N   0  0  0  0  0  0  0  0  0  0  0  0
   19.8074   -9.7906  -16.0225 C   0  0  1  0  0  0  0  0  0  0  0  0
   18.7008   -9.5883  -14.9989 C   0  0  0  0  0  0  0  0  0  0  0  0
   18.2645   -7.8067  -15.0741 S   0  0  0  0  0  0  0  0  0  0  0  0
   20.8874   -8.8391  -15.6621 C   0  0  0  0  0  0  0  0  0  0  0  0
   21.5385   -9.0123  -14.5963 O   0  0  0  0  0  0  0  0  0  0  0  0
   27.0850   -2.4345  -16.4438 O   0  0  0  0  0  0  0  0  0  0  0  0
   26.0632   -3.3603  -16.6687 C   0  0  0  0  0  0  0  0  0  0  0  0
   24.7422   -3.0660  -16.4183 C   0  0  0  0  0  0  0  0  0  0  0  0
   23.7242   -3.9715  -16.6363 C   0  0  0  0  0  0  0  0  0  0  0  0
   23.9956   -5.2358  -17.1243 C   0  0  0  0  0  0  0  0  0  0  0  0
   22.9162   -6.1898  -17.3444 C   0  0  0  0  0  0  0  0  0  0  0  0
   22.3587   -6.8272  -16.1229 C   0  0  2  0  0  0  0  0  0  0  0  0
   21.2441   -7.7173  -16.4604 N   0  0  0  0  0  0  0  0  0  0  0  0
   21.9323   -5.7946  -15.1559 C   0  0  0  0  0  0  0  0  0  0  0  0
   22.7790   -5.3983  -14.1072 O   0  0  0  0  0  0  0  0  0  0  0  0
   25.3332   -5.5235  -17.3743 C   0  0  0  0  0  0  0  0  0  0  0  0
   26.3408   -4.6176  -17.1552 C   0  0  0  0  0  0  0  0  0  0  0  0
   20.8227   -5.2438  -15.2315 O   0  0  0  0  0  0  0  0  0  0  0  0
  2  1  1  6
  2  4  1  0
  3  2  1  0
  4  6  1  0
  4  5  2  0
  6  7  1  0
  7 10  1  0
  7  8  1  1
  8  9  1  0
 10 11  2  0
 12 13  1  0
 13 23  2  0
 14 13  1  0
 14 15  2  0
 15 16  1  0
 16 22  2  0
 16 17  1  0
 18 17  1  6
 18 20  1  0
 19 10  1  0
 19 18  1  0
 20 21  1  0
 23 22  1  0
 24 20  2  0
M  END
$$$$
