ACY.pdb
     RDKit          3D

 24 24  0  0  1  0  0  0  0  0999 V2000
   25.7059  -22.5611  -20.1545 C   0  0  0  0  0  0  0  0  0  0  0  0
   25.3375  -21.1402  -20.5374 C   0  0  2  0  0  0  0  0  0  0  0  0
   26.3380  -20.6373  -21.4669 N   0  0  0  0  0  0  0  0  0  0  0  0
   25.2589  -20.2826  -19.3238 C   0  0  0  0  0  0  0  0  0  0  0  0
   26.2888  -19.8373  -18.7940 O   0  0  0  0  0  0  0  0  0  0  0  0
   23.9940  -19.9718  -18.7682 N   0  0  0  0  0  0  0  0  0  0  0  0
   23.7971  -19.1474  -17.6198 C   0  0  1  0  0  0  0  0  0  0  0  0
   22.4177  -18.5067  -17.6072 C   0  0  0  0  0  0  0  0  0  0  0  0
   22.4845  -17.1428  -18.8343 S   0  0  0  0  0  0  0  0  0  0  0  0
   23.9240  -19.8883  -16.3404 C   0  0  0  0  0  0  0  0  0  0  0  0
   23.3509  -21.0036  -16.2084 O   0  0  0  0  0  0  0  0  0  0  0  0
   25.8031  -21.5640   -7.7253 O   0  0  0  0  0  0  0  0  0  0  0  0
   25.7496  -21.0355   -9.0174 C   0  0  0  0  0  0  0  0  0  0  0  0
   26.6448  -21.4045   -9.9956 C   0  0  0  0  0  0  0  0  0  0  0  0
   26.6024  -20.8898  -11.2751 C   0  0  0  0  0  0  0  0  0  0  0  0
   25.6402  -19.9644  -11.6329 C   0  0  0  0  0  0  0  0  0  0  0  0
   25.6064  -19.4190  -12.9838 C   0  0  0  0  0  0  0  0  0  0  0  0
   24.6700  -20.0858  -13.9260 C   0  0  2  0  0  0  0  0  0  0  0  0
   24.6684  -19.4101  -15.2268 N   0  0  0  0  0  0  0  0  0  0  0  0
   23.3086  -20.1251  -13.3527 C   0  0  0  0  0  0  0  0  0  0  0  0
   22.8404  -21.2722  -12.6906 O   0  0  0  0  0  0  0  0  0  0  0  0
   24.7403  -19.5981  -10.6377 C   0  0  0  0  0  0  0  0  0  0  0  0
   24.7884  -20.1144   -9.3668 C   0  0  0  0  0  0  0  0  0  0  0  0
   22.5353  -19.1578  -13.4329 O   0  0  0  0  0  0  0  0  0  0  0  0
  2  1  1  1
  2  4  1  0
  3  2  1  0
  4  6  1  0
  4  5  2  0
  6  7  1  0
  7 10  1  0
  7  8  1  6
  8  9  1  0
 10 11  2  0
 12 13  1  0
 13 23  2  0
 14 13  1  0
 14 15  2  0
 15 16  1  0
 16 22  2  0
 16 17  1  0
 18 17  1  1
 18 20  1  0
 19 10  1  0
 19 18  1  0
 20 21  1  0
 23 22  1  0
 24 20  2  0
M  END
$$$$
