ACY.pdb
     RDKit          3D

 24 24  0  0  1  0  0  0  0  0999 V2000
   18.4622  -26.2215   -1.5306 C   0  0  0  0  0  0  0  0  0  0  0  0
   18.7200  -27.2320   -0.4289 C   0  0  2  0  0  0  0  0  0  0  0  0
   18.0072  -28.4592   -0.7508 N   0  0  0  0  0  0  0  0  0  0  0  0
   18.2786  -26.6879    0.8839 C   0  0  0  0  0  0  0  0  0  0  0  0
   17.0844  -26.4223    1.0913 O   0  0  0  0  0  0  0  0  0  0  0  0
   19.2329  -26.4715    1.9075 N   0  0  0  0  0  0  0  0  0  0  0  0
   18.9184  -26.0048    3.2191 C   0  0  1  0  0  0  0  0  0  0  0  0
   20.0175  -26.3294    4.2191 C   0  0  0  0  0  0  0  0  0  0  0  0
   20.1907  -28.1570    4.2017 S   0  0  0  0  0  0  0  0  0  0  0  0
   18.7170  -24.5361    3.2836 C   0  0  0  0  0  0  0  0  0  0  0  0
   19.5567  -23.7690    2.7394 O   0  0  0  0  0  0  0  0  0  0  0  0
   14.6891  -16.6107    3.7635 O   0  0  0  0  0  0  0  0  0  0  0  0
   15.0052  -17.9710    3.7275 C   0  0  0  0  0  0  0  0  0  0  0  0
   15.1504  -18.7183    4.8743 C   0  0  0  0  0  0  0  0  0  0  0  0
   15.4623  -20.0621    4.8518 C   0  0  0  0  0  0  0  0  0  0  0  0
   15.6456  -20.7251    3.6530 C   0  0  0  0  0  0  0  0  0  0  0  0
   15.9828  -22.1427    3.6371 C   0  0  0  0  0  0  0  0  0  0  0  0
   17.3998  -22.4727    3.9411 C   0  0  2  0  0  0  0  0  0  0  0  0
   17.6112  -23.9232    3.9352 N   0  0  0  0  0  0  0  0  0  0  0  0
   17.7939  -21.8895    5.2403 C   0  0  0  0  0  0  0  0  0  0  0  0
   18.1932  -20.5458    5.3336 O   0  0  0  0  0  0  0  0  0  0  0  0
   15.4966  -19.9615    2.5000 C   0  0  0  0  0  0  0  0  0  0  0  0
   15.1860  -18.6249    2.5299 C   0  0  0  0  0  0  0  0  0  0  0  0
   17.7875  -22.5562    6.2871 O   0  0  0  0  0  0  0  0  0  0  0  0
  2  1  1  6
  2  4  1  0
  3  2  1  0
  4  6  1  0
  4  5  2  0
  6  7  1  0
  7 10  1  0
  7  8  1  1
  8  9  1  0
 10 11  2  0
 12 13  1  0
 13 23  2  0
 14 13  1  0
 14 15  2  0
 15 16  1  0
 16 22  2  0
 16 17  1  0
 18 17  1  1
 18 20  1  0
 19 10  1  0
 19 18  1  0
 20 21  1  0
 23 22  1  0
 24 20  2  0
M  END
$$$$
