ACY.pdb
     RDKit          3D

 24 24  0  0  1  0  0  0  0  0999 V2000
   21.6367  -12.5358  -18.6762 C   0  0  0  0  0  0  0  0  0  0  0  0
   20.6894  -11.4934  -18.1131 C   0  0  2  0  0  0  0  0  0  0  0  0
   19.7478  -11.1128  -19.1554 N   0  0  0  0  0  0  0  0  0  0  0  0
   21.4521  -10.3119  -17.6267 C   0  0  0  0  0  0  0  0  0  0  0  0
   22.2910  -10.4279  -16.7198 O   0  0  0  0  0  0  0  0  0  0  0  0
   21.2174   -9.0414  -18.2063 N   0  0  0  0  0  0  0  0  0  0  0  0
   21.8668   -7.8366  -17.8011 C   0  0  1  0  0  0  0  0  0  0  0  0
   21.8871   -6.7980  -18.9120 C   0  0  0  0  0  0  0  0  0  0  0  0
   20.1298   -6.4837  -19.3402 S   0  0  0  0  0  0  0  0  0  0  0  0
   21.2180   -7.1872  -16.6353 C   0  0  0  0  0  0  0  0  0  0  0  0
   19.9722   -7.2981  -16.4757 O   0  0  0  0  0  0  0  0  0  0  0  0
   18.5754   -5.0215   -8.6724 O   0  0  0  0  0  0  0  0  0  0  0  0
   19.2240   -5.4655   -9.8274 C   0  0  0  0  0  0  0  0  0  0  0  0
   18.6234   -5.4227  -11.0652 C   0  0  0  0  0  0  0  0  0  0  0  0
   19.2533   -5.8580  -12.2130 C   0  0  0  0  0  0  0  0  0  0  0  0
   20.5381   -6.3650  -12.1650 C   0  0  0  0  0  0  0  0  0  0  0  0
   21.1942   -6.8304  -13.3801 C   0  0  0  0  0  0  0  0  0  0  0  0
   21.2782   -5.8426  -14.4875 C   0  0  2  0  0  0  0  0  0  0  0  0
   21.9277   -6.4296  -15.6631 N   0  0  0  0  0  0  0  0  0  0  0  0
   21.9969   -4.6316  -14.0398 C   0  0  0  0  0  0  0  0  0  0  0  0
   23.3901   -4.5269  -14.1872 O   0  0  0  0  0  0  0  0  0  0  0  0
   21.1365   -6.4040  -10.9099 C   0  0  0  0  0  0  0  0  0  0  0  0
   20.5038   -5.9690   -9.7722 C   0  0  0  0  0  0  0  0  0  0  0  0
   21.4048   -3.6716  -13.5223 O   0  0  0  0  0  0  0  0  0  0  0  0
  2  1  1  6
  2  4  1  0
  3  2  1  0
  4  6  1  0
  4  5  2  0
  6  7  1  0
  7 10  1  0
  7  8  1  6
  8  9  1  0
 10 11  2  0
 12 13  1  0
 13 23  2  0
 14 13  1  0
 14 15  2  0
 15 16  1  0
 16 22  2  0
 16 17  1  0
 18 17  1  1
 18 20  1  0
 19 10  1  0
 19 18  1  0
 20 21  1  0
 23 22  1  0
 24 20  2  0
M  END
$$$$
