ACY.pdb
     RDKit          3D

 24 24  0  0  1  0  0  0  0  0999 V2000
   24.1772  -18.2313  -16.2027 C   0  0  0  0  0  0  0  0  0  0  0  0
   25.3598  -19.0565  -16.6736 C   0  0  2  0  0  0  0  0  0  0  0  0
   24.9629  -19.7980  -17.8612 N   0  0  0  0  0  0  0  0  0  0  0  0
   25.8081  -19.9782  -15.5949 C   0  0  0  0  0  0  0  0  0  0  0  0
   25.1467  -20.9881  -15.3080 O   0  0  0  0  0  0  0  0  0  0  0  0
   27.0033  -19.6990  -14.8886 N   0  0  0  0  0  0  0  0  0  0  0  0
   27.4647  -20.4381  -13.7582 C   0  0  1  0  0  0  0  0  0  0  0  0
   28.8979  -20.0848  -13.3917 C   0  0  0  0  0  0  0  0  0  0  0  0
   29.3753  -21.2436  -12.0503 S   0  0  0  0  0  0  0  0  0  0  0  0
   26.6532  -20.2057  -12.5378 C   0  0  0  0  0  0  0  0  0  0  0  0
   26.3359  -19.0283  -12.2171 O   0  0  0  0  0  0  0  0  0  0  0  0
   29.1010  -20.5936   -5.1402 O   0  0  0  0  0  0  0  0  0  0  0  0
   28.3233  -20.3928   -6.2833 C   0  0  0  0  0  0  0  0  0  0  0  0
   27.2423  -19.5408   -6.2915 C   0  0  0  0  0  0  0  0  0  0  0  0
   26.4667  -19.3340   -7.4137 C   0  0  0  0  0  0  0  0  0  0  0  0
   26.7495  -19.9875   -8.5983 C   0  0  0  0  0  0  0  0  0  0  0  0
   25.9212  -19.7704   -9.7774 C   0  0  0  0  0  0  0  0  0  0  0  0
   25.4359  -20.9981  -10.4605 C   0  0  2  0  0  0  0  0  0  0  0  0
   26.1993  -21.2505  -11.6861 N   0  0  0  0  0  0  0  0  0  0  0  0
   23.9924  -20.8835  -10.7548 C   0  0  0  0  0  0  0  0  0  0  0  0
   23.0392  -20.9837   -9.7277 O   0  0  0  0  0  0  0  0  0  0  0  0
   27.8436  -20.8461   -8.5800 C   0  0  0  0  0  0  0  0  0  0  0  0
   28.6109  -21.0468   -7.4598 C   0  0  0  0  0  0  0  0  0  0  0  0
   23.5711  -20.6965  -11.9071 O   0  0  0  0  0  0  0  0  0  0  0  0
  2  1  1  1
  2  4  1  0
  3  2  1  0
  4  6  1  0
  4  5  2  0
  6  7  1  0
  7 10  1  0
  7  8  1  1
  8  9  1  0
 10 11  2  0
 12 13  1  0
 13 23  2  0
 14 13  1  0
 14 15  2  0
 15 16  1  0
 16 22  2  0
 16 17  1  0
 18 17  1  6
 18 20  1  0
 19 10  1  0
 19 18  1  0
 20 21  1  0
 23 22  1  0
 24 20  2  0
M  END
$$$$
