ACY.pdb
     RDKit          3D

 24 24  0  0  1  0  0  0  0  0999 V2000
   28.6936  -26.3726  -17.4307 C   0  0  0  0  0  0  0  0  0  0  0  0
   29.7738  -25.3653  -17.7768 C   0  0  2  0  0  0  0  0  0  0  0  0
   31.0688  -25.9486  -17.4601 N   0  0  0  0  0  0  0  0  0  0  0  0
   29.5603  -24.1003  -17.0227 C   0  0  0  0  0  0  0  0  0  0  0  0
   30.1006  -23.9202  -15.9203 O   0  0  0  0  0  0  0  0  0  0  0  0
   28.7315  -23.0913  -17.5705 N   0  0  0  0  0  0  0  0  0  0  0  0
   28.4422  -21.8485  -16.9309 C   0  0  1  0  0  0  0  0  0  0  0  0
   27.9904  -20.7878  -17.9230 C   0  0  0  0  0  0  0  0  0  0  0  0
   26.5545  -21.5081  -18.8115 S   0  0  0  0  0  0  0  0  0  0  0  0
   27.3674  -21.9518  -15.9131 C   0  0  0  0  0  0  0  0  0  0  0  0
   26.3917  -22.7243  -16.1156 O   0  0  0  0  0  0  0  0  0  0  0  0
   22.8156  -20.7696   -8.2674 O   0  0  0  0  0  0  0  0  0  0  0  0
   23.7345  -20.6960   -9.3171 C   0  0  0  0  0  0  0  0  0  0  0  0
   25.0354  -21.1242   -9.1810 C   0  0  0  0  0  0  0  0  0  0  0  0
   25.9522  -21.0568  -10.2099 C   0  0  0  0  0  0  0  0  0  0  0  0
   25.5939  -20.5461  -11.4432 C   0  0  0  0  0  0  0  0  0  0  0  0
   26.5696  -20.4705  -12.5229 C   0  0  0  0  0  0  0  0  0  0  0  0
   26.2838  -21.3156  -13.7118 C   0  0  2  0  0  0  0  0  0  0  0  0
   27.3669  -21.2182  -14.6946 N   0  0  0  0  0  0  0  0  0  0  0  0
   24.9909  -20.9303  -14.3147 C   0  0  0  0  0  0  0  0  0  0  0  0
   23.8426  -21.7148  -14.1154 O   0  0  0  0  0  0  0  0  0  0  0  0
   24.2773  -20.1162  -11.5709 C   0  0  0  0  0  0  0  0  0  0  0  0
   23.3706  -20.1864  -10.5428 C   0  0  0  0  0  0  0  0  0  0  0  0
   24.8707  -19.9110  -15.0124 O   0  0  0  0  0  0  0  0  0  0  0  0
  2  1  1  1
  2  4  1  0
  3  2  1  0
  4  6  1  0
  4  5  2  0
  6  7  1  0
  7 10  1  0
  7  8  1  6
  8  9  1  0
 10 11  2  0
 12 13  1  0
 13 23  2  0
 14 13  1  0
 14 15  2  0
 15 16  1  0
 16 22  2  0
 16 17  1  0
 18 17  1  1
 18 20  1  0
 19 10  1  0
 19 18  1  0
 20 21  1  0
 23 22  1  0
 24 20  2  0
M  END
$$$$
