ACY.pdb
     RDKit          3D

 24 24  0  0  1  0  0  0  0  0999 V2000
   25.1475  -14.1703  -18.6679 C   0  0  0  0  0  0  0  0  0  0  0  0
   26.0651  -14.1327  -17.4604 C   0  0  2  0  0  0  0  0  0  0  0  0
   25.8826  -15.3614  -16.7023 N   0  0  0  0  0  0  0  0  0  0  0  0
   25.7664  -12.9400  -16.6223 C   0  0  0  0  0  0  0  0  0  0  0  0
   24.7729  -12.9197  -15.8792 O   0  0  0  0  0  0  0  0  0  0  0  0
   26.6263  -11.8161  -16.6740 N   0  0  0  0  0  0  0  0  0  0  0  0
   26.4121  -10.6018  -15.9552 C   0  0  1  0  0  0  0  0  0  0  0  0
   27.6883   -9.7853  -15.8214 C   0  0  0  0  0  0  0  0  0  0  0  0
   28.3187   -9.5521  -17.5298 S   0  0  0  0  0  0  0  0  0  0  0  0
   25.4134   -9.7117  -16.5971 C   0  0  0  0  0  0  0  0  0  0  0  0
   25.3763   -9.6236  -17.8543 O   0  0  0  0  0  0  0  0  0  0  0  0
   18.1467   -6.2790  -19.7449 O   0  0  0  0  0  0  0  0  0  0  0  0
   19.2223   -6.9414  -19.1482 C   0  0  0  0  0  0  0  0  0  0  0  0
   20.5270   -6.6844  -19.5035 C   0  0  0  0  0  0  0  0  0  0  0  0
   21.5976   -7.3318  -18.9217 C   0  0  0  0  0  0  0  0  0  0  0  0
   21.3990   -8.2835  -17.9394 C   0  0  0  0  0  0  0  0  0  0  0  0
   22.5341   -8.9690  -17.3350 C   0  0  0  0  0  0  0  0  0  0  0  0
   23.4424   -8.1196  -16.5209 C   0  0  2  0  0  0  0  0  0  0  0  0
   24.4726   -8.9328  -15.8682 N   0  0  0  0  0  0  0  0  0  0  0  0
   22.6684   -7.3522  -15.5233 C   0  0  0  0  0  0  0  0  0  0  0  0
   22.5660   -7.7981  -14.1950 O   0  0  0  0  0  0  0  0  0  0  0  0
   20.0773   -8.5360  -17.5872 C   0  0  0  0  0  0  0  0  0  0  0  0
   19.0171   -7.8879  -18.1702 C   0  0  0  0  0  0  0  0  0  0  0  0
   22.0855   -6.2965  -15.8166 O   0  0  0  0  0  0  0  0  0  0  0  0
  2  1  1  6
  2  4  1  0
  3  2  1  0
  4  6  1  0
  4  5  2  0
  6  7  1  0
  7 10  1  0
  7  8  1  6
  8  9  1  0
 10 11  2  0
 12 13  1  0
 13 23  2  0
 14 13  1  0
 14 15  2  0
 15 16  1  0
 16 22  2  0
 16 17  1  0
 18 17  1  1
 18 20  1  0
 19 10  1  0
 19 18  1  0
 20 21  1  0
 23 22  1  0
 24 20  2  0
M  END
$$$$
