ACY.pdb
     RDKit          3D

 24 24  0  0  1  0  0  0  0  0999 V2000
   19.9764  -12.7466  -20.5344 C   0  0  0  0  0  0  0  0  0  0  0  0
   20.8492  -11.5501  -20.2061 C   0  0  2  0  0  0  0  0  0  0  0  0
   22.1797  -11.7859  -20.7463 N   0  0  0  0  0  0  0  0  0  0  0  0
   20.9017  -11.3381  -18.7341 C   0  0  0  0  0  0  0  0  0  0  0  0
   19.8683  -11.0973  -18.0907 O   0  0  0  0  0  0  0  0  0  0  0  0
   22.1453  -11.4124  -18.0610 N   0  0  0  0  0  0  0  0  0  0  0  0
   22.3345  -11.1114  -16.6787 C   0  0  1  0  0  0  0  0  0  0  0  0
   23.4110  -11.9810  -16.0475 C   0  0  0  0  0  0  0  0  0  0  0  0
   24.0234  -11.0467  -14.5907 S   0  0  0  0  0  0  0  0  0  0  0  0
   22.7409   -9.7047  -16.4378 C   0  0  0  0  0  0  0  0  0  0  0  0
   23.6572   -9.1939  -17.1373 O   0  0  0  0  0  0  0  0  0  0  0  0
   21.9176   -1.1040  -16.7267 O   0  0  0  0  0  0  0  0  0  0  0  0
   21.8842   -2.5004  -16.7015 C   0  0  0  0  0  0  0  0  0  0  0  0
   23.0193   -3.2616  -16.8643 C   0  0  0  0  0  0  0  0  0  0  0  0
   22.9994   -4.6410  -16.8413 C   0  0  0  0  0  0  0  0  0  0  0  0
   21.8152   -5.3276  -16.6504 C   0  0  0  0  0  0  0  0  0  0  0  0
   21.8004   -6.7846  -16.6353 C   0  0  0  0  0  0  0  0  0  0  0  0
   22.3430   -7.4232  -15.4077 C   0  0  2  0  0  0  0  0  0  0  0  0
   22.1493   -8.8756  -15.4450 N   0  0  0  0  0  0  0  0  0  0  0  0
   21.7123   -6.8396  -14.2056 C   0  0  0  0  0  0  0  0  0  0  0  0
   20.6019   -7.4564  -13.6052 O   0  0  0  0  0  0  0  0  0  0  0  0
   20.6739   -4.5496  -16.4866 C   0  0  0  0  0  0  0  0  0  0  0  0
   20.7012   -3.1775  -16.5105 C   0  0  0  0  0  0  0  0  0  0  0  0
   22.1338   -5.7945  -13.6859 O   0  0  0  0  0  0  0  0  0  0  0  0
  2  1  1  1
  2  4  1  0
  3  2  1  0
  4  6  1  0
  4  5  2  0
  6  7  1  0
  7 10  1  0
  7  8  1  6
  8  9  1  0
 10 11  2  0
 12 13  1  0
 13 23  2  0
 14 13  1  0
 14 15  2  0
 15 16  1  0
 16 22  2  0
 16 17  1  0
 18 17  1  6
 18 20  1  0
 19 10  1  0
 19 18  1  0
 20 21  1  0
 23 22  1  0
 24 20  2  0
M  END
$$$$
