ACY.pdb
     RDKit          3D

 24 24  0  0  1  0  0  0  0  0999 V2000
   21.0582  -17.1976  -19.2461 C   0  0  0  0  0  0  0  0  0  0  0  0
   22.0517  -16.6680  -20.2627 C   0  0  2  0  0  0  0  0  0  0  0  0
   22.8341  -17.7851  -20.7704 N   0  0  0  0  0  0  0  0  0  0  0  0
   22.9305  -15.6417  -19.6392 C   0  0  0  0  0  0  0  0  0  0  0  0
   24.1211  -15.8906  -19.3939 O   0  0  0  0  0  0  0  0  0  0  0  0
   22.4011  -14.3670  -19.3229 N   0  0  0  0  0  0  0  0  0  0  0  0
   23.1839  -13.2479  -18.9080 C   0  0  1  0  0  0  0  0  0  0  0  0
   23.9990  -12.6659  -20.0526 C   0  0  0  0  0  0  0  0  0  0  0  0
   22.8994  -12.7001  -21.5224 S   0  0  0  0  0  0  0  0  0  0  0  0
   22.3677  -12.1323  -18.3683 C   0  0  0  0  0  0  0  0  0  0  0  0
   21.2814  -11.8278  -18.9314 O   0  0  0  0  0  0  0  0  0  0  0  0
   18.2984   -6.8638  -12.5249 O   0  0  0  0  0  0  0  0  0  0  0  0
   19.1448   -7.7633  -13.1779 C   0  0  0  0  0  0  0  0  0  0  0  0
   20.5045   -7.7736  -12.9646 C   0  0  0  0  0  0  0  0  0  0  0  0
   21.3508   -8.6567  -13.6032 C   0  0  0  0  0  0  0  0  0  0  0  0
   20.8573   -9.5846  -14.5007 C   0  0  0  0  0  0  0  0  0  0  0  0
   21.7580  -10.5089  -15.1776 C   0  0  0  0  0  0  0  0  0  0  0  0
   21.8738  -10.3363  -16.6493 C   0  0  2  0  0  0  0  0  0  0  0  0
   22.7406  -11.3662  -17.2295 N   0  0  0  0  0  0  0  0  0  0  0  0
   22.3782   -8.9844  -16.9680 C   0  0  0  0  0  0  0  0  0  0  0  0
   21.4892   -7.9197  -17.1912 O   0  0  0  0  0  0  0  0  0  0  0  0
   19.4823   -9.5663  -14.7093 C   0  0  0  0  0  0  0  0  0  0  0  0
   18.6463   -8.6849  -14.0703 C   0  0  0  0  0  0  0  0  0  0  0  0
   23.5921   -8.7400  -17.0500 O   0  0  0  0  0  0  0  0  0  0  0  0
  2  1  1  1
  2  4  1  0
  3  2  1  0
  4  6  1  0
  4  5  2  0
  6  7  1  0
  7 10  1  0
  7  8  1  6
  8  9  1  0
 10 11  2  0
 12 13  1  0
 13 23  2  0
 14 13  1  0
 14 15  2  0
 15 16  1  0
 16 22  2  0
 16 17  1  0
 18 17  1  1
 18 20  1  0
 19 10  1  0
 19 18  1  0
 20 21  1  0
 23 22  1  0
 24 20  2  0
M  END
$$$$
