ACY.pdb
     RDKit          3D

 24 24  0  0  1  0  0  0  0  0999 V2000
   30.4283  -24.3417  -19.2885 C   0  0  0  0  0  0  0  0  0  0  0  0
   29.0771  -24.1405  -18.6291 C   0  0  2  0  0  0  0  0  0  0  0  0
   28.0805  -23.9357  -19.6696 N   0  0  0  0  0  0  0  0  0  0  0  0
   29.1239  -22.9791  -17.7001 C   0  0  0  0  0  0  0  0  0  0  0  0
   29.8903  -22.9780  -16.7242 O   0  0  0  0  0  0  0  0  0  0  0  0
   28.2844  -21.8629  -17.9335 N   0  0  0  0  0  0  0  0  0  0  0  0
   28.2370  -20.7010  -17.1058 C   0  0  1  0  0  0  0  0  0  0  0  0
   27.7221  -19.4843  -17.8592 C   0  0  0  0  0  0  0  0  0  0  0  0
   29.0928  -18.9564  -18.9605 S   0  0  0  0  0  0  0  0  0  0  0  0
   27.3558  -20.8623  -15.9228 C   0  0  0  0  0  0  0  0  0  0  0  0
   26.2440  -21.4432  -16.0505 O   0  0  0  0  0  0  0  0  0  0  0  0
   24.4733  -20.7676   -7.4384 O   0  0  0  0  0  0  0  0  0  0  0  0
   25.2156  -20.6146   -8.6120 C   0  0  0  0  0  0  0  0  0  0  0  0
   25.6074  -21.6914   -9.3745 C   0  0  0  0  0  0  0  0  0  0  0  0
   26.3405  -21.5534  -10.5352 C   0  0  0  0  0  0  0  0  0  0  0  0
   26.7186  -20.3035  -10.9878 C   0  0  0  0  0  0  0  0  0  0  0  0
   27.4997  -20.1658  -12.2103 C   0  0  0  0  0  0  0  0  0  0  0  0
   26.8113  -20.5673  -13.4649 C   0  0  2  0  0  0  0  0  0  0  0  0
   27.6925  -20.3927  -14.6232 N   0  0  0  0  0  0  0  0  0  0  0  0
   25.5628  -19.7951  -13.6335 C   0  0  0  0  0  0  0  0  0  0  0  0
   24.3284  -20.3257  -13.2231 O   0  0  0  0  0  0  0  0  0  0  0  0
   26.3178  -19.2218  -10.2106 C   0  0  0  0  0  0  0  0  0  0  0  0
   25.5884  -19.3666   -9.0569 C   0  0  0  0  0  0  0  0  0  0  0  0
   25.5563  -18.6613  -14.1381 O   0  0  0  0  0  0  0  0  0  0  0  0
  2  1  1  6
  2  4  1  0
  3  2  1  0
  4  6  1  0
  4  5  2  0
  6  7  1  0
  7 10  1  0
  7  8  1  6
  8  9  1  0
 10 11  2  0
 12 13  1  0
 13 23  2  0
 14 13  1  0
 14 15  2  0
 15 16  1  0
 16 22  2  0
 16 17  1  0
 18 17  1  1
 18 20  1  0
 19 10  1  0
 19 18  1  0
 20 21  1  0
 23 22  1  0
 24 20  2  0
M  END
$$$$
