LCH.pdb
     RDKit          3D

 25 25  0  0  1  0  0  0  0  0999 V2000
    8.8371  -14.4422   18.4573 C   0  0  0  0  0  0  0  0  0  0  0  0
    7.7778  -13.8553   19.3910 C   0  0  2  0  0  0  0  0  0  0  0  0
    7.5569  -12.4294   18.9584 C   0  0  0  0  0  0  0  0  0  0  0  0
    8.3495  -13.8220   20.7962 C   0  0  0  0  0  0  0  0  0  0  0  0
    8.5205  -15.2269   21.3602 C   0  0  2  0  0  0  0  0  0  0  0  0
    7.2125  -15.8576   21.3000 N   0  0  0  0  0  0  0  0  0  0  0  0
    8.9139  -15.0717   22.7809 C   0  0  0  0  0  0  0  0  0  0  0  0
   10.0389  -14.5877   23.0546 O   0  0  0  0  0  0  0  0  0  0  0  0
    8.0780  -15.4450   23.8714 N   0  0  0  0  0  0  0  0  0  0  0  0
    8.5602  -15.4635   25.2220 C   0  0  1  0  0  0  0  0  0  0  0  0
    7.5660  -14.7488   26.1351 C   0  0  0  0  0  0  0  0  0  0  0  0
    5.8896  -15.2612   25.6337 S   0  0  0  0  0  0  0  0  0  0  0  0
    8.7430  -16.8468   25.7426 C   0  0  0  0  0  0  0  0  0  0  0  0
    7.8750  -17.7281   25.6127 O   0  0  0  0  0  0  0  0  0  0  0  0
    9.9681  -17.1023   26.3974 N   0  0  0  0  0  0  0  0  0  0  0  0
   10.3308  -18.4736   26.8591 C   0  0  1  0  0  0  0  0  0  0  0  0
   11.6073  -18.7916   26.1891 C   0  0  0  0  0  0  0  0  0  0  0  0
   11.6112  -18.9422   24.7409 C   0  0  0  0  0  0  0  0  0  0  0  0
   10.6020  -19.2167   23.8765 C   0  0  0  0  0  0  0  0  0  0  0  0
   11.1027  -19.1895   22.5983 N   0  0  0  0  0  0  0  0  0  0  0  0
   12.3942  -18.9003   22.7140 C   0  0  0  0  0  0  0  0  0  0  0  0
   12.7190  -18.7481   23.9877 N   0  0  0  0  0  0  0  0  0  0  0  0
   10.3845  -18.4353   28.3466 C   0  0  0  0  0  0  0  0  0  0  0  0
   10.2471  -17.1894   28.9791 O   0  0  0  0  0  0  0  0  0  0  0  0
   10.5405  -19.4287   29.0628 O   0  0  0  0  0  0  0  0  0  0  0  0
  2  1  1  6
  2  3  1  0
  2  4  1  0
  5  4  1  0
  5  6  1  1
  5  7  1  0
  7  8  2  0
  9  7  1  0
  9 10  1  0
 10 13  1  0
 10 11  1  1
 12 11  1  0
 13 15  1  0
 13 14  2  0
 15 16  1  0
 16 23  1  0
 17 18  1  0
 16 17  1  6
 18 22  1  0
 18 19  2  0
 19 20  1  0
 21 20  1  0
 22 21  2  0
 23 25  2  0
 23 24  1  0
M  END
$$$$
