LCH.pdb
     RDKit          3D

 25 25  0  0  1  0  0  0  0  0999 V2000
    8.0372  -16.5358   18.8093 C   0  0  0  0  0  0  0  0  0  0  0  0
    7.5322  -15.6573   19.9546 C   0  0  2  0  0  0  0  0  0  0  0  0
    6.0601  -15.4398   19.7209 C   0  0  0  0  0  0  0  0  0  0  0  0
    8.2145  -14.3059   19.8527 C   0  0  0  0  0  0  0  0  0  0  0  0
    7.5627  -13.2831   20.7748 C   0  0  2  0  0  0  0  0  0  0  0  0
    7.9486  -11.9735   20.2765 N   0  0  0  0  0  0  0  0  0  0  0  0
    8.1567  -13.4799   22.1186 C   0  0  0  0  0  0  0  0  0  0  0  0
    8.9912  -12.6460   22.5465 O   0  0  0  0  0  0  0  0  0  0  0  0
    7.8317  -14.5764   22.9667 N   0  0  0  0  0  0  0  0  0  0  0  0
    8.3701  -14.6936   24.2909 C   0  0  1  0  0  0  0  0  0  0  0  0
    7.9364  -13.4951   25.1325 C   0  0  0  0  0  0  0  0  0  0  0  0
    6.1356  -13.6223   25.3872 S   0  0  0  0  0  0  0  0  0  0  0  0
    7.9098  -15.9279   24.9856 C   0  0  0  0  0  0  0  0  0  0  0  0
    6.8977  -16.5562   24.6278 O   0  0  0  0  0  0  0  0  0  0  0  0
    8.6945  -16.3470   26.0826 N   0  0  0  0  0  0  0  0  0  0  0  0
    9.2785  -17.7184   26.1409 C   0  0  1  0  0  0  0  0  0  0  0  0
   10.1983  -17.8057   24.9895 C   0  0  0  0  0  0  0  0  0  0  0  0
    9.6839  -18.3220   23.7291 C   0  0  0  0  0  0  0  0  0  0  0  0
    8.4550  -18.7946   23.4014 C   0  0  0  0  0  0  0  0  0  0  0  0
    8.4483  -19.1022   22.0633 N   0  0  0  0  0  0  0  0  0  0  0  0
    9.6632  -18.8107   21.6116 C   0  0  0  0  0  0  0  0  0  0  0  0
   10.4181  -18.3422   22.5921 N   0  0  0  0  0  0  0  0  0  0  0  0
    9.9162  -17.8666   27.4783 C   0  0  0  0  0  0  0  0  0  0  0  0
    9.9001  -19.1356   28.0788 O   0  0  0  0  0  0  0  0  0  0  0  0
   10.4610  -16.9463   28.0949 O   0  0  0  0  0  0  0  0  0  0  0  0
  2  1  1  6
  2  3  1  0
  2  4  1  0
  5  4  1  0
  5  6  1  6
  5  7  1  0
  7  8  2  0
  9  7  1  0
  9 10  1  0
 10 13  1  0
 10 11  1  1
 12 11  1  0
 13 15  1  0
 13 14  2  0
 15 16  1  0
 16 23  1  0
 17 18  1  0
 16 17  1  6
 18 22  1  0
 18 19  2  0
 19 20  1  0
 21 20  1  0
 22 21  2  0
 23 25  2  0
 23 24  1  0
M  END
$$$$
