LCH.pdb
     RDKit          3D

 25 25  0  0  1  0  0  0  0  0999 V2000
    7.4847  -11.8298   19.8003 C   0  0  0  0  0  0  0  0  0  0  0  0
    8.1609  -13.1351   20.2215 C   0  0  2  0  0  0  0  0  0  0  0  0
    9.1286  -13.4983   19.1256 C   0  0  0  0  0  0  0  0  0  0  0  0
    7.1034  -14.2220   20.2745 C   0  0  0  0  0  0  0  0  0  0  0  0
    7.6690  -15.5212   20.8341 C   0  0  2  0  0  0  0  0  0  0  0  0
    6.6345  -16.5279   20.6655 N   0  0  0  0  0  0  0  0  0  0  0  0
    7.8928  -15.3005   22.2828 C   0  0  0  0  0  0  0  0  0  0  0  0
    7.4630  -14.2482   22.8146 O   0  0  0  0  0  0  0  0  0  0  0  0
    8.5775  -16.2260   23.1205 N   0  0  0  0  0  0  0  0  0  0  0  0
    9.0381  -15.8637   24.4295 C   0  0  1  0  0  0  0  0  0  0  0  0
    7.8554  -15.4220   25.2892 C   0  0  0  0  0  0  0  0  0  0  0  0
    6.5961  -16.7383   25.2134 S   0  0  0  0  0  0  0  0  0  0  0  0
    9.7123  -16.9927   25.1288 C   0  0  0  0  0  0  0  0  0  0  0  0
    9.3409  -18.1729   25.0012 O   0  0  0  0  0  0  0  0  0  0  0  0
   10.8059  -16.6435   25.9514 N   0  0  0  0  0  0  0  0  0  0  0  0
   11.8687  -17.6331   26.2922 C   0  0  1  0  0  0  0  0  0  0  0  0
   13.1485  -16.9412   26.0414 C   0  0  0  0  0  0  0  0  0  0  0  0
   13.5937  -16.7853   24.6640 C   0  0  0  0  0  0  0  0  0  0  0  0
   13.0335  -17.2003   23.5000 C   0  0  0  0  0  0  0  0  0  0  0  0
   13.8062  -16.7490   22.4586 N   0  0  0  0  0  0  0  0  0  0  0  0
   14.8096  -16.0742   23.0089 C   0  0  0  0  0  0  0  0  0  0  0  0
   14.7013  -16.0835   24.3276 N   0  0  0  0  0  0  0  0  0  0  0  0
   11.6386  -18.0556   27.7014 C   0  0  0  0  0  0  0  0  0  0  0  0
   12.4005  -19.1233   28.2019 O   0  0  0  0  0  0  0  0  0  0  0  0
   10.8216  -17.5272   28.4613 O   0  0  0  0  0  0  0  0  0  0  0  0
  2  1  1  6
  2  3  1  0
  2  4  1  0
  5  4  1  0
  5  6  1  1
  5  7  1  0
  7  8  2  0
  9  7  1  0
  9 10  1  0
 10 13  1  0
 10 11  1  1
 12 11  1  0
 13 15  1  0
 13 14  2  0
 15 16  1  0
 16 23  1  0
 17 18  1  0
 16 17  1  1
 18 22  1  0
 18 19  2  0
 19 20  1  0
 21 20  1  0
 22 21  2  0
 23 25  2  0
 23 24  1  0
M  END
$$$$
