LCH.pdb
     RDKit          3D

 25 25  0  0  1  0  0  0  0  0999 V2000
    7.1988  -12.8381   19.7981 C   0  0  0  0  0  0  0  0  0  0  0  0
    7.5342  -14.3280   19.8783 C   0  0  2  0  0  0  0  0  0  0  0  0
    6.3014  -15.0765   19.4434 C   0  0  0  0  0  0  0  0  0  0  0  0
    7.7916  -14.6792   21.3318 C   0  0  0  0  0  0  0  0  0  0  0  0
    8.9054  -13.8232   21.9217 C   0  0  2  0  0  0  0  0  0  0  0  0
   10.1076  -14.1325   21.1658 N   0  0  0  0  0  0  0  0  0  0  0  0
    9.0908  -14.2700   23.3228 C   0  0  0  0  0  0  0  0  0  0  0  0
   10.0593  -15.0169   23.6035 O   0  0  0  0  0  0  0  0  0  0  0  0
    8.2214  -13.8961   24.3867 N   0  0  0  0  0  0  0  0  0  0  0  0
    8.4259  -14.3592   25.7286 C   0  0  1  0  0  0  0  0  0  0  0  0
    7.2788  -13.8853   26.6188 C   0  0  0  0  0  0  0  0  0  0  0  0
    6.9206  -12.1519   26.1815 S   0  0  0  0  0  0  0  0  0  0  0  0
    8.4856  -15.8447   25.8156 C   0  0  0  0  0  0  0  0  0  0  0  0
    7.5488  -16.5726   25.4416 O   0  0  0  0  0  0  0  0  0  0  0  0
    9.6761  -16.3837   26.3513 N   0  0  0  0  0  0  0  0  0  0  0  0
    9.8073  -17.8409   26.6415 C   0  0  1  0  0  0  0  0  0  0  0  0
   11.0592  -18.2640   25.9834 C   0  0  0  0  0  0  0  0  0  0  0  0
   11.0910  -18.3257   24.5290 C   0  0  0  0  0  0  0  0  0  0  0  0
   10.1330  -18.0464   23.6098 C   0  0  0  0  0  0  0  0  0  0  0  0
   10.6740  -18.1951   22.3566 N   0  0  0  0  0  0  0  0  0  0  0  0
   11.9389  -18.5572   22.5414 C   0  0  0  0  0  0  0  0  0  0  0  0
   12.2090  -18.6409   23.8340 N   0  0  0  0  0  0  0  0  0  0  0  0
    9.7819  -17.9970   28.1221 C   0  0  0  0  0  0  0  0  0  0  0  0
    9.7324  -19.2983   28.6467 O   0  0  0  0  0  0  0  0  0  0  0  0
    9.8032  -17.0562   28.9211 O   0  0  0  0  0  0  0  0  0  0  0  0
  2  1  1  1
  2  3  1  0
  2  4  1  0
  5  4  1  0
  5  6  1  6
  5  7  1  0
  7  8  2  0
  9  7  1  0
  9 10  1  0
 10 13  1  0
 10 11  1  1
 12 11  1  0
 13 15  1  0
 13 14  2  0
 15 16  1  0
 16 23  1  0
 17 18  1  0
 16 17  1  1
 18 22  1  0
 18 19  2  0
 19 20  1  0
 21 20  1  0
 22 21  2  0
 23 25  2  0
 23 24  1  0
M  END
$$$$
