LCH.pdb
     RDKit          3D

 25 25  0  0  1  0  0  0  0  0999 V2000
    8.7226  -12.1524   19.8643 C   0  0  0  0  0  0  0  0  0  0  0  0
    8.1194  -13.5570   19.9085 C   0  0  2  0  0  0  0  0  0  0  0  0
    6.7783  -13.4773   19.2271 C   0  0  0  0  0  0  0  0  0  0  0  0
    7.8721  -13.9219   21.3604 C   0  0  0  0  0  0  0  0  0  0  0  0
    9.1563  -13.8537   22.1773 C   0  0  2  0  0  0  0  0  0  0  0  0
   10.0761  -14.8074   21.5802 N   0  0  0  0  0  0  0  0  0  0  0  0
    8.8158  -14.3076   23.5468 C   0  0  0  0  0  0  0  0  0  0  0  0
    9.6264  -15.0362   24.1688 O   0  0  0  0  0  0  0  0  0  0  0  0
    7.6044  -13.9606   24.2095 N   0  0  0  0  0  0  0  0  0  0  0  0
    7.3927  -14.2493   25.5983 C   0  0  1  0  0  0  0  0  0  0  0  0
    6.1143  -13.5654   26.0788 C   0  0  0  0  0  0  0  0  0  0  0  0
    6.4131  -11.7668   26.0680 S   0  0  0  0  0  0  0  0  0  0  0  0
    7.2548  -15.7085   25.8621 C   0  0  0  0  0  0  0  0  0  0  0  0
    6.3851  -16.1692   26.6228 O   0  0  0  0  0  0  0  0  0  0  0  0
    8.1754  -16.5456   25.1939 N   0  0  0  0  0  0  0  0  0  0  0  0
    8.2569  -18.0048   25.4924 C   0  0  1  0  0  0  0  0  0  0  0  0
    8.6233  -18.6497   24.2160 C   0  0  0  0  0  0  0  0  0  0  0  0
    7.6793  -18.5823   23.1094 C   0  0  0  0  0  0  0  0  0  0  0  0
    6.3420  -18.8081   23.0714 C   0  0  0  0  0  0  0  0  0  0  0  0
    5.8917  -18.5493   21.8004 N   0  0  0  0  0  0  0  0  0  0  0  0
    6.9570  -18.1739   21.1008 C   0  0  0  0  0  0  0  0  0  0  0  0
    8.0369  -18.1865   21.8653 N   0  0  0  0  0  0  0  0  0  0  0  0
    9.2422  -18.1719   26.5963 C   0  0  0  0  0  0  0  0  0  0  0  0
    9.3913  -19.4497   27.1585 O   0  0  0  0  0  0  0  0  0  0  0  0
    9.9397  -17.2599   27.0500 O   0  0  0  0  0  0  0  0  0  0  0  0
  2  1  1  1
  2  3  1  0
  2  4  1  0
  5  4  1  0
  5  6  1  6
  5  7  1  0
  7  8  2  0
  9  7  1  0
  9 10  1  0
 10 13  1  0
 10 11  1  6
 12 11  1  0
 13 15  1  0
 13 14  2  0
 15 16  1  0
 16 23  1  0
 17 18  1  0
 16 17  1  6
 18 22  1  0
 18 19  2  0
 19 20  1  0
 21 20  1  0
 22 21  2  0
 23 25  2  0
 23 24  1  0
M  END
$$$$
