LCH.pdb
     RDKit          3D

 25 25  0  0  1  0  0  0  0  0999 V2000
    9.6393  -13.2604   19.0903 C   0  0  0  0  0  0  0  0  0  0  0  0
    8.1213  -13.4376   19.0370 C   0  0  2  0  0  0  0  0  0  0  0  0
    7.5174  -12.0625   19.1536 C   0  0  0  0  0  0  0  0  0  0  0  0
    7.6925  -14.2288   20.2588 C   0  0  0  0  0  0  0  0  0  0  0  0
    8.2227  -15.6562   20.2109 C   0  0  2  0  0  0  0  0  0  0  0  0
    7.4417  -16.3527   19.2023 N   0  0  0  0  0  0  0  0  0  0  0  0
    7.9441  -16.2599   21.5357 C   0  0  0  0  0  0  0  0  0  0  0  0
    6.7554  -16.4921   21.8641 O   0  0  0  0  0  0  0  0  0  0  0  0
    8.9611  -16.5976   22.4732 N   0  0  0  0  0  0  0  0  0  0  0  0
    8.6488  -17.1091   23.7762 C   0  0  1  0  0  0  0  0  0  0  0  0
    9.4382  -18.3918   24.0302 C   0  0  0  0  0  0  0  0  0  0  0  0
   11.2072  -18.0008   23.8256 S   0  0  0  0  0  0  0  0  0  0  0  0
    8.9842  -16.1460   24.8615 C   0  0  0  0  0  0  0  0  0  0  0  0
    8.9645  -14.9143   24.6894 O   0  0  0  0  0  0  0  0  0  0  0  0
    9.3287  -16.7161   26.1070 N   0  0  0  0  0  0  0  0  0  0  0  0
    9.3711  -15.8953   27.3518 C   0  0  1  0  0  0  0  0  0  0  0  0
    7.9883  -15.4222   27.5608 C   0  0  0  0  0  0  0  0  0  0  0  0
    7.6131  -14.1205   27.0273 C   0  0  0  0  0  0  0  0  0  0  0  0
    8.3284  -12.9740   26.9052 C   0  0  0  0  0  0  0  0  0  0  0  0
    7.5466  -12.0368   26.2762 N   0  0  0  0  0  0  0  0  0  0  0  0
    6.3836  -12.6307   26.0312 C   0  0  0  0  0  0  0  0  0  0  0  0
    6.4025  -13.8781   26.4724 N   0  0  0  0  0  0  0  0  0  0  0  0
    9.9171  -16.7638   28.4310 C   0  0  0  0  0  0  0  0  0  0  0  0
   10.4975  -16.1412   29.5475 O   0  0  0  0  0  0  0  0  0  0  0  0
    9.8917  -17.9979   28.4103 O   0  0  0  0  0  0  0  0  0  0  0  0
  2  1  1  1
  2  3  1  0
  2  4  1  0
  5  4  1  0
  5  6  1  6
  5  7  1  0
  7  8  2  0
  9  7  1  0
  9 10  1  0
 10 13  1  0
 10 11  1  1
 12 11  1  0
 13 15  1  0
 13 14  2  0
 15 16  1  0
 16 23  1  0
 17 18  1  0
 16 17  1  1
 18 22  1  0
 18 19  2  0
 19 20  1  0
 21 20  1  0
 22 21  2  0
 23 25  2  0
 23 24  1  0
M  END
$$$$
