LCH.pdb
     RDKit          3D

 25 25  0  0  1  0  0  0  0  0999 V2000
    8.7601  -14.1406   18.6271 C   0  0  0  0  0  0  0  0  0  0  0  0
    7.7138  -13.4670   19.5159 C   0  0  2  0  0  0  0  0  0  0  0  0
    7.6165  -12.0330   19.0648 C   0  0  0  0  0  0  0  0  0  0  0  0
    8.2338  -13.4622   20.9413 C   0  0  0  0  0  0  0  0  0  0  0  0
    8.3104  -14.8736   21.5099 C   0  0  2  0  0  0  0  0  0  0  0  0
    7.0015  -15.4716   21.3071 N   0  0  0  0  0  0  0  0  0  0  0  0
    8.5549  -14.7349   22.9653 C   0  0  0  0  0  0  0  0  0  0  0  0
    9.2504  -13.7762   23.3800 O   0  0  0  0  0  0  0  0  0  0  0  0
    8.0394  -15.6392   23.9368 N   0  0  0  0  0  0  0  0  0  0  0  0
    8.3033  -15.4761   25.3370 C   0  0  1  0  0  0  0  0  0  0  0  0
    7.5927  -14.2268   25.8543 C   0  0  0  0  0  0  0  0  0  0  0  0
    5.8037  -14.4611   25.5919 S   0  0  0  0  0  0  0  0  0  0  0  0
    7.8313  -16.6351   26.1444 C   0  0  0  0  0  0  0  0  0  0  0  0
    6.7030  -17.1366   25.9945 O   0  0  0  0  0  0  0  0  0  0  0  0
    8.7456  -17.1359   27.0973 N   0  0  0  0  0  0  0  0  0  0  0  0
    9.3903  -18.4704   26.9287 C   0  0  1  0  0  0  0  0  0  0  0  0
   10.0454  -18.4289   25.6064 C   0  0  0  0  0  0  0  0  0  0  0  0
   10.9314  -19.5237   25.2372 C   0  0  0  0  0  0  0  0  0  0  0  0
   11.2836  -20.6448   25.9153 C   0  0  0  0  0  0  0  0  0  0  0  0
   12.0978  -21.4035   25.1111 N   0  0  0  0  0  0  0  0  0  0  0  0
   12.2199  -20.7320   23.9712 C   0  0  0  0  0  0  0  0  0  0  0  0
   11.5296  -19.6045   24.0256 N   0  0  0  0  0  0  0  0  0  0  0  0
   10.3055  -18.6645   28.0871 C   0  0  0  0  0  0  0  0  0  0  0  0
   10.5656  -17.5598   28.9136 O   0  0  0  0  0  0  0  0  0  0  0  0
   10.8509  -19.7350   28.3709 O   0  0  0  0  0  0  0  0  0  0  0  0
  2  1  1  6
  2  3  1  0
  2  4  1  0
  5  4  1  0
  5  6  1  1
  5  7  1  0
  7  8  2  0
  9  7  1  0
  9 10  1  0
 10 13  1  0
 10 11  1  1
 12 11  1  0
 13 15  1  0
 13 14  2  0
 15 16  1  0
 16 23  1  0
 17 18  1  0
 16 17  1  6
 18 22  1  0
 18 19  2  0
 19 20  1  0
 21 20  1  0
 22 21  2  0
 23 25  2  0
 23 24  1  0
M  END
$$$$
