LCH.pdb
     RDKit          3D

 25 25  0  0  1  0  0  0  0  0999 V2000
    7.3930  -14.3582   18.7606 C   0  0  0  0  0  0  0  0  0  0  0  0
    7.3277  -13.3980   19.9490 C   0  0  2  0  0  0  0  0  0  0  0  0
    7.6730  -12.0293   19.4232 C   0  0  0  0  0  0  0  0  0  0  0  0
    8.4088  -13.7925   20.9380 C   0  0  0  0  0  0  0  0  0  0  0  0
    8.0153  -15.0364   21.7248 C   0  0  2  0  0  0  0  0  0  0  0  0
    6.5641  -15.1058   21.6881 N   0  0  0  0  0  0  0  0  0  0  0  0
    8.4502  -14.8119   23.1240 C   0  0  0  0  0  0  0  0  0  0  0  0
    9.6770  -14.7450   23.3798 O   0  0  0  0  0  0  0  0  0  0  0  0
    7.5446  -14.6654   24.2128 N   0  0  0  0  0  0  0  0  0  0  0  0
    7.9908  -14.6864   25.5757 C   0  0  1  0  0  0  0  0  0  0  0  0
    7.3428  -13.5396   26.3489 C   0  0  0  0  0  0  0  0  0  0  0  0
    5.5940  -13.4502   25.8409 S   0  0  0  0  0  0  0  0  0  0  0  0
    7.6423  -15.9572   26.2696 C   0  0  0  0  0  0  0  0  0  0  0  0
    6.5532  -16.5332   26.0984 O   0  0  0  0  0  0  0  0  0  0  0  0
    8.6270  -16.4746   27.1399 N   0  0  0  0  0  0  0  0  0  0  0  0
    8.6519  -17.9184   27.5138 C   0  0  1  0  0  0  0  0  0  0  0  0
    8.7462  -18.6557   26.2382 C   0  0  0  0  0  0  0  0  0  0  0  0
    8.9558  -20.0958   26.2840 C   0  0  0  0  0  0  0  0  0  0  0  0
    9.0793  -20.9395   27.3393 C   0  0  0  0  0  0  0  0  0  0  0  0
    9.1968  -22.2214   26.8618 N   0  0  0  0  0  0  0  0  0  0  0  0
    9.1413  -22.1284   25.5376 C   0  0  0  0  0  0  0  0  0  0  0  0
    8.9970  -20.8653   25.1711 N   0  0  0  0  0  0  0  0  0  0  0  0
    9.7969  -18.1100   28.4463 C   0  0  0  0  0  0  0  0  0  0  0  0
   11.0274  -17.5249   28.1077 O   0  0  0  0  0  0  0  0  0  0  0  0
    9.7357  -18.7491   29.5007 O   0  0  0  0  0  0  0  0  0  0  0  0
  2  1  1  6
  2  3  1  0
  2  4  1  0
  5  4  1  0
  5  6  1  1
  5  7  1  0
  7  8  2  0
  9  7  1  0
  9 10  1  0
 10 13  1  0
 10 11  1  1
 12 11  1  0
 13 15  1  0
 13 14  2  0
 15 16  1  0
 16 23  1  0
 17 18  1  0
 16 17  1  6
 18 22  1  0
 18 19  2  0
 19 20  1  0
 21 20  1  0
 22 21  2  0
 23 25  2  0
 23 24  1  0
M  END
$$$$
