LCH.pdb
     RDKit          3D

 25 25  0  0  1  0  0  0  0  0999 V2000
    9.1274  -14.0481   19.2905 C   0  0  0  0  0  0  0  0  0  0  0  0
    7.8820  -13.4505   19.9467 C   0  0  2  0  0  0  0  0  0  0  0  0
    8.1466  -11.9783   20.1245 C   0  0  0  0  0  0  0  0  0  0  0  0
    7.7363  -14.0577   21.3296 C   0  0  0  0  0  0  0  0  0  0  0  0
    7.3836  -15.5379   21.2525 C   0  0  2  0  0  0  0  0  0  0  0  0
    6.0403  -15.6138   20.7030 N   0  0  0  0  0  0  0  0  0  0  0  0
    7.3623  -16.0449   22.6452 C   0  0  0  0  0  0  0  0  0  0  0  0
    6.7060  -15.4202   23.5135 O   0  0  0  0  0  0  0  0  0  0  0  0
    8.0532  -17.2174   23.0637 N   0  0  0  0  0  0  0  0  0  0  0  0
    7.9924  -17.6886   24.4169 C   0  0  1  0  0  0  0  0  0  0  0  0
    6.5856  -18.1986   24.7234 C   0  0  0  0  0  0  0  0  0  0  0  0
    5.6509  -18.2137   23.1581 S   0  0  0  0  0  0  0  0  0  0  0  0
    8.9465  -18.8024   24.6756 C   0  0  0  0  0  0  0  0  0  0  0  0
    9.0205  -19.8016   23.9385 O   0  0  0  0  0  0  0  0  0  0  0  0
    9.7689  -18.6578   25.8147 N   0  0  0  0  0  0  0  0  0  0  0  0
   11.2414  -18.8851   25.7436 C   0  0  1  0  0  0  0  0  0  0  0  0
   11.7359  -17.9533   24.7108 C   0  0  0  0  0  0  0  0  0  0  0  0
   13.1745  -17.7955   24.5514 C   0  0  0  0  0  0  0  0  0  0  0  0
   14.2073  -18.4668   25.1202 C   0  0  0  0  0  0  0  0  0  0  0  0
   15.3817  -17.9874   24.5946 N   0  0  0  0  0  0  0  0  0  0  0  0
   15.0385  -17.0440   23.7242 C   0  0  0  0  0  0  0  0  0  0  0  0
   13.7224  -16.9135   23.6829 N   0  0  0  0  0  0  0  0  0  0  0  0
   11.7853  -18.6658   27.1123 C   0  0  0  0  0  0  0  0  0  0  0  0
   11.0204  -17.9056   28.0112 O   0  0  0  0  0  0  0  0  0  0  0  0
   12.8658  -19.1104   27.5108 O   0  0  0  0  0  0  0  0  0  0  0  0
  2  1  1  1
  2  3  1  0
  2  4  1  0
  5  4  1  0
  5  6  1  1
  5  7  1  0
  7  8  2  0
  9  7  1  0
  9 10  1  0
 10 13  1  0
 10 11  1  6
 12 11  1  0
 13 15  1  0
 13 14  2  0
 15 16  1  0
 16 23  1  0
 17 18  1  0
 16 17  1  6
 18 22  1  0
 18 19  2  0
 19 20  1  0
 21 20  1  0
 22 21  2  0
 23 25  2  0
 23 24  1  0
M  END
$$$$
