LCH.pdb
     RDKit          3D

 25 25  0  0  1  0  0  0  0  0999 V2000
    9.4274  -12.9896   19.4815 C   0  0  0  0  0  0  0  0  0  0  0  0
    8.1337  -13.3231   18.7374 C   0  0  2  0  0  0  0  0  0  0  0  0
    7.2720  -12.0884   18.7860 C   0  0  0  0  0  0  0  0  0  0  0  0
    7.4113  -14.4136   19.5064 C   0  0  0  0  0  0  0  0  0  0  0  0
    8.3458  -15.5689   19.8427 C   0  0  2  0  0  0  0  0  0  0  0  0
    8.1686  -16.5611   18.7956 N   0  0  0  0  0  0  0  0  0  0  0  0
    7.8758  -16.1380   21.1282 C   0  0  0  0  0  0  0  0  0  0  0  0
    6.6651  -16.4426   21.2559 O   0  0  0  0  0  0  0  0  0  0  0  0
    8.7297  -16.3635   22.2450 N   0  0  0  0  0  0  0  0  0  0  0  0
    8.2662  -17.0255   23.4299 C   0  0  1  0  0  0  0  0  0  0  0  0
    8.3711  -18.5387   23.2505 C   0  0  0  0  0  0  0  0  0  0  0  0
   10.1266  -18.9402   22.9654 S   0  0  0  0  0  0  0  0  0  0  0  0
    9.0571  -16.6544   24.6360 C   0  0  0  0  0  0  0  0  0  0  0  0
   10.2684  -16.3774   24.5796 O   0  0  0  0  0  0  0  0  0  0  0  0
    8.3473  -16.6350   25.8568 N   0  0  0  0  0  0  0  0  0  0  0  0
    9.0034  -16.2193   27.1303 C   0  0  1  0  0  0  0  0  0  0  0  0
    8.0023  -15.4002   27.8419 C   0  0  0  0  0  0  0  0  0  0  0  0
    7.6339  -14.1102   27.2764 C   0  0  0  0  0  0  0  0  0  0  0  0
    8.1208  -13.4439   26.1993 C   0  0  0  0  0  0  0  0  0  0  0  0
    7.3953  -12.2897   26.0356 N   0  0  0  0  0  0  0  0  0  0  0  0
    6.4905  -12.2815   27.0085 C   0  0  0  0  0  0  0  0  0  0  0  0
    6.6158  -13.3619   27.7620 N   0  0  0  0  0  0  0  0  0  0  0  0
    9.4244  -17.4630   27.8327 C   0  0  0  0  0  0  0  0  0  0  0  0
   10.2968  -17.3393   28.9257 O   0  0  0  0  0  0  0  0  0  0  0  0
    9.0551  -18.5983   27.5183 O   0  0  0  0  0  0  0  0  0  0  0  0
  2  1  1  1
  2  3  1  0
  2  4  1  0
  5  4  1  0
  5  6  1  6
  5  7  1  0
  7  8  2  0
  9  7  1  0
  9 10  1  0
 10 13  1  0
 10 11  1  6
 12 11  1  0
 13 15  1  0
 13 14  2  0
 15 16  1  0
 16 23  1  0
 17 18  1  0
 16 17  1  1
 18 22  1  0
 18 19  2  0
 19 20  1  0
 21 20  1  0
 22 21  2  0
 23 25  2  0
 23 24  1  0
M  END
$$$$
