SAV.pdb
     RDKit          3D

 19 18  0  0  1  0  0  0  0  0999 V2000
   10.4922  -16.1415   19.1920 O   0  0  0  0  0  0  0  0  0  0  0  0
    9.4116  -15.5375   19.8523 C   0  0  0  0  0  0  0  0  0  0  0  0
    8.4821  -16.6876   20.2506 C   0  0  2  0  0  0  0  0  0  0  0  0
    7.5608  -16.9413   19.1689 N   0  0  0  0  0  0  0  0  0  0  0  0
    7.7722  -16.2476   21.4773 C   0  0  0  0  0  0  0  0  0  0  0  0
    6.9156  -15.3467   21.3752 O   0  0  0  0  0  0  0  0  0  0  0  0
    7.2629  -17.8439   24.7241 C   0  0  0  0  0  0  0  0  0  0  0  0
    7.3018  -16.5532   23.9306 C   0  0  2  0  0  0  0  0  0  0  0  0
    8.0752  -16.8476   22.7162 N   0  0  0  0  0  0  0  0  0  0  0  0
    7.9995  -15.5007   24.6729 C   0  0  0  0  0  0  0  0  0  0  0  0
    9.2435  -15.3446   24.6039 O   0  0  0  0  0  0  0  0  0  0  0  0
    5.8450  -12.8589   27.3407 C   0  0  0  0  0  0  0  0  0  0  0  0
    7.0479  -12.3764   26.5544 C   0  0  2  0  0  0  0  0  0  0  0  0
    6.4995  -11.7989   25.2477 C   0  0  0  0  0  0  0  0  0  0  0  0
    7.9251  -13.5565   26.2755 C   0  0  2  0  0  0  0  0  0  0  0  0
    7.2998  -14.5967   25.5143 N   0  0  0  0  0  0  0  0  0  0  0  0
    8.5209  -14.0714   27.5320 C   0  0  0  0  0  0  0  0  0  0  0  0
    8.1912  -15.2107   27.9423 O   0  0  0  0  0  0  0  0  0  0  0  0
    9.4331  -13.3529   28.2861 O   0  0  0  0  0  0  0  0  0  0  0  0
  1  2  1  0
  2  3  1  0
  3  5  1  0
  3  4  1  6
  5  6  2  0
  8  7  1  1
  8 10  1  0
  9  8  1  0
  9  5  1  0
 10 11  2  0
 13 12  1  1
 13 15  1  0
 14 13  1  0
 15 17  1  0
 15 16  1  1
 16 10  1  0
 17 18  2  0
 17 19  1  0
M  END
$$$$
