SAV.pdb
     RDKit          3D

 19 18  0  0  1  0  0  0  0  0999 V2000
    9.8820  -16.0676   20.7062 O   0  0  0  0  0  0  0  0  0  0  0  0
    8.8101  -16.1796   19.8078 C   0  0  0  0  0  0  0  0  0  0  0  0
    7.9392  -17.3162   20.3510 C   0  0  2  0  0  0  0  0  0  0  0  0
    6.9472  -17.6605   19.3608 N   0  0  0  0  0  0  0  0  0  0  0  0
    7.3111  -16.8055   21.5949 C   0  0  0  0  0  0  0  0  0  0  0  0
    6.4659  -15.8931   21.5004 O   0  0  0  0  0  0  0  0  0  0  0  0
    7.0461  -18.2439   24.9610 C   0  0  0  0  0  0  0  0  0  0  0  0
    6.9583  -17.0154   24.0778 C   0  0  2  0  0  0  0  0  0  0  0  0
    7.6763  -17.3536   22.8410 N   0  0  0  0  0  0  0  0  0  0  0  0
    7.6311  -15.8722   24.6991 C   0  0  0  0  0  0  0  0  0  0  0  0
    8.8480  -15.6275   24.5098 O   0  0  0  0  0  0  0  0  0  0  0  0
    5.7117  -12.3369   25.7593 C   0  0  0  0  0  0  0  0  0  0  0  0
    6.5834  -12.9143   26.8568 C   0  0  2  0  0  0  0  0  0  0  0  0
    7.3314  -11.7308   27.4744 C   0  0  0  0  0  0  0  0  0  0  0  0
    7.5484  -13.8712   26.2296 C   0  0  2  0  0  0  0  0  0  0  0  0
    6.9367  -14.9760   25.5530 N   0  0  0  0  0  0  0  0  0  0  0  0
    8.5571  -14.3182   27.2202 C   0  0  0  0  0  0  0  0  0  0  0  0
    8.3188  -15.3328   27.9193 O   0  0  0  0  0  0  0  0  0  0  0  0
    9.7633  -13.6674   27.4173 O   0  0  0  0  0  0  0  0  0  0  0  0
  1  2  1  0
  2  3  1  0
  3  5  1  0
  3  4  1  6
  5  6  2  0
  8  7  1  1
  8 10  1  0
  9  8  1  0
  9  5  1  0
 10 11  2  0
 13 12  1  6
 13 15  1  0
 14 13  1  0
 15 17  1  0
 15 16  1  1
 16 10  1  0
 17 18  2  0
 17 19  1  0
M  END
$$$$
