SAV.pdb
     RDKit          3D

 19 18  0  0  1  0  0  0  0  0999 V2000
    8.5905  -17.0284   18.5192 O   0  0  0  0  0  0  0  0  0  0  0  0
    7.7564  -16.5088   19.5207 C   0  0  0  0  0  0  0  0  0  0  0  0
    7.3682  -17.7076   20.3911 C   0  0  2  0  0  0  0  0  0  0  0  0
    6.4206  -18.5229   19.6696 N   0  0  0  0  0  0  0  0  0  0  0  0
    6.7725  -17.1503   21.6310 C   0  0  0  0  0  0  0  0  0  0  0  0
    5.6165  -16.6852   21.5757 O   0  0  0  0  0  0  0  0  0  0  0  0
    6.8986  -18.0243   24.9636 C   0  0  0  0  0  0  0  0  0  0  0  0
    6.9153  -16.7691   24.1144 C   0  0  2  0  0  0  0  0  0  0  0  0
    7.5139  -17.1573   22.8297 N   0  0  0  0  0  0  0  0  0  0  0  0
    7.7602  -15.7365   24.7190 C   0  0  0  0  0  0  0  0  0  0  0  0
    9.0045  -15.7079   24.5536 O   0  0  0  0  0  0  0  0  0  0  0  0
    6.0594  -12.7075   27.3009 C   0  0  0  0  0  0  0  0  0  0  0  0
    7.2596  -12.4119   26.4235 C   0  0  2  0  0  0  0  0  0  0  0  0
    6.7019  -11.8609   25.1093 C   0  0  0  0  0  0  0  0  0  0  0  0
    7.9878  -13.6971   26.1828 C   0  0  2  0  0  0  0  0  0  0  0  0
    7.2114  -14.7080   25.5287 N   0  0  0  0  0  0  0  0  0  0  0  0
    8.5974  -14.1939   27.4399 C   0  0  0  0  0  0  0  0  0  0  0  0
    8.1670  -15.2573   27.9488 O   0  0  0  0  0  0  0  0  0  0  0  0
    9.6293  -13.5387   28.0903 O   0  0  0  0  0  0  0  0  0  0  0  0
  1  2  1  0
  2  3  1  0
  3  5  1  0
  3  4  1  6
  5  6  2  0
  8  7  1  1
  8 10  1  0
  9  8  1  0
  9  5  1  0
 10 11  2  0
 13 12  1  1
 13 15  1  0
 14 13  1  0
 15 17  1  0
 15 16  1  1
 16 10  1  0
 17 18  2  0
 17 19  1  0
M  END
$$$$
