SAV.pdb
     RDKit          3D

 19 18  0  0  1  0  0  0  0  0999 V2000
   10.5831  -12.8217   20.1379 O   0  0  0  0  0  0  0  0  0  0  0  0
   10.2696  -14.1383   19.7678 C   0  0  0  0  0  0  0  0  0  0  0  0
    8.7876  -14.1122   19.3825 C   0  0  2  0  0  0  0  0  0  0  0  0
    8.5142  -12.8959   18.6550 N   0  0  0  0  0  0  0  0  0  0  0  0
    8.0228  -14.1690   20.6531 C   0  0  0  0  0  0  0  0  0  0  0  0
    7.5594  -13.1066   21.1137 O   0  0  0  0  0  0  0  0  0  0  0  0
    6.8517  -16.9996   22.7779 C   0  0  0  0  0  0  0  0  0  0  0  0
    7.0658  -15.5165   22.5509 C   0  0  2  0  0  0  0  0  0  0  0  0
    7.8376  -15.4047   21.3054 N   0  0  0  0  0  0  0  0  0  0  0  0
    7.8575  -14.9279   23.6337 C   0  0  0  0  0  0  0  0  0  0  0  0
    9.1110  -14.8691   23.5911 O   0  0  0  0  0  0  0  0  0  0  0  0
    5.9311  -13.0275   26.9721 C   0  0  0  0  0  0  0  0  0  0  0  0
    7.3413  -12.6639   26.5516 C   0  0  2  0  0  0  0  0  0  0  0  0
    7.2034  -11.5352   25.5276 C   0  0  0  0  0  0  0  0  0  0  0  0
    7.9634  -13.8691   25.9187 C   0  0  2  0  0  0  0  0  0  0  0  0
    7.2436  -14.3900   24.7949 N   0  0  0  0  0  0  0  0  0  0  0  0
    8.2308  -14.9130   26.9372 C   0  0  0  0  0  0  0  0  0  0  0  0
    7.5893  -15.9907   26.8903 O   0  0  0  0  0  0  0  0  0  0  0  0
    9.1623  -14.7601   27.9501 O   0  0  0  0  0  0  0  0  0  0  0  0
  1  2  1  0
  2  3  1  0
  3  5  1  0
  3  4  1  1
  5  6  2  0
  8  7  1  1
  8 10  1  0
  9  8  1  0
  9  5  1  0
 10 11  2  0
 13 12  1  6
 13 15  1  0
 14 13  1  0
 15 17  1  0
 15 16  1  6
 16 10  1  0
 17 18  2  0
 17 19  1  0
M  END
$$$$
