SAV.pdb
     RDKit          3D

 19 18  0  0  1  0  0  0  0  0999 V2000
    9.4182  -16.0756   20.0604 O   0  0  0  0  0  0  0  0  0  0  0  0
    9.3202  -17.3313   20.6786 C   0  0  0  0  0  0  0  0  0  0  0  0
    7.8219  -17.6441   20.7321 C   0  0  2  0  0  0  0  0  0  0  0  0
    7.1892  -17.1084   19.5506 N   0  0  0  0  0  0  0  0  0  0  0  0
    7.3030  -17.0018   21.9653 C   0  0  0  0  0  0  0  0  0  0  0  0
    6.7662  -15.8801   21.8681 O   0  0  0  0  0  0  0  0  0  0  0  0
    6.8404  -18.2492   25.4400 C   0  0  0  0  0  0  0  0  0  0  0  0
    6.8422  -17.1132   24.4368 C   0  0  2  0  0  0  0  0  0  0  0  0
    7.4251  -17.6621   23.2045 N   0  0  0  0  0  0  0  0  0  0  0  0
    7.6920  -16.0106   24.8927 C   0  0  0  0  0  0  0  0  0  0  0  0
    8.9116  -15.9410   24.6026 O   0  0  0  0  0  0  0  0  0  0  0  0
    6.0353  -12.7996   27.2433 C   0  0  0  0  0  0  0  0  0  0  0  0
    7.1996  -12.5686   26.3006 C   0  0  2  0  0  0  0  0  0  0  0  0
    6.5871  -12.1720   24.9555 C   0  0  0  0  0  0  0  0  0  0  0  0
    7.9552  -13.8540   26.1708 C   0  0  2  0  0  0  0  0  0  0  0  0
    7.1763  -14.9569   25.6916 N   0  0  0  0  0  0  0  0  0  0  0  0
    8.6533  -14.1783   27.4381 C   0  0  0  0  0  0  0  0  0  0  0  0
    9.5120  -13.3792   27.8842 O   0  0  0  0  0  0  0  0  0  0  0  0
    8.4049  -15.3305   28.1648 O   0  0  0  0  0  0  0  0  0  0  0  0
  1  2  1  0
  2  3  1  0
  3  5  1  0
  3  4  1  6
  5  6  2  0
  8  7  1  1
  8 10  1  0
  9  8  1  0
  9  5  1  0
 10 11  2  0
 13 12  1  1
 13 15  1  0
 14 13  1  0
 15 17  1  0
 15 16  1  1
 16 10  1  0
 17 18  2  0
 17 19  1  0
M  END
$$$$
