SAV.pdb
     RDKit          3D

 19 18  0  0  1  0  0  0  0  0999 V2000
    4.9966  -16.1622   19.6878 O   0  0  0  0  0  0  0  0  0  0  0  0
    6.2286  -15.5033   19.5595 C   0  0  0  0  0  0  0  0  0  0  0  0
    7.2845  -16.5241   19.9938 C   0  0  2  0  0  0  0  0  0  0  0  0
    6.9731  -17.8019   19.3992 N   0  0  0  0  0  0  0  0  0  0  0  0
    7.2247  -16.5850   21.4754 C   0  0  0  0  0  0  0  0  0  0  0  0
    6.2359  -17.1291   22.0065 O   0  0  0  0  0  0  0  0  0  0  0  0
    9.5599  -17.2820   23.8137 C   0  0  0  0  0  0  0  0  0  0  0  0
    8.4060  -16.3084   23.6803 C   0  0  2  0  0  0  0  0  0  0  0  0
    8.2712  -16.0349   22.2427 N   0  0  0  0  0  0  0  0  0  0  0  0
    8.7026  -15.0454   24.3601 C   0  0  0  0  0  0  0  0  0  0  0  0
    9.5705  -14.2438   23.9350 O   0  0  0  0  0  0  0  0  0  0  0  0
    5.9554  -13.2531   26.9520 C   0  0  0  0  0  0  0  0  0  0  0  0
    7.1354  -12.5089   26.3591 C   0  0  2  0  0  0  0  0  0  0  0  0
    6.7025  -12.0695   24.9587 C   0  0  0  0  0  0  0  0  0  0  0  0
    8.2893  -13.4584   26.2743 C   0  0  2  0  0  0  0  0  0  0  0  0
    8.0190  -14.6603   25.5429 N   0  0  0  0  0  0  0  0  0  0  0  0
    8.8308  -13.7422   27.6252 C   0  0  0  0  0  0  0  0  0  0  0  0
    9.2563  -12.7911   28.3249 O   0  0  0  0  0  0  0  0  0  0  0  0
    8.8928  -15.0168   28.1625 O   0  0  0  0  0  0  0  0  0  0  0  0
  1  2  1  0
  2  3  1  0
  3  5  1  0
  3  4  1  6
  5  6  2  0
  8  7  1  6
  8 10  1  0
  9  8  1  0
  9  5  1  0
 10 11  2  0
 13 12  1  6
 13 15  1  0
 14 13  1  0
 15 17  1  0
 15 16  1  1
 16 10  1  0
 17 18  2  0
 17 19  1  0
M  END
$$$$
