SAV.pdb
     RDKit          3D

 19 18  0  0  1  0  0  0  0  0999 V2000
   10.8160  -17.8918   19.7197 O   0  0  0  0  0  0  0  0  0  0  0  0
   10.1503  -16.9923   20.5660 C   0  0  0  0  0  0  0  0  0  0  0  0
    8.6970  -17.4731   20.6107 C   0  0  2  0  0  0  0  0  0  0  0  0
    8.0385  -17.0883   19.3853 N   0  0  0  0  0  0  0  0  0  0  0  0
    8.0753  -16.8207   21.7899 C   0  0  0  0  0  0  0  0  0  0  0  0
    7.5918  -15.6795   21.6492 O   0  0  0  0  0  0  0  0  0  0  0  0
    7.0124  -18.1902   25.0614 C   0  0  0  0  0  0  0  0  0  0  0  0
    7.2537  -16.9943   24.1622 C   0  0  2  0  0  0  0  0  0  0  0  0
    8.0437  -17.4934   23.0280 N   0  0  0  0  0  0  0  0  0  0  0  0
    8.0405  -15.9688   24.8512 C   0  0  0  0  0  0  0  0  0  0  0  0
    9.2948  -15.9409   24.8011 O   0  0  0  0  0  0  0  0  0  0  0  0
    6.1151  -12.8868   27.2174 C   0  0  0  0  0  0  0  0  0  0  0  0
    7.4225  -12.6419   26.4903 C   0  0  2  0  0  0  0  0  0  0  0  0
    7.0475  -12.0993   25.1095 C   0  0  0  0  0  0  0  0  0  0  0  0
    8.1347  -13.9518   26.3600 C   0  0  2  0  0  0  0  0  0  0  0  0
    7.4207  -14.9466   25.6164 N   0  0  0  0  0  0  0  0  0  0  0  0
    8.5549  -14.4511   27.6915 C   0  0  0  0  0  0  0  0  0  0  0  0
    8.0509  -15.5124   28.1328 O   0  0  0  0  0  0  0  0  0  0  0  0
    9.4854  -13.8004   28.4839 O   0  0  0  0  0  0  0  0  0  0  0  0
  1  2  1  0
  2  3  1  0
  3  5  1  0
  3  4  1  6
  5  6  2  0
  8  7  1  1
  8 10  1  0
  9  8  1  0
  9  5  1  0
 10 11  2  0
 13 12  1  1
 13 15  1  0
 14 13  1  0
 15 17  1  0
 15 16  1  1
 16 10  1  0
 17 18  2  0
 17 19  1  0
M  END
$$$$
