SAV.pdb
     RDKit          3D

 19 18  0  0  1  0  0  0  0  0999 V2000
    9.5562  -14.3433   20.8802 O   0  0  0  0  0  0  0  0  0  0  0  0
    8.9804  -15.6201   20.7976 C   0  0  0  0  0  0  0  0  0  0  0  0
    7.4946  -15.4187   21.1097 C   0  0  2  0  0  0  0  0  0  0  0  0
    7.0662  -14.1572   20.5544 N   0  0  0  0  0  0  0  0  0  0  0  0
    7.3711  -15.4316   22.5886 C   0  0  0  0  0  0  0  0  0  0  0  0
    7.2797  -14.3399   23.1850 O   0  0  0  0  0  0  0  0  0  0  0  0
    6.9125  -18.1599   25.0786 C   0  0  0  0  0  0  0  0  0  0  0  0
    7.2631  -16.7235   24.7456 C   0  0  2  0  0  0  0  0  0  0  0  0
    7.3596  -16.6594   23.2806 N   0  0  0  0  0  0  0  0  0  0  0  0
    8.5659  -16.3568   25.3059 C   0  0  0  0  0  0  0  0  0  0  0  0
    9.6331  -16.4806   24.6561 O   0  0  0  0  0  0  0  0  0  0  0  0
    8.9662  -14.2311   29.1049 C   0  0  0  0  0  0  0  0  0  0  0  0
    9.8858  -14.1088   27.9061 C   0  0  2  0  0  0  0  0  0  0  0  0
    9.2582  -13.0532   26.9931 C   0  0  0  0  0  0  0  0  0  0  0  0
    9.9291  -15.4361   27.2157 C   0  0  2  0  0  0  0  0  0  0  0  0
    8.6893  -15.8392   26.6217 N   0  0  0  0  0  0  0  0  0  0  0  0
   10.4737  -16.4767   28.1209 C   0  0  0  0  0  0  0  0  0  0  0  0
   11.6647  -16.3883   28.5066 O   0  0  0  0  0  0  0  0  0  0  0  0
    9.7285  -17.5542   28.5690 O   0  0  0  0  0  0  0  0  0  0  0  0
  1  2  1  0
  2  3  1  0
  3  5  1  0
  3  4  1  1
  5  6  2  0
  8  7  1  6
  8 10  1  0
  9  8  1  0
  9  5  1  0
 10 11  2  0
 13 12  1  1
 13 15  1  0
 14 13  1  0
 15 17  1  0
 15 16  1  1
 16 10  1  0
 17 18  2  0
 17 19  1  0
M  END
$$$$
