SAV.pdb
     RDKit          3D

 19 18  0  0  1  0  0  0  0  0999 V2000
   10.3707  -13.0047   19.9734 O   0  0  0  0  0  0  0  0  0  0  0  0
    9.9859  -14.2705   19.5063 C   0  0  0  0  0  0  0  0  0  0  0  0
    8.4658  -14.1976   19.3349 C   0  0  2  0  0  0  0  0  0  0  0  0
    8.1151  -12.8982   18.8134 N   0  0  0  0  0  0  0  0  0  0  0  0
    7.8807  -14.4191   20.6807 C   0  0  0  0  0  0  0  0  0  0  0  0
    7.2982  -13.4670   21.2375 O   0  0  0  0  0  0  0  0  0  0  0  0
    7.4122  -17.5095   22.7124 C   0  0  0  0  0  0  0  0  0  0  0  0
    7.2700  -16.0115   22.5312 C   0  0  2  0  0  0  0  0  0  0  0  0
    7.9930  -15.6828   21.2948 N   0  0  0  0  0  0  0  0  0  0  0  0
    7.9008  -15.2861   23.6363 C   0  0  0  0  0  0  0  0  0  0  0  0
    9.1172  -14.9747   23.6252 O   0  0  0  0  0  0  0  0  0  0  0  0
    5.9686  -12.3778   25.5005 C   0  0  0  0  0  0  0  0  0  0  0  0
    6.6655  -13.2358   26.5378 C   0  0  2  0  0  0  0  0  0  0  0  0
    7.3460  -12.2658   27.5061 C   0  0  0  0  0  0  0  0  0  0  0  0
    7.6871  -14.0755   25.8368 C   0  0  2  0  0  0  0  0  0  0  0  0
    7.1640  -14.8951   24.7847 N   0  0  0  0  0  0  0  0  0  0  0  0
    8.4728  -14.8652   26.8155 C   0  0  0  0  0  0  0  0  0  0  0  0
    8.1597  -16.0621   27.0265 O   0  0  0  0  0  0  0  0  0  0  0  0
    9.5471  -14.3457   27.5178 O   0  0  0  0  0  0  0  0  0  0  0  0
  1  2  1  0
  2  3  1  0
  3  5  1  0
  3  4  1  1
  5  6  2  0
  8  7  1  1
  8 10  1  0
  9  8  1  0
  9  5  1  0
 10 11  2  0
 13 12  1  6
 13 15  1  0
 14 13  1  0
 15 17  1  0
 15 16  1  6
 16 10  1  0
 17 18  2  0
 17 19  1  0
M  END
$$$$
