SAV.pdb
     RDKit          3D

 19 18  0  0  1  0  0  0  0  0999 V2000
    9.2540  -19.4518   20.6640 O   0  0  0  0  0  0  0  0  0  0  0  0
    9.4130  -18.5554   21.7316 C   0  0  0  0  0  0  0  0  0  0  0  0
    9.1944  -17.1634   21.1317 C   0  0  2  0  0  0  0  0  0  0  0  0
   10.2246  -16.9077   20.1537 N   0  0  0  0  0  0  0  0  0  0  0  0
    9.2672  -16.2036   22.2614 C   0  0  0  0  0  0  0  0  0  0  0  0
   10.3810  -15.7337   22.5686 O   0  0  0  0  0  0  0  0  0  0  0  0
    6.6691  -14.6088   24.4122 C   0  0  0  0  0  0  0  0  0  0  0  0
    8.1180  -14.9237   24.0984 C   0  0  2  0  0  0  0  0  0  0  0  0
    8.0933  -15.8467   22.9551 N   0  0  0  0  0  0  0  0  0  0  0  0
    8.7631  -15.6058   25.2227 C   0  0  0  0  0  0  0  0  0  0  0  0
    8.9661  -16.8449   25.2269 O   0  0  0  0  0  0  0  0  0  0  0  0
   11.3055  -13.5913   27.9873 C   0  0  0  0  0  0  0  0  0  0  0  0
   10.2708  -14.5384   28.5619 C   0  0  2  0  0  0  0  0  0  0  0  0
   10.9621  -15.2817   29.7069 C   0  0  0  0  0  0  0  0  0  0  0  0
    9.8690  -15.4972   27.4852 C   0  0  2  0  0  0  0  0  0  0  0  0
    9.1950  -14.8956   26.3732 N   0  0  0  0  0  0  0  0  0  0  0  0
    9.0967  -16.6273   28.0555 C   0  0  0  0  0  0  0  0  0  0  0  0
    9.6923  -17.4838   28.7531 O   0  0  0  0  0  0  0  0  0  0  0  0
    7.7361  -16.7898   27.8567 O   0  0  0  0  0  0  0  0  0  0  0  0
  1  2  1  0
  2  3  1  0
  3  5  1  0
  3  4  1  6
  5  6  2  0
  8  7  1  1
  8 10  1  0
  9  8  1  0
  9  5  1  0
 10 11  2  0
 13 12  1  6
 13 15  1  0
 14 13  1  0
 15 17  1  0
 15 16  1  6
 16 10  1  0
 17 18  2  0
 17 19  1  0
M  END
$$$$
