SAV.pdb
     RDKit          3D

 19 18  0  0  1  0  0  0  0  0999 V2000
    9.9779  -16.7053   19.3695 O   0  0  0  0  0  0  0  0  0  0  0  0
    9.0923  -15.9195   20.1225 C   0  0  0  0  0  0  0  0  0  0  0  0
    7.9322  -16.8496   20.4892 C   0  0  2  0  0  0  0  0  0  0  0  0
    6.9406  -16.7970   19.4417 N   0  0  0  0  0  0  0  0  0  0  0  0
    7.3882  -16.3536   21.7779 C   0  0  0  0  0  0  0  0  0  0  0  0
    6.6532  -15.3460   21.7621 O   0  0  0  0  0  0  0  0  0  0  0  0
    7.0983  -17.9210   25.0993 C   0  0  0  0  0  0  0  0  0  0  0  0
    7.0803  -16.6614   24.2565 C   0  0  2  0  0  0  0  0  0  0  0  0
    7.7080  -17.0211   22.9774 N   0  0  0  0  0  0  0  0  0  0  0  0
    7.8804  -15.6026   24.8765 C   0  0  0  0  0  0  0  0  0  0  0  0
    9.1118  -15.4814   24.6627 O   0  0  0  0  0  0  0  0  0  0  0  0
    6.0602  -12.7711   27.5777 C   0  0  0  0  0  0  0  0  0  0  0  0
    7.2528  -12.3862   26.7248 C   0  0  2  0  0  0  0  0  0  0  0  0
    6.6811  -11.8020   25.4312 C   0  0  0  0  0  0  0  0  0  0  0  0
    8.0371  -13.6274   26.4346 C   0  0  2  0  0  0  0  0  0  0  0  0
    7.3004  -14.6526   25.7572 N   0  0  0  0  0  0  0  0  0  0  0  0
    8.6854  -14.1344   27.6680 C   0  0  0  0  0  0  0  0  0  0  0  0
    8.3356  -15.2483   28.1284 O   0  0  0  0  0  0  0  0  0  0  0  0
    9.6687  -13.4353   28.3474 O   0  0  0  0  0  0  0  0  0  0  0  0
  1  2  1  0
  2  3  1  0
  3  5  1  0
  3  4  1  6
  5  6  2  0
  8  7  1  1
  8 10  1  0
  9  8  1  0
  9  5  1  0
 10 11  2  0
 13 12  1  1
 13 15  1  0
 14 13  1  0
 15 17  1  0
 15 16  1  1
 16 10  1  0
 17 18  2  0
 17 19  1  0
M  END
$$$$
