SAV.pdb
     RDKit          3D

 19 18  0  0  1  0  0  0  0  0999 V2000
    9.7346  -12.2109   18.5480 O   0  0  0  0  0  0  0  0  0  0  0  0
    8.7612  -12.5589   19.4968 C   0  0  0  0  0  0  0  0  0  0  0  0
    8.5544  -14.0676   19.3348 C   0  0  2  0  0  0  0  0  0  0  0  0
    7.7159  -14.3046   18.1841 N   0  0  0  0  0  0  0  0  0  0  0  0
    7.9078  -14.5390   20.5848 C   0  0  0  0  0  0  0  0  0  0  0  0
    6.6821  -14.3545   20.7237 O   0  0  0  0  0  0  0  0  0  0  0  0
    8.5581  -17.1501   22.9087 C   0  0  0  0  0  0  0  0  0  0  0  0
    8.0760  -15.7172   22.8022 C   0  0  2  0  0  0  0  0  0  0  0  0
    8.6801  -15.1767   21.5764 N   0  0  0  0  0  0  0  0  0  0  0  0
    8.5481  -14.9180   23.9353 C   0  0  0  0  0  0  0  0  0  0  0  0
    9.7277  -14.4946   24.0109 O   0  0  0  0  0  0  0  0  0  0  0  0
    5.7667  -13.2250   26.6479 C   0  0  0  0  0  0  0  0  0  0  0  0
    7.1582  -12.6543   26.4589 C   0  0  2  0  0  0  0  0  0  0  0  0
    7.0661  -11.6889   25.2752 C   0  0  0  0  0  0  0  0  0  0  0  0
    8.0852  -13.7849   26.1388 C   0  0  2  0  0  0  0  0  0  0  0  0
    7.6899  -14.5789   25.0137 N   0  0  0  0  0  0  0  0  0  0  0  0
    8.3306  -14.6144   27.3432 C   0  0  0  0  0  0  0  0  0  0  0  0
    8.8565  -14.0853   28.3524 O   0  0  0  0  0  0  0  0  0  0  0  0
    8.0063  -15.9586   27.4143 O   0  0  0  0  0  0  0  0  0  0  0  0
  1  2  1  0
  2  3  1  0
  3  5  1  0
  3  4  1  6
  5  6  2  0
  8  7  1  1
  8 10  1  0
  9  8  1  0
  9  5  1  0
 10 11  2  0
 13 12  1  6
 13 15  1  0
 14 13  1  0
 15 17  1  0
 15 16  1  6
 16 10  1  0
 17 18  2  0
 17 19  1  0
M  END
$$$$
