GRR.pdb
     RDKit          3D

 27 26  0  0  1  0  0  0  0  0999 V2000
   13.5006  -18.8795   19.8924 N   0  0  0  0  0  0  0  0  0  0  0  0
   12.6807  -19.4497   20.9275 C   0  0  0  0  0  0  0  0  0  0  0  0
   11.7358  -18.4684   21.5101 C   0  0  0  0  0  0  0  0  0  0  0  0
   12.0809  -17.8715   22.5569 O   0  0  0  0  0  0  0  0  0  0  0  0
    6.8486  -12.4605   18.2764 N   0  0  0  0  0  0  0  0  0  0  0  0
    7.4619  -12.7978   19.5378 C   0  0  0  0  0  0  0  0  0  0  0  0
    7.3760  -11.9915   20.5150 N   0  0  0  0  0  0  0  0  0  0  0  0
    8.1660  -14.0230   19.7035 N   0  0  0  0  0  0  0  0  0  0  0  0
    8.0428  -15.1187   18.7731 C   0  0  0  0  0  0  0  0  0  0  0  0
    8.8714  -16.3251   19.1616 C   0  0  0  0  0  0  0  0  0  0  0  0
    8.4450  -16.9097   20.4655 C   0  0  0  0  0  0  0  0  0  0  0  0
    9.5325  -17.2484   21.4221 C   0  0  2  0  0  0  0  0  0  0  0  0
   10.4932  -18.1936   20.9367 N   0  0  0  0  0  0  0  0  0  0  0  0
    8.8625  -17.7198   22.6759 C   0  0  0  0  0  0  0  0  0  0  0  0
    8.3524  -18.8652   22.6389 O   0  0  0  0  0  0  0  0  0  0  0  0
    7.8372  -12.2144   21.4167 N   0  0  0  0  0  0  0  0  0  0  0  0
   11.0092  -15.0101   30.1556 C   0  0  0  0  0  0  0  0  0  0  0  0
   10.2444  -14.4955   29.0644 N   0  0  0  0  0  0  0  0  0  0  0  0
    9.9645  -13.2444   29.0019 N   0  0  0  0  0  0  0  0  0  0  0  0
    9.8004  -15.3968   28.0496 C   0  0  0  0  0  0  0  0  0  0  0  0
   10.4442  -16.6760   27.9167 C   0  0  0  0  0  0  0  0  0  0  0  0
    9.9418  -17.3853   26.6694 C   0  0  0  0  0  0  0  0  0  0  0  0
    8.6101  -16.8608   26.2404 C   0  0  2  0  0  0  0  0  0  0  0  0
    8.0797  -17.5349   24.9991 N   0  0  0  0  0  0  0  0  0  0  0  0
    8.7855  -16.9652   23.8431 C   0  0  0  0  0  0  0  0  0  0  0  0
    6.6451  -17.2719   24.8052 O   0  0  0  0  0  0  0  0  0  0  0  0
    6.2767  -16.3365   24.0627 O   0  0  0  0  0  0  0  0  0  0  0  0
  2  1  1  0
  3  2  1  0
  4  3  2  0
  6  8  1  0
  6  5  1  0
  7  6  2  0
  9  8  1  0
 10 11  1  0
 10  9  1  0
 12 11  1  6
 12 13  1  0
 13  3  1  0
 14 15  2  0
 14 12  1  0
 16 17  1  0
 17 18  2  0
 19 17  1  0
 19 20  1  0
 21 20  1  0
 22 21  1  0
 23 22  1  1
 23 24  1  0
 24 14  1  0
 25 27  1  0
 25 23  1  0
 26 25  2  0
M  END
$$$$
