GRR.pdb
     RDKit          3D

 27 26  0  0  1  0  0  0  0  0999 V2000
   11.9118  -17.8219   18.9391 N   0  0  0  0  0  0  0  0  0  0  0  0
   10.6057  -18.0120   19.5106 C   0  0  0  0  0  0  0  0  0  0  0  0
   10.2662  -16.9739   20.5117 C   0  0  0  0  0  0  0  0  0  0  0  0
   11.1503  -16.6421   21.3361 O   0  0  0  0  0  0  0  0  0  0  0  0
   10.8540  -13.3464   18.7492 N   0  0  0  0  0  0  0  0  0  0  0  0
    9.5366  -13.2642   18.1673 C   0  0  0  0  0  0  0  0  0  0  0  0
    9.3328  -13.7277   17.0027 N   0  0  0  0  0  0  0  0  0  0  0  0
    8.4590  -12.6676   18.8795 N   0  0  0  0  0  0  0  0  0  0  0  0
    7.3116  -13.4219   19.3219 C   0  0  0  0  0  0  0  0  0  0  0  0
    7.1852  -13.4834   20.8296 C   0  0  0  0  0  0  0  0  0  0  0  0
    7.2057  -14.8829   21.3437 C   0  0  0  0  0  0  0  0  0  0  0  0
    8.5483  -15.4756   21.5861 C   0  0  2  0  0  0  0  0  0  0  0  0
    9.0115  -16.3646   20.5629 N   0  0  0  0  0  0  0  0  0  0  0  0
    8.4812  -16.1439   22.9248 C   0  0  0  0  0  0  0  0  0  0  0  0
    7.9496  -17.2798   22.9550 O   0  0  0  0  0  0  0  0  0  0  0  0
    8.3848  -13.6876   16.5843 N   0  0  0  0  0  0  0  0  0  0  0  0
   12.3926  -17.7771   29.2159 C   0  0  0  0  0  0  0  0  0  0  0  0
   11.2387  -17.5877   30.0363 N   0  0  0  0  0  0  0  0  0  0  0  0
   10.8332  -18.5269   30.8115 N   0  0  0  0  0  0  0  0  0  0  0  0
   10.5494  -16.3385   29.9770 C   0  0  0  0  0  0  0  0  0  0  0  0
   10.5271  -15.6075   28.7385 C   0  0  0  0  0  0  0  0  0  0  0  0
    9.6937  -16.3528   27.7082 C   0  0  0  0  0  0  0  0  0  0  0  0
    9.6622  -15.6281   26.4020 C   0  0  2  0  0  0  0  0  0  0  0  0
    8.8580  -16.3453   25.3458 N   0  0  0  0  0  0  0  0  0  0  0  0
    8.9691  -15.5766   24.0985 C   0  0  0  0  0  0  0  0  0  0  0  0
    7.4297  -16.4053   25.6937 O   0  0  0  0  0  0  0  0  0  0  0  0
    6.6555  -15.5018   25.3111 O   0  0  0  0  0  0  0  0  0  0  0  0
  2  1  1  0
  3  2  1  0
  4  3  2  0
  6  8  1  0
  6  5  1  0
  7  6  2  0
  9  8  1  0
 10 11  1  0
 10  9  1  0
 12 11  1  6
 12 13  1  0
 13  3  1  0
 14 15  2  0
 14 12  1  0
 16 17  1  0
 17 18  2  0
 19 17  1  0
 19 20  1  0
 21 20  1  0
 22 21  1  0
 23 22  1  6
 23 24  1  0
 24 14  1  0
 25 27  1  0
 25 23  1  0
 26 25  2  0
M  END
$$$$
