GRR.pdb
     RDKit          3D

 27 26  0  0  1  0  0  0  0  0999 V2000
    4.4457  -21.7675   23.5106 N   0  0  0  0  0  0  0  0  0  0  0  0
    4.6335  -20.4210   23.9802 C   0  0  0  0  0  0  0  0  0  0  0  0
    5.7669  -19.7388   23.3130 C   0  0  0  0  0  0  0  0  0  0  0  0
    6.5994  -20.4471   22.6995 O   0  0  0  0  0  0  0  0  0  0  0  0
    6.6441  -12.7464   18.4401 N   0  0  0  0  0  0  0  0  0  0  0  0
    7.9903  -13.1654   18.7455 C   0  0  0  0  0  0  0  0  0  0  0  0
    8.9382  -12.8621   17.9567 N   0  0  0  0  0  0  0  0  0  0  0  0
    8.2727  -13.9177   19.9196 N   0  0  0  0  0  0  0  0  0  0  0  0
    7.2468  -14.6095   20.6613 C   0  0  0  0  0  0  0  0  0  0  0  0
    7.7879  -15.3836   21.8449 C   0  0  0  0  0  0  0  0  0  0  0  0
    6.7276  -16.1651   22.5439 C   0  0  0  0  0  0  0  0  0  0  0  0
    6.9945  -17.6164   22.7305 C   0  0  2  0  0  0  0  0  0  0  0  0
    5.9320  -18.3532   23.3471 N   0  0  0  0  0  0  0  0  0  0  0  0
    8.2724  -17.7162   23.5051 C   0  0  0  0  0  0  0  0  0  0  0  0
    8.1884  -17.5414   24.7445 O   0  0  0  0  0  0  0  0  0  0  0  0
    9.8975  -13.2132   18.1356 N   0  0  0  0  0  0  0  0  0  0  0  0
   15.4597  -21.9577   21.6473 C   0  0  0  0  0  0  0  0  0  0  0  0
   15.7808  -21.4215   22.9317 N   0  0  0  0  0  0  0  0  0  0  0  0
   16.8636  -21.7688   23.5269 N   0  0  0  0  0  0  0  0  0  0  0  0
   14.8774  -20.4956   23.5365 C   0  0  0  0  0  0  0  0  0  0  0  0
   13.4707  -20.7949   23.5503 C   0  0  0  0  0  0  0  0  0  0  0  0
   12.6918  -19.6133   24.1058 C   0  0  0  0  0  0  0  0  0  0  0  0
   11.4651  -19.3382   23.2981 C   0  0  1  0  0  0  0  0  0  0  0  0
   10.6711  -18.1613   23.8090 N   0  0  0  0  0  0  0  0  0  0  0  0
    9.5092  -17.9872   22.9266 C   0  0  0  0  0  0  0  0  0  0  0  0
   11.4485  -16.9132   23.7553 O   0  0  0  0  0  0  0  0  0  0  0  0
   11.3160  -16.1366   22.7851 O   0  0  0  0  0  0  0  0  0  0  0  0
  2  1  1  0
  3  2  1  0
  4  3  2  0
  6  8  1  0
  6  5  1  0
  7  6  2  0
  9  8  1  0
 10 11  1  0
 10  9  1  0
 12 11  1  1
 12 13  1  0
 13  3  1  0
 14 15  2  0
 14 12  1  0
 16 17  1  0
 17 18  2  0
 19 17  1  0
 19 20  1  0
 21 20  1  0
 22 21  1  0
 23 22  1  1
 23 24  1  0
 24 14  1  0
 25 27  1  0
 25 23  1  0
 26 25  2  0
M  END
$$$$
