GRR.pdb
     RDKit          3D

 27 26  0  0  1  0  0  0  0  0999 V2000
    7.4915  -25.1255   20.2559 N   0  0  0  0  0  0  0  0  0  0  0  0
    7.8237  -23.7471   20.4973 C   0  0  0  0  0  0  0  0  0  0  0  0
    9.2306  -23.5677   20.9260 C   0  0  0  0  0  0  0  0  0  0  0  0
    9.8149  -24.5469   21.4466 O   0  0  0  0  0  0  0  0  0  0  0  0
   13.4534  -20.8776   14.8518 N   0  0  0  0  0  0  0  0  0  0  0  0
   13.3961  -20.8779   16.2933 C   0  0  0  0  0  0  0  0  0  0  0  0
   13.9191  -21.8349   16.9438 N   0  0  0  0  0  0  0  0  0  0  0  0
   12.7584  -19.8201   16.9994 N   0  0  0  0  0  0  0  0  0  0  0  0
   12.6830  -19.7857   18.4397 C   0  0  0  0  0  0  0  0  0  0  0  0
   11.9661  -20.9834   19.0267 C   0  0  0  0  0  0  0  0  0  0  0  0
   11.9047  -20.9338   20.5157 C   0  0  0  0  0  0  0  0  0  0  0  0
   11.2569  -22.0924   21.1869 C   0  0  2  0  0  0  0  0  0  0  0  0
    9.9130  -22.3602   20.7695 N   0  0  0  0  0  0  0  0  0  0  0  0
   11.3486  -21.8348   22.6594 C   0  0  0  0  0  0  0  0  0  0  0  0
   10.5674  -20.9702   23.1240 O   0  0  0  0  0  0  0  0  0  0  0  0
   13.9454  -21.8076   17.9802 N   0  0  0  0  0  0  0  0  0  0  0  0
   10.0963  -28.3742   26.6632 C   0  0  0  0  0  0  0  0  0  0  0  0
    9.4894  -27.2503   27.3027 N   0  0  0  0  0  0  0  0  0  0  0  0
    8.8246  -27.4041   28.3898 N   0  0  0  0  0  0  0  0  0  0  0  0
    9.6372  -25.9591   26.7112 C   0  0  0  0  0  0  0  0  0  0  0  0
   10.9433  -25.3598   26.6517 C   0  0  0  0  0  0  0  0  0  0  0  0
   10.8774  -24.0394   25.9011 C   0  0  0  0  0  0  0  0  0  0  0  0
   12.2364  -23.4465   25.7163 C   0  0  2  0  0  0  0  0  0  0  0  0
   12.2183  -22.1549   24.9365 N   0  0  0  0  0  0  0  0  0  0  0  0
   12.2345  -22.4939   23.5069 C   0  0  0  0  0  0  0  0  0  0  0  0
   13.4131  -21.3389   25.2034 O   0  0  0  0  0  0  0  0  0  0  0  0
   14.1685  -21.0120   24.2629 O   0  0  0  0  0  0  0  0  0  0  0  0
  2  1  1  0
  3  2  1  0
  4  3  2  0
  6  8  1  0
  6  5  1  0
  7  6  2  0
  9  8  1  0
 10 11  1  0
 10  9  1  0
 12 11  1  6
 12 13  1  0
 13  3  1  0
 14 15  2  0
 14 12  1  0
 16 17  1  0
 17 18  2  0
 19 17  1  0
 19 20  1  0
 21 20  1  0
 22 21  1  0
 23 22  1  6
 23 24  1  0
 24 14  1  0
 25 27  1  0
 25 23  1  0
 26 25  2  0
M  END
$$$$
