GRR.pdb
     RDKit          3D

 27 26  0  0  1  0  0  0  0  0999 V2000
    8.0561  -12.3757   17.9704 N   0  0  0  0  0  0  0  0  0  0  0  0
    8.9079  -13.5208   18.1491 C   0  0  0  0  0  0  0  0  0  0  0  0
    8.4376  -14.4161   19.2318 C   0  0  0  0  0  0  0  0  0  0  0  0
    7.5894  -13.9670   20.0380 O   0  0  0  0  0  0  0  0  0  0  0  0
    5.8205  -21.0814   21.4778 N   0  0  0  0  0  0  0  0  0  0  0  0
    6.9423  -21.5535   22.2521 C   0  0  0  0  0  0  0  0  0  0  0  0
    6.7449  -22.0743   23.3933 N   0  0  0  0  0  0  0  0  0  0  0  0
    8.2712  -21.4421   21.7560 N   0  0  0  0  0  0  0  0  0  0  0  0
    8.6424  -20.4815   20.7458 C   0  0  0  0  0  0  0  0  0  0  0  0
    8.4253  -19.0472   21.1803 C   0  0  0  0  0  0  0  0  0  0  0  0
    8.8072  -18.0698   20.1208 C   0  0  0  0  0  0  0  0  0  0  0  0
    8.5349  -16.6379   20.4171 C   0  0  2  0  0  0  0  0  0  0  0  0
    8.9038  -15.7237   19.3779 N   0  0  0  0  0  0  0  0  0  0  0  0
    9.2296  -16.3328   21.7084 C   0  0  0  0  0  0  0  0  0  0  0  0
   10.4814  -16.2632   21.6654 O   0  0  0  0  0  0  0  0  0  0  0  0
    7.5441  -22.4366   23.9461 N   0  0  0  0  0  0  0  0  0  0  0  0
    4.7674  -11.9176   26.7951 C   0  0  0  0  0  0  0  0  0  0  0  0
    6.1731  -11.7119   26.9444 N   0  0  0  0  0  0  0  0  0  0  0  0
    6.6204  -10.9311   27.8598 N   0  0  0  0  0  0  0  0  0  0  0  0
    7.0658  -12.3896   26.0595 C   0  0  0  0  0  0  0  0  0  0  0  0
    6.5343  -13.0544   24.9002 C   0  0  0  0  0  0  0  0  0  0  0  0
    7.6618  -13.6826   24.0968 C   0  0  0  0  0  0  0  0  0  0  0  0
    8.3602  -14.7494   24.8757 C   0  0  2  0  0  0  0  0  0  0  0  0
    9.3203  -15.5603   24.0406 N   0  0  0  0  0  0  0  0  0  0  0  0
    8.5661  -16.1285   22.9149 C   0  0  0  0  0  0  0  0  0  0  0  0
    9.8857  -16.6877   24.7983 O   0  0  0  0  0  0  0  0  0  0  0  0
    9.3842  -17.8272   24.6890 O   0  0  0  0  0  0  0  0  0  0  0  0
  2  1  1  0
  3  2  1  0
  4  3  2  0
  6  8  1  0
  6  5  1  0
  7  6  2  0
  9  8  1  0
 10 11  1  0
 10  9  1  0
 12 11  1  6
 12 13  1  0
 13  3  1  0
 14 15  2  0
 14 12  1  0
 16 17  1  0
 17 18  2  0
 19 17  1  0
 19 20  1  0
 21 20  1  0
 22 21  1  0
 23 22  1  6
 23 24  1  0
 24 14  1  0
 25 27  1  0
 25 23  1  0
 26 25  2  0
M  END
$$$$
