GRR.pdb
     RDKit          3D

 27 26  0  0  1  0  0  0  0  0999 V2000
    4.8202  -19.0624   24.0284 N   0  0  0  0  0  0  0  0  0  0  0  0
    5.0318  -17.6481   23.8750 C   0  0  0  0  0  0  0  0  0  0  0  0
    6.3338  -17.3331   23.2421 C   0  0  0  0  0  0  0  0  0  0  0  0
    7.2004  -18.2378   23.2006 O   0  0  0  0  0  0  0  0  0  0  0  0
    9.9280  -14.5580   17.9292 N   0  0  0  0  0  0  0  0  0  0  0  0
    8.6051  -13.9978   17.7987 C   0  0  0  0  0  0  0  0  0  0  0  0
    7.8537  -14.3732   16.8463 N   0  0  0  0  0  0  0  0  0  0  0  0
    8.1286  -13.0261   18.7224 N   0  0  0  0  0  0  0  0  0  0  0  0
    6.8500  -13.1446   19.3799 C   0  0  0  0  0  0  0  0  0  0  0  0
    6.7393  -14.3811   20.2471 C   0  0  0  0  0  0  0  0  0  0  0  0
    7.7986  -14.4353   21.2952 C   0  0  0  0  0  0  0  0  0  0  0  0
    7.8601  -15.6813   22.1051 C   0  0  2  0  0  0  0  0  0  0  0  0
    6.6191  -16.0790   22.6997 N   0  0  0  0  0  0  0  0  0  0  0  0
    8.9325  -15.4689   23.1288 C   0  0  0  0  0  0  0  0  0  0  0  0
    8.6367  -14.7349   24.1022 O   0  0  0  0  0  0  0  0  0  0  0  0
    6.8884  -14.0024   16.7668 N   0  0  0  0  0  0  0  0  0  0  0  0
   10.3070  -14.2145   28.1300 C   0  0  0  0  0  0  0  0  0  0  0  0
   10.2141  -15.1851   29.1740 N   0  0  0  0  0  0  0  0  0  0  0  0
   10.2076  -14.8161   30.4033 N   0  0  0  0  0  0  0  0  0  0  0  0
   10.1285  -16.5668   28.8237 C   0  0  0  0  0  0  0  0  0  0  0  0
   10.8248  -17.0394   27.6574 C   0  0  0  0  0  0  0  0  0  0  0  0
   10.1680  -16.4916   26.4004 C   0  0  0  0  0  0  0  0  0  0  0  0
   10.8746  -16.9542   25.1678 C   0  0  2  0  0  0  0  0  0  0  0  0
   11.1246  -15.8444   24.1765 N   0  0  0  0  0  0  0  0  0  0  0  0
   10.2020  -16.0342   23.0488 C   0  0  0  0  0  0  0  0  0  0  0  0
   12.4911  -15.8947   23.6334 O   0  0  0  0  0  0  0  0  0  0  0  0
   12.7016  -16.4243   22.5211 O   0  0  0  0  0  0  0  0  0  0  0  0
  2  1  1  0
  3  2  1  0
  4  3  2  0
  6  8  1  0
  6  5  1  0
  7  6  2  0
  9  8  1  0
 10 11  1  0
 10  9  1  0
 12 11  1  1
 12 13  1  0
 13  3  1  0
 14 15  2  0
 14 12  1  0
 16 17  1  0
 17 18  2  0
 19 17  1  0
 19 20  1  0
 21 20  1  0
 22 21  1  0
 23 22  1  1
 23 24  1  0
 24 14  1  0
 25 27  1  0
 25 23  1  0
 26 25  2  0
M  END
$$$$
