GRR.pdb
     RDKit          3D

 27 26  0  0  1  0  0  0  0  0999 V2000
    4.1834  -20.9622   20.9460 N   0  0  0  0  0  0  0  0  0  0  0  0
    5.2559  -20.9036   21.9025 C   0  0  0  0  0  0  0  0  0  0  0  0
    5.3101  -19.6072   22.6177 C   0  0  0  0  0  0  0  0  0  0  0  0
    4.6462  -18.6516   22.1516 O   0  0  0  0  0  0  0  0  0  0  0  0
   10.6292  -20.9307   28.1813 N   0  0  0  0  0  0  0  0  0  0  0  0
    9.2122  -20.7255   28.3577 C   0  0  0  0  0  0  0  0  0  0  0  0
    8.4157  -21.7088   28.2509 N   0  0  0  0  0  0  0  0  0  0  0  0
    8.6915  -19.4337   28.6480 N   0  0  0  0  0  0  0  0  0  0  0  0
    7.4700  -18.9411   28.0592 C   0  0  0  0  0  0  0  0  0  0  0  0
    7.5184  -18.8869   26.5466 C   0  0  0  0  0  0  0  0  0  0  0  0
    6.2776  -18.3035   25.9602 C   0  0  0  0  0  0  0  0  0  0  0  0
    6.2425  -18.1856   24.4779 C   0  0  2  0  0  0  0  0  0  0  0  0
    6.0664  -19.4219   23.7761 N   0  0  0  0  0  0  0  0  0  0  0  0
    7.5050  -17.4860   24.0783 C   0  0  0  0  0  0  0  0  0  0  0  0
    8.5016  -18.2157   23.8594 O   0  0  0  0  0  0  0  0  0  0  0  0
    7.3905  -21.5527   28.2622 N   0  0  0  0  0  0  0  0  0  0  0  0
    9.7269  -13.9753   18.7480 C   0  0  0  0  0  0  0  0  0  0  0  0
    8.3692  -13.7207   18.3845 N   0  0  0  0  0  0  0  0  0  0  0  0
    7.9873  -13.8584   17.1669 N   0  0  0  0  0  0  0  0  0  0  0  0
    7.4501  -13.3126   19.3984 C   0  0  0  0  0  0  0  0  0  0  0  0
    7.9333  -13.0885   20.7344 C   0  0  0  0  0  0  0  0  0  0  0  0
    8.3061  -14.4121   21.3828 C   0  0  0  0  0  0  0  0  0  0  0  0
    8.6440  -14.2376   22.8278 C   0  0  2  0  0  0  0  0  0  0  0  0
    8.9104  -15.5431   23.5358 N   0  0  0  0  0  0  0  0  0  0  0  0
    7.6151  -16.1050   23.9427 C   0  0  0  0  0  0  0  0  0  0  0  0
    9.7037  -15.3490   24.7596 O   0  0  0  0  0  0  0  0  0  0  0  0
    9.1343  -15.2969   25.8709 O   0  0  0  0  0  0  0  0  0  0  0  0
  2  1  1  0
  3  2  1  0
  4  3  2  0
  6  8  1  0
  6  5  1  0
  7  6  2  0
  9  8  1  0
 10 11  1  0
 10  9  1  0
 12 11  1  1
 12 13  1  0
 13  3  1  0
 14 15  2  0
 14 12  1  0
 16 17  1  0
 17 18  2  0
 19 17  1  0
 19 20  1  0
 21 20  1  0
 22 21  1  0
 23 22  1  6
 23 24  1  0
 24 14  1  0
 25 27  1  0
 25 23  1  0
 26 25  2  0
M  END
$$$$
