GRR.pdb
     RDKit          3D

 27 26  0  0  1  0  0  0  0  0999 V2000
    8.0338  -21.6611   18.7404 N   0  0  0  0  0  0  0  0  0  0  0  0
    7.5318  -20.9941   19.9115 C   0  0  0  0  0  0  0  0  0  0  0  0
    8.3998  -19.8739   20.3441 C   0  0  0  0  0  0  0  0  0  0  0  0
    9.5648  -19.8228   19.8845 O   0  0  0  0  0  0  0  0  0  0  0  0
    8.1813  -13.6175   18.8909 N   0  0  0  0  0  0  0  0  0  0  0  0
    8.2390  -12.6613   19.9694 C   0  0  0  0  0  0  0  0  0  0  0  0
    8.7557  -11.5185   19.7705 N   0  0  0  0  0  0  0  0  0  0  0  0
    7.7264  -12.9810   21.2576 N   0  0  0  0  0  0  0  0  0  0  0  0
    7.1748  -14.2765   21.5717 C   0  0  0  0  0  0  0  0  0  0  0  0
    8.0799  -15.4219   21.1695 C   0  0  0  0  0  0  0  0  0  0  0  0
    7.9708  -16.5837   22.0979 C   0  0  0  0  0  0  0  0  0  0  0  0
    8.7478  -17.7970   21.7283 C   0  0  2  0  0  0  0  0  0  0  0  0
    7.9652  -18.8900   21.2337 N   0  0  0  0  0  0  0  0  0  0  0  0
    9.5429  -18.1763   22.9395 C   0  0  0  0  0  0  0  0  0  0  0  0
    8.9151  -18.7503   23.8615 O   0  0  0  0  0  0  0  0  0  0  0  0
    8.7601  -10.8096   20.5275 N   0  0  0  0  0  0  0  0  0  0  0  0
   17.7937  -19.0944   22.1209 C   0  0  0  0  0  0  0  0  0  0  0  0
   16.9518  -20.1480   21.6503 N   0  0  0  0  0  0  0  0  0  0  0  0
   17.4302  -21.0754   20.9029 N   0  0  0  0  0  0  0  0  0  0  0  0
   15.5743  -20.1488   22.0269 C   0  0  0  0  0  0  0  0  0  0  0  0
   15.0955  -19.1442   22.9379 C   0  0  0  0  0  0  0  0  0  0  0  0
   13.6037  -19.3208   23.1716 C   0  0  0  0  0  0  0  0  0  0  0  0
   13.0646  -18.2687   24.0854 C   0  0  2  0  0  0  0  0  0  0  0  0
   11.5762  -18.3817   24.3061 N   0  0  0  0  0  0  0  0  0  0  0  0
   10.9053  -17.9279   23.0801 C   0  0  0  0  0  0  0  0  0  0  0  0
   11.1185  -17.5106   25.4000 O   0  0  0  0  0  0  0  0  0  0  0  0
   10.6211  -16.3935   25.1418 O   0  0  0  0  0  0  0  0  0  0  0  0
  2  1  1  0
  3  2  1  0
  4  3  2  0
  6  8  1  0
  6  5  1  0
  7  6  2  0
  9  8  1  0
 10 11  1  0
 10  9  1  0
 12 11  1  1
 12 13  1  0
 13  3  1  0
 14 15  2  0
 14 12  1  0
 16 17  1  0
 17 18  2  0
 19 17  1  0
 19 20  1  0
 21 20  1  0
 22 21  1  0
 23 22  1  6
 23 24  1  0
 24 14  1  0
 25 27  1  0
 25 23  1  0
 26 25  2  0
M  END
$$$$
