GRR.pdb
     RDKit          3D

 27 26  0  0  1  0  0  0  0  0999 V2000
    9.6631  -17.0012   15.1349 N   0  0  0  0  0  0  0  0  0  0  0  0
   10.9255  -17.0305   15.8234 C   0  0  0  0  0  0  0  0  0  0  0  0
   10.8363  -17.6904   17.1469 C   0  0  0  0  0  0  0  0  0  0  0  0
    9.7086  -17.7702   17.6882 O   0  0  0  0  0  0  0  0  0  0  0  0
   14.5713  -24.6921   16.6325 N   0  0  0  0  0  0  0  0  0  0  0  0
   14.1884  -23.6015   17.4957 C   0  0  0  0  0  0  0  0  0  0  0  0
   13.0054  -23.5471   17.9541 N   0  0  0  0  0  0  0  0  0  0  0  0
   15.1183  -22.5814   17.8405 N   0  0  0  0  0  0  0  0  0  0  0  0
   14.7909  -21.5109   18.7505 C   0  0  0  0  0  0  0  0  0  0  0  0
   13.4654  -20.8489   18.4380 C   0  0  0  0  0  0  0  0  0  0  0  0
   13.1818  -19.6946   19.3385 C   0  0  0  0  0  0  0  0  0  0  0  0
   11.9463  -18.9197   19.0463 C   0  0  2  0  0  0  0  0  0  0  0  0
   11.9530  -18.2173   17.7979 N   0  0  0  0  0  0  0  0  0  0  0  0
   11.7383  -17.9992   20.2093 C   0  0  0  0  0  0  0  0  0  0  0  0
   12.5153  -17.0177   20.2896 O   0  0  0  0  0  0  0  0  0  0  0  0
   12.7239  -22.7688   18.5790 N   0  0  0  0  0  0  0  0  0  0  0  0
    8.4106  -11.1776   19.6952 C   0  0  0  0  0  0  0  0  0  0  0  0
    8.3052  -12.5869   19.9032 N   0  0  0  0  0  0  0  0  0  0  0  0
    8.6053  -13.4054   18.9611 N   0  0  0  0  0  0  0  0  0  0  0  0
    7.8622  -13.0639   21.1742 C   0  0  0  0  0  0  0  0  0  0  0  0
    7.7911  -14.4816   21.4056 C   0  0  0  0  0  0  0  0  0  0  0  0
    9.1770  -15.0314   21.7030 C   0  0  0  0  0  0  0  0  0  0  0  0
    9.1540  -16.5170   21.8611 C   0  0  2  0  0  0  0  0  0  0  0  0
   10.5149  -17.1037   22.1446 N   0  0  0  0  0  0  0  0  0  0  0  0
   10.7503  -18.1805   21.1729 C   0  0  0  0  0  0  0  0  0  0  0  0
   10.5817  -17.7058   23.4854 O   0  0  0  0  0  0  0  0  0  0  0  0
   10.5195  -16.9787   24.5000 O   0  0  0  0  0  0  0  0  0  0  0  0
  2  1  1  0
  3  2  1  0
  4  3  2  0
  6  8  1  0
  6  5  1  0
  7  6  2  0
  9  8  1  0
 10 11  1  0
 10  9  1  0
 12 11  1  1
 12 13  1  0
 13  3  1  0
 14 15  2  0
 14 12  1  0
 16 17  1  0
 17 18  2  0
 19 17  1  0
 19 20  1  0
 21 20  1  0
 22 21  1  0
 23 22  1  6
 23 24  1  0
 24 14  1  0
 25 27  1  0
 25 23  1  0
 26 25  2  0
M  END
$$$$
