GRR.pdb
     RDKit          3D

 27 26  0  0  1  0  0  0  0  0999 V2000
    1.4369  -28.9232   15.9857 N   0  0  0  0  0  0  0  0  0  0  0  0
    1.0100  -28.0283   17.0276 C   0  0  0  0  0  0  0  0  0  0  0  0
    2.0286  -27.0013   17.3483 C   0  0  0  0  0  0  0  0  0  0  0  0
    3.2363  -27.3158   17.2307 O   0  0  0  0  0  0  0  0  0  0  0  0
    3.6728  -20.0716   20.1543 N   0  0  0  0  0  0  0  0  0  0  0  0
    2.2735  -19.9121   19.8419 C   0  0  0  0  0  0  0  0  0  0  0  0
    1.4722  -19.4984   20.7360 N   0  0  0  0  0  0  0  0  0  0  0  0
    1.7755  -20.2144   18.5439 N   0  0  0  0  0  0  0  0  0  0  0  0
    2.5810  -20.8614   17.5370 C   0  0  0  0  0  0  0  0  0  0  0  0
    3.1272  -22.2015   17.9826 C   0  0  0  0  0  0  0  0  0  0  0  0
    2.1162  -23.2918   17.8699 C   0  0  0  0  0  0  0  0  0  0  0  0
    2.6070  -24.6733   18.1205 C   0  0  2  0  0  0  0  0  0  0  0  0
    1.6884  -25.7152   17.7705 N   0  0  0  0  0  0  0  0  0  0  0  0
    2.9977  -24.7288   19.5652 C   0  0  0  0  0  0  0  0  0  0  0  0
    2.0716  -24.9358   20.3858 O   0  0  0  0  0  0  0  0  0  0  0  0
    0.4738  -19.3369   20.5066 N   0  0  0  0  0  0  0  0  0  0  0  0
   10.8354  -26.3724   22.3450 C   0  0  0  0  0  0  0  0  0  0  0  0
    9.9634  -27.1014   23.2102 N   0  0  0  0  0  0  0  0  0  0  0  0
   10.4068  -28.0967   23.8888 N   0  0  0  0  0  0  0  0  0  0  0  0
    8.5957  -26.7018   23.3048 C   0  0  0  0  0  0  0  0  0  0  0  0
    8.0621  -25.7897   22.3293 C   0  0  0  0  0  0  0  0  0  0  0  0
    6.6158  -25.4589   22.6611 C   0  0  0  0  0  0  0  0  0  0  0  0
    6.0391  -24.4858   21.6847 C   0  0  2  0  0  0  0  0  0  0  0  0
    4.5586  -24.6752   21.4639 N   0  0  0  0  0  0  0  0  0  0  0  0
    4.3029  -24.5668   20.0210 C   0  0  0  0  0  0  0  0  0  0  0  0
    3.7689  -23.6247   22.1254 O   0  0  0  0  0  0  0  0  0  0  0  0
    3.6326  -22.5089   21.5792 O   0  0  0  0  0  0  0  0  0  0  0  0
  2  1  1  0
  3  2  1  0
  4  3  2  0
  6  8  1  0
  6  5  1  0
  7  6  2  0
  9  8  1  0
 10 11  1  0
 10  9  1  0
 12 11  1  1
 12 13  1  0
 13  3  1  0
 14 15  2  0
 14 12  1  0
 16 17  1  0
 17 18  2  0
 19 17  1  0
 19 20  1  0
 21 20  1  0
 22 21  1  0
 23 22  1  6
 23 24  1  0
 24 14  1  0
 25 27  1  0
 25 23  1  0
 26 25  2  0
M  END
$$$$
