GRR.pdb
     RDKit          3D

 27 26  0  0  1  0  0  0  0  0999 V2000
    8.1515  -22.4229   17.8941 N   0  0  0  0  0  0  0  0  0  0  0  0
    7.9506  -21.5641   19.0302 C   0  0  0  0  0  0  0  0  0  0  0  0
    8.4290  -20.1824   18.7905 C   0  0  0  0  0  0  0  0  0  0  0  0
    9.2994  -20.0079   17.9055 O   0  0  0  0  0  0  0  0  0  0  0  0
    8.5870  -12.7446   22.0186 N   0  0  0  0  0  0  0  0  0  0  0  0
    7.9985  -12.1881   20.8249 C   0  0  0  0  0  0  0  0  0  0  0  0
    8.2866  -11.0018   20.4752 N   0  0  0  0  0  0  0  0  0  0  0  0
    7.0955  -12.9498   20.0320 N   0  0  0  0  0  0  0  0  0  0  0  0
    6.7984  -14.3338   20.3106 C   0  0  0  0  0  0  0  0  0  0  0  0
    7.8428  -15.2871   19.7689 C   0  0  0  0  0  0  0  0  0  0  0  0
    7.4599  -16.7156   19.9598 C   0  0  0  0  0  0  0  0  0  0  0  0
    8.3667  -17.7269   19.3538 C   0  0  2  0  0  0  0  0  0  0  0  0
    7.9467  -19.0875   19.5094 N   0  0  0  0  0  0  0  0  0  0  0  0
    9.7233  -17.4856   19.9408 C   0  0  0  0  0  0  0  0  0  0  0  0
    9.9975  -18.1172   20.9894 O   0  0  0  0  0  0  0  0  0  0  0  0
    7.8595  -10.5911   19.6241 N   0  0  0  0  0  0  0  0  0  0  0  0
   16.6487  -12.6403   17.5017 C   0  0  0  0  0  0  0  0  0  0  0  0
   17.1060  -13.9888   17.6153 N   0  0  0  0  0  0  0  0  0  0  0  0
   18.2435  -14.3308   17.1288 N   0  0  0  0  0  0  0  0  0  0  0  0
   16.2763  -14.9435   18.2781 C   0  0  0  0  0  0  0  0  0  0  0  0
   15.0224  -14.5151   18.8373 C   0  0  0  0  0  0  0  0  0  0  0  0
   14.3089  -15.6932   19.4810 C   0  0  0  0  0  0  0  0  0  0  0  0
   12.8922  -15.7949   19.0172 C   0  0  1  0  0  0  0  0  0  0  0  0
   12.0301  -16.6356   19.9263 N   0  0  0  0  0  0  0  0  0  0  0  0
   10.6625  -16.6191   19.3891 C   0  0  0  0  0  0  0  0  0  0  0  0
   11.9690  -16.0812   21.2878 O   0  0  0  0  0  0  0  0  0  0  0  0
   11.0952  -15.2365   21.5791 O   0  0  0  0  0  0  0  0  0  0  0  0
  2  1  1  0
  3  2  1  0
  4  3  2  0
  6  8  1  0
  6  5  1  0
  7  6  2  0
  9  8  1  0
 10 11  1  0
 10  9  1  0
 12 11  1  1
 12 13  1  0
 13  3  1  0
 14 15  2  0
 14 12  1  0
 16 17  1  0
 17 18  2  0
 19 17  1  0
 19 20  1  0
 21 20  1  0
 22 21  1  0
 23 22  1  6
 23 24  1  0
 24 14  1  0
 25 27  1  0
 25 23  1  0
 26 25  2  0
M  END
$$$$
