GRR.pdb
     RDKit          3D

 27 26  0  0  1  0  0  0  0  0999 V2000
    2.1599  -20.0113   21.9552 N   0  0  0  0  0  0  0  0  0  0  0  0
    2.5984  -18.6821   22.2864 C   0  0  0  0  0  0  0  0  0  0  0  0
    4.0743  -18.5698   22.3518 C   0  0  0  0  0  0  0  0  0  0  0  0
    4.7479  -19.6222   22.2530 O   0  0  0  0  0  0  0  0  0  0  0  0
    7.8153  -11.7488   19.6873 N   0  0  0  0  0  0  0  0  0  0  0  0
    8.0948  -13.0834   19.2164 C   0  0  0  0  0  0  0  0  0  0  0  0
    8.1918  -13.3035   17.9695 N   0  0  0  0  0  0  0  0  0  0  0  0
    8.2617  -14.1608   20.1305 N   0  0  0  0  0  0  0  0  0  0  0  0
    7.9815  -15.5300   19.7728 C   0  0  0  0  0  0  0  0  0  0  0  0
    6.6736  -16.0380   20.3423 C   0  0  0  0  0  0  0  0  0  0  0  0
    6.6266  -15.9398   21.8295 C   0  0  0  0  0  0  0  0  0  0  0  0
    6.1436  -17.1458   22.5539 C   0  0  2  0  0  0  0  0  0  0  0  0
    4.7257  -17.3465   22.5176 N   0  0  0  0  0  0  0  0  0  0  0  0
    6.6609  -17.0342   23.9550 C   0  0  0  0  0  0  0  0  0  0  0  0
    5.9998  -16.3102   24.7375 O   0  0  0  0  0  0  0  0  0  0  0  0
    8.3905  -14.2606   17.6231 N   0  0  0  0  0  0  0  0  0  0  0  0
   11.2237  -22.1538   29.7898 C   0  0  0  0  0  0  0  0  0  0  0  0
   10.2196  -21.3024   30.3443 N   0  0  0  0  0  0  0  0  0  0  0  0
    9.6413  -21.6149   31.4468 N   0  0  0  0  0  0  0  0  0  0  0  0
    9.8747  -20.1026   29.6509 C   0  0  0  0  0  0  0  0  0  0  0  0
    9.2822  -20.1934   28.3435 C   0  0  0  0  0  0  0  0  0  0  0  0
    9.0666  -18.8015   27.7711 C   0  0  0  0  0  0  0  0  0  0  0  0
    8.4970  -18.8596   26.3910 C   0  0  1  0  0  0  0  0  0  0  0  0
    8.2012  -17.4971   25.8144 N   0  0  0  0  0  0  0  0  0  0  0  0
    7.8066  -17.6801   24.4109 C   0  0  0  0  0  0  0  0  0  0  0  0
    9.3903  -16.6307   25.8222 O   0  0  0  0  0  0  0  0  0  0  0  0
   10.0130  -16.4157   24.7600 O   0  0  0  0  0  0  0  0  0  0  0  0
  2  1  1  0
  3  2  1  0
  4  3  2  0
  6  8  1  0
  6  5  1  0
  7  6  2  0
  9  8  1  0
 10 11  1  0
 10  9  1  0
 12 11  1  6
 12 13  1  0
 13  3  1  0
 14 15  2  0
 14 12  1  0
 16 17  1  0
 17 18  2  0
 19 17  1  0
 19 20  1  0
 21 20  1  0
 22 21  1  0
 23 22  1  1
 23 24  1  0
 24 14  1  0
 25 27  1  0
 25 23  1  0
 26 25  2  0
M  END
$$$$
