EKD.pdb
     RDKit          3D

 27 26  0  0  1  0  0  0  0  0999 V2000
    7.1902  -18.5684   20.6681 N   0  0  0  0  0  0  0  0  0  0  0  0
    8.5677  -18.1912   20.5404 C   0  0  1  0  0  0  0  0  0  0  0  0
    8.9344  -17.8546   19.1251 C   0  0  0  0  0  0  0  0  0  0  0  0
    8.7837  -16.3345   18.9825 C   0  0  0  0  0  0  0  0  0  0  0  0
    9.1262  -15.9081   17.6143 C   0  0  0  0  0  0  0  0  0  0  0  0
    9.9635  -15.0047   17.4407 O   0  0  0  0  0  0  0  0  0  0  0  0
    8.9630  -17.1646   21.5187 C   0  0  0  0  0  0  0  0  0  0  0  0
   10.1180  -16.6986   21.6410 O   0  0  0  0  0  0  0  0  0  0  0  0
    8.5201  -16.5097   16.5291 O   0  0  0  0  0  0  0  0  0  0  0  0
    7.9427  -16.6603   22.4002 N   0  0  0  0  0  0  0  0  0  0  0  0
    8.3042  -15.7353   23.4586 C   0  0  1  0  0  0  0  0  0  0  0  0
    7.1429  -14.8908   23.9322 C   0  0  0  0  0  0  0  0  0  0  0  0
    7.6275  -13.9690   25.0104 C   0  0  0  0  0  0  0  0  0  0  0  0
    6.5720  -12.9950   25.4840 C   0  0  0  0  0  0  0  0  0  0  0  0
    7.1380  -12.0516   26.4972 C   0  0  0  0  0  0  0  0  0  0  0  0
    6.1565  -11.0797   26.9342 N   0  0  0  0  0  0  0  0  0  0  0  0
    8.7931  -16.5019   24.6437 C   0  0  0  0  0  0  0  0  0  0  0  0
    8.0112  -17.3658   25.1316 O   0  0  0  0  0  0  0  0  0  0  0  0
   10.0636  -16.2952   25.2146 N   0  0  0  0  0  0  0  0  0  0  0  0
   10.5626  -17.2635   26.1653 C   0  0  1  0  0  0  0  0  0  0  0  0
   11.9884  -17.6876   25.8048 C   0  0  0  0  0  0  0  0  0  0  0  0
   12.4428  -18.7123   26.7721 C   0  0  0  0  0  0  0  0  0  0  0  0
   11.7491  -19.7051   27.0574 O   0  0  0  0  0  0  0  0  0  0  0  0
   10.5409  -16.7005   27.5244 C   0  0  0  0  0  0  0  0  0  0  0  0
   10.4969  -15.4601   27.6755 O   0  0  0  0  0  0  0  0  0  0  0  0
   13.6965  -18.5557   27.3847 O   0  0  0  0  0  0  0  0  0  0  0  0
   10.5690  -17.5249   28.6127 O   0  0  0  0  0  0  0  0  0  0  0  0
  2  1  1  6
  2  7  1  0
  2  3  1  0
  4  3  1  0
  4  5  1  0
  5  6  2  0
  7  8  2  0
  9  5  1  0
 10 11  1  0
 10  7  1  0
 11 12  1  1
 13 12  1  0
 14 15  1  0
 14 13  1  0
 16 15  1  0
 17 11  1  0
 18 17  2  0
 19 17  1  0
 20 24  1  0
 20 19  1  0
 20 21  1  6
 22 21  1  0
 23 22  2  0
 24 27  1  0
 25 24  2  0
 26 22  1  0
M  END
$$$$
