EKD.pdb
     RDKit          3D

 27 26  0  0  1  0  0  0  0  0999 V2000
   12.1200  -17.4492   17.1121 N   0  0  0  0  0  0  0  0  0  0  0  0
   13.3456  -17.5962   17.8418 C   0  0  1  0  0  0  0  0  0  0  0  0
   14.5230  -17.0520   17.0878 C   0  0  0  0  0  0  0  0  0  0  0  0
   15.4538  -18.2398   16.8111 C   0  0  0  0  0  0  0  0  0  0  0  0
   16.6939  -17.7827   16.1598 C   0  0  0  0  0  0  0  0  0  0  0  0
   17.6961  -18.5196   16.1544 O   0  0  0  0  0  0  0  0  0  0  0  0
   13.2410  -17.0987   19.2234 C   0  0  0  0  0  0  0  0  0  0  0  0
   13.2725  -15.8922   19.5545 O   0  0  0  0  0  0  0  0  0  0  0  0
   16.7430  -16.5410   15.5576 O   0  0  0  0  0  0  0  0  0  0  0  0
   13.0915  -18.0749   20.2707 N   0  0  0  0  0  0  0  0  0  0  0  0
   12.9613  -17.6339   21.6473 C   0  0  1  0  0  0  0  0  0  0  0  0
   11.9566  -18.4415   22.4376 C   0  0  0  0  0  0  0  0  0  0  0  0
   11.8602  -17.8685   23.8195 C   0  0  0  0  0  0  0  0  0  0  0  0
   10.9542  -18.6618   24.7343 C   0  0  0  0  0  0  0  0  0  0  0  0
   10.8120  -17.9820   26.0589 C   0  0  0  0  0  0  0  0  0  0  0  0
    9.9751  -18.7411   26.9657 N   0  0  0  0  0  0  0  0  0  0  0  0
   14.2754  -17.7787   22.3424 C   0  0  0  0  0  0  0  0  0  0  0  0
   14.8728  -18.8847   22.2171 O   0  0  0  0  0  0  0  0  0  0  0  0
   14.8502  -16.7473   23.1097 N   0  0  0  0  0  0  0  0  0  0  0  0
   16.1053  -16.9997   23.7816 C   0  0  1  0  0  0  0  0  0  0  0  0
   16.9065  -15.7043   23.9314 C   0  0  0  0  0  0  0  0  0  0  0  0
   17.7647  -15.5306   22.7373 C   0  0  0  0  0  0  0  0  0  0  0  0
   17.8350  -16.3931   21.8432 O   0  0  0  0  0  0  0  0  0  0  0  0
   15.8634  -17.5898   25.1074 C   0  0  0  0  0  0  0  0  0  0  0  0
   16.6508  -18.4553   25.5482 O   0  0  0  0  0  0  0  0  0  0  0  0
   18.5217  -14.3546   22.6135 O   0  0  0  0  0  0  0  0  0  0  0  0
   14.7878  -17.1967   25.8513 O   0  0  0  0  0  0  0  0  0  0  0  0
  2  1  1  6
  2  7  1  0
  2  3  1  0
  4  3  1  0
  4  5  1  0
  5  6  2  0
  7  8  2  0
  9  5  1  0
 10 11  1  0
 10  7  1  0
 11 12  1  1
 13 12  1  0
 14 15  1  0
 14 13  1  0
 16 15  1  0
 17 11  1  0
 18 17  2  0
 19 17  1  0
 20 24  1  0
 20 19  1  0
 20 21  1  1
 22 21  1  0
 23 22  2  0
 24 27  1  0
 25 24  2  0
 26 22  1  0
M  END
$$$$
