EKD.pdb
     RDKit          3D

 27 26  0  0  1  0  0  0  0  0999 V2000
    7.3690  -17.3288   19.6849 N   0  0  0  0  0  0  0  0  0  0  0  0
    8.7823  -17.1042   19.7768 C   0  0  1  0  0  0  0  0  0  0  0  0
    9.3555  -16.5690   18.4978 C   0  0  0  0  0  0  0  0  0  0  0  0
    8.4805  -17.1158   17.3624 C   0  0  0  0  0  0  0  0  0  0  0  0
    8.9366  -16.5935   16.0623 C   0  0  0  0  0  0  0  0  0  0  0  0
    9.6992  -17.2765   15.3557 O   0  0  0  0  0  0  0  0  0  0  0  0
    9.1514  -16.3226   20.9685 C   0  0  0  0  0  0  0  0  0  0  0  0
   10.3190  -15.9927   21.2753 O   0  0  0  0  0  0  0  0  0  0  0  0
    8.5185  -15.3504   15.6299 O   0  0  0  0  0  0  0  0  0  0  0  0
    8.0880  -15.9078   21.8456 N   0  0  0  0  0  0  0  0  0  0  0  0
    8.4003  -15.1356   23.0341 C   0  0  1  0  0  0  0  0  0  0  0  0
    7.2055  -14.3976   23.5944 C   0  0  0  0  0  0  0  0  0  0  0  0
    7.6397  -13.6313   24.8074 C   0  0  0  0  0  0  0  0  0  0  0  0
    6.5264  -12.8223   25.4343 C   0  0  0  0  0  0  0  0  0  0  0  0
    7.0319  -12.0463   26.6088 C   0  0  0  0  0  0  0  0  0  0  0  0
    5.9639  -11.3396   27.2862 N   0  0  0  0  0  0  0  0  0  0  0  0
    8.8858  -16.0518   24.1092 C   0  0  0  0  0  0  0  0  0  0  0  0
    8.1308  -17.0126   24.4296 O   0  0  0  0  0  0  0  0  0  0  0  0
   10.1249  -15.8801   24.7557 N   0  0  0  0  0  0  0  0  0  0  0  0
   10.6508  -16.9694   25.5478 C   0  0  1  0  0  0  0  0  0  0  0  0
   12.1315  -17.1977   25.2348 C   0  0  0  0  0  0  0  0  0  0  0  0
   12.6346  -18.3057   26.0783 C   0  0  0  0  0  0  0  0  0  0  0  0
   11.8815  -18.9733   26.8100 O   0  0  0  0  0  0  0  0  0  0  0  0
   10.4850  -16.6828   26.9813 C   0  0  0  0  0  0  0  0  0  0  0  0
   10.1014  -15.5485   27.3413 O   0  0  0  0  0  0  0  0  0  0  0  0
   14.0051  -18.6097   26.0492 O   0  0  0  0  0  0  0  0  0  0  0  0
   10.7481  -17.6468   27.9121 O   0  0  0  0  0  0  0  0  0  0  0  0
  2  1  1  6
  2  7  1  0
  2  3  1  0
  4  3  1  0
  4  5  1  0
  5  6  2  0
  7  8  2  0
  9  5  1  0
 10 11  1  0
 10  7  1  0
 11 12  1  1
 13 12  1  0
 14 15  1  0
 14 13  1  0
 16 15  1  0
 17 11  1  0
 18 17  2  0
 19 17  1  0
 20 24  1  0
 20 19  1  0
 20 21  1  1
 22 21  1  0
 23 22  2  0
 24 27  1  0
 25 24  2  0
 26 22  1  0
M  END
$$$$
