EKD.pdb
     RDKit          3D

 27 26  0  0  1  0  0  0  0  0999 V2000
   10.7263  -19.0253   17.6209 N   0  0  0  0  0  0  0  0  0  0  0  0
   10.4959  -17.7232   18.1755 C   0  0  1  0  0  0  0  0  0  0  0  0
    9.6985  -16.8478   17.2543 C   0  0  0  0  0  0  0  0  0  0  0  0
   10.4243  -16.8571   15.9027 C   0  0  0  0  0  0  0  0  0  0  0  0
    9.6536  -16.1038   14.8980 C   0  0  0  0  0  0  0  0  0  0  0  0
   10.1000  -15.0307   14.4547 O   0  0  0  0  0  0  0  0  0  0  0  0
    9.9673  -17.7819   19.5482 C   0  0  0  0  0  0  0  0  0  0  0  0
    9.7193  -16.7853   20.2634 O   0  0  0  0  0  0  0  0  0  0  0  0
    8.4403  -16.5878   14.4500 O   0  0  0  0  0  0  0  0  0  0  0  0
    9.7179  -19.0844   20.1081 N   0  0  0  0  0  0  0  0  0  0  0  0
    9.3197  -19.2015   21.4989 C   0  0  1  0  0  0  0  0  0  0  0  0
    8.4349  -20.3984   21.7649 C   0  0  0  0  0  0  0  0  0  0  0  0
    8.0450  -20.3952   23.2124 C   0  0  0  0  0  0  0  0  0  0  0  0
    7.1770  -21.5710   23.6009 C   0  0  0  0  0  0  0  0  0  0  0  0
    6.8662  -21.5399   25.0635 C   0  0  0  0  0  0  0  0  0  0  0  0
    6.0083  -22.6399   25.4545 N   0  0  0  0  0  0  0  0  0  0  0  0
   10.5349  -19.3637   22.3522 C   0  0  0  0  0  0  0  0  0  0  0  0
   11.1651  -20.4540   22.2531 O   0  0  0  0  0  0  0  0  0  0  0  0
   10.9844  -18.3648   23.2370 N   0  0  0  0  0  0  0  0  0  0  0  0
   12.1148  -18.6525   24.0914 C   0  0  1  0  0  0  0  0  0  0  0  0
   13.1423  -17.5200   24.0255 C   0  0  0  0  0  0  0  0  0  0  0  0
   13.9342  -17.6629   22.7826 C   0  0  0  0  0  0  0  0  0  0  0  0
   13.9141  -18.7048   22.1026 O   0  0  0  0  0  0  0  0  0  0  0  0
   11.6686  -18.8377   25.4810 C   0  0  0  0  0  0  0  0  0  0  0  0
   12.4534  -19.3350   26.3177 O   0  0  0  0  0  0  0  0  0  0  0  0
   14.7319  -16.5870   22.3612 O   0  0  0  0  0  0  0  0  0  0  0  0
   10.4076  -18.4703   25.8551 O   0  0  0  0  0  0  0  0  0  0  0  0
  2  1  1  6
  2  7  1  0
  2  3  1  0
  4  3  1  0
  4  5  1  0
  5  6  2  0
  7  8  2  0
  9  5  1  0
 10 11  1  0
 10  7  1  0
 11 12  1  6
 13 12  1  0
 14 15  1  0
 14 13  1  0
 16 15  1  0
 17 11  1  0
 18 17  2  0
 19 17  1  0
 20 24  1  0
 20 19  1  0
 20 21  1  1
 22 21  1  0
 23 22  2  0
 24 27  1  0
 25 24  2  0
 26 22  1  0
M  END
$$$$
