EKD.pdb
     RDKit          3D

 27 26  0  0  1  0  0  0  0  0999 V2000
    9.2861  -18.7861   18.2864 N   0  0  0  0  0  0  0  0  0  0  0  0
   10.5910  -18.1917   18.2977 C   0  0  1  0  0  0  0  0  0  0  0  0
   11.0062  -17.7099   16.9389 C   0  0  0  0  0  0  0  0  0  0  0  0
    9.8264  -16.9042   16.3798 C   0  0  0  0  0  0  0  0  0  0  0  0
   10.1358  -16.4072   15.0276 C   0  0  0  0  0  0  0  0  0  0  0  0
   10.5844  -17.1889   14.1702 O   0  0  0  0  0  0  0  0  0  0  0  0
   10.7403  -17.1827   19.3592 C   0  0  0  0  0  0  0  0  0  0  0  0
   11.7899  -16.5444   19.5983 O   0  0  0  0  0  0  0  0  0  0  0  0
    9.9280  -15.0786   14.7135 O   0  0  0  0  0  0  0  0  0  0  0  0
    9.5915  -16.9115   20.1832 N   0  0  0  0  0  0  0  0  0  0  0  0
    9.7056  -15.9722   21.2839 C   0  0  1  0  0  0  0  0  0  0  0  0
    8.4075  -15.2628   21.5968 C   0  0  0  0  0  0  0  0  0  0  0  0
    8.3285  -14.0173   20.7664 C   0  0  0  0  0  0  0  0  0  0  0  0
    7.3479  -14.1236   19.6200 C   0  0  0  0  0  0  0  0  0  0  0  0
    7.3243  -12.8577   18.8239 C   0  0  0  0  0  0  0  0  0  0  0  0
    6.4299  -12.9535   17.6881 N   0  0  0  0  0  0  0  0  0  0  0  0
   10.1082  -16.7037   22.5223 C   0  0  0  0  0  0  0  0  0  0  0  0
    9.5319  -17.8040   22.7526 O   0  0  0  0  0  0  0  0  0  0  0  0
   11.0835  -16.2160   23.4132 N   0  0  0  0  0  0  0  0  0  0  0  0
   11.4197  -17.0082   24.5751 C   0  0  1  0  0  0  0  0  0  0  0  0
   12.8952  -16.8297   24.9406 C   0  0  0  0  0  0  0  0  0  0  0  0
   13.7208  -17.0781   23.7368 C   0  0  0  0  0  0  0  0  0  0  0  0
   13.6399  -18.1362   23.0871 O   0  0  0  0  0  0  0  0  0  0  0  0
   10.5754  -16.6219   25.7163 C   0  0  0  0  0  0  0  0  0  0  0  0
    9.7813  -15.6635   25.5971 O   0  0  0  0  0  0  0  0  0  0  0  0
   14.6222  -16.0862   23.3182 O   0  0  0  0  0  0  0  0  0  0  0  0
   10.6579  -17.3033   26.8969 O   0  0  0  0  0  0  0  0  0  0  0  0
  2  1  1  6
  2  7  1  0
  2  3  1  0
  4  3  1  0
  4  5  1  0
  5  6  2  0
  7  8  2  0
  9  5  1  0
 10 11  1  0
 10  7  1  0
 11 12  1  1
 13 12  1  0
 14 15  1  0
 14 13  1  0
 16 15  1  0
 17 11  1  0
 18 17  2  0
 19 17  1  0
 20 24  1  0
 20 19  1  0
 20 21  1  1
 22 21  1  0
 23 22  2  0
 24 27  1  0
 25 24  2  0
 26 22  1  0
M  END
$$$$
