EKD.pdb
     RDKit          3D

 27 26  0  0  1  0  0  0  0  0999 V2000
    7.7770  -17.8064   19.9285 N   0  0  0  0  0  0  0  0  0  0  0  0
    9.1280  -17.3265   19.9059 C   0  0  1  0  0  0  0  0  0  0  0  0
    9.4974  -16.7354   18.5774 C   0  0  0  0  0  0  0  0  0  0  0  0
    8.2498  -16.0089   18.0583 C   0  0  0  0  0  0  0  0  0  0  0  0
    8.1779  -16.0926   16.5890 C   0  0  0  0  0  0  0  0  0  0  0  0
    7.1510  -16.5371   16.0455 O   0  0  0  0  0  0  0  0  0  0  0  0
    9.4348  -16.4551   21.0521 C   0  0  0  0  0  0  0  0  0  0  0  0
   10.5247  -15.8675   21.2336 O   0  0  0  0  0  0  0  0  0  0  0  0
    9.2465  -15.6787   15.8185 O   0  0  0  0  0  0  0  0  0  0  0  0
    8.4022  -16.2662   22.0371 N   0  0  0  0  0  0  0  0  0  0  0  0
    8.6596  -15.4262   23.1923 C   0  0  1  0  0  0  0  0  0  0  0  0
    7.3996  -14.8663   23.8128 C   0  0  0  0  0  0  0  0  0  0  0  0
    7.7841  -13.9073   24.8989 C   0  0  0  0  0  0  0  0  0  0  0  0
    6.5953  -13.2997   25.6091 C   0  0  0  0  0  0  0  0  0  0  0  0
    7.0412  -12.3023   26.6306 C   0  0  0  0  0  0  0  0  0  0  0  0
    5.9181  -11.6942   27.3144 N   0  0  0  0  0  0  0  0  0  0  0  0
    9.3422  -16.2303   24.2499 C   0  0  0  0  0  0  0  0  0  0  0  0
    8.7732  -17.2964   24.6179 O   0  0  0  0  0  0  0  0  0  0  0  0
   10.5660  -15.8451   24.8302 N   0  0  0  0  0  0  0  0  0  0  0  0
   11.2366  -16.7721   25.7143 C   0  0  1  0  0  0  0  0  0  0  0  0
   12.7420  -16.4970   25.7423 C   0  0  0  0  0  0  0  0  0  0  0  0
   13.3276  -16.9016   24.4440 C   0  0  0  0  0  0  0  0  0  0  0  0
   12.8558  -17.8339   23.7684 O   0  0  0  0  0  0  0  0  0  0  0  0
   10.6872  -16.6661   27.0749 C   0  0  0  0  0  0  0  0  0  0  0  0
   10.9181  -17.5733   27.9037 O   0  0  0  0  0  0  0  0  0  0  0  0
   14.4506  -16.2094   23.9633 O   0  0  0  0  0  0  0  0  0  0  0  0
    9.9306  -15.5864   27.4308 O   0  0  0  0  0  0  0  0  0  0  0  0
  2  1  1  6
  2  7  1  0
  2  3  1  0
  4  3  1  0
  4  5  1  0
  5  6  2  0
  7  8  2  0
  9  5  1  0
 10 11  1  0
 10  7  1  0
 11 12  1  1
 13 12  1  0
 14 15  1  0
 14 13  1  0
 16 15  1  0
 17 11  1  0
 18 17  2  0
 19 17  1  0
 20 24  1  0
 20 19  1  0
 20 21  1  1
 22 21  1  0
 23 22  2  0
 24 27  1  0
 25 24  2  0
 26 22  1  0
M  END
$$$$
