EKD.pdb
     RDKit          3D

 27 26  0  0  1  0  0  0  0  0999 V2000
    8.1591  -18.2328   18.5798 N   0  0  0  0  0  0  0  0  0  0  0  0
    9.4561  -17.6345   18.4524 C   0  0  1  0  0  0  0  0  0  0  0  0
    9.6738  -17.0373   17.0935 C   0  0  0  0  0  0  0  0  0  0  0  0
    8.6856  -17.7302   16.1464 C   0  0  0  0  0  0  0  0  0  0  0  0
    8.7768  -17.1534   14.7936 C   0  0  0  0  0  0  0  0  0  0  0  0
    9.6174  -17.5946   13.9897 O   0  0  0  0  0  0  0  0  0  0  0  0
    9.7644  -16.7182   19.5626 C   0  0  0  0  0  0  0  0  0  0  0  0
   10.7948  -16.0126   19.6439 O   0  0  0  0  0  0  0  0  0  0  0  0
    7.9318  -16.1272   14.4196 O   0  0  0  0  0  0  0  0  0  0  0  0
    8.8076  -16.6287   20.6344 N   0  0  0  0  0  0  0  0  0  0  0  0
    9.0706  -15.7476   21.7573 C   0  0  1  0  0  0  0  0  0  0  0  0
    7.8349  -15.4370   22.5713 C   0  0  0  0  0  0  0  0  0  0  0  0
    8.2069  -14.4795   23.6631 C   0  0  0  0  0  0  0  0  0  0  0  0
    7.0371  -14.0831   24.5357 C   0  0  0  0  0  0  0  0  0  0  0  0
    7.4601  -13.0879   25.5689 C   0  0  0  0  0  0  0  0  0  0  0  0
    6.3582  -12.7025   26.4270 N   0  0  0  0  0  0  0  0  0  0  0  0
   10.0457  -16.3987   22.6827 C   0  0  0  0  0  0  0  0  0  0  0  0
    9.7819  -17.5749   23.0605 O   0  0  0  0  0  0  0  0  0  0  0  0
   11.2162  -15.7574   23.1316 N   0  0  0  0  0  0  0  0  0  0  0  0
   12.2679  -16.5613   23.7134 C   0  0  1  0  0  0  0  0  0  0  0  0
   13.6044  -15.8171   23.6651 C   0  0  0  0  0  0  0  0  0  0  0  0
   14.6683  -16.7083   24.1812 C   0  0  0  0  0  0  0  0  0  0  0  0
   15.2006  -16.5275   25.2912 O   0  0  0  0  0  0  0  0  0  0  0  0
   11.9383  -16.8999   25.1066 C   0  0  0  0  0  0  0  0  0  0  0  0
   12.5797  -17.8019   25.6884 O   0  0  0  0  0  0  0  0  0  0  0  0
   15.0872  -17.7902   23.3903 O   0  0  0  0  0  0  0  0  0  0  0  0
   10.9400  -16.2357   25.7600 O   0  0  0  0  0  0  0  0  0  0  0  0
  2  1  1  6
  2  7  1  0
  2  3  1  0
  4  3  1  0
  4  5  1  0
  5  6  2  0
  7  8  2  0
  9  5  1  0
 10 11  1  0
 10  7  1  0
 11 12  1  1
 13 12  1  0
 14 15  1  0
 14 13  1  0
 16 15  1  0
 17 11  1  0
 18 17  2  0
 19 17  1  0
 20 24  1  0
 20 19  1  0
 20 21  1  1
 22 21  1  0
 23 22  2  0
 24 27  1  0
 25 24  2  0
 26 22  1  0
M  END
$$$$
