EKD.pdb
     RDKit          3D

 27 26  0  0  1  0  0  0  0  0999 V2000
    8.6584  -15.4611   18.8494 N   0  0  0  0  0  0  0  0  0  0  0  0
    8.1418  -16.1918   19.9699 C   0  0  1  0  0  0  0  0  0  0  0  0
    8.1910  -17.6751   19.7505 C   0  0  0  0  0  0  0  0  0  0  0  0
    8.5590  -17.8886   18.2765 C   0  0  0  0  0  0  0  0  0  0  0  0
    8.5274  -19.3227   17.9393 C   0  0  0  0  0  0  0  0  0  0  0  0
    7.5065  -19.8136   17.4254 O   0  0  0  0  0  0  0  0  0  0  0  0
    8.7342  -15.7580   21.2458 C   0  0  0  0  0  0  0  0  0  0  0  0
    9.9493  -15.5198   21.4271 O   0  0  0  0  0  0  0  0  0  0  0  0
    9.6273  -20.1183   18.1927 O   0  0  0  0  0  0  0  0  0  0  0  0
    7.8473  -15.5964   22.3682 N   0  0  0  0  0  0  0  0  0  0  0  0
    8.3750  -15.1256   23.6356 C   0  0  1  0  0  0  0  0  0  0  0  0
    7.2966  -14.7140   24.6123 C   0  0  0  0  0  0  0  0  0  0  0  0
    7.4928  -13.2701   24.9641 C   0  0  0  0  0  0  0  0  0  0  0  0
    6.4358  -12.7342   25.9035 C   0  0  0  0  0  0  0  0  0  0  0  0
    6.6963  -11.2981   26.2303 C   0  0  0  0  0  0  0  0  0  0  0  0
    5.6541  -10.7396   27.0675 N   0  0  0  0  0  0  0  0  0  0  0  0
    9.1541  -16.2205   24.2877 C   0  0  0  0  0  0  0  0  0  0  0  0
    8.6043  -17.3559   24.3539 O   0  0  0  0  0  0  0  0  0  0  0  0
   10.4459  -16.0284   24.8140 N   0  0  0  0  0  0  0  0  0  0  0  0
   11.1358  -17.1611   25.3899 C   0  0  1  0  0  0  0  0  0  0  0  0
   12.6512  -16.9540   25.3352 C   0  0  0  0  0  0  0  0  0  0  0  0
   13.3182  -18.1334   25.9322 C   0  0  0  0  0  0  0  0  0  0  0  0
   14.3140  -18.0259   26.6705 O   0  0  0  0  0  0  0  0  0  0  0  0
   10.7120  -17.3600   26.7847 C   0  0  0  0  0  0  0  0  0  0  0  0
   10.1705  -16.4178   27.4031 O   0  0  0  0  0  0  0  0  0  0  0  0
   12.8083  -19.4118   25.6542 O   0  0  0  0  0  0  0  0  0  0  0  0
   10.9083  -18.5632   27.4001 O   0  0  0  0  0  0  0  0  0  0  0  0
  2  1  1  6
  2  7  1  0
  2  3  1  0
  4  3  1  0
  4  5  1  0
  5  6  2  0
  7  8  2  0
  9  5  1  0
 10 11  1  0
 10  7  1  0
 11 12  1  1
 13 12  1  0
 14 15  1  0
 14 13  1  0
 16 15  1  0
 17 11  1  0
 18 17  2  0
 19 17  1  0
 20 24  1  0
 20 19  1  0
 20 21  1  1
 22 21  1  0
 23 22  2  0
 24 27  1  0
 25 24  2  0
 26 22  1  0
M  END
$$$$
