EKD.pdb
     RDKit          3D

 27 26  0  0  1  0  0  0  0  0999 V2000
   12.6985  -16.5999   18.1067 N   0  0  0  0  0  0  0  0  0  0  0  0
   13.5833  -16.1193   19.1277 C   0  0  1  0  0  0  0  0  0  0  0  0
   14.6024  -15.1593   18.5887 C   0  0  0  0  0  0  0  0  0  0  0  0
   14.4812  -15.2035   17.0599 C   0  0  0  0  0  0  0  0  0  0  0  0
   15.4655  -14.3005   16.4379 C   0  0  0  0  0  0  0  0  0  0  0  0
   16.4599  -14.7749   15.8604 O   0  0  0  0  0  0  0  0  0  0  0  0
   12.8605  -15.6202   20.3091 C   0  0  0  0  0  0  0  0  0  0  0  0
   13.3956  -15.0618   21.2930 O   0  0  0  0  0  0  0  0  0  0  0  0
   15.2843  -12.9328   16.4958 O   0  0  0  0  0  0  0  0  0  0  0  0
   11.4311  -15.7883   20.3325 N   0  0  0  0  0  0  0  0  0  0  0  0
   10.6836  -15.3985   21.5139 C   0  0  1  0  0  0  0  0  0  0  0  0
    9.2432  -15.0475   21.2169 C   0  0  0  0  0  0  0  0  0  0  0  0
    9.2161  -13.9768   20.1680 C   0  0  0  0  0  0  0  0  0  0  0  0
    7.8184  -13.6153   19.7179 C   0  0  0  0  0  0  0  0  0  0  0  0
    7.8586  -12.5522   18.6666 C   0  0  0  0  0  0  0  0  0  0  0  0
    6.5288  -12.1158   18.2922 N   0  0  0  0  0  0  0  0  0  0  0  0
   10.6609  -16.5331   22.4851 C   0  0  0  0  0  0  0  0  0  0  0  0
   10.3757  -17.6754   22.0273 O   0  0  0  0  0  0  0  0  0  0  0  0
   10.9409  -16.3699   23.8554 N   0  0  0  0  0  0  0  0  0  0  0  0
   11.2439  -17.5421   24.6458 C   0  0  1  0  0  0  0  0  0  0  0  0
   12.7237  -17.5613   25.0361 C   0  0  0  0  0  0  0  0  0  0  0  0
   12.9690  -18.7167   25.9290 C   0  0  0  0  0  0  0  0  0  0  0  0
   12.7256  -19.8856   25.5788 O   0  0  0  0  0  0  0  0  0  0  0  0
   10.4104  -17.5683   25.8578 C   0  0  0  0  0  0  0  0  0  0  0  0
   10.1854  -18.6592   26.4259 O   0  0  0  0  0  0  0  0  0  0  0  0
   13.4928  -18.4821   27.2104 O   0  0  0  0  0  0  0  0  0  0  0  0
    9.8859  -16.4114   26.3591 O   0  0  0  0  0  0  0  0  0  0  0  0
  2  1  1  6
  2  7  1  0
  2  3  1  0
  4  3  1  0
  4  5  1  0
  5  6  2  0
  7  8  2  0
  9  5  1  0
 10 11  1  0
 10  7  1  0
 11 12  1  6
 13 12  1  0
 14 15  1  0
 14 13  1  0
 16 15  1  0
 17 11  1  0
 18 17  2  0
 19 17  1  0
 20 24  1  0
 20 19  1  0
 20 21  1  1
 22 21  1  0
 23 22  2  0
 24 27  1  0
 25 24  2  0
 26 22  1  0
M  END
$$$$
