EKD.pdb
     RDKit          3D

 27 26  0  0  1  0  0  0  0  0999 V2000
    9.2016  -16.0690   19.0079 N   0  0  0  0  0  0  0  0  0  0  0  0
    8.8212  -16.8296   20.1624 C   0  0  1  0  0  0  0  0  0  0  0  0
    9.2967  -18.2506   20.0869 C   0  0  0  0  0  0  0  0  0  0  0  0
   10.5412  -18.2496   19.1897 C   0  0  0  0  0  0  0  0  0  0  0  0
   11.0655  -19.6177   19.0331 C   0  0  0  0  0  0  0  0  0  0  0  0
   12.2213  -19.8827   19.4092 O   0  0  0  0  0  0  0  0  0  0  0  0
    9.1677  -16.1513   21.4222 C   0  0  0  0  0  0  0  0  0  0  0  0
   10.3256  -15.8206   21.7627 O   0  0  0  0  0  0  0  0  0  0  0  0
   10.2764  -20.6019   18.4714 O   0  0  0  0  0  0  0  0  0  0  0  0
    8.0922  -15.8467   22.3293 N   0  0  0  0  0  0  0  0  0  0  0  0
    8.3645  -15.0784   23.5302 C   0  0  1  0  0  0  0  0  0  0  0  0
    7.1266  -14.4445   24.1235 C   0  0  0  0  0  0  0  0  0  0  0  0
    7.5294  -13.6253   25.3127 C   0  0  0  0  0  0  0  0  0  0  0  0
    6.3715  -12.8965   25.9570 C   0  0  0  0  0  0  0  0  0  0  0  0
    6.8452  -12.0528   27.0975 C   0  0  0  0  0  0  0  0  0  0  0  0
    5.7503  -11.3577   27.7432 N   0  0  0  0  0  0  0  0  0  0  0  0
    8.9343  -15.9778   24.5777 C   0  0  0  0  0  0  0  0  0  0  0  0
    8.2508  -16.9903   24.8994 O   0  0  0  0  0  0  0  0  0  0  0  0
   10.1754  -15.7363   25.1975 N   0  0  0  0  0  0  0  0  0  0  0  0
   10.6535  -16.6796   26.1835 C   0  0  1  0  0  0  0  0  0  0  0  0
   12.1826  -16.7460   26.1690 C   0  0  0  0  0  0  0  0  0  0  0  0
   12.6220  -17.4064   24.9187 C   0  0  0  0  0  0  0  0  0  0  0  0
   12.1592  -18.5017   24.5523 O   0  0  0  0  0  0  0  0  0  0  0  0
   10.1861  -16.2954   27.5244 C   0  0  0  0  0  0  0  0  0  0  0  0
   10.4661  -17.0199   28.5043 O   0  0  0  0  0  0  0  0  0  0  0  0
   13.5916  -16.7739   24.1242 O   0  0  0  0  0  0  0  0  0  0  0  0
    9.4518  -15.1573   27.6988 O   0  0  0  0  0  0  0  0  0  0  0  0
  2  1  1  6
  2  7  1  0
  2  3  1  0
  4  3  1  0
  4  5  1  0
  5  6  2  0
  7  8  2  0
  9  5  1  0
 10 11  1  0
 10  7  1  0
 11 12  1  1
 13 12  1  0
 14 15  1  0
 14 13  1  0
 16 15  1  0
 17 11  1  0
 18 17  2  0
 19 17  1  0
 20 24  1  0
 20 19  1  0
 20 21  1  1
 22 21  1  0
 23 22  2  0
 24 27  1  0
 25 24  2  0
 26 22  1  0
M  END
$$$$
