MDE.pdb
     RDKit          3D

 26 25  0  0  1  0  0  0  0  0999 V2000
   16.8624  -14.2593  -19.1055 C   0  0  0  0  0  0  0  0  0  0  0  0
   18.5019  -14.7699  -18.6571 S   0  0  0  0  0  0  0  0  0  0  0  0
   19.7092  -13.5127  -18.3706 C   0  0  0  0  0  0  0  0  0  0  0  0
   19.2560  -12.3139  -17.6358 C   0  0  0  0  0  0  0  0  0  0  0  0
   20.2584  -11.2582  -17.4437 C   0  0  2  0  0  0  0  0  0  0  0  0
   21.4870  -11.7040  -16.8859 N   0  0  0  0  0  0  0  0  0  0  0  0
   19.6971  -10.1596  -16.5996 C   0  0  0  0  0  0  0  0  0  0  0  0
   18.6424   -9.6070  -16.9549 O   0  0  0  0  0  0  0  0  0  0  0  0
   20.3465   -9.7566  -15.4256 N   0  0  0  0  0  0  0  0  0  0  0  0
   19.7688   -8.6136  -14.6700 C   0  0  1  0  0  0  0  0  0  0  0  0
   19.7521   -9.0267  -13.2281 C   0  0  0  0  0  0  0  0  0  0  0  0
   19.3077   -8.1098  -12.2272 C   0  0  0  0  0  0  0  0  0  0  0  0
   18.8783   -6.9481  -12.3322 O   0  0  0  0  0  0  0  0  0  0  0  0
   20.6500   -7.4676  -14.9812 C   0  0  0  0  0  0  0  0  0  0  0  0
   21.9004   -7.5959  -14.7111 O   0  0  0  0  0  0  0  0  0  0  0  0
   19.3442   -8.5579  -10.8713 O   0  0  0  0  0  0  0  0  0  0  0  0
   20.2970   -6.2389  -15.5469 N   0  0  0  0  0  0  0  0  0  0  0  0
   21.2813   -5.1810  -15.7586 C   0  0  1  0  0  0  0  0  0  0  0  0
   21.3100   -4.8772  -17.2271 C   0  0  0  0  0  0  0  0  0  0  0  0
   22.3143   -3.8038  -17.5453 C   0  0  0  0  0  0  0  0  0  0  0  0
   22.2492   -3.5163  -18.9980 C   0  0  0  0  0  0  0  0  0  0  0  0
   22.8817   -2.5520  -19.4715 O   0  0  0  0  0  0  0  0  0  0  0  0
   20.9569   -3.9758  -14.9821 C   0  0  0  0  0  0  0  0  0  0  0  0
   21.9478   -3.1190  -14.5557 O   0  0  0  0  0  0  0  0  0  0  0  0
   21.5007   -4.2914  -19.8583 O   0  0  0  0  0  0  0  0  0  0  0  0
   19.7678   -3.7235  -14.7041 O   0  0  0  0  0  0  0  0  0  0  0  0
  2  1  1  0
  3  2  1  0
  4  3  1  0
  4  5  1  0
  5  6  1  1
  5  7  1  0
  7  8  2  0
  9  7  1  0
  9 10  1  0
 11 12  1  0
 10 11  1  1
 12 16  1  0
 13 12  2  0
 14 10  1  0
 14 15  2  0
 17 14  1  0
 18 17  1  0
 18 23  1  0
 18 19  1  6
 20 19  1  0
 20 21  1  0
 21 25  1  0
 22 21  2  0
 23 24  1  0
 26 23  2  0
M  END
$$$$
