MDE.pdb
     RDKit          3D

 26 25  0  0  1  0  0  0  0  0999 V2000
   30.7879  -17.3400  -18.3288 C   0  0  0  0  0  0  0  0  0  0  0  0
   29.9265  -18.0928  -16.9720 S   0  0  0  0  0  0  0  0  0  0  0  0
   29.5856  -19.8233  -17.0682 C   0  0  0  0  0  0  0  0  0  0  0  0
   28.7966  -20.4056  -15.9633 C   0  0  0  0  0  0  0  0  0  0  0  0
   27.3402  -20.2416  -16.0549 C   0  0  2  0  0  0  0  0  0  0  0  0
   26.9025  -18.8937  -16.1590 N   0  0  0  0  0  0  0  0  0  0  0  0
   26.6719  -20.8941  -14.8878 C   0  0  0  0  0  0  0  0  0  0  0  0
   26.8482  -22.1090  -14.6957 O   0  0  0  0  0  0  0  0  0  0  0  0
   25.8593  -20.1513  -14.0217 N   0  0  0  0  0  0  0  0  0  0  0  0
   25.1366  -20.8840  -12.9484 C   0  0  1  0  0  0  0  0  0  0  0  0
   25.7726  -20.4712  -11.6541 C   0  0  0  0  0  0  0  0  0  0  0  0
   25.2874  -20.9995  -10.4191 C   0  0  0  0  0  0  0  0  0  0  0  0
   24.3357  -21.7651  -10.1885 O   0  0  0  0  0  0  0  0  0  0  0  0
   23.7208  -20.4864  -13.1033 C   0  0  0  0  0  0  0  0  0  0  0  0
   23.4715  -19.2310  -13.2239 O   0  0  0  0  0  0  0  0  0  0  0  0
   25.9775  -20.6128   -9.2295 O   0  0  0  0  0  0  0  0  0  0  0  0
   22.5938  -21.3127  -13.1418 N   0  0  0  0  0  0  0  0  0  0  0  0
   21.2455  -20.7656  -13.2658 C   0  0  1  0  0  0  0  0  0  0  0  0
   20.7975  -20.9825  -14.6807 C   0  0  0  0  0  0  0  0  0  0  0  0
   21.2601  -19.8686  -15.5791 C   0  0  0  0  0  0  0  0  0  0  0  0
   20.1257  -19.4594  -16.4410 C   0  0  0  0  0  0  0  0  0  0  0  0
   19.8196  -18.2549  -16.5382 O   0  0  0  0  0  0  0  0  0  0  0  0
   20.3148  -21.3986  -12.3204 C   0  0  0  0  0  0  0  0  0  0  0  0
   19.4547  -20.6402  -11.5568 O   0  0  0  0  0  0  0  0  0  0  0  0
   19.3848  -20.3803  -17.1511 O   0  0  0  0  0  0  0  0  0  0  0  0
   20.3021  -22.6402  -12.2062 O   0  0  0  0  0  0  0  0  0  0  0  0
  2  1  1  0
  3  2  1  0
  4  3  1  0
  4  5  1  0
  5  6  1  1
  5  7  1  0
  7  8  2  0
  9  7  1  0
  9 10  1  0
 11 12  1  0
 10 11  1  1
 12 16  1  0
 13 12  2  0
 14 10  1  0
 14 15  2  0
 17 14  1  0
 18 17  1  0
 18 23  1  0
 18 19  1  6
 20 19  1  0
 20 21  1  0
 21 25  1  0
 22 21  2  0
 23 24  1  0
 26 23  2  0
M  END
$$$$
