MDE.pdb
     RDKit          3D

 26 25  0  0  1  0  0  0  0  0999 V2000
   26.9847  -37.6345   -9.8184 C   0  0  0  0  0  0  0  0  0  0  0  0
   25.8855  -36.7604  -10.9035 S   0  0  0  0  0  0  0  0  0  0  0  0
   25.2978  -35.1777  -10.3842 C   0  0  0  0  0  0  0  0  0  0  0  0
   25.7870  -34.6843   -9.0805 C   0  0  0  0  0  0  0  0  0  0  0  0
   25.2296  -33.4044   -8.6251 C   0  0  2  0  0  0  0  0  0  0  0  0
   25.5995  -32.2835   -9.4164 N   0  0  0  0  0  0  0  0  0  0  0  0
   25.6053  -33.1544   -7.2000 C   0  0  0  0  0  0  0  0  0  0  0  0
   26.5015  -32.3309   -6.9498 O   0  0  0  0  0  0  0  0  0  0  0  0
   24.9594  -33.8353   -6.1601 N   0  0  0  0  0  0  0  0  0  0  0  0
   25.3521  -33.5046   -4.7645 C   0  0  1  0  0  0  0  0  0  0  0  0
   24.0857  -33.1505   -4.0428 C   0  0  0  0  0  0  0  0  0  0  0  0
   24.1219  -32.8306   -2.6513 C   0  0  0  0  0  0  0  0  0  0  0  0
   25.0493  -32.3929   -1.9489 O   0  0  0  0  0  0  0  0  0  0  0  0
   26.0378  -34.7159   -4.2651 C   0  0  0  0  0  0  0  0  0  0  0  0
   25.3718  -35.8156   -4.2743 O   0  0  0  0  0  0  0  0  0  0  0  0
   22.9195  -33.0294   -1.9060 O   0  0  0  0  0  0  0  0  0  0  0  0
   27.3437  -34.8272   -3.7787 N   0  0  0  0  0  0  0  0  0  0  0  0
   27.8512  -36.0789   -3.2234 C   0  0  1  0  0  0  0  0  0  0  0  0
   29.3365  -36.0965   -3.4308 C   0  0  0  0  0  0  0  0  0  0  0  0
   29.9939  -34.9062   -2.7882 C   0  0  0  0  0  0  0  0  0  0  0  0
   31.4626  -35.0477   -2.9306 C   0  0  0  0  0  0  0  0  0  0  0  0
   32.0854  -35.8454   -2.2027 O   0  0  0  0  0  0  0  0  0  0  0  0
   27.5213  -36.2121   -1.7972 C   0  0  0  0  0  0  0  0  0  0  0  0
   27.9010  -37.3271   -1.0827 O   0  0  0  0  0  0  0  0  0  0  0  0
   32.1758  -34.3154   -3.8559 O   0  0  0  0  0  0  0  0  0  0  0  0
   26.8884  -35.3036   -1.2237 O   0  0  0  0  0  0  0  0  0  0  0  0
  2  1  1  0
  3  2  1  0
  4  3  1  0
  4  5  1  0
  5  6  1  6
  5  7  1  0
  7  8  2  0
  9  7  1  0
  9 10  1  0
 11 12  1  0
 10 11  1  1
 12 16  1  0
 13 12  2  0
 14 10  1  0
 14 15  2  0
 17 14  1  0
 18 17  1  0
 18 23  1  0
 18 19  1  1
 20 19  1  0
 20 21  1  0
 21 25  1  0
 22 21  2  0
 23 24  1  0
 26 23  2  0
M  END
$$$$
