MDE.pdb
     RDKit          3D

 26 25  0  0  1  0  0  0  0  0999 V2000
   16.3233  -14.3060  -19.9289 C   0  0  0  0  0  0  0  0  0  0  0  0
   17.0807  -13.1106  -18.8579 S   0  0  0  0  0  0  0  0  0  0  0  0
   16.0392  -12.2300  -17.7354 C   0  0  0  0  0  0  0  0  0  0  0  0
   16.6817  -11.1768  -16.9228 C   0  0  0  0  0  0  0  0  0  0  0  0
   17.3998  -10.1353  -17.6684 C   0  0  2  0  0  0  0  0  0  0  0  0
   18.5828  -10.5817  -18.3169 N   0  0  0  0  0  0  0  0  0  0  0  0
   17.7274   -8.9877  -16.7683 C   0  0  0  0  0  0  0  0  0  0  0  0
   16.8178   -8.4699  -16.0985 O   0  0  0  0  0  0  0  0  0  0  0  0
   19.0378   -8.5008  -16.6781 N   0  0  0  0  0  0  0  0  0  0  0  0
   19.2866   -7.3388  -15.7843 C   0  0  1  0  0  0  0  0  0  0  0  0
   20.4432   -7.7204  -14.9086 C   0  0  0  0  0  0  0  0  0  0  0  0
   21.0093   -6.7614  -14.0144 C   0  0  0  0  0  0  0  0  0  0  0  0
   20.6973   -5.5776  -13.7994 O   0  0  0  0  0  0  0  0  0  0  0  0
   19.5425   -6.2043  -16.6977 C   0  0  0  0  0  0  0  0  0  0  0  0
   20.3515   -6.4070  -17.6761 O   0  0  0  0  0  0  0  0  0  0  0  0
   22.1151   -7.1880  -13.2169 O   0  0  0  0  0  0  0  0  0  0  0  0
   19.0061   -4.9147  -16.6400 N   0  0  0  0  0  0  0  0  0  0  0  0
   19.3234   -3.9062  -17.6475 C   0  0  1  0  0  0  0  0  0  0  0  0
   18.1932   -2.9205  -17.6726 C   0  0  0  0  0  0  0  0  0  0  0  0
   18.1371   -2.1184  -16.4015 C   0  0  0  0  0  0  0  0  0  0  0  0
   17.0267   -1.1426  -16.5113 C   0  0  0  0  0  0  0  0  0  0  0  0
   15.9123   -1.4085  -16.0201 O   0  0  0  0  0  0  0  0  0  0  0  0
   20.5975   -3.2329  -17.3577 C   0  0  0  0  0  0  0  0  0  0  0  0
   21.2606   -3.4509  -16.1700 O   0  0  0  0  0  0  0  0  0  0  0  0
   17.1865    0.0697  -17.1486 O   0  0  0  0  0  0  0  0  0  0  0  0
   21.0869   -2.4524  -18.1979 O   0  0  0  0  0  0  0  0  0  0  0  0
  2  1  1  0
  3  2  1  0
  4  3  1  0
  4  5  1  0
  5  6  1  1
  5  7  1  0
  7  8  2  0
  9  7  1  0
  9 10  1  0
 11 12  1  0
 10 11  1  1
 12 16  1  0
 13 12  2  0
 14 10  1  0
 14 15  2  0
 17 14  1  0
 18 17  1  0
 18 23  1  0
 18 19  1  1
 20 19  1  0
 20 21  1  0
 21 25  1  0
 22 21  2  0
 23 24  1  0
 26 23  2  0
M  END
$$$$
