MDE.pdb
     RDKit          3D

 26 25  0  0  1  0  0  0  0  0999 V2000
   28.0584  -15.7446  -15.7044 C   0  0  0  0  0  0  0  0  0  0  0  0
   26.7893  -14.5040  -15.6952 S   0  0  0  0  0  0  0  0  0  0  0  0
   25.6470  -14.4810  -17.0424 C   0  0  0  0  0  0  0  0  0  0  0  0
   24.7133  -13.3376  -17.0999 C   0  0  0  0  0  0  0  0  0  0  0  0
   24.2331  -12.8318  -15.8076 C   0  0  2  0  0  0  0  0  0  0  0  0
   23.7313  -13.8315  -14.9311 N   0  0  0  0  0  0  0  0  0  0  0  0
   23.1885  -11.7835  -16.0184 C   0  0  0  0  0  0  0  0  0  0  0  0
   23.3983  -10.8839  -16.8494 O   0  0  0  0  0  0  0  0  0  0  0  0
   21.9904  -11.8115  -15.2930 N   0  0  0  0  0  0  0  0  0  0  0  0
   20.9589  -10.7906  -15.6166 C   0  0  1  0  0  0  0  0  0  0  0  0
   19.6636  -11.3112  -15.0679 C   0  0  0  0  0  0  0  0  0  0  0  0
   19.0355  -12.4431  -15.6715 C   0  0  0  0  0  0  0  0  0  0  0  0
   18.6941  -13.5326  -15.1801 O   0  0  0  0  0  0  0  0  0  0  0  0
   21.4473   -9.5441  -14.9884 C   0  0  0  0  0  0  0  0  0  0  0  0
   21.9695   -9.6403  -13.8175 O   0  0  0  0  0  0  0  0  0  0  0  0
   18.7307  -12.3529  -17.0642 O   0  0  0  0  0  0  0  0  0  0  0  0
   21.4203   -8.2482  -15.5121 N   0  0  0  0  0  0  0  0  0  0  0  0
   21.9917   -7.1162  -14.7877 C   0  0  1  0  0  0  0  0  0  0  0  0
   21.9984   -5.9403  -15.7186 C   0  0  0  0  0  0  0  0  0  0  0  0
   22.5453   -4.7114  -15.0456 C   0  0  0  0  0  0  0  0  0  0  0  0
   22.3749   -3.5593  -15.9626 C   0  0  0  0  0  0  0  0  0  0  0  0
   22.2470   -2.4086  -15.5005 O   0  0  0  0  0  0  0  0  0  0  0  0
   21.2291   -6.8127  -13.5683 C   0  0  0  0  0  0  0  0  0  0  0  0
   21.8425   -6.2529  -12.4692 O   0  0  0  0  0  0  0  0  0  0  0  0
   22.3525   -3.7189  -17.3319 O   0  0  0  0  0  0  0  0  0  0  0  0
   20.0087   -7.0651  -13.5260 O   0  0  0  0  0  0  0  0  0  0  0  0
  2  1  1  0
  3  2  1  0
  4  3  1  0
  4  5  1  0
  5  6  1  1
  5  7  1  0
  7  8  2  0
  9  7  1  0
  9 10  1  0
 11 12  1  0
 10 11  1  1
 12 16  1  0
 13 12  2  0
 14 10  1  0
 14 15  2  0
 17 14  1  0
 18 17  1  0
 18 23  1  0
 18 19  1  6
 20 19  1  0
 20 21  1  0
 21 25  1  0
 22 21  2  0
 23 24  1  0
 26 23  2  0
M  END
$$$$
