MDE.pdb
     RDKit          3D

 26 25  0  0  1  0  0  0  0  0999 V2000
   28.1963  -13.5919  -14.5497 C   0  0  0  0  0  0  0  0  0  0  0  0
   27.4736  -12.5800  -15.8159 S   0  0  0  0  0  0  0  0  0  0  0  0
   27.5676  -10.8264  -15.6258 C   0  0  0  0  0  0  0  0  0  0  0  0
   26.9172  -10.0107  -16.6718 C   0  0  0  0  0  0  0  0  0  0  0  0
   25.5866   -9.4832  -16.3437 C   0  0  2  0  0  0  0  0  0  0  0  0
   24.7078  -10.4263  -15.7456 N   0  0  0  0  0  0  0  0  0  0  0  0
   24.9437   -8.9064  -17.5636 C   0  0  0  0  0  0  0  0  0  0  0  0
   25.5437   -8.0234  -18.1994 O   0  0  0  0  0  0  0  0  0  0  0  0
   23.6849   -9.3518  -17.9872 N   0  0  0  0  0  0  0  0  0  0  0  0
   23.0962   -8.7201  -19.1978 C   0  0  1  0  0  0  0  0  0  0  0  0
   22.5272   -9.8370  -20.0217 C   0  0  0  0  0  0  0  0  0  0  0  0
   21.8424   -9.5481  -21.2413 C   0  0  0  0  0  0  0  0  0  0  0  0
   21.7679  -10.1993  -22.2975 O   0  0  0  0  0  0  0  0  0  0  0  0
   22.1011   -7.7573  -18.6788 C   0  0  0  0  0  0  0  0  0  0  0  0
   21.0797   -8.2395  -18.0649 O   0  0  0  0  0  0  0  0  0  0  0  0
   21.1105   -8.3228  -21.3027 O   0  0  0  0  0  0  0  0  0  0  0  0
   22.1269   -6.3622  -18.7646 N   0  0  0  0  0  0  0  0  0  0  0  0
   21.0977   -5.5361  -18.1394 C   0  0  1  0  0  0  0  0  0  0  0  0
   21.1590   -5.7792  -16.6606 C   0  0  0  0  0  0  0  0  0  0  0  0
   22.3023   -5.0333  -16.0294 C   0  0  0  0  0  0  0  0  0  0  0  0
   22.1685   -5.1290  -14.5562 C   0  0  0  0  0  0  0  0  0  0  0  0
   23.1545   -5.4395  -13.8596 O   0  0  0  0  0  0  0  0  0  0  0  0
   21.2887   -4.1106  -18.4428 C   0  0  0  0  0  0  0  0  0  0  0  0
   20.4154   -3.1600  -17.9616 O   0  0  0  0  0  0  0  0  0  0  0  0
   20.9709   -4.8823  -13.9189 O   0  0  0  0  0  0  0  0  0  0  0  0
   22.2547   -3.7544  -19.1461 O   0  0  0  0  0  0  0  0  0  0  0  0
  2  1  1  0
  3  2  1  0
  4  3  1  0
  4  5  1  0
  5  6  1  6
  5  7  1  0
  7  8  2  0
  9  7  1  0
  9 10  1  0
 11 12  1  0
 10 11  1  6
 12 16  1  0
 13 12  2  0
 14 10  1  0
 14 15  2  0
 17 14  1  0
 18 17  1  0
 18 23  1  0
 18 19  1  1
 20 19  1  0
 20 21  1  0
 21 25  1  0
 22 21  2  0
 23 24  1  0
 26 23  2  0
M  END
$$$$
