MDE.pdb
     RDKit          3D

 26 25  0  0  1  0  0  0  0  0999 V2000
   21.2932  -35.8568   -5.3708 C   0  0  0  0  0  0  0  0  0  0  0  0
   22.7223  -35.6470   -4.3396 S   0  0  0  0  0  0  0  0  0  0  0  0
   23.1963  -34.0005   -3.9100 C   0  0  0  0  0  0  0  0  0  0  0  0
   24.3141  -33.8608   -2.9543 C   0  0  0  0  0  0  0  0  0  0  0  0
   24.6900  -32.4866   -2.5982 C   0  0  2  0  0  0  0  0  0  0  0  0
   25.5597  -31.8524   -3.5259 N   0  0  0  0  0  0  0  0  0  0  0  0
   25.3052  -32.4553   -1.2362 C   0  0  0  0  0  0  0  0  0  0  0  0
   26.5177  -32.7000   -1.1182 O   0  0  0  0  0  0  0  0  0  0  0  0
   24.5308  -32.1547   -0.1083 N   0  0  0  0  0  0  0  0  0  0  0  0
   25.2213  -32.0731    1.2062 C   0  0  1  0  0  0  0  0  0  0  0  0
   24.4437  -31.0904    2.0306 C   0  0  0  0  0  0  0  0  0  0  0  0
   24.8913  -30.7463    3.3426 C   0  0  0  0  0  0  0  0  0  0  0  0
   24.3284  -30.0989    4.2421 O   0  0  0  0  0  0  0  0  0  0  0  0
   25.2217  -33.4590    1.7222 C   0  0  0  0  0  0  0  0  0  0  0  0
   24.1010  -34.0890    1.7184 O   0  0  0  0  0  0  0  0  0  0  0  0
   26.1904  -31.1993    3.7271 O   0  0  0  0  0  0  0  0  0  0  0  0
   26.3031  -34.1921    2.2195 N   0  0  0  0  0  0  0  0  0  0  0  0
   26.1420  -35.5569    2.7136 C   0  0  1  0  0  0  0  0  0  0  0  0
   27.4808  -36.2283    2.6326 C   0  0  0  0  0  0  0  0  0  0  0  0
   27.3867  -37.6844    2.9971 C   0  0  0  0  0  0  0  0  0  0  0  0
   28.7482  -38.2687    2.9498 C   0  0  0  0  0  0  0  0  0  0  0  0
   29.5302  -38.1052    3.9067 O   0  0  0  0  0  0  0  0  0  0  0  0
   25.6299  -35.5774    4.0913 C   0  0  0  0  0  0  0  0  0  0  0  0
   24.8443  -36.6161    4.5404 O   0  0  0  0  0  0  0  0  0  0  0  0
   29.1872  -38.9990    1.8658 O   0  0  0  0  0  0  0  0  0  0  0  0
   25.9095  -34.6417    4.8665 O   0  0  0  0  0  0  0  0  0  0  0  0
  2  1  1  0
  3  2  1  0
  4  3  1  0
  4  5  1  0
  5  6  1  6
  5  7  1  0
  7  8  2  0
  9  7  1  0
  9 10  1  0
 11 12  1  0
 10 11  1  1
 12 16  1  0
 13 12  2  0
 14 10  1  0
 14 15  2  0
 17 14  1  0
 18 17  1  0
 18 23  1  0
 18 19  1  1
 20 19  1  0
 20 21  1  0
 21 25  1  0
 22 21  2  0
 23 24  1  0
 26 23  2  0
M  END
$$$$
