MDE.pdb
     RDKit          3D

 26 25  0  0  1  0  0  0  0  0999 V2000
   30.1070  -17.1033  -17.6984 C   0  0  0  0  0  0  0  0  0  0  0  0
   29.0167  -18.1214  -16.7369 S   0  0  0  0  0  0  0  0  0  0  0  0
   27.6089  -18.8174  -17.5456 C   0  0  0  0  0  0  0  0  0  0  0  0
   26.7504  -19.7048  -16.7345 C   0  0  0  0  0  0  0  0  0  0  0  0
   27.4199  -20.4353  -15.6508 C   0  0  2  0  0  0  0  0  0  0  0  0
   28.2918  -21.4697  -16.0858 N   0  0  0  0  0  0  0  0  0  0  0  0
   26.4086  -21.0001  -14.7060 C   0  0  0  0  0  0  0  0  0  0  0  0
   25.8590  -22.0784  -14.9872 O   0  0  0  0  0  0  0  0  0  0  0  0
   26.0831  -20.3278  -13.5209 N   0  0  0  0  0  0  0  0  0  0  0  0
   25.0607  -20.9418  -12.6328 C   0  0  1  0  0  0  0  0  0  0  0  0
   25.4766  -20.6226  -11.2274 C   0  0  0  0  0  0  0  0  0  0  0  0
   24.6553  -21.0251  -10.1304 C   0  0  0  0  0  0  0  0  0  0  0  0
   23.5650  -21.6217  -10.1163 O   0  0  0  0  0  0  0  0  0  0  0  0
   23.7781  -20.3401  -13.0565 C   0  0  0  0  0  0  0  0  0  0  0  0
   23.7307  -19.0586  -13.1480 O   0  0  0  0  0  0  0  0  0  0  0  0
   25.1237  -20.7127   -8.8174 O   0  0  0  0  0  0  0  0  0  0  0  0
   22.5864  -20.9942  -13.3826 N   0  0  0  0  0  0  0  0  0  0  0  0
   21.3721  -20.2546  -13.7161 C   0  0  1  0  0  0  0  0  0  0  0  0
   20.6007  -21.0748  -14.7070 C   0  0  0  0  0  0  0  0  0  0  0  0
   20.1496  -22.3780  -14.1070 C   0  0  0  0  0  0  0  0  0  0  0  0
   19.4084  -23.1388  -15.1410 C   0  0  0  0  0  0  0  0  0  0  0  0
   18.5247  -22.5752  -15.8158 O   0  0  0  0  0  0  0  0  0  0  0  0
   20.5605  -19.9788  -12.5220 C   0  0  0  0  0  0  0  0  0  0  0  0
   19.5145  -19.0833  -12.5668 O   0  0  0  0  0  0  0  0  0  0  0  0
   19.6668  -24.4707  -15.3865 O   0  0  0  0  0  0  0  0  0  0  0  0
   20.8210  -20.5628  -11.4516 O   0  0  0  0  0  0  0  0  0  0  0  0
  2  1  1  0
  3  2  1  0
  4  3  1  0
  4  5  1  0
  5  6  1  6
  5  7  1  0
  7  8  2  0
  9  7  1  0
  9 10  1  0
 11 12  1  0
 10 11  1  1
 12 16  1  0
 13 12  2  0
 14 10  1  0
 14 15  2  0
 17 14  1  0
 18 17  1  0
 18 23  1  0
 18 19  1  6
 20 19  1  0
 20 21  1  0
 21 25  1  0
 22 21  2  0
 23 24  1  0
 26 23  2  0
M  END
$$$$
