MDE.pdb
     RDKit          3D

 26 25  0  0  1  0  0  0  0  0999 V2000
   23.5894  -20.7784   -9.0188 C   0  0  0  0  0  0  0  0  0  0  0  0
   25.3403  -21.0587   -9.0919 S   0  0  0  0  0  0  0  0  0  0  0  0
   26.0682  -21.3274  -10.6788 C   0  0  0  0  0  0  0  0  0  0  0  0
   25.1849  -21.1562  -11.8505 C   0  0  0  0  0  0  0  0  0  0  0  0
   25.7576  -21.5307  -13.1498 C   0  0  2  0  0  0  0  0  0  0  0  0
   27.0669  -21.0308  -13.3849 N   0  0  0  0  0  0  0  0  0  0  0  0
   24.8523  -21.0984  -14.2579 C   0  0  0  0  0  0  0  0  0  0  0  0
   24.7469  -19.8863  -14.5102 O   0  0  0  0  0  0  0  0  0  0  0  0
   24.1328  -22.0415  -15.0030 N   0  0  0  0  0  0  0  0  0  0  0  0
   23.3303  -21.5506  -16.1546 C   0  0  1  0  0  0  0  0  0  0  0  0
   23.7332  -22.3841  -17.3350 C   0  0  0  0  0  0  0  0  0  0  0  0
   25.0476  -22.2624  -17.8802 C   0  0  0  0  0  0  0  0  0  0  0  0
   25.8351  -21.3008  -17.8781 O   0  0  0  0  0  0  0  0  0  0  0  0
   21.9221  -21.7070  -15.7311 C   0  0  0  0  0  0  0  0  0  0  0  0
   21.0125  -21.3920  -16.5833 O   0  0  0  0  0  0  0  0  0  0  0  0
   25.5856  -23.4071  -18.5444 O   0  0  0  0  0  0  0  0  0  0  0  0
   21.4386  -22.1665  -14.5026 N   0  0  0  0  0  0  0  0  0  0  0  0
   20.0073  -22.2852  -14.2376 C   0  0  1  0  0  0  0  0  0  0  0  0
   19.8279  -23.3382  -13.1848 C   0  0  0  0  0  0  0  0  0  0  0  0
   18.3866  -23.4620  -12.7732 C   0  0  0  0  0  0  0  0  0  0  0  0
   18.2847  -24.5117  -11.7316 C   0  0  0  0  0  0  0  0  0  0  0  0
   17.7428  -24.2549  -10.6388 O   0  0  0  0  0  0  0  0  0  0  0  0
   19.4293  -21.0061  -13.8010 C   0  0  0  0  0  0  0  0  0  0  0  0
   18.1192  -20.6870  -14.0831 O   0  0  0  0  0  0  0  0  0  0  0  0
   18.7769  -25.7839  -11.9329 O   0  0  0  0  0  0  0  0  0  0  0  0
   20.1336  -20.1966  -13.1659 O   0  0  0  0  0  0  0  0  0  0  0  0
  2  1  1  0
  3  2  1  0
  4  3  1  0
  4  5  1  0
  5  6  1  6
  5  7  1  0
  7  8  2  0
  9  7  1  0
  9 10  1  0
 11 12  1  0
 10 11  1  6
 12 16  1  0
 13 12  2  0
 14 10  1  0
 14 15  2  0
 17 14  1  0
 18 17  1  0
 18 23  1  0
 18 19  1  1
 20 19  1  0
 20 21  1  0
 21 25  1  0
 22 21  2  0
 23 24  1  0
 26 23  2  0
M  END
$$$$
