MDE.pdb
     RDKit          3D

 26 25  0  0  1  0  0  0  0  0999 V2000
   10.8073  -10.1654  -12.5849 C   0  0  0  0  0  0  0  0  0  0  0  0
   10.8180   -9.9184  -14.3423 S   0  0  0  0  0  0  0  0  0  0  0  0
   12.3173  -10.2528  -15.2143 C   0  0  0  0  0  0  0  0  0  0  0  0
   13.4640  -10.7171  -14.4069 C   0  0  0  0  0  0  0  0  0  0  0  0
   14.7224  -10.9258  -15.1345 C   0  0  2  0  0  0  0  0  0  0  0  0
   15.1871  -12.2687  -15.1384 N   0  0  0  0  0  0  0  0  0  0  0  0
   15.7888  -10.0307  -14.5905 C   0  0  0  0  0  0  0  0  0  0  0  0
   16.4831  -10.4306  -13.6408 O   0  0  0  0  0  0  0  0  0  0  0  0
   16.0057   -8.7606  -15.1401 N   0  0  0  0  0  0  0  0  0  0  0  0
   17.0490   -7.9035  -14.5171 C   0  0  1  0  0  0  0  0  0  0  0  0
   18.1558   -7.7882  -15.5230 C   0  0  0  0  0  0  0  0  0  0  0  0
   19.2667   -6.9277  -15.2676 C   0  0  0  0  0  0  0  0  0  0  0  0
   20.2572   -6.6605  -15.9694 O   0  0  0  0  0  0  0  0  0  0  0  0
   16.3591   -6.6348  -14.1994 C   0  0  0  0  0  0  0  0  0  0  0  0
   15.6580   -6.0960  -15.1327 O   0  0  0  0  0  0  0  0  0  0  0  0
   19.2841   -6.2414  -14.0148 O   0  0  0  0  0  0  0  0  0  0  0  0
   16.3643   -5.9311  -12.9915 N   0  0  0  0  0  0  0  0  0  0  0  0
   15.6906   -4.6430  -12.8514 C   0  0  1  0  0  0  0  0  0  0  0  0
   15.5995   -4.3371  -11.3859 C   0  0  0  0  0  0  0  0  0  0  0  0
   14.9256   -3.0147  -11.1427 C   0  0  0  0  0  0  0  0  0  0  0  0
   14.8870   -2.7696   -9.6813 C   0  0  0  0  0  0  0  0  0  0  0  0
   14.3191   -1.7538   -9.2344 O   0  0  0  0  0  0  0  0  0  0  0  0
   16.4078   -3.5761  -13.5640 C   0  0  0  0  0  0  0  0  0  0  0  0
   15.7590   -2.4268  -13.9591 O   0  0  0  0  0  0  0  0  0  0  0  0
   15.4671   -3.6410   -8.7839 O   0  0  0  0  0  0  0  0  0  0  0  0
   17.6215   -3.7113  -13.8159 O   0  0  0  0  0  0  0  0  0  0  0  0
  2  1  1  0
  3  2  1  0
  4  3  1  0
  4  5  1  0
  5  6  1  1
  5  7  1  0
  7  8  2  0
  9  7  1  0
  9 10  1  0
 11 12  1  0
 10 11  1  6
 12 16  1  0
 13 12  2  0
 14 10  1  0
 14 15  2  0
 17 14  1  0
 18 17  1  0
 18 23  1  0
 18 19  1  1
 20 19  1  0
 20 21  1  0
 21 25  1  0
 22 21  2  0
 23 24  1  0
 26 23  2  0
M  END
$$$$
