MDE.pdb
     RDKit          3D

 26 25  0  0  1  0  0  0  0  0999 V2000
   16.2575  -18.2008  -14.8775 C   0  0  0  0  0  0  0  0  0  0  0  0
   17.2201  -16.7190  -14.7124 S   0  0  0  0  0  0  0  0  0  0  0  0
   16.3918  -15.1705  -14.9024 C   0  0  0  0  0  0  0  0  0  0  0  0
   17.2111  -13.9544  -14.7222 C   0  0  0  0  0  0  0  0  0  0  0  0
   16.4828  -12.6793  -14.7311 C   0  0  2  0  0  0  0  0  0  0  0  0
   15.5975  -12.5119  -15.8300 N   0  0  0  0  0  0  0  0  0  0  0  0
   17.4434  -11.5348  -14.6860 C   0  0  0  0  0  0  0  0  0  0  0  0
   18.3173  -11.5176  -13.8029 O   0  0  0  0  0  0  0  0  0  0  0  0
   17.3633  -10.4964  -15.6228 N   0  0  0  0  0  0  0  0  0  0  0  0
   18.3286   -9.3723  -15.4974 C   0  0  1  0  0  0  0  0  0  0  0  0
   18.7107   -8.9866  -16.8957 C   0  0  0  0  0  0  0  0  0  0  0  0
   19.5917   -7.8846  -17.1175 C   0  0  0  0  0  0  0  0  0  0  0  0
   19.9900   -7.3720  -18.1775 O   0  0  0  0  0  0  0  0  0  0  0  0
   17.6032   -8.3309  -14.7384 C   0  0  0  0  0  0  0  0  0  0  0  0
   16.4166   -8.0333  -15.1336 O   0  0  0  0  0  0  0  0  0  0  0  0
   20.1253   -7.2348  -15.9626 O   0  0  0  0  0  0  0  0  0  0  0  0
   18.0442   -7.6154  -13.6213 N   0  0  0  0  0  0  0  0  0  0  0  0
   17.2261   -6.5742  -13.0055 C   0  0  1  0  0  0  0  0  0  0  0  0
   17.1425   -6.8731  -11.5381 C   0  0  0  0  0  0  0  0  0  0  0  0
   16.3444   -5.8267  -10.8100 C   0  0  0  0  0  0  0  0  0  0  0  0
   16.3393   -6.1611   -9.3660 C   0  0  0  0  0  0  0  0  0  0  0  0
   17.4107   -6.4138   -8.7809 O   0  0  0  0  0  0  0  0  0  0  0  0
   17.7895   -5.2360  -13.2347 C   0  0  0  0  0  0  0  0  0  0  0  0
   17.0500   -4.1020  -12.9797 O   0  0  0  0  0  0  0  0  0  0  0  0
   15.1710   -6.2032   -8.6350 O   0  0  0  0  0  0  0  0  0  0  0  0
   18.9539   -5.1234  -13.6665 O   0  0  0  0  0  0  0  0  0  0  0  0
  2  1  1  0
  3  2  1  0
  4  3  1  0
  4  5  1  0
  5  6  1  6
  5  7  1  0
  7  8  2  0
  9  7  1  0
  9 10  1  0
 11 12  1  0
 10 11  1  6
 12 16  1  0
 13 12  2  0
 14 10  1  0
 14 15  2  0
 17 14  1  0
 18 17  1  0
 18 23  1  0
 18 19  1  1
 20 19  1  0
 20 21  1  0
 21 25  1  0
 22 21  2  0
 23 24  1  0
 26 23  2  0
M  END
$$$$
