MDE.pdb
     RDKit          3D

 26 25  0  0  1  0  0  0  0  0999 V2000
   18.7325  -15.2475  -16.5981 C   0  0  0  0  0  0  0  0  0  0  0  0
   19.3841  -14.7410  -18.1692 S   0  0  0  0  0  0  0  0  0  0  0  0
   20.2517  -13.2043  -18.2470 C   0  0  0  0  0  0  0  0  0  0  0  0
   20.6969  -12.7617  -19.5843 C   0  0  0  0  0  0  0  0  0  0  0  0
   22.1461  -12.7814  -19.8206 C   0  0  2  0  0  0  0  0  0  0  0  0
   22.8392  -13.8289  -19.1561 N   0  0  0  0  0  0  0  0  0  0  0  0
   22.7495  -11.4667  -19.4436 C   0  0  0  0  0  0  0  0  0  0  0  0
   23.2455  -11.3350  -18.3120 O   0  0  0  0  0  0  0  0  0  0  0  0
   22.7580  -10.3977  -20.3488 N   0  0  0  0  0  0  0  0  0  0  0  0
   23.4116   -9.1320  -19.9223 C   0  0  1  0  0  0  0  0  0  0  0  0
   23.7844   -8.4052  -21.1804 C   0  0  0  0  0  0  0  0  0  0  0  0
   24.3789   -7.1087  -21.1072 C   0  0  0  0  0  0  0  0  0  0  0  0
   24.6379   -6.3954  -20.1227 O   0  0  0  0  0  0  0  0  0  0  0  0
   22.4051   -8.4489  -19.0813 C   0  0  0  0  0  0  0  0  0  0  0  0
   21.1783   -8.5158  -19.4598 O   0  0  0  0  0  0  0  0  0  0  0  0
   24.7536   -6.4934  -22.3408 O   0  0  0  0  0  0  0  0  0  0  0  0
   22.6148   -7.7289  -17.9015 N   0  0  0  0  0  0  0  0  0  0  0  0
   21.5091   -7.1158  -17.1705 C   0  0  1  0  0  0  0  0  0  0  0  0
   21.6405   -7.5172  -15.7313 C   0  0  0  0  0  0  0  0  0  0  0  0
   20.5674   -6.8875  -14.8864 C   0  0  0  0  0  0  0  0  0  0  0  0
   20.7643   -7.3169  -13.4814 C   0  0  0  0  0  0  0  0  0  0  0  0
   21.6046   -6.7386  -12.7648 O   0  0  0  0  0  0  0  0  0  0  0  0
   21.5148   -5.6522  -17.3072 C   0  0  0  0  0  0  0  0  0  0  0  0
   20.3762   -4.9136  -17.0706 O   0  0  0  0  0  0  0  0  0  0  0  0
   20.0380   -8.3512  -12.9302 O   0  0  0  0  0  0  0  0  0  0  0  0
   22.5645   -5.0687  -17.6424 O   0  0  0  0  0  0  0  0  0  0  0  0
  2  1  1  0
  3  2  1  0
  4  3  1  0
  4  5  1  0
  5  6  1  1
  5  7  1  0
  7  8  2  0
  9  7  1  0
  9 10  1  0
 11 12  1  0
 10 11  1  6
 12 16  1  0
 13 12  2  0
 14 10  1  0
 14 15  2  0
 17 14  1  0
 18 17  1  0
 18 23  1  0
 18 19  1  1
 20 19  1  0
 20 21  1  0
 21 25  1  0
 22 21  2  0
 23 24  1  0
 26 23  2  0
M  END
$$$$
