MDE.pdb
     RDKit          3D

 26 25  0  0  1  0  0  0  0  0999 V2000
   18.1199  -14.9904  -15.7278 C   0  0  0  0  0  0  0  0  0  0  0  0
   19.4031  -14.5823  -16.8839 S   0  0  0  0  0  0  0  0  0  0  0  0
   20.6605  -13.4580  -16.3594 C   0  0  0  0  0  0  0  0  0  0  0  0
   20.2066  -12.2214  -15.6908 C   0  0  0  0  0  0  0  0  0  0  0  0
   20.2140  -11.0043  -16.5124 C   0  0  2  0  0  0  0  0  0  0  0  0
   21.3875  -10.8254  -17.2935 N   0  0  0  0  0  0  0  0  0  0  0  0
   19.9979   -9.7996  -15.6542 C   0  0  0  0  0  0  0  0  0  0  0  0
   19.0408   -9.7895  -14.8619 O   0  0  0  0  0  0  0  0  0  0  0  0
   20.8586   -8.6977  -15.7384 N   0  0  0  0  0  0  0  0  0  0  0  0
   20.6145   -7.5543  -14.8196 C   0  0  1  0  0  0  0  0  0  0  0  0
   21.9277   -6.8446  -14.6714 C   0  0  0  0  0  0  0  0  0  0  0  0
   22.0330   -5.7087  -13.8122 C   0  0  0  0  0  0  0  0  0  0  0  0
   21.1683   -5.1293  -13.1327 O   0  0  0  0  0  0  0  0  0  0  0  0
   19.5476   -6.7641  -15.4709 C   0  0  0  0  0  0  0  0  0  0  0  0
   19.6740   -6.5280  -16.7284 O   0  0  0  0  0  0  0  0  0  0  0  0
   23.3227   -5.1085  -13.6813 O   0  0  0  0  0  0  0  0  0  0  0  0
   18.3927   -6.2329  -14.8893 N   0  0  0  0  0  0  0  0  0  0  0  0
   17.4660   -5.3979  -15.6487 C   0  0  1  0  0  0  0  0  0  0  0  0
   16.0760   -5.8714  -15.3430 C   0  0  0  0  0  0  0  0  0  0  0  0
   15.0417   -4.9561  -15.9384 C   0  0  0  0  0  0  0  0  0  0  0  0
   14.0908   -5.7740  -16.7284 C   0  0  0  0  0  0  0  0  0  0  0  0
   14.1786   -7.0174  -16.7163 O   0  0  0  0  0  0  0  0  0  0  0  0
   17.6188   -3.9751  -15.3128 C   0  0  0  0  0  0  0  0  0  0  0  0
   17.3653   -2.9948  -16.2469 O   0  0  0  0  0  0  0  0  0  0  0  0
   13.0956   -5.1975  -17.4889 O   0  0  0  0  0  0  0  0  0  0  0  0
   17.9835   -3.6485  -14.1660 O   0  0  0  0  0  0  0  0  0  0  0  0
  2  1  1  0
  3  2  1  0
  4  3  1  0
  4  5  1  0
  5  6  1  1
  5  7  1  0
  7  8  2  0
  9  7  1  0
  9 10  1  0
 11 12  1  0
 10 11  1  6
 12 16  1  0
 13 12  2  0
 14 10  1  0
 14 15  2  0
 17 14  1  0
 18 17  1  0
 18 23  1  0
 18 19  1  1
 20 19  1  0
 20 21  1  0
 21 25  1  0
 22 21  2  0
 23 24  1  0
 26 23  2  0
M  END
$$$$
