MDE.pdb
     RDKit          3D

 26 25  0  0  1  0  0  0  0  0999 V2000
   27.5395  -13.5366  -18.5698 C   0  0  0  0  0  0  0  0  0  0  0  0
   26.9565  -14.6577  -17.3237 S   0  0  0  0  0  0  0  0  0  0  0  0
   25.2321  -14.6431  -16.9408 C   0  0  0  0  0  0  0  0  0  0  0  0
   24.4940  -13.4028  -17.2558 C   0  0  0  0  0  0  0  0  0  0  0  0
   24.6020  -12.3201  -16.2696 C   0  0  2  0  0  0  0  0  0  0  0  0
   24.6094  -12.7522  -14.9159 N   0  0  0  0  0  0  0  0  0  0  0  0
   23.5033  -11.3266  -16.4700 C   0  0  0  0  0  0  0  0  0  0  0  0
   23.3727  -10.7906  -17.5833 O   0  0  0  0  0  0  0  0  0  0  0  0
   22.6322  -11.0024  -15.4219 N   0  0  0  0  0  0  0  0  0  0  0  0
   21.5900   -9.9734  -15.6786 C   0  0  1  0  0  0  0  0  0  0  0  0
   20.3236  -10.4939  -15.0659 C   0  0  0  0  0  0  0  0  0  0  0  0
   19.1844   -9.6408  -14.9463 C   0  0  0  0  0  0  0  0  0  0  0  0
   18.4418   -9.4195  -13.9744 O   0  0  0  0  0  0  0  0  0  0  0  0
   22.1180   -8.7359  -15.0648 C   0  0  0  0  0  0  0  0  0  0  0  0
   22.6864   -8.8442  -13.9168 O   0  0  0  0  0  0  0  0  0  0  0  0
   18.7997   -8.9018  -16.1067 O   0  0  0  0  0  0  0  0  0  0  0  0
   22.0847   -7.4370  -15.5807 N   0  0  0  0  0  0  0  0  0  0  0  0
   22.6275   -6.3027  -14.8382 C   0  0  1  0  0  0  0  0  0  0  0  0
   22.7768   -5.1619  -15.8003 C   0  0  0  0  0  0  0  0  0  0  0  0
   21.4387   -4.6061  -16.2037 C   0  0  0  0  0  0  0  0  0  0  0  0
   21.6337   -3.7160  -17.3728 C   0  0  0  0  0  0  0  0  0  0  0  0
   22.7787   -3.5265  -17.8279 O   0  0  0  0  0  0  0  0  0  0  0  0
   21.7598   -5.9267  -13.7127 C   0  0  0  0  0  0  0  0  0  0  0  0
   22.2224   -5.1134  -12.7017 O   0  0  0  0  0  0  0  0  0  0  0  0
   20.5746   -3.0796  -17.9849 O   0  0  0  0  0  0  0  0  0  0  0  0
   20.5874   -6.3493  -13.6707 O   0  0  0  0  0  0  0  0  0  0  0  0
  2  1  1  0
  3  2  1  0
  4  3  1  0
  4  5  1  0
  5  6  1  1
  5  7  1  0
  7  8  2  0
  9  7  1  0
  9 10  1  0
 11 12  1  0
 10 11  1  1
 12 16  1  0
 13 12  2  0
 14 10  1  0
 14 15  2  0
 17 14  1  0
 18 17  1  0
 18 23  1  0
 18 19  1  6
 20 19  1  0
 20 21  1  0
 21 25  1  0
 22 21  2  0
 23 24  1  0
 26 23  2  0
M  END
$$$$
