MDE.pdb
     RDKit          3D

 26 25  0  0  1  0  0  0  0  0999 V2000
   17.6870  -15.2236  -17.7979 C   0  0  0  0  0  0  0  0  0  0  0  0
   19.4547  -15.0672  -17.7770 S   0  0  0  0  0  0  0  0  0  0  0  0
   20.1458  -13.5967  -17.0841 C   0  0  0  0  0  0  0  0  0  0  0  0
   19.3290  -12.3698  -17.1841 C   0  0  0  0  0  0  0  0  0  0  0  0
   19.9120  -11.1574  -16.5955 C   0  0  2  0  0  0  0  0  0  0  0  0
   20.3635  -11.3085  -15.2567 N   0  0  0  0  0  0  0  0  0  0  0  0
   18.9367  -10.0268  -16.6682 C   0  0  0  0  0  0  0  0  0  0  0  0
   18.4607   -9.7131  -17.7722 O   0  0  0  0  0  0  0  0  0  0  0  0
   18.5623   -9.3298  -15.5122 N   0  0  0  0  0  0  0  0  0  0  0  0
   17.5451   -8.2539  -15.6492 C   0  0  1  0  0  0  0  0  0  0  0  0
   16.7177   -8.2942  -14.3986 C   0  0  0  0  0  0  0  0  0  0  0  0
   15.6347   -9.2186  -14.2879 C   0  0  0  0  0  0  0  0  0  0  0  0
   15.0061   -9.6076  -13.2886 O   0  0  0  0  0  0  0  0  0  0  0  0
   18.3269   -7.0134  -15.8410 C   0  0  0  0  0  0  0  0  0  0  0  0
   19.3818   -6.8650  -15.1212 O   0  0  0  0  0  0  0  0  0  0  0  0
   15.1638   -9.8177  -15.4963 O   0  0  0  0  0  0  0  0  0  0  0  0
   18.0684   -5.9607  -16.7237 N   0  0  0  0  0  0  0  0  0  0  0  0
   18.8622   -4.7350  -16.7091 C   0  0  1  0  0  0  0  0  0  0  0  0
   18.9052   -4.2070  -18.1123 C   0  0  0  0  0  0  0  0  0  0  0  0
   19.8315   -5.0189  -18.9754 C   0  0  0  0  0  0  0  0  0  0  0  0
   19.4144   -4.8609  -20.3890 C   0  0  0  0  0  0  0  0  0  0  0  0
   18.8715   -3.8033  -20.7642 O   0  0  0  0  0  0  0  0  0  0  0  0
   18.2977   -3.7348  -15.7917 C   0  0  0  0  0  0  0  0  0  0  0  0
   17.1605   -4.0036  -15.0622 O   0  0  0  0  0  0  0  0  0  0  0  0
   19.6095   -5.8599  -21.3191 O   0  0  0  0  0  0  0  0  0  0  0  0
   18.8549   -2.6258  -15.6707 O   0  0  0  0  0  0  0  0  0  0  0  0
  2  1  1  0
  3  2  1  0
  4  3  1  0
  4  5  1  0
  5  6  1  1
  5  7  1  0
  7  8  2  0
  9  7  1  0
  9 10  1  0
 11 12  1  0
 10 11  1  1
 12 16  1  0
 13 12  2  0
 14 10  1  0
 14 15  2  0
 17 14  1  0
 18 17  1  0
 18 23  1  0
 18 19  1  6
 20 19  1  0
 20 21  1  0
 21 25  1  0
 22 21  2  0
 23 24  1  0
 26 23  2  0
M  END
$$$$
