MDE.pdb
     RDKit          3D

 26 25  0  0  1  0  0  0  0  0999 V2000
   27.5068  -16.3464  -15.0065 C   0  0  0  0  0  0  0  0  0  0  0  0
   26.1559  -15.3118  -15.5109 S   0  0  0  0  0  0  0  0  0  0  0  0
   26.3697  -14.3210  -16.9576 C   0  0  0  0  0  0  0  0  0  0  0  0
   25.2889  -13.3638  -17.2707 C   0  0  0  0  0  0  0  0  0  0  0  0
   23.9328  -13.9227  -17.3404 C   0  0  2  0  0  0  0  0  0  0  0  0
   23.7644  -14.9462  -18.3117 N   0  0  0  0  0  0  0  0  0  0  0  0
   22.9370  -12.8349  -17.5845 C   0  0  0  0  0  0  0  0  0  0  0  0
   22.7754  -12.4163  -18.7432 O   0  0  0  0  0  0  0  0  0  0  0  0
   22.1953  -12.2935  -16.5266 N   0  0  0  0  0  0  0  0  0  0  0  0
   21.2349  -11.2022  -16.8392 C   0  0  1  0  0  0  0  0  0  0  0  0
   19.8655  -11.8085  -16.7546 C   0  0  0  0  0  0  0  0  0  0  0  0
   18.7105  -10.9683  -16.7607 C   0  0  0  0  0  0  0  0  0  0  0  0
   18.4740   -9.9282  -17.3988 O   0  0  0  0  0  0  0  0  0  0  0  0
   21.5153  -10.1505  -15.8380 C   0  0  0  0  0  0  0  0  0  0  0  0
   21.6838  -10.5268  -14.6203 O   0  0  0  0  0  0  0  0  0  0  0  0
   17.6258  -11.3464  -15.9114 O   0  0  0  0  0  0  0  0  0  0  0  0
   21.6287   -8.7727  -16.0455 N   0  0  0  0  0  0  0  0  0  0  0  0
   21.7424   -7.8361  -14.9308 C   0  0  1  0  0  0  0  0  0  0  0  0
   22.0551   -6.4860  -15.5043 C   0  0  0  0  0  0  0  0  0  0  0  0
   22.3317   -5.4806  -14.4205 C   0  0  0  0  0  0  0  0  0  0  0  0
   22.4780   -4.1447  -15.0462 C   0  0  0  0  0  0  0  0  0  0  0  0
   23.0901   -4.0257  -16.1256 O   0  0  0  0  0  0  0  0  0  0  0  0
   20.5090   -7.7916  -14.1325 C   0  0  0  0  0  0  0  0  0  0  0  0
   20.5560   -7.6724  -12.7608 O   0  0  0  0  0  0  0  0  0  0  0  0
   21.9517   -3.0101  -14.4659 O   0  0  0  0  0  0  0  0  0  0  0  0
   19.4027   -7.8629  -14.7033 O   0  0  0  0  0  0  0  0  0  0  0  0
  2  1  1  0
  3  2  1  0
  4  3  1  0
  4  5  1  0
  5  6  1  6
  5  7  1  0
  7  8  2  0
  9  7  1  0
  9 10  1  0
 11 12  1  0
 10 11  1  1
 12 16  1  0
 13 12  2  0
 14 10  1  0
 14 15  2  0
 17 14  1  0
 18 17  1  0
 18 23  1  0
 18 19  1  6
 20 19  1  0
 20 21  1  0
 21 25  1  0
 22 21  2  0
 23 24  1  0
 26 23  2  0
M  END
$$$$
