MDE.pdb
     RDKit          3D

 26 25  0  0  1  0  0  0  0  0999 V2000
   28.0746  -12.6107  -15.0900 C   0  0  0  0  0  0  0  0  0  0  0  0
   27.8741  -11.1206  -16.0328 S   0  0  0  0  0  0  0  0  0  0  0  0
   26.6186  -11.0918  -17.2751 C   0  0  0  0  0  0  0  0  0  0  0  0
   25.6242  -12.1836  -17.2375 C   0  0  0  0  0  0  0  0  0  0  0  0
   24.7023  -12.2555  -18.3783 C   0  0  2  0  0  0  0  0  0  0  0  0
   25.2846  -11.9217  -19.6308 N   0  0  0  0  0  0  0  0  0  0  0  0
   23.5102  -11.3870  -18.1354 C   0  0  0  0  0  0  0  0  0  0  0  0
   23.3585  -10.3664  -18.8277 O   0  0  0  0  0  0  0  0  0  0  0  0
   22.5762  -11.7151  -17.1442 N   0  0  0  0  0  0  0  0  0  0  0  0
   21.3293  -10.9083  -17.0710 C   0  0  1  0  0  0  0  0  0  0  0  0
   20.2064  -11.8841  -16.8789 C   0  0  0  0  0  0  0  0  0  0  0  0
   19.8659  -12.7964  -17.9237 C   0  0  0  0  0  0  0  0  0  0  0  0
   19.7051  -12.6038  -19.1411 O   0  0  0  0  0  0  0  0  0  0  0  0
   21.5455   -9.9753  -15.9443 C   0  0  0  0  0  0  0  0  0  0  0  0
   22.0442  -10.4622  -14.8640 O   0  0  0  0  0  0  0  0  0  0  0  0
   19.6695  -14.1630  -17.5567 O   0  0  0  0  0  0  0  0  0  0  0  0
   21.2785   -8.6038  -15.8988 N   0  0  0  0  0  0  0  0  0  0  0  0
   21.4267   -7.8340  -14.6667 C   0  0  1  0  0  0  0  0  0  0  0  0
   22.4434   -6.7615  -14.9227 C   0  0  0  0  0  0  0  0  0  0  0  0
   21.7886   -5.4747  -15.3437 C   0  0  0  0  0  0  0  0  0  0  0  0
   22.8478   -4.4652  -15.5810 C   0  0  0  0  0  0  0  0  0  0  0  0
   24.0379   -4.7401  -15.3320 O   0  0  0  0  0  0  0  0  0  0  0  0
   20.1485   -7.2499  -14.2358 C   0  0  0  0  0  0  0  0  0  0  0  0
   20.0076   -6.6998  -12.9807 O   0  0  0  0  0  0  0  0  0  0  0  0
   22.5575   -3.2114  -16.0759 O   0  0  0  0  0  0  0  0  0  0  0  0
   19.1761   -7.2516  -15.0163 O   0  0  0  0  0  0  0  0  0  0  0  0
  2  1  1  0
  3  2  1  0
  4  3  1  0
  4  5  1  0
  5  6  1  6
  5  7  1  0
  7  8  2  0
  9  7  1  0
  9 10  1  0
 11 12  1  0
 10 11  1  1
 12 16  1  0
 13 12  2  0
 14 10  1  0
 14 15  2  0
 17 14  1  0
 18 17  1  0
 18 23  1  0
 18 19  1  6
 20 19  1  0
 20 21  1  0
 21 25  1  0
 22 21  2  0
 23 24  1  0
 26 23  2  0
M  END
$$$$
