ACV.pdb
     RDKit          3D

 19 18  0  0  1  0  0  0  0  0999 V2000
    8.2692  -12.5118   19.1459 C   0  0  0  0  0  0  0  0  0  0  0  0
    8.4051  -14.0092   19.2306 C   0  0  2  0  0  0  0  0  0  0  0  0
    7.9161  -14.6696   18.0601 N   0  0  0  0  0  0  0  0  0  0  0  0
    7.7297  -14.5432   20.4626 C   0  0  0  0  0  0  0  0  0  0  0  0
    6.5015  -14.8047   20.4523 O   0  0  0  0  0  0  0  0  0  0  0  0
    8.4363  -14.7730   21.6742 N   0  0  0  0  0  0  0  0  0  0  0  0
    7.7428  -15.2861   22.8351 C   0  0  1  0  0  0  0  0  0  0  0  0
    8.0324  -16.7719   22.9099 C   0  0  0  0  0  0  0  0  0  0  0  0
    7.4484  -17.5102   24.4336 S   0  0  0  0  0  0  0  0  0  0  0  0
    8.2821  -14.6648   24.0953 C   0  0  0  0  0  0  0  0  0  0  0  0
    9.5232  -14.6540   24.2742 O   0  0  0  0  0  0  0  0  0  0  0  0
    5.7069  -13.1049   27.2049 C   0  0  0  0  0  0  0  0  0  0  0  0
    6.9728  -12.4270   26.7805 C   0  0  2  0  0  0  0  0  0  0  0  0
    6.6955  -11.3700   25.7302 C   0  0  0  0  0  0  0  0  0  0  0  0
    7.9436  -13.4659   26.2699 C   0  0  2  0  0  0  0  0  0  0  0  0
    7.4420  -14.1014   25.0682 N   0  0  0  0  0  0  0  0  0  0  0  0
    8.2691  -14.4957   27.2664 C   0  0  0  0  0  0  0  0  0  0  0  0
    9.0686  -14.2121   28.3626 O   0  0  0  0  0  0  0  0  0  0  0  0
    7.8321  -15.6682   27.1562 O   0  0  0  0  0  0  0  0  0  0  0  0
  2  1  1  6
  2  3  1  0
  4  2  1  0
  5  4  2  0
  6  4  1  0
  7  6  1  0
  7  8  1  1
  8  9  1  0
 10 16  1  0
 10  7  1  0
 11 10  2  0
 13 12  1  6
 13 14  1  0
 15 13  1  0
 15 16  1  6
 17 15  1  0
 17 18  1  0
 19 17  2  0
M  END
$$$$
