ACV.pdb
     RDKit          3D

 19 18  0  0  1  0  0  0  0  0999 V2000
    7.9134  -14.0552   19.7288 C   0  0  0  0  0  0  0  0  0  0  0  0
    8.2600  -15.1267   20.7285 C   0  0  2  0  0  0  0  0  0  0  0  0
    7.3323  -16.2149   20.7072 N   0  0  0  0  0  0  0  0  0  0  0  0
    8.3755  -14.5548   22.1138 C   0  0  0  0  0  0  0  0  0  0  0  0
    9.2834  -13.7321   22.3889 O   0  0  0  0  0  0  0  0  0  0  0  0
    7.4793  -14.9119   23.1576 N   0  0  0  0  0  0  0  0  0  0  0  0
    7.6031  -14.3024   24.4634 C   0  0  1  0  0  0  0  0  0  0  0  0
    6.2529  -14.4181   25.1420 C   0  0  0  0  0  0  0  0  0  0  0  0
    6.1846  -13.5258   26.6934 S   0  0  0  0  0  0  0  0  0  0  0  0
    8.5920  -15.0564   25.3112 C   0  0  0  0  0  0  0  0  0  0  0  0
    8.8239  -16.2576   25.0358 O   0  0  0  0  0  0  0  0  0  0  0  0
   11.8118  -15.0136   29.0719 C   0  0  0  0  0  0  0  0  0  0  0  0
   10.8164  -14.2463   28.2577 C   0  0  2  0  0  0  0  0  0  0  0  0
    9.7080  -13.6975   29.1337 C   0  0  0  0  0  0  0  0  0  0  0  0
   10.2657  -15.1440   27.1745 C   0  0  2  0  0  0  0  0  0  0  0  0
    9.2567  -14.4580   26.3927 N   0  0  0  0  0  0  0  0  0  0  0  0
    9.7102  -16.4028   27.6904 C   0  0  0  0  0  0  0  0  0  0  0  0
   10.5322  -17.4522   28.0705 O   0  0  0  0  0  0  0  0  0  0  0  0
    8.4702  -16.5682   27.8036 O   0  0  0  0  0  0  0  0  0  0  0  0
  2  1  1  6
  2  3  1  0
  4  2  1  0
  5  4  2  0
  6  4  1  0
  7  6  1  0
  7  8  1  1
  8  9  1  0
 10 16  1  0
 10  7  1  0
 11 10  2  0
 13 12  1  1
 13 14  1  0
 15 13  1  0
 15 16  1  1
 17 15  1  0
 17 18  1  0
 19 17  2  0
M  END
$$$$
