ACV.pdb
     RDKit          3D

 19 18  0  0  1  0  0  0  0  0999 V2000
    2.8534  -18.3204   22.0387 C   0  0  0  0  0  0  0  0  0  0  0  0
    3.6690  -18.3107   20.7729 C   0  0  2  0  0  0  0  0  0  0  0  0
    3.7733  -19.6079   20.1798 N   0  0  0  0  0  0  0  0  0  0  0  0
    5.0327  -17.7264   21.0144 C   0  0  0  0  0  0  0  0  0  0  0  0
    5.9804  -18.4579   21.3935 O   0  0  0  0  0  0  0  0  0  0  0  0
    5.3081  -16.3445   20.8285 N   0  0  0  0  0  0  0  0  0  0  0  0
    6.6423  -15.8320   21.0503 C   0  0  1  0  0  0  0  0  0  0  0  0
    6.6634  -14.4032   20.5452 C   0  0  0  0  0  0  0  0  0  0  0  0
    8.2463  -13.6060   20.8040 S   0  0  0  0  0  0  0  0  0  0  0  0
    6.9579  -15.7876   22.5211 C   0  0  0  0  0  0  0  0  0  0  0  0
    6.1915  -15.1471   23.2792 O   0  0  0  0  0  0  0  0  0  0  0  0
    8.9720  -18.6577   24.8120 C   0  0  0  0  0  0  0  0  0  0  0  0
    8.1243  -17.5065   25.2576 C   0  0  2  0  0  0  0  0  0  0  0  0
    6.6508  -17.8376   25.1302 C   0  0  0  0  0  0  0  0  0  0  0  0
    8.4838  -16.2838   24.4463 C   0  0  2  0  0  0  0  0  0  0  0  0
    8.0769  -16.4377   23.0642 N   0  0  0  0  0  0  0  0  0  0  0  0
    9.9144  -15.9520   24.4993 C   0  0  0  0  0  0  0  0  0  0  0  0
   10.5069  -15.4970   25.6669 O   0  0  0  0  0  0  0  0  0  0  0  0
   10.6472  -16.0703   23.4860 O   0  0  0  0  0  0  0  0  0  0  0  0
  2  1  1  1
  2  3  1  0
  4  2  1  0
  5  4  2  0
  6  4  1  0
  7  6  1  0
  7  8  1  1
  8  9  1  0
 10 16  1  0
 10  7  1  0
 11 10  2  0
 13 12  1  6
 13 14  1  0
 15 13  1  0
 15 16  1  6
 17 15  1  0
 17 18  1  0
 19 17  2  0
M  END
$$$$
