ACV.pdb
     RDKit          3D

 19 18  0  0  1  0  0  0  0  0999 V2000
    7.9022  -16.3781   14.4823 C   0  0  0  0  0  0  0  0  0  0  0  0
    7.9408  -14.8801   14.6306 C   0  0  2  0  0  0  0  0  0  0  0  0
    8.6319  -14.2418   13.5535 N   0  0  0  0  0  0  0  0  0  0  0  0
    8.5368  -14.4841   15.9524 C   0  0  0  0  0  0  0  0  0  0  0  0
    9.7716  -14.2816   16.0586 O   0  0  0  0  0  0  0  0  0  0  0  0
    7.7455  -14.3232   17.1221 N   0  0  0  0  0  0  0  0  0  0  0  0
    8.3587  -13.9062   18.3639 C   0  0  1  0  0  0  0  0  0  0  0  0
    7.2412  -13.6853   19.3636 C   0  0  0  0  0  0  0  0  0  0  0  0
    7.8510  -13.3752   21.0188 S   0  0  0  0  0  0  0  0  0  0  0  0
    9.2386  -14.9956   18.9153 C   0  0  0  0  0  0  0  0  0  0  0  0
    8.9377  -16.1886   18.6735 O   0  0  0  0  0  0  0  0  0  0  0  0
   13.6049  -16.5672   20.1048 C   0  0  0  0  0  0  0  0  0  0  0  0
   12.6886  -15.4953   19.6011 C   0  0  2  0  0  0  0  0  0  0  0  0
   13.1931  -14.1217   19.9961 C   0  0  0  0  0  0  0  0  0  0  0  0
   11.2969  -15.7427   20.1343 C   0  0  2  0  0  0  0  0  0  0  0  0
   10.3775  -14.7162   19.6864 N   0  0  0  0  0  0  0  0  0  0  0  0
   11.2452  -15.8376   21.5999 C   0  0  0  0  0  0  0  0  0  0  0  0
   11.8300  -16.8973   22.2755 O   0  0  0  0  0  0  0  0  0  0  0  0
   10.6681  -14.9596   22.2883 O   0  0  0  0  0  0  0  0  0  0  0  0
  2  1  1  6
  2  3  1  0
  4  2  1  0
  5  4  2  0
  6  4  1  0
  7  6  1  0
  7  8  1  1
  8  9  1  0
 10 16  1  0
 10  7  1  0
 11 10  2  0
 13 12  1  1
 13 14  1  0
 15 13  1  0
 15 16  1  1
 17 15  1  0
 17 18  1  0
 19 17  2  0
M  END
$$$$
