ACV.pdb
     RDKit          3D

 19 18  0  0  1  0  0  0  0  0999 V2000
    8.8540  -13.4892   18.9392 C   0  0  0  0  0  0  0  0  0  0  0  0
    8.2051  -14.8348   19.1285 C   0  0  2  0  0  0  0  0  0  0  0  0
    7.4090  -15.2207   18.0049 N   0  0  0  0  0  0  0  0  0  0  0  0
    7.3915  -14.8683   20.3919 C   0  0  0  0  0  0  0  0  0  0  0  0
    6.2369  -14.3750   20.4186 O   0  0  0  0  0  0  0  0  0  0  0  0
    7.8817  -15.4488   21.5931 N   0  0  0  0  0  0  0  0  0  0  0  0
    7.0601  -15.4614   22.7834 C   0  0  1  0  0  0  0  0  0  0  0  0
    6.6789  -16.9038   23.0498 C   0  0  0  0  0  0  0  0  0  0  0  0
    8.0886  -17.9175   23.4891 S   0  0  0  0  0  0  0  0  0  0  0  0
    7.8432  -14.9818   23.9758 C   0  0  0  0  0  0  0  0  0  0  0  0
    9.0928  -15.0838   23.9523 O   0  0  0  0  0  0  0  0  0  0  0  0
    5.9167  -13.2021   27.3983 C   0  0  0  0  0  0  0  0  0  0  0  0
    7.2180  -12.7135   26.8412 C   0  0  2  0  0  0  0  0  0  0  0  0
    6.9934  -11.6040   25.8335 C   0  0  0  0  0  0  0  0  0  0  0  0
    7.9587  -13.8754   26.2216 C   0  0  2  0  0  0  0  0  0  0  0  0
    7.2195  -14.4281   25.1046 N   0  0  0  0  0  0  0  0  0  0  0  0
    8.2657  -14.9459   27.1804 C   0  0  0  0  0  0  0  0  0  0  0  0
    9.2293  -14.7801   28.1629 O   0  0  0  0  0  0  0  0  0  0  0  0
    7.6634  -16.0474   27.1400 O   0  0  0  0  0  0  0  0  0  0  0  0
  2  1  1  6
  2  3  1  0
  4  2  1  0
  5  4  2  0
  6  4  1  0
  7  6  1  0
  7  8  1  1
  8  9  1  0
 10 16  1  0
 10  7  1  0
 11 10  2  0
 13 12  1  6
 13 14  1  0
 15 13  1  0
 15 16  1  6
 17 15  1  0
 17 18  1  0
 19 17  2  0
M  END
$$$$
