ACV.pdb
     RDKit          3D

 19 18  0  0  1  0  0  0  0  0999 V2000
    6.2542  -17.8737   22.8296 C   0  0  0  0  0  0  0  0  0  0  0  0
    6.7065  -16.5316   22.3179 C   0  0  2  0  0  0  0  0  0  0  0  0
    7.2924  -16.6122   21.0158 N   0  0  0  0  0  0  0  0  0  0  0  0
    7.6515  -15.8760   23.2855 C   0  0  0  0  0  0  0  0  0  0  0  0
    8.8865  -16.0925   23.2146 O   0  0  0  0  0  0  0  0  0  0  0  0
    7.2001  -14.9967   24.3069 N   0  0  0  0  0  0  0  0  0  0  0  0
    8.1323  -14.4734   25.2812 C   0  0  1  0  0  0  0  0  0  0  0  0
    7.3846  -13.4503   26.1125 C   0  0  0  0  0  0  0  0  0  0  0  0
    8.4000  -12.7414   27.4064 S   0  0  0  0  0  0  0  0  0  0  0  0
    8.5884  -15.5591   26.2183 C   0  0  0  0  0  0  0  0  0  0  0  0
    7.7319  -16.3488   26.6823 O   0  0  0  0  0  0  0  0  0  0  0  0
   11.9945  -18.7208   27.4086 C   0  0  0  0  0  0  0  0  0  0  0  0
   11.6505  -17.4425   26.7087 C   0  0  2  0  0  0  0  0  0  0  0  0
   12.8160  -16.4743   26.7451 C   0  0  0  0  0  0  0  0  0  0  0  0
   10.4199  -16.8435   27.3483 C   0  0  2  0  0  0  0  0  0  0  0  0
    9.9345  -15.7117   26.5847 N   0  0  0  0  0  0  0  0  0  0  0  0
   10.6313  -16.4352   28.7440 C   0  0  0  0  0  0  0  0  0  0  0  0
   10.7824  -17.3716   29.7549 O   0  0  0  0  0  0  0  0  0  0  0  0
   10.6819  -15.2222   29.0661 O   0  0  0  0  0  0  0  0  0  0  0  0
  2  1  1  1
  2  3  1  0
  4  2  1  0
  5  4  2  0
  6  4  1  0
  7  6  1  0
  7  8  1  1
  8  9  1  0
 10 16  1  0
 10  7  1  0
 11 10  2  0
 13 12  1  1
 13 14  1  0
 15 13  1  0
 15 16  1  6
 17 15  1  0
 17 18  1  0
 19 17  2  0
M  END
$$$$
