ACV.pdb
     RDKit          3D

 19 18  0  0  1  0  0  0  0  0999 V2000
    8.9896  -15.8775   20.5328 C   0  0  0  0  0  0  0  0  0  0  0  0
    7.9807  -14.7925   20.8021 C   0  0  2  0  0  0  0  0  0  0  0  0
    8.0319  -13.7449   19.8299 N   0  0  0  0  0  0  0  0  0  0  0  0
    8.1429  -14.2374   22.1895 C   0  0  0  0  0  0  0  0  0  0  0  0
    8.9488  -13.2998   22.4096 O   0  0  0  0  0  0  0  0  0  0  0  0
    7.4056  -14.7385   23.2965 N   0  0  0  0  0  0  0  0  0  0  0  0
    7.6229  -14.1979   24.6203 C   0  0  1  0  0  0  0  0  0  0  0  0
    6.2949  -14.2486   25.3488 C   0  0  0  0  0  0  0  0  0  0  0  0
    6.3242  -13.3453   26.8951 S   0  0  0  0  0  0  0  0  0  0  0  0
    8.5868  -15.0565   25.3942 C   0  0  0  0  0  0  0  0  0  0  0  0
    8.7164  -16.2590   25.0636 O   0  0  0  0  0  0  0  0  0  0  0  0
    9.9002  -14.5380   29.4985 C   0  0  0  0  0  0  0  0  0  0  0  0
   10.8755  -14.5759   28.3628 C   0  0  2  0  0  0  0  0  0  0  0  0
   11.2540  -13.1746   27.9268 C   0  0  0  0  0  0  0  0  0  0  0  0
   10.2753  -15.3621   27.2208 C   0  0  2  0  0  0  0  0  0  0  0  0
    9.3387  -14.5532   26.4671 N   0  0  0  0  0  0  0  0  0  0  0  0
    9.6120  -16.5999   27.6537 C   0  0  0  0  0  0  0  0  0  0  0  0
   10.3418  -17.7000   28.0763 O   0  0  0  0  0  0  0  0  0  0  0  0
    8.3599  -16.7006   27.6544 O   0  0  0  0  0  0  0  0  0  0  0  0
  2  1  1  6
  2  3  1  0
  4  2  1  0
  5  4  2  0
  6  4  1  0
  7  6  1  0
  7  8  1  1
  8  9  1  0
 10 16  1  0
 10  7  1  0
 11 10  2  0
 13 12  1  1
 13 14  1  0
 15 13  1  0
 15 16  1  1
 17 15  1  0
 17 18  1  0
 19 17  2  0
M  END
$$$$
