ACV.pdb
     RDKit          3D

 19 18  0  0  1  0  0  0  0  0999 V2000
    6.2034  -15.6205   20.9709 C   0  0  0  0  0  0  0  0  0  0  0  0
    6.9302  -14.3104   21.1225 C   0  0  2  0  0  0  0  0  0  0  0  0
    7.8364  -14.0601   20.0448 N   0  0  0  0  0  0  0  0  0  0  0  0
    7.6438  -14.2391   22.4434 C   0  0  0  0  0  0  0  0  0  0  0  0
    8.8367  -14.6188   22.5436 O   0  0  0  0  0  0  0  0  0  0  0  0
    7.0137  -13.7480   23.6190 N   0  0  0  0  0  0  0  0  0  0  0  0
    7.7539  -13.6586   24.8584 C   0  0  1  0  0  0  0  0  0  0  0  0
    6.9470  -12.7882   25.8007 C   0  0  0  0  0  0  0  0  0  0  0  0
    7.6944  -12.6546   27.4229 S   0  0  0  0  0  0  0  0  0  0  0  0
    7.8789  -15.0130   25.5026 C   0  0  0  0  0  0  0  0  0  0  0  0
    6.8332  -15.6652   25.7338 O   0  0  0  0  0  0  0  0  0  0  0  0
   11.4427  -17.2662   25.4460 C   0  0  0  0  0  0  0  0  0  0  0  0
   10.0571  -17.8057   25.6230 C   0  0  2  0  0  0  0  0  0  0  0  0
    9.3845  -18.0218   24.2821 C   0  0  0  0  0  0  0  0  0  0  0  0
    9.2627  -16.8556   26.4882 C   0  0  2  0  0  0  0  0  0  0  0  0
    9.1229  -15.5625   25.8493 N   0  0  0  0  0  0  0  0  0  0  0  0
    9.8340  -16.6769   27.8303 C   0  0  0  0  0  0  0  0  0  0  0  0
    9.9154  -17.7315   28.7261 O   0  0  0  0  0  0  0  0  0  0  0  0
   10.2675  -15.5606   28.2090 O   0  0  0  0  0  0  0  0  0  0  0  0
  2  1  1  6
  2  3  1  0
  4  2  1  0
  5  4  2  0
  6  4  1  0
  7  6  1  0
  7  8  1  1
  8  9  1  0
 10 16  1  0
 10  7  1  0
 11 10  2  0
 13 12  1  6
 13 14  1  0
 15 13  1  0
 15 16  1  6
 17 15  1  0
 17 18  1  0
 19 17  2  0
M  END
$$$$
