ACV.pdb
     RDKit          3D

 19 18  0  0  1  0  0  0  0  0999 V2000
    6.4450  -15.7495   21.0429 C   0  0  0  0  0  0  0  0  0  0  0  0
    6.9617  -14.3412   21.1747 C   0  0  2  0  0  0  0  0  0  0  0  0
    7.7622  -13.9458   20.0576 N   0  0  0  0  0  0  0  0  0  0  0  0
    7.7197  -14.1629   22.4604 C   0  0  0  0  0  0  0  0  0  0  0  0
    8.9676  -14.2999   22.4877 O   0  0  0  0  0  0  0  0  0  0  0  0
    7.0715  -13.8370   23.6826 N   0  0  0  0  0  0  0  0  0  0  0  0
    7.8276  -13.7777   24.9142 C   0  0  1  0  0  0  0  0  0  0  0  0
    6.9436  -13.1150   25.9515 C   0  0  0  0  0  0  0  0  0  0  0  0
    7.7373  -12.9896   27.5522 S   0  0  0  0  0  0  0  0  0  0  0  0
    8.1384  -15.1625   25.4152 C   0  0  0  0  0  0  0  0  0  0  0  0
    7.2169  -16.0126   25.4366 O   0  0  0  0  0  0  0  0  0  0  0  0
   10.4850  -17.6284   24.1561 C   0  0  0  0  0  0  0  0  0  0  0  0
   10.8852  -17.4600   25.5892 C   0  0  2  0  0  0  0  0  0  0  0  0
   11.3072  -18.7846   26.1930 C   0  0  0  0  0  0  0  0  0  0  0  0
    9.7355  -16.8493   26.3558 C   0  0  2  0  0  0  0  0  0  0  0  0
    9.4203  -15.5264   25.8556 N   0  0  0  0  0  0  0  0  0  0  0  0
    9.9758  -16.7785   27.8038 C   0  0  0  0  0  0  0  0  0  0  0  0
    9.9565  -17.9165   28.5950 O   0  0  0  0  0  0  0  0  0  0  0  0
   10.2066  -15.6822   28.3717 O   0  0  0  0  0  0  0  0  0  0  0  0
  2  1  1  6
  2  3  1  0
  4  2  1  0
  5  4  2  0
  6  4  1  0
  7  6  1  0
  7  8  1  1
  8  9  1  0
 10 16  1  0
 10  7  1  0
 11 10  2  0
 13 12  1  6
 13 14  1  0
 15 13  1  0
 15 16  1  6
 17 15  1  0
 17 18  1  0
 19 17  2  0
M  END
$$$$
