ACV.pdb
     RDKit          3D

 19 18  0  0  1  0  0  0  0  0999 V2000
    6.6804  -14.7136   20.3199 C   0  0  0  0  0  0  0  0  0  0  0  0
    7.1273  -13.3488   20.7729 C   0  0  2  0  0  0  0  0  0  0  0  0
    8.0128  -12.7254   19.8388 N   0  0  0  0  0  0  0  0  0  0  0  0
    7.7542  -13.4120   22.1376 C   0  0  0  0  0  0  0  0  0  0  0  0
    8.9853  -13.6256   22.2630 O   0  0  0  0  0  0  0  0  0  0  0  0
    6.9971  -13.2362   23.3276 N   0  0  0  0  0  0  0  0  0  0  0  0
    7.6373  -13.3444   24.6201 C   0  0  1  0  0  0  0  0  0  0  0  0
    6.6991  -12.7276   25.6380 C   0  0  0  0  0  0  0  0  0  0  0  0
    7.3166  -12.8647   27.3136 S   0  0  0  0  0  0  0  0  0  0  0  0
    7.8215  -14.7880   25.0037 C   0  0  0  0  0  0  0  0  0  0  0  0
    6.8176  -15.5392   25.0091 O   0  0  0  0  0  0  0  0  0  0  0  0
   11.5568  -16.7223   24.8867 C   0  0  0  0  0  0  0  0  0  0  0  0
   10.2239  -17.4027   24.8336 C   0  0  2  0  0  0  0  0  0  0  0  0
    9.6908  -17.4401   23.4153 C   0  0  0  0  0  0  0  0  0  0  0  0
    9.2670  -16.6903   25.7605 C   0  0  2  0  0  0  0  0  0  0  0  0
    9.0754  -15.3130   25.3529 N   0  0  0  0  0  0  0  0  0  0  0  0
    9.6862  -16.7281   27.1685 C   0  0  0  0  0  0  0  0  0  0  0  0
    9.9989  -15.5680   27.8597 O   0  0  0  0  0  0  0  0  0  0  0  0
    9.7746  -17.8151   27.7916 O   0  0  0  0  0  0  0  0  0  0  0  0
  2  1  1  6
  2  3  1  0
  4  2  1  0
  5  4  2  0
  6  4  1  0
  7  6  1  0
  7  8  1  1
  8  9  1  0
 10 16  1  0
 10  7  1  0
 11 10  2  0
 13 12  1  6
 13 14  1  0
 15 13  1  0
 15 16  1  6
 17 15  1  0
 17 18  1  0
 19 17  2  0
M  END
$$$$
