ACV.pdb
     RDKit          3D

 19 18  0  0  1  0  0  0  0  0999 V2000
    7.3273  -16.1007   18.9742 C   0  0  0  0  0  0  0  0  0  0  0  0
    8.3467  -16.2422   20.0735 C   0  0  2  0  0  0  0  0  0  0  0  0
    8.9753  -17.5267   20.0740 N   0  0  0  0  0  0  0  0  0  0  0  0
    7.7367  -15.9493   21.4156 C   0  0  0  0  0  0  0  0  0  0  0  0
    7.1761  -14.8468   21.6329 O   0  0  0  0  0  0  0  0  0  0  0  0
    7.7654  -16.8888   22.4818 N   0  0  0  0  0  0  0  0  0  0  0  0
    7.1188  -16.5830   23.7389 C   0  0  1  0  0  0  0  0  0  0  0  0
    7.0283  -17.8769   24.5228 C   0  0  0  0  0  0  0  0  0  0  0  0
    6.9353  -17.6045   26.2906 S   0  0  0  0  0  0  0  0  0  0  0  0
    7.9552  -15.6303   24.5499 C   0  0  0  0  0  0  0  0  0  0  0  0
    9.2035  -15.6948   24.4500 O   0  0  0  0  0  0  0  0  0  0  0  0
    6.2073  -12.8061   27.3081 C   0  0  0  0  0  0  0  0  0  0  0  0
    7.3624  -12.4587   26.4208 C   0  0  2  0  0  0  0  0  0  0  0  0
    6.8834  -11.8156   25.1347 C   0  0  0  0  0  0  0  0  0  0  0  0
    8.1665  -13.7073   26.1432 C   0  0  2  0  0  0  0  0  0  0  0  0
    7.3822  -14.6791   25.4081 N   0  0  0  0  0  0  0  0  0  0  0  0
    8.7040  -14.3339   27.3588 C   0  0  0  0  0  0  0  0  0  0  0  0
    9.6336  -13.6836   28.1553 O   0  0  0  0  0  0  0  0  0  0  0  0
    8.3375  -15.4811   27.7156 O   0  0  0  0  0  0  0  0  0  0  0  0
  2  1  1  6
  2  3  1  0
  4  2  1  0
  5  4  2  0
  6  4  1  0
  7  6  1  0
  7  8  1  1
  8  9  1  0
 10 16  1  0
 10  7  1  0
 11 10  2  0
 13 12  1  1
 13 14  1  0
 15 13  1  0
 15 16  1  1
 17 15  1  0
 17 18  1  0
 19 17  2  0
M  END
$$$$
