ACV.pdb
     RDKit          3D

 19 18  0  0  1  0  0  0  0  0999 V2000
    9.4573  -17.7147   21.2733 C   0  0  0  0  0  0  0  0  0  0  0  0
    8.9631  -16.3138   21.0266 C   0  0  2  0  0  0  0  0  0  0  0  0
    9.6821  -15.6570   19.9793 N   0  0  0  0  0  0  0  0  0  0  0  0
    9.0009  -15.4984   22.2887 C   0  0  0  0  0  0  0  0  0  0  0  0
   10.0277  -14.8420   22.5917 O   0  0  0  0  0  0  0  0  0  0  0  0
    7.8970  -15.4334   23.1816 N   0  0  0  0  0  0  0  0  0  0  0  0
    7.9747  -14.6232   24.3772 C   0  0  1  0  0  0  0  0  0  0  0  0
    6.5665  -14.4914   24.9217 C   0  0  0  0  0  0  0  0  0  0  0  0
    6.4845  -13.4379   26.3678 S   0  0  0  0  0  0  0  0  0  0  0  0
    8.7965  -15.3111   25.4339 C   0  0  0  0  0  0  0  0  0  0  0  0
    8.9317  -16.5561   25.3714 O   0  0  0  0  0  0  0  0  0  0  0  0
   11.6402  -14.9335   29.4628 C   0  0  0  0  0  0  0  0  0  0  0  0
   10.8289  -14.2180   28.4274 C   0  0  2  0  0  0  0  0  0  0  0  0
    9.6656  -13.4834   29.0631 C   0  0  0  0  0  0  0  0  0  0  0  0
   10.3511  -15.2145   27.3972 C   0  0  2  0  0  0  0  0  0  0  0  0
    9.4111  -14.6040   26.4789 N   0  0  0  0  0  0  0  0  0  0  0  0
    9.7449  -16.4154   27.9886 C   0  0  0  0  0  0  0  0  0  0  0  0
    8.3943  -16.6897   27.8403 O   0  0  0  0  0  0  0  0  0  0  0  0
   10.4328  -17.2333   28.6486 O   0  0  0  0  0  0  0  0  0  0  0  0
  2  1  1  1
  2  3  1  0
  4  2  1  0
  5  4  2  0
  6  4  1  0
  7  6  1  0
  7  8  1  1
  8  9  1  0
 10 16  1  0
 10  7  1  0
 11 10  2  0
 13 12  1  1
 13 14  1  0
 15 13  1  0
 15 16  1  6
 17 15  1  0
 17 18  1  0
 19 17  2  0
M  END
$$$$
