ACV.pdb
     RDKit          3D

 19 18  0  0  1  0  0  0  0  0999 V2000
    8.5377  -12.6245   19.0523 C   0  0  0  0  0  0  0  0  0  0  0  0
    8.3173  -14.1126   19.1205 C   0  0  2  0  0  0  0  0  0  0  0  0
    7.6212  -14.6151   17.9768 N   0  0  0  0  0  0  0  0  0  0  0  0
    7.6030  -14.4946   20.3867 C   0  0  0  0  0  0  0  0  0  0  0  0
    6.3681  -14.7222   20.3768 O   0  0  0  0  0  0  0  0  0  0  0  0
    8.2793  -14.6139   21.6311 N   0  0  0  0  0  0  0  0  0  0  0  0
    7.5944  -15.1595   22.7823 C   0  0  1  0  0  0  0  0  0  0  0  0
    7.7953  -16.6613   22.7533 C   0  0  0  0  0  0  0  0  0  0  0  0
    7.1875  -17.4649   24.2341 S   0  0  0  0  0  0  0  0  0  0  0  0
    8.2117  -14.6536   24.0582 C   0  0  0  0  0  0  0  0  0  0  0  0
    9.4585  -14.7050   24.1819 O   0  0  0  0  0  0  0  0  0  0  0  0
    5.8232  -13.0540   27.2728 C   0  0  0  0  0  0  0  0  0  0  0  0
    7.1209  -12.4441   26.8411 C   0  0  2  0  0  0  0  0  0  0  0  0
    6.8911  -11.3469   25.8212 C   0  0  0  0  0  0  0  0  0  0  0  0
    8.0174  -13.5274   26.2886 C   0  0  2  0  0  0  0  0  0  0  0  0
    7.4376  -14.1300   25.1053 N   0  0  0  0  0  0  0  0  0  0  0  0
    8.3296  -14.5780   27.2676 C   0  0  0  0  0  0  0  0  0  0  0  0
    9.2255  -14.3573   28.3020 O   0  0  0  0  0  0  0  0  0  0  0  0
    7.7934  -15.7117   27.1979 O   0  0  0  0  0  0  0  0  0  0  0  0
  2  1  1  6
  2  3  1  0
  4  2  1  0
  5  4  2  0
  6  4  1  0
  7  6  1  0
  7  8  1  1
  8  9  1  0
 10 16  1  0
 10  7  1  0
 11 10  2  0
 13 12  1  6
 13 14  1  0
 15 13  1  0
 15 16  1  6
 17 15  1  0
 17 18  1  0
 19 17  2  0
M  END
$$$$
