ACV.pdb
     RDKit          3D

 19 18  0  0  1  0  0  0  0  0999 V2000
    0.5704  -28.8805   28.7487 C   0  0  0  0  0  0  0  0  0  0  0  0
    0.0642  -27.7185   29.5618 C   0  0  2  0  0  0  0  0  0  0  0  0
   -0.0514  -28.0332   30.9521 N   0  0  0  0  0  0  0  0  0  0  0  0
   -1.2436  -27.2114   29.0219 C   0  0  0  0  0  0  0  0  0  0  0  0
   -1.3194  -26.7697   27.8488 O   0  0  0  0  0  0  0  0  0  0  0  0
   -2.4336  -27.2081   29.7992 N   0  0  0  0  0  0  0  0  0  0  0  0
   -3.6619  -26.6799   29.2475 C   0  0  1  0  0  0  0  0  0  0  0  0
   -4.8067  -27.3971   29.9344 C   0  0  0  0  0  0  0  0  0  0  0  0
   -6.3914  -26.6262   29.6149 S   0  0  0  0  0  0  0  0  0  0  0  0
   -3.8014  -25.2154   29.5647 C   0  0  0  0  0  0  0  0  0  0  0  0
   -3.5366  -24.8263   30.7269 O   0  0  0  0  0  0  0  0  0  0  0  0
   -4.4276  -22.3381   26.5044 C   0  0  0  0  0  0  0  0  0  0  0  0
   -3.7698  -22.0159   27.8105 C   0  0  2  0  0  0  0  0  0  0  0  0
   -2.2705  -22.2208   27.7271 C   0  0  0  0  0  0  0  0  0  0  0  0
   -4.3806  -22.8704   28.8964 C   0  0  2  0  0  0  0  0  0  0  0  0
   -4.2163  -24.2801   28.6041 N   0  0  0  0  0  0  0  0  0  0  0  0
   -5.8028  -22.5835   29.1300 C   0  0  0  0  0  0  0  0  0  0  0  0
   -6.7877  -23.5015   28.8006 O   0  0  0  0  0  0  0  0  0  0  0  0
   -6.1718  -21.4950   29.6367 O   0  0  0  0  0  0  0  0  0  0  0  0
  2  1  1  6
  2  3  1  0
  4  2  1  0
  5  4  2  0
  6  4  1  0
  7  6  1  0
  7  8  1  1
  8  9  1  0
 10 16  1  0
 10  7  1  0
 11 10  2  0
 13 12  1  6
 13 14  1  0
 15 13  1  0
 15 16  1  6
 17 15  1  0
 17 18  1  0
 19 17  2  0
M  END
$$$$
