ACV.pdb
     RDKit          3D

 19 18  0  0  1  0  0  0  0  0999 V2000
    8.2409  -20.2072   18.2337 C   0  0  0  0  0  0  0  0  0  0  0  0
    6.9452  -19.4903   17.9603 C   0  0  2  0  0  0  0  0  0  0  0  0
    6.9305  -18.8576   16.6778 N   0  0  0  0  0  0  0  0  0  0  0  0
    6.6390  -18.4967   19.0458 C   0  0  0  0  0  0  0  0  0  0  0  0
    7.2529  -17.4025   19.0985 O   0  0  0  0  0  0  0  0  0  0  0  0
    5.6588  -18.7446   20.0447 N   0  0  0  0  0  0  0  0  0  0  0  0
    5.4332  -17.7797   21.0984 C   0  0  1  0  0  0  0  0  0  0  0  0
    4.0976  -18.1124   21.7325 C   0  0  0  0  0  0  0  0  0  0  0  0
    4.2445  -19.3093   23.0568 S   0  0  0  0  0  0  0  0  0  0  0  0
    6.4793  -17.9100   22.1725 C   0  0  0  0  0  0  0  0  0  0  0  0
    7.1591  -18.9626   22.2220 O   0  0  0  0  0  0  0  0  0  0  0  0
    7.5608  -14.6349   24.7678 C   0  0  0  0  0  0  0  0  0  0  0  0
    8.4876  -15.7156   24.3038 C   0  0  2  0  0  0  0  0  0  0  0  0
    9.1625  -15.3290   23.0029 C   0  0  0  0  0  0  0  0  0  0  0  0
    7.7121  -17.0039   24.1574 C   0  0  2  0  0  0  0  0  0  0  0  0
    6.7138  -16.8949   23.1129 N   0  0  0  0  0  0  0  0  0  0  0  0
    7.0674  -17.4382   25.4045 C   0  0  0  0  0  0  0  0  0  0  0  0
    7.8093  -17.9287   26.4676 O   0  0  0  0  0  0  0  0  0  0  0  0
    5.8208  -17.3786   25.5470 O   0  0  0  0  0  0  0  0  0  0  0  0
  2  1  1  1
  2  3  1  0
  4  2  1  0
  5  4  2  0
  6  4  1  0
  7  6  1  0
  7  8  1  1
  8  9  1  0
 10 16  1  0
 10  7  1  0
 11 10  2  0
 13 12  1  6
 13 14  1  0
 15 13  1  0
 15 16  1  6
 17 15  1  0
 17 18  1  0
 19 17  2  0
M  END
$$$$
