ACV.pdb
     RDKit          3D

 19 18  0  0  1  0  0  0  0  0999 V2000
   12.3151  -16.3818   20.8703 C   0  0  0  0  0  0  0  0  0  0  0  0
   10.9932  -17.0541   20.6092 C   0  0  2  0  0  0  0  0  0  0  0  0
   10.6982  -17.1567   19.2136 N   0  0  0  0  0  0  0  0  0  0  0  0
    9.8794  -16.3549   21.3372 C   0  0  0  0  0  0  0  0  0  0  0  0
    9.7242  -15.1141   21.2218 O   0  0  0  0  0  0  0  0  0  0  0  0
    8.9669  -17.0524   22.1744 N   0  0  0  0  0  0  0  0  0  0  0  0
    7.8710  -16.3477   22.8026 C   0  0  1  0  0  0  0  0  0  0  0  0
    6.8807  -17.3916   23.2782 C   0  0  0  0  0  0  0  0  0  0  0  0
    6.3554  -18.4898   21.9644 S   0  0  0  0  0  0  0  0  0  0  0  0
    8.3465  -15.6001   24.0191 C   0  0  0  0  0  0  0  0  0  0  0  0
    9.4475  -15.9202   24.5266 O   0  0  0  0  0  0  0  0  0  0  0  0
    7.7901  -11.7751   27.0848 C   0  0  0  0  0  0  0  0  0  0  0  0
    7.2014  -12.5860   25.9721 C   0  0  2  0  0  0  0  0  0  0  0  0
    5.7616  -12.9524   26.2718 C   0  0  0  0  0  0  0  0  0  0  0  0
    8.0476  -13.8189   25.7567 C   0  0  2  0  0  0  0  0  0  0  0  0
    7.5983  -14.5629   24.5972 N   0  0  0  0  0  0  0  0  0  0  0  0
    8.0823  -14.7105   26.9244 C   0  0  0  0  0  0  0  0  0  0  0  0
    9.0269  -14.5509   27.9263 O   0  0  0  0  0  0  0  0  0  0  0  0
    7.2555  -15.6473   27.0520 O   0  0  0  0  0  0  0  0  0  0  0  0
  2  1  1  6
  2  3  1  0
  4  2  1  0
  5  4  2  0
  6  4  1  0
  7  6  1  0
  7  8  1  1
  8  9  1  0
 10 16  1  0
 10  7  1  0
 11 10  2  0
 13 12  1  1
 13 14  1  0
 15 13  1  0
 15 16  1  6
 17 15  1  0
 17 18  1  0
 19 17  2  0
M  END
$$$$
