YST.pdb
     RDKit          3D

 26 26  0  0  1  0  0  0  0  0999 V2000
   17.3847  -14.8729  -19.5209 O   0  0  0  0  0  0  0  0  0  0  0  0
   17.4970  -13.7005  -18.7563 C   0  0  0  0  0  0  0  0  0  0  0  0
   17.9323  -12.5138  -19.2967 C   0  0  0  0  0  0  0  0  0  0  0  0
   18.0163  -11.4029  -18.4809 C   0  0  0  0  0  0  0  0  0  0  0  0
   17.6719  -11.4850  -17.1588 C   0  0  0  0  0  0  0  0  0  0  0  0
   17.7644  -10.3063  -16.2884 C   0  0  0  0  0  0  0  0  0  0  0  0
   19.2204   -9.9986  -16.0190 C   0  0  2  0  0  0  0  0  0  0  0  0
   19.7743  -11.0790  -15.1783 N   0  0  0  0  0  0  0  0  0  0  0  0
   19.3812   -8.7040  -15.3252 C   0  0  0  0  0  0  0  0  0  0  0  0
   18.8938   -8.4315  -14.2080 O   0  0  0  0  0  0  0  0  0  0  0  0
   17.2400  -12.6778  -16.6389 C   0  0  0  0  0  0  0  0  0  0  0  0
   17.1425  -13.8100  -17.4222 C   0  0  0  0  0  0  0  0  0  0  0  0
   22.4269   -6.5055  -16.4434 O   0  0  0  0  0  0  0  0  0  0  0  0
   21.8562   -6.2247  -15.1882 C   0  0  0  0  0  0  0  0  0  0  0  0
   20.3407   -6.3768  -15.3653 C   0  0  2  0  0  0  0  0  0  0  0  0
   20.1470   -7.6876  -15.9722 N   0  0  0  0  0  0  0  0  0  0  0  0
   19.8886   -5.3152  -16.2882 C   0  0  0  0  0  0  0  0  0  0  0  0
   19.1888   -5.5777  -17.2946 O   0  0  0  0  0  0  0  0  0  0  0  0
   17.7606   -1.7429  -17.6213 C   0  0  0  0  0  0  0  0  0  0  0  0
   18.3196   -2.9799  -16.9427 C   0  0  1  0  0  0  0  0  0  0  0  0
   17.9016   -4.1005  -17.6414 O   0  0  0  0  0  0  0  0  0  0  0  0
   19.8385   -2.9286  -16.9093 C   0  0  2  0  0  0  0  0  0  0  0  0
   20.2621   -3.9803  -16.0159 N   0  0  0  0  0  0  0  0  0  0  0  0
   20.3327   -1.6134  -16.4751 C   0  0  0  0  0  0  0  0  0  0  0  0
   20.7788   -0.6997  -17.3962 O   0  0  0  0  0  0  0  0  0  0  0  0
   20.3427   -1.3344  -15.2549 O   0  0  0  0  0  0  0  0  0  0  0  0
  2  3  2  0
  2  1  1  0
  4  3  1  0
  5  4  2  0
  6  5  1  0
  7  6  1  0
  7  9  1  0
  7  8  1  1
  9 16  1  0
  9 10  2  0
 11  5  1  0
 11 12  2  0
 12  2  1  0
 14 13  1  0
 15 14  1  6
 16 15  1  0
 17 15  1  0
 17 18  2  0
 20 19  1  6
 20 21  1  0
 20 22  1  0
 22 23  1  1
 23 17  1  0
 24 22  1  0
 25 24  1  0
 26 24  2  0
M  END
$$$$
