YST.pdb
     RDKit          3D

 26 26  0  0  1  0  0  0  0  0999 V2000
   29.7885  -28.5013  -22.5841 O   0  0  0  0  0  0  0  0  0  0  0  0
   29.1094  -28.0406  -21.4447 C   0  0  0  0  0  0  0  0  0  0  0  0
   28.3709  -26.8811  -21.4523 C   0  0  0  0  0  0  0  0  0  0  0  0
   27.7310  -26.4927  -20.2920 C   0  0  0  0  0  0  0  0  0  0  0  0
   27.8321  -27.2503  -19.1566 C   0  0  0  0  0  0  0  0  0  0  0  0
   27.1561  -26.8373  -17.9206 C   0  0  0  0  0  0  0  0  0  0  0  0
   27.9014  -25.6713  -17.3105 C   0  0  2  0  0  0  0  0  0  0  0  0
   29.1828  -26.1709  -16.7728 N   0  0  0  0  0  0  0  0  0  0  0  0
   27.1243  -25.0407  -16.2235 C   0  0  0  0  0  0  0  0  0  0  0  0
   27.2494  -25.3124  -15.0108 O   0  0  0  0  0  0  0  0  0  0  0  0
   28.5734  -28.4036  -19.1695 C   0  0  0  0  0  0  0  0  0  0  0  0
   29.2274  -28.8248  -20.3095 C   0  0  0  0  0  0  0  0  0  0  0  0
   26.0184  -21.5123  -16.8636 O   0  0  0  0  0  0  0  0  0  0  0  0
   25.9061  -21.9274  -15.5238 C   0  0  0  0  0  0  0  0  0  0  0  0
   25.3669  -23.3623  -15.5657 C   0  0  2  0  0  0  0  0  0  0  0  0
   26.1600  -24.0491  -16.5772 N   0  0  0  0  0  0  0  0  0  0  0  0
   23.9515  -23.2969  -15.9844 C   0  0  0  0  0  0  0  0  0  0  0  0
   23.6282  -23.2689  -17.1953 O   0  0  0  0  0  0  0  0  0  0  0  0
   21.3510  -25.6548  -14.9853 C   0  0  0  0  0  0  0  0  0  0  0  0
   20.8456  -24.2813  -14.5842 C   0  0  1  0  0  0  0  0  0  0  0  0
   21.0666  -24.1020  -13.2286 O   0  0  0  0  0  0  0  0  0  0  0  0
   21.5640  -23.1981  -15.3725 C   0  0  2  0  0  0  0  0  0  0  0  0
   22.9531  -23.2661  -14.9855 N   0  0  0  0  0  0  0  0  0  0  0  0
   20.9929  -21.8667  -15.1197 C   0  0  0  0  0  0  0  0  0  0  0  0
   19.7250  -21.5619  -15.5461 O   0  0  0  0  0  0  0  0  0  0  0  0
   21.6754  -21.0123  -14.5107 O   0  0  0  0  0  0  0  0  0  0  0  0
  2  3  2  0
  2  1  1  0
  4  3  1  0
  5  4  2  0
  6  5  1  0
  7  6  1  0
  7  9  1  0
  7  8  1  1
  9 16  1  0
  9 10  2  0
 11  5  1  0
 11 12  2  0
 12  2  1  0
 14 13  1  0
 15 14  1  6
 16 15  1  0
 17 15  1  0
 17 18  2  0
 20 19  1  6
 20 21  1  0
 20 22  1  0
 22 23  1  1
 23 17  1  0
 24 22  1  0
 25 24  1  0
 26 24  2  0
M  END
$$$$
