YST.pdb
     RDKit          3D

 26 26  0  0  1  0  0  0  0  0999 V2000
   17.7659  -18.4351  -14.1785 O   0  0  0  0  0  0  0  0  0  0  0  0
   18.3067  -17.1659  -14.4397 C   0  0  0  0  0  0  0  0  0  0  0  0
   19.6497  -16.9749  -14.6624 C   0  0  0  0  0  0  0  0  0  0  0  0
   20.1069  -15.6963  -14.9128 C   0  0  0  0  0  0  0  0  0  0  0  0
   19.2366  -14.6404  -14.9379 C   0  0  0  0  0  0  0  0  0  0  0  0
   19.7208  -13.2794  -15.1997 C   0  0  0  0  0  0  0  0  0  0  0  0
   19.1936  -12.8113  -16.5377 C   0  0  2  0  0  0  0  0  0  0  0  0
   19.5463  -13.8230  -17.5540 N   0  0  0  0  0  0  0  0  0  0  0  0
   19.7711  -11.5066  -16.9212 C   0  0  0  0  0  0  0  0  0  0  0  0
   20.7909  -11.3612  -17.6276 O   0  0  0  0  0  0  0  0  0  0  0  0
   17.9006  -14.8516  -14.7133 C   0  0  0  0  0  0  0  0  0  0  0  0
   17.4055  -16.1148  -14.4597 C   0  0  0  0  0  0  0  0  0  0  0  0
   17.3261   -8.4495  -16.8981 O   0  0  0  0  0  0  0  0  0  0  0  0
   18.5061   -8.3628  -17.6598 C   0  0  0  0  0  0  0  0  0  0  0  0
   19.6116   -8.9967  -16.8069 C   0  0  2  0  0  0  0  0  0  0  0  0
   19.1223  -10.3235  -16.4548 N   0  0  0  0  0  0  0  0  0  0  0  0
   19.7686   -8.1713  -15.5915 C   0  0  0  0  0  0  0  0  0  0  0  0
   19.2082   -8.4809  -14.5137 O   0  0  0  0  0  0  0  0  0  0  0  0
   22.3080   -4.5368  -13.4766 C   0  0  0  0  0  0  0  0  0  0  0  0
   22.0088   -5.3883  -14.6966 C   0  0  1  0  0  0  0  0  0  0  0  0
   23.0718   -6.2499  -14.9120 O   0  0  0  0  0  0  0  0  0  0  0  0
   20.7313   -6.1857  -14.4894 C   0  0  2  0  0  0  0  0  0  0  0  0
   20.5713   -7.0111  -15.6628 N   0  0  0  0  0  0  0  0  0  0  0  0
   19.5683   -5.3112  -14.2762 C   0  0  0  0  0  0  0  0  0  0  0  0
   19.0883   -5.0893  -13.0102 O   0  0  0  0  0  0  0  0  0  0  0  0
   19.0193   -4.7699  -15.2622 O   0  0  0  0  0  0  0  0  0  0  0  0
  2  3  2  0
  2  1  1  0
  4  3  1  0
  5  4  2  0
  6  5  1  0
  7  6  1  0
  7  9  1  0
  7  8  1  6
  9 16  1  0
  9 10  2  0
 11  5  1  0
 11 12  2  0
 12  2  1  0
 14 13  1  0
 15 14  1  6
 16 15  1  0
 17 15  1  0
 17 18  2  0
 20 19  1  1
 20 21  1  0
 20 22  1  0
 22 23  1  6
 23 17  1  0
 24 22  1  0
 25 24  1  0
 26 24  2  0
M  END
$$$$
