YST.pdb
     RDKit          3D

 26 26  0  0  1  0  0  0  0  0999 V2000
   33.0766  -10.8889  -17.3285 O   0  0  0  0  0  0  0  0  0  0  0  0
   31.6932  -10.9279  -17.5656 C   0  0  0  0  0  0  0  0  0  0  0  0
   31.0181  -12.1090  -17.7633 C   0  0  0  0  0  0  0  0  0  0  0  0
   29.6569  -12.0667  -17.9909 C   0  0  0  0  0  0  0  0  0  0  0  0
   28.9946  -10.8693  -18.0187 C   0  0  0  0  0  0  0  0  0  0  0  0
   27.5481  -10.8214  -18.2647 C   0  0  0  0  0  0  0  0  0  0  0  0
   27.2735  -11.2089  -19.7006 C   0  0  2  0  0  0  0  0  0  0  0  0
   27.9161  -10.2119  -20.5803 N   0  0  0  0  0  0  0  0  0  0  0  0
   25.8237  -11.2517  -19.9824 C   0  0  0  0  0  0  0  0  0  0  0  0
   25.1301  -10.2593  -20.2891 O   0  0  0  0  0  0  0  0  0  0  0  0
   29.6860   -9.7023  -17.8192 C   0  0  0  0  0  0  0  0  0  0  0  0
   31.0468   -9.7036  -17.5887 C   0  0  0  0  0  0  0  0  0  0  0  0
   24.0911  -14.9125  -19.6560 O   0  0  0  0  0  0  0  0  0  0  0  0
   23.5703  -14.1043  -20.6834 C   0  0  0  0  0  0  0  0  0  0  0  0
   23.7463  -12.6545  -20.2160 C   0  0  2  0  0  0  0  0  0  0  0  0
   25.1621  -12.5141  -19.9002 N   0  0  0  0  0  0  0  0  0  0  0  0
   22.9310  -12.4746  -18.9970 C   0  0  0  0  0  0  0  0  0  0  0  0
   23.4196  -12.6353  -17.8538 O   0  0  0  0  0  0  0  0  0  0  0  0
   20.7193   -9.5160  -18.1035 C   0  0  0  0  0  0  0  0  0  0  0  0
   19.8733  -10.7744  -18.1656 C   0  0  1  0  0  0  0  0  0  0  0  0
   19.2472  -10.8316  -19.3998 O   0  0  0  0  0  0  0  0  0  0  0  0
   20.7386  -12.0084  -17.9674 C   0  0  2  0  0  0  0  0  0  0  0  0
   21.5729  -12.1137  -19.1408 N   0  0  0  0  0  0  0  0  0  0  0  0
   19.9282  -13.2188  -17.7652 C   0  0  0  0  0  0  0  0  0  0  0  0
   19.2093  -13.3888  -16.6091 O   0  0  0  0  0  0  0  0  0  0  0  0
   19.9003  -14.0944  -18.6591 O   0  0  0  0  0  0  0  0  0  0  0  0
  2  3  2  0
  2  1  1  0
  4  3  1  0
  5  4  2  0
  6  5  1  0
  7  6  1  0
  7  9  1  0
  7  8  1  6
  9 16  1  0
  9 10  2  0
 11  5  1  0
 11 12  2  0
 12  2  1  0
 14 13  1  0
 15 14  1  1
 16 15  1  0
 17 15  1  0
 17 18  2  0
 20 19  1  6
 20 21  1  0
 20 22  1  0
 22 23  1  6
 23 17  1  0
 24 22  1  0
 25 24  1  0
 26 24  2  0
M  END
$$$$
