YST.pdb
     RDKit          3D

 26 26  0  0  1  0  0  0  0  0999 V2000
   27.8803  -19.2293   -4.8066 O   0  0  0  0  0  0  0  0  0  0  0  0
   27.8884  -19.3960   -6.2007 C   0  0  0  0  0  0  0  0  0  0  0  0
   29.0468  -19.3326   -6.9382 C   0  0  0  0  0  0  0  0  0  0  0  0
   28.9745  -19.5066   -8.3061 C   0  0  0  0  0  0  0  0  0  0  0  0
   27.7701  -19.7377   -8.9137 C   0  0  0  0  0  0  0  0  0  0  0  0
   27.6901  -19.9189  -10.3684 C   0  0  0  0  0  0  0  0  0  0  0  0
   27.1378  -21.2941  -10.6699 C   0  0  2  0  0  0  0  0  0  0  0  0
   28.2456  -22.2669  -10.5846 N   0  0  0  0  0  0  0  0  0  0  0  0
   26.5349  -21.3523  -12.0175 C   0  0  0  0  0  0  0  0  0  0  0  0
   27.1777  -21.2910  -13.0867 O   0  0  0  0  0  0  0  0  0  0  0  0
   26.6260  -19.7974   -8.1606 C   0  0  0  0  0  0  0  0  0  0  0  0
   26.6576  -19.6286   -6.7911 C   0  0  0  0  0  0  0  0  0  0  0  0
   24.6113  -23.8260  -13.7209 O   0  0  0  0  0  0  0  0  0  0  0  0
   23.6620  -22.8252  -13.4430 C   0  0  0  0  0  0  0  0  0  0  0  0
   24.4367  -21.5027  -13.4007 C   0  0  2  0  0  0  0  0  0  0  0  0
   25.1169  -21.4884  -12.1119 N   0  0  0  0  0  0  0  0  0  0  0  0
   23.4513  -20.4039  -13.4701 C   0  0  0  0  0  0  0  0  0  0  0  0
   22.8906  -19.9621  -12.4396 O   0  0  0  0  0  0  0  0  0  0  0  0
   23.9308  -17.1200  -15.5283 C   0  0  0  0  0  0  0  0  0  0  0  0
   22.6762  -17.8647  -15.9460 C   0  0  1  0  0  0  0  0  0  0  0  0
   22.9593  -18.6219  -17.0707 O   0  0  0  0  0  0  0  0  0  0  0  0
   22.1943  -18.7684  -14.8226 C   0  0  2  0  0  0  0  0  0  0  0  0
   23.1459  -19.8502  -14.7333 N   0  0  0  0  0  0  0  0  0  0  0  0
   20.8301  -19.2619  -15.0636 C   0  0  0  0  0  0  0  0  0  0  0  0
   19.7479  -18.4465  -14.8486 O   0  0  0  0  0  0  0  0  0  0  0  0
   20.6648  -20.4349  -15.4676 O   0  0  0  0  0  0  0  0  0  0  0  0
  2  3  2  0
  2  1  1  0
  4  3  1  0
  5  4  2  0
  6  5  1  0
  7  6  1  0
  7  9  1  0
  7  8  1  6
  9 16  1  0
  9 10  2  0
 11  5  1  0
 11 12  2  0
 12  2  1  0
 14 13  1  0
 15 14  1  1
 16 15  1  0
 17 15  1  0
 17 18  2  0
 20 19  1  1
 20 21  1  0
 20 22  1  0
 22 23  1  6
 23 17  1  0
 24 22  1  0
 25 24  1  0
 26 24  2  0
M  END
$$$$
