YST.pdb
     RDKit          3D

 26 26  0  0  1  0  0  0  0  0999 V2000
   26.3783  -14.8511  -18.1588 O   0  0  0  0  0  0  0  0  0  0  0  0
   25.4121  -13.8378  -18.0531 C   0  0  0  0  0  0  0  0  0  0  0  0
   24.5209  -13.5685  -19.0646 C   0  0  0  0  0  0  0  0  0  0  0  0
   23.5993  -12.5558  -18.8867 C   0  0  0  0  0  0  0  0  0  0  0  0
   23.5761  -11.8349  -17.7235 C   0  0  0  0  0  0  0  0  0  0  0  0
   22.5999  -10.7548  -17.5337 C   0  0  0  0  0  0  0  0  0  0  0  0
   21.6733  -11.1150  -16.3940 C   0  0  2  0  0  0  0  0  0  0  0  0
   20.8128  -12.2323  -16.8323 N   0  0  0  0  0  0  0  0  0  0  0  0
   20.8285   -9.9688  -15.9998 C   0  0  0  0  0  0  0  0  0  0  0  0
   19.8198   -9.5811  -16.6261 O   0  0  0  0  0  0  0  0  0  0  0  0
   24.4733  -12.1189  -16.7265 C   0  0  0  0  0  0  0  0  0  0  0  0
   25.4094  -13.1234  -16.8668 C   0  0  0  0  0  0  0  0  0  0  0  0
   19.3002   -7.1865  -12.5495 O   0  0  0  0  0  0  0  0  0  0  0  0
   19.9896   -8.3388  -12.9703 C   0  0  0  0  0  0  0  0  0  0  0  0
   20.4543   -8.0576  -14.4043 C   0  0  2  0  0  0  0  0  0  0  0  0
   21.1846   -9.2484  -14.8197 N   0  0  0  0  0  0  0  0  0  0  0  0
   21.3611   -6.8919  -14.3610 C   0  0  0  0  0  0  0  0  0  0  0  0
   22.5431   -6.9974  -13.9568 O   0  0  0  0  0  0  0  0  0  0  0  0
   22.1690   -4.6772  -17.1834 C   0  0  0  0  0  0  0  0  0  0  0  0
   21.6112   -3.7931  -16.0833 C   0  0  1  0  0  0  0  0  0  0  0  0
   20.2803   -3.5244  -16.3574 O   0  0  0  0  0  0  0  0  0  0  0  0
   21.7319   -4.4820  -14.7336 C   0  0  2  0  0  0  0  0  0  0  0  0
   20.8695   -5.6384  -14.7879 N   0  0  0  0  0  0  0  0  0  0  0  0
   21.3700   -3.5845  -13.6263 C   0  0  0  0  0  0  0  0  0  0  0  0
   22.2110   -2.5666  -13.2534 O   0  0  0  0  0  0  0  0  0  0  0  0
   20.2856   -3.7578  -13.0258 O   0  0  0  0  0  0  0  0  0  0  0  0
  2  3  2  0
  2  1  1  0
  4  3  1  0
  5  4  2  0
  6  5  1  0
  7  6  1  0
  7  9  1  0
  7  8  1  6
  9 16  1  0
  9 10  2  0
 11  5  1  0
 11 12  2  0
 12  2  1  0
 14 13  1  0
 15 14  1  1
 16 15  1  0
 17 15  1  0
 17 18  2  0
 20 19  1  6
 20 21  1  0
 20 22  1  0
 22 23  1  6
 23 17  1  0
 24 22  1  0
 25 24  1  0
 26 24  2  0
M  END
$$$$
