YST.pdb
     RDKit          3D

 26 26  0  0  1  0  0  0  0  0999 V2000
   23.2638  -21.0210   -8.7466 O   0  0  0  0  0  0  0  0  0  0  0  0
   24.0514  -20.8678   -9.8989 C   0  0  0  0  0  0  0  0  0  0  0  0
   25.3896  -21.1817   -9.9171 C   0  0  0  0  0  0  0  0  0  0  0  0
   26.0983  -21.0040  -11.0888 C   0  0  0  0  0  0  0  0  0  0  0  0
   25.4770  -20.5238  -12.2098 C   0  0  0  0  0  0  0  0  0  0  0  0
   26.2293  -20.3300  -13.4556 C   0  0  0  0  0  0  0  0  0  0  0  0
   25.6226  -21.1884  -14.5430 C   0  0  2  0  0  0  0  0  0  0  0  0
   25.8518  -22.6055  -14.1964 N   0  0  0  0  0  0  0  0  0  0  0  0
   26.2261  -20.9003  -15.8605 C   0  0  0  0  0  0  0  0  0  0  0  0
   27.3465  -21.3079  -16.2330 O   0  0  0  0  0  0  0  0  0  0  0  0
   24.1414  -20.2167  -12.1712 C   0  0  0  0  0  0  0  0  0  0  0  0
   23.3993  -20.3807  -11.0191 C   0  0  0  0  0  0  0  0  0  0  0  0
   23.8717  -18.7948  -18.3881 O   0  0  0  0  0  0  0  0  0  0  0  0
   24.7007  -19.7518  -19.0021 C   0  0  0  0  0  0  0  0  0  0  0  0
   25.9593  -19.8470  -18.1315 C   0  0  2  0  0  0  0  0  0  0  0  0
   25.4811  -20.0999  -16.7782 N   0  0  0  0  0  0  0  0  0  0  0  0
   26.6473  -18.5410  -18.1941 C   0  0  0  0  0  0  0  0  0  0  0  0
   26.3428  -17.6035  -17.4195 O   0  0  0  0  0  0  0  0  0  0  0  0
   30.2974  -18.0766  -17.9099 C   0  0  0  0  0  0  0  0  0  0  0  0
   29.8662  -17.4691  -19.2320 C   0  0  1  0  0  0  0  0  0  0  0  0
   30.1055  -18.3845  -20.2436 O   0  0  0  0  0  0  0  0  0  0  0  0
   28.3891  -17.1116  -19.1975 C   0  0  2  0  0  0  0  0  0  0  0  0
   27.6683  -18.3615  -19.1537 N   0  0  0  0  0  0  0  0  0  0  0  0
   27.9957  -16.2965  -20.3567 C   0  0  0  0  0  0  0  0  0  0  0  0
   27.1037  -16.7837  -21.2782 O   0  0  0  0  0  0  0  0  0  0  0  0
   28.4830  -15.1520  -20.4952 O   0  0  0  0  0  0  0  0  0  0  0  0
  2  3  2  0
  2  1  1  0
  4  3  1  0
  5  4  2  0
  6  5  1  0
  7  6  1  0
  7  9  1  0
  7  8  1  1
  9 16  1  0
  9 10  2  0
 11  5  1  0
 11 12  2  0
 12  2  1  0
 14 13  1  0
 15 14  1  6
 16 15  1  0
 17 15  1  0
 17 18  2  0
 20 19  1  1
 20 21  1  0
 20 22  1  0
 22 23  1  6
 23 17  1  0
 24 22  1  0
 25 24  1  0
 26 24  2  0
M  END
$$$$
