YST.pdb
     RDKit          3D

 26 26  0  0  1  0  0  0  0  0999 V2000
   35.8236   -2.3189    1.9510 O   0  0  0  0  0  0  0  0  0  0  0  0
   36.1107   -2.6891    0.6273 C   0  0  0  0  0  0  0  0  0  0  0  0
   37.3365   -3.1897    0.2575 C   0  0  0  0  0  0  0  0  0  0  0  0
   37.5436   -3.5317   -1.0642 C   0  0  0  0  0  0  0  0  0  0  0  0
   36.5451   -3.3739   -1.9868 C   0  0  0  0  0  0  0  0  0  0  0  0
   36.7643   -3.7328   -3.3933 C   0  0  0  0  0  0  0  0  0  0  0  0
   37.5803   -2.6498   -4.0629 C   0  0  2  0  0  0  0  0  0  0  0  0
   36.7792   -1.4093   -4.0788 N   0  0  0  0  0  0  0  0  0  0  0  0
   37.9407   -3.0204   -5.4470 C   0  0  0  0  0  0  0  0  0  0  0  0
   37.2658   -2.7330   -6.4579 O   0  0  0  0  0  0  0  0  0  0  0  0
   35.3295   -2.8730   -1.5978 C   0  0  0  0  0  0  0  0  0  0  0  0
   35.0841   -2.5199   -0.2863 C   0  0  0  0  0  0  0  0  0  0  0  0
   41.6872   -4.1599   -5.9740 O   0  0  0  0  0  0  0  0  0  0  0  0
   41.0141   -3.7157   -7.1272 C   0  0  0  0  0  0  0  0  0  0  0  0
   39.5618   -4.1856   -6.9807 C   0  0  2  0  0  0  0  0  0  0  0  0
   39.1448   -3.7598   -5.6508 N   0  0  0  0  0  0  0  0  0  0  0  0
   39.5570   -5.6604   -7.0694 C   0  0  0  0  0  0  0  0  0  0  0  0
   39.8975   -6.3753   -6.0975 O   0  0  0  0  0  0  0  0  0  0  0  0
   36.8741   -7.8233   -7.4739 C   0  0  0  0  0  0  0  0  0  0  0  0
   37.7545   -8.1374   -8.6694 C   0  0  1  0  0  0  0  0  0  0  0  0
   37.2560   -7.4738   -9.7783 O   0  0  0  0  0  0  0  0  0  0  0  0
   39.1864   -7.7001   -8.4060 C   0  0  2  0  0  0  0  0  0  0  0  0
   39.1572   -6.2621   -8.2834 N   0  0  0  0  0  0  0  0  0  0  0  0
   40.0978   -8.1371   -9.4743 C   0  0  0  0  0  0  0  0  0  0  0  0
   40.3499   -9.4714   -9.6702 O   0  0  0  0  0  0  0  0  0  0  0  0
   40.6425   -7.2789  -10.2046 O   0  0  0  0  0  0  0  0  0  0  0  0
  2  3  2  0
  2  1  1  0
  4  3  1  0
  5  4  2  0
  6  5  1  0
  7  6  1  0
  7  9  1  0
  7  8  1  6
  9 16  1  0
  9 10  2  0
 11  5  1  0
 11 12  2  0
 12  2  1  0
 14 13  1  0
 15 14  1  1
 16 15  1  0
 17 15  1  0
 17 18  2  0
 20 19  1  1
 20 21  1  0
 20 22  1  0
 22 23  1  6
 23 17  1  0
 24 22  1  0
 25 24  1  0
 26 24  2  0
M  END
$$$$
