YST.pdb
     RDKit          3D

 26 26  0  0  1  0  0  0  0  0999 V2000
   19.2650  -23.5536   -6.5158 O   0  0  0  0  0  0  0  0  0  0  0  0
   20.0638  -22.8037   -7.3940 C   0  0  0  0  0  0  0  0  0  0  0  0
   20.4537  -23.2862   -8.6208 C   0  0  0  0  0  0  0  0  0  0  0  0
   21.2397  -22.4894   -9.4294 C   0  0  0  0  0  0  0  0  0  0  0  0
   21.6221  -21.2425   -9.0144 C   0  0  0  0  0  0  0  0  0  0  0  0
   22.4612  -20.3951   -9.8706 C   0  0  0  0  0  0  0  0  0  0  0  0
   23.7388  -21.1328  -10.2035 C   0  0  2  0  0  0  0  0  0  0  0  0
   24.5948  -21.1428   -9.0002 N   0  0  0  0  0  0  0  0  0  0  0  0
   24.4632  -20.4863  -11.3172 C   0  0  0  0  0  0  0  0  0  0  0  0
   25.0576  -19.3908  -11.2370 O   0  0  0  0  0  0  0  0  0  0  0  0
   21.2227  -20.7794   -7.7873 C   0  0  0  0  0  0  0  0  0  0  0  0
   20.4370  -21.5460   -6.9507 C   0  0  0  0  0  0  0  0  0  0  0  0
   25.2321  -22.7018  -14.6330 O   0  0  0  0  0  0  0  0  0  0  0  0
   26.0073  -21.5573  -14.3699 C   0  0  0  0  0  0  0  0  0  0  0  0
   25.0498  -20.5235  -13.7652 C   0  0  2  0  0  0  0  0  0  0  0  0
   24.4897  -21.1561  -12.5777 N   0  0  0  0  0  0  0  0  0  0  0  0
   23.9849  -20.2655  -14.7564 C   0  0  0  0  0  0  0  0  0  0  0  0
   22.8702  -20.8343  -14.6820 O   0  0  0  0  0  0  0  0  0  0  0  0
   22.2915  -17.1943  -18.1340 C   0  0  0  0  0  0  0  0  0  0  0  0
   23.2717  -17.5781  -17.0409 C   0  0  1  0  0  0  0  0  0  0  0  0
   22.9518  -16.8797  -15.8883 O   0  0  0  0  0  0  0  0  0  0  0  0
   23.2118  -19.0731  -16.7725 C   0  0  2  0  0  0  0  0  0  0  0  0
   24.2451  -19.3551  -15.8047 N   0  0  0  0  0  0  0  0  0  0  0  0
   23.3898  -19.8581  -18.0034 C   0  0  0  0  0  0  0  0  0  0  0  0
   24.6259  -20.3468  -18.3433 O   0  0  0  0  0  0  0  0  0  0  0  0
   22.4015  -20.0767  -18.7395 O   0  0  0  0  0  0  0  0  0  0  0  0
  2  3  2  0
  2  1  1  0
  4  3  1  0
  5  4  2  0
  6  5  1  0
  7  6  1  0
  7  9  1  0
  7  8  1  1
  9 16  1  0
  9 10  2  0
 11  5  1  0
 11 12  2  0
 12  2  1  0
 14 13  1  0
 15 14  1  6
 16 15  1  0
 17 15  1  0
 17 18  2  0
 20 19  1  6
 20 21  1  0
 20 22  1  0
 22 23  1  1
 23 17  1  0
 24 22  1  0
 25 24  1  0
 26 24  2  0
M  END
$$$$
