IDC.pdb
     RDKit          3D

 23 22  0  0  1  0  0  0  0  0999 V2000
   15.2213  -14.1634  -11.6544 C   0  0  0  0  0  0  0  0  0  0  0  0
   14.6285  -13.2999  -10.5825 C   0  0  0  0  0  0  0  0  0  0  0  0
   15.0206  -11.8597  -10.7041 C   0  0  2  0  0  0  0  0  0  0  0  0
   16.5279  -11.7241  -10.7164 C   0  0  0  0  0  0  0  0  0  0  0  0
   14.3576  -10.9360   -9.7431 C   0  0  2  0  0  0  0  0  0  0  0  0
   12.8822  -11.1178   -9.8221 N   0  0  0  0  0  0  0  0  0  0  0  0
   14.6048   -9.5009   -9.9494 C   0  0  0  0  0  0  0  0  0  0  0  0
   14.0448   -8.9199  -10.9486 O   0  0  0  0  0  0  0  0  0  0  0  0
   15.4046   -8.6523   -9.1598 N   0  0  0  0  0  0  0  0  0  0  0  0
   15.6420   -7.2573   -9.4680 C   0  0  1  0  0  0  0  0  0  0  0  0
   15.2279   -6.3977   -8.2962 C   0  0  0  0  0  0  0  0  0  0  0  0
   15.3275   -4.9574   -8.6020 C   0  0  0  0  0  0  0  0  0  0  0  0
   15.1318   -4.5722   -9.7873 O   0  0  0  0  0  0  0  0  0  0  0  0
   17.0719   -6.9672   -9.7284 C   0  0  0  0  0  0  0  0  0  0  0  0
   18.0065   -7.2107   -8.9293 O   0  0  0  0  0  0  0  0  0  0  0  0
   15.6303   -4.0486   -7.6024 O   0  0  0  0  0  0  0  0  0  0  0  0
   17.3802   -6.3690  -10.9829 N   0  0  0  0  0  0  0  0  0  0  0  0
   18.7061   -6.0532  -11.4297 C   0  0  1  0  0  0  0  0  0  0  0  0
   19.4971   -7.3665  -11.5222 C   0  0  0  0  0  0  0  0  0  0  0  0
   21.1426   -7.0366  -12.2513 S   0  0  0  0  0  0  0  0  0  0  0  0
   18.6377   -5.4128  -12.7628 C   0  0  0  0  0  0  0  0  0  0  0  0
   19.5941   -4.4692  -13.0991 O   0  0  0  0  0  0  0  0  0  0  0  0
   17.7649   -5.6621  -13.6275 O   0  0  0  0  0  0  0  0  0  0  0  0
  1  2  1  0
  2  3  1  0
  3  5  1  0
  3  4  1  1
  5  7  1  0
  5  6  1  6
  7  9  1  0
  7  8  2  0
  9 10  1  0
 10 14  1  0
 10 11  1  1
 12 11  1  0
 12 16  1  0
 13 12  2  0
 14 17  1  0
 15 14  2  0
 17 18  1  0
 18 21  1  0
 18 19  1  6
 19 20  1  0
 21 23  2  0
 21 22  1  0
M  END
$$$$
