IDC.pdb
     RDKit          3D

 23 22  0  0  1  0  0  0  0  0999 V2000
   26.3440  -20.2232   -8.6186 C   0  0  0  0  0  0  0  0  0  0  0  0
   26.3960  -21.1821   -9.7692 C   0  0  0  0  0  0  0  0  0  0  0  0
   25.4548  -20.8222  -10.8770 C   0  0  2  0  0  0  0  0  0  0  0  0
   24.0414  -20.7038  -10.3490 C   0  0  0  0  0  0  0  0  0  0  0  0
   25.5547  -21.6688  -12.0976 C   0  0  2  0  0  0  0  0  0  0  0  0
   26.9389  -21.5909  -12.6400 N   0  0  0  0  0  0  0  0  0  0  0  0
   24.6592  -21.3114  -13.2082 C   0  0  0  0  0  0  0  0  0  0  0  0
   25.0730  -20.4652  -14.0813 O   0  0  0  0  0  0  0  0  0  0  0  0
   23.3596  -21.7993  -13.4451 N   0  0  0  0  0  0  0  0  0  0  0  0
   22.5598  -21.4278  -14.5939 C   0  0  1  0  0  0  0  0  0  0  0  0
   21.3376  -22.3129  -14.6731 C   0  0  0  0  0  0  0  0  0  0  0  0
   20.5403  -22.0506  -15.8870 C   0  0  0  0  0  0  0  0  0  0  0  0
   19.3373  -21.6926  -15.7592 O   0  0  0  0  0  0  0  0  0  0  0  0
   22.0729  -20.0299  -14.5206 C   0  0  0  0  0  0  0  0  0  0  0  0
   21.4830  -19.5306  -13.5337 O   0  0  0  0  0  0  0  0  0  0  0  0
   21.1070  -22.1956  -17.1419 O   0  0  0  0  0  0  0  0  0  0  0  0
   22.3037  -19.2163  -15.6657 N   0  0  0  0  0  0  0  0  0  0  0  0
   21.8875  -17.8492  -15.7896 C   0  0  1  0  0  0  0  0  0  0  0  0
   22.9995  -17.0828  -16.5212 C   0  0  0  0  0  0  0  0  0  0  0  0
   22.8257  -15.2920  -16.1884 S   0  0  0  0  0  0  0  0  0  0  0  0
   20.6333  -17.7848  -16.5736 C   0  0  0  0  0  0  0  0  0  0  0  0
   20.4196  -18.7245  -17.5683 O   0  0  0  0  0  0  0  0  0  0  0  0
   19.7324  -16.9296  -16.4048 O   0  0  0  0  0  0  0  0  0  0  0  0
  1  2  1  0
  2  3  1  0
  3  5  1  0
  3  4  1  1
  5  7  1  0
  5  6  1  6
  7  9  1  0
  7  8  2  0
  9 10  1  0
 10 14  1  0
 10 11  1  1
 12 11  1  0
 12 16  1  0
 13 12  2  0
 14 17  1  0
 15 14  2  0
 17 18  1  0
 18 21  1  0
 18 19  1  6
 19 20  1  0
 21 23  2  0
 21 22  1  0
M  END
$$$$
