IDC.pdb
     RDKit          3D

 23 22  0  0  1  0  0  0  0  0999 V2000
   20.7798  -14.2051  -17.9525 C   0  0  0  0  0  0  0  0  0  0  0  0
   19.5716  -13.6840  -17.2351 C   0  0  0  0  0  0  0  0  0  0  0  0
   19.5807  -12.1952  -17.0737 C   0  0  2  0  0  0  0  0  0  0  0  0
   20.9100  -11.7346  -16.5157 C   0  0  0  0  0  0  0  0  0  0  0  0
   18.4123  -11.6263  -16.3472 C   0  0  2  0  0  0  0  0  0  0  0  0
   17.1588  -12.0079  -17.0539 N   0  0  0  0  0  0  0  0  0  0  0  0
   18.3804  -10.1615  -16.2192 C   0  0  0  0  0  0  0  0  0  0  0  0
   18.3276   -9.4537  -17.2896 O   0  0  0  0  0  0  0  0  0  0  0  0
   18.3984   -9.4101  -15.0284 N   0  0  0  0  0  0  0  0  0  0  0  0
   18.4876   -7.9650  -14.9924 C   0  0  1  0  0  0  0  0  0  0  0  0
   17.3438   -7.4027  -14.1806 C   0  0  0  0  0  0  0  0  0  0  0  0
   16.0335   -7.6876  -14.7969 C   0  0  0  0  0  0  0  0  0  0  0  0
   15.8303   -7.3267  -15.9886 O   0  0  0  0  0  0  0  0  0  0  0  0
   19.7391   -7.4876  -14.3579 C   0  0  0  0  0  0  0  0  0  0  0  0
   20.2374   -7.9675  -13.3127 O   0  0  0  0  0  0  0  0  0  0  0  0
   15.0477   -8.3401  -14.0763 O   0  0  0  0  0  0  0  0  0  0  0  0
   20.4041   -6.4054  -15.0009 N   0  0  0  0  0  0  0  0  0  0  0  0
   21.6884   -5.8958  -14.6160 C   0  0  1  0  0  0  0  0  0  0  0  0
   22.5237   -5.7121  -15.8918 C   0  0  0  0  0  0  0  0  0  0  0  0
   24.0922   -4.8661  -15.4765 S   0  0  0  0  0  0  0  0  0  0  0  0
   21.5179   -4.5924  -13.9350 C   0  0  0  0  0  0  0  0  0  0  0  0
   22.3304   -4.2934  -12.8539 O   0  0  0  0  0  0  0  0  0  0  0  0
   20.6791   -3.7215  -14.2661 O   0  0  0  0  0  0  0  0  0  0  0  0
  1  2  1  0
  2  3  1  0
  3  5  1  0
  3  4  1  1
  5  7  1  0
  5  6  1  6
  7  9  1  0
  7  8  2  0
  9 10  1  0
 10 14  1  0
 10 11  1  1
 12 11  1  0
 12 16  1  0
 13 12  2  0
 14 17  1  0
 15 14  2  0
 17 18  1  0
 18 21  1  0
 18 19  1  6
 19 20  1  0
 21 23  2  0
 21 22  1  0
M  END
$$$$
