IDC.pdb
     RDKit          3D

 23 22  0  0  1  0  0  0  0  0999 V2000
   16.0057  -14.6566  -14.0553 C   0  0  0  0  0  0  0  0  0  0  0  0
   15.5459  -13.2495  -14.2893 C   0  0  0  0  0  0  0  0  0  0  0  0
   16.0657  -12.2841  -13.2692 C   0  0  2  0  0  0  0  0  0  0  0  0
   15.7850  -12.7932  -11.8719 C   0  0  0  0  0  0  0  0  0  0  0  0
   15.6577  -10.8662  -13.4685 C   0  0  2  0  0  0  0  0  0  0  0  0
   15.9369  -10.4657  -14.8748 N   0  0  0  0  0  0  0  0  0  0  0  0
   16.3319   -9.8732  -12.6185 C   0  0  0  0  0  0  0  0  0  0  0  0
   16.1503   -9.9293  -11.3483 O   0  0  0  0  0  0  0  0  0  0  0  0
   17.1841   -8.8329  -13.0363 N   0  0  0  0  0  0  0  0  0  0  0  0
   17.8065   -7.8916  -12.1284 C   0  0  1  0  0  0  0  0  0  0  0  0
   18.9537   -7.1948  -12.8225 C   0  0  0  0  0  0  0  0  0  0  0  0
   20.0959   -8.1007  -13.0517 C   0  0  0  0  0  0  0  0  0  0  0  0
   20.0832   -9.2433  -12.5169 O   0  0  0  0  0  0  0  0  0  0  0  0
   16.8721   -6.8334  -11.6769 C   0  0  0  0  0  0  0  0  0  0  0  0
   16.0746   -6.2194  -12.4240 O   0  0  0  0  0  0  0  0  0  0  0  0
   21.1604   -7.6997  -13.8411 O   0  0  0  0  0  0  0  0  0  0  0  0
   16.9019   -6.5092  -10.2910 N   0  0  0  0  0  0  0  0  0  0  0  0
   16.0532   -5.5372   -9.6646 C   0  0  1  0  0  0  0  0  0  0  0  0
   14.6026   -6.0249   -9.7947 C   0  0  0  0  0  0  0  0  0  0  0  0
   13.4995   -4.9158   -8.8454 S   0  0  0  0  0  0  0  0  0  0  0  0
   16.4159   -5.4149   -8.2344 C   0  0  0  0  0  0  0  0  0  0  0  0
   16.0080   -4.2901   -7.5369 O   0  0  0  0  0  0  0  0  0  0  0  0
   17.0764   -6.2657   -7.5930 O   0  0  0  0  0  0  0  0  0  0  0  0
  1  2  1  0
  2  3  1  0
  3  5  1  0
  3  4  1  1
  5  7  1  0
  5  6  1  6
  7  9  1  0
  7  8  2  0
  9 10  1  0
 10 14  1  0
 10 11  1  6
 12 11  1  0
 12 16  1  0
 13 12  2  0
 14 17  1  0
 15 14  2  0
 17 18  1  0
 18 21  1  0
 18 19  1  1
 19 20  1  0
 21 23  2  0
 21 22  1  0
M  END
$$$$
