IDC.pdb
     RDKit          3D

 23 22  0  0  1  0  0  0  0  0999 V2000
   17.8658  -16.7606  -16.9338 C   0  0  0  0  0  0  0  0  0  0  0  0
   18.8096  -15.8416  -17.6484 C   0  0  0  0  0  0  0  0  0  0  0  0
   19.0898  -14.5811  -16.8898 C   0  0  2  0  0  0  0  0  0  0  0  0
   17.7949  -13.9345  -16.4473 C   0  0  0  0  0  0  0  0  0  0  0  0
   20.0209  -13.6301  -17.5568 C   0  0  2  0  0  0  0  0  0  0  0  0
   21.3037  -14.3237  -17.8558 N   0  0  0  0  0  0  0  0  0  0  0  0
   20.3755  -12.4262  -16.7899 C   0  0  0  0  0  0  0  0  0  0  0  0
   21.5269  -12.3779  -16.2228 O   0  0  0  0  0  0  0  0  0  0  0  0
   19.5848  -11.2776  -16.5941 N   0  0  0  0  0  0  0  0  0  0  0  0
   20.0369  -10.1050  -15.8742 C   0  0  1  0  0  0  0  0  0  0  0  0
   21.2364   -9.5079  -16.5727 C   0  0  0  0  0  0  0  0  0  0  0  0
   21.7717   -8.3364  -15.8522 C   0  0  0  0  0  0  0  0  0  0  0  0
   22.1745   -7.3440  -16.5188 O   0  0  0  0  0  0  0  0  0  0  0  0
   19.0050   -9.0431  -15.8106 C   0  0  0  0  0  0  0  0  0  0  0  0
   18.4683   -8.5089  -16.8095 O   0  0  0  0  0  0  0  0  0  0  0  0
   21.8283   -8.3309  -14.4688 O   0  0  0  0  0  0  0  0  0  0  0  0
   18.6123   -8.6164  -14.5104 N   0  0  0  0  0  0  0  0  0  0  0  0
   17.5447   -7.6962  -14.2441 C   0  0  1  0  0  0  0  0  0  0  0  0
   16.7262   -8.2518  -13.0692 C   0  0  0  0  0  0  0  0  0  0  0  0
   17.8243   -8.5051  -11.6276 S   0  0  0  0  0  0  0  0  0  0  0  0
   18.1100   -6.3764  -13.8831 C   0  0  0  0  0  0  0  0  0  0  0  0
   17.2446   -5.3171  -13.6660 O   0  0  0  0  0  0  0  0  0  0  0  0
   19.3342   -6.1376  -13.7567 O   0  0  0  0  0  0  0  0  0  0  0  0
  1  2  1  0
  2  3  1  0
  3  5  1  0
  3  4  1  6
  5  7  1  0
  5  6  1  1
  7  9  1  0
  7  8  2  0
  9 10  1  0
 10 14  1  0
 10 11  1  6
 12 11  1  0
 12 16  1  0
 13 12  2  0
 14 17  1  0
 15 14  2  0
 17 18  1  0
 18 21  1  0
 18 19  1  1
 19 20  1  0
 21 23  2  0
 21 22  1  0
M  END
$$$$
