IDC.pdb
     RDKit          3D

 23 22  0  0  1  0  0  0  0  0999 V2000
   17.8708  -14.6794  -14.4451 C   0  0  0  0  0  0  0  0  0  0  0  0
   17.3632  -13.9120  -15.6281 C   0  0  0  0  0  0  0  0  0  0  0  0
   17.8524  -12.4970  -15.6645 C   0  0  2  0  0  0  0  0  0  0  0  0
   17.4626  -11.7727  -14.3942 C   0  0  0  0  0  0  0  0  0  0  0  0
   17.5128  -11.7375  -16.8991 C   0  0  2  0  0  0  0  0  0  0  0  0
   18.0526  -12.4573  -18.0852 N   0  0  0  0  0  0  0  0  0  0  0  0
   18.0365  -10.3655  -16.9796 C   0  0  0  0  0  0  0  0  0  0  0  0
   19.2784  -10.1991  -17.2614 O   0  0  0  0  0  0  0  0  0  0  0  0
   17.3219   -9.1682  -16.7822 N   0  0  0  0  0  0  0  0  0  0  0  0
   17.9324   -7.8552  -16.8100 C   0  0  1  0  0  0  0  0  0  0  0  0
   16.8818   -6.8096  -17.1039 C   0  0  0  0  0  0  0  0  0  0  0  0
   17.4648   -5.4610  -17.2427 C   0  0  0  0  0  0  0  0  0  0  0  0
   18.4674   -5.3058  -17.9926 O   0  0  0  0  0  0  0  0  0  0  0  0
   18.5522   -7.4881  -15.5148 C   0  0  0  0  0  0  0  0  0  0  0  0
   18.1188   -7.8376  -14.3918 O   0  0  0  0  0  0  0  0  0  0  0  0
   16.9174   -4.3878  -16.5603 O   0  0  0  0  0  0  0  0  0  0  0  0
   19.7226   -6.6800  -15.5774 N   0  0  0  0  0  0  0  0  0  0  0  0
   20.5271   -6.3242  -14.4445 C   0  0  1  0  0  0  0  0  0  0  0  0
   21.4419   -7.5155  -14.1236 C   0  0  0  0  0  0  0  0  0  0  0  0
   22.5423   -7.0802  -12.7281 S   0  0  0  0  0  0  0  0  0  0  0  0
   21.3464   -5.1362  -14.7751 C   0  0  0  0  0  0  0  0  0  0  0  0
   21.6395   -4.2279  -13.7716 O   0  0  0  0  0  0  0  0  0  0  0  0
   21.8041   -4.8828  -15.9144 O   0  0  0  0  0  0  0  0  0  0  0  0
  1  2  1  0
  2  3  1  0
  3  5  1  0
  3  4  1  1
  5  7  1  0
  5  6  1  6
  7  9  1  0
  7  8  2  0
  9 10  1  0
 10 14  1  0
 10 11  1  1
 12 11  1  0
 12 16  1  0
 13 12  2  0
 14 17  1  0
 15 14  2  0
 17 18  1  0
 18 21  1  0
 18 19  1  6
 19 20  1  0
 21 23  2  0
 21 22  1  0
M  END
$$$$
