IDC.pdb
     RDKit          3D

 23 22  0  0  1  0  0  0  0  0999 V2000
   18.6773  -11.9307  -17.5751 C   0  0  0  0  0  0  0  0  0  0  0  0
   19.7513  -10.9664  -17.1719 C   0  0  0  0  0  0  0  0  0  0  0  0
   19.4647  -10.2766  -15.8739 C   0  0  2  0  0  0  0  0  0  0  0  0
   18.0535   -9.7300  -15.8689 C   0  0  0  0  0  0  0  0  0  0  0  0
   20.4814   -9.2765  -15.4463 C   0  0  2  0  0  0  0  0  0  0  0  0
   21.8039   -9.9458  -15.3082 N   0  0  0  0  0  0  0  0  0  0  0  0
   20.2273   -8.6032  -14.1637 C   0  0  0  0  0  0  0  0  0  0  0  0
   20.2294   -9.3085  -13.0903 O   0  0  0  0  0  0  0  0  0  0  0  0
   19.9756   -7.2333  -13.9561 N   0  0  0  0  0  0  0  0  0  0  0  0
   19.7874   -6.6410  -12.6479 C   0  0  1  0  0  0  0  0  0  0  0  0
   20.3438   -5.2361  -12.6386 C   0  0  0  0  0  0  0  0  0  0  0  0
   21.8151   -5.2213  -12.7518 C   0  0  0  0  0  0  0  0  0  0  0  0
   22.3389   -4.8013  -13.8200 O   0  0  0  0  0  0  0  0  0  0  0  0
   18.3581   -6.5388  -12.2696 C   0  0  0  0  0  0  0  0  0  0  0  0
   17.4322   -6.2296  -13.0559 O   0  0  0  0  0  0  0  0  0  0  0  0
   22.6028   -5.6609  -11.7015 O   0  0  0  0  0  0  0  0  0  0  0  0
   18.0397   -6.8163  -10.9101 N   0  0  0  0  0  0  0  0  0  0  0  0
   16.7314   -6.6833  -10.3375 C   0  0  1  0  0  0  0  0  0  0  0  0
   16.2720   -8.0769   -9.8837 C   0  0  0  0  0  0  0  0  0  0  0  0
   14.6426   -7.9437   -9.0619 S   0  0  0  0  0  0  0  0  0  0  0  0
   16.7932   -5.7708   -9.1732 C   0  0  0  0  0  0  0  0  0  0  0  0
   15.6996   -4.9670   -8.8971 O   0  0  0  0  0  0  0  0  0  0  0  0
   17.7769   -5.6662   -8.4032 O   0  0  0  0  0  0  0  0  0  0  0  0
  1  2  1  0
  2  3  1  0
  3  5  1  0
  3  4  1  6
  5  7  1  0
  5  6  1  1
  7  9  1  0
  7  8  2  0
  9 10  1  0
 10 14  1  0
 10 11  1  6
 12 11  1  0
 12 16  1  0
 13 12  2  0
 14 17  1  0
 15 14  2  0
 17 18  1  0
 18 21  1  0
 18 19  1  1
 19 20  1  0
 21 23  2  0
 21 22  1  0
M  END
$$$$
