IDC.pdb
     RDKit          3D

 23 22  0  0  1  0  0  0  0  0999 V2000
   13.4654  -13.3160  -11.2700 C   0  0  0  0  0  0  0  0  0  0  0  0
   13.3581  -12.1938  -10.2826 C   0  0  0  0  0  0  0  0  0  0  0  0
   14.2225  -11.0211  -10.6297 C   0  0  2  0  0  0  0  0  0  0  0  0
   15.6397  -11.4752  -10.9047 C   0  0  0  0  0  0  0  0  0  0  0  0
   14.1486   -9.8736   -9.6839 C   0  0  2  0  0  0  0  0  0  0  0  0
   12.7264   -9.4704   -9.5079 N   0  0  0  0  0  0  0  0  0  0  0  0
   14.8724   -8.6574  -10.0841 C   0  0  0  0  0  0  0  0  0  0  0  0
   14.5097   -8.0539  -11.1583 O   0  0  0  0  0  0  0  0  0  0  0  0
   15.9497   -8.0478   -9.4128 N   0  0  0  0  0  0  0  0  0  0  0  0
   16.6588   -6.8905   -9.9181 C   0  0  1  0  0  0  0  0  0  0  0  0
   16.7214   -5.8234   -8.8500 C   0  0  0  0  0  0  0  0  0  0  0  0
   15.4001   -5.2191   -8.5913 C   0  0  0  0  0  0  0  0  0  0  0  0
   14.5673   -5.1498   -9.5364 O   0  0  0  0  0  0  0  0  0  0  0  0
   18.0577   -7.2006  -10.2970 C   0  0  0  0  0  0  0  0  0  0  0  0
   18.7876   -8.0343   -9.7111 O   0  0  0  0  0  0  0  0  0  0  0  0
   15.0843   -4.7385   -7.3318 O   0  0  0  0  0  0  0  0  0  0  0  0
   18.5872   -6.4871  -11.4093 N   0  0  0  0  0  0  0  0  0  0  0  0
   19.8139   -6.8146  -12.0765 C   0  0  1  0  0  0  0  0  0  0  0  0
   19.7068   -8.2636  -12.5746 C   0  0  0  0  0  0  0  0  0  0  0  0
   21.1722   -8.6677  -13.5932 S   0  0  0  0  0  0  0  0  0  0  0  0
   20.0094   -5.9015  -13.2254 C   0  0  0  0  0  0  0  0  0  0  0  0
   18.8999   -5.4835  -13.9413 O   0  0  0  0  0  0  0  0  0  0  0  0
   21.1219   -5.4690  -13.6088 O   0  0  0  0  0  0  0  0  0  0  0  0
  1  2  1  0
  2  3  1  0
  3  5  1  0
  3  4  1  1
  5  7  1  0
  5  6  1  6
  7  9  1  0
  7  8  2  0
  9 10  1  0
 10 14  1  0
 10 11  1  1
 12 11  1  0
 12 16  1  0
 13 12  2  0
 14 17  1  0
 15 14  2  0
 17 18  1  0
 18 21  1  0
 18 19  1  6
 19 20  1  0
 21 23  2  0
 21 22  1  0
M  END
$$$$
