IDC.pdb
     RDKit          3D

 23 22  0  0  1  0  0  0  0  0999 V2000
   17.2182  -14.1038  -17.8123 C   0  0  0  0  0  0  0  0  0  0  0  0
   17.5559  -13.4633  -16.5002 C   0  0  0  0  0  0  0  0  0  0  0  0
   17.7965  -11.9893  -16.6104 C   0  0  2  0  0  0  0  0  0  0  0  0
   18.8103  -11.7015  -17.6967 C   0  0  0  0  0  0  0  0  0  0  0  0
   18.0997  -11.2960  -15.3283 C   0  0  2  0  0  0  0  0  0  0  0  0
   17.0019  -11.5541  -14.3565 N   0  0  0  0  0  0  0  0  0  0  0  0
   18.2461   -9.8344  -15.4018 C   0  0  0  0  0  0  0  0  0  0  0  0
   19.2754   -9.3508  -15.9986 O   0  0  0  0  0  0  0  0  0  0  0  0
   17.3675   -8.8634  -14.8840 N   0  0  0  0  0  0  0  0  0  0  0  0
   17.5680   -7.4371  -15.0355 C   0  0  1  0  0  0  0  0  0  0  0  0
   16.3047   -6.7004  -14.6548 C   0  0  0  0  0  0  0  0  0  0  0  0
   16.4043   -5.2527  -14.9235 C   0  0  0  0  0  0  0  0  0  0  0  0
   16.4658   -4.4556  -13.9475 O   0  0  0  0  0  0  0  0  0  0  0  0
   18.6469   -6.9179  -14.1619 C   0  0  0  0  0  0  0  0  0  0  0  0
   18.9695   -7.4121  -13.0560 O   0  0  0  0  0  0  0  0  0  0  0  0
   16.4301   -4.7822  -16.2254 O   0  0  0  0  0  0  0  0  0  0  0  0
   19.3523   -5.7754  -14.6349 N   0  0  0  0  0  0  0  0  0  0  0  0
   20.5000   -5.2041  -13.9916 C   0  0  1  0  0  0  0  0  0  0  0  0
   21.7239   -6.0494  -14.3744 C   0  0  0  0  0  0  0  0  0  0  0  0
   23.2442   -5.2271  -13.7739 S   0  0  0  0  0  0  0  0  0  0  0  0
   20.6850   -3.8116  -14.4590 C   0  0  0  0  0  0  0  0  0  0  0  0
   20.4230   -3.5131  -15.7858 O   0  0  0  0  0  0  0  0  0  0  0  0
   21.0680   -2.8631  -13.7341 O   0  0  0  0  0  0  0  0  0  0  0  0
  1  2  1  0
  2  3  1  0
  3  5  1  0
  3  4  1  6
  5  7  1  0
  5  6  1  1
  7  9  1  0
  7  8  2  0
  9 10  1  0
 10 14  1  0
 10 11  1  1
 12 11  1  0
 12 16  1  0
 13 12  2  0
 14 17  1  0
 15 14  2  0
 17 18  1  0
 18 21  1  0
 18 19  1  6
 19 20  1  0
 21 23  2  0
 21 22  1  0
M  END
$$$$
