IDC.pdb
     RDKit          3D

 23 22  0  0  1  0  0  0  0  0999 V2000
   18.9405  -13.9170  -19.6935 C   0  0  0  0  0  0  0  0  0  0  0  0
   19.6123  -13.5282  -18.4115 C   0  0  0  0  0  0  0  0  0  0  0  0
   19.5819  -12.0529  -18.1560 C   0  0  2  0  0  0  0  0  0  0  0  0
   20.1786  -11.3035  -19.3276 C   0  0  0  0  0  0  0  0  0  0  0  0
   20.1355  -11.6226  -16.8427 C   0  0  2  0  0  0  0  0  0  0  0  0
   19.5308  -12.4450  -15.7591 N   0  0  0  0  0  0  0  0  0  0  0  0
   19.9017  -10.2191  -16.4702 C   0  0  0  0  0  0  0  0  0  0  0  0
   20.5064   -9.3002  -17.1332 O   0  0  0  0  0  0  0  0  0  0  0  0
   19.0666   -9.7382  -15.4434 N   0  0  0  0  0  0  0  0  0  0  0  0
   18.8963   -8.3325  -15.1394 C   0  0  1  0  0  0  0  0  0  0  0  0
   17.6063   -8.1269  -14.3799 C   0  0  0  0  0  0  0  0  0  0  0  0
   16.4343   -8.6095  -15.1358 C   0  0  0  0  0  0  0  0  0  0  0  0
   16.1853   -8.1000  -16.2628 O   0  0  0  0  0  0  0  0  0  0  0  0
   19.9852   -7.7982  -14.2878 C   0  0  0  0  0  0  0  0  0  0  0  0
   20.3471   -8.2965  -13.1960 O   0  0  0  0  0  0  0  0  0  0  0  0
   15.6254   -9.6045  -14.6138 O   0  0  0  0  0  0  0  0  0  0  0  0
   20.6526   -6.6351  -14.7659 N   0  0  0  0  0  0  0  0  0  0  0  0
   21.7278   -5.9756  -14.0829 C   0  0  1  0  0  0  0  0  0  0  0  0
   22.9657   -6.0300  -14.9904 C   0  0  0  0  0  0  0  0  0  0  0  0
   23.5166   -7.7660  -15.1662 S   0  0  0  0  0  0  0  0  0  0  0  0
   21.3563   -4.5661  -13.8237 C   0  0  0  0  0  0  0  0  0  0  0  0
   22.0420   -3.8647  -12.8460 O   0  0  0  0  0  0  0  0  0  0  0  0
   20.4518   -3.9459  -14.4310 O   0  0  0  0  0  0  0  0  0  0  0  0
  1  2  1  0
  2  3  1  0
  3  5  1  0
  3  4  1  6
  5  7  1  0
  5  6  1  1
  7  9  1  0
  7  8  2  0
  9 10  1  0
 10 14  1  0
 10 11  1  1
 12 11  1  0
 12 16  1  0
 13 12  2  0
 14 17  1  0
 15 14  2  0
 17 18  1  0
 18 21  1  0
 18 19  1  6
 19 20  1  0
 21 23  2  0
 21 22  1  0
M  END
$$$$
