IDC.pdb
     RDKit          3D

 23 22  0  0  1  0  0  0  0  0999 V2000
   23.1039  -12.7722  -19.5359 C   0  0  0  0  0  0  0  0  0  0  0  0
   21.6488  -12.8526  -19.1865 C   0  0  0  0  0  0  0  0  0  0  0  0
   21.0556  -11.5243  -18.8308 C   0  0  2  0  0  0  0  0  0  0  0  0
   21.2313  -10.5469  -19.9728 C   0  0  0  0  0  0  0  0  0  0  0  0
   21.4785  -10.9698  -17.5154 C   0  0  2  0  0  0  0  0  0  0  0  0
   21.3363  -12.0191  -16.4691 N   0  0  0  0  0  0  0  0  0  0  0  0
   20.7234   -9.8042  -17.0315 C   0  0  0  0  0  0  0  0  0  0  0  0
   21.1301   -8.6310  -17.3598 O   0  0  0  0  0  0  0  0  0  0  0  0
   19.5677   -9.8123  -16.2269 N   0  0  0  0  0  0  0  0  0  0  0  0
   18.8112   -8.6223  -15.8964 C   0  0  1  0  0  0  0  0  0  0  0  0
   17.4874   -9.0131  -15.2815 C   0  0  0  0  0  0  0  0  0  0  0  0
   16.6213   -9.7294  -16.2379 C   0  0  0  0  0  0  0  0  0  0  0  0
   16.5363   -9.3002  -17.4212 O   0  0  0  0  0  0  0  0  0  0  0  0
   19.5056   -7.7623  -14.9090 C   0  0  0  0  0  0  0  0  0  0  0  0
   19.8843   -8.1399  -13.7754 O   0  0  0  0  0  0  0  0  0  0  0  0
   15.9167  -10.8526  -15.8392 O   0  0  0  0  0  0  0  0  0  0  0  0
   19.7479   -6.4151  -15.3000 N   0  0  0  0  0  0  0  0  0  0  0  0
   20.4762   -5.4592  -14.5168 C   0  0  1  0  0  0  0  0  0  0  0  0
   21.8672   -6.0453  -14.2325 C   0  0  0  0  0  0  0  0  0  0  0  0
   22.8871   -4.7996  -13.3630 S   0  0  0  0  0  0  0  0  0  0  0  0
   20.6090   -4.1966  -15.2783 C   0  0  0  0  0  0  0  0  0  0  0  0
   20.5394   -2.9946  -14.5938 O   0  0  0  0  0  0  0  0  0  0  0  0
   20.7822   -4.1287  -16.5181 O   0  0  0  0  0  0  0  0  0  0  0  0
  1  2  1  0
  2  3  1  0
  3  5  1  0
  3  4  1  6
  5  7  1  0
  5  6  1  1
  7  9  1  0
  7  8  2  0
  9 10  1  0
 10 14  1  0
 10 11  1  1
 12 11  1  0
 12 16  1  0
 13 12  2  0
 14 17  1  0
 15 14  2  0
 17 18  1  0
 18 21  1  0
 18 19  1  6
 19 20  1  0
 21 23  2  0
 21 22  1  0
M  END
$$$$
