IDC.pdb
     RDKit          3D

 23 22  0  0  1  0  0  0  0  0999 V2000
   26.0362  -12.0137  -16.8097 C   0  0  0  0  0  0  0  0  0  0  0  0
   24.6584  -12.1799  -16.2441 C   0  0  0  0  0  0  0  0  0  0  0  0
   23.8653  -10.9095  -16.2459 C   0  0  2  0  0  0  0  0  0  0  0  0
   24.6553   -9.7952  -15.5942 C   0  0  0  0  0  0  0  0  0  0  0  0
   22.4762  -11.0254  -15.7232 C   0  0  2  0  0  0  0  0  0  0  0  0
   21.7587  -12.0995  -16.4633 N   0  0  0  0  0  0  0  0  0  0  0  0
   21.6395   -9.8211  -15.8365 C   0  0  0  0  0  0  0  0  0  0  0  0
   21.1786   -9.5015  -16.9919 O   0  0  0  0  0  0  0  0  0  0  0  0
   21.2642   -8.9443  -14.8004 N   0  0  0  0  0  0  0  0  0  0  0  0
   20.4411   -7.7698  -15.0016 C   0  0  1  0  0  0  0  0  0  0  0  0
   19.7469   -7.4053  -13.7098 C   0  0  0  0  0  0  0  0  0  0  0  0
   18.7037   -8.3835  -13.3454 C   0  0  0  0  0  0  0  0  0  0  0  0
   18.2364   -9.1373  -14.2426 O   0  0  0  0  0  0  0  0  0  0  0  0
   21.2306   -6.5850  -15.4132 C   0  0  0  0  0  0  0  0  0  0  0  0
   22.1874   -6.1037  -14.7620 O   0  0  0  0  0  0  0  0  0  0  0  0
   18.2493   -8.4693  -12.0403 O   0  0  0  0  0  0  0  0  0  0  0  0
   20.8557   -5.9671  -16.6398 N   0  0  0  0  0  0  0  0  0  0  0  0
   21.5361   -4.8505  -17.2294 C   0  0  1  0  0  0  0  0  0  0  0  0
   21.6837   -5.1293  -18.7326 C   0  0  0  0  0  0  0  0  0  0  0  0
   22.7463   -6.5985  -18.9782 S   0  0  0  0  0  0  0  0  0  0  0  0
   20.7374   -3.6212  -17.0225 C   0  0  0  0  0  0  0  0  0  0  0  0
   21.2718   -2.4049  -17.4138 O   0  0  0  0  0  0  0  0  0  0  0  0
   19.5934   -3.5943  -16.5103 O   0  0  0  0  0  0  0  0  0  0  0  0
  1  2  1  0
  2  3  1  0
  3  5  1  0
  3  4  1  1
  5  7  1  0
  5  6  1  6
  7  9  1  0
  7  8  2  0
  9 10  1  0
 10 14  1  0
 10 11  1  1
 12 11  1  0
 12 16  1  0
 13 12  2  0
 14 17  1  0
 15 14  2  0
 17 18  1  0
 18 21  1  0
 18 19  1  6
 19 20  1  0
 21 23  2  0
 21 22  1  0
M  END
$$$$
