IDC.pdb
     RDKit          3D

 23 22  0  0  1  0  0  0  0  0999 V2000
   19.8217  -15.4772  -17.6154 C   0  0  0  0  0  0  0  0  0  0  0  0
   21.2749  -15.6585  -17.9338 C   0  0  0  0  0  0  0  0  0  0  0  0
   21.8682  -16.8776  -17.2978 C   0  0  2  0  0  0  0  0  0  0  0  0
   21.6393  -16.8549  -15.8020 C   0  0  0  0  0  0  0  0  0  0  0  0
   23.2806  -17.1663  -17.6696 C   0  0  2  0  0  0  0  0  0  0  0  0
   23.3828  -17.3064  -19.1481 N   0  0  0  0  0  0  0  0  0  0  0  0
   23.8619  -18.3919  -17.1012 C   0  0  0  0  0  0  0  0  0  0  0  0
   23.9697  -19.4260  -17.8553 O   0  0  0  0  0  0  0  0  0  0  0  0
   24.3344  -18.5809  -15.7881 N   0  0  0  0  0  0  0  0  0  0  0  0
   25.0041  -19.7849  -15.3415 C   0  0  1  0  0  0  0  0  0  0  0  0
   26.1742  -20.0853  -16.2493 C   0  0  0  0  0  0  0  0  0  0  0  0
   26.8983  -21.3031  -15.8365 C   0  0  0  0  0  0  0  0  0  0  0  0
   26.3139  -22.4177  -15.9244 O   0  0  0  0  0  0  0  0  0  0  0  0
   25.5479  -19.6580  -13.9687 C   0  0  0  0  0  0  0  0  0  0  0  0
   26.3656  -18.7810  -13.6034 O   0  0  0  0  0  0  0  0  0  0  0  0
   28.1964  -21.2191  -15.3623 O   0  0  0  0  0  0  0  0  0  0  0  0
   25.0937  -20.6124  -13.0151 N   0  0  0  0  0  0  0  0  0  0  0  0
   25.5807  -20.7134  -11.6697 C   0  0  1  0  0  0  0  0  0  0  0  0
   24.3682  -20.6938  -10.7272 C   0  0  0  0  0  0  0  0  0  0  0  0
   24.7656  -19.6992   -9.2436 S   0  0  0  0  0  0  0  0  0  0  0  0
   26.3225  -21.9844  -11.5080 C   0  0  0  0  0  0  0  0  0  0  0  0
   26.2275  -22.9433  -12.5028 O   0  0  0  0  0  0  0  0  0  0  0  0
   27.0434  -22.2665  -10.5218 O   0  0  0  0  0  0  0  0  0  0  0  0
  1  2  1  0
  2  3  1  0
  3  5  1  0
  3  4  1  1
  5  7  1  0
  5  6  1  6
  7  9  1  0
  7  8  2  0
  9 10  1  0
 10 14  1  0
 10 11  1  6
 12 11  1  0
 12 16  1  0
 13 12  2  0
 14 17  1  0
 15 14  2  0
 17 18  1  0
 18 21  1  0
 18 19  1  1
 19 20  1  0
 21 23  2  0
 21 22  1  0
M  END
$$$$
