IDC.pdb
     RDKit          3D

 23 22  0  0  1  0  0  0  0  0999 V2000
   28.6826  -17.2652  -17.0542 C   0  0  0  0  0  0  0  0  0  0  0  0
   27.2327  -17.4719  -17.3722 C   0  0  0  0  0  0  0  0  0  0  0  0
   26.4149  -17.8405  -16.1731 C   0  0  2  0  0  0  0  0  0  0  0  0
   27.0970  -18.9407  -15.3890 C   0  0  0  0  0  0  0  0  0  0  0  0
   24.9777  -18.1193  -16.4439 C   0  0  2  0  0  0  0  0  0  0  0  0
   24.3572  -16.9291  -17.0877 N   0  0  0  0  0  0  0  0  0  0  0  0
   24.1465  -18.4301  -15.2709 C   0  0  0  0  0  0  0  0  0  0  0  0
   23.7008  -17.4574  -14.5605 O   0  0  0  0  0  0  0  0  0  0  0  0
   23.7618  -19.7052  -14.8135 N   0  0  0  0  0  0  0  0  0  0  0  0
   22.8972  -19.9212  -13.6719 C   0  0  1  0  0  0  0  0  0  0  0  0
   21.7144  -20.7685  -14.0802 C   0  0  0  0  0  0  0  0  0  0  0  0
   20.7687  -20.0256  -14.9355 C   0  0  0  0  0  0  0  0  0  0  0  0
   20.6654  -20.3477  -16.1509 O   0  0  0  0  0  0  0  0  0  0  0  0
   23.5790  -20.6395  -12.5693 C   0  0  0  0  0  0  0  0  0  0  0  0
   23.0301  -20.9873  -11.4974 O   0  0  0  0  0  0  0  0  0  0  0  0
   20.0097  -18.9942  -14.4089 O   0  0  0  0  0  0  0  0  0  0  0  0
   24.9555  -20.9447  -12.7658 N   0  0  0  0  0  0  0  0  0  0  0  0
   25.7998  -21.5632  -11.7850 C   0  0  1  0  0  0  0  0  0  0  0  0
   27.2581  -21.3530  -12.2189 C   0  0  0  0  0  0  0  0  0  0  0  0
   27.4178  -19.7324  -13.0534 S   0  0  0  0  0  0  0  0  0  0  0  0
   25.5712  -20.9285  -10.4671 C   0  0  0  0  0  0  0  0  0  0  0  0
   26.1083  -21.5241   -9.3380 O   0  0  0  0  0  0  0  0  0  0  0  0
   24.9165  -19.8742  -10.2895 O   0  0  0  0  0  0  0  0  0  0  0  0
  1  2  1  0
  2  3  1  0
  3  5  1  0
  3  4  1  6
  5  7  1  0
  5  6  1  1
  7  9  1  0
  7  8  2  0
  9 10  1  0
 10 14  1  0
 10 11  1  6
 12 11  1  0
 12 16  1  0
 13 12  2  0
 14 17  1  0
 15 14  2  0
 17 18  1  0
 18 21  1  0
 18 19  1  6
 19 20  1  0
 21 23  2  0
 21 22  1  0
M  END
$$$$
