NNN.pdb
     RDKit          3D

 25 24  0  0  1  0  0  0  0  0999 V2000
   28.8692  -21.1005  -17.7688 N   0  0  0  0  0  0  0  0  0  0  0  0
   29.0134  -22.1883  -16.8770 C   0  0  0  0  0  0  0  0  0  0  0  0
   30.0635  -22.8915  -16.9697 O   0  0  0  0  0  0  0  0  0  0  0  0
   28.0124  -22.5415  -15.8546 C   0  0  0  0  0  0  0  0  0  0  0  0
   26.8726  -21.5317  -15.9756 C   0  0  2  0  0  0  0  0  0  0  0  0
   27.4508  -20.2356  -15.7596 N   0  0  0  0  0  0  0  0  0  0  0  0
   25.8404  -21.8555  -14.9389 C   0  0  0  0  0  0  0  0  0  0  0  0
   25.1397  -22.8905  -15.0065 O   0  0  0  0  0  0  0  0  0  0  0  0
   24.7621  -21.4398   -9.1882 N   0  0  0  0  0  0  0  0  0  0  0  0
   24.1603  -20.8828  -10.3788 C   0  0  0  0  0  0  0  0  0  0  0  0
   22.9690  -20.5968  -10.2787 O   0  0  0  0  0  0  0  0  0  0  0  0
   24.9688  -20.7092  -11.5528 C   0  0  0  0  0  0  0  0  0  0  0  0
   24.5310  -21.2794  -12.8671 C   0  0  2  0  0  0  0  0  0  0  0  0
   25.6273  -20.9895  -13.8414 N   0  0  0  0  0  0  0  0  0  0  0  0
   23.2989  -20.7360  -13.4327 C   0  0  0  0  0  0  0  0  0  0  0  0
   23.3377  -19.6065  -14.0657 O   0  0  0  0  0  0  0  0  0  0  0  0
   22.6779  -19.6655  -17.0209 N   0  0  0  0  0  0  0  0  0  0  0  0
   21.5091  -19.5960  -16.1586 C   0  0  0  0  0  0  0  0  0  0  0  0
   21.0307  -18.4465  -16.0610 O   0  0  0  0  0  0  0  0  0  0  0  0
   21.0023  -20.8156  -15.4998 C   0  0  0  0  0  0  0  0  0  0  0  0
   20.8888  -20.7436  -14.0247 C   0  0  2  0  0  0  0  0  0  0  0  0
   22.0414  -21.3531  -13.3540 N   0  0  0  0  0  0  0  0  0  0  0  0
   19.6994  -21.4022  -13.4861 C   0  0  0  0  0  0  0  0  0  0  0  0
   18.4300  -20.8003  -13.4816 O   0  0  0  0  0  0  0  0  0  0  0  0
   19.7480  -22.5413  -12.9987 O   0  0  0  0  0  0  0  0  0  0  0  0
  1  2  1  0
  2  3  2  0
  4  2  1  0
  5  6  1  1
  5  4  1  0
  7  5  1  0
  8  7  2  0
  9 10  1  0
 10 12  1  0
 11 10  2  0
 13 12  1  1
 13 15  1  0
 13 14  1  0
 14  7  1  0
 15 16  2  0
 17 18  1  0
 18 19  2  0
 21 20  1  6
 20 18  1  0
 21 23  1  0
 22 15  1  0
 22 21  1  0
 23 25  2  0
 23 24  1  0
M  END
$$$$
