NNN.pdb
     RDKit          3D

 25 24  0  0  1  0  0  0  0  0999 V2000
   25.1472  -21.3267   -8.4812 N   0  0  0  0  0  0  0  0  0  0  0  0
   24.4576  -20.9600   -9.6599 C   0  0  0  0  0  0  0  0  0  0  0  0
   23.2874  -21.4175   -9.8248 O   0  0  0  0  0  0  0  0  0  0  0  0
   25.0269  -20.0805  -10.6964 C   0  0  0  0  0  0  0  0  0  0  0  0
   25.0763  -20.8883  -11.9920 C   0  0  2  0  0  0  0  0  0  0  0  0
   26.1595  -21.8198  -11.8511 N   0  0  0  0  0  0  0  0  0  0  0  0
   25.3059  -19.9429  -13.1315 C   0  0  0  0  0  0  0  0  0  0  0  0
   25.0290  -18.7253  -13.0444 O   0  0  0  0  0  0  0  0  0  0  0  0
   28.2768  -20.1246  -18.4057 N   0  0  0  0  0  0  0  0  0  0  0  0
   27.9366  -19.2939  -17.2725 C   0  0  0  0  0  0  0  0  0  0  0  0
   28.1068  -18.0877  -17.4375 O   0  0  0  0  0  0  0  0  0  0  0  0
   27.4414  -19.9152  -16.0763 C   0  0  0  0  0  0  0  0  0  0  0  0
   26.1745  -19.4328  -15.4389 C   0  0  2  0  0  0  0  0  0  0  0  0
   25.8490  -20.4065  -14.3521 N   0  0  0  0  0  0  0  0  0  0  0  0
   25.0021  -19.3493  -16.3061 C   0  0  0  0  0  0  0  0  0  0  0  0
   24.3593  -20.4329  -16.6068 O   0  0  0  0  0  0  0  0  0  0  0  0
   20.9275  -17.9473  -19.2537 N   0  0  0  0  0  0  0  0  0  0  0  0
   21.1222  -17.0234  -18.1478 C   0  0  0  0  0  0  0  0  0  0  0  0
   20.2100  -16.1773  -18.0401 O   0  0  0  0  0  0  0  0  0  0  0  0
   22.3126  -17.1444  -17.2836 C   0  0  0  0  0  0  0  0  0  0  0  0
   23.2772  -18.1998  -17.6708 C   0  0  2  0  0  0  0  0  0  0  0  0
   24.4925  -18.1614  -16.8514 N   0  0  0  0  0  0  0  0  0  0  0  0
   23.7139  -18.1251  -19.0644 C   0  0  0  0  0  0  0  0  0  0  0  0
   23.2308  -18.9874  -20.0626 O   0  0  0  0  0  0  0  0  0  0  0  0
   24.5442  -17.2862  -19.4445 O   0  0  0  0  0  0  0  0  0  0  0  0
  1  2  1  0
  2  3  2  0
  4  2  1  0
  5  6  1  1
  5  4  1  0
  7  5  1  0
  8  7  2  0
  9 10  1  0
 10 12  1  0
 11 10  2  0
 13 12  1  6
 13 15  1  0
 13 14  1  0
 14  7  1  0
 15 16  2  0
 17 18  1  0
 18 19  2  0
 21 20  1  1
 20 18  1  0
 21 23  1  0
 22 15  1  0
 22 21  1  0
 23 25  2  0
 23 24  1  0
M  END
$$$$
