NNN.pdb
     RDKit          3D

 25 24  0  0  1  0  0  0  0  0999 V2000
   12.9020  -11.8261  -15.6676 N   0  0  0  0  0  0  0  0  0  0  0  0
   13.5308  -12.2765  -14.4838 C   0  0  0  0  0  0  0  0  0  0  0  0
   13.0000  -13.2482  -13.8673 O   0  0  0  0  0  0  0  0  0  0  0  0
   14.7611  -11.6776  -13.9366 C   0  0  0  0  0  0  0  0  0  0  0  0
   15.8074  -11.7076  -15.0492 C   0  0  2  0  0  0  0  0  0  0  0  0
   16.2248  -13.0748  -15.1803 N   0  0  0  0  0  0  0  0  0  0  0  0
   16.9463  -10.8182  -14.6529 C   0  0  0  0  0  0  0  0  0  0  0  0
   17.0544  -10.3627  -13.4921 O   0  0  0  0  0  0  0  0  0  0  0  0
   21.5272   -8.0511  -15.0361 N   0  0  0  0  0  0  0  0  0  0  0  0
   21.5529   -9.4088  -15.5317 C   0  0  0  0  0  0  0  0  0  0  0  0
   22.6698   -9.8489  -15.7959 O   0  0  0  0  0  0  0  0  0  0  0  0
   20.3149  -10.1221  -15.6753 C   0  0  0  0  0  0  0  0  0  0  0  0
   19.0299   -9.5155  -15.2011 C   0  0  2  0  0  0  0  0  0  0  0  0
   17.9431  -10.4650  -15.5918 N   0  0  0  0  0  0  0  0  0  0  0  0
   18.6823   -8.2115  -15.7597 C   0  0  0  0  0  0  0  0  0  0  0  0
   18.0977   -8.1533  -16.9141 O   0  0  0  0  0  0  0  0  0  0  0  0
   17.6827   -3.1462  -16.6188 N   0  0  0  0  0  0  0  0  0  0  0  0
   16.7324   -4.0008  -15.9252 C   0  0  0  0  0  0  0  0  0  0  0  0
   15.5979   -3.4917  -15.8096 O   0  0  0  0  0  0  0  0  0  0  0  0
   17.1516   -5.3290  -15.4368 C   0  0  0  0  0  0  0  0  0  0  0  0
   18.5303   -5.7347  -15.7955 C   0  0  2  0  0  0  0  0  0  0  0  0
   18.9270   -6.9807  -15.1323 N   0  0  0  0  0  0  0  0  0  0  0  0
   19.5498   -4.7422  -15.4579 C   0  0  0  0  0  0  0  0  0  0  0  0
   19.5901   -3.4625  -16.0362 O   0  0  0  0  0  0  0  0  0  0  0  0
   20.4445   -4.9797  -14.6328 O   0  0  0  0  0  0  0  0  0  0  0  0
  1  2  1  0
  2  3  2  0
  4  2  1  0
  5  6  1  1
  5  4  1  0
  7  5  1  0
  8  7  2  0
  9 10  1  0
 10 12  1  0
 11 10  2  0
 13 12  1  6
 13 15  1  0
 13 14  1  0
 14  7  1  0
 15 16  2  0
 17 18  1  0
 18 19  2  0
 21 20  1  1
 20 18  1  0
 21 23  1  0
 22 15  1  0
 22 21  1  0
 23 25  2  0
 23 24  1  0
M  END
$$$$
