NNN.pdb
     RDKit          3D

 25 24  0  0  1  0  0  0  0  0999 V2000
   14.5266  -12.4846  -11.3771 N   0  0  0  0  0  0  0  0  0  0  0  0
   13.4760  -11.5399  -11.4347 C   0  0  0  0  0  0  0  0  0  0  0  0
   12.3130  -11.9670  -11.7010 O   0  0  0  0  0  0  0  0  0  0  0  0
   13.6647  -10.0967  -11.2027 C   0  0  0  0  0  0  0  0  0  0  0  0
   15.1263   -9.8937  -10.8077 C   0  0  2  0  0  0  0  0  0  0  0  0
   15.2747  -10.4496   -9.4925 N   0  0  0  0  0  0  0  0  0  0  0  0
   15.4217   -8.4248  -10.8227 C   0  0  0  0  0  0  0  0  0  0  0  0
   15.2728   -7.7327  -11.8550 O   0  0  0  0  0  0  0  0  0  0  0  0
   13.4295   -5.6576   -8.9817 N   0  0  0  0  0  0  0  0  0  0  0  0
   14.4575   -5.4999   -7.9776 C   0  0  0  0  0  0  0  0  0  0  0  0
   14.0601   -5.1306   -6.8746 O   0  0  0  0  0  0  0  0  0  0  0  0
   15.8224   -5.7763   -8.3279 C   0  0  0  0  0  0  0  0  0  0  0  0
   16.1653   -6.3043   -9.6873 C   0  0  2  0  0  0  0  0  0  0  0  0
   15.8824   -7.7720   -9.6559 N   0  0  0  0  0  0  0  0  0  0  0  0
   17.5524   -6.1433  -10.1157 C   0  0  0  0  0  0  0  0  0  0  0  0
   18.5071   -6.4801   -9.3077 O   0  0  0  0  0  0  0  0  0  0  0  0
   21.9725   -5.8046  -12.8696 N   0  0  0  0  0  0  0  0  0  0  0  0
   21.1828   -7.0218  -12.7735 C   0  0  0  0  0  0  0  0  0  0  0  0
   21.7680   -8.0309  -13.2197 O   0  0  0  0  0  0  0  0  0  0  0  0
   19.8275   -6.9802  -12.1905 C   0  0  0  0  0  0  0  0  0  0  0  0
   19.3725   -5.6485  -11.7285 C   0  0  2  0  0  0  0  0  0  0  0  0
   17.9518   -5.6480  -11.3660 N   0  0  0  0  0  0  0  0  0  0  0  0
   19.5494   -4.5835  -12.7149 C   0  0  0  0  0  0  0  0  0  0  0  0
   18.4754   -3.8532  -13.2503 O   0  0  0  0  0  0  0  0  0  0  0  0
   20.6709   -4.2639  -13.1367 O   0  0  0  0  0  0  0  0  0  0  0  0
  1  2  1  0
  2  3  2  0
  4  2  1  0
  5  6  1  1
  5  4  1  0
  7  5  1  0
  8  7  2  0
  9 10  1  0
 10 12  1  0
 11 10  2  0
 13 12  1  1
 13 15  1  0
 13 14  1  0
 14  7  1  0
 15 16  2  0
 17 18  1  0
 18 19  2  0
 21 20  1  6
 20 18  1  0
 21 23  1  0
 22 15  1  0
 22 21  1  0
 23 25  2  0
 23 24  1  0
M  END
$$$$
