NNN.pdb
     RDKit          3D

 25 24  0  0  1  0  0  0  0  0999 V2000
   24.9392  -20.7767   -7.8845 N   0  0  0  0  0  0  0  0  0  0  0  0
   24.4450  -20.7062   -9.2074 C   0  0  0  0  0  0  0  0  0  0  0  0
   23.3834  -21.3445   -9.4750 O   0  0  0  0  0  0  0  0  0  0  0  0
   25.0971  -19.9346  -10.2805 C   0  0  0  0  0  0  0  0  0  0  0  0
   25.3834  -20.9083  -11.4222 C   0  0  2  0  0  0  0  0  0  0  0  0
   26.3696  -21.8305  -10.9345 N   0  0  0  0  0  0  0  0  0  0  0  0
   25.8908  -20.1267  -12.5956 C   0  0  0  0  0  0  0  0  0  0  0  0
   26.7434  -19.2197  -12.4650 O   0  0  0  0  0  0  0  0  0  0  0  0
   27.5528  -18.9031  -17.3887 N   0  0  0  0  0  0  0  0  0  0  0  0
   27.4112  -20.3095  -17.0853 C   0  0  0  0  0  0  0  0  0  0  0  0
   27.9647  -21.0735  -17.8733 O   0  0  0  0  0  0  0  0  0  0  0  0
   26.6603  -20.7003  -15.9254 C   0  0  0  0  0  0  0  0  0  0  0  0
   25.9941  -19.6675  -15.0689 C   0  0  2  0  0  0  0  0  0  0  0  0
   25.4142  -20.3964  -13.8994 N   0  0  0  0  0  0  0  0  0  0  0  0
   24.9066  -18.9139  -15.6875 C   0  0  0  0  0  0  0  0  0  0  0  0
   23.7796  -19.5075  -15.9230 O   0  0  0  0  0  0  0  0  0  0  0  0
   22.9712  -13.7205  -18.2176 N   0  0  0  0  0  0  0  0  0  0  0  0
   22.7422  -14.7188  -17.1853 C   0  0  0  0  0  0  0  0  0  0  0  0
   21.5366  -14.8662  -16.8946 O   0  0  0  0  0  0  0  0  0  0  0  0
   23.8826  -15.4428  -16.5906 C   0  0  0  0  0  0  0  0  0  0  0  0
   23.8229  -16.9195  -16.6909 C   0  0  2  0  0  0  0  0  0  0  0  0
   24.9765  -17.5611  -16.0527 N   0  0  0  0  0  0  0  0  0  0  0  0
   23.7756  -17.4216  -18.0635 C   0  0  0  0  0  0  0  0  0  0  0  0
   22.6612  -18.0941  -18.5921 O   0  0  0  0  0  0  0  0  0  0  0  0
   24.7284  -17.2789  -18.8443 O   0  0  0  0  0  0  0  0  0  0  0  0
  1  2  1  0
  2  3  2  0
  4  2  1  0
  5  6  1  1
  5  4  1  0
  7  5  1  0
  8  7  2  0
  9 10  1  0
 10 12  1  0
 11 10  2  0
 13 12  1  6
 13 15  1  0
 13 14  1  0
 14  7  1  0
 15 16  2  0
 17 18  1  0
 18 19  2  0
 21 20  1  6
 20 18  1  0
 21 23  1  0
 22 15  1  0
 22 21  1  0
 23 25  2  0
 23 24  1  0
M  END
$$$$
