NNN.pdb
     RDKit          3D

 25 24  0  0  1  0  0  0  0  0999 V2000
   13.2027  -11.1655  -15.5459 N   0  0  0  0  0  0  0  0  0  0  0  0
   13.6449  -10.9945  -14.2137 C   0  0  0  0  0  0  0  0  0  0  0  0
   13.6607  -12.0148  -13.4623 O   0  0  0  0  0  0  0  0  0  0  0  0
   14.0842   -9.7009  -13.6611 C   0  0  0  0  0  0  0  0  0  0  0  0
   15.6097   -9.7383  -13.5909 C   0  0  2  0  0  0  0  0  0  0  0  0
   15.9510  -10.8040  -12.6916 N   0  0  0  0  0  0  0  0  0  0  0  0
   16.0936   -8.4133  -13.0857 C   0  0  0  0  0  0  0  0  0  0  0  0
   15.8035   -7.3413  -13.6632 O   0  0  0  0  0  0  0  0  0  0  0  0
   18.7755   -4.9406   -9.9685 N   0  0  0  0  0  0  0  0  0  0  0  0
   17.8680   -5.8408   -9.2933 C   0  0  0  0  0  0  0  0  0  0  0  0
   17.7083   -5.6216   -8.0944 O   0  0  0  0  0  0  0  0  0  0  0  0
   17.2396   -6.8907  -10.0450 C   0  0  0  0  0  0  0  0  0  0  0  0
   17.4893   -7.0252  -11.5159 C   0  0  2  0  0  0  0  0  0  0  0  0
   16.9015   -8.3368  -11.9276 N   0  0  0  0  0  0  0  0  0  0  0  0
   18.8870   -7.0289  -11.9399 C   0  0  0  0  0  0  0  0  0  0  0  0
   19.6316   -8.0500  -11.6555 O   0  0  0  0  0  0  0  0  0  0  0  0
   22.7908   -8.7345  -15.1072 N   0  0  0  0  0  0  0  0  0  0  0  0
   22.2325   -7.4132  -14.8687 C   0  0  0  0  0  0  0  0  0  0  0  0
   22.9474   -6.4855  -15.3024 O   0  0  0  0  0  0  0  0  0  0  0  0
   20.9385   -7.2714  -14.1730 C   0  0  0  0  0  0  0  0  0  0  0  0
   20.8693   -6.1832  -13.1704 C   0  0  2  0  0  0  0  0  0  0  0  0
   19.5092   -5.9953  -12.6559 N   0  0  0  0  0  0  0  0  0  0  0  0
   21.3061   -4.8814  -13.6735 C   0  0  0  0  0  0  0  0  0  0  0  0
   22.6235   -4.4132  -13.5359 O   0  0  0  0  0  0  0  0  0  0  0  0
   20.5276   -4.1116  -14.2557 O   0  0  0  0  0  0  0  0  0  0  0  0
  1  2  1  0
  2  3  2  0
  4  2  1  0
  5  6  1  1
  5  4  1  0
  7  5  1  0
  8  7  2  0
  9 10  1  0
 10 12  1  0
 11 10  2  0
 13 12  1  1
 13 15  1  0
 13 14  1  0
 14  7  1  0
 15 16  2  0
 17 18  1  0
 18 19  2  0
 21 20  1  6
 20 18  1  0
 21 23  1  0
 22 15  1  0
 22 21  1  0
 23 25  2  0
 23 24  1  0
M  END
$$$$
