NNN.pdb
     RDKit          3D

 25 24  0  0  1  0  0  0  0  0999 V2000
   16.5569  -15.2970  -15.5287 N   0  0  0  0  0  0  0  0  0  0  0  0
   17.2935  -14.4115  -16.3489 C   0  0  0  0  0  0  0  0  0  0  0  0
   17.5034  -14.7571  -17.5499 O   0  0  0  0  0  0  0  0  0  0  0  0
   17.8242  -13.1187  -15.8808 C   0  0  0  0  0  0  0  0  0  0  0  0
   19.3139  -13.0973  -16.2178 C   0  0  2  0  0  0  0  0  0  0  0  0
   19.9145  -14.1736  -15.4819 N   0  0  0  0  0  0  0  0  0  0  0  0
   19.8734  -11.7689  -15.8085 C   0  0  0  0  0  0  0  0  0  0  0  0
   19.5725  -11.2345  -14.7173 O   0  0  0  0  0  0  0  0  0  0  0  0
   23.0880   -7.4568  -15.9410 N   0  0  0  0  0  0  0  0  0  0  0  0
   23.6125   -8.6127  -16.6328 C   0  0  0  0  0  0  0  0  0  0  0  0
   24.7738   -8.5080  -17.0217 O   0  0  0  0  0  0  0  0  0  0  0  0
   22.7689   -9.7612  -16.8103 C   0  0  0  0  0  0  0  0  0  0  0  0
   21.4105   -9.8099  -16.1805 C   0  0  2  0  0  0  0  0  0  0  0  0
   20.7683  -11.0740  -16.6546 N   0  0  0  0  0  0  0  0  0  0  0  0
   20.5014   -8.7158  -16.5117 C   0  0  0  0  0  0  0  0  0  0  0  0
   19.9159   -8.7077  -17.6672 O   0  0  0  0  0  0  0  0  0  0  0  0
   17.2950   -4.5615  -16.3567 N   0  0  0  0  0  0  0  0  0  0  0  0
   16.8713   -5.8579  -15.8523 C   0  0  0  0  0  0  0  0  0  0  0  0
   15.6565   -5.9075  -15.5667 O   0  0  0  0  0  0  0  0  0  0  0  0
   17.8485   -6.9563  -15.7218 C   0  0  0  0  0  0  0  0  0  0  0  0
   19.2414   -6.6186  -16.0958 C   0  0  2  0  0  0  0  0  0  0  0  0
   20.1924   -7.6455  -15.6590 N   0  0  0  0  0  0  0  0  0  0  0  0
   19.7160   -5.3511  -15.5420 C   0  0  0  0  0  0  0  0  0  0  0  0
   20.4635   -5.2690  -14.3555 O   0  0  0  0  0  0  0  0  0  0  0  0
   19.4813   -4.2673  -16.0971 O   0  0  0  0  0  0  0  0  0  0  0  0
  1  2  1  0
  2  3  2  0
  4  2  1  0
  5  6  1  1
  5  4  1  0
  7  5  1  0
  8  7  2  0
  9 10  1  0
 10 12  1  0
 11 10  2  0
 13 12  1  6
 13 15  1  0
 13 14  1  0
 14  7  1  0
 15 16  2  0
 17 18  1  0
 18 19  2  0
 21 20  1  1
 20 18  1  0
 21 23  1  0
 22 15  1  0
 22 21  1  0
 23 25  2  0
 23 24  1  0
M  END
$$$$
