NNN.pdb
     RDKit          3D

 25 24  0  0  1  0  0  0  0  0999 V2000
   27.5539  -21.7657  -16.9982 N   0  0  0  0  0  0  0  0  0  0  0  0
   27.2967  -22.8846  -16.1728 C   0  0  0  0  0  0  0  0  0  0  0  0
   28.1241  -23.8439  -16.2053 O   0  0  0  0  0  0  0  0  0  0  0  0
   26.1251  -22.9896  -15.2849 C   0  0  0  0  0  0  0  0  0  0  0  0
   25.3006  -21.7183  -15.4786 C   0  0  2  0  0  0  0  0  0  0  0  0
   26.1301  -20.6255  -15.0562 N   0  0  0  0  0  0  0  0  0  0  0  0
   24.0611  -21.8255  -14.6435 C   0  0  0  0  0  0  0  0  0  0  0  0
   23.4148  -22.8938  -14.5564 O   0  0  0  0  0  0  0  0  0  0  0  0
   20.3323  -20.7418  -11.0211 N   0  0  0  0  0  0  0  0  0  0  0  0
   21.4753  -19.8619  -10.9240 C   0  0  0  0  0  0  0  0  0  0  0  0
   21.4984  -19.1414   -9.9284 O   0  0  0  0  0  0  0  0  0  0  0  0
   22.4677  -19.8912  -11.9615 C   0  0  0  0  0  0  0  0  0  0  0  0
   22.3206  -20.8212  -13.1267 C   0  0  2  0  0  0  0  0  0  0  0  0
   23.5818  -20.7080  -13.9215 N   0  0  0  0  0  0  0  0  0  0  0  0
   21.2124  -20.5497  -14.0385 C   0  0  0  0  0  0  0  0  0  0  0  0
   21.3653  -19.6678  -14.9749 O   0  0  0  0  0  0  0  0  0  0  0  0
   17.2198  -22.6731  -17.7877 N   0  0  0  0  0  0  0  0  0  0  0  0
   17.9412  -21.5705  -17.1726 C   0  0  0  0  0  0  0  0  0  0  0  0
   17.6305  -20.4530  -17.6356 O   0  0  0  0  0  0  0  0  0  0  0  0
   18.9297  -21.8351  -16.1090 C   0  0  0  0  0  0  0  0  0  0  0  0
   18.9431  -20.8603  -14.9938 C   0  0  2  0  0  0  0  0  0  0  0  0
   19.9627  -21.1854  -13.9915 N   0  0  0  0  0  0  0  0  0  0  0  0
   17.6730  -20.7593  -14.2760 C   0  0  0  0  0  0  0  0  0  0  0  0
   17.5296  -21.1164  -12.9249 O   0  0  0  0  0  0  0  0  0  0  0  0
   16.6418  -20.3478  -14.8282 O   0  0  0  0  0  0  0  0  0  0  0  0
  1  2  1  0
  2  3  2  0
  4  2  1  0
  5  6  1  1
  5  4  1  0
  7  5  1  0
  8  7  2  0
  9 10  1  0
 10 12  1  0
 11 10  2  0
 13 12  1  1
 13 15  1  0
 13 14  1  0
 14  7  1  0
 15 16  2  0
 17 18  1  0
 18 19  2  0
 21 20  1  6
 20 18  1  0
 21 23  1  0
 22 15  1  0
 22 21  1  0
 23 25  2  0
 23 24  1  0
M  END
$$$$
