NNN.pdb
     RDKit          3D

 25 24  0  0  1  0  0  0  0  0999 V2000
   28.6473  -20.7233  -17.8182 N   0  0  0  0  0  0  0  0  0  0  0  0
   28.3627  -19.8874  -16.7138 C   0  0  0  0  0  0  0  0  0  0  0  0
   28.7468  -18.6812  -16.7729 O   0  0  0  0  0  0  0  0  0  0  0  0
   27.6483  -20.3451  -15.5087 C   0  0  0  0  0  0  0  0  0  0  0  0
   26.1731  -19.9997  -15.7040 C   0  0  2  0  0  0  0  0  0  0  0  0
   26.0512  -18.5872  -15.4783 N   0  0  0  0  0  0  0  0  0  0  0  0
   25.3671  -20.7881  -14.7172 C   0  0  0  0  0  0  0  0  0  0  0  0
   25.2695  -22.0338  -14.7906 O   0  0  0  0  0  0  0  0  0  0  0  0
   26.0678  -21.9572  -11.1384 N   0  0  0  0  0  0  0  0  0  0  0  0
   25.2671  -20.8863  -10.5889 C   0  0  0  0  0  0  0  0  0  0  0  0
   25.6288  -20.4731   -9.4892 O   0  0  0  0  0  0  0  0  0  0  0  0
   24.1451  -20.3983  -11.3406 C   0  0  0  0  0  0  0  0  0  0  0  0
   23.8562  -20.9361  -12.7086 C   0  0  2  0  0  0  0  0  0  0  0  0
   24.6861  -20.1377  -13.6621 N   0  0  0  0  0  0  0  0  0  0  0  0
   22.4713  -20.8442  -13.1635 C   0  0  0  0  0  0  0  0  0  0  0  0
   22.0755  -19.7718  -13.7728 O   0  0  0  0  0  0  0  0  0  0  0  0
   20.6514  -21.2057  -17.1871 N   0  0  0  0  0  0  0  0  0  0  0  0
   19.7742  -21.3172  -16.0327 C   0  0  0  0  0  0  0  0  0  0  0  0
   18.7871  -20.5537  -16.0826 O   0  0  0  0  0  0  0  0  0  0  0  0
   20.0938  -22.2677  -14.9498 C   0  0  0  0  0  0  0  0  0  0  0  0
   20.1751  -21.6830  -13.5912 C   0  0  2  0  0  0  0  0  0  0  0  0
   21.5064  -21.8493  -12.9997 N   0  0  0  0  0  0  0  0  0  0  0  0
   19.2237  -22.2544  -12.6391 C   0  0  0  0  0  0  0  0  0  0  0  0
   17.9869  -21.6568  -12.3444 O   0  0  0  0  0  0  0  0  0  0  0  0
   19.4603  -23.3102  -12.0334 O   0  0  0  0  0  0  0  0  0  0  0  0
  1  2  1  0
  2  3  2  0
  4  2  1  0
  5  6  1  1
  5  4  1  0
  7  5  1  0
  8  7  2  0
  9 10  1  0
 10 12  1  0
 11 10  2  0
 13 12  1  1
 13 15  1  0
 13 14  1  0
 14  7  1  0
 15 16  2  0
 17 18  1  0
 18 19  2  0
 21 20  1  6
 20 18  1  0
 21 23  1  0
 22 15  1  0
 22 21  1  0
 23 25  2  0
 23 24  1  0
M  END
$$$$
