NNN.pdb
     RDKit          3D

 25 24  0  0  1  0  0  0  0  0999 V2000
   14.4316  -11.4122  -17.1875 N   0  0  0  0  0  0  0  0  0  0  0  0
   15.4828  -10.6364  -16.6465 C   0  0  0  0  0  0  0  0  0  0  0  0
   15.9306   -9.6800  -17.3470 O   0  0  0  0  0  0  0  0  0  0  0  0
   16.0778  -10.8826  -15.3208 C   0  0  0  0  0  0  0  0  0  0  0  0
   17.5752  -10.6066  -15.4434 C   0  0  2  0  0  0  0  0  0  0  0  0
   18.2071  -11.8756  -15.6693 N   0  0  0  0  0  0  0  0  0  0  0  0
   18.0464   -9.9742  -14.1694 C   0  0  0  0  0  0  0  0  0  0  0  0
   18.0889  -10.6116  -13.0931 O   0  0  0  0  0  0  0  0  0  0  0  0
   21.1626   -6.7870  -11.0576 N   0  0  0  0  0  0  0  0  0  0  0  0
   20.8253   -6.3062  -12.3785 C   0  0  0  0  0  0  0  0  0  0  0  0
   21.1080   -5.1299  -12.5957 O   0  0  0  0  0  0  0  0  0  0  0  0
   20.2054   -7.2057  -13.3106 C   0  0  0  0  0  0  0  0  0  0  0  0
   19.0318   -8.0390  -12.8955 C   0  0  2  0  0  0  0  0  0  0  0  0
   18.4616   -8.6225  -14.1483 N   0  0  0  0  0  0  0  0  0  0  0  0
   17.9458   -7.3382  -12.2151 C   0  0  0  0  0  0  0  0  0  0  0  0
   17.1421   -6.5940  -12.9066 O   0  0  0  0  0  0  0  0  0  0  0  0
   14.1701   -5.5906   -9.0975 N   0  0  0  0  0  0  0  0  0  0  0  0
   14.9049   -6.6255   -8.3879 C   0  0  0  0  0  0  0  0  0  0  0  0
   14.4921   -6.8205   -7.2255 O   0  0  0  0  0  0  0  0  0  0  0  0
   16.0193   -7.3292   -9.0523 C   0  0  0  0  0  0  0  0  0  0  0  0
   16.5456   -6.6794  -10.2749 C   0  0  2  0  0  0  0  0  0  0  0  0
   17.6856   -7.4092  -10.8384 N   0  0  0  0  0  0  0  0  0  0  0  0
   16.9940   -5.3024  -10.0714 C   0  0  0  0  0  0  0  0  0  0  0  0
   16.1094   -4.2127  -10.0123 O   0  0  0  0  0  0  0  0  0  0  0  0
   18.1939   -5.0194   -9.9383 O   0  0  0  0  0  0  0  0  0  0  0  0
  1  2  1  0
  2  3  2  0
  4  2  1  0
  5  6  1  1
  5  4  1  0
  7  5  1  0
  8  7  2  0
  9 10  1  0
 10 12  1  0
 11 10  2  0
 13 12  1  6
 13 15  1  0
 13 14  1  0
 14  7  1  0
 15 16  2  0
 17 18  1  0
 18 19  2  0
 21 20  1  1
 20 18  1  0
 21 23  1  0
 22 15  1  0
 22 21  1  0
 23 25  2  0
 23 24  1  0
M  END
$$$$
