NNN.pdb
     RDKit          3D

 25 24  0  0  1  0  0  0  0  0999 V2000
   29.7172  -21.0061  -11.5605 N   0  0  0  0  0  0  0  0  0  0  0  0
   28.4319  -20.9965  -10.9713 C   0  0  0  0  0  0  0  0  0  0  0  0
   28.2341  -21.7551   -9.9755 O   0  0  0  0  0  0  0  0  0  0  0  0
   27.3212  -20.1560  -11.4530 C   0  0  0  0  0  0  0  0  0  0  0  0
   26.2539  -21.0980  -12.0071 C   0  0  2  0  0  0  0  0  0  0  0  0
   26.8855  -21.8671  -13.0417 N   0  0  0  0  0  0  0  0  0  0  0  0
   25.1252  -20.2719  -12.5441 C   0  0  0  0  0  0  0  0  0  0  0  0
   24.5331  -19.4252  -11.8375 O   0  0  0  0  0  0  0  0  0  0  0  0
   26.4594  -18.5839  -16.4353 N   0  0  0  0  0  0  0  0  0  0  0  0
   25.2009  -18.1387  -15.8803 C   0  0  0  0  0  0  0  0  0  0  0  0
   25.1684  -16.9592  -15.5359 O   0  0  0  0  0  0  0  0  0  0  0  0
   24.1161  -19.0736  -15.7743 C   0  0  0  0  0  0  0  0  0  0  0  0
   23.6334  -19.5272  -14.4306 C   0  0  2  0  0  0  0  0  0  0  0  0
   24.6927  -20.4281  -13.8814 N   0  0  0  0  0  0  0  0  0  0  0  0
   22.3795  -20.2760  -14.4097 C   0  0  0  0  0  0  0  0  0  0  0  0
   21.3283  -19.7650  -14.9679 O   0  0  0  0  0  0  0  0  0  0  0  0
   18.2530  -23.1636  -13.3400 N   0  0  0  0  0  0  0  0  0  0  0  0
   18.8162  -22.2898  -12.3232 C   0  0  0  0  0  0  0  0  0  0  0  0
   18.0541  -22.1011  -11.3519 O   0  0  0  0  0  0  0  0  0  0  0  0
   20.1671  -21.7226  -12.5010 C   0  0  0  0  0  0  0  0  0  0  0  0
   20.8720  -22.1296  -13.7386 C   0  0  2  0  0  0  0  0  0  0  0  0
   22.2121  -21.5411  -13.8271 N   0  0  0  0  0  0  0  0  0  0  0  0
   20.1747  -21.7606  -14.9698 C   0  0  0  0  0  0  0  0  0  0  0  0
   19.5742  -22.7050  -15.8190 O   0  0  0  0  0  0  0  0  0  0  0  0
   20.0747  -20.5797  -15.3348 O   0  0  0  0  0  0  0  0  0  0  0  0
  1  2  1  0
  2  3  2  0
  4  2  1  0
  5  6  1  6
  5  4  1  0
  7  5  1  0
  8  7  2  0
  9 10  1  0
 10 12  1  0
 11 10  2  0
 13 12  1  6
 13 15  1  0
 13 14  1  0
 14  7  1  0
 15 16  2  0
 17 18  1  0
 18 19  2  0
 21 20  1  1
 20 18  1  0
 21 23  1  0
 22 15  1  0
 22 21  1  0
 23 25  2  0
 23 24  1  0
M  END
$$$$
