NNN.pdb
     RDKit          3D

 25 24  0  0  1  0  0  0  0  0999 V2000
   14.5415  -12.1672  -13.5323 N   0  0  0  0  0  0  0  0  0  0  0  0
   14.3397  -11.2080  -12.5131 C   0  0  0  0  0  0  0  0  0  0  0  0
   13.5663  -11.5165  -11.5579 O   0  0  0  0  0  0  0  0  0  0  0  0
   14.9783   -9.8797  -12.5068 C   0  0  0  0  0  0  0  0  0  0  0  0
   16.0685   -9.9117  -11.4372 C   0  0  2  0  0  0  0  0  0  0  0  0
   15.4051   -9.7576  -10.1735 N   0  0  0  0  0  0  0  0  0  0  0  0
   17.0235   -8.7875  -11.7001 C   0  0  0  0  0  0  0  0  0  0  0  0
   16.7384   -7.6010  -11.4211 O   0  0  0  0  0  0  0  0  0  0  0  0
   21.4390   -6.1617  -13.1814 N   0  0  0  0  0  0  0  0  0  0  0  0
   21.6962   -7.4977  -12.6925 C   0  0  0  0  0  0  0  0  0  0  0  0
   22.8836   -7.7924  -12.5738 O   0  0  0  0  0  0  0  0  0  0  0  0
   20.5848   -8.3556  -12.3909 C   0  0  0  0  0  0  0  0  0  0  0  0
   19.1813   -7.8967  -12.6431 C   0  0  2  0  0  0  0  0  0  0  0  0
   18.2893   -9.0397  -12.2778 N   0  0  0  0  0  0  0  0  0  0  0  0
   18.8576   -7.5214  -14.0170 C   0  0  0  0  0  0  0  0  0  0  0  0
   18.1285   -8.3158  -14.7348 O   0  0  0  0  0  0  0  0  0  0  0  0
   16.9123   -4.6430  -17.8167 N   0  0  0  0  0  0  0  0  0  0  0  0
   16.2661   -5.1587  -16.6205 C   0  0  0  0  0  0  0  0  0  0  0  0
   15.0226   -5.0446  -16.6385 O   0  0  0  0  0  0  0  0  0  0  0  0
   17.0773   -5.7450  -15.5358 C   0  0  0  0  0  0  0  0  0  0  0  0
   18.5326   -5.8259  -15.7999 C   0  0  2  0  0  0  0  0  0  0  0  0
   19.2739   -6.3367  -14.6427 N   0  0  0  0  0  0  0  0  0  0  0  0
   19.1456   -4.5463  -16.1535 C   0  0  0  0  0  0  0  0  0  0  0  0
   19.8825   -4.3535  -17.3340 O   0  0  0  0  0  0  0  0  0  0  0  0
   19.0466   -3.5503  -15.4215 O   0  0  0  0  0  0  0  0  0  0  0  0
  1  2  1  0
  2  3  2  0
  4  2  1  0
  5  6  1  1
  5  4  1  0
  7  5  1  0
  8  7  2  0
  9 10  1  0
 10 12  1  0
 11 10  2  0
 13 12  1  6
 13 15  1  0
 13 14  1  0
 14  7  1  0
 15 16  2  0
 17 18  1  0
 18 19  2  0
 21 20  1  1
 20 18  1  0
 21 23  1  0
 22 15  1  0
 22 21  1  0
 23 25  2  0
 23 24  1  0
M  END
$$$$
