NNN.pdb
     RDKit          3D

 25 24  0  0  1  0  0  0  0  0999 V2000
   17.6876  -14.0850  -17.0090 N   0  0  0  0  0  0  0  0  0  0  0  0
   18.1976  -12.9034  -16.4231 C   0  0  0  0  0  0  0  0  0  0  0  0
   19.0599  -13.0265  -15.5026 O   0  0  0  0  0  0  0  0  0  0  0  0
   17.7800  -11.5487  -16.8259 C   0  0  0  0  0  0  0  0  0  0  0  0
   18.1052  -10.6147  -15.6617 C   0  0  2  0  0  0  0  0  0  0  0  0
   17.3018  -11.0483  -14.5539 N   0  0  0  0  0  0  0  0  0  0  0  0
   17.7706   -9.2127  -16.0711 C   0  0  0  0  0  0  0  0  0  0  0  0
   18.1995   -8.7168  -17.1374 O   0  0  0  0  0  0  0  0  0  0  0  0
   13.1445   -7.8432  -14.5291 N   0  0  0  0  0  0  0  0  0  0  0  0
   14.1453   -7.5275  -15.5235 C   0  0  0  0  0  0  0  0  0  0  0  0
   13.9474   -8.0091  -16.6370 O   0  0  0  0  0  0  0  0  0  0  0  0
   15.2607   -6.7027  -15.1526 C   0  0  0  0  0  0  0  0  0  0  0  0
   16.6329   -7.0022  -15.6740 C   0  0  2  0  0  0  0  0  0  0  0  0
   16.9503   -8.4013  -15.2535 N   0  0  0  0  0  0  0  0  0  0  0  0
   17.7138   -6.1508  -15.1842 C   0  0  0  0  0  0  0  0  0  0  0  0
   17.4331   -5.1645  -14.3928 O   0  0  0  0  0  0  0  0  0  0  0  0
   22.4288   -3.9455  -14.3058 N   0  0  0  0  0  0  0  0  0  0  0  0
   21.9716   -5.0297  -13.4514 C   0  0  0  0  0  0  0  0  0  0  0  0
   22.6747   -5.1896  -12.4317 O   0  0  0  0  0  0  0  0  0  0  0  0
   20.7809   -5.8163  -13.8279 C   0  0  0  0  0  0  0  0  0  0  0  0
   20.0536   -5.3387  -15.0266 C   0  0  2  0  0  0  0  0  0  0  0  0
   19.0705   -6.3180  -15.4999 N   0  0  0  0  0  0  0  0  0  0  0  0
   20.9185   -5.0349  -16.1660 C   0  0  0  0  0  0  0  0  0  0  0  0
   20.7859   -5.6659  -17.4141 O   0  0  0  0  0  0  0  0  0  0  0  0
   21.8264   -4.1937  -16.0907 O   0  0  0  0  0  0  0  0  0  0  0  0
  1  2  1  0
  2  3  2  0
  4  2  1  0
  5  6  1  1
  5  4  1  0
  7  5  1  0
  8  7  2  0
  9 10  1  0
 10 12  1  0
 11 10  2  0
 13 12  1  1
 13 15  1  0
 13 14  1  0
 14  7  1  0
 15 16  2  0
 17 18  1  0
 18 19  2  0
 21 20  1  1
 20 18  1  0
 21 23  1  0
 22 15  1  0
 22 21  1  0
 23 25  2  0
 23 24  1  0
M  END
$$$$
