RAR.pdb
     RDKit          3D

 28 27  0  0  1  0  0  0  0  0999 V2000
   24.1503  -15.7726  -17.0759 N   0  0  0  0  0  0  0  0  0  0  0  0
   23.6073  -16.9808  -17.5693 C   0  0  0  0  0  0  0  0  0  0  0  0
   22.3210  -17.1697  -17.6045 N   0  0  0  0  0  0  0  0  0  0  0  0
   24.4937  -17.9887  -18.0279 N   0  0  0  0  0  0  0  0  0  0  0  0
   25.9112  -17.8522  -17.7776 C   0  0  0  0  0  0  0  0  0  0  0  0
   26.1362  -18.0472  -16.2685 C   0  0  0  0  0  0  0  0  0  0  0  0
   27.6224  -17.9295  -16.0310 C   0  0  0  0  0  0  0  0  0  0  0  0
   28.3619  -19.2183  -16.0281 C   0  0  2  0  0  0  0  0  0  0  0  0
   27.8797  -20.0461  -17.1429 N   0  0  0  0  0  0  0  0  0  0  0  0
   28.2325  -20.0439  -14.8270 C   0  0  0  0  0  0  0  0  0  0  0  0
   27.3359  -20.9418  -14.8315 O   0  0  0  0  0  0  0  0  0  0  0  0
   21.9339  -18.0723  -17.9275 C   0  0  0  0  0  0  0  0  0  0  0  0
   29.7784  -20.4461  -11.3923 C   0  0  1  0  0  0  0  0  0  0  0  0
   28.7077  -20.6482  -12.4728 N   0  0  0  0  0  0  0  0  0  0  0  0
   29.0184  -19.9271  -13.6659 C   0  0  0  0  0  0  0  0  0  0  0  0
   27.4242  -20.2158  -11.8545 O   0  0  0  0  0  0  0  0  0  0  0  0
   26.9601  -19.0916  -12.1770 N   0  0  0  0  0  0  0  0  0  0  0  0
   18.3259  -20.3836  -12.7633 C   0  0  0  0  0  0  0  0  0  0  0  0
   19.6030  -20.9254  -13.0972 N   0  0  0  0  0  0  0  0  0  0  0  0
   19.8085  -21.4584  -14.2648 N   0  0  0  0  0  0  0  0  0  0  0  0
   20.6845  -20.9066  -12.1864 C   0  0  0  0  0  0  0  0  0  0  0  0
   22.0661  -21.0726  -12.7021 C   0  0  0  0  0  0  0  0  0  0  0  0
   22.9591  -20.8577  -11.5514 C   0  0  0  0  0  0  0  0  0  0  0  0
   24.4076  -20.9297  -11.6280 C   0  0  1  0  0  0  0  0  0  0  0  0
   25.3132  -20.6365  -10.5006 N   0  0  0  0  0  0  0  0  0  0  0  0
   26.7087  -20.9991  -10.9317 C   0  0  0  0  0  0  0  0  0  0  0  0
   25.0635  -21.5368   -9.3493 O   0  0  0  0  0  0  0  0  0  0  0  0
   25.4790  -22.6854   -9.1790 O   0  0  0  0  0  0  0  0  0  0  0  0
  2  1  1  0
  3  2  2  0
  4  2  1  0
  5  4  1  0
  6  5  1  0
  7  6  1  0
  8  9  1  6
  8  7  1  0
 10  8  1  0
 11 10  2  0
 13 12  1  6
 13 15  1  0
 13 14  1  0
 14 10  1  0
 15 16  2  0
 18 17  1  0
 18 19  2  0
 20 18  1  0
 21 22  1  0
 21 20  1  0
 23 22  1  0
 24 23  1  6
 25 24  1  0
 25 15  1  0
 26 28  1  0
 26 24  1  0
 27 26  2  0
M  END
$$$$
