RAR.pdb
     RDKit          3D

 28 27  0  0  1  0  0  0  0  0999 V2000
   28.7225  -18.2877  -19.1530 N   0  0  0  0  0  0  0  0  0  0  0  0
   29.6778  -17.4595  -18.5210 C   0  0  0  0  0  0  0  0  0  0  0  0
   30.5642  -16.8107  -19.2173 N   0  0  0  0  0  0  0  0  0  0  0  0
   29.6530  -17.3473  -17.1073 N   0  0  0  0  0  0  0  0  0  0  0  0
   28.6411  -18.0585  -16.3584 C   0  0  0  0  0  0  0  0  0  0  0  0
   28.9493  -19.5611  -16.4740 C   0  0  0  0  0  0  0  0  0  0  0  0
   27.8347  -20.2902  -15.7637 C   0  0  0  0  0  0  0  0  0  0  0  0
   27.2666  -19.5781  -14.5898 C   0  0  2  0  0  0  0  0  0  0  0  0
   28.3697  -19.0704  -13.7615 N   0  0  0  0  0  0  0  0  0  0  0  0
   26.4189  -20.3658  -13.6942 C   0  0  0  0  0  0  0  0  0  0  0  0
   25.7607  -21.3218  -14.2069 O   0  0  0  0  0  0  0  0  0  0  0  0
   31.2793  -16.2326  -18.7447 C   0  0  0  0  0  0  0  0  0  0  0  0
   25.4492  -20.5781  -10.0397 C   0  0  1  0  0  0  0  0  0  0  0  0
   25.3112  -20.8758  -11.5387 N   0  0  0  0  0  0  0  0  0  0  0  0
   26.2711  -20.1534  -12.3113 C   0  0  0  0  0  0  0  0  0  0  0  0
   23.9070  -20.5288  -11.8912 O   0  0  0  0  0  0  0  0  0  0  0  0
   23.6503  -19.3354  -12.1967 N   0  0  0  0  0  0  0  0  0  0  0  0
   17.4534  -24.9818  -16.2477 C   0  0  0  0  0  0  0  0  0  0  0  0
   16.9274  -23.7529  -15.7485 N   0  0  0  0  0  0  0  0  0  0  0  0
   15.7056  -23.4004  -16.0183 N   0  0  0  0  0  0  0  0  0  0  0  0
   17.7003  -22.8779  -14.9508 C   0  0  0  0  0  0  0  0  0  0  0  0
   19.0770  -23.2770  -14.5665 C   0  0  0  0  0  0  0  0  0  0  0  0
   19.5847  -22.2033  -13.6963 C   0  0  0  0  0  0  0  0  0  0  0  0
   20.9196  -22.1896  -13.1246 C   0  0  1  0  0  0  0  0  0  0  0  0
   21.4613  -21.0854  -12.3094 N   0  0  0  0  0  0  0  0  0  0  0  0
   22.8584  -21.4654  -11.8993 C   0  0  0  0  0  0  0  0  0  0  0  0
   20.7459  -20.9568  -11.0171 O   0  0  0  0  0  0  0  0  0  0  0  0
   20.9547  -21.5717   -9.9688 O   0  0  0  0  0  0  0  0  0  0  0  0
  2  1  1  0
  3  2  2  0
  4  2  1  0
  5  4  1  0
  6  5  1  0
  7  6  1  0
  8  9  1  1
  8  7  1  0
 10  8  1  0
 11 10  2  0
 13 12  1  1
 13 15  1  0
 13 14  1  0
 14 10  1  0
 15 16  2  0
 18 17  1  0
 18 19  2  0
 20 18  1  0
 21 22  1  0
 21 20  1  0
 23 22  1  0
 24 23  1  6
 25 24  1  0
 25 15  1  0
 26 28  1  0
 26 24  1  0
 27 26  2  0
M  END
$$$$
