RAR.pdb
     RDKit          3D

 28 27  0  0  1  0  0  0  0  0999 V2000
   19.1840  -24.0560   -6.0324 N   0  0  0  0  0  0  0  0  0  0  0  0
   18.2045  -24.6502   -6.8604 C   0  0  0  0  0  0  0  0  0  0  0  0
   17.7289  -25.8303   -6.5912 N   0  0  0  0  0  0  0  0  0  0  0  0
   17.7467  -23.9337   -7.9957 N   0  0  0  0  0  0  0  0  0  0  0  0
   18.7115  -23.3606   -8.9075 C   0  0  0  0  0  0  0  0  0  0  0  0
   20.0838  -23.3976   -8.2136 C   0  0  0  0  0  0  0  0  0  0  0  0
   21.0804  -22.8181   -9.1881 C   0  0  0  0  0  0  0  0  0  0  0  0
   21.1825  -21.3358   -9.1749 C   0  0  2  0  0  0  0  0  0  0  0  0
   20.0650  -20.7748   -9.9476 N   0  0  0  0  0  0  0  0  0  0  0  0
   22.3990  -20.7588   -9.7478 C   0  0  0  0  0  0  0  0  0  0  0  0
   22.3758  -20.4569  -10.9800 O   0  0  0  0  0  0  0  0  0  0  0  0
   17.0389  -26.2722   -7.2216 C   0  0  0  0  0  0  0  0  0  0  0  0
   25.9029  -19.7458   -8.7299 C   0  0  1  0  0  0  0  0  0  0  0  0
   24.7886  -20.1088   -9.7205 N   0  0  0  0  0  0  0  0  0  0  0  0
   23.5940  -20.5098   -9.0481 C   0  0  0  0  0  0  0  0  0  0  0  0
   25.3519  -21.1814  -10.5858 O   0  0  0  0  0  0  0  0  0  0  0  0
   24.9657  -22.3632  -10.3921 N   0  0  0  0  0  0  0  0  0  0  0  0
   24.2376  -25.5946  -14.8322 C   0  0  0  0  0  0  0  0  0  0  0  0
   23.2447  -24.9930  -15.6618 N   0  0  0  0  0  0  0  0  0  0  0  0
   22.2389  -25.6910  -16.0987 N   0  0  0  0  0  0  0  0  0  0  0  0
   23.3104  -23.6319  -16.0394 C   0  0  0  0  0  0  0  0  0  0  0  0
   24.4506  -22.8062  -15.5700 C   0  0  0  0  0  0  0  0  0  0  0  0
   24.0610  -22.2872  -14.2484 C   0  0  0  0  0  0  0  0  0  0  0  0
   24.8502  -21.3326  -13.4902 C   0  0  2  0  0  0  0  0  0  0  0  0
   26.1930  -21.6131  -12.9464 N   0  0  0  0  0  0  0  0  0  0  0  0
   26.2904  -20.9391  -11.6045 C   0  0  0  0  0  0  0  0  0  0  0  0
   27.2551  -20.9517  -13.7420 O   0  0  0  0  0  0  0  0  0  0  0  0
   28.0863  -21.4779  -14.4855 O   0  0  0  0  0  0  0  0  0  0  0  0
  2  1  1  0
  3  2  2  0
  4  2  1  0
  5  4  1  0
  6  5  1  0
  7  6  1  0
  8  9  1  6
  8  7  1  0
 10  8  1  0
 11 10  2  0
 13 12  1  1
 13 15  1  0
 13 14  1  0
 14 10  1  0
 15 16  2  0
 18 17  1  0
 18 19  2  0
 20 18  1  0
 21 22  1  0
 21 20  1  0
 23 22  1  0
 24 23  1  1
 25 24  1  0
 25 15  1  0
 26 28  1  0
 26 24  1  0
 27 26  2  0
M  END
$$$$
