RAR.pdb
     RDKit          3D

 28 27  0  0  1  0  0  0  0  0999 V2000
   18.5267  -25.2626   -4.8671 N   0  0  0  0  0  0  0  0  0  0  0  0
   17.6177  -26.3425   -4.9435 C   0  0  0  0  0  0  0  0  0  0  0  0
   17.0327  -26.7998   -3.8757 N   0  0  0  0  0  0  0  0  0  0  0  0
   17.3530  -26.9216   -6.2109 N   0  0  0  0  0  0  0  0  0  0  0  0
   17.8737  -26.2876   -7.4015 C   0  0  0  0  0  0  0  0  0  0  0  0
   16.7308  -25.4721   -8.0299 C   0  0  0  0  0  0  0  0  0  0  0  0
   17.3218  -24.7246   -9.2007 C   0  0  0  0  0  0  0  0  0  0  0  0
   16.9322  -25.2428  -10.5377 C   0  0  2  0  0  0  0  0  0  0  0  0
   17.0387  -26.7088  -10.5295 N   0  0  0  0  0  0  0  0  0  0  0  0
   17.7324  -24.7864  -11.6746 C   0  0  0  0  0  0  0  0  0  0  0  0
   18.8092  -25.4123  -11.9173 O   0  0  0  0  0  0  0  0  0  0  0  0
   16.3335  -27.5580   -3.9469 C   0  0  0  0  0  0  0  0  0  0  0  0
   17.6143  -22.3054  -14.5222 C   0  0  1  0  0  0  0  0  0  0  0  0
   18.3042  -23.2637  -13.5421 N   0  0  0  0  0  0  0  0  0  0  0  0
   17.4093  -23.7115  -12.5230 C   0  0  0  0  0  0  0  0  0  0  0  0
   19.4700  -22.5141  -12.9984 O   0  0  0  0  0  0  0  0  0  0  0  0
   19.2826  -21.7677  -12.0029 N   0  0  0  0  0  0  0  0  0  0  0  0
   27.6978  -22.3426  -16.5701 C   0  0  0  0  0  0  0  0  0  0  0  0
   27.0638  -21.0677  -16.4783 N   0  0  0  0  0  0  0  0  0  0  0  0
   27.5770  -20.0315  -17.0723 N   0  0  0  0  0  0  0  0  0  0  0  0
   25.8677  -20.8781  -15.7482 C   0  0  0  0  0  0  0  0  0  0  0  0
   25.2307  -22.0455  -15.0897 C   0  0  0  0  0  0  0  0  0  0  0  0
   24.0645  -21.5171  -14.3627 C   0  0  0  0  0  0  0  0  0  0  0  0
   23.1552  -22.3409  -13.5858 C   0  0  1  0  0  0  0  0  0  0  0  0
   21.9216  -21.8408  -12.9491 N   0  0  0  0  0  0  0  0  0  0  0  0
   20.7644  -22.5992  -13.5409 C   0  0  0  0  0  0  0  0  0  0  0  0
   21.6415  -20.4348  -13.3273 O   0  0  0  0  0  0  0  0  0  0  0  0
   21.1292  -20.0157  -14.3678 O   0  0  0  0  0  0  0  0  0  0  0  0
  2  1  1  0
  3  2  2  0
  4  2  1  0
  5  4  1  0
  6  5  1  0
  7  6  1  0
  8  9  1  1
  8  7  1  0
 10  8  1  0
 11 10  2  0
 13 12  1  6
 13 15  1  0
 13 14  1  0
 14 10  1  0
 15 16  2  0
 18 17  1  0
 18 19  2  0
 20 18  1  0
 21 22  1  0
 21 20  1  0
 23 22  1  0
 24 23  1  1
 25 24  1  0
 25 15  1  0
 26 28  1  0
 26 24  1  0
 27 26  2  0
M  END
$$$$
