RAR.pdb
     RDKit          3D

 28 27  0  0  1  0  0  0  0  0999 V2000
   28.5763  -18.4435   -6.5378 N   0  0  0  0  0  0  0  0  0  0  0  0
   28.5592  -19.5461   -5.6534 C   0  0  0  0  0  0  0  0  0  0  0  0
   29.4066  -19.6267   -4.6701 N   0  0  0  0  0  0  0  0  0  0  0  0
   27.5972  -20.5681   -5.8576 N   0  0  0  0  0  0  0  0  0  0  0  0
   27.0955  -20.8118   -7.1916 C   0  0  0  0  0  0  0  0  0  0  0  0
   26.4416  -19.5101   -7.6857 C   0  0  0  0  0  0  0  0  0  0  0  0
   25.4721  -19.8965   -8.7764 C   0  0  0  0  0  0  0  0  0  0  0  0
   26.0265  -20.7989   -9.8185 C   0  0  2  0  0  0  0  0  0  0  0  0
   27.4899  -20.6614   -9.8378 N   0  0  0  0  0  0  0  0  0  0  0  0
   25.5809  -20.5633  -11.1922 C   0  0  0  0  0  0  0  0  0  0  0  0
   24.5371  -19.8599  -11.3532 O   0  0  0  0  0  0  0  0  0  0  0  0
   29.3928  -20.4413   -4.0337 C   0  0  0  0  0  0  0  0  0  0  0  0
   26.6916  -21.1546  -14.7547 C   0  0  2  0  0  0  0  0  0  0  0  0
   25.6790  -20.8094  -13.6546 N   0  0  0  0  0  0  0  0  0  0  0  0
   26.2119  -21.0505  -12.3515 C   0  0  0  0  0  0  0  0  0  0  0  0
   24.4717  -21.6305  -13.9457 O   0  0  0  0  0  0  0  0  0  0  0  0
   24.4650  -22.8300  -13.5657 N   0  0  0  0  0  0  0  0  0  0  0  0
   19.5866  -21.9760  -10.9796 C   0  0  0  0  0  0  0  0  0  0  0  0
   18.5033  -22.7509  -11.4913 N   0  0  0  0  0  0  0  0  0  0  0  0
   17.9808  -23.7050  -10.7795 N   0  0  0  0  0  0  0  0  0  0  0  0
   17.9588  -22.5187  -12.7755 C   0  0  0  0  0  0  0  0  0  0  0  0
   18.4957  -21.4056  -13.5972 C   0  0  0  0  0  0  0  0  0  0  0  0
   19.6445  -21.9595  -14.3328 C   0  0  0  0  0  0  0  0  0  0  0  0
   21.0113  -21.4991  -14.1624 C   0  0  1  0  0  0  0  0  0  0  0  0
   22.1602  -22.0078  -14.9360 N   0  0  0  0  0  0  0  0  0  0  0  0
   23.3437  -21.1330  -14.6216 C   0  0  0  0  0  0  0  0  0  0  0  0
   21.9673  -21.8156  -16.3935 O   0  0  0  0  0  0  0  0  0  0  0  0
   21.1356  -22.3547  -17.1273 O   0  0  0  0  0  0  0  0  0  0  0  0
  2  1  1  0
  3  2  2  0
  4  2  1  0
  5  4  1  0
  6  5  1  0
  7  6  1  0
  8  9  1  6
  8  7  1  0
 10  8  1  0
 11 10  2  0
 13 12  1  1
 13 15  1  0
 13 14  1  0
 14 10  1  0
 15 16  2  0
 18 17  1  0
 18 19  2  0
 20 18  1  0
 21 22  1  0
 21 20  1  0
 23 22  1  0
 24 23  1  1
 25 24  1  0
 25 15  1  0
 26 28  1  0
 26 24  1  0
 27 26  2  0
M  END
$$$$
