RAR.pdb
     RDKit          3D

 28 27  0  0  1  0  0  0  0  0999 V2000
   26.5011  -25.0179  -15.6658 N   0  0  0  0  0  0  0  0  0  0  0  0
   26.3154  -25.2483  -17.0480 C   0  0  0  0  0  0  0  0  0  0  0  0
   27.3325  -25.4381  -17.8360 N   0  0  0  0  0  0  0  0  0  0  0  0
   24.9942  -25.2692  -17.5635 N   0  0  0  0  0  0  0  0  0  0  0  0
   23.8772  -25.1498  -16.6532 C   0  0  0  0  0  0  0  0  0  0  0  0
   24.3172  -24.2354  -15.4972 C   0  0  0  0  0  0  0  0  0  0  0  0
   23.1144  -24.0545  -14.6030 C   0  0  0  0  0  0  0  0  0  0  0  0
   21.9720  -23.3364  -15.2251 C   0  0  2  0  0  0  0  0  0  0  0  0
   22.2252  -21.8900  -15.1574 N   0  0  0  0  0  0  0  0  0  0  0  0
   20.6582  -23.5450  -14.6155 C   0  0  0  0  0  0  0  0  0  0  0  0
   20.4805  -23.0887  -13.4449 O   0  0  0  0  0  0  0  0  0  0  0  0
   27.1854  -25.6883  -18.8283 C   0  0  0  0  0  0  0  0  0  0  0  0
   17.1679  -24.5571  -15.5450 C   0  0  1  0  0  0  0  0  0  0  0  0
   18.3191  -24.3560  -14.5505 N   0  0  0  0  0  0  0  0  0  0  0  0
   19.5737  -24.2094  -15.2172 C   0  0  0  0  0  0  0  0  0  0  0  0
   18.2809  -25.5373  -13.6452 O   0  0  0  0  0  0  0  0  0  0  0  0
   18.9685  -26.5443  -13.9555 N   0  0  0  0  0  0  0  0  0  0  0  0
   18.8734  -24.8310   -6.9019 C   0  0  0  0  0  0  0  0  0  0  0  0
   18.1229  -23.6759   -7.2738 N   0  0  0  0  0  0  0  0  0  0  0  0
   18.6457  -22.4898   -7.1754 N   0  0  0  0  0  0  0  0  0  0  0  0
   16.7976  -23.7691   -7.7581 C   0  0  0  0  0  0  0  0  0  0  0  0
   16.2963  -25.0789   -8.2433 C   0  0  0  0  0  0  0  0  0  0  0  0
   17.0160  -25.3511   -9.4986 C   0  0  0  0  0  0  0  0  0  0  0  0
   16.7134  -26.4664  -10.3781 C   0  0  2  0  0  0  0  0  0  0  0  0
   17.4897  -26.8036  -11.5868 N   0  0  0  0  0  0  0  0  0  0  0  0
   17.5171  -25.5822  -12.4655 C   0  0  0  0  0  0  0  0  0  0  0  0
   16.7935  -27.8125  -12.4210 O   0  0  0  0  0  0  0  0  0  0  0  0
   15.9603  -27.6194  -13.3095 O   0  0  0  0  0  0  0  0  0  0  0  0
  2  1  1  0
  3  2  2  0
  4  2  1  0
  5  4  1  0
  6  5  1  0
  7  6  1  0
  8  9  1  1
  8  7  1  0
 10  8  1  0
 11 10  2  0
 13 12  1  6
 13 15  1  0
 13 14  1  0
 14 10  1  0
 15 16  2  0
 18 17  1  0
 18 19  2  0
 20 18  1  0
 21 22  1  0
 21 20  1  0
 23 22  1  0
 24 23  1  1
 25 24  1  0
 25 15  1  0
 26 28  1  0
 26 24  1  0
 27 26  2  0
M  END
$$$$
