RAR.pdb
     RDKit          3D

 28 27  0  0  1  0  0  0  0  0999 V2000
   17.3166  -14.5315  -15.6274 N   0  0  0  0  0  0  0  0  0  0  0  0
   18.4050  -13.7405  -15.1941 C   0  0  0  0  0  0  0  0  0  0  0  0
   18.4572  -12.4698  -15.4662 N   0  0  0  0  0  0  0  0  0  0  0  0
   19.4445  -14.3593  -14.4535 N   0  0  0  0  0  0  0  0  0  0  0  0
   20.6946  -14.6686  -15.1109 C   0  0  0  0  0  0  0  0  0  0  0  0
   20.5361  -16.0419  -15.7854 C   0  0  0  0  0  0  0  0  0  0  0  0
   21.8957  -16.6975  -15.7632 C   0  0  0  0  0  0  0  0  0  0  0  0
   22.8570  -16.1838  -16.7731 C   0  0  2  0  0  0  0  0  0  0  0  0
   22.4230  -16.6195  -18.1082 N   0  0  0  0  0  0  0  0  0  0  0  0
   24.2461  -16.6233  -16.6369 C   0  0  0  0  0  0  0  0  0  0  0  0
   24.5340  -17.7835  -17.0624 O   0  0  0  0  0  0  0  0  0  0  0  0
   19.2649  -11.9022  -15.1593 C   0  0  0  0  0  0  0  0  0  0  0  0
   27.5590  -15.3921  -15.2699 C   0  0  1  0  0  0  0  0  0  0  0  0
   26.6129  -16.3940  -15.9451 N   0  0  0  0  0  0  0  0  0  0  0  0
   25.2911  -15.8683  -16.0736 C   0  0  0  0  0  0  0  0  0  0  0  0
   26.6660  -17.6250  -15.1095 O   0  0  0  0  0  0  0  0  0  0  0  0
   25.6374  -17.9447  -14.4591 N   0  0  0  0  0  0  0  0  0  0  0  0
   25.0990  -21.0627   -8.4066 C   0  0  0  0  0  0  0  0  0  0  0  0
   24.1615  -20.9486   -9.4762 N   0  0  0  0  0  0  0  0  0  0  0  0
   22.8855  -20.9004   -9.2326 N   0  0  0  0  0  0  0  0  0  0  0  0
   24.5730  -20.8840  -10.8275 C   0  0  0  0  0  0  0  0  0  0  0  0
   26.0207  -20.9556  -11.1459 C   0  0  0  0  0  0  0  0  0  0  0  0
   26.1214  -20.8496  -12.6110 C   0  0  0  0  0  0  0  0  0  0  0  0
   26.6646  -19.6936  -13.3022 C   0  0  1  0  0  0  0  0  0  0  0  0
   27.7764  -19.7533  -14.2706 N   0  0  0  0  0  0  0  0  0  0  0  0
   27.8047  -18.4441  -15.0120 C   0  0  0  0  0  0  0  0  0  0  0  0
   27.5191  -20.7487  -15.3389 O   0  0  0  0  0  0  0  0  0  0  0  0
   26.6525  -20.7153  -16.2156 O   0  0  0  0  0  0  0  0  0  0  0  0
  2  1  1  0
  3  2  2  0
  4  2  1  0
  5  4  1  0
  6  5  1  0
  7  6  1  0
  8  9  1  6
  8  7  1  0
 10  8  1  0
 11 10  2  0
 13 12  1  6
 13 15  1  0
 13 14  1  0
 14 10  1  0
 15 16  2  0
 18 17  1  0
 18 19  2  0
 20 18  1  0
 21 22  1  0
 21 20  1  0
 23 22  1  0
 24 23  1  1
 25 24  1  0
 25 15  1  0
 26 28  1  0
 26 24  1  0
 27 26  2  0
M  END
$$$$
