RAR.pdb
     RDKit          3D

 28 27  0  0  1  0  0  0  0  0999 V2000
   25.2518  -31.9932  -10.6476 N   0  0  0  0  0  0  0  0  0  0  0  0
   24.8114  -33.0850  -11.4299 C   0  0  0  0  0  0  0  0  0  0  0  0
   24.8440  -34.2981  -10.9621 N   0  0  0  0  0  0  0  0  0  0  0  0
   24.3307  -32.8338  -12.7405 N   0  0  0  0  0  0  0  0  0  0  0  0
   23.9367  -31.4911  -13.1047 C   0  0  0  0  0  0  0  0  0  0  0  0
   22.4162  -31.3824  -12.8991 C   0  0  0  0  0  0  0  0  0  0  0  0
   22.0272  -29.9702  -13.2638 C   0  0  0  0  0  0  0  0  0  0  0  0
   22.3589  -28.9437  -12.2419 C   0  0  2  0  0  0  0  0  0  0  0  0
   21.4270  -29.0775  -11.1130 N   0  0  0  0  0  0  0  0  0  0  0  0
   22.2783  -27.5463  -12.6682 C   0  0  0  0  0  0  0  0  0  0  0  0
   21.1227  -27.0287  -12.7515 O   0  0  0  0  0  0  0  0  0  0  0  0
   24.5530  -35.0945  -11.5536 C   0  0  0  0  0  0  0  0  0  0  0  0
   24.4666  -24.5382  -13.1813 C   0  0  1  0  0  0  0  0  0  0  0  0
   23.2003  -25.3727  -13.4157 N   0  0  0  0  0  0  0  0  0  0  0  0
   23.3742  -26.7263  -12.9942 C   0  0  0  0  0  0  0  0  0  0  0  0
   22.9028  -25.2543  -14.8696 O   0  0  0  0  0  0  0  0  0  0  0  0
   22.8140  -26.3126  -15.5445 N   0  0  0  0  0  0  0  0  0  0  0  0
   16.6788  -26.3540  -19.8335 C   0  0  0  0  0  0  0  0  0  0  0  0
   17.6340  -25.7064  -20.6726 N   0  0  0  0  0  0  0  0  0  0  0  0
   17.4338  -25.6182  -21.9540 N   0  0  0  0  0  0  0  0  0  0  0  0
   18.8221  -25.1407  -20.1551 C   0  0  0  0  0  0  0  0  0  0  0  0
   19.1435  -25.3247  -18.7180 C   0  0  0  0  0  0  0  0  0  0  0  0
   20.4238  -24.6328  -18.4949 C   0  0  0  0  0  0  0  0  0  0  0  0
   21.1254  -24.6214  -17.2234 C   0  0  1  0  0  0  0  0  0  0  0  0
   22.4171  -23.9456  -16.9951 N   0  0  0  0  0  0  0  0  0  0  0  0
   22.7171  -24.0229  -15.5225 C   0  0  0  0  0  0  0  0  0  0  0  0
   22.3256  -22.4882  -17.2520 O   0  0  0  0  0  0  0  0  0  0  0  0
   22.0962  -21.5871  -16.4420 O   0  0  0  0  0  0  0  0  0  0  0  0
  2  1  1  0
  3  2  2  0
  4  2  1  0
  5  4  1  0
  6  5  1  0
  7  6  1  0
  8  9  1  1
  8  7  1  0
 10  8  1  0
 11 10  2  0
 13 12  1  1
 13 15  1  0
 13 14  1  0
 14 10  1  0
 15 16  2  0
 18 17  1  0
 18 19  2  0
 20 18  1  0
 21 22  1  0
 21 20  1  0
 23 22  1  0
 24 23  1  6
 25 24  1  0
 25 15  1  0
 26 28  1  0
 26 24  1  0
 27 26  2  0
M  END
$$$$
