RAR.pdb
     RDKit          3D

 28 27  0  0  1  0  0  0  0  0999 V2000
   24.6897  -19.8071   -6.4645 N   0  0  0  0  0  0  0  0  0  0  0  0
   24.4205  -21.0544   -7.0725 C   0  0  0  0  0  0  0  0  0  0  0  0
   23.4478  -21.8073   -6.6501 N   0  0  0  0  0  0  0  0  0  0  0  0
   25.2335  -21.4732   -8.1567 N   0  0  0  0  0  0  0  0  0  0  0  0
   25.4997  -20.5520   -9.2389 C   0  0  0  0  0  0  0  0  0  0  0  0
   24.5189  -20.8791  -10.3778 C   0  0  0  0  0  0  0  0  0  0  0  0
   25.2358  -20.5748  -11.6709 C   0  0  0  0  0  0  0  0  0  0  0  0
   24.8534  -19.2909  -12.3138 C   0  0  2  0  0  0  0  0  0  0  0  0
   23.4086  -19.0834  -12.1399 N   0  0  0  0  0  0  0  0  0  0  0  0
   25.1073  -19.1776  -13.7504 C   0  0  0  0  0  0  0  0  0  0  0  0
   24.5329  -20.0153  -14.5110 O   0  0  0  0  0  0  0  0  0  0  0  0
   23.2587  -22.7186   -7.1002 C   0  0  0  0  0  0  0  0  0  0  0  0
   27.7137  -17.4381  -15.8595 C   0  0  1  0  0  0  0  0  0  0  0  0
   26.6384  -18.4948  -15.5732 N   0  0  0  0  0  0  0  0  0  0  0  0
   25.9351  -18.2179  -14.3613 C   0  0  0  0  0  0  0  0  0  0  0  0
   27.3543  -19.7998  -15.5401 O   0  0  0  0  0  0  0  0  0  0  0  0
   28.0344  -20.0770  -14.5184 N   0  0  0  0  0  0  0  0  0  0  0  0
   24.6052  -25.0221  -14.5125 C   0  0  0  0  0  0  0  0  0  0  0  0
   24.1853  -24.7340  -15.8454 N   0  0  0  0  0  0  0  0  0  0  0  0
   22.9923  -24.2720  -16.0758 N   0  0  0  0  0  0  0  0  0  0  0  0
   25.0354  -24.9356  -16.9572 C   0  0  0  0  0  0  0  0  0  0  0  0
   26.3439  -25.6055  -16.7540 C   0  0  0  0  0  0  0  0  0  0  0  0
   27.3526  -24.5330  -16.7376 C   0  0  0  0  0  0  0  0  0  0  0  0
   27.0304  -23.1224  -16.6132 C   0  0  1  0  0  0  0  0  0  0  0  0
   28.0366  -22.0477  -16.5136 N   0  0  0  0  0  0  0  0  0  0  0  0
   27.3076  -20.7334  -16.5905 C   0  0  0  0  0  0  0  0  0  0  0  0
   28.9256  -22.0184  -17.6999 O   0  0  0  0  0  0  0  0  0  0  0  0
   30.0379  -22.5352  -17.8286 O   0  0  0  0  0  0  0  0  0  0  0  0
  2  1  1  0
  3  2  2  0
  4  2  1  0
  5  4  1  0
  6  5  1  0
  7  6  1  0
  8  9  1  6
  8  7  1  0
 10  8  1  0
 11 10  2  0
 13 12  1  6
 13 15  1  0
 13 14  1  0
 14 10  1  0
 15 16  2  0
 18 17  1  0
 18 19  2  0
 20 18  1  0
 21 22  1  0
 21 20  1  0
 23 22  1  0
 24 23  1  1
 25 24  1  0
 25 15  1  0
 26 28  1  0
 26 24  1  0
 27 26  2  0
M  END
$$$$
