RAR.pdb
     RDKit          3D

 28 27  0  0  1  0  0  0  0  0999 V2000
   18.2193  -21.0334  -13.2055 N   0  0  0  0  0  0  0  0  0  0  0  0
   18.8900  -22.0456  -12.4818 C   0  0  0  0  0  0  0  0  0  0  0  0
   18.2608  -23.1136  -12.0879 N   0  0  0  0  0  0  0  0  0  0  0  0
   20.2679  -21.8760  -12.1911 N   0  0  0  0  0  0  0  0  0  0  0  0
   21.0059  -20.8220  -12.8506 C   0  0  0  0  0  0  0  0  0  0  0  0
   20.8418  -21.0202  -14.3671 C   0  0  0  0  0  0  0  0  0  0  0  0
   22.2043  -20.8135  -14.9833 C   0  0  0  0  0  0  0  0  0  0  0  0
   22.5884  -19.3940  -15.1960 C   0  0  2  0  0  0  0  0  0  0  0  0
   21.7045  -18.8092  -16.2145 N   0  0  0  0  0  0  0  0  0  0  0  0
   23.9548  -19.1483  -15.6583 C   0  0  0  0  0  0  0  0  0  0  0  0
   24.3106  -19.7017  -16.7433 O   0  0  0  0  0  0  0  0  0  0  0  0
   18.7649  -23.8600  -11.5804 C   0  0  0  0  0  0  0  0  0  0  0  0
   27.0767  -17.2539  -14.6597 C   0  0  1  0  0  0  0  0  0  0  0  0
   26.2797  -18.3341  -15.4033 N   0  0  0  0  0  0  0  0  0  0  0  0
   24.9091  -18.3498  -15.0017 C   0  0  0  0  0  0  0  0  0  0  0  0
   26.9790  -19.6176  -15.1203 O   0  0  0  0  0  0  0  0  0  0  0  0
   26.5860  -20.3034  -14.1413 N   0  0  0  0  0  0  0  0  0  0  0  0
   24.5885  -24.5815  -14.2778 C   0  0  0  0  0  0  0  0  0  0  0  0
   24.0388  -24.3555  -15.5750 N   0  0  0  0  0  0  0  0  0  0  0  0
   22.7614  -24.1682  -15.7265 N   0  0  0  0  0  0  0  0  0  0  0  0
   24.8470  -24.3258  -16.7349 C   0  0  0  0  0  0  0  0  0  0  0  0
   26.3125  -24.5162  -16.5992 C   0  0  0  0  0  0  0  0  0  0  0  0
   26.9378  -23.4252  -17.3650 C   0  0  0  0  0  0  0  0  0  0  0  0
   27.0774  -22.0671  -16.8699 C   0  0  1  0  0  0  0  0  0  0  0  0
   28.2553  -21.5699  -16.1332 N   0  0  0  0  0  0  0  0  0  0  0  0
   28.0525  -20.0987  -15.8905 C   0  0  0  0  0  0  0  0  0  0  0  0
   29.4814  -21.6160  -16.9657 O   0  0  0  0  0  0  0  0  0  0  0  0
   29.7971  -20.8693  -17.8950 O   0  0  0  0  0  0  0  0  0  0  0  0
  2  1  1  0
  3  2  2  0
  4  2  1  0
  5  4  1  0
  6  5  1  0
  7  6  1  0
  8  9  1  6
  8  7  1  0
 10  8  1  0
 11 10  2  0
 13 12  1  6
 13 15  1  0
 13 14  1  0
 14 10  1  0
 15 16  2  0
 18 17  1  0
 18 19  2  0
 20 18  1  0
 21 22  1  0
 21 20  1  0
 23 22  1  0
 24 23  1  1
 25 24  1  0
 25 15  1  0
 26 28  1  0
 26 24  1  0
 27 26  2  0
M  END
$$$$
