RAR.pdb
     RDKit          3D

 28 27  0  0  1  0  0  0  0  0999 V2000
   28.9731  -26.8357  -16.3817 N   0  0  0  0  0  0  0  0  0  0  0  0
   28.1532  -26.5439  -17.4955 C   0  0  0  0  0  0  0  0  0  0  0  0
   27.3211  -27.4278  -17.9622 N   0  0  0  0  0  0  0  0  0  0  0  0
   28.2537  -25.2640  -18.0986 N   0  0  0  0  0  0  0  0  0  0  0  0
   28.9490  -24.2054  -17.4010 C   0  0  0  0  0  0  0  0  0  0  0  0
   27.9644  -23.5913  -16.3912 C   0  0  0  0  0  0  0  0  0  0  0  0
   27.4422  -22.3179  -17.0114 C   0  0  0  0  0  0  0  0  0  0  0  0
   27.8004  -21.0726  -16.2842 C   0  0  2  0  0  0  0  0  0  0  0  0
   28.4353  -21.4323  -15.0082 N   0  0  0  0  0  0  0  0  0  0  0  0
   26.6975  -20.1722  -15.9465 C   0  0  0  0  0  0  0  0  0  0  0  0
   26.2527  -20.2164  -14.7589 O   0  0  0  0  0  0  0  0  0  0  0  0
   26.7692  -27.2281  -18.8133 C   0  0  0  0  0  0  0  0  0  0  0  0
   24.5839  -17.4447  -17.5050 C   0  0  1  0  0  0  0  0  0  0  0  0
   24.9545  -18.4827  -16.4373 N   0  0  0  0  0  0  0  0  0  0  0  0
   26.0873  -19.2603  -16.8272 C   0  0  0  0  0  0  0  0  0  0  0  0
   23.7311  -19.3063  -16.2337 O   0  0  0  0  0  0  0  0  0  0  0  0
   23.6106  -20.3643  -16.9041 N   0  0  0  0  0  0  0  0  0  0  0  0
   19.7076  -21.8200   -9.5818 C   0  0  0  0  0  0  0  0  0  0  0  0
   19.2006  -22.6934  -10.5897 N   0  0  0  0  0  0  0  0  0  0  0  0
   18.2759  -23.5619  -10.3057 N   0  0  0  0  0  0  0  0  0  0  0  0
   19.6745  -22.6534  -11.9214 C   0  0  0  0  0  0  0  0  0  0  0  0
   20.8031  -21.7512  -12.2597 C   0  0  0  0  0  0  0  0  0  0  0  0
   20.2277  -20.6651  -13.0703 C   0  0  0  0  0  0  0  0  0  0  0  0
   21.0221  -19.6726  -13.7723 C   0  0  2  0  0  0  0  0  0  0  0  0
   21.4780  -19.8118  -15.1688 N   0  0  0  0  0  0  0  0  0  0  0  0
   22.7084  -18.9610  -15.3328 C   0  0  0  0  0  0  0  0  0  0  0  0
   20.5142  -19.2111  -16.1219 O   0  0  0  0  0  0  0  0  0  0  0  0
   20.5328  -18.0780  -16.6083 O   0  0  0  0  0  0  0  0  0  0  0  0
  2  1  1  0
  3  2  2  0
  4  2  1  0
  5  4  1  0
  6  5  1  0
  7  6  1  0
  8  9  1  1
  8  7  1  0
 10  8  1  0
 11 10  2  0
 13 12  1  1
 13 15  1  0
 13 14  1  0
 14 10  1  0
 15 16  2  0
 18 17  1  0
 18 19  2  0
 20 18  1  0
 21 22  1  0
 21 20  1  0
 23 22  1  0
 24 23  1  1
 25 24  1  0
 25 15  1  0
 26 28  1  0
 26 24  1  0
 27 26  2  0
M  END
$$$$
