RAR.pdb
     RDKit          3D

 28 27  0  0  1  0  0  0  0  0999 V2000
   27.7918  -23.4919  -17.4145 N   0  0  0  0  0  0  0  0  0  0  0  0
   26.9529  -22.4071  -17.7574 C   0  0  0  0  0  0  0  0  0  0  0  0
   26.8518  -22.0046  -18.9900 N   0  0  0  0  0  0  0  0  0  0  0  0
   26.2193  -21.7618  -16.7292 N   0  0  0  0  0  0  0  0  0  0  0  0
   25.8682  -22.5027  -15.5382 C   0  0  0  0  0  0  0  0  0  0  0  0
   24.6879  -23.4222  -15.8957 C   0  0  0  0  0  0  0  0  0  0  0  0
   23.6555  -23.2482  -14.8082 C   0  0  0  0  0  0  0  0  0  0  0  0
   23.9901  -22.2267  -13.7823 C   0  0  2  0  0  0  0  0  0  0  0  0
   25.0464  -22.7577  -12.9088 N   0  0  0  0  0  0  0  0  0  0  0  0
   22.9036  -21.8108  -12.8948 C   0  0  0  0  0  0  0  0  0  0  0  0
   22.6897  -22.5198  -11.8644 O   0  0  0  0  0  0  0  0  0  0  0  0
   26.2405  -21.2064  -19.2308 C   0  0  0  0  0  0  0  0  0  0  0  0
   20.3061  -19.0707  -12.5715 C   0  0  1  0  0  0  0  0  0  0  0  0
   21.0371  -20.3566  -12.1634 N   0  0  0  0  0  0  0  0  0  0  0  0
   22.0747  -20.6902  -13.0865 C   0  0  0  0  0  0  0  0  0  0  0  0
   19.9856  -21.4067  -12.0725 O   0  0  0  0  0  0  0  0  0  0  0  0
   19.8009  -22.1486  -13.0718 N   0  0  0  0  0  0  0  0  0  0  0  0
   17.0881  -25.1174   -4.7543 C   0  0  0  0  0  0  0  0  0  0  0  0
   17.9342  -25.6464   -5.7743 N   0  0  0  0  0  0  0  0  0  0  0  0
   18.7802  -26.5954   -5.5031 N   0  0  0  0  0  0  0  0  0  0  0  0
   17.8903  -25.1686   -7.1045 C   0  0  0  0  0  0  0  0  0  0  0  0
   16.7696  -24.2889   -7.5194 C   0  0  0  0  0  0  0  0  0  0  0  0
   16.9892  -23.9942   -8.9452 C   0  0  0  0  0  0  0  0  0  0  0  0
   17.9672  -23.0370   -9.4313 C   0  0  1  0  0  0  0  0  0  0  0  0
   18.1776  -22.7176  -10.8564 N   0  0  0  0  0  0  0  0  0  0  0  0
   19.1925  -21.6088  -10.9292 C   0  0  0  0  0  0  0  0  0  0  0  0
   16.9673  -22.1175  -11.4675 O   0  0  0  0  0  0  0  0  0  0  0  0
   16.5891  -20.9451  -11.4103 O   0  0  0  0  0  0  0  0  0  0  0  0
  2  1  1  0
  3  2  2  0
  4  2  1  0
  5  4  1  0
  6  5  1  0
  7  6  1  0
  8  9  1  1
  8  7  1  0
 10  8  1  0
 11 10  2  0
 13 12  1  1
 13 15  1  0
 13 14  1  0
 14 10  1  0
 15 16  2  0
 18 17  1  0
 18 19  2  0
 20 18  1  0
 21 22  1  0
 21 20  1  0
 23 22  1  0
 24 23  1  6
 25 24  1  0
 25 15  1  0
 26 28  1  0
 26 24  1  0
 27 26  2  0
M  END
$$$$
