GAG.pdb
     RDKit          3D

 14 13  0  0  1  0  0  0  0  0999 V2000
    9.9255  -16.1883   16.0727 N   0  0  0  0  0  0  0  0  0  0  0  0
    8.8168  -16.1037   16.9720 C   0  0  0  0  0  0  0  0  0  0  0  0
    9.0265  -14.9490   17.9144 C   0  0  0  0  0  0  0  0  0  0  0  0
   10.1605  -14.4265   18.0623 O   0  0  0  0  0  0  0  0  0  0  0  0
    6.7628  -12.6740   19.9062 C   0  0  0  0  0  0  0  0  0  0  0  0
    8.1156  -13.3085   19.6041 C   0  0  2  0  0  0  0  0  0  0  0  0
    7.9558  -14.4000   18.6761 N   0  0  0  0  0  0  0  0  0  0  0  0
    8.7712  -13.8164   20.8132 C   0  0  0  0  0  0  0  0  0  0  0  0
    9.1585  -13.0427   21.7177 O   0  0  0  0  0  0  0  0  0  0  0  0
    9.0130  -15.2110   21.0455 N   0  0  0  0  0  0  0  0  0  0  0  0
    9.5348  -15.6992   22.2818 C   0  0  0  0  0  0  0  0  0  0  0  0
   10.9737  -15.9107   22.3045 C   0  0  0  0  0  0  0  0  0  0  0  0
   11.6676  -15.7069   21.2870 O   0  0  0  0  0  0  0  0  0  0  0  0
   11.6043  -16.3416   23.4519 O   0  0  0  0  0  0  0  0  0  0  0  0
  2  1  1  0
  3  2  1  0
  4  3  2  0
  6  5  1  1
  6  7  1  0
  7  3  1  0
  8  9  2  0
  8  6  1  0
 10  8  1  0
 11 10  1  0
 12 11  1  0
 12 14  1  0
 13 12  2  0
M  END
$$$$
