GAG.pdb
     RDKit          3D

 14 13  0  0  1  0  0  0  0  0999 V2000
    8.7721  -18.6545   19.3982 N   0  0  0  0  0  0  0  0  0  0  0  0
    7.4066  -18.9972   19.1467 C   0  0  0  0  0  0  0  0  0  0  0  0
    6.5267  -18.3136   20.1583 C   0  0  0  0  0  0  0  0  0  0  0  0
    6.7928  -17.1588   20.5786 O   0  0  0  0  0  0  0  0  0  0  0  0
    3.0532  -18.8324   21.4445 C   0  0  0  0  0  0  0  0  0  0  0  0
    4.4740  -18.3117   21.6290 C   0  0  2  0  0  0  0  0  0  0  0  0
    5.3601  -18.9407   20.6817 N   0  0  0  0  0  0  0  0  0  0  0  0
    4.9837  -18.5608   22.9810 C   0  0  0  0  0  0  0  0  0  0  0  0
    4.4554  -18.0300   23.9839 O   0  0  0  0  0  0  0  0  0  0  0  0
    6.1041  -19.4148   23.2501 N   0  0  0  0  0  0  0  0  0  0  0  0
    6.5961  -19.6338   24.5727 C   0  0  0  0  0  0  0  0  0  0  0  0
    8.0014  -19.3147   24.7698 C   0  0  0  0  0  0  0  0  0  0  0  0
    8.8234  -20.2027   25.0767 O   0  0  0  0  0  0  0  0  0  0  0  0
    8.4578  -18.0225   24.6217 O   0  0  0  0  0  0  0  0  0  0  0  0
  2  1  1  0
  3  2  1  0
  4  3  2  0
  6  5  1  1
  6  7  1  0
  7  3  1  0
  8  9  2  0
  8  6  1  0
 10  8  1  0
 11 10  1  0
 12 11  1  0
 12 14  1  0
 13 12  2  0
M  END
$$$$
