GAG.pdb
     RDKit          3D

 14 13  0  0  1  0  0  0  0  0999 V2000
    7.0666  -17.7305   17.1940 N   0  0  0  0  0  0  0  0  0  0  0  0
    6.4213  -16.7953   18.0623 C   0  0  0  0  0  0  0  0  0  0  0  0
    7.4624  -16.0448   18.8485 C   0  0  0  0  0  0  0  0  0  0  0  0
    8.6492  -16.4545   18.9150 O   0  0  0  0  0  0  0  0  0  0  0  0
    7.5874  -12.6875   20.5848 C   0  0  0  0  0  0  0  0  0  0  0  0
    8.1190  -14.0883   20.3036 C   0  0  2  0  0  0  0  0  0  0  0  0
    7.1513  -14.8441   19.5481 N   0  0  0  0  0  0  0  0  0  0  0  0
    8.4250  -14.8219   21.5356 C   0  0  0  0  0  0  0  0  0  0  0  0
    7.5155  -15.2461   22.2836 O   0  0  0  0  0  0  0  0  0  0  0  0
    9.7636  -15.1028   21.9674 N   0  0  0  0  0  0  0  0  0  0  0  0
   10.0426  -15.8159   23.1727 C   0  0  0  0  0  0  0  0  0  0  0  0
   11.4533  -15.9412   23.5040 C   0  0  0  0  0  0  0  0  0  0  0  0
   12.3335  -15.4985   22.7373 O   0  0  0  0  0  0  0  0  0  0  0  0
   11.8506  -16.5525   24.6737 O   0  0  0  0  0  0  0  0  0  0  0  0
  2  1  1  0
  3  2  1  0
  4  3  2  0
  6  5  1  1
  6  7  1  0
  7  3  1  0
  8  9  2  0
  8  6  1  0
 10  8  1  0
 11 10  1  0
 12 11  1  0
 12 14  1  0
 13 12  2  0
M  END
$$$$
