GAG.pdb
     RDKit          3D

 14 13  0  0  1  0  0  0  0  0999 V2000
   -1.6496  -26.0243   28.9054 N   0  0  0  0  0  0  0  0  0  0  0  0
   -2.1128  -26.1221   30.2549 C   0  0  0  0  0  0  0  0  0  0  0  0
   -3.5960  -25.8692   30.2924 C   0  0  0  0  0  0  0  0  0  0  0  0
   -4.2566  -25.7108   29.2344 O   0  0  0  0  0  0  0  0  0  0  0  0
   -6.2638  -26.0715   32.9473 C   0  0  0  0  0  0  0  0  0  0  0  0
   -5.7366  -25.5868   31.6016 C   0  0  2  0  0  0  0  0  0  0  0  0
   -4.3129  -25.7985   31.5208 N   0  0  0  0  0  0  0  0  0  0  0  0
   -6.0098  -24.1634   31.3802 C   0  0  0  0  0  0  0  0  0  0  0  0
   -5.2567  -23.2765   31.8418 O   0  0  0  0  0  0  0  0  0  0  0  0
   -7.1387  -23.6899   30.6327 N   0  0  0  0  0  0  0  0  0  0  0  0
   -7.3380  -22.3051   30.3471 C   0  0  0  0  0  0  0  0  0  0  0  0
   -8.4872  -22.0068   29.5068 C   0  0  0  0  0  0  0  0  0  0  0  0
   -9.1315  -22.9219   28.9536 O   0  0  0  0  0  0  0  0  0  0  0  0
   -8.8913  -20.7050   29.3023 O   0  0  0  0  0  0  0  0  0  0  0  0
  2  1  1  0
  3  2  1  0
  4  3  2  0
  6  5  1  1
  6  7  1  0
  7  3  1  0
  8  9  2  0
  8  6  1  0
 10  8  1  0
 11 10  1  0
 12 11  1  0
 12 14  1  0
 13 12  2  0
M  END
$$$$
