GAG.pdb
     RDKit          3D

 14 13  0  0  1  0  0  0  0  0999 V2000
    9.0158  -16.0999   15.2171 N   0  0  0  0  0  0  0  0  0  0  0  0
    8.3153  -15.9393   16.4534 C   0  0  0  0  0  0  0  0  0  0  0  0
    8.8049  -14.6959   17.1458 C   0  0  0  0  0  0  0  0  0  0  0  0
    9.7659  -14.0291   16.6847 O   0  0  0  0  0  0  0  0  0  0  0  0
    7.4627  -12.5108   19.9080 C   0  0  0  0  0  0  0  0  0  0  0  0
    8.5863  -12.9934   18.9978 C   0  0  2  0  0  0  0  0  0  0  0  0
    8.2050  -14.2221   18.3473 N   0  0  0  0  0  0  0  0  0  0  0  0
    9.8342  -13.2225   19.7327 C   0  0  0  0  0  0  0  0  0  0  0  0
   10.4115  -12.2933   20.3409 O   0  0  0  0  0  0  0  0  0  0  0  0
   10.4743  -14.5039   19.8080 N   0  0  0  0  0  0  0  0  0  0  0  0
   11.5693  -14.7591   20.6884 C   0  0  0  0  0  0  0  0  0  0  0  0
   12.1276  -16.0997   20.6074 C   0  0  0  0  0  0  0  0  0  0  0  0
   11.5071  -17.0812   21.0659 O   0  0  0  0  0  0  0  0  0  0  0  0
   13.3562  -16.3168   20.0216 O   0  0  0  0  0  0  0  0  0  0  0  0
  2  1  1  0
  3  2  1  0
  4  3  2  0
  6  5  1  1
  6  7  1  0
  7  3  1  0
  8  9  2  0
  8  6  1  0
 10  8  1  0
 11 10  1  0
 12 11  1  0
 12 14  1  0
 13 12  2  0
M  END
$$$$
