GAG.pdb
     RDKit          3D

 14 13  0  0  1  0  0  0  0  0999 V2000
   -6.9732  -27.9866   32.5471 N   0  0  0  0  0  0  0  0  0  0  0  0
   -5.9424  -28.3141   31.6116 C   0  0  0  0  0  0  0  0  0  0  0  0
   -5.1162  -27.0879   31.3307 C   0  0  0  0  0  0  0  0  0  0  0  0
   -4.7146  -26.3455   32.2626 O   0  0  0  0  0  0  0  0  0  0  0  0
   -3.0226  -25.9399   28.4835 C   0  0  0  0  0  0  0  0  0  0  0  0
   -3.8847  -25.6086   29.6963 C   0  0  2  0  0  0  0  0  0  0  0  0
   -4.7547  -26.7160   30.0044 N   0  0  0  0  0  0  0  0  0  0  0  0
   -4.7079  -24.4146   29.4807 C   0  0  0  0  0  0  0  0  0  0  0  0
   -4.1889  -23.2945   29.2746 O   0  0  0  0  0  0  0  0  0  0  0  0
   -6.1420  -24.4405   29.4897 N   0  0  0  0  0  0  0  0  0  0  0  0
   -6.9277  -23.2779   29.2248 C   0  0  0  0  0  0  0  0  0  0  0  0
   -7.2297  -22.4583   30.3878 C   0  0  0  0  0  0  0  0  0  0  0  0
   -6.7854  -22.7573   31.5155 O   0  0  0  0  0  0  0  0  0  0  0  0
   -8.0144  -21.3312   30.2706 O   0  0  0  0  0  0  0  0  0  0  0  0
  2  1  1  0
  3  2  1  0
  4  3  2  0
  6  5  1  6
  6  7  1  0
  7  3  1  0
  8  9  2  0
  8  6  1  0
 10  8  1  0
 11 10  1  0
 12 11  1  0
 12 14  1  0
 13 12  2  0
M  END
$$$$
