GAG.pdb
     RDKit          3D

 14 13  0  0  1  0  0  0  0  0999 V2000
    7.2597  -18.3708   18.2720 N   0  0  0  0  0  0  0  0  0  0  0  0
    6.6498  -17.3666   19.0874 C   0  0  0  0  0  0  0  0  0  0  0  0
    7.5823  -16.1919   19.2123 C   0  0  0  0  0  0  0  0  0  0  0  0
    8.7386  -16.2228   18.7196 O   0  0  0  0  0  0  0  0  0  0  0  0
    7.2761  -12.6013   20.2861 C   0  0  0  0  0  0  0  0  0  0  0  0
    8.0832  -13.8806   20.0973 C   0  0  2  0  0  0  0  0  0  0  0  0
    7.1985  -14.9998   19.8903 N   0  0  0  0  0  0  0  0  0  0  0  0
    8.9395  -14.1703   21.2517 C   0  0  0  0  0  0  0  0  0  0  0  0
    9.9325  -13.4574   21.5209 O   0  0  0  0  0  0  0  0  0  0  0  0
    8.7078  -15.2710   22.1416 N   0  0  0  0  0  0  0  0  0  0  0  0
    9.4054  -15.4111   23.3797 C   0  0  0  0  0  0  0  0  0  0  0  0
   10.6657  -16.1328   23.3003 C   0  0  0  0  0  0  0  0  0  0  0  0
   11.1054  -16.5361   22.2037 O   0  0  0  0  0  0  0  0  0  0  0  0
   11.4039  -16.3881   24.4360 O   0  0  0  0  0  0  0  0  0  0  0  0
  2  1  1  0
  3  2  1  0
  4  3  2  0
  6  5  1  1
  6  7  1  0
  7  3  1  0
  8  9  2  0
  8  6  1  0
 10  8  1  0
 11 10  1  0
 12 11  1  0
 12 14  1  0
 13 12  2  0
M  END
$$$$
