GAG.pdb
     RDKit          3D

 14 13  0  0  1  0  0  0  0  0999 V2000
    8.5092  -15.7703   14.6723 N   0  0  0  0  0  0  0  0  0  0  0  0
    7.7834  -15.3482   15.8299 C   0  0  0  0  0  0  0  0  0  0  0  0
    8.7241  -14.6669   16.7870 C   0  0  0  0  0  0  0  0  0  0  0  0
    9.9679  -14.6891   16.6046 O   0  0  0  0  0  0  0  0  0  0  0  0
    8.3163  -12.3427   19.7410 C   0  0  0  0  0  0  0  0  0  0  0  0
    9.1158  -13.3195   18.8864 C   0  0  2  0  0  0  0  0  0  0  0  0
    8.2500  -13.9707   17.9353 N   0  0  0  0  0  0  0  0  0  0  0  0
    9.7782  -14.3481   19.6945 C   0  0  0  0  0  0  0  0  0  0  0  0
    9.1356  -15.3017   20.1888 O   0  0  0  0  0  0  0  0  0  0  0  0
   11.1851  -14.3386   19.9736 N   0  0  0  0  0  0  0  0  0  0  0  0
   11.8063  -15.3263   20.7967 C   0  0  0  0  0  0  0  0  0  0  0  0
   13.2482  -15.1962   20.9364 C   0  0  0  0  0  0  0  0  0  0  0  0
   13.8855  -14.3650   20.2571 O   0  0  0  0  0  0  0  0  0  0  0  0
   13.9443  -15.9890   21.8234 O   0  0  0  0  0  0  0  0  0  0  0  0
  2  1  1  0
  3  2  1  0
  4  3  2  0
  6  5  1  1
  6  7  1  0
  7  3  1  0
  8  9  2  0
  8  6  1  0
 10  8  1  0
 11 10  1  0
 12 11  1  0
 12 14  1  0
 13 12  2  0
M  END
$$$$
