GAG.pdb
     RDKit          3D

 14 13  0  0  1  0  0  0  0  0999 V2000
    3.6100  -23.6144   18.7717 N   0  0  0  0  0  0  0  0  0  0  0  0
    2.8508  -22.9258   19.7690 C   0  0  0  0  0  0  0  0  0  0  0  0
    3.5578  -21.6503   20.1411 C   0  0  0  0  0  0  0  0  0  0  0  0
    4.7368  -21.4259   19.7664 O   0  0  0  0  0  0  0  0  0  0  0  0
    2.5248  -18.2981   21.4182 C   0  0  0  0  0  0  0  0  0  0  0  0
    3.5632  -19.4081   21.3025 C   0  0  2  0  0  0  0  0  0  0  0  0
    2.9264  -20.6466   20.9298 N   0  0  0  0  0  0  0  0  0  0  0  0
    4.2918  -19.6175   22.5575 C   0  0  0  0  0  0  0  0  0  0  0  0
    5.0428  -18.7345   23.0294 O   0  0  0  0  0  0  0  0  0  0  0  0
    4.2001  -20.8268   23.3235 N   0  0  0  0  0  0  0  0  0  0  0  0
    4.8440  -20.9789   24.5889 C   0  0  0  0  0  0  0  0  0  0  0  0
    6.1565  -21.6042   24.5429 C   0  0  0  0  0  0  0  0  0  0  0  0
    6.2773  -22.8455   24.5982 O   0  0  0  0  0  0  0  0  0  0  0  0
    7.2980  -20.8389   24.4371 O   0  0  0  0  0  0  0  0  0  0  0  0
  2  1  1  0
  3  2  1  0
  4  3  2  0
  6  5  1  1
  6  7  1  0
  7  3  1  0
  8  9  2  0
  8  6  1  0
 10  8  1  0
 11 10  1  0
 12 11  1  0
 12 14  1  0
 13 12  2  0
M  END
$$$$
