GAG.pdb
     RDKit          3D

 14 13  0  0  1  0  0  0  0  0999 V2000
    4.8948  -18.2074   19.6509 N   0  0  0  0  0  0  0  0  0  0  0  0
    4.7763  -16.8654   20.1304 C   0  0  0  0  0  0  0  0  0  0  0  0
    6.1494  -16.3038   20.3842 C   0  0  0  0  0  0  0  0  0  0  0  0
    7.1592  -17.0510   20.4373 O   0  0  0  0  0  0  0  0  0  0  0  0
    7.6060  -12.8175   20.5477 C   0  0  0  0  0  0  0  0  0  0  0  0
    7.6668  -14.3236   20.7752 C   0  0  2  0  0  0  0  0  0  0  0  0
    6.3648  -14.9090   20.5743 N   0  0  0  0  0  0  0  0  0  0  0  0
    8.1267  -14.6614   22.1258 C   0  0  0  0  0  0  0  0  0  0  0  0
    7.3636  -14.5744   23.1141 O   0  0  0  0  0  0  0  0  0  0  0  0
    9.4598  -15.1080   22.4100 N   0  0  0  0  0  0  0  0  0  0  0  0
    9.8991  -15.4026   23.7364 C   0  0  0  0  0  0  0  0  0  0  0  0
   11.2781  -15.8523   23.8448 C   0  0  0  0  0  0  0  0  0  0  0  0
   11.9845  -16.0046   22.8268 O   0  0  0  0  0  0  0  0  0  0  0  0
   11.8368  -16.1207   25.0759 O   0  0  0  0  0  0  0  0  0  0  0  0
  2  1  1  0
  3  2  1  0
  4  3  2  0
  6  5  1  1
  6  7  1  0
  7  3  1  0
  8  9  2  0
  8  6  1  0
 10  8  1  0
 11 10  1  0
 12 11  1  0
 12 14  1  0
 13 12  2  0
M  END
$$$$
