GRQ.pdb
     RDKit          3D

 25 24  0  0  1  0  0  0  0  0999 V2000
   21.2524  -28.6635  -10.7739 N   0  0  0  0  0  0  0  0  0  0  0  0
   19.8249  -28.3546  -10.7362 C   0  0  0  0  0  0  0  0  0  0  0  0
   19.5818  -27.1606   -9.8858 C   0  0  0  0  0  0  0  0  0  0  0  0
   20.3025  -26.9573   -8.8767 O   0  0  0  0  0  0  0  0  0  0  0  0
   20.1526  -20.8314  -11.4742 N   0  0  0  0  0  0  0  0  0  0  0  0
   19.9345  -21.4295  -12.7603 C   0  0  0  0  0  0  0  0  0  0  0  0
   20.8364  -21.3347  -13.6772 N   0  0  0  0  0  0  0  0  0  0  0  0
   18.7460  -22.1328  -13.0678 N   0  0  0  0  0  0  0  0  0  0  0  0
   17.7888  -22.4837  -12.0400 C   0  0  0  0  0  0  0  0  0  0  0  0
   18.4947  -23.4629  -11.1142 C   0  0  0  0  0  0  0  0  0  0  0  0
   17.5733  -24.0515  -10.1004 C   0  0  0  0  0  0  0  0  0  0  0  0
   18.2821  -25.0835   -9.2593 C   0  0  2  0  0  0  0  0  0  0  0  0
   18.5602  -26.2212  -10.1584 N   0  0  0  0  0  0  0  0  0  0  0  0
   17.4376  -25.5435   -8.1219 C   0  0  0  0  0  0  0  0  0  0  0  0
   16.4346  -26.2671   -8.3014 O   0  0  0  0  0  0  0  0  0  0  0  0
   20.6381  -21.7113  -14.6252 N   0  0  0  0  0  0  0  0  0  0  0  0
   19.7406  -28.1217   -2.7167 C   0  0  0  0  0  0  0  0  0  0  0  0
   18.8899  -27.0319   -2.9328 O   0  0  0  0  0  0  0  0  0  0  0  0
   18.7332  -26.1460   -2.0875 C   0  0  0  0  0  0  0  0  0  0  0  0
   18.1490  -26.9461   -4.2363 C   0  0  0  0  0  0  0  0  0  0  0  0
   17.5112  -25.6128   -4.4122 C   0  0  2  0  0  0  0  0  0  0  0  0
   16.8085  -25.5152   -5.7358 N   0  0  0  0  0  0  0  0  0  0  0  0
   17.7554  -25.1669   -6.7911 C   0  0  0  0  0  0  0  0  0  0  0  0
   15.7019  -24.5541   -5.6724 O   0  0  0  0  0  0  0  0  0  0  0  0
   14.5580  -24.6697   -4.9254 O   0  0  0  0  0  0  0  0  0  0  0  0
  1  2  1  0
  2  3  1  0
  3 13  1  0
  4  3  2  0
  5  6  1  0
  6  7  2  0
  6  8  1  0
  8  9  1  0
  9 10  1  0
 12 11  1  6
 11 10  1  0
 12 14  1  0
 13 12  1  0
 14 15  2  0
 16 17  1  0
 17 18  2  0
 17 19  1  0
 19 20  1  0
 21 20  1  6
 21 23  1  0
 22 21  1  0
 22 14  1  0
 23 25  2  0
 23 24  1  0
M  END
$$$$
