GRQ.pdb
     RDKit          3D

 25 24  0  0  1  0  0  0  0  0999 V2000
   25.4963  -12.7075  -17.2947 N   0  0  0  0  0  0  0  0  0  0  0  0
   24.5842  -12.9288  -16.1750 C   0  0  0  0  0  0  0  0  0  0  0  0
   23.3164  -12.1849  -16.3928 C   0  0  0  0  0  0  0  0  0  0  0  0
   23.3499  -11.0241  -16.8727 O   0  0  0  0  0  0  0  0  0  0  0  0
   15.2089  -12.5824  -14.3702 N   0  0  0  0  0  0  0  0  0  0  0  0
   15.0543  -12.2610  -15.7602 C   0  0  0  0  0  0  0  0  0  0  0  0
   14.0202  -11.6016  -16.1588 N   0  0  0  0  0  0  0  0  0  0  0  0
   16.0104  -12.6466  -16.7292 N   0  0  0  0  0  0  0  0  0  0  0  0
   17.2116  -13.3655  -16.3605 C   0  0  0  0  0  0  0  0  0  0  0  0
   18.3547  -12.3663  -16.4558 C   0  0  0  0  0  0  0  0  0  0  0  0
   19.6797  -12.9902  -16.1765 C   0  0  0  0  0  0  0  0  0  0  0  0
   20.7954  -11.9894  -16.3449 C   0  0  2  0  0  0  0  0  0  0  0  0
   22.0475  -12.7265  -16.0818 N   0  0  0  0  0  0  0  0  0  0  0  0
   20.6728  -10.8587  -15.3832 C   0  0  0  0  0  0  0  0  0  0  0  0
   20.8084  -11.0278  -14.1525 O   0  0  0  0  0  0  0  0  0  0  0  0
   13.8966  -11.4162  -17.1737 N   0  0  0  0  0  0  0  0  0  0  0  0
   22.0295   -3.9007  -13.9673 C   0  0  0  0  0  0  0  0  0  0  0  0
   22.1206   -5.1127  -14.6606 O   0  0  0  0  0  0  0  0  0  0  0  0
   22.9303   -5.2836  -15.5767 C   0  0  0  0  0  0  0  0  0  0  0  0
   21.2009   -6.2343  -14.2712 C   0  0  0  0  0  0  0  0  0  0  0  0
   21.2411   -7.3406  -15.2661 C   0  0  2  0  0  0  0  0  0  0  0  0
   20.3374   -8.4698  -14.8623 N   0  0  0  0  0  0  0  0  0  0  0  0
   20.3958   -9.5463  -15.8469 C   0  0  0  0  0  0  0  0  0  0  0  0
   18.9622   -7.9973  -14.6682 O   0  0  0  0  0  0  0  0  0  0  0  0
   17.9040   -8.1838  -15.5199 O   0  0  0  0  0  0  0  0  0  0  0  0
  1  2  1  0
  2  3  1  0
  3 13  1  0
  4  3  2  0
  5  6  1  0
  6  7  2  0
  6  8  1  0
  8  9  1  0
  9 10  1  0
 12 11  1  1
 11 10  1  0
 12 14  1  0
 13 12  1  0
 14 15  2  0
 16 17  1  0
 17 18  2  0
 17 19  1  0
 19 20  1  0
 21 20  1  1
 21 23  1  0
 22 21  1  0
 22 14  1  0
 23 25  2  0
 23 24  1  0
M  END
$$$$
