GRQ.pdb
     RDKit          3D

 25 24  0  0  1  0  0  0  0  0999 V2000
   28.3423  -23.4988  -17.1571 N   0  0  0  0  0  0  0  0  0  0  0  0
   27.9634  -22.1641  -16.6993 C   0  0  0  0  0  0  0  0  0  0  0  0
   26.6500  -22.2144  -16.0061 C   0  0  0  0  0  0  0  0  0  0  0  0
   25.7406  -22.9603  -16.4480 O   0  0  0  0  0  0  0  0  0  0  0  0
   26.1201  -19.7531   -8.1499 N   0  0  0  0  0  0  0  0  0  0  0  0
   25.0459  -20.4912   -8.7503 C   0  0  0  0  0  0  0  0  0  0  0  0
   23.8781  -20.4908   -8.2034 N   0  0  0  0  0  0  0  0  0  0  0  0
   25.2212  -21.2336   -9.9420 N   0  0  0  0  0  0  0  0  0  0  0  0
   26.4861  -21.2443  -10.6458 C   0  0  0  0  0  0  0  0  0  0  0  0
   26.1995  -21.8002  -12.0326 C   0  0  0  0  0  0  0  0  0  0  0  0
   25.2519  -20.9450  -12.8031 C   0  0  0  0  0  0  0  0  0  0  0  0
   25.0419  -21.4876  -14.1945 C   0  0  2  0  0  0  0  0  0  0  0  0
   26.3641  -21.4505  -14.8506 N   0  0  0  0  0  0  0  0  0  0  0  0
   24.0782  -20.6587  -14.9708 C   0  0  0  0  0  0  0  0  0  0  0  0
   24.4000  -19.5453  -15.4384 O   0  0  0  0  0  0  0  0  0  0  0  0
   23.1122  -21.0399   -8.6414 N   0  0  0  0  0  0  0  0  0  0  0  0
   19.5248  -23.5195  -14.9773 C   0  0  0  0  0  0  0  0  0  0  0  0
   19.5046  -22.9206  -16.2417 O   0  0  0  0  0  0  0  0  0  0  0  0
   19.3205  -23.5741  -17.2728 C   0  0  0  0  0  0  0  0  0  0  0  0
   19.7144  -21.4366  -16.3374 C   0  0  0  0  0  0  0  0  0  0  0  0
   21.0418  -21.1123  -16.9276 C   0  0  1  0  0  0  0  0  0  0  0  0
   21.8644  -20.2744  -15.9914 N   0  0  0  0  0  0  0  0  0  0  0  0
   22.7557  -21.1188  -15.2013 C   0  0  0  0  0  0  0  0  0  0  0  0
   21.0059  -19.4523  -15.1316 O   0  0  0  0  0  0  0  0  0  0  0  0
   20.7844  -19.6252  -13.7896 O   0  0  0  0  0  0  0  0  0  0  0  0
  1  2  1  0
  2  3  1  0
  3 13  1  0
  4  3  2  0
  5  6  1  0
  6  7  2  0
  6  8  1  0
  8  9  1  0
  9 10  1  0
 12 11  1  1
 11 10  1  0
 12 14  1  0
 13 12  1  0
 14 15  2  0
 16 17  1  0
 17 18  2  0
 17 19  1  0
 19 20  1  0
 21 20  1  6
 21 23  1  0
 22 21  1  0
 22 14  1  0
 23 25  2  0
 23 24  1  0
M  END
$$$$
