GRQ.pdb
     RDKit          3D

 25 24  0  0  1  0  0  0  0  0999 V2000
   27.9478  -22.2374  -17.5985 N   0  0  0  0  0  0  0  0  0  0  0  0
   27.5993  -21.0660  -16.7978 C   0  0  0  0  0  0  0  0  0  0  0  0
   26.6621  -21.4497  -15.7104 C   0  0  0  0  0  0  0  0  0  0  0  0
   25.6911  -22.2062  -15.9630 O   0  0  0  0  0  0  0  0  0  0  0  0
   23.4458  -19.7742   -9.0631 N   0  0  0  0  0  0  0  0  0  0  0  0
   23.9655  -20.8667   -8.2913 C   0  0  0  0  0  0  0  0  0  0  0  0
   23.2613  -21.3762   -7.3387 N   0  0  0  0  0  0  0  0  0  0  0  0
   25.2449  -21.4175   -8.5395 N   0  0  0  0  0  0  0  0  0  0  0  0
   26.1236  -20.8624   -9.5471 C   0  0  0  0  0  0  0  0  0  0  0  0
   25.5221  -21.2376  -10.8931 C   0  0  0  0  0  0  0  0  0  0  0  0
   26.3929  -20.8388  -12.0358 C   0  0  0  0  0  0  0  0  0  0  0  0
   25.7732  -21.2349  -13.3525 C   0  0  2  0  0  0  0  0  0  0  0  0
   26.8089  -20.9985  -14.3781 N   0  0  0  0  0  0  0  0  0  0  0  0
   24.5687  -20.4162  -13.6644 C   0  0  0  0  0  0  0  0  0  0  0  0
   24.6553  -19.1980  -13.9296 O   0  0  0  0  0  0  0  0  0  0  0  0
   23.6598  -22.1498   -6.7707 N   0  0  0  0  0  0  0  0  0  0  0  0
   21.4173  -20.1261  -18.1865 C   0  0  0  0  0  0  0  0  0  0  0  0
   20.5601  -19.3523  -17.3964 O   0  0  0  0  0  0  0  0  0  0  0  0
   19.6325  -18.6991  -17.8833 C   0  0  0  0  0  0  0  0  0  0  0  0
   20.7831  -19.3216  -15.9116 C   0  0  0  0  0  0  0  0  0  0  0  0
   21.9644  -20.1392  -15.5223 C   0  0  1  0  0  0  0  0  0  0  0  0
   22.1411  -20.1661  -14.0313 N   0  0  0  0  0  0  0  0  0  0  0  0
   23.2783  -21.0068  -13.6681 C   0  0  0  0  0  0  0  0  0  0  0  0
   20.9125  -20.6126  -13.3655 O   0  0  0  0  0  0  0  0  0  0  0  0
   19.7797  -19.8700  -13.1527 O   0  0  0  0  0  0  0  0  0  0  0  0
  1  2  1  0
  2  3  1  0
  3 13  1  0
  4  3  2  0
  5  6  1  0
  6  7  2  0
  6  8  1  0
  8  9  1  0
  9 10  1  0
 12 11  1  1
 11 10  1  0
 12 14  1  0
 13 12  1  0
 14 15  2  0
 16 17  1  0
 17 18  2  0
 17 19  1  0
 19 20  1  0
 21 20  1  6
 21 23  1  0
 22 21  1  0
 22 14  1  0
 23 25  2  0
 23 24  1  0
M  END
$$$$
