GRQ.pdb
     RDKit          3D

 25 24  0  0  1  0  0  0  0  0999 V2000
   16.3048  -13.7689  -15.3691 N   0  0  0  0  0  0  0  0  0  0  0  0
   15.7422  -12.4209  -15.4004 C   0  0  0  0  0  0  0  0  0  0  0  0
   16.5472  -11.5103  -14.5454 C   0  0  0  0  0  0  0  0  0  0  0  0
   16.6912  -11.7679  -13.3241 O   0  0  0  0  0  0  0  0  0  0  0  0
   22.9381   -9.4576  -13.5592 N   0  0  0  0  0  0  0  0  0  0  0  0
   23.1509  -10.1623  -14.7910 C   0  0  0  0  0  0  0  0  0  0  0  0
   24.0596  -11.0744  -14.8638 N   0  0  0  0  0  0  0  0  0  0  0  0
   22.3881   -9.8904  -15.9512 N   0  0  0  0  0  0  0  0  0  0  0  0
   21.2874   -8.9505  -15.9281 C   0  0  0  0  0  0  0  0  0  0  0  0
   20.1988   -9.5871  -15.0773 C   0  0  0  0  0  0  0  0  0  0  0  0
   18.9571   -8.7629  -15.0333 C   0  0  0  0  0  0  0  0  0  0  0  0
   17.9071   -9.4120  -14.1666 C   0  0  2  0  0  0  0  0  0  0  0  0
   17.1727  -10.3444  -15.0450 N   0  0  0  0  0  0  0  0  0  0  0  0
   16.9602   -8.4101  -13.6027 C   0  0  0  0  0  0  0  0  0  0  0  0
   16.1245   -7.8213  -14.3215 O   0  0  0  0  0  0  0  0  0  0  0  0
   24.1611  -11.6209  -15.7418 N   0  0  0  0  0  0  0  0  0  0  0  0
   15.1793   -7.3875   -7.6448 C   0  0  0  0  0  0  0  0  0  0  0  0
   14.6784   -6.2584   -8.3022 O   0  0  0  0  0  0  0  0  0  0  0  0
   14.0044   -5.4055   -7.7170 C   0  0  0  0  0  0  0  0  0  0  0  0
   14.9749   -6.0875   -9.7645 C   0  0  0  0  0  0  0  0  0  0  0  0
   15.8106   -7.2042  -10.2838 C   0  0  1  0  0  0  0  0  0  0  0  0
   16.1128   -7.0254  -11.7439 N   0  0  0  0  0  0  0  0  0  0  0  0
   16.9841   -8.0964  -12.2188 C   0  0  0  0  0  0  0  0  0  0  0  0
   16.7001   -5.7057  -12.0002 O   0  0  0  0  0  0  0  0  0  0  0  0
   18.0317   -5.3811  -11.9671 O   0  0  0  0  0  0  0  0  0  0  0  0
  1  2  1  0
  2  3  1  0
  3 13  1  0
  4  3  2  0
  5  6  1  0
  6  7  2  0
  6  8  1  0
  8  9  1  0
  9 10  1  0
 12 11  1  6
 11 10  1  0
 12 14  1  0
 13 12  1  0
 14 15  2  0
 16 17  1  0
 17 18  2  0
 17 19  1  0
 19 20  1  0
 21 20  1  6
 21 23  1  0
 22 21  1  0
 22 14  1  0
 23 25  2  0
 23 24  1  0
M  END
$$$$
