GRQ.pdb
     RDKit          3D

 25 24  0  0  1  0  0  0  0  0999 V2000
   21.1161  -29.0558  -11.8047 N   0  0  0  0  0  0  0  0  0  0  0  0
   20.0538  -28.1283  -12.1866 C   0  0  0  0  0  0  0  0  0  0  0  0
   19.9924  -26.9966  -11.2255 C   0  0  0  0  0  0  0  0  0  0  0  0
   20.6351  -27.0592  -10.1476 O   0  0  0  0  0  0  0  0  0  0  0  0
   20.7164  -21.1890  -15.3831 N   0  0  0  0  0  0  0  0  0  0  0  0
   19.6420  -22.1388  -15.4379 C   0  0  0  0  0  0  0  0  0  0  0  0
   19.3915  -22.7670  -16.5359 N   0  0  0  0  0  0  0  0  0  0  0  0
   18.8312  -22.4186  -14.3127 N   0  0  0  0  0  0  0  0  0  0  0  0
   19.1268  -21.8587  -13.0109 C   0  0  0  0  0  0  0  0  0  0  0  0
   19.6511  -23.0061  -12.1606 C   0  0  0  0  0  0  0  0  0  0  0  0
   18.6195  -23.5367  -11.2239 C   0  0  0  0  0  0  0  0  0  0  0  0
   19.1366  -24.7386  -10.4737 C   0  0  2  0  0  0  0  0  0  0  0  0
   19.2326  -25.8282  -11.4657 N   0  0  0  0  0  0  0  0  0  0  0  0
   18.2137  -25.1443   -9.3774 C   0  0  0  0  0  0  0  0  0  0  0  0
   17.0357  -25.4921   -9.6077 O   0  0  0  0  0  0  0  0  0  0  0  0
   18.5743  -23.4073  -16.5794 N   0  0  0  0  0  0  0  0  0  0  0  0
   18.3347  -29.5696   -5.8018 C   0  0  0  0  0  0  0  0  0  0  0  0
   17.2562  -28.9021   -5.2111 O   0  0  0  0  0  0  0  0  0  0  0  0
   16.5064  -29.4569   -4.4024 C   0  0  0  0  0  0  0  0  0  0  0  0
   17.0111  -27.4666   -5.5784 C   0  0  0  0  0  0  0  0  0  0  0  0
   18.0163  -26.9777   -6.5612 C   0  0  2  0  0  0  0  0  0  0  0  0
   17.7119  -25.5741   -6.9996 N   0  0  0  0  0  0  0  0  0  0  0  0
   18.6551  -25.1458   -8.0286 C   0  0  0  0  0  0  0  0  0  0  0  0
   17.7153  -24.6551   -5.8561 O   0  0  0  0  0  0  0  0  0  0  0  0
   16.7128  -24.4888   -4.9356 O   0  0  0  0  0  0  0  0  0  0  0  0
  1  2  1  0
  2  3  1  0
  3 13  1  0
  4  3  2  0
  5  6  1  0
  6  7  2  0
  6  8  1  0
  8  9  1  0
  9 10  1  0
 12 11  1  6
 11 10  1  0
 12 14  1  0
 13 12  1  0
 14 15  2  0
 16 17  1  0
 17 18  2  0
 17 19  1  0
 19 20  1  0
 21 20  1  6
 21 23  1  0
 22 21  1  0
 22 14  1  0
 23 25  2  0
 23 24  1  0
M  END
$$$$
