GRQ.pdb
     RDKit          3D

 25 24  0  0  1  0  0  0  0  0999 V2000
   25.5252  -12.6725  -16.4125 N   0  0  0  0  0  0  0  0  0  0  0  0
   25.0340  -11.8864  -15.2833 C   0  0  0  0  0  0  0  0  0  0  0  0
   24.0480  -10.8782  -15.7519 C   0  0  0  0  0  0  0  0  0  0  0  0
   24.2727  -10.2294  -16.8042 O   0  0  0  0  0  0  0  0  0  0  0  0
   16.1417  -13.2844  -15.0695 N   0  0  0  0  0  0  0  0  0  0  0  0
   17.0337  -13.5529  -16.1611 C   0  0  0  0  0  0  0  0  0  0  0  0
   16.7527  -14.4816  -17.0104 N   0  0  0  0  0  0  0  0  0  0  0  0
   18.2325  -12.8244  -16.3456 N   0  0  0  0  0  0  0  0  0  0  0  0
   18.6140  -11.7574  -15.4447 C   0  0  0  0  0  0  0  0  0  0  0  0
   19.9457  -11.2247  -15.9519 C   0  0  0  0  0  0  0  0  0  0  0  0
   20.5028  -10.1572  -15.0726 C   0  0  0  0  0  0  0  0  0  0  0  0
   21.8327   -9.6690  -15.5901 C   0  0  2  0  0  0  0  0  0  0  0  0
   22.8447  -10.6050  -15.0608 N   0  0  0  0  0  0  0  0  0  0  0  0
   22.1362   -8.2894  -15.1178 C   0  0  0  0  0  0  0  0  0  0  0  0
   22.4370   -8.0558  -13.9276 O   0  0  0  0  0  0  0  0  0  0  0  0
   17.4250  -14.6911  -17.7746 N   0  0  0  0  0  0  0  0  0  0  0  0
   22.5576   -2.9359  -18.5318 C   0  0  0  0  0  0  0  0  0  0  0  0
   22.7971   -2.4953  -17.2255 O   0  0  0  0  0  0  0  0  0  0  0  0
   23.0483   -1.3142  -16.9687 C   0  0  0  0  0  0  0  0  0  0  0  0
   22.7451   -3.4974  -16.1080 C   0  0  0  0  0  0  0  0  0  0  0  0
   22.3974   -4.8545  -16.6107 C   0  0  2  0  0  0  0  0  0  0  0  0
   22.4243   -5.8690  -15.5039 N   0  0  0  0  0  0  0  0  0  0  0  0
   22.0908   -7.1939  -16.0189 C   0  0  0  0  0  0  0  0  0  0  0  0
   21.5253   -5.4783  -14.4124 O   0  0  0  0  0  0  0  0  0  0  0  0
   20.1593   -5.5938  -14.3950 O   0  0  0  0  0  0  0  0  0  0  0  0
  1  2  1  0
  2  3  1  0
  3 13  1  0
  4  3  2  0
  5  6  1  0
  6  7  2  0
  6  8  1  0
  8  9  1  0
  9 10  1  0
 12 11  1  1
 11 10  1  0
 12 14  1  0
 13 12  1  0
 14 15  2  0
 16 17  1  0
 17 18  2  0
 17 19  1  0
 19 20  1  0
 21 20  1  6
 21 23  1  0
 22 21  1  0
 22 14  1  0
 23 25  2  0
 23 24  1  0
M  END
$$$$
