GRQ.pdb
     RDKit          3D

 25 24  0  0  1  0  0  0  0  0999 V2000
   19.6283  -14.4010  -21.6130 N   0  0  0  0  0  0  0  0  0  0  0  0
   19.6990  -12.9595  -21.3857 C   0  0  0  0  0  0  0  0  0  0  0  0
   19.7063  -12.6709  -19.9280 C   0  0  0  0  0  0  0  0  0  0  0  0
   19.2819  -13.5345  -19.1199 O   0  0  0  0  0  0  0  0  0  0  0  0
   20.6886   -8.4744  -12.7217 N   0  0  0  0  0  0  0  0  0  0  0  0
   21.3082   -7.8137  -13.8348 C   0  0  0  0  0  0  0  0  0  0  0  0
   20.9298   -6.6283  -14.1736 N   0  0  0  0  0  0  0  0  0  0  0  0
   22.3378   -8.4235  -14.5896 N   0  0  0  0  0  0  0  0  0  0  0  0
   22.2372   -8.5666  -16.0266 C   0  0  0  0  0  0  0  0  0  0  0  0
   21.2947   -9.7345  -16.2754 C   0  0  0  0  0  0  0  0  0  0  0  0
   21.1531  -10.0516  -17.7254 C   0  0  0  0  0  0  0  0  0  0  0  0
   20.1761  -11.1805  -17.9396 C   0  0  2  0  0  0  0  0  0  0  0  0
   20.1759  -11.4495  -19.3915 N   0  0  0  0  0  0  0  0  0  0  0  0
   18.8011  -10.8113  -17.5021 C   0  0  0  0  0  0  0  0  0  0  0  0
   18.1569   -9.9005  -18.0653 O   0  0  0  0  0  0  0  0  0  0  0  0
   21.3035   -6.2062  -15.0465 N   0  0  0  0  0  0  0  0  0  0  0  0
   14.5318  -14.2739  -14.5371 C   0  0  0  0  0  0  0  0  0  0  0  0
   13.8899  -13.0341  -14.6308 O   0  0  0  0  0  0  0  0  0  0  0  0
   12.7149  -12.8776  -14.2860 C   0  0  0  0  0  0  0  0  0  0  0  0
   14.6621  -11.8637  -15.1687 C   0  0  0  0  0  0  0  0  0  0  0  0
   16.0211  -12.2702  -15.6196 C   0  0  1  0  0  0  0  0  0  0  0  0
   16.8376  -11.0790  -16.0313 N   0  0  0  0  0  0  0  0  0  0  0  0
   18.1819  -11.4932  -16.4225 C   0  0  0  0  0  0  0  0  0  0  0  0
   16.8778  -10.0757  -14.9618 O   0  0  0  0  0  0  0  0  0  0  0  0
   16.0517   -8.9900  -14.8254 O   0  0  0  0  0  0  0  0  0  0  0  0
  1  2  1  0
  2  3  1  0
  3 13  1  0
  4  3  2  0
  5  6  1  0
  6  7  2  0
  6  8  1  0
  8  9  1  0
  9 10  1  0
 12 11  1  6
 11 10  1  0
 12 14  1  0
 13 12  1  0
 14 15  2  0
 16 17  1  0
 17 18  2  0
 17 19  1  0
 19 20  1  0
 21 20  1  6
 21 23  1  0
 22 21  1  0
 22 14  1  0
 23 25  2  0
 23 24  1  0
M  END
$$$$
