GRQ.pdb
     RDKit          3D

 25 24  0  0  1  0  0  0  0  0999 V2000
   31.7876  -21.9879  -11.2764 N   0  0  0  0  0  0  0  0  0  0  0  0
   30.8915  -20.9924  -10.6928 C   0  0  0  0  0  0  0  0  0  0  0  0
   29.5387  -21.1045  -11.2973 C   0  0  0  0  0  0  0  0  0  0  0  0
   29.4067  -21.6123  -12.4390 O   0  0  0  0  0  0  0  0  0  0  0  0
   21.2459  -21.3462   -7.7482 N   0  0  0  0  0  0  0  0  0  0  0  0
   21.1936  -21.3698   -9.1821 C   0  0  0  0  0  0  0  0  0  0  0  0
   20.0576  -21.4666   -9.7848 N   0  0  0  0  0  0  0  0  0  0  0  0
   22.3620  -21.2893   -9.9759 N   0  0  0  0  0  0  0  0  0  0  0  0
   23.6584  -21.0281   -9.3871 C   0  0  0  0  0  0  0  0  0  0  0  0
   24.6593  -21.0411  -10.5327 C   0  0  0  0  0  0  0  0  0  0  0  0
   26.0586  -20.8211  -10.0674 C   0  0  0  0  0  0  0  0  0  0  0  0
   27.0241  -20.8441  -11.2259 C   0  0  2  0  0  0  0  0  0  0  0  0
   28.3673  -20.6602  -10.6409 N   0  0  0  0  0  0  0  0  0  0  0  0
   26.7496  -19.7472  -12.1953 C   0  0  0  0  0  0  0  0  0  0  0  0
   26.9047  -18.5461  -11.8867 O   0  0  0  0  0  0  0  0  0  0  0  0
   20.0345  -21.4915  -10.8234 N   0  0  0  0  0  0  0  0  0  0  0  0
   29.1929  -18.4091  -17.1366 C   0  0  0  0  0  0  0  0  0  0  0  0
   28.5657  -19.6599  -17.1324 O   0  0  0  0  0  0  0  0  0  0  0  0
   28.9497  -20.5872  -17.8513 C   0  0  0  0  0  0  0  0  0  0  0  0
   27.3899  -19.8714  -16.2223 C   0  0  0  0  0  0  0  0  0  0  0  0
   27.1688  -18.6950  -15.3378 C   0  0  1  0  0  0  0  0  0  0  0  0
   26.0158  -18.9248  -14.4034 N   0  0  0  0  0  0  0  0  0  0  0  0
   26.3002  -20.0429  -13.5085 C   0  0  0  0  0  0  0  0  0  0  0  0
   24.7712  -19.1408  -15.1494 O   0  0  0  0  0  0  0  0  0  0  0  0
   24.0336  -20.2956  -15.1956 O   0  0  0  0  0  0  0  0  0  0  0  0
  1  2  1  0
  2  3  1  0
  3 13  1  0
  4  3  2  0
  5  6  1  0
  6  7  2  0
  6  8  1  0
  8  9  1  0
  9 10  1  0
 12 11  1  1
 11 10  1  0
 12 14  1  0
 13 12  1  0
 14 15  2  0
 16 17  1  0
 17 18  2  0
 17 19  1  0
 19 20  1  0
 21 20  1  1
 21 23  1  0
 22 21  1  0
 22 14  1  0
 23 25  2  0
 23 24  1  0
M  END
$$$$
