GRQ.pdb
     RDKit          3D

 25 24  0  0  1  0  0  0  0  0999 V2000
   28.1895  -24.0422  -17.0129 N   0  0  0  0  0  0  0  0  0  0  0  0
   28.1531  -22.5886  -16.8708 C   0  0  0  0  0  0  0  0  0  0  0  0
   27.0592  -22.1919  -15.9465 C   0  0  0  0  0  0  0  0  0  0  0  0
   26.1106  -22.9860  -15.7269 O   0  0  0  0  0  0  0  0  0  0  0  0
   26.5763  -20.5455   -8.8659 N   0  0  0  0  0  0  0  0  0  0  0  0
   25.3189  -20.6583   -9.5481 C   0  0  0  0  0  0  0  0  0  0  0  0
   24.2180  -20.6565   -8.8764 N   0  0  0  0  0  0  0  0  0  0  0  0
   25.2379  -20.7733  -10.9559 N   0  0  0  0  0  0  0  0  0  0  0  0
   26.3207  -21.3416  -11.7307 C   0  0  0  0  0  0  0  0  0  0  0  0
   27.1333  -20.1676  -12.2557 C   0  0  0  0  0  0  0  0  0  0  0  0
   26.5012  -19.5248  -13.4432 C   0  0  0  0  0  0  0  0  0  0  0  0
   25.9294  -20.5602  -14.3790 C   0  0  2  0  0  0  0  0  0  0  0  0
   27.0296  -20.9410  -15.2872 N   0  0  0  0  0  0  0  0  0  0  0  0
   24.7930  -20.0180  -15.1746 C   0  0  0  0  0  0  0  0  0  0  0  0
   24.9422  -19.0564  -15.9587 O   0  0  0  0  0  0  0  0  0  0  0  0
   23.3170  -20.7836   -9.3782 N   0  0  0  0  0  0  0  0  0  0  0  0
   23.0260  -23.4072  -17.5140 C   0  0  0  0  0  0  0  0  0  0  0  0
   23.2351  -22.3654  -18.4244 O   0  0  0  0  0  0  0  0  0  0  0  0
   23.8669  -22.5287  -19.4723 C   0  0  0  0  0  0  0  0  0  0  0  0
   22.6699  -21.0104  -18.1083 C   0  0  0  0  0  0  0  0  0  0  0  0
   21.8960  -21.0273  -16.8370 C   0  0  2  0  0  0  0  0  0  0  0  0
   22.4235  -20.0121  -15.8644 N   0  0  0  0  0  0  0  0  0  0  0  0
   23.4980  -20.5870  -15.0602 C   0  0  0  0  0  0  0  0  0  0  0  0
   21.3460  -19.4865  -15.0188 O   0  0  0  0  0  0  0  0  0  0  0  0
   21.2935  -19.5111  -13.6490 O   0  0  0  0  0  0  0  0  0  0  0  0
  1  2  1  0
  2  3  1  0
  3 13  1  0
  4  3  2  0
  5  6  1  0
  6  7  2  0
  6  8  1  0
  8  9  1  0
  9 10  1  0
 12 11  1  1
 11 10  1  0
 12 14  1  0
 13 12  1  0
 14 15  2  0
 16 17  1  0
 17 18  2  0
 17 19  1  0
 19 20  1  0
 21 20  1  6
 21 23  1  0
 22 21  1  0
 22 14  1  0
 23 25  2  0
 23 24  1  0
M  END
$$$$
