GRQ.pdb
     RDKit          3D

 25 24  0  0  1  0  0  0  0  0999 V2000
   29.6341  -23.4641  -17.7374 N   0  0  0  0  0  0  0  0  0  0  0  0
   29.3295  -22.0528  -17.9609 C   0  0  0  0  0  0  0  0  0  0  0  0
   28.2371  -21.6150  -17.0536 C   0  0  0  0  0  0  0  0  0  0  0  0
   27.2323  -22.3511  -16.8879 O   0  0  0  0  0  0  0  0  0  0  0  0
   25.8586  -22.0361  -10.5785 N   0  0  0  0  0  0  0  0  0  0  0  0
   25.4590  -20.6582  -10.5439 C   0  0  0  0  0  0  0  0  0  0  0  0
   24.5630  -20.2673   -9.7028 N   0  0  0  0  0  0  0  0  0  0  0  0
   26.0204  -19.6932  -11.4130 N   0  0  0  0  0  0  0  0  0  0  0  0
   25.9835  -19.8593  -12.8506 C   0  0  0  0  0  0  0  0  0  0  0  0
   26.7147  -18.6619  -13.4387 C   0  0  0  0  0  0  0  0  0  0  0  0
   27.7425  -19.0606  -14.4425 C   0  0  0  0  0  0  0  0  0  0  0  0
   27.1410  -19.9327  -15.5160 C   0  0  2  0  0  0  0  0  0  0  0  0
   28.2699  -20.3874  -16.3521 N   0  0  0  0  0  0  0  0  0  0  0  0
   26.1697  -19.1809  -16.3583 C   0  0  0  0  0  0  0  0  0  0  0  0
   26.5299  -18.2264  -17.0802 O   0  0  0  0  0  0  0  0  0  0  0  0
   24.2355  -19.2815   -9.7316 N   0  0  0  0  0  0  0  0  0  0  0  0
   24.2197  -21.5146  -19.9894 C   0  0  0  0  0  0  0  0  0  0  0  0
   23.5262  -21.9626  -18.8598 O   0  0  0  0  0  0  0  0  0  0  0  0
   23.3143  -23.1614  -18.6544 C   0  0  0  0  0  0  0  0  0  0  0  0
   23.0279  -20.9465  -17.8724 C   0  0  0  0  0  0  0  0  0  0  0  0
   23.3432  -19.5603  -18.3132 C   0  0  1  0  0  0  0  0  0  0  0  0
   23.8850  -18.7379  -17.1795 N   0  0  0  0  0  0  0  0  0  0  0  0
   24.7953  -19.5344  -16.3618 C   0  0  0  0  0  0  0  0  0  0  0  0
   22.7965  -18.1748  -16.3731 O   0  0  0  0  0  0  0  0  0  0  0  0
   22.0461  -17.0663  -16.6696 O   0  0  0  0  0  0  0  0  0  0  0  0
  1  2  1  0
  2  3  1  0
  3 13  1  0
  4  3  2  0
  5  6  1  0
  6  7  2  0
  6  8  1  0
  8  9  1  0
  9 10  1  0
 12 11  1  1
 11 10  1  0
 12 14  1  0
 13 12  1  0
 14 15  2  0
 16 17  1  0
 17 18  2  0
 17 19  1  0
 19 20  1  0
 21 20  1  6
 21 23  1  0
 22 21  1  0
 22 14  1  0
 23 25  2  0
 23 24  1  0
M  END
$$$$
