ISG.pdb
     RDKit          3D

 19 18  0  0  1  0  0  0  0  0999 V2000
    6.9970  -11.0842   27.0297 C   0  0  0  0  0  0  0  0  0  0  0  0
    7.2807  -12.5332   27.3194 C   0  0  0  0  0  0  0  0  0  0  0  0
    6.8768  -13.3696   26.1395 C   0  0  2  0  0  0  0  0  0  0  0  0
    5.4010  -13.1294   25.7966 C   0  0  0  0  0  0  0  0  0  0  0  0
    7.1564  -14.8354   26.2576 C   0  0  2  0  0  0  0  0  0  0  0  0
    8.1328  -14.9848   27.3695 N   0  0  0  0  0  0  0  0  0  0  0  0
    7.6915  -15.5303   25.1135 C   0  0  0  0  0  0  0  0  0  0  0  0
    6.8376  -16.0256   24.2873 O   0  0  0  0  0  0  0  0  0  0  0  0
    9.2150  -14.8521   21.8629 O   0  0  0  0  0  0  0  0  0  0  0  0
    8.6949  -16.0597   22.3327 C   0  0  0  0  0  0  0  0  0  0  0  0
    9.4064  -16.5272   23.5758 C   0  0  2  0  0  0  0  0  0  0  0  0
    9.0285  -15.7585   24.7450 N   0  0  0  0  0  0  0  0  0  0  0  0
   10.8685  -16.3933   23.3566 C   0  0  0  0  0  0  0  0  0  0  0  0
   11.5095  -15.3507   23.6748 O   0  0  0  0  0  0  0  0  0  0  0  0
   11.5915  -17.4810   22.7621 N   0  0  0  0  0  0  0  0  0  0  0  0
   12.8320  -17.9580   23.3062 C   0  0  0  0  0  0  0  0  0  0  0  0
   13.9969  -17.2060   22.7754 C   0  0  0  0  0  0  0  0  0  0  0  0
   13.8256  -16.2140   21.8223 O   0  0  0  0  0  0  0  0  0  0  0  0
   15.1638  -17.4428   23.1695 O   0  0  0  0  0  0  0  0  0  0  0  0
  2  1  1  0
  3  2  1  0
  3  4  1  1
  5  3  1  0
  5  7  1  0
  5  6  1  1
  7  8  2  0
 10  9  1  0
 11 10  1  6
 12 11  1  0
 12  7  1  0
 13 11  1  0
 13 15  1  0
 14 13  2  0
 16 15  1  0
 16 17  1  0
 17 18  1  0
 19 17  2  0
M  END
$$$$
