ISG.pdb
     RDKit          3D

 19 18  0  0  1  0  0  0  0  0999 V2000
    6.3704  -11.6802   27.4129 C   0  0  0  0  0  0  0  0  0  0  0  0
    5.8735  -12.9426   26.7620 C   0  0  0  0  0  0  0  0  0  0  0  0
    6.9983  -13.5983   26.0140 C   0  0  2  0  0  0  0  0  0  0  0  0
    7.6693  -12.5914   25.0711 C   0  0  0  0  0  0  0  0  0  0  0  0
    6.6430  -14.8517   25.2767 C   0  0  2  0  0  0  0  0  0  0  0  0
    6.1437  -15.8090   26.2994 N   0  0  0  0  0  0  0  0  0  0  0  0
    7.6706  -15.5218   24.5197 C   0  0  0  0  0  0  0  0  0  0  0  0
    8.5204  -16.2186   25.1903 O   0  0  0  0  0  0  0  0  0  0  0  0
    8.5945  -15.1002   20.4476 O   0  0  0  0  0  0  0  0  0  0  0  0
    8.8702  -16.3402   21.0269 C   0  0  0  0  0  0  0  0  0  0  0  0
    9.0130  -16.2372   22.5233 C   0  0  2  0  0  0  0  0  0  0  0  0
    7.8990  -15.5386   23.1330 N   0  0  0  0  0  0  0  0  0  0  0  0
   10.2697  -15.5065   22.8242 C   0  0  0  0  0  0  0  0  0  0  0  0
   10.2915  -14.2656   23.0665 O   0  0  0  0  0  0  0  0  0  0  0  0
   11.5117  -16.2250   22.8437 N   0  0  0  0  0  0  0  0  0  0  0  0
   12.7704  -15.5639   23.0462 C   0  0  0  0  0  0  0  0  0  0  0  0
   13.9058  -16.5205   23.0509 C   0  0  0  0  0  0  0  0  0  0  0  0
   15.2074  -16.0749   23.2221 O   0  0  0  0  0  0  0  0  0  0  0  0
   13.7246  -17.7525   22.9013 O   0  0  0  0  0  0  0  0  0  0  0  0
  2  1  1  0
  3  2  1  0
  3  4  1  6
  5  3  1  0
  5  7  1  0
  5  6  1  1
  7  8  2  0
 10  9  1  0
 11 10  1  6
 12 11  1  0
 12  7  1  0
 13 11  1  0
 13 15  1  0
 14 13  2  0
 16 15  1  0
 16 17  1  0
 17 18  1  0
 19 17  2  0
M  END
$$$$
