ISG.pdb
     RDKit          3D

 19 18  0  0  1  0  0  0  0  0999 V2000
    6.4283  -11.8853   27.3882 C   0  0  0  0  0  0  0  0  0  0  0  0
    5.9422  -13.0668   26.5934 C   0  0  0  0  0  0  0  0  0  0  0  0
    7.1119  -13.7566   25.9526 C   0  0  2  0  0  0  0  0  0  0  0  0
    7.9143  -12.7644   25.1011 C   0  0  0  0  0  0  0  0  0  0  0  0
    6.7865  -14.9845   25.1607 C   0  0  2  0  0  0  0  0  0  0  0  0
    6.1469  -15.9344   26.1096 N   0  0  0  0  0  0  0  0  0  0  0  0
    7.8602  -15.6856   24.5021 C   0  0  0  0  0  0  0  0  0  0  0  0
    8.6254  -16.4027   25.2488 O   0  0  0  0  0  0  0  0  0  0  0  0
    8.2372  -15.9739   20.5824 O   0  0  0  0  0  0  0  0  0  0  0  0
    9.3602  -16.5774   21.1516 C   0  0  0  0  0  0  0  0  0  0  0  0
    9.3954  -16.3919   22.6464 C   0  0  2  0  0  0  0  0  0  0  0  0
    8.2141  -15.7142   23.1422 N   0  0  0  0  0  0  0  0  0  0  0  0
   10.5969  -15.5909   22.9905 C   0  0  0  0  0  0  0  0  0  0  0  0
   10.5516  -14.3386   23.1603 O   0  0  0  0  0  0  0  0  0  0  0  0
   11.8621  -16.2517   23.1383 N   0  0  0  0  0  0  0  0  0  0  0  0
   13.0611  -15.5346   23.4711 C   0  0  0  0  0  0  0  0  0  0  0  0
   14.2528  -16.4201   23.4826 C   0  0  0  0  0  0  0  0  0  0  0  0
   14.1292  -17.7781   23.2323 O   0  0  0  0  0  0  0  0  0  0  0  0
   15.4000  -15.9709   23.7173 O   0  0  0  0  0  0  0  0  0  0  0  0
  2  1  1  0
  3  2  1  0
  3  4  1  6
  5  3  1  0
  5  7  1  0
  5  6  1  1
  7  8  2  0
 10  9  1  0
 11 10  1  6
 12 11  1  0
 12  7  1  0
 13 11  1  0
 13 15  1  0
 14 13  2  0
 16 15  1  0
 16 17  1  0
 17 18  1  0
 19 17  2  0
M  END
$$$$
