ISG.pdb
     RDKit          3D

 19 18  0  0  1  0  0  0  0  0999 V2000
    7.5929  -12.0180   19.3610 C   0  0  0  0  0  0  0  0  0  0  0  0
    7.3231  -13.4227   19.8281 C   0  0  0  0  0  0  0  0  0  0  0  0
    8.2797  -13.7780   20.9296 C   0  0  2  0  0  0  0  0  0  0  0  0
    9.7277  -13.5966   20.4567 C   0  0  0  0  0  0  0  0  0  0  0  0
    8.0925  -15.1323   21.5393 C   0  0  2  0  0  0  0  0  0  0  0  0
    6.6689  -15.2047   21.9634 N   0  0  0  0  0  0  0  0  0  0  0  0
    8.9028  -15.4959   22.6747 C   0  0  0  0  0  0  0  0  0  0  0  0
    8.5849  -14.9666   23.8044 O   0  0  0  0  0  0  0  0  0  0  0  0
   10.8994  -18.8937   23.3684 O   0  0  0  0  0  0  0  0  0  0  0  0
   10.7142  -18.0034   24.4279 C   0  0  0  0  0  0  0  0  0  0  0  0
   10.7671  -16.5698   23.9673 C   0  0  2  0  0  0  0  0  0  0  0  0
   10.0107  -16.3577   22.7493 N   0  0  0  0  0  0  0  0  0  0  0  0
   12.1866  -16.2071   23.7284 C   0  0  0  0  0  0  0  0  0  0  0  0
   13.0501  -16.2015   24.6523 O   0  0  0  0  0  0  0  0  0  0  0  0
   12.6057  -15.8476   22.4039 N   0  0  0  0  0  0  0  0  0  0  0  0
   13.9675  -15.5049   22.1031 C   0  0  0  0  0  0  0  0  0  0  0  0
   14.1726  -15.2657   20.6523 C   0  0  0  0  0  0  0  0  0  0  0  0
   15.3825  -14.7830   20.1775 O   0  0  0  0  0  0  0  0  0  0  0  0
   13.2648  -15.4910   19.8168 O   0  0  0  0  0  0  0  0  0  0  0  0
  2  1  1  0
  3  2  1  0
  3  4  1  6
  5  3  1  0
  5  7  1  0
  5  6  1  1
  7  8  2  0
 10  9  1  0
 11 10  1  6
 12 11  1  0
 12  7  1  0
 13 11  1  0
 13 15  1  0
 14 13  2  0
 16 15  1  0
 16 17  1  0
 17 18  1  0
 19 17  2  0
M  END
$$$$
