ISG.pdb
     RDKit          3D

 19 18  0  0  1  0  0  0  0  0999 V2000
    6.1747  -11.7862   27.2613 C   0  0  0  0  0  0  0  0  0  0  0  0
    5.7669  -13.0934   26.6375 C   0  0  0  0  0  0  0  0  0  0  0  0
    6.9294  -13.6755   25.8861 C   0  0  2  0  0  0  0  0  0  0  0  0
    7.4596  -12.6660   24.8600 C   0  0  0  0  0  0  0  0  0  0  0  0
    6.6838  -15.0025   25.2383 C   0  0  2  0  0  0  0  0  0  0  0  0
    6.2155  -15.9123   26.3176 N   0  0  0  0  0  0  0  0  0  0  0  0
    7.7789  -15.6550   24.5651 C   0  0  0  0  0  0  0  0  0  0  0  0
    8.6780  -16.1934   25.3129 O   0  0  0  0  0  0  0  0  0  0  0  0
    8.7529  -15.6830   20.4463 O   0  0  0  0  0  0  0  0  0  0  0  0
    9.0498  -16.8181   21.2031 C   0  0  0  0  0  0  0  0  0  0  0  0
    9.1922  -16.4908   22.6669 C   0  0  2  0  0  0  0  0  0  0  0  0
    8.0286  -15.8029   23.1899 N   0  0  0  0  0  0  0  0  0  0  0  0
   10.3870  -15.6269   22.8392 C   0  0  0  0  0  0  0  0  0  0  0  0
   10.3245  -14.3649   22.7902 O   0  0  0  0  0  0  0  0  0  0  0  0
   11.6657  -16.2359   23.0706 N   0  0  0  0  0  0  0  0  0  0  0  0
   12.8563  -15.4563   23.2633 C   0  0  0  0  0  0  0  0  0  0  0  0
   14.0562  -16.3112   23.4471 C   0  0  0  0  0  0  0  0  0  0  0  0
   13.9455  -17.6929   23.4688 O   0  0  0  0  0  0  0  0  0  0  0  0
   15.1991  -15.8140   23.5873 O   0  0  0  0  0  0  0  0  0  0  0  0
  2  1  1  0
  3  2  1  0
  3  4  1  6
  5  3  1  0
  5  7  1  0
  5  6  1  1
  7  8  2  0
 10  9  1  0
 11 10  1  6
 12 11  1  0
 12  7  1  0
 13 11  1  0
 13 15  1  0
 14 13  2  0
 16 15  1  0
 16 17  1  0
 17 18  1  0
 19 17  2  0
M  END
$$$$
