ISG.pdb
     RDKit          3D

 19 18  0  0  1  0  0  0  0  0999 V2000
    6.5663  -11.6507   27.2700 C   0  0  0  0  0  0  0  0  0  0  0  0
    6.0898  -12.9579   26.6971 C   0  0  0  0  0  0  0  0  0  0  0  0
    7.2171  -13.6254   25.9635 C   0  0  2  0  0  0  0  0  0  0  0  0
    7.8162  -12.6695   24.9241 C   0  0  0  0  0  0  0  0  0  0  0  0
    6.8915  -14.9453   25.3367 C   0  0  2  0  0  0  0  0  0  0  0  0
    6.4196  -15.8247   26.4393 N   0  0  0  0  0  0  0  0  0  0  0  0
    7.9334  -15.6512   24.6338 C   0  0  0  0  0  0  0  0  0  0  0  0
    8.8317  -16.2242   25.3565 O   0  0  0  0  0  0  0  0  0  0  0  0
    8.7138  -15.6887   20.5041 O   0  0  0  0  0  0  0  0  0  0  0  0
    9.1115  -16.8110   21.2333 C   0  0  0  0  0  0  0  0  0  0  0  0
    9.2876  -16.4924   22.6953 C   0  0  2  0  0  0  0  0  0  0  0  0
    8.1308  -15.8202   23.2525 N   0  0  0  0  0  0  0  0  0  0  0  0
   10.4777  -15.6174   22.8435 C   0  0  0  0  0  0  0  0  0  0  0  0
   10.3853  -14.3630   22.9741 O   0  0  0  0  0  0  0  0  0  0  0  0
   11.7863  -16.2061   22.8398 N   0  0  0  0  0  0  0  0  0  0  0  0
   12.9737  -15.4233   23.0396 C   0  0  0  0  0  0  0  0  0  0  0  0
   14.2015  -16.2572   23.0019 C   0  0  0  0  0  0  0  0  0  0  0  0
   15.4551  -15.6699   22.9257 O   0  0  0  0  0  0  0  0  0  0  0  0
   14.1438  -17.5095   23.0375 O   0  0  0  0  0  0  0  0  0  0  0  0
  2  1  1  0
  3  2  1  0
  3  4  1  6
  5  3  1  0
  5  7  1  0
  5  6  1  1
  7  8  2  0
 10  9  1  0
 11 10  1  6
 12 11  1  0
 12  7  1  0
 13 11  1  0
 13 15  1  0
 14 13  2  0
 16 15  1  0
 16 17  1  0
 17 18  1  0
 19 17  2  0
M  END
$$$$
