ISG.pdb
     RDKit          3D

 19 18  0  0  1  0  0  0  0  0999 V2000
    6.0635  -11.8273   27.1833 C   0  0  0  0  0  0  0  0  0  0  0  0
    5.6889  -13.1500   26.5715 C   0  0  0  0  0  0  0  0  0  0  0  0
    6.8732  -13.7213   25.8464 C   0  0  2  0  0  0  0  0  0  0  0  0
    7.4214  -12.7042   24.8374 C   0  0  0  0  0  0  0  0  0  0  0  0
    6.6524  -15.0473   25.1877 C   0  0  2  0  0  0  0  0  0  0  0  0
    6.2326  -15.9826   26.2651 N   0  0  0  0  0  0  0  0  0  0  0  0
    7.7516  -15.6601   24.4846 C   0  0  0  0  0  0  0  0  0  0  0  0
    8.6521  -16.2311   25.2059 O   0  0  0  0  0  0  0  0  0  0  0  0
    8.7160  -15.3542   20.4347 O   0  0  0  0  0  0  0  0  0  0  0  0
    9.0727  -16.5547   21.0519 C   0  0  0  0  0  0  0  0  0  0  0  0
    9.1635  -16.4067   22.5485 C   0  0  2  0  0  0  0  0  0  0  0  0
    8.0040  -15.7377   23.1041 N   0  0  0  0  0  0  0  0  0  0  0  0
   10.3802  -15.6184   22.8679 C   0  0  0  0  0  0  0  0  0  0  0  0
   10.3385  -14.3812   23.1264 O   0  0  0  0  0  0  0  0  0  0  0  0
   11.6564  -16.2744   22.8869 N   0  0  0  0  0  0  0  0  0  0  0  0
   12.8575  -15.5913   23.2784 C   0  0  0  0  0  0  0  0  0  0  0  0
   14.0584  -16.4520   23.1329 C   0  0  0  0  0  0  0  0  0  0  0  0
   15.3323  -15.9145   23.2345 O   0  0  0  0  0  0  0  0  0  0  0  0
   13.9591  -17.6832   22.9152 O   0  0  0  0  0  0  0  0  0  0  0  0
  2  1  1  0
  3  2  1  0
  3  4  1  6
  5  3  1  0
  5  7  1  0
  5  6  1  1
  7  8  2  0
 10  9  1  0
 11 10  1  6
 12 11  1  0
 12  7  1  0
 13 11  1  0
 13 15  1  0
 14 13  2  0
 16 15  1  0
 16 17  1  0
 17 18  1  0
 19 17  2  0
M  END
$$$$
