ISG.pdb
     RDKit          3D

 19 18  0  0  1  0  0  0  0  0999 V2000
    6.6070  -11.6622   27.3213 C   0  0  0  0  0  0  0  0  0  0  0  0
    5.9980  -12.8795   26.6798 C   0  0  0  0  0  0  0  0  0  0  0  0
    7.0663  -13.6613   25.9713 C   0  0  2  0  0  0  0  0  0  0  0  0
    7.8403  -12.7532   25.0072 C   0  0  0  0  0  0  0  0  0  0  0  0
    6.6053  -14.9004   25.2691 C   0  0  2  0  0  0  0  0  0  0  0  0
    6.0547  -15.7951   26.3219 N   0  0  0  0  0  0  0  0  0  0  0  0
    7.5661  -15.6620   24.5109 C   0  0  0  0  0  0  0  0  0  0  0  0
    8.2990  -16.4886   25.1720 O   0  0  0  0  0  0  0  0  0  0  0  0
    7.5222  -15.9802   20.5881 O   0  0  0  0  0  0  0  0  0  0  0  0
    8.7378  -16.5142   21.0200 C   0  0  0  0  0  0  0  0  0  0  0  0
    8.8672  -16.4644   22.5203 C   0  0  2  0  0  0  0  0  0  0  0  0
    7.8375  -15.6482   23.1319 N   0  0  0  0  0  0  0  0  0  0  0  0
   10.1989  -15.9013   22.8567 C   0  0  0  0  0  0  0  0  0  0  0  0
   10.3928  -14.6606   23.0062 O   0  0  0  0  0  0  0  0  0  0  0  0
   11.3148  -16.7885   23.0209 N   0  0  0  0  0  0  0  0  0  0  0  0
   12.5959  -16.3244   23.4743 C   0  0  0  0  0  0  0  0  0  0  0  0
   13.5323  -16.0888   22.3465 C   0  0  0  0  0  0  0  0  0  0  0  0
   14.8867  -15.9026   22.5768 O   0  0  0  0  0  0  0  0  0  0  0  0
   13.1306  -16.0510   21.1590 O   0  0  0  0  0  0  0  0  0  0  0  0
  2  1  1  0
  3  2  1  0
  3  4  1  6
  5  3  1  0
  5  7  1  0
  5  6  1  1
  7  8  2  0
 10  9  1  0
 11 10  1  6
 12 11  1  0
 12  7  1  0
 13 11  1  0
 13 15  1  0
 14 13  2  0
 16 15  1  0
 16 17  1  0
 17 18  1  0
 19 17  2  0
M  END
$$$$
