ISG.pdb
     RDKit          3D

 19 18  0  0  1  0  0  0  0  0999 V2000
    6.3865  -11.6109   27.1098 C   0  0  0  0  0  0  0  0  0  0  0  0
    5.9473  -12.9580   26.6035 C   0  0  0  0  0  0  0  0  0  0  0  0
    7.1108  -13.6568   25.9610 C   0  0  2  0  0  0  0  0  0  0  0  0
    7.7526  -12.7556   24.8984 C   0  0  0  0  0  0  0  0  0  0  0  0
    6.8212  -15.0118   25.3946 C   0  0  2  0  0  0  0  0  0  0  0  0
    6.3774  -15.8544   26.5370 N   0  0  0  0  0  0  0  0  0  0  0  0
    7.8810  -15.7186   24.7197 C   0  0  0  0  0  0  0  0  0  0  0  0
    8.7487  -16.3081   25.4661 O   0  0  0  0  0  0  0  0  0  0  0  0
    7.8304  -17.8990   21.3770 O   0  0  0  0  0  0  0  0  0  0  0  0
    8.9992  -17.1373   21.4317 C   0  0  0  0  0  0  0  0  0  0  0  0
    9.2569  -16.6102   22.8194 C   0  0  2  0  0  0  0  0  0  0  0  0
    8.1248  -15.8728   23.3442 N   0  0  0  0  0  0  0  0  0  0  0  0
   10.4397  -15.7147   22.7677 C   0  0  0  0  0  0  0  0  0  0  0  0
   10.3396  -14.4689   22.5750 O   0  0  0  0  0  0  0  0  0  0  0  0
   11.7504  -16.2726   22.9417 N   0  0  0  0  0  0  0  0  0  0  0  0
   12.9359  -15.4643   22.8812 C   0  0  0  0  0  0  0  0  0  0  0  0
   14.1663  -16.2658   23.1000 C   0  0  0  0  0  0  0  0  0  0  0  0
   15.4201  -15.6852   22.9859 O   0  0  0  0  0  0  0  0  0  0  0  0
   14.1107  -17.4841   23.3926 O   0  0  0  0  0  0  0  0  0  0  0  0
  2  1  1  0
  3  2  1  0
  3  4  1  6
  5  3  1  0
  5  7  1  0
  5  6  1  1
  7  8  2  0
 10  9  1  0
 11 10  1  6
 12 11  1  0
 12  7  1  0
 13 11  1  0
 13 15  1  0
 14 13  2  0
 16 15  1  0
 16 17  1  0
 17 18  1  0
 19 17  2  0
M  END
$$$$
