ISG.pdb
     RDKit          3D

 19 18  0  0  1  0  0  0  0  0999 V2000
    6.7139  -11.4794   27.3290 C   0  0  0  0  0  0  0  0  0  0  0  0
    6.1263  -12.7764   26.8425 C   0  0  0  0  0  0  0  0  0  0  0  0
    7.1205  -13.4802   25.9645 C   0  0  2  0  0  0  0  0  0  0  0  0
    7.5944  -12.5475   24.8427 C   0  0  0  0  0  0  0  0  0  0  0  0
    6.6734  -14.7933   25.4017 C   0  0  2  0  0  0  0  0  0  0  0  0
    6.4046  -15.6762   26.5678 N   0  0  0  0  0  0  0  0  0  0  0  0
    7.5619  -15.5027   24.5155 C   0  0  0  0  0  0  0  0  0  0  0  0
    8.5073  -16.1806   25.0667 O   0  0  0  0  0  0  0  0  0  0  0  0
    7.8657  -15.1772   20.3337 O   0  0  0  0  0  0  0  0  0  0  0  0
    8.2336  -16.3992   20.9001 C   0  0  0  0  0  0  0  0  0  0  0  0
    8.5961  -16.2527   22.3551 C   0  0  2  0  0  0  0  0  0  0  0  0
    7.5614  -15.5764   23.1119 N   0  0  0  0  0  0  0  0  0  0  0  0
    9.8557  -15.4727   22.4474 C   0  0  0  0  0  0  0  0  0  0  0  0
    9.8669  -14.2133   22.5612 O   0  0  0  0  0  0  0  0  0  0  0  0
   11.1131  -16.1630   22.4069 N   0  0  0  0  0  0  0  0  0  0  0  0
   12.3645  -15.4746   22.5574 C   0  0  0  0  0  0  0  0  0  0  0  0
   13.5217  -16.4008   22.4716 C   0  0  0  0  0  0  0  0  0  0  0  0
   14.8202  -15.9223   22.5537 O   0  0  0  0  0  0  0  0  0  0  0  0
   13.3621  -17.6360   22.3233 O   0  0  0  0  0  0  0  0  0  0  0  0
  2  1  1  0
  3  2  1  0
  3  4  1  6
  5  3  1  0
  5  7  1  0
  5  6  1  1
  7  8  2  0
 10  9  1  0
 11 10  1  6
 12 11  1  0
 12  7  1  0
 13 11  1  0
 13 15  1  0
 14 13  2  0
 16 15  1  0
 16 17  1  0
 17 18  1  0
 19 17  2  0
M  END
$$$$
