ISG.pdb
     RDKit          3D

 19 18  0  0  1  0  0  0  0  0999 V2000
    6.1918  -11.5371   27.3137 C   0  0  0  0  0  0  0  0  0  0  0  0
    5.6591  -12.7154   26.5443 C   0  0  0  0  0  0  0  0  0  0  0  0
    6.7958  -13.4352   25.8777 C   0  0  2  0  0  0  0  0  0  0  0  0
    7.6277  -12.4563   25.0394 C   0  0  0  0  0  0  0  0  0  0  0  0
    6.4166  -14.6328   25.0635 C   0  0  2  0  0  0  0  0  0  0  0  0
    5.7774  -15.5907   26.0046 N   0  0  0  0  0  0  0  0  0  0  0  0
    7.4532  -15.3438   24.3577 C   0  0  0  0  0  0  0  0  0  0  0  0
    8.1613  -16.1678   25.0483 O   0  0  0  0  0  0  0  0  0  0  0  0
    7.6268  -15.9394   20.4473 O   0  0  0  0  0  0  0  0  0  0  0  0
    8.9251  -16.0489   20.9492 C   0  0  0  0  0  0  0  0  0  0  0  0
    8.9450  -16.0186   22.4555 C   0  0  2  0  0  0  0  0  0  0  0  0
    7.8235  -15.2818   23.0033 N   0  0  0  0  0  0  0  0  0  0  0  0
   10.2100  -15.3774   22.8940 C   0  0  0  0  0  0  0  0  0  0  0  0
   10.2671  -14.1671   23.2561 O   0  0  0  0  0  0  0  0  0  0  0  0
   11.4190  -16.1502   22.9117 N   0  0  0  0  0  0  0  0  0  0  0  0
   12.6618  -15.6083   23.3851 C   0  0  0  0  0  0  0  0  0  0  0  0
   13.7955  -16.5404   23.1607 C   0  0  0  0  0  0  0  0  0  0  0  0
   15.1046  -16.1199   23.3378 O   0  0  0  0  0  0  0  0  0  0  0  0
   13.6059  -17.7286   22.8066 O   0  0  0  0  0  0  0  0  0  0  0  0
  2  1  1  0
  3  2  1  0
  3  4  1  6
  5  3  1  0
  5  7  1  0
  5  6  1  1
  7  8  2  0
 10  9  1  0
 11 10  1  6
 12 11  1  0
 12  7  1  0
 13 11  1  0
 13 15  1  0
 14 13  2  0
 16 15  1  0
 16 17  1  0
 17 18  1  0
 19 17  2  0
M  END
$$$$
