ISG.pdb
     RDKit          3D

 19 18  0  0  1  0  0  0  0  0999 V2000
    8.1656  -11.8389   19.9504 C   0  0  0  0  0  0  0  0  0  0  0  0
    7.4538  -12.9085   20.7336 C   0  0  0  0  0  0  0  0  0  0  0  0
    8.0457  -14.2489   20.4056 C   0  0  2  0  0  0  0  0  0  0  0  0
    7.9534  -14.5175   18.8981 C   0  0  0  0  0  0  0  0  0  0  0  0
    7.4973  -15.4070   21.1796 C   0  0  2  0  0  0  0  0  0  0  0  0
    6.0770  -15.5511   20.7628 N   0  0  0  0  0  0  0  0  0  0  0  0
    7.5235  -15.3488   22.6198 C   0  0  0  0  0  0  0  0  0  0  0  0
    6.5349  -14.7548   23.1918 O   0  0  0  0  0  0  0  0  0  0  0  0
    7.2894  -17.9273   25.2052 O   0  0  0  0  0  0  0  0  0  0  0  0
    7.1366  -16.5613   25.4503 C   0  0  0  0  0  0  0  0  0  0  0  0
    8.3224  -15.7709   24.9613 C   0  0  2  0  0  0  0  0  0  0  0  0
    8.4773  -15.8496   23.5224 N   0  0  0  0  0  0  0  0  0  0  0  0
    9.5435  -16.3079   25.6127 C   0  0  0  0  0  0  0  0  0  0  0  0
    9.6319  -16.4639   26.8645 O   0  0  0  0  0  0  0  0  0  0  0  0
   10.6716  -16.6665   24.8015 N   0  0  0  0  0  0  0  0  0  0  0  0
   11.8828  -15.8948   24.7983 C   0  0  0  0  0  0  0  0  0  0  0  0
   12.9155  -16.4858   23.9103 C   0  0  0  0  0  0  0  0  0  0  0  0
   14.2131  -15.9978   23.9094 O   0  0  0  0  0  0  0  0  0  0  0  0
   12.6485  -17.4379   23.1388 O   0  0  0  0  0  0  0  0  0  0  0  0
  2  1  1  0
  3  2  1  0
  3  4  1  6
  5  3  1  0
  5  7  1  0
  5  6  1  6
  7  8  2  0
 10  9  1  0
 11 10  1  1
 12 11  1  0
 12  7  1  0
 13 11  1  0
 13 15  1  0
 14 13  2  0
 16 15  1  0
 16 17  1  0
 17 18  1  0
 19 17  2  0
M  END
$$$$
