ISG.pdb
     RDKit          3D

 19 18  0  0  1  0  0  0  0  0999 V2000
    6.5812  -11.4906   27.1157 C   0  0  0  0  0  0  0  0  0  0  0  0
    6.0763  -12.8652   26.7701 C   0  0  0  0  0  0  0  0  0  0  0  0
    7.0660  -13.5534   25.8748 C   0  0  2  0  0  0  0  0  0  0  0  0
    7.3739  -12.6809   24.6513 C   0  0  0  0  0  0  0  0  0  0  0  0
    6.7010  -14.9419   25.4509 C   0  0  2  0  0  0  0  0  0  0  0  0
    6.5102  -15.7226   26.7023 N   0  0  0  0  0  0  0  0  0  0  0  0
    7.6226  -15.6740   24.6186 C   0  0  0  0  0  0  0  0  0  0  0  0
    8.5968  -16.2654   25.2173 O   0  0  0  0  0  0  0  0  0  0  0  0
    7.8492  -15.7646   20.4234 O   0  0  0  0  0  0  0  0  0  0  0  0
    8.2631  -16.9112   21.1041 C   0  0  0  0  0  0  0  0  0  0  0  0
    8.6516  -16.6049   22.5272 C   0  0  2  0  0  0  0  0  0  0  0  0
    7.6282  -15.8517   23.2244 N   0  0  0  0  0  0  0  0  0  0  0  0
    9.9095  -15.8167   22.5097 C   0  0  0  0  0  0  0  0  0  0  0  0
    9.9420  -14.5985   22.1721 O   0  0  0  0  0  0  0  0  0  0  0  0
   11.1401  -16.4506   22.8879 N   0  0  0  0  0  0  0  0  0  0  0  0
   12.3648  -15.7134   23.0265 C   0  0  0  0  0  0  0  0  0  0  0  0
   13.5013  -16.3935   22.3557 C   0  0  0  0  0  0  0  0  0  0  0  0
   13.8214  -17.7074   22.6612 O   0  0  0  0  0  0  0  0  0  0  0  0
   14.2024  -15.8053   21.4980 O   0  0  0  0  0  0  0  0  0  0  0  0
  2  1  1  0
  3  2  1  0
  3  4  1  6
  5  3  1  0
  5  7  1  0
  5  6  1  1
  7  8  2  0
 10  9  1  0
 11 10  1  6
 12 11  1  0
 12  7  1  0
 13 11  1  0
 13 15  1  0
 14 13  2  0
 16 15  1  0
 16 17  1  0
 17 18  1  0
 19 17  2  0
M  END
$$$$
