ISG.pdb
     RDKit          3D

 19 18  0  0  1  0  0  0  0  0999 V2000
    7.7191  -12.1460   19.5388 C   0  0  0  0  0  0  0  0  0  0  0  0
    7.1643  -13.4017   20.1548 C   0  0  0  0  0  0  0  0  0  0  0  0
    8.1730  -13.9845   21.1022 C   0  0  2  0  0  0  0  0  0  0  0  0
    9.5463  -14.0798   20.4255 C   0  0  0  0  0  0  0  0  0  0  0  0
    7.8002  -15.2959   21.7203 C   0  0  2  0  0  0  0  0  0  0  0  0
    6.5035  -15.0754   22.4144 N   0  0  0  0  0  0  0  0  0  0  0  0
    8.7052  -15.8932   22.6702 C   0  0  0  0  0  0  0  0  0  0  0  0
    8.7531  -15.3556   23.8390 O   0  0  0  0  0  0  0  0  0  0  0  0
    9.9923  -19.6439   23.1521 O   0  0  0  0  0  0  0  0  0  0  0  0
   10.3491  -18.6938   24.1109 C   0  0  0  0  0  0  0  0  0  0  0  0
   10.5838  -17.3396   23.4935 C   0  0  2  0  0  0  0  0  0  0  0  0
    9.5639  -16.9960   22.5228 N   0  0  0  0  0  0  0  0  0  0  0  0
   11.9086  -17.3539   22.8238 C   0  0  0  0  0  0  0  0  0  0  0  0
   12.0379  -17.5414   21.5799 O   0  0  0  0  0  0  0  0  0  0  0  0
   13.0932  -17.1484   23.6072 N   0  0  0  0  0  0  0  0  0  0  0  0
   14.4033  -17.1428   23.0190 C   0  0  0  0  0  0  0  0  0  0  0  0
   15.4527  -16.7774   24.0036 C   0  0  0  0  0  0  0  0  0  0  0  0
   16.7921  -16.7794   23.6458 O   0  0  0  0  0  0  0  0  0  0  0  0
   15.1627  -16.4578   25.1812 O   0  0  0  0  0  0  0  0  0  0  0  0
  2  1  1  0
  3  2  1  0
  3  4  1  6
  5  3  1  0
  5  7  1  0
  5  6  1  1
  7  8  2  0
 10  9  1  0
 11 10  1  6
 12 11  1  0
 12  7  1  0
 13 11  1  0
 13 15  1  0
 14 13  2  0
 16 15  1  0
 16 17  1  0
 17 18  1  0
 19 17  2  0
M  END
$$$$
