HTY.pdb
     RDKit          3D

 30 31  0  0  1  0  0  0  0  0999 V2000
   23.1824  -11.2446  -21.9438 N   0  0  0  0  0  0  0  0  0  0  0  0
   23.8808  -10.6517  -20.8340 C   0  0  1  0  0  0  0  0  0  0  0  0
   25.2967  -10.3407  -21.3284 C   0  0  0  0  0  0  0  0  0  0  0  0
   25.9887  -11.6477  -21.4696 C   0  0  0  0  0  0  0  0  0  0  0  0
   26.0578  -12.4607  -22.5819 C   0  0  0  0  0  0  0  0  0  0  0  0
   26.7794  -13.5503  -22.2881 N   0  0  0  0  0  0  0  0  0  0  0  0
   27.1685  -13.4347  -20.9981 C   0  0  0  0  0  0  0  0  0  0  0  0
   26.6913  -12.2848  -20.5017 N   0  0  0  0  0  0  0  0  0  0  0  0
   23.1978   -9.4212  -20.3646 C   0  0  0  0  0  0  0  0  0  0  0  0
   22.9782   -8.5109  -21.1905 O   0  0  0  0  0  0  0  0  0  0  0  0
   19.8906   -8.5112  -19.7465 C   0  0  0  0  0  0  0  0  0  0  0  0
   20.5755   -8.3150  -18.3977 C   0  0  1  0  0  0  0  0  0  0  0  0
   20.2054   -9.2813  -17.4842 O   0  0  0  0  0  0  0  0  0  0  0  0
   22.0456   -8.1251  -18.5309 C   0  0  2  0  0  0  0  0  0  0  0  0
   22.7865   -9.2270  -19.0447 N   0  0  0  0  0  0  0  0  0  0  0  0
   22.5891   -7.7392  -17.2009 C   0  0  0  0  0  0  0  0  0  0  0  0
   23.4444   -8.4301  -16.5925 O   0  0  0  0  0  0  0  0  0  0  0  0
   24.6088   -1.1798  -18.9437 O   0  0  0  0  0  0  0  0  0  0  0  0
   24.4973   -2.2757  -18.0878 C   0  0  0  0  0  0  0  0  0  0  0  0
   24.7454   -3.5468  -18.5371 C   0  0  0  0  0  0  0  0  0  0  0  0
   24.6419   -4.6427  -17.7113 C   0  0  0  0  0  0  0  0  0  0  0  0
   24.2794   -4.5082  -16.3785 C   0  0  0  0  0  0  0  0  0  0  0  0
   24.1439   -5.6555  -15.4722 C   0  0  0  0  0  0  0  0  0  0  0  0
   22.7289   -6.1394  -15.2792 C   0  0  2  0  0  0  0  0  0  0  0  0
   22.1548   -6.5516  -16.5540 N   0  0  0  0  0  0  0  0  0  0  0  0
   21.9158   -5.0950  -14.6516 C   0  0  0  0  0  0  0  0  0  0  0  0
   22.2530   -4.6741  -13.3652 O   0  0  0  0  0  0  0  0  0  0  0  0
   24.0278   -3.2224  -15.9225 C   0  0  0  0  0  0  0  0  0  0  0  0
   24.1375   -2.1526  -16.7614 C   0  0  0  0  0  0  0  0  0  0  0  0
   20.9339   -4.5543  -15.1981 O   0  0  0  0  0  0  0  0  0  0  0  0
  2  1  1  6
  2  3  1  0
  4  3  1  0
  4  8  1  0
  5  4  2  0
  6  5  1  0
  6  7  1  0
  7  8  2  0
  9 10  2  0
  9  2  1  0
 12 11  1  6
 12 14  1  0
 13 12  1  0
 14 15  1  1
 15  9  1  0
 16 25  1  0
 16 14  1  0
 17 16  2  0
 18 19  1  0
 19 29  2  0
 20 19  1  0
 20 21  2  0
 21 22  1  0
 22 28  2  0
 22 23  1  0
 24 23  1  6
 24 25  1  0
 24 26  1  0
 26 27  1  0
 29 28  1  0
 30 26  2  0
M  END
$$$$
