HTY.pdb
     RDKit          3D

 30 31  0  0  1  0  0  0  0  0999 V2000
   27.0004  -22.7307  -17.3683 N   0  0  0  0  0  0  0  0  0  0  0  0
   27.9050  -22.2340  -16.3653 C   0  0  1  0  0  0  0  0  0  0  0  0
   29.0930  -21.6248  -17.1158 C   0  0  0  0  0  0  0  0  0  0  0  0
   29.9928  -22.7542  -17.4651 C   0  0  0  0  0  0  0  0  0  0  0  0
   30.1513  -23.9545  -16.8042 C   0  0  0  0  0  0  0  0  0  0  0  0
   31.0627  -24.6958  -17.4478 N   0  0  0  0  0  0  0  0  0  0  0  0
   31.4835  -23.9748  -18.5118 C   0  0  0  0  0  0  0  0  0  0  0  0
   30.8375  -22.8005  -18.5237 N   0  0  0  0  0  0  0  0  0  0  0  0
   27.2466  -21.2246  -15.5002 C   0  0  0  0  0  0  0  0  0  0  0  0
   27.2092  -20.0394  -15.8915 O   0  0  0  0  0  0  0  0  0  0  0  0
   24.1913  -19.7423  -14.8842 C   0  0  0  0  0  0  0  0  0  0  0  0
   24.5266  -20.4784  -13.5910 C   0  0  1  0  0  0  0  0  0  0  0  0
   23.8064  -21.6486  -13.4602 O   0  0  0  0  0  0  0  0  0  0  0  0
   25.9933  -20.6331  -13.3909 C   0  0  2  0  0  0  0  0  0  0  0  0
   26.6650  -21.5307  -14.2685 N   0  0  0  0  0  0  0  0  0  0  0  0
   26.2314  -21.0462  -11.9817 C   0  0  0  0  0  0  0  0  0  0  0  0
   26.5325  -22.2238  -11.6630 O   0  0  0  0  0  0  0  0  0  0  0  0
   28.3855  -20.4136   -3.3972 O   0  0  0  0  0  0  0  0  0  0  0  0
   28.1190  -20.1831   -4.7470 C   0  0  0  0  0  0  0  0  0  0  0  0
   29.1039  -19.7438   -5.5931 C   0  0  0  0  0  0  0  0  0  0  0  0
   28.8644  -19.5098   -6.9278 C   0  0  0  0  0  0  0  0  0  0  0  0
   27.6069  -19.7098   -7.4795 C   0  0  0  0  0  0  0  0  0  0  0  0
   27.3106  -19.4560   -8.8951 C   0  0  0  0  0  0  0  0  0  0  0  0
   26.4302  -20.4917   -9.5476 C   0  0  2  0  0  0  0  0  0  0  0  0
   26.1263  -20.1079  -10.9206 N   0  0  0  0  0  0  0  0  0  0  0  0
   25.2019  -20.6766   -8.7712 C   0  0  0  0  0  0  0  0  0  0  0  0
   25.2235  -21.5642   -7.6954 O   0  0  0  0  0  0  0  0  0  0  0  0
   26.6090  -20.1542   -6.6243 C   0  0  0  0  0  0  0  0  0  0  0  0
   26.8723  -20.3787   -5.3050 C   0  0  0  0  0  0  0  0  0  0  0  0
   24.1300  -20.0867   -9.0126 O   0  0  0  0  0  0  0  0  0  0  0  0
  2  1  1  6
  2  3  1  0
  4  3  1  0
  4  8  1  0
  5  4  2  0
  6  5  1  0
  6  7  1  0
  7  8  2  0
  9 10  2  0
  9  2  1  0
 12 11  1  6
 12 14  1  0
 13 12  1  0
 14 15  1  6
 15  9  1  0
 16 25  1  0
 16 14  1  0
 17 16  2  0
 18 19  1  0
 19 29  2  0
 20 19  1  0
 20 21  2  0
 21 22  1  0
 22 28  2  0
 22 23  1  0
 24 23  1  1
 24 25  1  0
 24 26  1  0
 26 27  1  0
 29 28  1  0
 30 26  2  0
M  END
$$$$
