HTY.pdb
     RDKit          3D

 30 31  0  0  1  0  0  0  0  0999 V2000
   33.5947  -29.8039  -19.6470 N   0  0  0  0  0  0  0  0  0  0  0  0
   32.1751  -29.6517  -19.4662 C   0  0  1  0  0  0  0  0  0  0  0  0
   31.6502  -31.0094  -18.9899 C   0  0  0  0  0  0  0  0  0  0  0  0
   31.6387  -31.8967  -20.1815 C   0  0  0  0  0  0  0  0  0  0  0  0
   30.5712  -32.5796  -20.7264 C   0  0  0  0  0  0  0  0  0  0  0  0
   30.9875  -33.2668  -21.7982 N   0  0  0  0  0  0  0  0  0  0  0  0
   32.3108  -33.0250  -21.9373 C   0  0  0  0  0  0  0  0  0  0  0  0
   32.7061  -32.1967  -20.9606 N   0  0  0  0  0  0  0  0  0  0  0  0
   31.8701  -28.5864  -18.4799 C   0  0  0  0  0  0  0  0  0  0  0  0
   32.7865  -28.1898  -17.7302 O   0  0  0  0  0  0  0  0  0  0  0  0
   31.0146  -25.2109  -19.2479 C   0  0  0  0  0  0  0  0  0  0  0  0
   31.0304  -25.6270  -17.7805 C   0  0  1  0  0  0  0  0  0  0  0  0
   30.6938  -24.5827  -16.9430 O   0  0  0  0  0  0  0  0  0  0  0  0
   30.2656  -26.8807  -17.5387 C   0  0  2  0  0  0  0  0  0  0  0  0
   30.6092  -28.0024  -18.3454 N   0  0  0  0  0  0  0  0  0  0  0  0
   28.8168  -26.5817  -17.6963 C   0  0  0  0  0  0  0  0  0  0  0  0
   28.2472  -26.5635  -18.8162 O   0  0  0  0  0  0  0  0  0  0  0  0
   20.1864  -25.6674  -16.0494 O   0  0  0  0  0  0  0  0  0  0  0  0
   21.5595  -25.8858  -15.9353 C   0  0  0  0  0  0  0  0  0  0  0  0
   22.4033  -24.8740  -15.5569 C   0  0  0  0  0  0  0  0  0  0  0  0
   23.7607  -25.0660  -15.4376 C   0  0  0  0  0  0  0  0  0  0  0  0
   24.3387  -26.3007  -15.6968 C   0  0  0  0  0  0  0  0  0  0  0  0
   25.7841  -26.5387  -15.5949 C   0  0  0  0  0  0  0  0  0  0  0  0
   26.5976  -25.9526  -16.7212 C   0  0  2  0  0  0  0  0  0  0  0  0
   28.0046  -26.3001  -16.5656 N   0  0  0  0  0  0  0  0  0  0  0  0
   26.4195  -24.4996  -16.7743 C   0  0  0  0  0  0  0  0  0  0  0  0
   25.4488  -23.9804  -17.6309 O   0  0  0  0  0  0  0  0  0  0  0  0
   23.4859  -27.3257  -16.0800 C   0  0  0  0  0  0  0  0  0  0  0  0
   22.1438  -27.1094  -16.1908 C   0  0  0  0  0  0  0  0  0  0  0  0
   27.0853  -23.6912  -16.0973 O   0  0  0  0  0  0  0  0  0  0  0  0
  2  1  1  1
  2  3  1  0
  4  3  1  0
  4  8  1  0
  5  4  2  0
  6  5  1  0
  6  7  1  0
  7  8  2  0
  9 10  2  0
  9  2  1  0
 12 11  1  6
 12 14  1  0
 13 12  1  0
 14 15  1  6
 15  9  1  0
 16 25  1  0
 16 14  1  0
 17 16  2  0
 18 19  1  0
 19 29  2  0
 20 19  1  0
 20 21  2  0
 21 22  1  0
 22 28  2  0
 22 23  1  0
 24 23  1  1
 24 25  1  0
 24 26  1  0
 26 27  1  0
 29 28  1  0
 30 26  2  0
M  END
$$$$
