HTY.pdb
     RDKit          3D

 30 31  0  0  1  0  0  0  0  0999 V2000
   20.8286  -17.3791  -17.4834 N   0  0  0  0  0  0  0  0  0  0  0  0
   21.4651  -17.1175  -16.2195 C   0  0  1  0  0  0  0  0  0  0  0  0
   20.4973  -16.2407  -15.4194 C   0  0  0  0  0  0  0  0  0  0  0  0
   20.5988  -14.8733  -15.9915 C   0  0  0  0  0  0  0  0  0  0  0  0
   21.4298  -14.4296  -16.9990 C   0  0  0  0  0  0  0  0  0  0  0  0
   21.2063  -13.1264  -17.2138 N   0  0  0  0  0  0  0  0  0  0  0  0
   20.2399  -12.7402  -16.3502 C   0  0  0  0  0  0  0  0  0  0  0  0
   19.8714  -13.7953  -15.6104 N   0  0  0  0  0  0  0  0  0  0  0  0
   21.7636  -18.3784  -15.4970 C   0  0  0  0  0  0  0  0  0  0  0  0
   20.8368  -19.1963  -15.3200 O   0  0  0  0  0  0  0  0  0  0  0  0
   23.2479  -21.4501  -16.4458 C   0  0  0  0  0  0  0  0  0  0  0  0
   24.1625  -20.8722  -15.3704 C   0  0  1  0  0  0  0  0  0  0  0  0
   25.3274  -20.3583  -15.9035 O   0  0  0  0  0  0  0  0  0  0  0  0
   23.4442  -19.9457  -14.4536 C   0  0  2  0  0  0  0  0  0  0  0  0
   23.0294  -18.6996  -15.0034 N   0  0  0  0  0  0  0  0  0  0  0  0
   24.3072  -19.7011  -13.2666 C   0  0  0  0  0  0  0  0  0  0  0  0
   24.3792  -18.5813  -12.7010 O   0  0  0  0  0  0  0  0  0  0  0  0
   28.0661  -19.2123   -5.5851 O   0  0  0  0  0  0  0  0  0  0  0  0
   27.3486  -19.4241   -6.7626 C   0  0  0  0  0  0  0  0  0  0  0  0
   27.1474  -18.4044   -7.6564 C   0  0  0  0  0  0  0  0  0  0  0  0
   26.4432  -18.5899   -8.8240 C   0  0  0  0  0  0  0  0  0  0  0  0
   25.9024  -19.8256   -9.1501 C   0  0  0  0  0  0  0  0  0  0  0  0
   25.1325  -20.0568  -10.3789 C   0  0  0  0  0  0  0  0  0  0  0  0
   25.9556  -20.5037  -11.5606 C   0  0  2  0  0  0  0  0  0  0  0  0
   25.0985  -20.7437  -12.7149 N   0  0  0  0  0  0  0  0  0  0  0  0
   26.7240  -21.7034  -11.2202 C   0  0  0  0  0  0  0  0  0  0  0  0
   26.2164  -22.9466  -11.5976 O   0  0  0  0  0  0  0  0  0  0  0  0
   26.1051  -20.8584   -8.2464 C   0  0  0  0  0  0  0  0  0  0  0  0
   26.8069  -20.6486   -7.0959 C   0  0  0  0  0  0  0  0  0  0  0  0
   27.8114  -21.6840  -10.6098 O   0  0  0  0  0  0  0  0  0  0  0  0
  2  1  1  6
  2  3  1  0
  4  3  1  0
  4  8  1  0
  5  4  2  0
  6  5  1  0
  6  7  1  0
  7  8  2  0
  9 10  2  0
  9  2  1  0
 12 11  1  6
 12 14  1  0
 13 12  1  0
 14 15  1  6
 15  9  1  0
 16 25  1  0
 16 14  1  0
 17 16  2  0
 18 19  1  0
 19 29  2  0
 20 19  1  0
 20 21  2  0
 21 22  1  0
 22 28  2  0
 22 23  1  0
 24 23  1  1
 24 25  1  0
 24 26  1  0
 26 27  1  0
 29 28  1  0
 30 26  2  0
M  END
$$$$
