HTY.pdb
     RDKit          3D

 30 31  0  0  1  0  0  0  0  0999 V2000
   24.3911  -13.3121  -18.1172 N   0  0  0  0  0  0  0  0  0  0  0  0
   24.3983  -12.4904  -16.9357 C   0  0  1  0  0  0  0  0  0  0  0  0
   25.8377  -12.4951  -16.4126 C   0  0  0  0  0  0  0  0  0  0  0  0
   26.1148  -13.8822  -15.9582 C   0  0  0  0  0  0  0  0  0  0  0  0
   25.6477  -14.5187  -14.8271 C   0  0  0  0  0  0  0  0  0  0  0  0
   26.1358  -15.7656  -14.7889 N   0  0  0  0  0  0  0  0  0  0  0  0
   26.9088  -15.9248  -15.8871 C   0  0  0  0  0  0  0  0  0  0  0  0
   26.8971  -14.7869  -16.5953 N   0  0  0  0  0  0  0  0  0  0  0  0
   23.9455  -11.1104  -17.2381 C   0  0  0  0  0  0  0  0  0  0  0  0
   24.5755  -10.4511  -18.0910 O   0  0  0  0  0  0  0  0  0  0  0  0
   21.6558   -9.5410  -19.2784 C   0  0  0  0  0  0  0  0  0  0  0  0
   21.2077   -9.1437  -17.8755 C   0  0  1  0  0  0  0  0  0  0  0  0
   20.0573   -9.8039  -17.4936 O   0  0  0  0  0  0  0  0  0  0  0  0
   22.3161   -9.2156  -16.8849 C   0  0  2  0  0  0  0  0  0  0  0  0
   22.8491  -10.5085  -16.6178 N   0  0  0  0  0  0  0  0  0  0  0  0
   21.8474   -8.6003  -15.6141 C   0  0  0  0  0  0  0  0  0  0  0  0
   21.5646   -9.2807  -14.5963 O   0  0  0  0  0  0  0  0  0  0  0  0
   24.0786   -1.6186  -17.3473 O   0  0  0  0  0  0  0  0  0  0  0  0
   23.7048   -2.6266  -16.4584 C   0  0  0  0  0  0  0  0  0  0  0  0
   24.2663   -3.8748  -16.5343 C   0  0  0  0  0  0  0  0  0  0  0  0
   23.9134   -4.8844  -15.6684 C   0  0  0  0  0  0  0  0  0  0  0  0
   22.9672   -4.6818  -14.6736 C   0  0  0  0  0  0  0  0  0  0  0  0
   22.5546   -5.7392  -13.7421 C   0  0  0  0  0  0  0  0  0  0  0  0
   21.3913   -6.5737  -14.2152 C   0  0  2  0  0  0  0  0  0  0  0  0
   21.6987   -7.1924  -15.4987 N   0  0  0  0  0  0  0  0  0  0  0  0
   20.1809   -5.7536  -14.3054 C   0  0  0  0  0  0  0  0  0  0  0  0
   19.6774   -5.1820  -13.1369 O   0  0  0  0  0  0  0  0  0  0  0  0
   22.3979   -3.4191  -14.5957 C   0  0  0  0  0  0  0  0  0  0  0  0
   22.7652   -2.4353  -15.4662 C   0  0  0  0  0  0  0  0  0  0  0  0
   19.5673   -5.5322  -15.3683 O   0  0  0  0  0  0  0  0  0  0  0  0
  2  1  1  6
  2  3  1  0
  4  3  1  0
  4  8  1  0
  5  4  2  0
  6  5  1  0
  6  7  1  0
  7  8  2  0
  9 10  2  0
  9  2  1  0
 12 11  1  6
 12 14  1  0
 13 12  1  0
 14 15  1  1
 15  9  1  0
 16 25  1  0
 16 14  1  0
 17 16  2  0
 18 19  1  0
 19 29  2  0
 20 19  1  0
 20 21  2  0
 21 22  1  0
 22 28  2  0
 22 23  1  0
 24 23  1  6
 24 25  1  0
 24 26  1  0
 26 27  1  0
 29 28  1  0
 30 26  2  0
M  END
$$$$
