HTY.pdb
     RDKit          3D

 30 31  0  0  1  0  0  0  0  0999 V2000
   28.6344  -28.5906  -17.2622 N   0  0  0  0  0  0  0  0  0  0  0  0
   27.2229  -28.4032  -17.0535 C   0  0  1  0  0  0  0  0  0  0  0  0
   26.7812  -29.4916  -16.0705 C   0  0  0  0  0  0  0  0  0  0  0  0
   26.7993  -30.7713  -16.8250 C   0  0  0  0  0  0  0  0  0  0  0  0
   27.5689  -31.8911  -16.5872 C   0  0  0  0  0  0  0  0  0  0  0  0
   27.2795  -32.8276  -17.5003 N   0  0  0  0  0  0  0  0  0  0  0  0
   26.3324  -32.3103  -18.3154 C   0  0  0  0  0  0  0  0  0  0  0  0
   26.0408  -31.0670  -17.9084 N   0  0  0  0  0  0  0  0  0  0  0  0
   26.9338  -27.0508  -16.5166 C   0  0  0  0  0  0  0  0  0  0  0  0
   27.6654  -26.6021  -15.6096 O   0  0  0  0  0  0  0  0  0  0  0  0
   27.6330  -23.7222  -17.1828 C   0  0  0  0  0  0  0  0  0  0  0  0
   26.1147  -23.8064  -17.3029 C   0  0  1  0  0  0  0  0  0  0  0  0
   25.6957  -23.7473  -18.6167 O   0  0  0  0  0  0  0  0  0  0  0  0
   25.5470  -24.9422  -16.5265 C   0  0  2  0  0  0  0  0  0  0  0  0
   25.8844  -26.2513  -16.9732 N   0  0  0  0  0  0  0  0  0  0  0  0
   24.0670  -24.7944  -16.4973 C   0  0  0  0  0  0  0  0  0  0  0  0
   23.3045  -25.4691  -17.2338 O   0  0  0  0  0  0  0  0  0  0  0  0
   20.8776  -29.6450  -13.4882 O   0  0  0  0  0  0  0  0  0  0  0  0
   21.0083  -28.2700  -13.6840 C   0  0  0  0  0  0  0  0  0  0  0  0
   20.0065  -27.5458  -14.2764 C   0  0  0  0  0  0  0  0  0  0  0  0
   20.1130  -26.1890  -14.4796 C   0  0  0  0  0  0  0  0  0  0  0  0
   21.2469  -25.4897  -14.0911 C   0  0  0  0  0  0  0  0  0  0  0  0
   21.4022  -24.0454  -14.3057 C   0  0  0  0  0  0  0  0  0  0  0  0
   22.0014  -23.6694  -15.6373 C   0  0  2  0  0  0  0  0  0  0  0  0
   23.4453  -23.8675  -15.6187 N   0  0  0  0  0  0  0  0  0  0  0  0
   21.6669  -22.2831  -15.9719 C   0  0  0  0  0  0  0  0  0  0  0  0
   22.7018  -21.3513  -16.0529 O   0  0  0  0  0  0  0  0  0  0  0  0
   22.2617  -26.2213  -13.4916 C   0  0  0  0  0  0  0  0  0  0  0  0
   22.1314  -27.5656  -13.3014 C   0  0  0  0  0  0  0  0  0  0  0  0
   20.5073  -21.8798  -16.1907 O   0  0  0  0  0  0  0  0  0  0  0  0
  2  1  1  1
  2  3  1  0
  4  3  1  0
  4  8  1  0
  5  4  2  0
  6  5  1  0
  6  7  1  0
  7  8  2  0
  9 10  2  0
  9  2  1  0
 12 11  1  6
 12 14  1  0
 13 12  1  0
 14 15  1  6
 15  9  1  0
 16 25  1  0
 16 14  1  0
 17 16  2  0
 18 19  1  0
 19 29  2  0
 20 19  1  0
 20 21  2  0
 21 22  1  0
 22 28  2  0
 22 23  1  0
 24 23  1  1
 24 25  1  0
 24 26  1  0
 26 27  1  0
 29 28  1  0
 30 26  2  0
M  END
$$$$
