HTY.pdb
     RDKit          3D

 30 31  0  0  1  0  0  0  0  0999 V2000
   19.3000  -12.7407  -18.3917 N   0  0  0  0  0  0  0  0  0  0  0  0
   19.1327  -11.6047  -17.5243 C   0  0  1  0  0  0  0  0  0  0  0  0
   19.1185  -12.1498  -16.0931 C   0  0  0  0  0  0  0  0  0  0  0  0
   17.8395  -12.8897  -15.9383 C   0  0  0  0  0  0  0  0  0  0  0  0
   16.5633  -12.3758  -15.8383 C   0  0  0  0  0  0  0  0  0  0  0  0
   15.6904  -13.3838  -15.7104 N   0  0  0  0  0  0  0  0  0  0  0  0
   16.4031  -14.5330  -15.7285 C   0  0  0  0  0  0  0  0  0  0  0  0
   17.7028  -14.2360  -15.8663 N   0  0  0  0  0  0  0  0  0  0  0  0
   20.2279  -10.6213  -17.7094 C   0  0  0  0  0  0  0  0  0  0  0  0
   21.4067  -11.0327  -17.6884 O   0  0  0  0  0  0  0  0  0  0  0  0
   21.6826   -8.6799  -20.4627 C   0  0  0  0  0  0  0  0  0  0  0  0
   21.1163   -7.6773  -19.4622 C   0  0  1  0  0  0  0  0  0  0  0  0
   19.9669   -7.0729  -19.9299 O   0  0  0  0  0  0  0  0  0  0  0  0
   20.9977   -8.2485  -18.0930 C   0  0  2  0  0  0  0  0  0  0  0  0
   20.0096   -9.2565  -17.9064 N   0  0  0  0  0  0  0  0  0  0  0  0
   20.7527   -7.1320  -17.1408 C   0  0  0  0  0  0  0  0  0  0  0  0
   19.6076   -6.8516  -16.7062 O   0  0  0  0  0  0  0  0  0  0  0  0
   18.5121   -9.2033  -11.7082 O   0  0  0  0  0  0  0  0  0  0  0  0
   19.3762   -8.3200  -12.3555 C   0  0  0  0  0  0  0  0  0  0  0  0
   18.9624   -7.0607  -12.7047 C   0  0  0  0  0  0  0  0  0  0  0  0
   19.7970   -6.1724  -13.3436 C   0  0  0  0  0  0  0  0  0  0  0  0
   21.1029   -6.5149  -13.6644 C   0  0  0  0  0  0  0  0  0  0  0  0
   22.0167   -5.5993  -14.3592 C   0  0  0  0  0  0  0  0  0  0  0  0
   21.5857   -5.2205  -15.7536 C   0  0  2  0  0  0  0  0  0  0  0  0
   21.8243   -6.3236  -16.6761 N   0  0  0  0  0  0  0  0  0  0  0  0
   22.2863   -4.0107  -16.1911 C   0  0  0  0  0  0  0  0  0  0  0  0
   22.0403   -2.8182  -15.5108 O   0  0  0  0  0  0  0  0  0  0  0  0
   21.5231   -7.7892  -13.3118 C   0  0  0  0  0  0  0  0  0  0  0  0
   20.6761   -8.6508  -12.6790 C   0  0  0  0  0  0  0  0  0  0  0  0
   23.0947   -3.9788  -17.1402 O   0  0  0  0  0  0  0  0  0  0  0  0
  2  1  1  6
  2  3  1  0
  4  3  1  0
  4  8  1  0
  5  4  2  0
  6  5  1  0
  6  7  1  0
  7  8  2  0
  9 10  2  0
  9  2  1  0
 12 11  1  6
 12 14  1  0
 13 12  1  0
 14 15  1  6
 15  9  1  0
 16 25  1  0
 16 14  1  0
 17 16  2  0
 18 19  1  0
 19 29  2  0
 20 19  1  0
 20 21  2  0
 21 22  1  0
 22 28  2  0
 22 23  1  0
 24 23  1  1
 24 25  1  0
 24 26  1  0
 26 27  1  0
 29 28  1  0
 30 26  2  0
M  END
$$$$
