HTY.pdb
     RDKit          3D

 30 31  0  0  1  0  0  0  0  0999 V2000
   18.7741  -12.9296  -16.2649 N   0  0  0  0  0  0  0  0  0  0  0  0
   18.3741  -11.5578  -16.4356 C   0  0  1  0  0  0  0  0  0  0  0  0
   16.9920  -11.4251  -15.7891 C   0  0  0  0  0  0  0  0  0  0  0  0
   16.0687  -12.2640  -16.5959 C   0  0  0  0  0  0  0  0  0  0  0  0
   15.1772  -13.2191  -16.1535 C   0  0  0  0  0  0  0  0  0  0  0  0
   14.5352  -13.7446  -17.2052 N   0  0  0  0  0  0  0  0  0  0  0  0
   15.0128  -13.1301  -18.3113 C   0  0  0  0  0  0  0  0  0  0  0  0
   15.9401  -12.2345  -17.9446 N   0  0  0  0  0  0  0  0  0  0  0  0
   19.3479  -10.6319  -15.8069 C   0  0  0  0  0  0  0  0  0  0  0  0
   19.6251  -10.7900  -14.5997 O   0  0  0  0  0  0  0  0  0  0  0  0
   22.6145   -9.3649  -17.7157 C   0  0  0  0  0  0  0  0  0  0  0  0
   22.3682   -9.0076  -16.2534 C   0  0  1  0  0  0  0  0  0  0  0  0
   23.2656   -8.0653  -15.7929 O   0  0  0  0  0  0  0  0  0  0  0  0
   20.9414   -8.6826  -15.9819 C   0  0  2  0  0  0  0  0  0  0  0  0
   19.9723   -9.5904  -16.4956 N   0  0  0  0  0  0  0  0  0  0  0  0
   20.6663   -7.3165  -16.5029 C   0  0  0  0  0  0  0  0  0  0  0  0
   20.3733   -7.0965  -17.7048 O   0  0  0  0  0  0  0  0  0  0  0  0
   14.4097   -6.7549  -17.3197 O   0  0  0  0  0  0  0  0  0  0  0  0
   15.5850   -6.1492  -16.8749 C   0  0  0  0  0  0  0  0  0  0  0  0
   16.0925   -5.0467  -17.5119 C   0  0  0  0  0  0  0  0  0  0  0  0
   17.2499   -4.4327  -17.0910 C   0  0  0  0  0  0  0  0  0  0  0  0
   17.9588   -4.9059  -15.9959 C   0  0  0  0  0  0  0  0  0  0  0  0
   19.2050   -4.2863  -15.5278 C   0  0  0  0  0  0  0  0  0  0  0  0
   20.4577   -4.8454  -16.1535 C   0  0  2  0  0  0  0  0  0  0  0  0
   20.7246   -6.1854  -15.6457 N   0  0  0  0  0  0  0  0  0  0  0  0
   21.5928   -3.9542  -15.9023 C   0  0  0  0  0  0  0  0  0  0  0  0
   21.5608   -2.6693  -16.4441 O   0  0  0  0  0  0  0  0  0  0  0  0
   17.4465   -6.0220  -15.3503 C   0  0  0  0  0  0  0  0  0  0  0  0
   16.2971   -6.6121  -15.7874 C   0  0  0  0  0  0  0  0  0  0  0  0
   22.5933   -4.2734  -15.2298 O   0  0  0  0  0  0  0  0  0  0  0  0
  2  1  1  1
  2  3  1  0
  4  3  1  0
  4  8  1  0
  5  4  2  0
  6  5  1  0
  6  7  1  0
  7  8  2  0
  9 10  2  0
  9  2  1  0
 12 11  1  6
 12 14  1  0
 13 12  1  0
 14 15  1  6
 15  9  1  0
 16 25  1  0
 16 14  1  0
 17 16  2  0
 18 19  1  0
 19 29  2  0
 20 19  1  0
 20 21  2  0
 21 22  1  0
 22 28  2  0
 22 23  1  0
 24 23  1  1
 24 25  1  0
 24 26  1  0
 26 27  1  0
 29 28  1  0
 30 26  2  0
M  END
$$$$
