HTY.pdb
     RDKit          3D

 30 31  0  0  1  0  0  0  0  0999 V2000
   26.9885  -21.7304  -10.9660 N   0  0  0  0  0  0  0  0  0  0  0  0
   25.8398  -20.8653  -10.9080 C   0  0  1  0  0  0  0  0  0  0  0  0
   26.3211  -19.5451  -10.2989 C   0  0  0  0  0  0  0  0  0  0  0  0
   26.5321  -19.8028   -8.8511 C   0  0  0  0  0  0  0  0  0  0  0  0
   26.3794  -20.9896   -8.1647 C   0  0  0  0  0  0  0  0  0  0  0  0
   26.6690  -20.7922   -6.8718 N   0  0  0  0  0  0  0  0  0  0  0  0
   27.0041  -19.4894   -6.7329 C   0  0  0  0  0  0  0  0  0  0  0  0
   26.9219  -18.8897   -7.9288 N   0  0  0  0  0  0  0  0  0  0  0  0
   25.2604  -20.6503  -12.2567 C   0  0  0  0  0  0  0  0  0  0  0  0
   25.9617  -20.0867  -13.1225 O   0  0  0  0  0  0  0  0  0  0  0  0
   24.0953  -23.0440  -14.9172 C   0  0  0  0  0  0  0  0  0  0  0  0
   22.9159  -22.1425  -14.5663 C   0  0  1  0  0  0  0  0  0  0  0  0
   21.9104  -22.8338  -13.9211 O   0  0  0  0  0  0  0  0  0  0  0  0
   23.3425  -20.8931  -13.8791 C   0  0  2  0  0  0  0  0  0  0  0  0
   23.9690  -21.0460  -12.6098 N   0  0  0  0  0  0  0  0  0  0  0  0
   22.1555  -20.0067  -13.7426 C   0  0  0  0  0  0  0  0  0  0  0  0
   21.8461  -19.4514  -12.6587 O   0  0  0  0  0  0  0  0  0  0  0  0
   16.4639  -13.5875  -14.2619 O   0  0  0  0  0  0  0  0  0  0  0  0
   17.4917  -14.5294  -14.3126 C   0  0  0  0  0  0  0  0  0  0  0  0
   18.0110  -14.9396  -15.5130 C   0  0  0  0  0  0  0  0  0  0  0  0
   19.0247  -15.8672  -15.5875 C   0  0  0  0  0  0  0  0  0  0  0  0
   19.5694  -16.4318  -14.4428 C   0  0  0  0  0  0  0  0  0  0  0  0
   20.6407  -17.4352  -14.4842 C   0  0  0  0  0  0  0  0  0  0  0  0
   20.1702  -18.8458  -14.7339 C   0  0  2  0  0  0  0  0  0  0  0  0
   21.3092  -19.7475  -14.8535 N   0  0  0  0  0  0  0  0  0  0  0  0
   19.3329  -18.8972  -15.9348 C   0  0  0  0  0  0  0  0  0  0  0  0
   17.9468  -18.8832  -15.7790 O   0  0  0  0  0  0  0  0  0  0  0  0
   19.0447  -16.0178  -13.2271 C   0  0  0  0  0  0  0  0  0  0  0  0
   18.0399  -15.0967  -13.1805 C   0  0  0  0  0  0  0  0  0  0  0  0
   19.7836  -18.9531  -17.0962 O   0  0  0  0  0  0  0  0  0  0  0  0
  2  1  1  6
  2  3  1  0
  4  3  1  0
  4  8  1  0
  5  4  2  0
  6  5  1  0
  6  7  1  0
  7  8  2  0
  9 10  2  0
  9  2  1  0
 12 11  1  1
 12 14  1  0
 13 12  1  0
 14 15  1  1
 15  9  1  0
 16 25  1  0
 16 14  1  0
 17 16  2  0
 18 19  1  0
 19 29  2  0
 20 19  1  0
 20 21  2  0
 21 22  1  0
 22 28  2  0
 22 23  1  0
 24 23  1  6
 24 25  1  0
 24 26  1  0
 26 27  1  0
 29 28  1  0
 30 26  2  0
M  END
$$$$
