HTY.pdb
     RDKit          3D

 30 31  0  0  1  0  0  0  0  0999 V2000
   21.1369  -18.8799  -17.8623 N   0  0  0  0  0  0  0  0  0  0  0  0
   21.4711  -18.4722  -16.5233 C   0  0  1  0  0  0  0  0  0  0  0  0
   20.1436  -18.2196  -15.8024 C   0  0  0  0  0  0  0  0  0  0  0  0
   19.5596  -16.9980  -16.4139 C   0  0  0  0  0  0  0  0  0  0  0  0
   18.3224  -16.8479  -17.0051 C   0  0  0  0  0  0  0  0  0  0  0  0
   18.1868  -15.5849  -17.4304 N   0  0  0  0  0  0  0  0  0  0  0  0
   19.3284  -14.9328  -17.1134 C   0  0  0  0  0  0  0  0  0  0  0  0
   20.1595  -15.7859  -16.4987 N   0  0  0  0  0  0  0  0  0  0  0  0
   22.2660  -19.5135  -15.8271 C   0  0  0  0  0  0  0  0  0  0  0  0
   21.6639  -20.3468  -15.1184 O   0  0  0  0  0  0  0  0  0  0  0  0
   24.4958  -22.2569  -17.2766 C   0  0  0  0  0  0  0  0  0  0  0  0
   25.3265  -21.3941  -16.3320 C   0  0  1  0  0  0  0  0  0  0  0  0
   26.2538  -20.6293  -17.0106 O   0  0  0  0  0  0  0  0  0  0  0  0
   24.4830  -20.6306  -15.3725 C   0  0  2  0  0  0  0  0  0  0  0  0
   23.6554  -19.6112  -15.9229 N   0  0  0  0  0  0  0  0  0  0  0  0
   25.3722  -20.0412  -14.3355 C   0  0  0  0  0  0  0  0  0  0  0  0
   25.6134  -18.8097  -14.2708 O   0  0  0  0  0  0  0  0  0  0  0  0
   21.7733  -21.3957   -8.5015 O   0  0  0  0  0  0  0  0  0  0  0  0
   22.8345  -20.8787   -9.2449 C   0  0  0  0  0  0  0  0  0  0  0  0
   24.0890  -20.7759   -8.7019 C   0  0  0  0  0  0  0  0  0  0  0  0
   25.1507  -20.2695   -9.4159 C   0  0  0  0  0  0  0  0  0  0  0  0
   24.9970  -19.8378  -10.7258 C   0  0  0  0  0  0  0  0  0  0  0  0
   26.1029  -19.2779  -11.5129 C   0  0  0  0  0  0  0  0  0  0  0  0
   26.8611  -20.2876  -12.3369 C   0  0  2  0  0  0  0  0  0  0  0  0
   25.9950  -20.8629  -13.3584 N   0  0  0  0  0  0  0  0  0  0  0  0
   27.4189  -21.3318  -11.4742 C   0  0  0  0  0  0  0  0  0  0  0  0
   28.3632  -20.9664  -10.5148 O   0  0  0  0  0  0  0  0  0  0  0  0
   23.7279  -19.9410  -11.2766 C   0  0  0  0  0  0  0  0  0  0  0  0
   22.6921  -20.4469  -10.5476 C   0  0  0  0  0  0  0  0  0  0  0  0
   27.1009  -22.5357  -11.5433 O   0  0  0  0  0  0  0  0  0  0  0  0
  2  1  1  6
  2  3  1  0
  4  3  1  0
  4  8  1  0
  5  4  2  0
  6  5  1  0
  6  7  1  0
  7  8  2  0
  9 10  2  0
  9  2  1  0
 12 11  1  6
 12 14  1  0
 13 12  1  0
 14 15  1  6
 15  9  1  0
 16 25  1  0
 16 14  1  0
 17 16  2  0
 18 19  1  0
 19 29  2  0
 20 19  1  0
 20 21  2  0
 21 22  1  0
 22 28  2  0
 22 23  1  0
 24 23  1  1
 24 25  1  0
 24 26  1  0
 26 27  1  0
 29 28  1  0
 30 26  2  0
M  END
$$$$
