HTY.pdb
     RDKit          3D

 30 31  0  0  1  0  0  0  0  0999 V2000
   20.9971  -11.7527  -20.1161 N   0  0  0  0  0  0  0  0  0  0  0  0
   21.0114  -11.0394  -18.8663 C   0  0  1  0  0  0  0  0  0  0  0  0
   21.6372  -11.9832  -17.8351 C   0  0  0  0  0  0  0  0  0  0  0  0
   20.6532  -13.0739  -17.6125 C   0  0  0  0  0  0  0  0  0  0  0  0
   19.5253  -13.0563  -16.8186 C   0  0  0  0  0  0  0  0  0  0  0  0
   18.9125  -14.2450  -16.8961 N   0  0  0  0  0  0  0  0  0  0  0  0
   19.6431  -15.0162  -17.7330 C   0  0  0  0  0  0  0  0  0  0  0  0
   20.6960  -14.3096  -18.1671 N   0  0  0  0  0  0  0  0  0  0  0  0
   21.7868   -9.7794  -18.9754 C   0  0  0  0  0  0  0  0  0  0  0  0
   22.9453   -9.8321  -19.4384 O   0  0  0  0  0  0  0  0  0  0  0  0
   22.2148   -7.0789  -21.1738 C   0  0  0  0  0  0  0  0  0  0  0  0
   21.6416   -6.4641  -19.9010 C   0  0  1  0  0  0  0  0  0  0  0  0
   20.3100   -6.1293  -20.0424 O   0  0  0  0  0  0  0  0  0  0  0  0
   21.9468   -7.2767  -18.6920 C   0  0  2  0  0  0  0  0  0  0  0  0
   21.2883   -8.5346  -18.5868 N   0  0  0  0  0  0  0  0  0  0  0  0
   21.6430   -6.4560  -17.4888 C   0  0  0  0  0  0  0  0  0  0  0  0
   20.5735   -6.5753  -16.8402 O   0  0  0  0  0  0  0  0  0  0  0  0
   19.5714   -8.9875  -11.8775 O   0  0  0  0  0  0  0  0  0  0  0  0
   20.3774   -8.0690  -12.5505 C   0  0  0  0  0  0  0  0  0  0  0  0
   21.4776   -8.4831  -13.2555 C   0  0  0  0  0  0  0  0  0  0  0  0
   22.2869   -7.5955  -13.9269 C   0  0  0  0  0  0  0  0  0  0  0  0
   22.0229   -6.2331  -13.9198 C   0  0  0  0  0  0  0  0  0  0  0  0
   22.8725   -5.2555  -14.6115 C   0  0  0  0  0  0  0  0  0  0  0  0
   22.2610   -4.6613  -15.8551 C   0  0  2  0  0  0  0  0  0  0  0  0
   22.5680   -5.4870  -17.0164 N   0  0  0  0  0  0  0  0  0  0  0  0
   22.7345   -3.2886  -16.0484 C   0  0  0  0  0  0  0  0  0  0  0  0
   22.3069   -2.3066  -15.1549 O   0  0  0  0  0  0  0  0  0  0  0  0
   20.9099   -5.8125  -13.2065 C   0  0  0  0  0  0  0  0  0  0  0  0
   20.1235   -6.7127  -12.5494 C   0  0  0  0  0  0  0  0  0  0  0  0
   23.5014   -2.9394  -16.9677 O   0  0  0  0  0  0  0  0  0  0  0  0
  2  1  1  6
  2  3  1  0
  4  3  1  0
  4  8  1  0
  5  4  2  0
  6  5  1  0
  6  7  1  0
  7  8  2  0
  9 10  2  0
  9  2  1  0
 12 11  1  6
 12 14  1  0
 13 12  1  0
 14 15  1  1
 15  9  1  0
 16 25  1  0
 16 14  1  0
 17 16  2  0
 18 19  1  0
 19 29  2  0
 20 19  1  0
 20 21  2  0
 21 22  1  0
 22 28  2  0
 22 23  1  0
 24 23  1  1
 24 25  1  0
 24 26  1  0
 26 27  1  0
 29 28  1  0
 30 26  2  0
M  END
$$$$
