HTY.pdb
     RDKit          3D

 30 31  0  0  1  0  0  0  0  0999 V2000
   19.6195  -12.9686  -16.7671 N   0  0  0  0  0  0  0  0  0  0  0  0
   19.3720  -11.5511  -16.7496 C   0  0  1  0  0  0  0  0  0  0  0  0
   17.8958  -11.3727  -16.3824 C   0  0  0  0  0  0  0  0  0  0  0  0
   17.1132  -11.7948  -17.5726 C   0  0  0  0  0  0  0  0  0  0  0  0
   16.4286  -12.9763  -17.7685 C   0  0  0  0  0  0  0  0  0  0  0  0
   15.8560  -12.9591  -18.9793 N   0  0  0  0  0  0  0  0  0  0  0  0
   16.1720  -11.7759  -19.5530 C   0  0  0  0  0  0  0  0  0  0  0  0
   16.9321  -11.0707  -18.7037 N   0  0  0  0  0  0  0  0  0  0  0  0
   20.2512  -10.8640  -15.7719 C   0  0  0  0  0  0  0  0  0  0  0  0
   20.3667  -11.3536  -14.6291 O   0  0  0  0  0  0  0  0  0  0  0  0
   23.7229  -10.5485  -15.0552 C   0  0  0  0  0  0  0  0  0  0  0  0
   23.2623   -9.1251  -15.3526 C   0  0  1  0  0  0  0  0  0  0  0  0
   23.7504   -8.6648  -16.5588 O   0  0  0  0  0  0  0  0  0  0  0  0
   21.7938   -8.9567  -15.1785 C   0  0  2  0  0  0  0  0  0  0  0  0
   20.9583   -9.6960  -16.0631 N   0  0  0  0  0  0  0  0  0  0  0  0
   21.4736   -7.5080  -15.2889 C   0  0  0  0  0  0  0  0  0  0  0  0
   21.0258   -6.9919  -16.3435 O   0  0  0  0  0  0  0  0  0  0  0  0
   16.8665   -6.1194   -9.9353 O   0  0  0  0  0  0  0  0  0  0  0  0
   17.6414   -5.8030  -11.0513 C   0  0  0  0  0  0  0  0  0  0  0  0
   17.9522   -6.7574  -11.9849 C   0  0  0  0  0  0  0  0  0  0  0  0
   18.7148   -6.4685  -13.0934 C   0  0  0  0  0  0  0  0  0  0  0  0
   19.2059   -5.1899  -13.3161 C   0  0  0  0  0  0  0  0  0  0  0  0
   20.0352   -4.8485  -14.4788 C   0  0  0  0  0  0  0  0  0  0  0  0
   21.4955   -5.1940  -14.3314 C   0  0  2  0  0  0  0  0  0  0  0  0
   21.6644   -6.6344  -14.1853 N   0  0  0  0  0  0  0  0  0  0  0  0
   22.0741   -4.4801  -13.1906 C   0  0  0  0  0  0  0  0  0  0  0  0
   22.1750   -3.0906  -13.2586 O   0  0  0  0  0  0  0  0  0  0  0  0
   18.8924   -4.2230  -12.3719 C   0  0  0  0  0  0  0  0  0  0  0  0
   18.1345   -4.5351  -11.2817 C   0  0  0  0  0  0  0  0  0  0  0  0
   22.4853   -5.0398  -12.1548 O   0  0  0  0  0  0  0  0  0  0  0  0
  2  1  1  1
  2  3  1  0
  4  3  1  0
  4  8  1  0
  5  4  2  0
  6  5  1  0
  6  7  1  0
  7  8  2  0
  9 10  2  0
  9  2  1  0
 12 11  1  6
 12 14  1  0
 13 12  1  0
 14 15  1  6
 15  9  1  0
 16 25  1  0
 16 14  1  0
 17 16  2  0
 18 19  1  0
 19 29  2  0
 20 19  1  0
 20 21  2  0
 21 22  1  0
 22 28  2  0
 22 23  1  0
 24 23  1  1
 24 25  1  0
 24 26  1  0
 26 27  1  0
 29 28  1  0
 30 26  2  0
M  END
$$$$
