HTY.pdb
     RDKit          3D

 30 31  0  0  1  0  0  0  0  0999 V2000
   29.0538  -27.2211  -17.5599 N   0  0  0  0  0  0  0  0  0  0  0  0
   27.6845  -27.4012  -17.1553 C   0  0  1  0  0  0  0  0  0  0  0  0
   27.6637  -28.6161  -16.2229 C   0  0  0  0  0  0  0  0  0  0  0  0
   27.7393  -29.8163  -17.0952 C   0  0  0  0  0  0  0  0  0  0  0  0
   26.7003  -30.5446  -17.6363 C   0  0  0  0  0  0  0  0  0  0  0  0
   27.1996  -31.5525  -18.3638 N   0  0  0  0  0  0  0  0  0  0  0  0
   28.5473  -31.4690  -18.2883 C   0  0  0  0  0  0  0  0  0  0  0  0
   28.8753  -30.4197  -17.5216 N   0  0  0  0  0  0  0  0  0  0  0  0
   27.1636  -26.1935  -16.4691 C   0  0  0  0  0  0  0  0  0  0  0  0
   27.9508  -25.5186  -15.7734 O   0  0  0  0  0  0  0  0  0  0  0  0
   26.6054  -22.8554  -17.1774 C   0  0  0  0  0  0  0  0  0  0  0  0
   25.2161  -23.3883  -16.8416 C   0  0  1  0  0  0  0  0  0  0  0  0
   24.4267  -23.5196  -17.9662 O   0  0  0  0  0  0  0  0  0  0  0  0
   25.2673  -24.6013  -15.9807 C   0  0  2  0  0  0  0  0  0  0  0  0
   25.8362  -25.7706  -16.5604 N   0  0  0  0  0  0  0  0  0  0  0  0
   23.8869  -24.9009  -15.5135 C   0  0  0  0  0  0  0  0  0  0  0  0
   23.1990  -25.8379  -15.9907 O   0  0  0  0  0  0  0  0  0  0  0  0
   16.4107  -24.5567  -10.6644 O   0  0  0  0  0  0  0  0  0  0  0  0
   17.6999  -24.3751  -11.1652 C   0  0  0  0  0  0  0  0  0  0  0  0
   18.6386  -25.3693  -11.0676 C   0  0  0  0  0  0  0  0  0  0  0  0
   19.9162  -25.2129  -11.5543 C   0  0  0  0  0  0  0  0  0  0  0  0
   20.3130  -24.0340  -12.1696 C   0  0  0  0  0  0  0  0  0  0  0  0
   21.6713  -23.8257  -12.6868 C   0  0  0  0  0  0  0  0  0  0  0  0
   21.9087  -24.3801  -14.0688 C   0  0  2  0  0  0  0  0  0  0  0  0
   23.2808  -24.1252  -14.4896 N   0  0  0  0  0  0  0  0  0  0  0  0
   20.9538  -23.8040  -15.0185 C   0  0  0  0  0  0  0  0  0  0  0  0
   19.7606  -24.4861  -15.2569 O   0  0  0  0  0  0  0  0  0  0  0  0
   19.3641  -23.0269  -12.2689 C   0  0  0  0  0  0  0  0  0  0  0  0
   18.1042  -23.2070  -11.7783 C   0  0  0  0  0  0  0  0  0  0  0  0
   21.1409  -22.7345  -15.6320 O   0  0  0  0  0  0  0  0  0  0  0  0
  2  1  1  1
  2  3  1  0
  4  3  1  0
  4  8  1  0
  5  4  2  0
  6  5  1  0
  6  7  1  0
  7  8  2  0
  9 10  2  0
  9  2  1  0
 12 11  1  6
 12 14  1  0
 13 12  1  0
 14 15  1  6
 15  9  1  0
 16 25  1  0
 16 14  1  0
 17 16  2  0
 18 19  1  0
 19 29  2  0
 20 19  1  0
 20 21  2  0
 21 22  1  0
 22 28  2  0
 22 23  1  0
 24 23  1  1
 24 25  1  0
 24 26  1  0
 26 27  1  0
 29 28  1  0
 30 26  2  0
M  END
$$$$
