RDQ.pdb
     RDKit          3D

 29 28  0  0  1  0  0  0  0  0999 V2000
   30.7600  -24.9793  -16.3533 N   0  0  0  0  0  0  0  0  0  0  0  0
   30.4376  -24.3683  -17.5933 C   0  0  0  0  0  0  0  0  0  0  0  0
   30.4659  -25.0875  -18.6559 N   0  0  0  0  0  0  0  0  0  0  0  0
   30.0858  -23.0045  -17.7187 N   0  0  0  0  0  0  0  0  0  0  0  0
   29.2457  -22.3041  -16.7673 C   0  0  0  0  0  0  0  0  0  0  0  0
   28.0430  -21.7952  -17.5216 C   0  0  0  0  0  0  0  0  0  0  0  0
   26.8456  -21.5751  -16.6199 C   0  0  0  0  0  0  0  0  0  0  0  0
   26.8728  -22.6957  -15.5901 C   0  0  2  0  0  0  0  0  0  0  0  0
   26.6236  -23.9728  -16.2063 N   0  0  0  0  0  0  0  0  0  0  0  0
   25.7857  -22.4832  -14.5744 C   0  0  0  0  0  0  0  0  0  0  0  0
   24.6257  -22.9611  -14.7801 O   0  0  0  0  0  0  0  0  0  0  0  0
   30.3601  -24.7284  -19.6065 N   0  0  0  0  0  0  0  0  0  0  0  0
   26.0130  -21.7558  -13.3747 C   0  0  1  0  0  0  0  0  0  0  0  0
   24.9400  -21.4705  -12.4652 C   0  0  0  0  0  0  0  0  0  0  0  0
   25.4093  -21.0894  -11.1005 C   0  0  0  0  0  0  0  0  0  0  0  0
   24.3442  -20.9342  -10.1082 O   0  0  0  0  0  0  0  0  0  0  0  0
   23.1570  -21.1627  -10.4852 C   0  0  0  0  0  0  0  0  0  0  0  0
   24.0804  -20.4063  -13.0810 O   0  0  0  0  0  0  0  0  0  0  0  0
   24.5962  -19.4415  -13.6993 O   0  0  0  0  0  0  0  0  0  0  0  0
   24.6477  -20.5521   -8.8187 N   0  0  0  0  0  0  0  0  0  0  0  0
   23.2074  -20.7511  -17.7230 C   0  0  0  0  0  0  0  0  0  0  0  0
   22.5789  -19.4772  -17.6323 O   0  0  0  0  0  0  0  0  0  0  0  0
   22.5593  -18.7985  -18.6973 C   0  0  0  0  0  0  0  0  0  0  0  0
   22.0084  -19.0480  -16.3438 C   0  0  0  0  0  0  0  0  0  0  0  0
   22.1347  -20.1569  -15.3379 C   0  0  2  0  0  0  0  0  0  0  0  0
   21.7995  -19.7526  -13.9457 N   0  0  0  0  0  0  0  0  0  0  0  0
   22.6651  -20.4507  -12.9883 C   0  0  0  0  0  0  0  0  0  0  0  0
   20.3839  -20.0300  -13.5906 O   0  0  0  0  0  0  0  0  0  0  0  0
   19.4220  -19.5124  -14.2200 O   0  0  0  0  0  0  0  0  0  0  0  0
  2  3  2  0
  2  1  1  0
  4  2  1  0
  5  4  1  0
  6  5  1  0
  7  6  1  0
  8  7  1  0
  8  9  1  6
 10 12  1  0
 10  8  1  0
 11 10  2  0
 13 14  1  6
 13 12  1  0
 14 15  1  0
 15 16  2  0
 15 19  1  0
 17 13  1  0
 17 18  2  0
 20 21  1  0
 21 22  2  0
 23 21  1  0
 23 24  1  0
 25 24  1  6
 25 26  1  0
 25 27  1  0
 26 17  1  0
 27 28  2  0
 27 29  1  0
M  END
$$$$
