RDQ.pdb
     RDKit          3D

 29 28  0  0  1  0  0  0  0  0999 V2000
   19.2025  -21.1908  -12.0008 N   0  0  0  0  0  0  0  0  0  0  0  0
   18.7173  -22.4844  -12.3267 C   0  0  0  0  0  0  0  0  0  0  0  0
   18.3293  -22.7075  -13.5296 N   0  0  0  0  0  0  0  0  0  0  0  0
   18.6395  -23.5427  -11.3922 N   0  0  0  0  0  0  0  0  0  0  0  0
   18.8769  -23.3752   -9.9720 C   0  0  0  0  0  0  0  0  0  0  0  0
   18.6616  -24.7183   -9.3207 C   0  0  0  0  0  0  0  0  0  0  0  0
   18.7276  -24.6448   -7.8088 C   0  0  0  0  0  0  0  0  0  0  0  0
   18.5521  -26.0695   -7.3024 C   0  0  2  0  0  0  0  0  0  0  0  0
   18.0233  -26.9249   -8.3327 N   0  0  0  0  0  0  0  0  0  0  0  0
   17.5647  -26.0914   -6.1696 C   0  0  0  0  0  0  0  0  0  0  0  0
   16.3224  -26.2036   -6.4154 O   0  0  0  0  0  0  0  0  0  0  0  0
   17.9242  -23.5859  -13.8585 N   0  0  0  0  0  0  0  0  0  0  0  0
   17.9779  -25.9893   -4.8135 C   0  0  1  0  0  0  0  0  0  0  0  0
   17.0182  -25.9250   -3.7481 C   0  0  0  0  0  0  0  0  0  0  0  0
   17.6292  -26.0744   -2.3945 C   0  0  0  0  0  0  0  0  0  0  0  0
   18.4603  -27.2678   -2.2266 O   0  0  0  0  0  0  0  0  0  0  0  0
   18.0142  -28.3598   -2.6875 C   0  0  0  0  0  0  0  0  0  0  0  0
   16.2606  -24.6373   -3.8834 O   0  0  0  0  0  0  0  0  0  0  0  0
   16.6919  -23.7117   -4.6157 O   0  0  0  0  0  0  0  0  0  0  0  0
   19.6785  -27.1803   -1.5869 N   0  0  0  0  0  0  0  0  0  0  0  0
   13.2186  -22.4471   -7.9785 C   0  0  0  0  0  0  0  0  0  0  0  0
   13.3187  -21.8313   -6.6991 O   0  0  0  0  0  0  0  0  0  0  0  0
   13.9117  -20.7165   -6.6723 C   0  0  0  0  0  0  0  0  0  0  0  0
   12.7408  -22.5118   -5.5275 C   0  0  0  0  0  0  0  0  0  0  0  0
   13.6979  -23.5539   -5.0220 C   0  0  2  0  0  0  0  0  0  0  0  0
   14.0925  -23.3740   -3.5987 N   0  0  0  0  0  0  0  0  0  0  0  0
   15.0391  -24.4200   -3.1946 C   0  0  0  0  0  0  0  0  0  0  0  0
   12.9323  -23.4045   -2.6713 O   0  0  0  0  0  0  0  0  0  0  0  0
   12.1015  -22.4585   -2.6071 O   0  0  0  0  0  0  0  0  0  0  0  0
  2  3  2  0
  2  1  1  0
  4  2  1  0
  5  4  1  0
  6  5  1  0
  7  6  1  0
  8  7  1  0
  8  9  1  6
 10 12  1  0
 10  8  1  0
 11 10  2  0
 13 14  1  1
 13 12  1  0
 14 15  1  0
 15 16  2  0
 15 19  1  0
 17 13  1  0
 17 18  2  0
 20 21  1  0
 21 22  2  0
 23 21  1  0
 23 24  1  0
 25 24  1  6
 25 26  1  0
 25 27  1  0
 26 17  1  0
 27 28  2  0
 27 29  1  0
M  END
$$$$
