RDQ.pdb
     RDKit          3D

 29 28  0  0  1  0  0  0  0  0999 V2000
   22.3809  -19.8875  -14.9709 N   0  0  0  0  0  0  0  0  0  0  0  0
   21.9676  -19.0578  -16.0459 C   0  0  0  0  0  0  0  0  0  0  0  0
   20.8583  -19.3248  -16.6337 N   0  0  0  0  0  0  0  0  0  0  0  0
   22.7167  -17.9494  -16.5037 N   0  0  0  0  0  0  0  0  0  0  0  0
   23.2259  -16.9115  -15.6291 C   0  0  0  0  0  0  0  0  0  0  0  0
   23.9711  -15.9245  -16.4922 C   0  0  0  0  0  0  0  0  0  0  0  0
   24.5654  -14.7864  -15.6878 C   0  0  0  0  0  0  0  0  0  0  0  0
   23.5090  -13.6912  -15.6498 C   0  0  2  0  0  0  0  0  0  0  0  0
   22.8613  -13.5505  -16.9279 N   0  0  0  0  0  0  0  0  0  0  0  0
   24.1540  -12.3693  -15.3411 C   0  0  0  0  0  0  0  0  0  0  0  0
   24.8336  -12.2306  -14.2756 O   0  0  0  0  0  0  0  0  0  0  0  0
   20.4665  -18.7900  -17.4111 N   0  0  0  0  0  0  0  0  0  0  0  0
   24.0283  -11.2528  -16.2117 C   0  0  1  0  0  0  0  0  0  0  0  0
   24.5899   -9.9773  -15.8686 C   0  0  0  0  0  0  0  0  0  0  0  0
   25.6741   -9.5414  -16.7973 C   0  0  0  0  0  0  0  0  0  0  0  0
   26.8192  -10.4506  -16.8706 O   0  0  0  0  0  0  0  0  0  0  0  0
   27.6147  -10.4685  -15.8855 C   0  0  0  0  0  0  0  0  0  0  0  0
   23.4711   -8.9800  -15.8039 O   0  0  0  0  0  0  0  0  0  0  0  0
   22.4564   -9.1042  -16.5348 O   0  0  0  0  0  0  0  0  0  0  0  0
   27.0028  -11.2467  -17.9813 N   0  0  0  0  0  0  0  0  0  0  0  0
   22.9526   -3.5796  -15.9794 C   0  0  0  0  0  0  0  0  0  0  0  0
   21.5537   -3.8413  -16.0046 O   0  0  0  0  0  0  0  0  0  0  0  0
   20.8048   -2.8287  -15.9092 C   0  0  0  0  0  0  0  0  0  0  0  0
   21.0855   -5.2315  -16.1381 C   0  0  0  0  0  0  0  0  0  0  0  0
   22.2601   -6.1680  -16.1099 C   0  0  1  0  0  0  0  0  0  0  0  0
   22.4172   -6.9038  -14.8262 N   0  0  0  0  0  0  0  0  0  0  0  0
   23.5180   -7.8694  -14.9220 C   0  0  0  0  0  0  0  0  0  0  0  0
   21.1855   -7.6313  -14.4252 O   0  0  0  0  0  0  0  0  0  0  0  0
   21.0713   -8.8795  -14.5603 O   0  0  0  0  0  0  0  0  0  0  0  0
  2  3  2  0
  2  1  1  0
  4  2  1  0
  5  4  1  0
  6  5  1  0
  7  6  1  0
  8  7  1  0
  8  9  1  6
 10 12  1  0
 10  8  1  0
 11 10  2  0
 13 14  1  1
 13 12  1  0
 14 15  1  0
 15 16  2  0
 15 19  1  0
 17 13  1  0
 17 18  2  0
 20 21  1  0
 21 22  2  0
 23 21  1  0
 23 24  1  0
 25 24  1  1
 25 26  1  0
 25 27  1  0
 26 17  1  0
 27 28  2  0
 27 29  1  0
M  END
$$$$
