RDQ.pdb
     RDKit          3D

 29 28  0  0  1  0  0  0  0  0999 V2000
   24.7039  -21.0228  -10.8773 N   0  0  0  0  0  0  0  0  0  0  0  0
   25.6360  -22.0639  -11.1265 C   0  0  0  0  0  0  0  0  0  0  0  0
   25.1874  -23.2259  -11.4360 N   0  0  0  0  0  0  0  0  0  0  0  0
   27.0368  -21.8864  -11.0517 N   0  0  0  0  0  0  0  0  0  0  0  0
   27.6894  -20.6003  -11.1981 C   0  0  0  0  0  0  0  0  0  0  0  0
   28.3049  -20.5647  -12.5744 C   0  0  0  0  0  0  0  0  0  0  0  0
   28.1482  -19.2142  -13.2431 C   0  0  0  0  0  0  0  0  0  0  0  0
   26.7282  -19.1685  -13.7891 C   0  0  2  0  0  0  0  0  0  0  0  0
   26.3808  -20.4071  -14.4357 N   0  0  0  0  0  0  0  0  0  0  0  0
   26.6143  -18.0885  -14.8280 C   0  0  0  0  0  0  0  0  0  0  0  0
   26.9723  -16.9012  -14.5479 O   0  0  0  0  0  0  0  0  0  0  0  0
   25.7574  -24.0706  -11.5100 N   0  0  0  0  0  0  0  0  0  0  0  0
   26.1129  -18.3526  -16.1314 C   0  0  2  0  0  0  0  0  0  0  0  0
   25.8967  -17.2908  -17.0726 C   0  0  0  0  0  0  0  0  0  0  0  0
   26.7097  -17.4309  -18.3166 C   0  0  0  0  0  0  0  0  0  0  0  0
   26.5736  -16.3235  -19.2644 O   0  0  0  0  0  0  0  0  0  0  0  0
   26.2372  -15.1946  -18.7994 C   0  0  0  0  0  0  0  0  0  0  0  0
   24.4272  -17.2236  -17.3667 O   0  0  0  0  0  0  0  0  0  0  0  0
   23.7780  -18.2645  -17.6389 O   0  0  0  0  0  0  0  0  0  0  0  0
   26.8077  -16.5275  -20.6077 N   0  0  0  0  0  0  0  0  0  0  0  0
   20.6925  -12.8622  -15.1705 C   0  0  0  0  0  0  0  0  0  0  0  0
   19.7359  -13.6225  -15.9007 O   0  0  0  0  0  0  0  0  0  0  0  0
   18.5289  -13.2894  -15.7349 C   0  0  0  0  0  0  0  0  0  0  0  0
   20.2014  -14.7120  -16.7760 C   0  0  0  0  0  0  0  0  0  0  0  0
   21.6945  -14.8441  -16.6722 C   0  0  2  0  0  0  0  0  0  0  0  0
   22.2672  -15.9241  -17.5204 N   0  0  0  0  0  0  0  0  0  0  0  0
   23.7229  -15.9918  -17.3480 C   0  0  0  0  0  0  0  0  0  0  0  0
   21.9717  -15.7398  -18.9646 O   0  0  0  0  0  0  0  0  0  0  0  0
   22.8465  -15.3450  -19.7820 O   0  0  0  0  0  0  0  0  0  0  0  0
  2  3  2  0
  2  1  1  0
  4  2  1  0
  5  4  1  0
  6  5  1  0
  7  6  1  0
  8  7  1  0
  8  9  1  6
 10 12  1  0
 10  8  1  0
 11 10  2  0
 13 14  1  6
 13 12  1  0
 14 15  1  0
 15 16  2  0
 15 19  1  0
 17 13  1  0
 17 18  2  0
 20 21  1  0
 21 22  2  0
 23 21  1  0
 23 24  1  0
 25 24  1  1
 25 26  1  0
 25 27  1  0
 26 17  1  0
 27 28  2  0
 27 29  1  0
M  END
$$$$
