RDQ.pdb
     RDKit          3D

 29 28  0  0  1  0  0  0  0  0999 V2000
   11.2670  -12.4676  -11.6810 N   0  0  0  0  0  0  0  0  0  0  0  0
   11.9408  -13.1268  -10.6197 C   0  0  0  0  0  0  0  0  0  0  0  0
   11.3797  -14.1459  -10.0778 N   0  0  0  0  0  0  0  0  0  0  0  0
   13.2017  -12.7177  -10.1276 N   0  0  0  0  0  0  0  0  0  0  0  0
   13.9457  -11.5964  -10.6666 C   0  0  0  0  0  0  0  0  0  0  0  0
   13.7778  -10.4450   -9.7071 C   0  0  0  0  0  0  0  0  0  0  0  0
   14.6116   -9.2415  -10.0967 C   0  0  0  0  0  0  0  0  0  0  0  0
   14.2831   -8.1484   -9.0897 C   0  0  2  0  0  0  0  0  0  0  0  0
   12.8670   -7.8929   -9.0447 N   0  0  0  0  0  0  0  0  0  0  0  0
   14.9445   -6.8620   -9.4975 C   0  0  0  0  0  0  0  0  0  0  0  0
   14.4292   -6.1491  -10.4155 O   0  0  0  0  0  0  0  0  0  0  0  0
   11.7784  -14.6935   -9.3129 N   0  0  0  0  0  0  0  0  0  0  0  0
   16.1436   -6.4085   -8.8836 C   0  0  1  0  0  0  0  0  0  0  0  0
   16.8348   -5.2492   -9.3719 C   0  0  0  0  0  0  0  0  0  0  0  0
   16.8575   -4.1212   -8.3946 C   0  0  0  0  0  0  0  0  0  0  0  0
   17.5834   -2.9335   -8.8479 O   0  0  0  0  0  0  0  0  0  0  0  0
   17.5954   -2.6956  -10.0916 C   0  0  0  0  0  0  0  0  0  0  0  0
   18.2168   -5.6694   -9.7768 O   0  0  0  0  0  0  0  0  0  0  0  0
   18.9868   -6.2246   -8.9535 O   0  0  0  0  0  0  0  0  0  0  0  0
   18.2221   -2.1207   -7.9355 N   0  0  0  0  0  0  0  0  0  0  0  0
   19.5323   -9.4727  -13.7368 C   0  0  0  0  0  0  0  0  0  0  0  0
   20.8757   -9.1226  -13.4224 O   0  0  0  0  0  0  0  0  0  0  0  0
   21.7572   -9.9520  -13.7837 C   0  0  0  0  0  0  0  0  0  0  0  0
   21.1421   -7.8553  -12.7205 C   0  0  0  0  0  0  0  0  0  0  0  0
   19.8451   -7.2316  -12.2886 C   0  0  2  0  0  0  0  0  0  0  0  0
   20.0067   -5.9592  -11.5346 N   0  0  0  0  0  0  0  0  0  0  0  0
   18.7003   -5.4568  -11.0938 C   0  0  0  0  0  0  0  0  0  0  0  0
   20.6751   -4.8985  -12.3316 O   0  0  0  0  0  0  0  0  0  0  0  0
   20.0277   -3.9707  -12.8879 O   0  0  0  0  0  0  0  0  0  0  0  0
  2  3  2  0
  2  1  1  0
  4  2  1  0
  5  4  1  0
  6  5  1  0
  7  6  1  0
  8  7  1  0
  8  9  1  6
 10 12  1  0
 10  8  1  0
 11 10  2  0
 13 14  1  6
 13 12  1  0
 14 15  1  0
 15 16  2  0
 15 19  1  0
 17 13  1  0
 17 18  2  0
 20 21  1  0
 21 22  2  0
 23 21  1  0
 23 24  1  0
 25 24  1  1
 25 26  1  0
 25 27  1  0
 26 17  1  0
 27 28  2  0
 27 29  1  0
M  END
$$$$
