RDQ.pdb
     RDKit          3D

 29 28  0  0  1  0  0  0  0  0999 V2000
   26.7025  -25.6148  -16.4472 N   0  0  0  0  0  0  0  0  0  0  0  0
   25.9094  -25.2801  -17.5759 C   0  0  0  0  0  0  0  0  0  0  0  0
   25.0305  -26.1243  -17.9784 N   0  0  0  0  0  0  0  0  0  0  0  0
   26.0379  -24.0614  -18.2813 N   0  0  0  0  0  0  0  0  0  0  0  0
   26.8564  -22.9553  -17.8253 C   0  0  0  0  0  0  0  0  0  0  0  0
   26.2834  -22.4861  -16.5115 C   0  0  0  0  0  0  0  0  0  0  0  0
   24.9433  -21.7992  -16.6776 C   0  0  0  0  0  0  0  0  0  0  0  0
   25.0539  -20.4636  -15.9560 C   0  0  2  0  0  0  0  0  0  0  0  0
   26.0842  -20.5005  -14.9511 N   0  0  0  0  0  0  0  0  0  0  0  0
   23.7650  -20.1575  -15.2464 C   0  0  0  0  0  0  0  0  0  0  0  0
   23.4118  -20.8581  -14.2460 O   0  0  0  0  0  0  0  0  0  0  0  0
   24.4584  -26.0154  -18.8179 N   0  0  0  0  0  0  0  0  0  0  0  0
   22.9149  -19.0966  -15.6613 C   0  0  2  0  0  0  0  0  0  0  0  0
   21.6709  -18.8381  -14.9937 C   0  0  0  0  0  0  0  0  0  0  0  0
   21.2155  -17.4225  -15.1230 C   0  0  0  0  0  0  0  0  0  0  0  0
   19.9991  -17.1004  -14.3748 O   0  0  0  0  0  0  0  0  0  0  0  0
   19.2897  -16.1407  -14.7985 C   0  0  0  0  0  0  0  0  0  0  0  0
   20.6524  -19.8059  -15.5195 O   0  0  0  0  0  0  0  0  0  0  0  0
   20.5161  -19.9873  -16.7555 O   0  0  0  0  0  0  0  0  0  0  0  0
   19.6606  -17.8289  -13.2542 N   0  0  0  0  0  0  0  0  0  0  0  0
   20.3340  -24.5895  -12.9256 C   0  0  0  0  0  0  0  0  0  0  0  0
   19.5161  -23.6900  -12.1852 O   0  0  0  0  0  0  0  0  0  0  0  0
   19.5111  -23.8575  -10.9334 C   0  0  0  0  0  0  0  0  0  0  0  0
   18.7547  -22.6541  -12.9043 C   0  0  0  0  0  0  0  0  0  0  0  0
   18.9655  -22.8043  -14.3844 C   0  0  1  0  0  0  0  0  0  0  0  0
   18.8466  -21.5312  -15.1452 N   0  0  0  0  0  0  0  0  0  0  0  0
   19.8129  -20.5457  -14.6468 C   0  0  0  0  0  0  0  0  0  0  0  0
   17.4864  -20.9387  -15.0671 O   0  0  0  0  0  0  0  0  0  0  0  0
   17.2905  -19.7642  -14.6530 O   0  0  0  0  0  0  0  0  0  0  0  0
  2  3  2  0
  2  1  1  0
  4  2  1  0
  5  4  1  0
  6  5  1  0
  7  6  1  0
  8  7  1  0
  8  9  1  1
 10 12  1  0
 10  8  1  0
 11 10  2  0
 13 14  1  6
 13 12  1  0
 14 15  1  0
 15 16  2  0
 15 19  1  0
 17 13  1  0
 17 18  2  0
 20 21  1  0
 21 22  2  0
 23 21  1  0
 23 24  1  0
 25 24  1  6
 25 26  1  0
 25 27  1  0
 26 17  1  0
 27 28  2  0
 27 29  1  0
M  END
$$$$
