RDQ.pdb
     RDKit          3D

 29 28  0  0  1  0  0  0  0  0999 V2000
   22.2354  -26.5641  -16.1969 N   0  0  0  0  0  0  0  0  0  0  0  0
   22.1758  -26.6015  -14.7792 C   0  0  0  0  0  0  0  0  0  0  0  0
   21.7649  -27.6770  -14.2119 N   0  0  0  0  0  0  0  0  0  0  0  0
   22.5471  -25.5124  -13.9574 N   0  0  0  0  0  0  0  0  0  0  0  0
   23.0453  -24.2531  -14.4745 C   0  0  0  0  0  0  0  0  0  0  0  0
   23.3720  -23.3801  -13.2889 C   0  0  0  0  0  0  0  0  0  0  0  0
   23.6315  -21.9409  -13.6847 C   0  0  0  0  0  0  0  0  0  0  0  0
   25.1001  -21.8623  -14.0768 C   0  0  2  0  0  0  0  0  0  0  0  0
   25.9471  -21.8341  -12.9130 N   0  0  0  0  0  0  0  0  0  0  0  0
   25.3597  -20.5907  -14.8346 C   0  0  0  0  0  0  0  0  0  0  0  0
   25.4941  -19.4948  -14.2041 O   0  0  0  0  0  0  0  0  0  0  0  0
   21.6139  -27.7857  -13.2073 N   0  0  0  0  0  0  0  0  0  0  0  0
   25.4612  -20.5706  -16.2521 C   0  0  2  0  0  0  0  0  0  0  0  0
   25.7186  -19.3491  -16.9605 C   0  0  0  0  0  0  0  0  0  0  0  0
   26.8209  -19.4681  -17.9598 C   0  0  0  0  0  0  0  0  0  0  0  0
   28.1500  -19.6771  -17.3827 O   0  0  0  0  0  0  0  0  0  0  0  0
   28.4376  -19.0340  -16.3303 C   0  0  0  0  0  0  0  0  0  0  0  0
   24.4342  -18.8996  -17.5920 O   0  0  0  0  0  0  0  0  0  0  0  0
   23.5020  -19.7154  -17.8034 O   0  0  0  0  0  0  0  0  0  0  0  0
   29.0373  -20.5463  -17.9813 N   0  0  0  0  0  0  0  0  0  0  0  0
   19.8714  -15.6158  -16.2233 C   0  0  0  0  0  0  0  0  0  0  0  0
   20.1649  -16.9914  -16.0052 O   0  0  0  0  0  0  0  0  0  0  0  0
   19.3260  -17.6269  -15.3068 C   0  0  0  0  0  0  0  0  0  0  0  0
   21.3879  -17.5665  -16.5912 C   0  0  0  0  0  0  0  0  0  0  0  0
   22.1039  -16.5214  -17.3991 C   0  0  2  0  0  0  0  0  0  0  0  0
   22.9422  -17.0741  -18.4971 N   0  0  0  0  0  0  0  0  0  0  0  0
   24.2273  -17.5477  -17.9702 C   0  0  0  0  0  0  0  0  0  0  0  0
   23.2096  -16.0838  -19.5717 O   0  0  0  0  0  0  0  0  0  0  0  0
   23.6598  -14.9325  -19.3243 O   0  0  0  0  0  0  0  0  0  0  0  0
  2  3  2  0
  2  1  1  0
  4  2  1  0
  5  4  1  0
  6  5  1  0
  7  6  1  0
  8  7  1  0
  8  9  1  1
 10 12  1  0
 10  8  1  0
 11 10  2  0
 13 14  1  1
 13 12  1  0
 14 15  1  0
 15 16  2  0
 15 19  1  0
 17 13  1  0
 17 18  2  0
 20 21  1  0
 21 22  2  0
 23 21  1  0
 23 24  1  0
 25 24  1  1
 25 26  1  0
 25 27  1  0
 26 17  1  0
 27 28  2  0
 27 29  1  0
M  END
$$$$
