RDQ.pdb
     RDKit          3D

 29 28  0  0  1  0  0  0  0  0999 V2000
   25.5998  -24.0743  -17.7551 N   0  0  0  0  0  0  0  0  0  0  0  0
   26.2306  -24.5794  -16.5881 C   0  0  0  0  0  0  0  0  0  0  0  0
   27.4255  -24.1938  -16.3225 N   0  0  0  0  0  0  0  0  0  0  0  0
   25.6086  -25.4876  -15.7006 N   0  0  0  0  0  0  0  0  0  0  0  0
   24.2389  -25.9390  -15.8474 C   0  0  0  0  0  0  0  0  0  0  0  0
   23.3827  -24.7137  -16.0472 C   0  0  0  0  0  0  0  0  0  0  0  0
   22.4407  -24.4710  -14.8856 C   0  0  0  0  0  0  0  0  0  0  0  0
   21.5772  -25.7188  -14.7661 C   0  0  2  0  0  0  0  0  0  0  0  0
   21.1737  -26.1967  -16.0628 N   0  0  0  0  0  0  0  0  0  0  0  0
   20.3187  -25.3991  -14.0094 C   0  0  0  0  0  0  0  0  0  0  0  0
   19.3250  -24.8927  -14.6198 O   0  0  0  0  0  0  0  0  0  0  0  0
   27.9783  -24.5140  -15.5251 N   0  0  0  0  0  0  0  0  0  0  0  0
   20.1995  -25.6467  -12.6148 C   0  0  2  0  0  0  0  0  0  0  0  0
   19.0159  -25.2743  -11.8935 C   0  0  0  0  0  0  0  0  0  0  0  0
   18.8446  -26.0240  -10.6143 C   0  0  0  0  0  0  0  0  0  0  0  0
   18.7215  -27.4748  -10.7671 O   0  0  0  0  0  0  0  0  0  0  0  0
   18.0200  -27.9031  -11.7305 C   0  0  0  0  0  0  0  0  0  0  0  0
   19.0537  -23.7907  -11.6743 O   0  0  0  0  0  0  0  0  0  0  0  0
   19.8668  -23.2815  -10.8626 O   0  0  0  0  0  0  0  0  0  0  0  0
   19.3547  -28.3217   -9.8823 N   0  0  0  0  0  0  0  0  0  0  0  0
   22.1175  -20.4989  -13.8582 C   0  0  0  0  0  0  0  0  0  0  0  0
   21.0250  -20.2304  -14.7302 O   0  0  0  0  0  0  0  0  0  0  0  0
   21.3294  -19.7538  -15.8595 C   0  0  0  0  0  0  0  0  0  0  0  0
   19.6544  -20.5188  -14.2740 C   0  0  0  0  0  0  0  0  0  0  0  0
   19.6910  -21.0882  -12.8840 C   0  0  1  0  0  0  0  0  0  0  0  0
   18.3542  -21.4590  -12.3462 N   0  0  0  0  0  0  0  0  0  0  0  0
   18.1797  -22.9158  -12.3702 C   0  0  0  0  0  0  0  0  0  0  0  0
   17.2367  -20.8380  -13.1029 O   0  0  0  0  0  0  0  0  0  0  0  0
   16.5096  -21.5029  -13.8893 O   0  0  0  0  0  0  0  0  0  0  0  0
  2  3  2  0
  2  1  1  0
  4  2  1  0
  5  4  1  0
  6  5  1  0
  7  6  1  0
  8  7  1  0
  8  9  1  6
 10 12  1  0
 10  8  1  0
 11 10  2  0
 13 14  1  6
 13 12  1  0
 14 15  1  0
 15 16  2  0
 15 19  1  0
 17 13  1  0
 17 18  2  0
 20 21  1  0
 21 22  2  0
 23 21  1  0
 23 24  1  0
 25 24  1  1
 25 26  1  0
 25 27  1  0
 26 17  1  0
 27 28  2  0
 27 29  1  0
M  END
$$$$
