RDQ.pdb
     RDKit          3D

 29 28  0  0  1  0  0  0  0  0999 V2000
   27.1999  -24.0608  -19.1822 N   0  0  0  0  0  0  0  0  0  0  0  0
   26.0697  -24.3253  -18.3650 C   0  0  0  0  0  0  0  0  0  0  0  0
   25.0351  -24.8591  -18.9053 N   0  0  0  0  0  0  0  0  0  0  0  0
   26.0249  -24.0306  -16.9828 N   0  0  0  0  0  0  0  0  0  0  0  0
   27.1204  -23.4154  -16.2598 C   0  0  0  0  0  0  0  0  0  0  0  0
   27.1539  -21.9595  -16.6518 C   0  0  0  0  0  0  0  0  0  0  0  0
   26.0307  -21.1642  -16.0181 C   0  0  0  0  0  0  0  0  0  0  0  0
   26.1383  -19.7518  -16.5753 C   0  0  2  0  0  0  0  0  0  0  0  0
   27.4127  -19.1634  -16.2552 N   0  0  0  0  0  0  0  0  0  0  0  0
   25.0865  -18.8759  -15.9547 C   0  0  0  0  0  0  0  0  0  0  0  0
   25.1284  -18.6227  -14.7094 O   0  0  0  0  0  0  0  0  0  0  0  0
   24.1620  -25.0648  -18.4162 N   0  0  0  0  0  0  0  0  0  0  0  0
   24.0315  -18.3129  -16.7228 C   0  0  2  0  0  0  0  0  0  0  0  0
   22.9915  -17.5423  -16.1027 C   0  0  0  0  0  0  0  0  0  0  0  0
   22.6797  -16.2779  -16.8323 C   0  0  0  0  0  0  0  0  0  0  0  0
   21.6527  -15.4458  -16.2030 O   0  0  0  0  0  0  0  0  0  0  0  0
   21.1740  -15.8431  -15.0999 C   0  0  0  0  0  0  0  0  0  0  0  0
   21.7842  -18.4214  -15.9612 O   0  0  0  0  0  0  0  0  0  0  0  0
   21.5447  -19.3244  -16.8016 O   0  0  0  0  0  0  0  0  0  0  0  0
   21.2388  -14.2783  -16.8087 N   0  0  0  0  0  0  0  0  0  0  0  0
   17.3328  -18.8955  -18.1618 C   0  0  0  0  0  0  0  0  0  0  0  0
   16.8118  -19.7101  -17.1173 O   0  0  0  0  0  0  0  0  0  0  0  0
   15.7096  -20.2763  -17.3618 C   0  0  0  0  0  0  0  0  0  0  0  0
   17.5691  -19.8375  -15.8603 C   0  0  0  0  0  0  0  0  0  0  0  0
   18.8251  -19.0165  -15.9386 C   0  0  2  0  0  0  0  0  0  0  0  0
   19.6905  -19.1174  -14.7325 N   0  0  0  0  0  0  0  0  0  0  0  0
   20.8764  -18.2661  -14.8817 C   0  0  0  0  0  0  0  0  0  0  0  0
   20.1393  -20.5073  -14.4606 O   0  0  0  0  0  0  0  0  0  0  0  0
   20.8744  -21.1427  -15.2638 O   0  0  0  0  0  0  0  0  0  0  0  0
  2  3  2  0
  2  1  1  0
  4  2  1  0
  5  4  1  0
  6  5  1  0
  7  6  1  0
  8  7  1  0
  8  9  1  1
 10 12  1  0
 10  8  1  0
 11 10  2  0
 13 14  1  6
 13 12  1  0
 14 15  1  0
 15 16  2  0
 15 19  1  0
 17 13  1  0
 17 18  2  0
 20 21  1  0
 21 22  2  0
 23 21  1  0
 23 24  1  0
 25 24  1  1
 25 26  1  0
 25 27  1  0
 26 17  1  0
 27 28  2  0
 27 29  1  0
M  END
$$$$
