RDQ.pdb
     RDKit          3D

 29 28  0  0  1  0  0  0  0  0999 V2000
   14.7800  -15.8280  -19.6953 N   0  0  0  0  0  0  0  0  0  0  0  0
   14.2327  -15.4768  -18.4336 C   0  0  0  0  0  0  0  0  0  0  0  0
   13.2084  -16.1234  -18.0093 N   0  0  0  0  0  0  0  0  0  0  0  0
   14.7592  -14.4490  -17.6177 N   0  0  0  0  0  0  0  0  0  0  0  0
   15.6477  -13.4139  -18.1082 C   0  0  0  0  0  0  0  0  0  0  0  0
   16.0265  -12.5533  -16.9291 C   0  0  0  0  0  0  0  0  0  0  0  0
   16.8601  -11.3542  -17.3327 C   0  0  0  0  0  0  0  0  0  0  0  0
   18.3153  -11.7681  -17.1658 C   0  0  2  0  0  0  0  0  0  0  0  0
   18.4222  -13.0095  -16.4444 N   0  0  0  0  0  0  0  0  0  0  0  0
   19.0524  -10.7335  -16.3628 C   0  0  0  0  0  0  0  0  0  0  0  0
   18.7955  -10.5920  -15.1256 O   0  0  0  0  0  0  0  0  0  0  0  0
   12.7580  -15.9743  -17.1045 N   0  0  0  0  0  0  0  0  0  0  0  0
   20.0406   -9.8956  -16.9471 C   0  0  1  0  0  0  0  0  0  0  0  0
   20.7725   -8.9480  -16.1556 C   0  0  0  0  0  0  0  0  0  0  0  0
   22.2516   -9.1330  -16.2327 C   0  0  0  0  0  0  0  0  0  0  0  0
   23.0304   -8.1661  -15.4569 O   0  0  0  0  0  0  0  0  0  0  0  0
   24.0221   -7.6229  -16.0272 C   0  0  0  0  0  0  0  0  0  0  0  0
   20.3559   -7.5703  -16.5787 O   0  0  0  0  0  0  0  0  0  0  0  0
   20.1245   -7.3113  -17.7864 O   0  0  0  0  0  0  0  0  0  0  0  0
   22.6774   -7.8752  -14.1562 N   0  0  0  0  0  0  0  0  0  0  0  0
   17.3879   -4.5652  -18.3618 C   0  0  0  0  0  0  0  0  0  0  0  0
   17.4103   -3.4076  -17.5338 O   0  0  0  0  0  0  0  0  0  0  0  0
   16.9247   -2.3592  -18.0441 C   0  0  0  0  0  0  0  0  0  0  0  0
   17.9781   -3.5053  -16.1781 C   0  0  0  0  0  0  0  0  0  0  0  0
   18.4028   -4.9207  -15.9061 C   0  0  1  0  0  0  0  0  0  0  0  0
   19.8662   -5.1510  -16.0451 N   0  0  0  0  0  0  0  0  0  0  0  0
   20.2093   -6.5184  -15.6377 C   0  0  0  0  0  0  0  0  0  0  0  0
   20.6774   -4.2018  -15.2402 O   0  0  0  0  0  0  0  0  0  0  0  0
   21.3117   -4.5666  -14.2136 O   0  0  0  0  0  0  0  0  0  0  0  0
  2  3  2  0
  2  1  1  0
  4  2  1  0
  5  4  1  0
  6  5  1  0
  7  6  1  0
  8  7  1  0
  8  9  1  1
 10 12  1  0
 10  8  1  0
 11 10  2  0
 13 14  1  1
 13 12  1  0
 14 15  1  0
 15 16  2  0
 15 19  1  0
 17 13  1  0
 17 18  2  0
 20 21  1  0
 21 22  2  0
 23 21  1  0
 23 24  1  0
 25 24  1  6
 25 26  1  0
 25 27  1  0
 26 17  1  0
 27 28  2  0
 27 29  1  0
M  END
$$$$
