RDQ.pdb
     RDKit          3D

 29 28  0  0  1  0  0  0  0  0999 V2000
   30.5057  -24.7125  -16.5682 N   0  0  0  0  0  0  0  0  0  0  0  0
   29.1048  -24.7104  -16.3390 C   0  0  0  0  0  0  0  0  0  0  0  0
   28.5206  -25.8295  -16.1084 N   0  0  0  0  0  0  0  0  0  0  0  0
   28.3178  -23.5357  -16.3515 N   0  0  0  0  0  0  0  0  0  0  0  0
   28.8500  -22.2189  -16.6416 C   0  0  0  0  0  0  0  0  0  0  0  0
   28.8427  -22.0534  -18.1406 C   0  0  0  0  0  0  0  0  0  0  0  0
   27.5581  -21.4300  -18.6472 C   0  0  0  0  0  0  0  0  0  0  0  0
   27.7740  -19.9234  -18.6223 C   0  0  2  0  0  0  0  0  0  0  0  0
   28.9121  -19.5756  -17.8121 N   0  0  0  0  0  0  0  0  0  0  0  0
   26.5805  -19.2460  -18.0097 C   0  0  0  0  0  0  0  0  0  0  0  0
   26.5010  -17.9771  -18.0160 O   0  0  0  0  0  0  0  0  0  0  0  0
   27.5288  -25.9352  -15.8868 N   0  0  0  0  0  0  0  0  0  0  0  0
   25.5225  -19.9856  -17.4149 C   0  0  1  0  0  0  0  0  0  0  0  0
   24.2833  -19.3540  -17.0606 C   0  0  0  0  0  0  0  0  0  0  0  0
   23.7034  -18.5329  -18.1639 C   0  0  0  0  0  0  0  0  0  0  0  0
   22.9846  -17.3361  -17.7232 O   0  0  0  0  0  0  0  0  0  0  0  0
   23.4319  -16.7272  -16.7069 C   0  0  0  0  0  0  0  0  0  0  0  0
   23.3355  -20.4201  -16.5961 O   0  0  0  0  0  0  0  0  0  0  0  0
   23.1560  -21.4613  -17.2764 O   0  0  0  0  0  0  0  0  0  0  0  0
   21.8653  -16.9087  -18.4055 N   0  0  0  0  0  0  0  0  0  0  0  0
   20.4374  -20.4935  -10.9977 C   0  0  0  0  0  0  0  0  0  0  0  0
   21.6074  -19.7950  -11.4093 O   0  0  0  0  0  0  0  0  0  0  0  0
   22.0544  -18.9440  -10.5900 C   0  0  0  0  0  0  0  0  0  0  0  0
   22.2027  -20.1018  -12.7212 C   0  0  0  0  0  0  0  0  0  0  0  0
   21.3068  -21.0407  -13.4785 C   0  0  2  0  0  0  0  0  0  0  0  0
   21.8041  -21.3886  -14.8370 N   0  0  0  0  0  0  0  0  0  0  0  0
   22.6136  -20.2922  -15.3812 C   0  0  0  0  0  0  0  0  0  0  0  0
   20.7067  -21.6841  -15.7936 O   0  0  0  0  0  0  0  0  0  0  0  0
   20.3116  -20.8387  -16.6413 O   0  0  0  0  0  0  0  0  0  0  0  0
  2  3  2  0
  2  1  1  0
  4  2  1  0
  5  4  1  0
  6  5  1  0
  7  6  1  0
  8  7  1  0
  8  9  1  1
 10 12  1  0
 10  8  1  0
 11 10  2  0
 13 14  1  6
 13 12  1  0
 14 15  1  0
 15 16  2  0
 15 19  1  0
 17 13  1  0
 17 18  2  0
 20 21  1  0
 21 22  2  0
 23 21  1  0
 23 24  1  0
 25 24  1  1
 25 26  1  0
 25 27  1  0
 26 17  1  0
 27 28  2  0
 27 29  1  0
M  END
$$$$
