RDQ.pdb
     RDKit          3D

 29 28  0  0  1  0  0  0  0  0999 V2000
   31.7227  -20.8773  -10.7299 N   0  0  0  0  0  0  0  0  0  0  0  0
   30.5610  -21.6858  -10.6212 C   0  0  0  0  0  0  0  0  0  0  0  0
   30.6131  -22.7366   -9.8862 N   0  0  0  0  0  0  0  0  0  0  0  0
   29.3461  -21.3922  -11.2824 N   0  0  0  0  0  0  0  0  0  0  0  0
   29.1334  -20.1949  -12.0715 C   0  0  0  0  0  0  0  0  0  0  0  0
   27.7184  -20.2464  -12.5906 C   0  0  0  0  0  0  0  0  0  0  0  0
   27.5884  -21.1070  -13.8307 C   0  0  0  0  0  0  0  0  0  0  0  0
   27.4830  -20.1486  -15.0085 C   0  0  2  0  0  0  0  0  0  0  0  0
   28.5097  -19.1408  -14.9508 N   0  0  0  0  0  0  0  0  0  0  0  0
   26.1643  -19.4290  -14.9657 C   0  0  0  0  0  0  0  0  0  0  0  0
   26.0197  -18.4180  -14.2084 O   0  0  0  0  0  0  0  0  0  0  0  0
   29.8454  -23.3988   -9.7597 N   0  0  0  0  0  0  0  0  0  0  0  0
   25.0574  -19.8459  -15.7537 C   0  0  2  0  0  0  0  0  0  0  0  0
   23.8101  -19.1368  -15.7153 C   0  0  0  0  0  0  0  0  0  0  0  0
   23.2822  -18.7987  -17.0700 C   0  0  0  0  0  0  0  0  0  0  0  0
   22.0301  -18.0402  -17.0668 O   0  0  0  0  0  0  0  0  0  0  0  0
   20.9682  -18.6645  -17.3609 C   0  0  0  0  0  0  0  0  0  0  0  0
   22.8355  -19.9551  -14.9209 O   0  0  0  0  0  0  0  0  0  0  0  0
   22.7364  -21.1941  -15.1052 O   0  0  0  0  0  0  0  0  0  0  0  0
   22.0332  -16.6977  -16.7527 N   0  0  0  0  0  0  0  0  0  0  0  0
   21.1936  -18.8717   -9.1503 C   0  0  0  0  0  0  0  0  0  0  0  0
   20.9275  -20.2582   -9.3319 O   0  0  0  0  0  0  0  0  0  0  0  0
   20.7314  -20.9216   -8.2752 C   0  0  0  0  0  0  0  0  0  0  0  0
   20.8970  -20.8108  -10.6970 C   0  0  0  0  0  0  0  0  0  0  0  0
   21.1496  -19.7155  -11.6941 C   0  0  2  0  0  0  0  0  0  0  0  0
   21.0852  -20.1611  -13.1122 N   0  0  0  0  0  0  0  0  0  0  0  0
   21.9973  -19.3639  -13.9404 C   0  0  0  0  0  0  0  0  0  0  0  0
   19.7184  -20.0607  -13.6857 O   0  0  0  0  0  0  0  0  0  0  0  0
   18.8601  -20.9715  -13.5338 O   0  0  0  0  0  0  0  0  0  0  0  0
  2  3  2  0
  2  1  1  0
  4  2  1  0
  5  4  1  0
  6  5  1  0
  7  6  1  0
  8  7  1  0
  8  9  1  1
 10 12  1  0
 10  8  1  0
 11 10  2  0
 13 14  1  6
 13 12  1  0
 14 15  1  0
 15 16  2  0
 15 19  1  0
 17 13  1  0
 17 18  2  0
 20 21  1  0
 21 22  2  0
 23 21  1  0
 23 24  1  0
 25 24  1  1
 25 26  1  0
 25 27  1  0
 26 17  1  0
 27 28  2  0
 27 29  1  0
M  END
$$$$
