RDQ.pdb
     RDKit          3D

 29 28  0  0  1  0  0  0  0  0999 V2000
   24.0346  -24.8661  -13.7429 N   0  0  0  0  0  0  0  0  0  0  0  0
   23.2971  -24.4148  -14.8686 C   0  0  0  0  0  0  0  0  0  0  0  0
   23.6276  -24.8481  -16.0306 N   0  0  0  0  0  0  0  0  0  0  0  0
   22.2142  -23.5104  -14.7757 N   0  0  0  0  0  0  0  0  0  0  0  0
   21.5099  -23.2295  -13.5401 C   0  0  0  0  0  0  0  0  0  0  0  0
   20.0470  -23.5004  -13.7871 C   0  0  0  0  0  0  0  0  0  0  0  0
   19.3183  -23.9296  -12.5300 C   0  0  0  0  0  0  0  0  0  0  0  0
   19.2581  -25.4501  -12.5675 C   0  0  2  0  0  0  0  0  0  0  0  0
   18.6808  -25.9162  -13.8013 N   0  0  0  0  0  0  0  0  0  0  0  0
   18.3789  -25.9545  -11.4579 C   0  0  0  0  0  0  0  0  0  0  0  0
   17.1209  -25.7814  -11.5193 O   0  0  0  0  0  0  0  0  0  0  0  0
   23.2258  -24.5211  -16.9112 N   0  0  0  0  0  0  0  0  0  0  0  0
   18.9131  -26.6279  -10.3259 C   0  0  1  0  0  0  0  0  0  0  0  0
   18.0640  -27.0709   -9.2570 C   0  0  0  0  0  0  0  0  0  0  0  0
   18.7061  -28.0929   -8.3788 C   0  0  0  0  0  0  0  0  0  0  0  0
   17.8323  -28.6442   -7.3416 O   0  0  0  0  0  0  0  0  0  0  0  0
   16.6543  -28.1856   -7.2658 C   0  0  0  0  0  0  0  0  0  0  0  0
   17.6232  -25.8632   -8.4837 O   0  0  0  0  0  0  0  0  0  0  0  0
   18.4627  -25.1298   -7.9038 O   0  0  0  0  0  0  0  0  0  0  0  0
   18.2981  -29.6247   -6.4914 N   0  0  0  0  0  0  0  0  0  0  0  0
   12.4910  -22.6818   -9.6231 C   0  0  0  0  0  0  0  0  0  0  0  0
   12.9201  -21.9778   -8.4629 O   0  0  0  0  0  0  0  0  0  0  0  0
   12.2592  -20.9405   -8.1754 C   0  0  0  0  0  0  0  0  0  0  0  0
   14.0691  -22.4897   -7.6963 C   0  0  0  0  0  0  0  0  0  0  0  0
   14.6615  -23.6769   -8.4012 C   0  0  1  0  0  0  0  0  0  0  0  0
   15.8137  -24.2916   -7.6880 N   0  0  0  0  0  0  0  0  0  0  0  0
   16.2531  -25.5085   -8.3804 C   0  0  0  0  0  0  0  0  0  0  0  0
   15.4993  -24.6389   -6.2782 O   0  0  0  0  0  0  0  0  0  0  0  0
   15.5624  -23.7890   -5.3492 O   0  0  0  0  0  0  0  0  0  0  0  0
  2  3  2  0
  2  1  1  0
  4  2  1  0
  5  4  1  0
  6  5  1  0
  7  6  1  0
  8  7  1  0
  8  9  1  6
 10 12  1  0
 10  8  1  0
 11 10  2  0
 13 14  1  6
 13 12  1  0
 14 15  1  0
 15 16  2  0
 15 19  1  0
 17 13  1  0
 17 18  2  0
 20 21  1  0
 21 22  2  0
 23 21  1  0
 23 24  1  0
 25 24  1  6
 25 26  1  0
 25 27  1  0
 26 17  1  0
 27 28  2  0
 27 29  1  0
M  END
$$$$
