RDQ.pdb
     RDKit          3D

 29 28  0  0  1  0  0  0  0  0999 V2000
   23.3645  -11.5100  -20.7463 N   0  0  0  0  0  0  0  0  0  0  0  0
   22.7911  -12.4113  -19.8116 C   0  0  0  0  0  0  0  0  0  0  0  0
   22.9693  -12.1905  -18.5599 N   0  0  0  0  0  0  0  0  0  0  0  0
   22.0315  -13.5425  -20.1891 N   0  0  0  0  0  0  0  0  0  0  0  0
   21.4339  -14.4590  -19.2381 C   0  0  0  0  0  0  0  0  0  0  0  0
   22.5530  -15.2680  -18.6320 C   0  0  0  0  0  0  0  0  0  0  0  0
   22.6793  -16.6412  -19.2598 C   0  0  0  0  0  0  0  0  0  0  0  0
   21.9291  -17.6005  -18.3467 C   0  0  2  0  0  0  0  0  0  0  0  0
   21.8421  -17.0805  -17.0070 N   0  0  0  0  0  0  0  0  0  0  0  0
   22.6679  -18.9063  -18.2594 C   0  0  0  0  0  0  0  0  0  0  0  0
   23.4578  -19.2500  -19.1945 O   0  0  0  0  0  0  0  0  0  0  0  0
   22.6467  -12.8022  -17.8078 N   0  0  0  0  0  0  0  0  0  0  0  0
   22.5114  -19.7831  -17.1516 C   0  0  2  0  0  0  0  0  0  0  0  0
   23.6452  -20.4174  -16.5414 C   0  0  0  0  0  0  0  0  0  0  0  0
   24.7392  -19.4628  -16.1950 C   0  0  0  0  0  0  0  0  0  0  0  0
   26.0787  -20.0527  -16.1636 O   0  0  0  0  0  0  0  0  0  0  0  0
   26.9125  -19.5652  -15.3446 C   0  0  0  0  0  0  0  0  0  0  0  0
   23.1616  -21.1769  -15.3415 O   0  0  0  0  0  0  0  0  0  0  0  0
   23.0280  -22.4257  -15.3823 O   0  0  0  0  0  0  0  0  0  0  0  0
   26.3960  -21.0985  -17.0043 N   0  0  0  0  0  0  0  0  0  0  0  0
   19.6233  -17.0757  -12.8175 C   0  0  0  0  0  0  0  0  0  0  0  0
   20.4594  -17.1378  -13.9678 O   0  0  0  0  0  0  0  0  0  0  0  0
   20.5886  -16.0583  -14.6105 C   0  0  0  0  0  0  0  0  0  0  0  0
   21.1007  -18.4160  -14.3212 C   0  0  0  0  0  0  0  0  0  0  0  0
   20.8743  -19.4180  -13.2247 C   0  0  1  0  0  0  0  0  0  0  0  0
   21.5569  -20.7216  -13.4454 N   0  0  0  0  0  0  0  0  0  0  0  0
   22.8405  -20.5175  -14.1267 C   0  0  0  0  0  0  0  0  0  0  0  0
   20.7423  -21.6693  -14.2487 O   0  0  0  0  0  0  0  0  0  0  0  0
   20.2563  -21.3524  -15.3680 O   0  0  0  0  0  0  0  0  0  0  0  0
  2  3  2  0
  2  1  1  0
  4  2  1  0
  5  4  1  0
  6  5  1  0
  7  6  1  0
  8  7  1  0
  8  9  1  1
 10 12  1  0
 10  8  1  0
 11 10  2  0
 13 14  1  6
 13 12  1  0
 14 15  1  0
 15 16  2  0
 15 19  1  0
 17 13  1  0
 17 18  2  0
 20 21  1  0
 21 22  2  0
 23 21  1  0
 23 24  1  0
 25 24  1  1
 25 26  1  0
 25 27  1  0
 26 17  1  0
 27 28  2  0
 27 29  1  0
M  END
$$$$
