MNP.pdb
     RDKit          3D

 24 24  0  0  1  0  0  0  0  0999 V2000
    7.6912  -11.0385   26.1189 C   0  0  0  0  0  0  0  0  0  0  0  0
    6.5757  -11.8107   27.3476 S   0  0  0  0  0  0  0  0  0  0  0  0
    5.7877  -13.2368   26.5497 C   0  0  0  0  0  0  0  0  0  0  0  0
    6.7930  -14.1092   25.8514 C   0  0  0  0  0  0  0  0  0  0  0  0
    6.1335  -15.2953   25.1598 C   0  0  2  0  0  0  0  0  0  0  0  0
    5.5694  -16.1918   26.1365 N   0  0  0  0  0  0  0  0  0  0  0  0
    7.2215  -15.9937   24.4096 C   0  0  0  0  0  0  0  0  0  0  0  0
    7.8871  -16.8472   25.0489 O   0  0  0  0  0  0  0  0  0  0  0  0
    7.7510  -13.8676   21.6471 N   0  0  0  0  0  0  0  0  0  0  0  0
    8.0126  -14.7871   20.6088 C   0  0  0  0  0  0  0  0  0  0  0  0
    7.9650  -14.3978   19.4182 O   0  0  0  0  0  0  0  0  0  0  0  0
    8.3435  -16.2074   20.8921 C   0  0  0  0  0  0  0  0  0  0  0  0
    8.5357  -16.4138   22.3803 C   0  0  2  0  0  0  0  0  0  0  0  0
    7.4816  -15.7032   23.0511 N   0  0  0  0  0  0  0  0  0  0  0  0
    9.8431  -15.9992   22.8935 C   0  0  0  0  0  0  0  0  0  0  0  0
    9.9444  -14.8627   23.4281 O   0  0  0  0  0  0  0  0  0  0  0  0
   11.0189  -16.8080   22.8262 N   0  0  0  0  0  0  0  0  0  0  0  0
   11.2104  -18.1429   22.3009 C   0  0  0  0  0  0  0  0  0  0  0  0
   12.3810  -18.7381   23.0545 C   0  0  0  0  0  0  0  0  0  0  0  0
   12.6676  -17.6915   24.1077 C   0  0  0  0  0  0  0  0  0  0  0  0
   12.3456  -16.4321   23.3066 C   0  0  1  0  0  0  0  0  0  0  0  0
   13.2915  -16.2064   22.2062 C   0  0  0  0  0  0  0  0  0  0  0  0
   14.4643  -15.5331   22.4814 O   0  0  0  0  0  0  0  0  0  0  0  0
   13.1115  -16.5841   21.0211 O   0  0  0  0  0  0  0  0  0  0  0  0
  1  2  1  0
  2  3  1  0
  4  3  1  0
  5  4  1  0
  5  6  1  1
  7  8  2  0
  7  5  1  0
  9 10  1  0
 10 12  1  0
 11 10  2  0
 13 12  1  6
 13 14  1  0
 14  7  1  0
 15 17  1  0
 15 13  1  0
 16 15  2  0
 17 18  1  0
 18 19  1  0
 20 19  1  0
 21 17  1  0
 21 20  1  0
 21 22  1  6
 22 23  1  0
 24 22  2  0
M  END
$$$$
