MNP.pdb
     RDKit          3D

 24 24  0  0  1  0  0  0  0  0999 V2000
    8.3023  -11.4371   20.4173 C   0  0  0  0  0  0  0  0  0  0  0  0
    8.0910  -12.3295   18.8332 S   0  0  0  0  0  0  0  0  0  0  0  0
    7.5999  -14.0312   19.2263 C   0  0  0  0  0  0  0  0  0  0  0  0
    8.7411  -14.8199   19.8050 C   0  0  0  0  0  0  0  0  0  0  0  0
    8.3094  -16.2180   20.2280 C   0  0  2  0  0  0  0  0  0  0  0  0
    7.3641  -16.7555   19.2828 N   0  0  0  0  0  0  0  0  0  0  0  0
    7.6503  -16.0617   21.5605 C   0  0  0  0  0  0  0  0  0  0  0  0
    6.3987  -16.1764   21.5858 O   0  0  0  0  0  0  0  0  0  0  0  0
    6.5930  -16.7364   26.3845 N   0  0  0  0  0  0  0  0  0  0  0  0
    6.7811  -17.7490   25.4196 C   0  0  0  0  0  0  0  0  0  0  0  0
    6.4267  -18.9219   25.6843 O   0  0  0  0  0  0  0  0  0  0  0  0
    7.3896  -17.4592   24.0957 C   0  0  0  0  0  0  0  0  0  0  0  0
    7.7868  -16.0000   24.0098 C   0  0  2  0  0  0  0  0  0  0  0  0
    8.4034  -15.7987   22.7272 N   0  0  0  0  0  0  0  0  0  0  0  0
    8.6705  -15.5405   25.0832 C   0  0  0  0  0  0  0  0  0  0  0  0
    9.8973  -15.8186   25.0103 O   0  0  0  0  0  0  0  0  0  0  0  0
    8.2263  -14.7909   26.2155 N   0  0  0  0  0  0  0  0  0  0  0  0
    6.8893  -14.5463   26.7127 C   0  0  0  0  0  0  0  0  0  0  0  0
    6.9412  -13.2287   27.4568 C   0  0  0  0  0  0  0  0  0  0  0  0
    8.3414  -12.7363   27.1676 C   0  0  0  0  0  0  0  0  0  0  0  0
    9.0815  -14.0719   27.1557 C   0  0  1  0  0  0  0  0  0  0  0  0
    9.1137  -14.7106   28.4776 C   0  0  0  0  0  0  0  0  0  0  0  0
    9.9740  -14.2001   29.4284 O   0  0  0  0  0  0  0  0  0  0  0  0
    8.4099  -15.6969   28.8115 O   0  0  0  0  0  0  0  0  0  0  0  0
  1  2  1  0
  2  3  1  0
  4  3  1  0
  5  4  1  0
  5  6  1  6
  7  8  2  0
  7  5  1  0
  9 10  1  0
 10 12  1  0
 11 10  2  0
 13 12  1  1
 13 14  1  0
 14  7  1  0
 15 17  1  0
 15 13  1  0
 16 15  2  0
 17 18  1  0
 18 19  1  0
 20 19  1  0
 21 17  1  0
 21 20  1  0
 21 22  1  1
 22 23  1  0
 24 22  2  0
M  END
$$$$
