MNP.pdb
     RDKit          3D

 24 24  0  0  1  0  0  0  0  0999 V2000
    9.1511  -12.2470   19.9081 C   0  0  0  0  0  0  0  0  0  0  0  0
    8.0542  -12.9918   18.6462 S   0  0  0  0  0  0  0  0  0  0  0  0
    7.3262  -14.4877   19.3697 C   0  0  0  0  0  0  0  0  0  0  0  0
    8.3817  -15.4378   19.8624 C   0  0  0  0  0  0  0  0  0  0  0  0
    7.7752  -16.6922   20.4777 C   0  0  2  0  0  0  0  0  0  0  0  0
    6.7699  -17.2408   19.6034 N   0  0  0  0  0  0  0  0  0  0  0  0
    7.1404  -16.2585   21.7595 C   0  0  0  0  0  0  0  0  0  0  0  0
    5.9109  -15.9996   21.7189 O   0  0  0  0  0  0  0  0  0  0  0  0
    8.5560  -17.9346   24.8787 N   0  0  0  0  0  0  0  0  0  0  0  0
    7.1639  -17.8781   25.1037 C   0  0  0  0  0  0  0  0  0  0  0  0
    6.5957  -18.8374   25.6766 O   0  0  0  0  0  0  0  0  0  0  0  0
    6.3536  -16.7080   24.6778 C   0  0  0  0  0  0  0  0  0  0  0  0
    7.2527  -15.6209   24.1265 C   0  0  2  0  0  0  0  0  0  0  0  0
    7.8914  -16.1479   22.9517 N   0  0  0  0  0  0  0  0  0  0  0  0
    8.2504  -15.1125   25.0702 C   0  0  0  0  0  0  0  0  0  0  0  0
    9.4674  -15.3413   24.8372 O   0  0  0  0  0  0  0  0  0  0  0  0
    7.9285  -14.3679   26.2462 N   0  0  0  0  0  0  0  0  0  0  0  0
    6.6459  -14.0743   26.8489 C   0  0  0  0  0  0  0  0  0  0  0  0
    6.8150  -12.7762   27.6099 C   0  0  0  0  0  0  0  0  0  0  0  0
    8.2104  -12.3409   27.2227 C   0  0  0  0  0  0  0  0  0  0  0  0
    8.8850  -13.7077   27.1304 C   0  0  1  0  0  0  0  0  0  0  0  0
    8.9880  -14.3749   28.4346 C   0  0  0  0  0  0  0  0  0  0  0  0
    9.9514  -13.9341   29.3189 O   0  0  0  0  0  0  0  0  0  0  0  0
    8.2577  -15.3265   28.8095 O   0  0  0  0  0  0  0  0  0  0  0  0
  1  2  1  0
  2  3  1  0
  4  3  1  0
  5  4  1  0
  5  6  1  6
  7  8  2  0
  7  5  1  0
  9 10  1  0
 10 12  1  0
 11 10  2  0
 13 12  1  1
 13 14  1  0
 14  7  1  0
 15 17  1  0
 15 13  1  0
 16 15  2  0
 17 18  1  0
 18 19  1  0
 20 19  1  0
 21 17  1  0
 21 20  1  0
 21 22  1  1
 22 23  1  0
 24 22  2  0
M  END
$$$$
