MNP.pdb
     RDKit          3D

 24 24  0  0  1  0  0  0  0  0999 V2000
    7.5031  -11.4388   19.8377 C   0  0  0  0  0  0  0  0  0  0  0  0
    8.4128  -12.3648   18.5474 S   0  0  0  0  0  0  0  0  0  0  0  0
    8.1649  -14.1333   18.8670 C   0  0  0  0  0  0  0  0  0  0  0  0
    7.6697  -14.3821   20.2642 C   0  0  0  0  0  0  0  0  0  0  0  0
    7.4575  -15.8656   20.5366 C   0  0  2  0  0  0  0  0  0  0  0  0
    6.3478  -16.3612   19.7628 N   0  0  0  0  0  0  0  0  0  0  0  0
    7.1408  -15.9773   21.9932 C   0  0  0  0  0  0  0  0  0  0  0  0
    5.9763  -15.6567   22.3418 O   0  0  0  0  0  0  0  0  0  0  0  0
    6.2740  -17.6254   26.7993 N   0  0  0  0  0  0  0  0  0  0  0  0
    7.4640  -18.0572   26.1754 C   0  0  0  0  0  0  0  0  0  0  0  0
    8.3752  -18.5603   26.8739 O   0  0  0  0  0  0  0  0  0  0  0  0
    7.6641  -17.9303   24.7088 C   0  0  0  0  0  0  0  0  0  0  0  0
    7.7562  -16.4701   24.3170 C   0  0  2  0  0  0  0  0  0  0  0  0
    8.1071  -16.4215   22.9240 N   0  0  0  0  0  0  0  0  0  0  0  0
    8.6978  -15.6795   25.1125 C   0  0  0  0  0  0  0  0  0  0  0  0
    9.9089  -15.6617   24.7650 O   0  0  0  0  0  0  0  0  0  0  0  0
    8.3271  -14.9215   26.2654 N   0  0  0  0  0  0  0  0  0  0  0  0
    7.0492  -14.7929   26.9325 C   0  0  0  0  0  0  0  0  0  0  0  0
    7.0519  -13.4393   27.6107 C   0  0  0  0  0  0  0  0  0  0  0  0
    8.3374  -12.8181   27.1123 C   0  0  0  0  0  0  0  0  0  0  0  0
    9.2139  -14.0670   27.0500 C   0  0  1  0  0  0  0  0  0  0  0  0
    9.4927  -14.6271   28.3786 C   0  0  0  0  0  0  0  0  0  0  0  0
   10.4143  -13.9823   29.1784 O   0  0  0  0  0  0  0  0  0  0  0  0
    8.9499  -15.6594   28.8466 O   0  0  0  0  0  0  0  0  0  0  0  0
  1  2  1  0
  2  3  1  0
  4  3  1  0
  5  4  1  0
  5  6  1  6
  7  8  2  0
  7  5  1  0
  9 10  1  0
 10 12  1  0
 11 10  2  0
 13 12  1  1
 13 14  1  0
 14  7  1  0
 15 17  1  0
 15 13  1  0
 16 15  2  0
 17 18  1  0
 18 19  1  0
 20 19  1  0
 21 17  1  0
 21 20  1  0
 21 22  1  1
 22 23  1  0
 24 22  2  0
M  END
$$$$
