MNP.pdb
     RDKit          3D

 24 24  0  0  1  0  0  0  0  0999 V2000
    6.8016  -11.2509   27.0917 C   0  0  0  0  0  0  0  0  0  0  0  0
    6.8345  -12.5325   28.3981 S   0  0  0  0  0  0  0  0  0  0  0  0
    6.8764  -14.1493   27.5761 C   0  0  0  0  0  0  0  0  0  0  0  0
    6.4180  -14.0591   26.1474 C   0  0  0  0  0  0  0  0  0  0  0  0
    6.7912  -15.3025   25.3509 C   0  0  2  0  0  0  0  0  0  0  0  0
    7.6406  -16.1616   26.1360 N   0  0  0  0  0  0  0  0  0  0  0  0
    7.5420  -14.8163   24.1532 C   0  0  0  0  0  0  0  0  0  0  0  0
    6.9402  -14.0074   23.4024 O   0  0  0  0  0  0  0  0  0  0  0  0
   10.1633  -17.4346   22.7235 N   0  0  0  0  0  0  0  0  0  0  0  0
   11.2172  -16.5241   22.9516 C   0  0  0  0  0  0  0  0  0  0  0  0
   12.3595  -16.9635   23.2228 O   0  0  0  0  0  0  0  0  0  0  0  0
   11.0065  -15.0553   22.8783 C   0  0  0  0  0  0  0  0  0  0  0  0
    9.5325  -14.7448   22.7199 C   0  0  2  0  0  0  0  0  0  0  0  0
    8.8607  -15.2492   23.8862 N   0  0  0  0  0  0  0  0  0  0  0  0
    8.9202  -15.2798   21.5020 C   0  0  0  0  0  0  0  0  0  0  0  0
    8.4037  -16.4283   21.5452 O   0  0  0  0  0  0  0  0  0  0  0  0
    8.8706  -14.5764   20.2595 N   0  0  0  0  0  0  0  0  0  0  0  0
    9.4292  -13.2951   19.8840 C   0  0  0  0  0  0  0  0  0  0  0  0
    8.5574  -12.7554   18.7699 C   0  0  0  0  0  0  0  0  0  0  0  0
    7.4269  -13.7583   18.7142 C   0  0  0  0  0  0  0  0  0  0  0  0
    8.2025  -15.0317   19.0436 C   0  0  1  0  0  0  0  0  0  0  0  0
    9.1569  -15.3992   17.9896 C   0  0  0  0  0  0  0  0  0  0  0  0
    8.7403  -15.3223   16.6762 O   0  0  0  0  0  0  0  0  0  0  0  0
   10.3359  -15.7822   18.1959 O   0  0  0  0  0  0  0  0  0  0  0  0
  1  2  1  0
  2  3  1  0
  4  3  1  0
  5  4  1  0
  5  6  1  1
  7  8  2  0
  7  5  1  0
  9 10  1  0
 10 12  1  0
 11 10  2  0
 13 12  1  1
 13 14  1  0
 14  7  1  0
 15 17  1  0
 15 13  1  0
 16 15  2  0
 17 18  1  0
 18 19  1  0
 20 19  1  0
 21 17  1  0
 21 20  1  0
 21 22  1  6
 22 23  1  0
 24 22  2  0
M  END
$$$$
