MNP.pdb
     RDKit          3D

 24 24  0  0  1  0  0  0  0  0999 V2000
    6.9301  -11.1634   28.2216 C   0  0  0  0  0  0  0  0  0  0  0  0
    7.0351  -12.2396   26.7448 S   0  0  0  0  0  0  0  0  0  0  0  0
    6.0110  -13.7032   27.0615 C   0  0  0  0  0  0  0  0  0  0  0  0
    5.9329  -14.5988   25.8569 C   0  0  0  0  0  0  0  0  0  0  0  0
    6.9876  -15.6970   25.8954 C   0  0  2  0  0  0  0  0  0  0  0  0
    7.6511  -15.7068   27.1743 N   0  0  0  0  0  0  0  0  0  0  0  0
    7.9734  -15.3612   24.8232 C   0  0  0  0  0  0  0  0  0  0  0  0
    8.2553  -14.1445   24.6793 O   0  0  0  0  0  0  0  0  0  0  0  0
   11.9442  -16.8377   20.6657 N   0  0  0  0  0  0  0  0  0  0  0  0
   11.5510  -16.3368   21.9252 C   0  0  0  0  0  0  0  0  0  0  0  0
   12.1494  -15.3453   22.4051 O   0  0  0  0  0  0  0  0  0  0  0  0
   10.4437  -16.9562   22.6979 C   0  0  0  0  0  0  0  0  0  0  0  0
    9.2998  -15.9754   22.8522 C   0  0  2  0  0  0  0  0  0  0  0  0
    8.5542  -16.3664   24.0171 N   0  0  0  0  0  0  0  0  0  0  0  0
    8.4180  -15.8731   21.6875 C   0  0  0  0  0  0  0  0  0  0  0  0
    7.4471  -16.6714   21.5985 O   0  0  0  0  0  0  0  0  0  0  0  0
    8.5900  -14.9181   20.6388 N   0  0  0  0  0  0  0  0  0  0  0  0
    9.6032  -13.9016   20.4527 C   0  0  0  0  0  0  0  0  0  0  0  0
    8.9674  -12.8072   19.6218 C   0  0  0  0  0  0  0  0  0  0  0  0
    7.5233  -13.2481   19.5368 C   0  0  0  0  0  0  0  0  0  0  0  0
    7.7243  -14.7605   19.4736 C   0  0  1  0  0  0  0  0  0  0  0  0
    8.3800  -15.1909   18.2320 C   0  0  0  0  0  0  0  0  0  0  0  0
    9.6833  -15.6391   18.3038 O   0  0  0  0  0  0  0  0  0  0  0  0
    7.8383  -15.1817   17.0981 O   0  0  0  0  0  0  0  0  0  0  0  0
  1  2  1  0
  2  3  1  0
  4  3  1  0
  5  4  1  0
  5  6  1  1
  7  8  2  0
  7  5  1  0
  9 10  1  0
 10 12  1  0
 11 10  2  0
 13 12  1  6
 13 14  1  0
 14  7  1  0
 15 17  1  0
 15 13  1  0
 16 15  2  0
 17 18  1  0
 18 19  1  0
 20 19  1  0
 21 17  1  0
 21 20  1  0
 21 22  1  6
 22 23  1  0
 24 22  2  0
M  END
$$$$
