MNP.pdb
     RDKit          3D

 24 24  0  0  1  0  0  0  0  0999 V2000
    8.1610  -11.8851   18.9187 C   0  0  0  0  0  0  0  0  0  0  0  0
    8.1456  -13.4382   17.9504 S   0  0  0  0  0  0  0  0  0  0  0  0
    8.6626  -14.7782   19.0588 C   0  0  0  0  0  0  0  0  0  0  0  0
    8.9539  -14.2730   20.4442 C   0  0  0  0  0  0  0  0  0  0  0  0
    9.3377  -15.4017   21.3921 C   0  0  2  0  0  0  0  0  0  0  0  0
    8.4551  -16.5261   21.2121 N   0  0  0  0  0  0  0  0  0  0  0  0
    9.1753  -14.8546   22.7736 C   0  0  0  0  0  0  0  0  0  0  0  0
   10.0884  -14.0974   23.1897 O   0  0  0  0  0  0  0  0  0  0  0  0
    6.3731  -12.7478   26.9858 N   0  0  0  0  0  0  0  0  0  0  0  0
    6.4237  -14.1328   26.7191 C   0  0  0  0  0  0  0  0  0  0  0  0
    6.3629  -14.9438   27.6730 O   0  0  0  0  0  0  0  0  0  0  0  0
    6.5475  -14.6545   25.3336 C   0  0  0  0  0  0  0  0  0  0  0  0
    8.0049  -14.7185   24.9261 C   0  0  2  0  0  0  0  0  0  0  0  0
    8.0495  -15.1775   23.5648 N   0  0  0  0  0  0  0  0  0  0  0  0
    8.8445  -15.5607   25.7806 C   0  0  0  0  0  0  0  0  0  0  0  0
    9.2192  -16.6792   25.3376 O   0  0  0  0  0  0  0  0  0  0  0  0
    9.2691  -15.1912   27.0938 N   0  0  0  0  0  0  0  0  0  0  0  0
    8.7574  -14.1816   27.9957 C   0  0  0  0  0  0  0  0  0  0  0  0
    9.9139  -13.7705   28.8822 C   0  0  0  0  0  0  0  0  0  0  0  0
   11.0834  -14.5080   28.2697 C   0  0  0  0  0  0  0  0  0  0  0  0
   10.3750  -15.7894   27.8363 C   0  0  1  0  0  0  0  0  0  0  0  0
    9.9100  -16.5899   28.9763 C   0  0  0  0  0  0  0  0  0  0  0  0
   10.8521  -17.2557   29.7338 O   0  0  0  0  0  0  0  0  0  0  0  0
    8.7069  -16.7155   29.3172 O   0  0  0  0  0  0  0  0  0  0  0  0
  1  2  1  0
  2  3  1  0
  4  3  1  0
  5  4  1  0
  5  6  1  1
  7  8  2  0
  7  5  1  0
  9 10  1  0
 10 12  1  0
 11 10  2  0
 13 12  1  1
 13 14  1  0
 14  7  1  0
 15 17  1  0
 15 13  1  0
 16 15  2  0
 17 18  1  0
 18 19  1  0
 20 19  1  0
 21 17  1  0
 21 20  1  0
 21 22  1  1
 22 23  1  0
 24 22  2  0
M  END
$$$$
