MNP.pdb
     RDKit          3D

 24 24  0  0  1  0  0  0  0  0999 V2000
    9.1737  -12.2164   17.5021 C   0  0  0  0  0  0  0  0  0  0  0  0
    8.3690  -12.4051   19.1352 S   0  0  0  0  0  0  0  0  0  0  0  0
    8.2094  -14.1822   19.4635 C   0  0  0  0  0  0  0  0  0  0  0  0
    7.6434  -14.4467   20.8306 C   0  0  0  0  0  0  0  0  0  0  0  0
    7.4814  -15.9370   21.1004 C   0  0  2  0  0  0  0  0  0  0  0  0
    6.5215  -16.5073   20.1898 N   0  0  0  0  0  0  0  0  0  0  0  0
    6.9709  -16.0505   22.5007 C   0  0  0  0  0  0  0  0  0  0  0  0
    5.8258  -15.5812   22.7217 O   0  0  0  0  0  0  0  0  0  0  0  0
    7.1119  -18.5307   23.4466 N   0  0  0  0  0  0  0  0  0  0  0  0
    6.6339  -18.4805   24.7735 C   0  0  0  0  0  0  0  0  0  0  0  0
    6.1135  -19.5037   25.2773 O   0  0  0  0  0  0  0  0  0  0  0  0
    6.7322  -17.2431   25.5898 C   0  0  0  0  0  0  0  0  0  0  0  0
    7.5756  -16.2087   24.8737 C   0  0  2  0  0  0  0  0  0  0  0  0
    7.7428  -16.6562   23.5181 N   0  0  0  0  0  0  0  0  0  0  0  0
    8.8762  -15.9428   25.4917 C   0  0  0  0  0  0  0  0  0  0  0  0
    9.9128  -16.3643   24.9123 O   0  0  0  0  0  0  0  0  0  0  0  0
    9.0451  -15.2301   26.7184 N   0  0  0  0  0  0  0  0  0  0  0  0
    8.0735  -14.5577   27.5541 C   0  0  0  0  0  0  0  0  0  0  0  0
    8.8210  -13.4658   28.2899 C   0  0  0  0  0  0  0  0  0  0  0  0
   10.1931  -13.5142   27.6561 C   0  0  0  0  0  0  0  0  0  0  0  0
   10.3088  -15.0182   27.4188 C   0  0  1  0  0  0  0  0  0  0  0  0
   10.3851  -15.7824   28.6705 C   0  0  0  0  0  0  0  0  0  0  0  0
   11.5769  -15.7777   29.3664 O   0  0  0  0  0  0  0  0  0  0  0  0
    9.4375  -16.4468   29.1604 O   0  0  0  0  0  0  0  0  0  0  0  0
  1  2  1  0
  2  3  1  0
  4  3  1  0
  5  4  1  0
  5  6  1  6
  7  8  2  0
  7  5  1  0
  9 10  1  0
 10 12  1  0
 11 10  2  0
 13 12  1  1
 13 14  1  0
 14  7  1  0
 15 17  1  0
 15 13  1  0
 16 15  2  0
 17 18  1  0
 18 19  1  0
 20 19  1  0
 21 17  1  0
 21 20  1  0
 21 22  1  1
 22 23  1  0
 24 22  2  0
M  END
$$$$
