MNP.pdb
     RDKit          3D

 24 24  0  0  1  0  0  0  0  0999 V2000
    8.0091  -11.4598   20.3864 C   0  0  0  0  0  0  0  0  0  0  0  0
    8.3283  -12.3492   18.8188 S   0  0  0  0  0  0  0  0  0  0  0  0
    8.1981  -14.1258   19.1624 C   0  0  0  0  0  0  0  0  0  0  0  0
    7.8074  -14.3892   20.5898 C   0  0  0  0  0  0  0  0  0  0  0  0
    7.6046  -15.8745   20.8590 C   0  0  2  0  0  0  0  0  0  0  0  0
    6.4831  -16.3701   20.1025 N   0  0  0  0  0  0  0  0  0  0  0  0
    7.3139  -15.9939   22.3204 C   0  0  0  0  0  0  0  0  0  0  0  0
    6.1249  -16.2499   22.6382 O   0  0  0  0  0  0  0  0  0  0  0  0
    6.2089  -18.0215   26.7190 N   0  0  0  0  0  0  0  0  0  0  0  0
    7.4022  -18.1802   25.9825 C   0  0  0  0  0  0  0  0  0  0  0  0
    8.3679  -18.7873   26.5025 O   0  0  0  0  0  0  0  0  0  0  0  0
    7.5429  -17.6450   24.6038 C   0  0  0  0  0  0  0  0  0  0  0  0
    8.0675  -16.2246   24.6442 C   0  0  2  0  0  0  0  0  0  0  0  0
    8.3299  -15.8260   23.2885 N   0  0  0  0  0  0  0  0  0  0  0  0
    9.2574  -16.0334   25.4760 C   0  0  0  0  0  0  0  0  0  0  0  0
   10.3748  -16.3892   25.0149 O   0  0  0  0  0  0  0  0  0  0  0  0
    9.2312  -15.4645   26.7863 N   0  0  0  0  0  0  0  0  0  0  0  0
    8.1125  -15.1292   27.6411 C   0  0  0  0  0  0  0  0  0  0  0  0
    8.5806  -14.0059   28.5419 C   0  0  0  0  0  0  0  0  0  0  0  0
    9.9469  -13.6768   27.9835 C   0  0  0  0  0  0  0  0  0  0  0  0
   10.3972  -15.0777   27.5756 C   0  0  1  0  0  0  0  0  0  0  0  0
   10.6049  -15.9617   28.7297 C   0  0  0  0  0  0  0  0  0  0  0  0
   11.7308  -15.7701   29.5044 O   0  0  0  0  0  0  0  0  0  0  0  0
    9.8267  -16.8887   29.0683 O   0  0  0  0  0  0  0  0  0  0  0  0
  1  2  1  0
  2  3  1  0
  4  3  1  0
  5  4  1  0
  5  6  1  6
  7  8  2  0
  7  5  1  0
  9 10  1  0
 10 12  1  0
 11 10  2  0
 13 12  1  6
 13 14  1  0
 14  7  1  0
 15 17  1  0
 15 13  1  0
 16 15  2  0
 17 18  1  0
 18 19  1  0
 20 19  1  0
 21 17  1  0
 21 20  1  0
 21 22  1  1
 22 23  1  0
 24 22  2  0
M  END
$$$$
