MNP.pdb
     RDKit          3D

 24 24  0  0  1  0  0  0  0  0999 V2000
    8.3955  -12.0776   19.7867 C   0  0  0  0  0  0  0  0  0  0  0  0
    7.9030  -12.9717   18.2674 S   0  0  0  0  0  0  0  0  0  0  0  0
    7.5586  -14.6910   18.7327 C   0  0  0  0  0  0  0  0  0  0  0  0
    8.0564  -15.0033   20.1162 C   0  0  0  0  0  0  0  0  0  0  0  0
    7.6691  -16.4091   20.5561 C   0  0  2  0  0  0  0  0  0  0  0  0
    6.7218  -16.9780   19.6316 N   0  0  0  0  0  0  0  0  0  0  0  0
    7.0297  -16.2607   21.8991 C   0  0  0  0  0  0  0  0  0  0  0  0
    5.8208  -15.9162   21.9114 O   0  0  0  0  0  0  0  0  0  0  0  0
    8.2482  -18.4729   24.5334 N   0  0  0  0  0  0  0  0  0  0  0  0
    7.0208  -18.1695   25.1605 C   0  0  0  0  0  0  0  0  0  0  0  0
    6.4705  -19.0341   25.8823 O   0  0  0  0  0  0  0  0  0  0  0  0
    6.3634  -16.8487   24.9862 C   0  0  0  0  0  0  0  0  0  0  0  0
    7.3081  -15.8788   24.3070 C   0  0  2  0  0  0  0  0  0  0  0  0
    7.7547  -16.4976   23.0890 N   0  0  0  0  0  0  0  0  0  0  0  0
    8.4515  -15.4634   25.1222 C   0  0  0  0  0  0  0  0  0  0  0  0
    9.6016  -15.8518   24.7840 O   0  0  0  0  0  0  0  0  0  0  0  0
    8.3445  -14.6394   26.2844 N   0  0  0  0  0  0  0  0  0  0  0  0
    7.1763  -14.1071   26.9525 C   0  0  0  0  0  0  0  0  0  0  0  0
    7.6195  -12.8372   27.6478 C   0  0  0  0  0  0  0  0  0  0  0  0
    9.0398  -12.6658   27.1578 C   0  0  0  0  0  0  0  0  0  0  0  0
    9.4589  -14.1321   27.0801 C   0  0  1  0  0  0  0  0  0  0  0  0
    9.5328  -14.7684   28.4016 C   0  0  0  0  0  0  0  0  0  0  0  0
   10.5970  -14.4501   29.2206 O   0  0  0  0  0  0  0  0  0  0  0  0
    8.6915  -15.5889   28.8471 O   0  0  0  0  0  0  0  0  0  0  0  0
  1  2  1  0
  2  3  1  0
  4  3  1  0
  5  4  1  0
  5  6  1  6
  7  8  2  0
  7  5  1  0
  9 10  1  0
 10 12  1  0
 11 10  2  0
 13 12  1  1
 13 14  1  0
 14  7  1  0
 15 17  1  0
 15 13  1  0
 16 15  2  0
 17 18  1  0
 18 19  1  0
 20 19  1  0
 21 17  1  0
 21 20  1  0
 21 22  1  1
 22 23  1  0
 24 22  2  0
M  END
$$$$
