MNP.pdb
     RDKit          3D

 24 24  0  0  1  0  0  0  0  0999 V2000
    5.6675  -10.7042   27.2628 C   0  0  0  0  0  0  0  0  0  0  0  0
    6.9867  -11.9214   26.9051 S   0  0  0  0  0  0  0  0  0  0  0  0
    6.2423  -13.2666   25.9420 C   0  0  0  0  0  0  0  0  0  0  0  0
    7.2405  -14.3464   25.6305 C   0  0  0  0  0  0  0  0  0  0  0  0
    6.6471  -15.4295   24.7392 C   0  0  2  0  0  0  0  0  0  0  0  0
    5.8961  -16.3707   25.5303 N   0  0  0  0  0  0  0  0  0  0  0  0
    7.8082  -16.1244   24.1041 C   0  0  0  0  0  0  0  0  0  0  0  0
    8.2893  -17.1025   24.7302 O   0  0  0  0  0  0  0  0  0  0  0  0
    7.5226  -16.9874   20.4839 N   0  0  0  0  0  0  0  0  0  0  0  0
    8.5742  -16.1516   20.0511 C   0  0  0  0  0  0  0  0  0  0  0  0
    8.5415  -15.6746   18.8923 O   0  0  0  0  0  0  0  0  0  0  0  0
    9.7211  -15.8224   20.9361 C   0  0  0  0  0  0  0  0  0  0  0  0
    9.4833  -16.3707   22.3279 C   0  0  2  0  0  0  0  0  0  0  0  0
    8.3319  -15.6969   22.8629 N   0  0  0  0  0  0  0  0  0  0  0  0
   10.6223  -16.2456   23.2397 C   0  0  0  0  0  0  0  0  0  0  0  0
   10.6524  -15.2650   24.0304 O   0  0  0  0  0  0  0  0  0  0  0  0
   11.7088  -17.1720   23.2898 N   0  0  0  0  0  0  0  0  0  0  0  0
   11.9227  -18.4070   22.5663 C   0  0  0  0  0  0  0  0  0  0  0  0
   12.8110  -19.2686   23.4387 C   0  0  0  0  0  0  0  0  0  0  0  0
   12.9002  -18.4683   24.7187 C   0  0  0  0  0  0  0  0  0  0  0  0
   12.8938  -17.0571   24.1353 C   0  0  1  0  0  0  0  0  0  0  0  0
   14.1045  -16.7629   23.3578 C   0  0  0  0  0  0  0  0  0  0  0  0
   15.2297  -16.3415   24.0367 O   0  0  0  0  0  0  0  0  0  0  0  0
   14.1937  -16.8669   22.1086 O   0  0  0  0  0  0  0  0  0  0  0  0
  1  2  1  0
  2  3  1  0
  4  3  1  0
  5  4  1  0
  5  6  1  1
  7  8  2  0
  7  5  1  0
  9 10  1  0
 10 12  1  0
 11 10  2  0
 13 12  1  6
 13 14  1  0
 14  7  1  0
 15 17  1  0
 15 13  1  0
 16 15  2  0
 17 18  1  0
 18 19  1  0
 20 19  1  0
 21 17  1  0
 21 20  1  0
 21 22  1  6
 22 23  1  0
 24 22  2  0
M  END
$$$$
