GFR.pdb
     RDKit          3D

 27 27  0  0  1  0  0  0  0  0999 V2000
   31.0996  -23.1401  -12.7912 N   0  0  0  0  0  0  0  0  0  0  0  0
   30.9981  -21.8210  -12.2105 C   0  0  0  0  0  0  0  0  0  0  0  0
   30.1328  -21.8422  -10.9857 C   0  0  0  0  0  0  0  0  0  0  0  0
   29.2570  -22.7399  -10.8976 O   0  0  0  0  0  0  0  0  0  0  0  0
   30.2826  -20.8915   -9.9532 N   0  0  0  0  0  0  0  0  0  0  0  0
   29.3607  -20.8187   -8.8262 C   0  0  1  0  0  0  0  0  0  0  0  0
   29.9904  -20.1590   -7.6502 C   0  0  0  0  0  0  0  0  0  0  0  0
   29.0938  -20.0993   -6.4747 C   0  0  0  0  0  0  0  0  0  0  0  0
   29.0889  -21.1548   -5.5741 C   0  0  0  0  0  0  0  0  0  0  0  0
   28.2791  -21.1358   -4.4594 C   0  0  0  0  0  0  0  0  0  0  0  0
   27.4559  -20.0758   -4.2077 C   0  0  0  0  0  0  0  0  0  0  0  0
   27.4765  -19.0347   -5.1182 C   0  0  0  0  0  0  0  0  0  0  0  0
   28.2732  -19.0340   -6.2311 C   0  0  0  0  0  0  0  0  0  0  0  0
   28.0575  -20.2401   -9.2480 C   0  0  0  0  0  0  0  0  0  0  0  0
   28.0213  -19.1819   -9.9251 O   0  0  0  0  0  0  0  0  0  0  0  0
   21.1733  -20.8418  -13.6351 N   0  0  0  0  0  0  0  0  0  0  0  0
   22.2098  -20.0123  -14.1701 C   0  0  0  0  0  0  0  0  0  0  0  0
   21.8713  -19.0372  -14.9280 N   0  0  0  0  0  0  0  0  0  0  0  0
   23.5705  -20.2311  -13.8945 N   0  0  0  0  0  0  0  0  0  0  0  0
   24.0081  -21.3393  -12.9952 C   0  0  0  0  0  0  0  0  0  0  0  0
   24.1812  -20.7645  -11.6508 C   0  0  0  0  0  0  0  0  0  0  0  0
   25.3745  -20.9740  -10.8353 C   0  0  0  0  0  0  0  0  0  0  0  0
   25.5306  -20.4956   -9.4693 C   0  0  2  0  0  0  0  0  0  0  0  0
   26.8358  -20.8611   -8.9006 N   0  0  0  0  0  0  0  0  0  0  0  0
   24.4577  -20.6866   -8.5015 C   0  0  0  0  0  0  0  0  0  0  0  0
   23.2440  -19.9608   -8.8187 O   0  0  0  0  0  0  0  0  0  0  0  0
   24.4289  -21.3572   -7.4777 O   0  0  0  0  0  0  0  0  0  0  0  0
  2  1  1  0
  2  3  1  0
  3  4  2  0
  5  3  1  0
  5  6  1  0
  6 14  1  0
  6  7  1  1
  8  7  1  0
  9  8  2  0
 10  9  1  0
 11 10  2  0
 11 12  1  0
 12 13  2  0
 13  8  1  0
 14 15  2  0
 16 17  1  0
 17 18  2  0
 17 19  1  0
 19 20  1  0
 20 21  1  0
 21 22  1  0
 23 22  1  6
 23 25  1  0
 24 23  1  0
 24 14  1  0
 25 27  2  0
 25 26  1  0
M  END
$$$$
