GFR.pdb
     RDKit          3D

 27 27  0  0  1  0  0  0  0  0999 V2000
   28.7307  -19.7087  -14.7869 N   0  0  0  0  0  0  0  0  0  0  0  0
   28.1104  -19.1487  -13.6083 C   0  0  0  0  0  0  0  0  0  0  0  0
   27.1798  -20.1386  -12.9734 C   0  0  0  0  0  0  0  0  0  0  0  0
   26.8253  -21.1350  -13.6531 O   0  0  0  0  0  0  0  0  0  0  0  0
   26.7060  -19.9731  -11.6541 N   0  0  0  0  0  0  0  0  0  0  0  0
   25.7022  -20.8570  -11.0739 C   0  0  1  0  0  0  0  0  0  0  0  0
   26.0332  -21.2055   -9.6655 C   0  0  0  0  0  0  0  0  0  0  0  0
   27.3793  -20.7448   -9.2593 C   0  0  0  0  0  0  0  0  0  0  0  0
   27.4925  -19.7658   -8.2827 C   0  0  0  0  0  0  0  0  0  0  0  0
   28.7262  -19.3159   -7.8651 C   0  0  0  0  0  0  0  0  0  0  0  0
   29.8759  -19.8211   -8.4010 C   0  0  0  0  0  0  0  0  0  0  0  0
   29.7402  -20.7960   -9.3729 C   0  0  0  0  0  0  0  0  0  0  0  0
   28.5247  -21.2565   -9.8015 C   0  0  0  0  0  0  0  0  0  0  0  0
   24.3353  -20.3097  -11.2811 C   0  0  0  0  0  0  0  0  0  0  0  0
   24.0841  -19.1082  -11.0112 O   0  0  0  0  0  0  0  0  0  0  0  0
   19.7591  -17.6123  -14.8573 N   0  0  0  0  0  0  0  0  0  0  0  0
   20.1193  -17.6194  -16.2425 C   0  0  0  0  0  0  0  0  0  0  0  0
   19.5708  -16.7561  -17.0130 N   0  0  0  0  0  0  0  0  0  0  0  0
   21.0438  -18.5326  -16.7780 N   0  0  0  0  0  0  0  0  0  0  0  0
   21.4871  -19.7282  -16.0018 C   0  0  0  0  0  0  0  0  0  0  0  0
   22.4231  -19.2527  -14.9695 C   0  0  0  0  0  0  0  0  0  0  0  0
   23.0494  -20.1328  -13.9866 C   0  0  0  0  0  0  0  0  0  0  0  0
   22.3591  -20.7086  -12.8415 C   0  0  2  0  0  0  0  0  0  0  0  0
   23.2919  -21.1210  -11.7830 N   0  0  0  0  0  0  0  0  0  0  0  0
   21.3127  -21.7027  -13.0437 C   0  0  0  0  0  0  0  0  0  0  0  0
   21.8124  -23.0428  -13.2784 O   0  0  0  0  0  0  0  0  0  0  0  0
   20.0949  -21.5772  -13.0450 O   0  0  0  0  0  0  0  0  0  0  0  0
  2  1  1  0
  2  3  1  0
  3  4  2  0
  5  3  1  0
  5  6  1  0
  6 14  1  0
  6  7  1  1
  8  7  1  0
  9  8  2  0
 10  9  1  0
 11 10  2  0
 11 12  1  0
 12 13  2  0
 13  8  1  0
 14 15  2  0
 16 17  1  0
 17 18  2  0
 17 19  1  0
 19 20  1  0
 20 21  1  0
 21 22  1  0
 23 22  1  6
 23 25  1  0
 24 23  1  0
 24 14  1  0
 25 27  2  0
 25 26  1  0
M  END
$$$$
