GFR.pdb
     RDKit          3D

 27 27  0  0  1  0  0  0  0  0999 V2000
   28.6653  -18.6375  -15.1856 N   0  0  0  0  0  0  0  0  0  0  0  0
   28.3892  -18.6451  -13.7675 C   0  0  0  0  0  0  0  0  0  0  0  0
   27.4624  -19.7688  -13.4101 C   0  0  0  0  0  0  0  0  0  0  0  0
   26.8310  -20.3312  -14.3404 O   0  0  0  0  0  0  0  0  0  0  0  0
   27.2915  -20.1956  -12.0756 N   0  0  0  0  0  0  0  0  0  0  0  0
   26.3076  -21.2051  -11.7041 C   0  0  1  0  0  0  0  0  0  0  0  0
   26.8144  -22.0838  -10.6153 C   0  0  0  0  0  0  0  0  0  0  0  0
   27.1551  -21.3372   -9.3841 C   0  0  0  0  0  0  0  0  0  0  0  0
   28.4868  -21.2159   -9.0140 C   0  0  0  0  0  0  0  0  0  0  0  0
   28.8506  -20.5192   -7.8822 C   0  0  0  0  0  0  0  0  0  0  0  0
   27.9095  -19.9265   -7.0899 C   0  0  0  0  0  0  0  0  0  0  0  0
   26.5884  -20.0598   -7.4773 C   0  0  0  0  0  0  0  0  0  0  0  0
   26.2061  -20.7473   -8.5973 C   0  0  0  0  0  0  0  0  0  0  0  0
   24.9842  -20.5798  -11.4421 C   0  0  0  0  0  0  0  0  0  0  0  0
   24.9126  -19.4389  -10.9200 O   0  0  0  0  0  0  0  0  0  0  0  0
   23.7470  -19.6298  -18.4918 N   0  0  0  0  0  0  0  0  0  0  0  0
   22.4142  -19.1769  -18.2329 C   0  0  0  0  0  0  0  0  0  0  0  0
   21.5586  -19.2451  -19.1833 N   0  0  0  0  0  0  0  0  0  0  0  0
   22.0190  -18.6654  -16.9850 N   0  0  0  0  0  0  0  0  0  0  0  0
   23.0002  -18.4991  -15.8723 C   0  0  0  0  0  0  0  0  0  0  0  0
   22.4421  -19.1855  -14.6954 C   0  0  0  0  0  0  0  0  0  0  0  0
   23.2508  -19.9647  -13.7617 C   0  0  0  0  0  0  0  0  0  0  0  0
   22.7184  -20.6736  -12.6069 C   0  0  2  0  0  0  0  0  0  0  0  0
   23.7825  -21.2480  -11.7713 N   0  0  0  0  0  0  0  0  0  0  0  0
   21.6098  -21.6056  -12.7694 C   0  0  0  0  0  0  0  0  0  0  0  0
   20.3152  -21.0416  -12.4433 O   0  0  0  0  0  0  0  0  0  0  0  0
   21.6085  -22.7742  -13.1342 O   0  0  0  0  0  0  0  0  0  0  0  0
  2  1  1  0
  2  3  1  0
  3  4  2  0
  5  3  1  0
  5  6  1  0
  6 14  1  0
  6  7  1  1
  8  7  1  0
  9  8  2  0
 10  9  1  0
 11 10  2  0
 11 12  1  0
 12 13  2  0
 13  8  1  0
 14 15  2  0
 16 17  1  0
 17 18  2  0
 17 19  1  0
 19 20  1  0
 20 21  1  0
 21 22  1  0
 23 22  1  6
 23 25  1  0
 24 23  1  0
 24 14  1  0
 25 27  2  0
 25 26  1  0
M  END
$$$$
