GFR.pdb
     RDKit          3D

 27 27  0  0  1  0  0  0  0  0999 V2000
   28.9521  -22.0777  -16.2160 N   0  0  0  0  0  0  0  0  0  0  0  0
   27.5318  -22.3420  -16.1998 C   0  0  0  0  0  0  0  0  0  0  0  0
   26.7953  -21.2571  -15.4717 C   0  0  0  0  0  0  0  0  0  0  0  0
   27.1981  -20.9383  -14.3243 O   0  0  0  0  0  0  0  0  0  0  0  0
   25.6819  -20.6029  -16.0416 N   0  0  0  0  0  0  0  0  0  0  0  0
   24.9018  -19.6157  -15.3051 C   0  0  1  0  0  0  0  0  0  0  0  0
   24.7258  -18.3648  -16.0917 C   0  0  0  0  0  0  0  0  0  0  0  0
   25.9809  -17.5951  -16.2382 C   0  0  0  0  0  0  0  0  0  0  0  0
   26.8049  -17.8467  -17.3258 C   0  0  0  0  0  0  0  0  0  0  0  0
   27.9768  -17.1452  -17.5084 C   0  0  0  0  0  0  0  0  0  0  0  0
   28.3626  -16.1800  -16.6229 C   0  0  0  0  0  0  0  0  0  0  0  0
   27.5265  -15.9455  -15.5462 C   0  0  0  0  0  0  0  0  0  0  0  0
   26.3587  -16.6308  -15.3466 C   0  0  0  0  0  0  0  0  0  0  0  0
   23.6429  -20.2165  -14.7903 C   0  0  0  0  0  0  0  0  0  0  0  0
   22.9594  -20.9804  -15.5175 O   0  0  0  0  0  0  0  0  0  0  0  0
   18.4413  -22.3218   -9.2338 N   0  0  0  0  0  0  0  0  0  0  0  0
   19.6420  -22.5259   -8.4822 C   0  0  0  0  0  0  0  0  0  0  0  0
   19.7524  -23.6059   -7.8031 N   0  0  0  0  0  0  0  0  0  0  0  0
   20.6908  -21.5904   -8.4648 N   0  0  0  0  0  0  0  0  0  0  0  0
   20.5956  -20.3089   -9.2244 C   0  0  0  0  0  0  0  0  0  0  0  0
   20.7076  -20.6424  -10.6541 C   0  0  0  0  0  0  0  0  0  0  0  0
   21.8604  -20.2815  -11.4749 C   0  0  0  0  0  0  0  0  0  0  0  0
   21.9300  -20.4611  -12.9180 C   0  0  2  0  0  0  0  0  0  0  0  0
   23.1867  -19.9456  -13.4798 N   0  0  0  0  0  0  0  0  0  0  0  0
   20.7900  -20.1066  -13.7539 C   0  0  0  0  0  0  0  0  0  0  0  0
   19.8558  -21.1942  -13.9659 O   0  0  0  0  0  0  0  0  0  0  0  0
   20.5081  -19.0452  -14.2948 O   0  0  0  0  0  0  0  0  0  0  0  0
  2  1  1  0
  2  3  1  0
  3  4  2  0
  5  3  1  0
  5  6  1  0
  6 14  1  0
  6  7  1  6
  8  7  1  0
  9  8  2  0
 10  9  1  0
 11 10  2  0
 11 12  1  0
 12 13  2  0
 13  8  1  0
 14 15  2  0
 16 17  1  0
 17 18  2  0
 17 19  1  0
 19 20  1  0
 20 21  1  0
 21 22  1  0
 23 22  1  1
 23 25  1  0
 24 23  1  0
 24 14  1  0
 25 27  2  0
 25 26  1  0
M  END
$$$$
