GFR.pdb
     RDKit          3D

 27 27  0  0  1  0  0  0  0  0999 V2000
   22.3059  -21.9402   -7.0467 N   0  0  0  0  0  0  0  0  0  0  0  0
   23.6053  -21.8524   -6.4211 C   0  0  0  0  0  0  0  0  0  0  0  0
   24.5404  -21.0206   -7.2475 C   0  0  0  0  0  0  0  0  0  0  0  0
   24.0647  -20.0322   -7.8617 O   0  0  0  0  0  0  0  0  0  0  0  0
   25.9157  -21.3231   -7.3447 N   0  0  0  0  0  0  0  0  0  0  0  0
   26.8156  -20.5726   -8.2120 C   0  0  1  0  0  0  0  0  0  0  0  0
   28.2076  -20.5772   -7.6859 C   0  0  0  0  0  0  0  0  0  0  0  0
   28.3163  -19.9752   -6.3387 C   0  0  0  0  0  0  0  0  0  0  0  0
   27.9639  -18.6449   -6.1625 C   0  0  0  0  0  0  0  0  0  0  0  0
   28.0377  -18.0469   -4.9232 C   0  0  0  0  0  0  0  0  0  0  0  0
   28.4606  -18.7472   -3.8299 C   0  0  0  0  0  0  0  0  0  0  0  0
   28.8068  -20.0716   -4.0280 C   0  0  0  0  0  0  0  0  0  0  0  0
   28.7407  -20.6842   -5.2502 C   0  0  0  0  0  0  0  0  0  0  0  0
   26.6764  -21.0148   -9.6248 C   0  0  0  0  0  0  0  0  0  0  0  0
   26.6617  -22.2389   -9.9091 O   0  0  0  0  0  0  0  0  0  0  0  0
   21.3182  -19.9591  -15.2233 N   0  0  0  0  0  0  0  0  0  0  0  0
   21.0141  -20.4979  -13.9326 C   0  0  0  0  0  0  0  0  0  0  0  0
   19.8086  -20.4078  -13.5101 N   0  0  0  0  0  0  0  0  0  0  0  0
   21.9840  -21.1143  -13.1236 N   0  0  0  0  0  0  0  0  0  0  0  0
   23.3519  -21.4073  -13.6445 C   0  0  0  0  0  0  0  0  0  0  0  0
   24.1148  -20.1492  -13.5923 C   0  0  0  0  0  0  0  0  0  0  0  0
   24.9328  -19.7529  -12.4492 C   0  0  0  0  0  0  0  0  0  0  0  0
   26.1645  -20.4185  -12.0500 C   0  0  2  0  0  0  0  0  0  0  0  0
   26.5581  -20.0765  -10.6757 N   0  0  0  0  0  0  0  0  0  0  0  0
   27.3144  -20.4249  -12.9454 C   0  0  0  0  0  0  0  0  0  0  0  0
   27.3985  -21.6027  -13.7858 O   0  0  0  0  0  0  0  0  0  0  0  0
   28.2052  -19.5979  -13.0914 O   0  0  0  0  0  0  0  0  0  0  0  0
  2  1  1  0
  2  3  1  0
  3  4  2  0
  5  3  1  0
  5  6  1  0
  6 14  1  0
  6  7  1  1
  8  7  1  0
  9  8  2  0
 10  9  1  0
 11 10  2  0
 11 12  1  0
 12 13  2  0
 13  8  1  0
 14 15  2  0
 16 17  1  0
 17 18  2  0
 17 19  1  0
 19 20  1  0
 20 21  1  0
 21 22  1  0
 23 22  1  6
 23 25  1  0
 24 23  1  0
 24 14  1  0
 25 27  2  0
 25 26  1  0
M  END
$$$$
