GFR.pdb
     RDKit          3D

 27 27  0  0  1  0  0  0  0  0999 V2000
   36.6337   -8.8595  -14.2595 N   0  0  0  0  0  0  0  0  0  0  0  0
   36.3175   -8.5178  -15.6272 C   0  0  0  0  0  0  0  0  0  0  0  0
   34.8736   -8.1350  -15.7616 C   0  0  0  0  0  0  0  0  0  0  0  0
   34.0889   -8.4581  -14.8341 O   0  0  0  0  0  0  0  0  0  0  0  0
   34.3924   -7.4332  -16.8878 N   0  0  0  0  0  0  0  0  0  0  0  0
   33.0005   -7.0159  -17.0051 C   0  0  1  0  0  0  0  0  0  0  0  0
   32.8810   -5.5342  -17.0752 C   0  0  0  0  0  0  0  0  0  0  0  0
   33.2293   -4.8673  -15.8012 C   0  0  0  0  0  0  0  0  0  0  0  0
   32.2294   -4.6230  -14.8708 C   0  0  0  0  0  0  0  0  0  0  0  0
   32.5107   -4.0157  -13.6662 C   0  0  0  0  0  0  0  0  0  0  0  0
   33.7840   -3.6356  -13.3521 C   0  0  0  0  0  0  0  0  0  0  0  0
   34.7651   -3.8885  -14.2937 C   0  0  0  0  0  0  0  0  0  0  0  0
   34.5069   -4.4904  -15.4955 C   0  0  0  0  0  0  0  0  0  0  0  0
   32.3198   -7.7537  -18.1020 C   0  0  0  0  0  0  0  0  0  0  0  0
   32.7796   -7.7204  -19.2712 O   0  0  0  0  0  0  0  0  0  0  0  0
   27.0721  -12.4856  -21.7516 N   0  0  0  0  0  0  0  0  0  0  0  0
   26.4468  -12.9264  -20.5419 C   0  0  0  0  0  0  0  0  0  0  0  0
   25.2671  -13.4188  -20.6173 N   0  0  0  0  0  0  0  0  0  0  0  0
   27.0777  -12.8368  -19.2892 N   0  0  0  0  0  0  0  0  0  0  0  0
   28.4933  -12.3789  -19.1680 C   0  0  0  0  0  0  0  0  0  0  0  0
   28.4746  -10.9066  -19.1665 C   0  0  0  0  0  0  0  0  0  0  0  0
   29.3810  -10.0928  -18.3609 C   0  0  0  0  0  0  0  0  0  0  0  0
   30.3448   -9.1493  -18.9088 C   0  0  2  0  0  0  0  0  0  0  0  0
   31.1473   -8.5054  -17.8591 N   0  0  0  0  0  0  0  0  0  0  0  0
   29.9307   -8.1893  -19.9243 C   0  0  0  0  0  0  0  0  0  0  0  0
   30.0640   -8.6764  -21.2828 O   0  0  0  0  0  0  0  0  0  0  0  0
   29.4944   -7.0519  -19.8034 O   0  0  0  0  0  0  0  0  0  0  0  0
  2  1  1  0
  2  3  1  0
  3  4  2  0
  5  3  1  0
  5  6  1  0
  6 14  1  0
  6  7  1  6
  8  7  1  0
  9  8  2  0
 10  9  1  0
 11 10  2  0
 11 12  1  0
 12 13  2  0
 13  8  1  0
 14 15  2  0
 16 17  1  0
 17 18  2  0
 17 19  1  0
 19 20  1  0
 20 21  1  0
 21 22  1  0
 23 22  1  1
 23 25  1  0
 24 23  1  0
 24 14  1  0
 25 27  2  0
 25 26  1  0
M  END
$$$$
