GFR.pdb
     RDKit          3D

 27 27  0  0  1  0  0  0  0  0999 V2000
   22.8124  -18.9231  -16.5036 N   0  0  0  0  0  0  0  0  0  0  0  0
   23.6315  -17.8160  -16.9403 C   0  0  0  0  0  0  0  0  0  0  0  0
   24.9777  -18.2951  -17.3959 C   0  0  0  0  0  0  0  0  0  0  0  0
   25.0242  -19.3197  -18.1229 O   0  0  0  0  0  0  0  0  0  0  0  0
   26.1669  -17.6288  -17.0296 N   0  0  0  0  0  0  0  0  0  0  0  0
   27.4751  -18.0564  -17.5105 C   0  0  1  0  0  0  0  0  0  0  0  0
   28.1921  -16.9468  -18.1956 C   0  0  0  0  0  0  0  0  0  0  0  0
   27.5188  -16.5059  -19.4371 C   0  0  0  0  0  0  0  0  0  0  0  0
   26.7016  -15.3852  -19.4014 C   0  0  0  0  0  0  0  0  0  0  0  0
   26.0648  -14.9319  -20.5362 C   0  0  0  0  0  0  0  0  0  0  0  0
   26.2194  -15.5733  -21.7316 C   0  0  0  0  0  0  0  0  0  0  0  0
   27.0383  -16.6880  -21.7447 C   0  0  0  0  0  0  0  0  0  0  0  0
   27.6797  -17.1545  -20.6292 C   0  0  0  0  0  0  0  0  0  0  0  0
   28.2422  -18.7252  -16.4264 C   0  0  0  0  0  0  0  0  0  0  0  0
   29.1166  -19.5844  -16.7034 O   0  0  0  0  0  0  0  0  0  0  0  0
   25.9209  -20.8155   -8.7869 N   0  0  0  0  0  0  0  0  0  0  0  0
   24.7178  -20.9795   -9.5448 C   0  0  0  0  0  0  0  0  0  0  0  0
   23.6031  -20.9791   -8.9147 N   0  0  0  0  0  0  0  0  0  0  0  0
   24.7204  -21.1399  -10.9411 N   0  0  0  0  0  0  0  0  0  0  0  0
   25.9637  -20.9309  -11.7405 C   0  0  0  0  0  0  0  0  0  0  0  0
   26.1117  -19.4799  -11.9413 C   0  0  0  0  0  0  0  0  0  0  0  0
   26.5171  -18.8820  -13.2106 C   0  0  0  0  0  0  0  0  0  0  0  0
   27.5880  -19.3925  -14.0544 C   0  0  2  0  0  0  0  0  0  0  0  0
   28.0089  -18.4138  -15.0672 N   0  0  0  0  0  0  0  0  0  0  0  0
   27.4976  -20.7336  -14.6177 C   0  0  0  0  0  0  0  0  0  0  0  0
   26.2335  -21.0137  -15.2689 O   0  0  0  0  0  0  0  0  0  0  0  0
   28.3162  -21.6439  -14.6229 O   0  0  0  0  0  0  0  0  0  0  0  0
  2  1  1  0
  2  3  1  0
  3  4  2  0
  5  3  1  0
  5  6  1  0
  6 14  1  0
  6  7  1  1
  8  7  1  0
  9  8  2  0
 10  9  1  0
 11 10  2  0
 11 12  1  0
 12 13  2  0
 13  8  1  0
 14 15  2  0
 16 17  1  0
 17 18  2  0
 17 19  1  0
 19 20  1  0
 20 21  1  0
 21 22  1  0
 23 22  1  6
 23 25  1  0
 24 23  1  0
 24 14  1  0
 25 27  2  0
 25 26  1  0
M  END
$$$$
