GFR.pdb
     RDKit          3D

 27 27  0  0  1  0  0  0  0  0999 V2000
   31.1836  -22.0314  -10.2977 N   0  0  0  0  0  0  0  0  0  0  0  0
   30.6481  -20.8005   -9.7632 C   0  0  0  0  0  0  0  0  0  0  0  0
   29.2603  -21.0077   -9.2338 C   0  0  0  0  0  0  0  0  0  0  0  0
   28.7173  -22.1256   -9.4234 O   0  0  0  0  0  0  0  0  0  0  0  0
   28.5694  -19.9902   -8.5412 N   0  0  0  0  0  0  0  0  0  0  0  0
   27.1644  -20.1185   -8.1736 C   0  0  1  0  0  0  0  0  0  0  0  0
   26.8542  -19.3535   -6.9354 C   0  0  0  0  0  0  0  0  0  0  0  0
   27.7722  -19.6682   -5.8186 C   0  0  0  0  0  0  0  0  0  0  0  0
   27.6128  -20.8614   -5.1285 C   0  0  0  0  0  0  0  0  0  0  0  0
   28.4524  -21.2008   -4.0900 C   0  0  0  0  0  0  0  0  0  0  0  0
   29.4679  -20.3715   -3.7085 C   0  0  0  0  0  0  0  0  0  0  0  0
   29.6088  -19.1875   -4.4097 C   0  0  0  0  0  0  0  0  0  0  0  0
   28.7859  -18.8318   -5.4439 C   0  0  0  0  0  0  0  0  0  0  0  0
   26.2863  -19.8170   -9.3350 C   0  0  0  0  0  0  0  0  0  0  0  0
   26.5287  -18.8314  -10.0761 O   0  0  0  0  0  0  0  0  0  0  0  0
   24.9283  -25.0369  -15.3045 N   0  0  0  0  0  0  0  0  0  0  0  0
   24.8185  -23.7833  -15.9863 C   0  0  0  0  0  0  0  0  0  0  0  0
   24.1527  -23.7475  -17.0796 N   0  0  0  0  0  0  0  0  0  0  0  0
   25.4111  -22.6048  -15.5012 N   0  0  0  0  0  0  0  0  0  0  0  0
   26.0533  -22.5608  -14.1543 C   0  0  0  0  0  0  0  0  0  0  0  0
   25.1665  -21.7799  -13.2760 C   0  0  0  0  0  0  0  0  0  0  0  0
   25.4347  -21.5562  -11.8579 C   0  0  0  0  0  0  0  0  0  0  0  0
   24.5835  -20.7724  -10.9743 C   0  0  2  0  0  0  0  0  0  0  0  0
   25.1652  -20.6255   -9.6325 N   0  0  0  0  0  0  0  0  0  0  0  0
   23.1536  -21.0458  -10.9060 C   0  0  0  0  0  0  0  0  0  0  0  0
   22.4630  -20.8832  -12.1698 O   0  0  0  0  0  0  0  0  0  0  0  0
   22.4600  -21.3866   -9.9565 O   0  0  0  0  0  0  0  0  0  0  0  0
  2  1  1  0
  2  3  1  0
  3  4  2  0
  5  3  1  0
  5  6  1  0
  6 14  1  0
  6  7  1  1
  8  7  1  0
  9  8  2  0
 10  9  1  0
 11 10  2  0
 11 12  1  0
 12 13  2  0
 13  8  1  0
 14 15  2  0
 16 17  1  0
 17 18  2  0
 17 19  1  0
 19 20  1  0
 20 21  1  0
 21 22  1  0
 23 22  1  1
 23 25  1  0
 24 23  1  0
 24 14  1  0
 25 27  2  0
 25 26  1  0
M  END
$$$$
