GFR.pdb
     RDKit          3D

 27 27  0  0  1  0  0  0  0  0999 V2000
   31.1825  -22.3687   -9.6025 N   0  0  0  0  0  0  0  0  0  0  0  0
   30.4747  -21.1121   -9.6886 C   0  0  0  0  0  0  0  0  0  0  0  0
   29.0315  -21.2861   -9.3197 C   0  0  0  0  0  0  0  0  0  0  0  0
   28.6197  -22.4496   -9.0809 O   0  0  0  0  0  0  0  0  0  0  0  0
   28.1476  -20.1886   -9.2381 N   0  0  0  0  0  0  0  0  0  0  0  0
   26.7449  -20.3477   -8.8740 C   0  0  1  0  0  0  0  0  0  0  0  0
   26.3644  -19.4341   -7.7627 C   0  0  0  0  0  0  0  0  0  0  0  0
   27.2586  -19.5505   -6.5896 C   0  0  0  0  0  0  0  0  0  0  0  0
   26.9822  -20.5050   -5.6213 C   0  0  0  0  0  0  0  0  0  0  0  0
   27.7947  -20.6566   -4.5187 C   0  0  0  0  0  0  0  0  0  0  0  0
   28.8978  -19.8706   -4.3461 C   0  0  0  0  0  0  0  0  0  0  0  0
   29.1546  -18.9257   -5.3232 C   0  0  0  0  0  0  0  0  0  0  0  0
   28.3606  -18.7591   -6.4255 C   0  0  0  0  0  0  0  0  0  0  0  0
   25.8758  -20.2687  -10.0779 C   0  0  0  0  0  0  0  0  0  0  0  0
   25.8870  -19.2426  -10.8036 O   0  0  0  0  0  0  0  0  0  0  0  0
   26.8692  -24.6254  -15.2301 N   0  0  0  0  0  0  0  0  0  0  0  0
   26.8561  -23.3469  -15.8732 C   0  0  0  0  0  0  0  0  0  0  0  0
   27.0335  -23.3073  -17.1408 N   0  0  0  0  0  0  0  0  0  0  0  0
   26.6580  -22.1479  -15.1671 N   0  0  0  0  0  0  0  0  0  0  0  0
   26.3000  -22.1549  -13.7179 C   0  0  0  0  0  0  0  0  0  0  0  0
   24.8794  -22.5302  -13.6236 C   0  0  0  0  0  0  0  0  0  0  0  0
   24.1104  -22.4588  -12.3841 C   0  0  0  0  0  0  0  0  0  0  0  0
   24.0405  -21.2841  -11.5270 C   0  0  2  0  0  0  0  0  0  0  0  0
   25.0216  -21.3376  -10.4337 N   0  0  0  0  0  0  0  0  0  0  0  0
   22.7490  -20.7982  -11.0579 C   0  0  0  0  0  0  0  0  0  0  0  0
   21.9182  -20.2346  -12.1032 O   0  0  0  0  0  0  0  0  0  0  0  0
   22.2690  -20.7949   -9.9318 O   0  0  0  0  0  0  0  0  0  0  0  0
  2  1  1  0
  2  3  1  0
  3  4  2  0
  5  3  1  0
  5  6  1  0
  6 14  1  0
  6  7  1  1
  8  7  1  0
  9  8  2  0
 10  9  1  0
 11 10  2  0
 11 12  1  0
 12 13  2  0
 13  8  1  0
 14 15  2  0
 16 17  1  0
 17 18  2  0
 17 19  1  0
 19 20  1  0
 20 21  1  0
 21 22  1  0
 23 22  1  1
 23 25  1  0
 24 23  1  0
 24 14  1  0
 25 27  2  0
 25 26  1  0
M  END
$$$$
