GFR.pdb
     RDKit          3D

 27 27  0  0  1  0  0  0  0  0999 V2000
   20.0790  -20.6854  -10.2642 N   0  0  0  0  0  0  0  0  0  0  0  0
   20.9975  -21.3717   -9.3850 C   0  0  0  0  0  0  0  0  0  0  0  0
   22.3299  -20.6835   -9.3626 C   0  0  0  0  0  0  0  0  0  0  0  0
   22.4883  -19.6804  -10.1037 O   0  0  0  0  0  0  0  0  0  0  0  0
   23.3855  -21.1341   -8.5410 N   0  0  0  0  0  0  0  0  0  0  0  0
   24.7587  -20.6797   -8.7236 C   0  0  1  0  0  0  0  0  0  0  0  0
   25.6175  -21.0670   -7.5716 C   0  0  0  0  0  0  0  0  0  0  0  0
   26.9377  -20.3993   -7.5872 C   0  0  0  0  0  0  0  0  0  0  0  0
   27.1139  -19.2330   -6.8566 C   0  0  0  0  0  0  0  0  0  0  0  0
   28.3296  -18.5847   -6.8326 C   0  0  0  0  0  0  0  0  0  0  0  0
   29.3988  -19.0717   -7.5285 C   0  0  0  0  0  0  0  0  0  0  0  0
   29.2011  -20.2352   -8.2499 C   0  0  0  0  0  0  0  0  0  0  0  0
   28.0022  -20.8943   -8.2869 C   0  0  0  0  0  0  0  0  0  0  0  0
   25.2754  -21.0865  -10.0572 C   0  0  0  0  0  0  0  0  0  0  0  0
   25.0983  -22.2578  -10.4771 O   0  0  0  0  0  0  0  0  0  0  0  0
   22.1964  -19.3233  -16.2259 N   0  0  0  0  0  0  0  0  0  0  0  0
   23.2667  -19.6450  -17.1201 C   0  0  0  0  0  0  0  0  0  0  0  0
   22.9751  -20.2112  -18.2310 N   0  0  0  0  0  0  0  0  0  0  0  0
   24.6110  -19.3639  -16.8215 N   0  0  0  0  0  0  0  0  0  0  0  0
   25.0064  -18.7973  -15.4982 C   0  0  0  0  0  0  0  0  0  0  0  0
   24.7973  -19.8535  -14.4940 C   0  0  0  0  0  0  0  0  0  0  0  0
   25.0528  -19.6679  -13.0681 C   0  0  0  0  0  0  0  0  0  0  0  0
   26.1278  -20.3199  -12.3342 C   0  0  2  0  0  0  0  0  0  0  0  0
   25.9736  -20.1730  -10.8799 N   0  0  0  0  0  0  0  0  0  0  0  0
   27.5133  -20.1266  -12.7433 C   0  0  0  0  0  0  0  0  0  0  0  0
   27.9312  -20.9898  -13.8299 O   0  0  0  0  0  0  0  0  0  0  0  0
   28.3627  -19.3569  -12.3135 O   0  0  0  0  0  0  0  0  0  0  0  0
  2  1  1  0
  2  3  1  0
  3  4  2  0
  5  3  1  0
  5  6  1  0
  6 14  1  0
  6  7  1  1
  8  7  1  0
  9  8  2  0
 10  9  1  0
 11 10  2  0
 11 12  1  0
 12 13  2  0
 13  8  1  0
 14 15  2  0
 16 17  1  0
 17 18  2  0
 17 19  1  0
 19 20  1  0
 20 21  1  0
 21 22  1  0
 23 22  1  6
 23 25  1  0
 24 23  1  0
 24 14  1  0
 25 27  2  0
 25 26  1  0
M  END
$$$$
