GFR.pdb
     RDKit          3D

 27 27  0  0  1  0  0  0  0  0999 V2000
   22.8846  -21.7976   -5.6344 N   0  0  0  0  0  0  0  0  0  0  0  0
   23.9893  -22.3099   -6.4121 C   0  0  0  0  0  0  0  0  0  0  0  0
   24.6843  -21.2021   -7.1463 C   0  0  0  0  0  0  0  0  0  0  0  0
   23.9931  -20.2254   -7.5318 O   0  0  0  0  0  0  0  0  0  0  0  0
   26.0713  -21.2378   -7.4056 N   0  0  0  0  0  0  0  0  0  0  0  0
   26.7226  -20.2677   -8.2774 C   0  0  1  0  0  0  0  0  0  0  0  0
   28.1278  -20.0160   -7.8571 C   0  0  0  0  0  0  0  0  0  0  0  0
   28.2535  -19.7260   -6.4117 C   0  0  0  0  0  0  0  0  0  0  0  0
   28.1036  -18.4195   -5.9690 C   0  0  0  0  0  0  0  0  0  0  0  0
   28.2004  -18.1057   -4.6308 C   0  0  0  0  0  0  0  0  0  0  0  0
   28.4472  -19.0729   -3.6990 C   0  0  0  0  0  0  0  0  0  0  0  0
   28.5933  -20.3681   -4.1620 C   0  0  0  0  0  0  0  0  0  0  0  0
   28.5008  -20.7008   -5.4864 C   0  0  0  0  0  0  0  0  0  0  0  0
   26.5519  -20.6446   -9.7056 C   0  0  0  0  0  0  0  0  0  0  0  0
   27.4417  -21.3043  -10.2995 O   0  0  0  0  0  0  0  0  0  0  0  0
   24.4845  -25.5359  -14.5876 N   0  0  0  0  0  0  0  0  0  0  0  0
   24.1398  -24.5364  -15.5524 C   0  0  0  0  0  0  0  0  0  0  0  0
   23.2094  -24.8029  -16.3910 N   0  0  0  0  0  0  0  0  0  0  0  0
   24.7821  -23.2876  -15.6091 N   0  0  0  0  0  0  0  0  0  0  0  0
   25.7530  -22.8696  -14.5551 C   0  0  0  0  0  0  0  0  0  0  0  0
   24.9954  -22.7210  -13.3014 C   0  0  0  0  0  0  0  0  0  0  0  0
   25.4956  -21.9855  -12.1432 C   0  0  0  0  0  0  0  0  0  0  0  0
   25.1559  -20.6030  -11.8383 C   0  0  2  0  0  0  0  0  0  0  0  0
   25.3933  -20.2733  -10.4257 N   0  0  0  0  0  0  0  0  0  0  0  0
   23.8978  -20.0389  -12.3108 C   0  0  0  0  0  0  0  0  0  0  0  0
   23.8674  -19.7828  -13.7370 O   0  0  0  0  0  0  0  0  0  0  0  0
   22.8798  -19.7539  -11.6935 O   0  0  0  0  0  0  0  0  0  0  0  0
  2  1  1  0
  2  3  1  0
  3  4  2  0
  5  3  1  0
  5  6  1  0
  6 14  1  0
  6  7  1  1
  8  7  1  0
  9  8  2  0
 10  9  1  0
 11 10  2  0
 11 12  1  0
 12 13  2  0
 13  8  1  0
 14 15  2  0
 16 17  1  0
 17 18  2  0
 17 19  1  0
 19 20  1  0
 20 21  1  0
 21 22  1  0
 23 22  1  1
 23 25  1  0
 24 23  1  0
 24 14  1  0
 25 27  2  0
 25 26  1  0
M  END
$$$$
