GFR.pdb
     RDKit          3D

 27 27  0  0  1  0  0  0  0  0999 V2000
   27.4510  -25.0084  -17.0944 N   0  0  0  0  0  0  0  0  0  0  0  0
   26.7979  -23.7197  -17.1057 C   0  0  0  0  0  0  0  0  0  0  0  0
   26.2522  -23.3860  -15.7493 C   0  0  0  0  0  0  0  0  0  0  0  0
   25.6741  -24.2979  -15.1052 O   0  0  0  0  0  0  0  0  0  0  0  0
   26.3745  -22.0931  -15.1963 N   0  0  0  0  0  0  0  0  0  0  0  0
   25.8360  -21.7566  -13.8839 C   0  0  1  0  0  0  0  0  0  0  0  0
   26.7066  -20.7817  -13.1725 C   0  0  0  0  0  0  0  0  0  0  0  0
   26.2397  -20.4874  -11.7997 C   0  0  0  0  0  0  0  0  0  0  0  0
   25.4087  -19.3967  -11.5878 C   0  0  0  0  0  0  0  0  0  0  0  0
   24.9402  -19.0927  -10.3280 C   0  0  0  0  0  0  0  0  0  0  0  0
   25.2805  -19.8572   -9.2490 C   0  0  0  0  0  0  0  0  0  0  0  0
   26.1097  -20.9394   -9.4828 C   0  0  0  0  0  0  0  0  0  0  0  0
   26.5857  -21.2585  -10.7257 C   0  0  0  0  0  0  0  0  0  0  0  0
   24.4056  -21.3636  -13.9862 C   0  0  0  0  0  0  0  0  0  0  0  0
   24.0317  -20.5493  -14.8675 O   0  0  0  0  0  0  0  0  0  0  0  0
   16.9514  -21.2926  -14.0864 N   0  0  0  0  0  0  0  0  0  0  0  0
   16.9179  -22.6790  -13.7324 C   0  0  0  0  0  0  0  0  0  0  0  0
   16.2415  -23.4747  -14.4735 N   0  0  0  0  0  0  0  0  0  0  0  0
   17.5945  -23.1891  -12.6111 N   0  0  0  0  0  0  0  0  0  0  0  0
   19.0468  -23.5289  -12.6736 C   0  0  0  0  0  0  0  0  0  0  0  0
   19.7859  -22.3760  -12.1329 C   0  0  0  0  0  0  0  0  0  0  0  0
   21.2432  -22.2813  -12.1402 C   0  0  0  0  0  0  0  0  0  0  0  0
   22.0130  -21.5314  -13.1223 C   0  0  2  0  0  0  0  0  0  0  0  0
   23.4377  -21.8921  -13.1015 N   0  0  0  0  0  0  0  0  0  0  0  0
   21.8320  -20.0905  -13.2465 C   0  0  0  0  0  0  0  0  0  0  0  0
   21.0402  -19.6944  -14.3940 O   0  0  0  0  0  0  0  0  0  0  0  0
   22.2420  -19.1800  -12.5384 O   0  0  0  0  0  0  0  0  0  0  0  0
  2  1  1  0
  2  3  1  0
  3  4  2  0
  5  3  1  0
  5  6  1  0
  6 14  1  0
  6  7  1  6
  8  7  1  0
  9  8  2  0
 10  9  1  0
 11 10  2  0
 11 12  1  0
 12 13  2  0
 13  8  1  0
 14 15  2  0
 16 17  1  0
 17 18  2  0
 17 19  1  0
 19 20  1  0
 20 21  1  0
 21 22  1  0
 23 22  1  1
 23 25  1  0
 24 23  1  0
 24 14  1  0
 25 27  2  0
 25 26  1  0
M  END
$$$$
