GFR.pdb
     RDKit          3D

 27 27  0  0  1  0  0  0  0  0999 V2000
   29.5612  -21.0600  -12.1496 N   0  0  0  0  0  0  0  0  0  0  0  0
   28.8323  -20.0959  -11.3580 C   0  0  0  0  0  0  0  0  0  0  0  0
   27.7097  -20.7558  -10.6139 C   0  0  0  0  0  0  0  0  0  0  0  0
   27.5123  -21.9818  -10.8099 O   0  0  0  0  0  0  0  0  0  0  0  0
   26.8894  -20.0382   -9.7169 N   0  0  0  0  0  0  0  0  0  0  0  0
   25.7446  -20.6504   -9.0536 C   0  0  1  0  0  0  0  0  0  0  0  0
   25.7406  -20.3575   -7.5946 C   0  0  0  0  0  0  0  0  0  0  0  0
   27.1005  -20.1819   -7.0387 C   0  0  0  0  0  0  0  0  0  0  0  0
   27.4967  -18.9245   -6.6061 C   0  0  0  0  0  0  0  0  0  0  0  0
   28.7494  -18.7179   -6.0704 C   0  0  0  0  0  0  0  0  0  0  0  0
   29.6395  -19.7462   -5.9493 C   0  0  0  0  0  0  0  0  0  0  0  0
   29.2241  -20.9910   -6.3866 C   0  0  0  0  0  0  0  0  0  0  0  0
   27.9847  -21.2174   -6.9214 C   0  0  0  0  0  0  0  0  0  0  0  0
   24.4825  -20.3158   -9.7650 C   0  0  0  0  0  0  0  0  0  0  0  0
   23.3707  -20.5091   -9.2118 O   0  0  0  0  0  0  0  0  0  0  0  0
   24.0369  -25.2872  -14.7163 N   0  0  0  0  0  0  0  0  0  0  0  0
   23.7618  -24.5373  -15.9040 C   0  0  0  0  0  0  0  0  0  0  0  0
   22.9536  -25.0396  -16.7609 N   0  0  0  0  0  0  0  0  0  0  0  0
   24.3434  -23.2832  -16.1574 N   0  0  0  0  0  0  0  0  0  0  0  0
   25.1776  -22.5961  -15.1277 C   0  0  0  0  0  0  0  0  0  0  0  0
   24.2534  -21.9686  -14.1686 C   0  0  0  0  0  0  0  0  0  0  0  0
   24.6779  -21.0032  -13.1583 C   0  0  0  0  0  0  0  0  0  0  0  0
   23.7799  -20.3521  -12.2154 C   0  0  2  0  0  0  0  0  0  0  0  0
   24.5014  -19.7761  -11.0716 N   0  0  0  0  0  0  0  0  0  0  0  0
   22.5577  -21.0220  -11.7892 C   0  0  0  0  0  0  0  0  0  0  0  0
   21.3453  -20.4118  -12.2972 O   0  0  0  0  0  0  0  0  0  0  0  0
   22.4046  -22.0067  -11.0781 O   0  0  0  0  0  0  0  0  0  0  0  0
  2  1  1  0
  2  3  1  0
  3  4  2  0
  5  3  1  0
  5  6  1  0
  6 14  1  0
  6  7  1  1
  8  7  1  0
  9  8  2  0
 10  9  1  0
 11 10  2  0
 11 12  1  0
 12 13  2  0
 13  8  1  0
 14 15  2  0
 16 17  1  0
 17 18  2  0
 17 19  1  0
 19 20  1  0
 20 21  1  0
 21 22  1  0
 23 22  1  1
 23 25  1  0
 24 23  1  0
 24 14  1  0
 25 27  2  0
 25 26  1  0
M  END
$$$$
