GFR.pdb
     RDKit          3D

 27 27  0  0  1  0  0  0  0  0999 V2000
   20.0286  -20.7403  -10.7800 N   0  0  0  0  0  0  0  0  0  0  0  0
   21.0192  -21.0768  -11.7765 C   0  0  0  0  0  0  0  0  0  0  0  0
   22.3663  -20.5414  -11.3921 C   0  0  0  0  0  0  0  0  0  0  0  0
   22.5344  -19.2957  -11.4145 O   0  0  0  0  0  0  0  0  0  0  0  0
   23.4251  -21.3948  -11.0140 N   0  0  0  0  0  0  0  0  0  0  0  0
   24.7581  -20.8890  -10.7095 C   0  0  1  0  0  0  0  0  0  0  0  0
   25.3724  -21.6253   -9.5715 C   0  0  0  0  0  0  0  0  0  0  0  0
   26.6487  -21.0279   -9.1207 C   0  0  0  0  0  0  0  0  0  0  0  0
   26.6230  -20.0116   -8.1764 C   0  0  0  0  0  0  0  0  0  0  0  0
   27.7880  -19.4351   -7.7190 C   0  0  0  0  0  0  0  0  0  0  0  0
   29.0044  -19.8475   -8.1824 C   0  0  0  0  0  0  0  0  0  0  0  0
   29.0070  -20.8616   -9.1231 C   0  0  0  0  0  0  0  0  0  0  0  0
   27.8616  -21.4474   -9.5903 C   0  0  0  0  0  0  0  0  0  0  0  0
   25.5912  -20.8251  -11.9394 C   0  0  0  0  0  0  0  0  0  0  0  0
   25.7617  -21.8508  -12.6455 O   0  0  0  0  0  0  0  0  0  0  0  0
   26.4188  -17.2998  -18.3503 N   0  0  0  0  0  0  0  0  0  0  0  0
   25.4641  -16.7598  -17.4308 C   0  0  0  0  0  0  0  0  0  0  0  0
   24.2364  -16.7159  -17.7922 N   0  0  0  0  0  0  0  0  0  0  0  0
   25.8262  -16.2812  -16.1598 N   0  0  0  0  0  0  0  0  0  0  0  0
   27.2536  -16.2495  -15.7241 C   0  0  0  0  0  0  0  0  0  0  0  0
   27.5885  -17.5977  -15.2363 C   0  0  0  0  0  0  0  0  0  0  0  0
   27.2509  -18.0743  -13.8977 C   0  0  0  0  0  0  0  0  0  0  0  0
   27.0241  -19.4711  -13.5557 C   0  0  2  0  0  0  0  0  0  0  0  0
   26.2076  -19.6183  -12.3424 N   0  0  0  0  0  0  0  0  0  0  0  0
   28.1345  -20.4151  -13.5660 C   0  0  0  0  0  0  0  0  0  0  0  0
   28.2873  -21.1292  -14.8179 O   0  0  0  0  0  0  0  0  0  0  0  0
   28.9440  -20.6904  -12.6899 O   0  0  0  0  0  0  0  0  0  0  0  0
  2  1  1  0
  2  3  1  0
  3  4  2  0
  5  3  1  0
  5  6  1  0
  6 14  1  0
  6  7  1  1
  8  7  1  0
  9  8  2  0
 10  9  1  0
 11 10  2  0
 11 12  1  0
 12 13  2  0
 13  8  1  0
 14 15  2  0
 16 17  1  0
 17 18  2  0
 17 19  1  0
 19 20  1  0
 20 21  1  0
 21 22  1  0
 23 22  1  1
 23 25  1  0
 24 23  1  0
 24 14  1  0
 25 27  2  0
 25 26  1  0
M  END
$$$$
