GLK.pdb
     RDKit          3D

 22 21  0  0  1  0  0  0  0  0999 V2000
    6.7293  -15.3090   20.4383 N   0  0  0  0  0  0  0  0  0  0  0  0
    6.1175  -15.2833   21.7433 C   0  0  0  0  0  0  0  0  0  0  0  0
    7.1780  -15.0115   22.7653 C   0  0  0  0  0  0  0  0  0  0  0  0
    8.3802  -15.0594   22.4209 O   0  0  0  0  0  0  0  0  0  0  0  0
    7.9400  -11.4640   25.3704 C   0  0  0  0  0  0  0  0  0  0  0  0
    6.7194  -12.3366   25.7565 C   0  0  2  0  0  0  0  0  0  0  0  0
    6.0377  -11.5687   26.8631 C   0  0  0  0  0  0  0  0  0  0  0  0
    7.2831  -13.6444   26.1648 C   0  0  0  0  0  0  0  0  0  0  0  0
    7.9144  -14.4954   25.1305 C   0  0  2  0  0  0  0  0  0  0  0  0
    6.8668  -14.7029   24.1047 N   0  0  0  0  0  0  0  0  0  0  0  0
    8.4706  -15.7812   25.5523 C   0  0  0  0  0  0  0  0  0  0  0  0
    7.7257  -16.7611   25.9177 O   0  0  0  0  0  0  0  0  0  0  0  0
    9.8574  -16.0407   25.5838 N   0  0  0  0  0  0  0  0  0  0  0  0
   10.3484  -17.4327   25.9407 C   0  0  1  0  0  0  0  0  0  0  0  0
   11.4786  -17.6452   25.0162 C   0  0  0  0  0  0  0  0  0  0  0  0
   12.1478  -18.9036   24.7718 C   0  0  0  0  0  0  0  0  0  0  0  0
   13.2683  -18.9945   23.8074 C   0  0  0  0  0  0  0  0  0  0  0  0
   13.6677  -20.4857   23.6271 C   0  0  0  0  0  0  0  0  0  0  0  0
   14.6098  -20.5794   22.5324 N   0  0  0  0  0  0  0  0  0  0  0  0
   10.7242  -17.3655   27.3576 C   0  0  0  0  0  0  0  0  0  0  0  0
   10.9310  -16.2012   27.8865 O   0  0  0  0  0  0  0  0  0  0  0  0
   10.8820  -18.4056   28.2183 O   0  0  0  0  0  0  0  0  0  0  0  0
  2  1  1  0
  2  3  1  0
  3 10  1  0
  3  4  2  0
  6  5  1  1
  7  6  1  0
  8  6  1  0
  9  8  1  1
 10  9  1  0
 11  9  1  0
 11 13  1  0
 12 11  2  0
 14 20  1  0
 14 13  1  0
 14 15  1  6
 16 15  1  0
 17 18  1  0
 17 16  1  0
 18 19  1  0
 20 22  1  0
 21 20  2  0
M  END
$$$$
