GLK.pdb
     RDKit          3D

 22 21  0  0  1  0  0  0  0  0999 V2000
    8.0869  -19.8868   19.9958 N   0  0  0  0  0  0  0  0  0  0  0  0
    7.5171  -18.7755   20.7158 C   0  0  0  0  0  0  0  0  0  0  0  0
    8.5307  -17.6750   20.7803 C   0  0  0  0  0  0  0  0  0  0  0  0
    9.6735  -17.8733   20.3106 O   0  0  0  0  0  0  0  0  0  0  0  0
    8.3432  -13.5938   18.9113 C   0  0  0  0  0  0  0  0  0  0  0  0
    7.4453  -13.8991   20.1366 C   0  0  2  0  0  0  0  0  0  0  0  0
    6.5306  -12.7032   20.2452 C   0  0  0  0  0  0  0  0  0  0  0  0
    8.3775  -14.0728   21.2749 C   0  0  0  0  0  0  0  0  0  0  0  0
    9.2061  -15.2987   21.3286 C   0  0  2  0  0  0  0  0  0  0  0  0
    8.2400  -16.4207   21.3536 N   0  0  0  0  0  0  0  0  0  0  0  0
   10.1603  -15.4287   22.4300 C   0  0  0  0  0  0  0  0  0  0  0  0
   11.2751  -14.7919   22.4469 O   0  0  0  0  0  0  0  0  0  0  0  0
    9.9263  -16.2537   23.5507 N   0  0  0  0  0  0  0  0  0  0  0  0
   10.9415  -16.2849   24.6797 C   0  0  1  0  0  0  0  0  0  0  0  0
   10.1965  -15.7301   25.8263 C   0  0  0  0  0  0  0  0  0  0  0  0
   10.6949  -15.6011   27.1775 C   0  0  0  0  0  0  0  0  0  0  0  0
    9.8397  -15.0505   28.2543 C   0  0  0  0  0  0  0  0  0  0  0  0
   10.6431  -15.0296   29.5847 C   0  0  0  0  0  0  0  0  0  0  0  0
    9.8305  -14.3971   30.6017 N   0  0  0  0  0  0  0  0  0  0  0  0
   11.3238  -17.6941   24.8254 C   0  0  0  0  0  0  0  0  0  0  0  0
   12.3095  -17.9878   25.6130 O   0  0  0  0  0  0  0  0  0  0  0  0
   10.7510  -18.7696   24.2232 O   0  0  0  0  0  0  0  0  0  0  0  0
  2  1  1  0
  2  3  1  0
  3 10  1  0
  3  4  2  0
  6  5  1  6
  7  6  1  0
  8  6  1  0
  9  8  1  1
 10  9  1  0
 11  9  1  0
 11 13  1  0
 12 11  2  0
 14 20  1  0
 14 13  1  0
 14 15  1  1
 16 15  1  0
 17 18  1  0
 17 16  1  0
 18 19  1  0
 20 22  1  0
 21 20  2  0
M  END
$$$$
