GLK.pdb
     RDKit          3D

 22 21  0  0  1  0  0  0  0  0999 V2000
    9.7773  -18.4468   16.7536 N   0  0  0  0  0  0  0  0  0  0  0  0
    8.7468  -18.0112   17.6626 C   0  0  0  0  0  0  0  0  0  0  0  0
    9.3559  -17.0870   18.6713 C   0  0  0  0  0  0  0  0  0  0  0  0
   10.6010  -17.0563   18.7934 O   0  0  0  0  0  0  0  0  0  0  0  0
    8.5523  -12.6127   19.4403 C   0  0  0  0  0  0  0  0  0  0  0  0
    7.4860  -13.6574   19.8553 C   0  0  2  0  0  0  0  0  0  0  0  0
    6.2944  -12.8352   20.2832 C   0  0  0  0  0  0  0  0  0  0  0  0
    8.1125  -14.4516   20.9376 C   0  0  0  0  0  0  0  0  0  0  0  0
    9.1603  -15.4337   20.5771 C   0  0  2  0  0  0  0  0  0  0  0  0
    8.5722  -16.2488   19.4896 N   0  0  0  0  0  0  0  0  0  0  0  0
    9.6752  -16.3010   21.6369 C   0  0  0  0  0  0  0  0  0  0  0  0
    8.9468  -17.1941   22.2032 O   0  0  0  0  0  0  0  0  0  0  0  0
   11.0028  -16.2252   22.1092 N   0  0  0  0  0  0  0  0  0  0  0  0
   11.4784  -17.2119   23.1612 C   0  0  1  0  0  0  0  0  0  0  0  0
   12.1867  -18.2387   22.3730 C   0  0  0  0  0  0  0  0  0  0  0  0
   12.5632  -19.5544   22.8401 C   0  0  0  0  0  0  0  0  0  0  0  0
   13.2794  -20.5002   21.9532 C   0  0  0  0  0  0  0  0  0  0  0  0
   13.5414  -21.8245   22.7235 C   0  0  0  0  0  0  0  0  0  0  0  0
   14.2728  -22.7230   21.8561 N   0  0  0  0  0  0  0  0  0  0  0  0
   12.3365  -16.4383   24.0659 C   0  0  0  0  0  0  0  0  0  0  0  0
   12.8129  -17.0260   25.1174 O   0  0  0  0  0  0  0  0  0  0  0  0
   12.7143  -15.1393   23.9331 O   0  0  0  0  0  0  0  0  0  0  0  0
  2  1  1  0
  2  3  1  0
  3 10  1  0
  3  4  2  0
  6  5  1  1
  7  6  1  0
  8  6  1  0
  9  8  1  1
 10  9  1  0
 11  9  1  0
 11 13  1  0
 12 11  2  0
 14 20  1  0
 14 13  1  0
 14 15  1  6
 16 15  1  0
 17 18  1  0
 17 16  1  0
 18 19  1  0
 20 22  1  0
 21 20  2  0
M  END
$$$$
