GLK.pdb
     RDKit          3D

 22 21  0  0  1  0  0  0  0  0999 V2000
    8.9205  -18.5696   17.3403 N   0  0  0  0  0  0  0  0  0  0  0  0
    8.0220  -18.1243   18.3758 C   0  0  0  0  0  0  0  0  0  0  0  0
    8.7687  -17.2123   19.2997 C   0  0  0  0  0  0  0  0  0  0  0  0
   10.0010  -17.3728   19.4469 O   0  0  0  0  0  0  0  0  0  0  0  0
    8.8680  -12.5382   19.7068 C   0  0  0  0  0  0  0  0  0  0  0  0
    7.6050  -13.3637   20.0591 C   0  0  2  0  0  0  0  0  0  0  0  0
    6.5352  -12.3305   20.3176 C   0  0  0  0  0  0  0  0  0  0  0  0
    7.9815  -14.1759   21.2395 C   0  0  0  0  0  0  0  0  0  0  0  0
    8.8323  -15.3700   21.0331 C   0  0  2  0  0  0  0  0  0  0  0  0
    8.1287  -16.1772   20.0104 N   0  0  0  0  0  0  0  0  0  0  0  0
    9.1447  -16.1944   22.2007 C   0  0  0  0  0  0  0  0  0  0  0  0
    8.2372  -16.8253   22.8542 O   0  0  0  0  0  0  0  0  0  0  0  0
   10.4579  -16.3608   22.6897 N   0  0  0  0  0  0  0  0  0  0  0  0
   10.6918  -17.2096   23.9271 C   0  0  1  0  0  0  0  0  0  0  0  0
   11.3654  -18.4106   23.3969 C   0  0  0  0  0  0  0  0  0  0  0  0
   11.9100  -19.4936   24.1853 C   0  0  0  0  0  0  0  0  0  0  0  0
   12.5355  -20.6681   23.5348 C   0  0  0  0  0  0  0  0  0  0  0  0
   12.9493  -21.6960   24.6248 C   0  0  0  0  0  0  0  0  0  0  0  0
   13.3266  -22.9311   23.9714 N   0  0  0  0  0  0  0  0  0  0  0  0
   11.5211  -16.3879   24.8161 C   0  0  0  0  0  0  0  0  0  0  0  0
   12.1189  -15.3517   24.3191 O   0  0  0  0  0  0  0  0  0  0  0  0
   11.7447  -16.5783   26.1433 O   0  0  0  0  0  0  0  0  0  0  0  0
  2  1  1  0
  2  3  1  0
  3 10  1  0
  3  4  2  0
  6  5  1  1
  7  6  1  0
  8  6  1  0
  9  8  1  1
 10  9  1  0
 11  9  1  0
 11 13  1  0
 12 11  2  0
 14 20  1  0
 14 13  1  0
 14 15  1  6
 16 15  1  0
 17 18  1  0
 17 16  1  0
 18 19  1  0
 20 22  1  0
 21 20  2  0
M  END
$$$$
