GLK.pdb
     RDKit          3D

 22 21  0  0  1  0  0  0  0  0999 V2000
    6.3186  -17.8109   22.2604 N   0  0  0  0  0  0  0  0  0  0  0  0
    6.0663  -17.2762   23.5751 C   0  0  0  0  0  0  0  0  0  0  0  0
    7.1406  -16.2862   23.9050 C   0  0  0  0  0  0  0  0  0  0  0  0
    8.1213  -16.1751   23.1356 O   0  0  0  0  0  0  0  0  0  0  0  0
    6.9148  -11.7378   24.7670 C   0  0  0  0  0  0  0  0  0  0  0  0
    6.3327  -12.7323   25.8028 C   0  0  2  0  0  0  0  0  0  0  0  0
    5.6753  -11.8572   26.8425 C   0  0  0  0  0  0  0  0  0  0  0  0
    7.4916  -13.5144   26.2929 C   0  0  0  0  0  0  0  0  0  0  0  0
    8.1338  -14.4784   25.3707 C   0  0  2  0  0  0  0  0  0  0  0  0
    7.0840  -15.4740   25.0553 N   0  0  0  0  0  0  0  0  0  0  0  0
    9.3490  -15.1530   25.8280 C   0  0  0  0  0  0  0  0  0  0  0  0
   10.4041  -14.5045   26.1668 O   0  0  0  0  0  0  0  0  0  0  0  0
    9.4500  -16.5564   25.9350 N   0  0  0  0  0  0  0  0  0  0  0  0
   10.7368  -17.1749   26.4526 C   0  0  1  0  0  0  0  0  0  0  0  0
   10.2669  -18.1852   27.4200 C   0  0  0  0  0  0  0  0  0  0  0  0
   11.0046  -19.3515   27.8520 C   0  0  0  0  0  0  0  0  0  0  0  0
   11.7429  -19.3518   29.1361 C   0  0  0  0  0  0  0  0  0  0  0  0
   12.4459  -20.7257   29.3210 C   0  0  0  0  0  0  0  0  0  0  0  0
   13.1928  -20.6960   30.5603 N   0  0  0  0  0  0  0  0  0  0  0  0
   11.4095  -17.7282   25.2716 C   0  0  0  0  0  0  0  0  0  0  0  0
   10.6816  -18.1253   24.2764 O   0  0  0  0  0  0  0  0  0  0  0  0
   12.7469  -17.8764   25.0792 O   0  0  0  0  0  0  0  0  0  0  0  0
  2  1  1  0
  2  3  1  0
  3 10  1  0
  3  4  2  0
  6  5  1  6
  7  6  1  0
  8  6  1  0
  9  8  1  1
 10  9  1  0
 11  9  1  0
 11 13  1  0
 12 11  2  0
 14 20  1  0
 14 13  1  0
 14 15  1  1
 16 15  1  0
 17 18  1  0
 17 16  1  0
 18 19  1  0
 20 22  1  0
 21 20  2  0
M  END
$$$$
