GLK.pdb
     RDKit          3D

 22 21  0  0  1  0  0  0  0  0999 V2000
    8.8363  -19.3281   18.4585 N   0  0  0  0  0  0  0  0  0  0  0  0
    7.9740  -18.5358   19.2992 C   0  0  0  0  0  0  0  0  0  0  0  0
    8.7793  -17.4270   19.9031 C   0  0  0  0  0  0  0  0  0  0  0  0
   10.0283  -17.4888   19.8575 O   0  0  0  0  0  0  0  0  0  0  0  0
    8.7146  -12.8870   19.2920 C   0  0  0  0  0  0  0  0  0  0  0  0
    7.5238  -13.5594   20.0205 C   0  0  2  0  0  0  0  0  0  0  0  0
    6.5101  -12.4540   20.1925 C   0  0  0  0  0  0  0  0  0  0  0  0
    8.0841  -14.0896   21.2853 C   0  0  0  0  0  0  0  0  0  0  0  0
    8.9669  -15.2767   21.2239 C   0  0  2  0  0  0  0  0  0  0  0  0
    8.1763  -16.3139   20.5225 N   0  0  0  0  0  0  0  0  0  0  0  0
    9.4876  -15.8049   22.4850 C   0  0  0  0  0  0  0  0  0  0  0  0
    8.7195  -16.1048   23.4692 O   0  0  0  0  0  0  0  0  0  0  0  0
   10.8627  -16.0276   22.7108 N   0  0  0  0  0  0  0  0  0  0  0  0
   11.3193  -16.5813   24.0492 C   0  0  1  0  0  0  0  0  0  0  0  0
   11.0989  -18.0339   23.9126 C   0  0  0  0  0  0  0  0  0  0  0  0
   11.2861  -19.0203   24.9532 C   0  0  0  0  0  0  0  0  0  0  0  0
   11.9587  -20.3088   24.6676 C   0  0  0  0  0  0  0  0  0  0  0  0
   12.1329  -21.0994   25.9944 C   0  0  0  0  0  0  0  0  0  0  0  0
   11.3124  -22.2899   25.9305 N   0  0  0  0  0  0  0  0  0  0  0  0
   12.7272  -16.1877   24.1774 C   0  0  0  0  0  0  0  0  0  0  0  0
   13.3231  -16.3878   25.3100 O   0  0  0  0  0  0  0  0  0  0  0  0
   13.5157  -15.6261   23.2232 O   0  0  0  0  0  0  0  0  0  0  0  0
  2  1  1  0
  2  3  1  0
  3 10  1  0
  3  4  2  0
  6  5  1  6
  7  6  1  0
  8  6  1  0
  9  8  1  1
 10  9  1  0
 11  9  1  0
 11 13  1  0
 12 11  2  0
 14 20  1  0
 14 13  1  0
 14 15  1  6
 16 15  1  0
 17 18  1  0
 17 16  1  0
 18 19  1  0
 20 22  1  0
 21 20  2  0
M  END
$$$$
