GLK.pdb
     RDKit          3D

 22 21  0  0  1  0  0  0  0  0999 V2000
    6.8808  -18.1923   21.5784 N   0  0  0  0  0  0  0  0  0  0  0  0
    6.5389  -17.8230   22.9293 C   0  0  0  0  0  0  0  0  0  0  0  0
    7.2442  -16.5469   23.2711 C   0  0  0  0  0  0  0  0  0  0  0  0
    8.2330  -16.1975   22.5883 O   0  0  0  0  0  0  0  0  0  0  0  0
    5.9879  -11.9924   27.1109 C   0  0  0  0  0  0  0  0  0  0  0  0
    7.1325  -12.4675   26.1809 C   0  0  2  0  0  0  0  0  0  0  0  0
    7.3234  -11.3334   25.2030 C   0  0  0  0  0  0  0  0  0  0  0  0
    6.6513  -13.7323   25.5781 C   0  0  0  0  0  0  0  0  0  0  0  0
    7.5893  -14.5199   24.7460 C   0  0  2  0  0  0  0  0  0  0  0  0
    6.8307  -15.7245   24.3383 N   0  0  0  0  0  0  0  0  0  0  0  0
    8.8690  -14.9059   25.3411 C   0  0  0  0  0  0  0  0  0  0  0  0
    9.8123  -14.0583   25.5421 O   0  0  0  0  0  0  0  0  0  0  0  0
    9.1583  -16.2280   25.7407 N   0  0  0  0  0  0  0  0  0  0  0  0
   10.5238  -16.5501   26.3221 C   0  0  1  0  0  0  0  0  0  0  0  0
   10.2605  -17.7126   27.1921 C   0  0  0  0  0  0  0  0  0  0  0  0
   11.2473  -18.4307   27.9675 C   0  0  0  0  0  0  0  0  0  0  0  0
   10.8733  -19.6319   28.7494 C   0  0  0  0  0  0  0  0  0  0  0  0
   12.1332  -20.1829   29.4738 C   0  0  0  0  0  0  0  0  0  0  0  0
   11.7153  -21.2088   30.4052 N   0  0  0  0  0  0  0  0  0  0  0  0
   11.3848  -16.8347   25.1685 C   0  0  0  0  0  0  0  0  0  0  0  0
   12.6036  -16.3963   25.1852 O   0  0  0  0  0  0  0  0  0  0  0  0
   11.0570  -17.5300   24.0475 O   0  0  0  0  0  0  0  0  0  0  0  0
  2  1  1  0
  2  3  1  0
  3 10  1  0
  3  4  2  0
  6  5  1  1
  7  6  1  0
  8  6  1  0
  9  8  1  1
 10  9  1  0
 11  9  1  0
 11 13  1  0
 12 11  2  0
 14 20  1  0
 14 13  1  0
 14 15  1  1
 16 15  1  0
 17 18  1  0
 17 16  1  0
 18 19  1  0
 20 22  1  0
 21 20  2  0
M  END
$$$$
