GLK.pdb
     RDKit          3D

 22 21  0  0  1  0  0  0  0  0999 V2000
    7.2646  -14.9905   20.0590 N   0  0  0  0  0  0  0  0  0  0  0  0
    6.5051  -15.1128   21.2782 C   0  0  0  0  0  0  0  0  0  0  0  0
    7.3918  -14.7629   22.4332 C   0  0  0  0  0  0  0  0  0  0  0  0
    8.6244  -14.6590   22.2431 O   0  0  0  0  0  0  0  0  0  0  0  0
    7.6993  -11.4187   25.4289 C   0  0  0  0  0  0  0  0  0  0  0  0
    6.4427  -12.3154   25.5626 C   0  0  2  0  0  0  0  0  0  0  0  0
    5.6177  -11.6555   26.6409 C   0  0  0  0  0  0  0  0  0  0  0  0
    6.9543  -13.6618   25.9093 C   0  0  0  0  0  0  0  0  0  0  0  0
    7.7674  -14.3880   24.9074 C   0  0  2  0  0  0  0  0  0  0  0  0
    6.8837  -14.5462   23.7297 N   0  0  0  0  0  0  0  0  0  0  0  0
    8.3299  -15.6820   25.2946 C   0  0  0  0  0  0  0  0  0  0  0  0
    7.6021  -16.7316   25.4260 O   0  0  0  0  0  0  0  0  0  0  0  0
    9.7053  -15.8732   25.5457 N   0  0  0  0  0  0  0  0  0  0  0  0
   10.2201  -17.2669   25.8598 C   0  0  1  0  0  0  0  0  0  0  0  0
   11.4642  -17.3588   25.0717 C   0  0  0  0  0  0  0  0  0  0  0  0
   12.3932  -18.4668   25.0818 C   0  0  0  0  0  0  0  0  0  0  0  0
   12.5652  -19.3261   23.8877 C   0  0  0  0  0  0  0  0  0  0  0  0
   13.6667  -20.3846   24.1741 C   0  0  0  0  0  0  0  0  0  0  0  0
   13.9381  -21.1075   22.9500 N   0  0  0  0  0  0  0  0  0  0  0  0
   10.4160  -17.2949   27.3138 C   0  0  0  0  0  0  0  0  0  0  0  0
   10.3608  -16.1768   27.9655 O   0  0  0  0  0  0  0  0  0  0  0  0
   10.6498  -18.3841   28.0927 O   0  0  0  0  0  0  0  0  0  0  0  0
  2  1  1  0
  2  3  1  0
  3 10  1  0
  3  4  2  0
  6  5  1  1
  7  6  1  0
  8  6  1  0
  9  8  1  1
 10  9  1  0
 11  9  1  0
 11 13  1  0
 12 11  2  0
 14 20  1  0
 14 13  1  0
 14 15  1  6
 16 15  1  0
 17 18  1  0
 17 16  1  0
 18 19  1  0
 20 22  1  0
 21 20  2  0
M  END
$$$$
