GLK.pdb
     RDKit          3D

 22 21  0  0  1  0  0  0  0  0999 V2000
    9.0908  -15.3286   20.5685 N   0  0  0  0  0  0  0  0  0  0  0  0
    8.0327  -15.5715   21.5171 C   0  0  0  0  0  0  0  0  0  0  0  0
    8.5569  -15.3161   22.8965 C   0  0  0  0  0  0  0  0  0  0  0  0
    9.7941  -15.2546   23.0746 O   0  0  0  0  0  0  0  0  0  0  0  0
    7.8894  -12.0542   26.3311 C   0  0  0  0  0  0  0  0  0  0  0  0
    6.7237  -12.9294   25.8059 C   0  0  2  0  0  0  0  0  0  0  0  0
    5.5060  -12.4204   26.5387 C   0  0  0  0  0  0  0  0  0  0  0  0
    7.1028  -14.3251   26.1271 C   0  0  0  0  0  0  0  0  0  0  0  0
    8.2188  -14.9444   25.3766 C   0  0  2  0  0  0  0  0  0  0  0  0
    7.7017  -15.1424   24.0032 N   0  0  0  0  0  0  0  0  0  0  0  0
    8.7757  -16.1952   25.8922 C   0  0  0  0  0  0  0  0  0  0  0  0
    8.0812  -17.2725   25.9677 O   0  0  0  0  0  0  0  0  0  0  0  0
   10.1098  -16.3119   26.3371 N   0  0  0  0  0  0  0  0  0  0  0  0
   10.6079  -17.6475   26.8608 C   0  0  1  0  0  0  0  0  0  0  0  0
   12.0551  -17.6099   26.5751 C   0  0  0  0  0  0  0  0  0  0  0  0
   12.9459  -18.7488   26.5634 C   0  0  0  0  0  0  0  0  0  0  0  0
   13.0793  -19.5977   25.3569 C   0  0  0  0  0  0  0  0  0  0  0  0
   13.9437  -20.8428   25.7011 C   0  0  0  0  0  0  0  0  0  0  0  0
   14.1900  -21.5819   24.4814 N   0  0  0  0  0  0  0  0  0  0  0  0
   10.2686  -17.6610   28.2884 C   0  0  0  0  0  0  0  0  0  0  0  0
   10.0907  -16.5282   28.8910 O   0  0  0  0  0  0  0  0  0  0  0  0
   10.1048  -18.7494   29.0860 O   0  0  0  0  0  0  0  0  0  0  0  0
  2  1  1  0
  2  3  1  0
  3 10  1  0
  3  4  2  0
  6  5  1  1
  7  6  1  0
  8  6  1  0
  9  8  1  1
 10  9  1  0
 11  9  1  0
 11 13  1  0
 12 11  2  0
 14 20  1  0
 14 13  1  0
 14 15  1  1
 16 15  1  0
 17 18  1  0
 17 16  1  0
 18 19  1  0
 20 22  1  0
 21 20  2  0
M  END
$$$$
