GLK.pdb
     RDKit          3D

 22 21  0  0  1  0  0  0  0  0999 V2000
    6.3918  -18.1290   22.6130 N   0  0  0  0  0  0  0  0  0  0  0  0
    6.2390  -17.4937   23.8979 C   0  0  0  0  0  0  0  0  0  0  0  0
    7.3305  -16.4822   24.0660 C   0  0  0  0  0  0  0  0  0  0  0  0
    8.2752  -16.4657   23.2453 O   0  0  0  0  0  0  0  0  0  0  0  0
    6.7829  -11.8853   24.6571 C   0  0  0  0  0  0  0  0  0  0  0  0
    6.5148  -12.9614   25.7392 C   0  0  2  0  0  0  0  0  0  0  0  0
    5.7877  -12.2235   26.8373 C   0  0  0  0  0  0  0  0  0  0  0  0
    7.8497  -13.4800   26.1186 C   0  0  0  0  0  0  0  0  0  0  0  0
    8.4339  -14.5798   25.3177 C   0  0  2  0  0  0  0  0  0  0  0  0
    7.3296  -15.5463   25.1197 N   0  0  0  0  0  0  0  0  0  0  0  0
    9.6123  -15.2617   25.8536 C   0  0  0  0  0  0  0  0  0  0  0  0
   10.6958  -14.6333   26.1360 O   0  0  0  0  0  0  0  0  0  0  0  0
    9.6443  -16.6502   26.1033 N   0  0  0  0  0  0  0  0  0  0  0  0
   10.9412  -17.2974   26.5567 C   0  0  1  0  0  0  0  0  0  0  0  0
   10.5589  -17.9989   27.7973 C   0  0  0  0  0  0  0  0  0  0  0  0
   11.4699  -18.6083   28.7407 C   0  0  0  0  0  0  0  0  0  0  0  0
   10.9618  -19.3669   29.9070 C   0  0  0  0  0  0  0  0  0  0  0  0
   12.1644  -19.8563   30.7615 C   0  0  0  0  0  0  0  0  0  0  0  0
   12.1061  -21.2996   30.8518 N   0  0  0  0  0  0  0  0  0  0  0  0
   11.3452  -18.1805   25.4567 C   0  0  0  0  0  0  0  0  0  0  0  0
   10.4347  -18.6007   24.6366 O   0  0  0  0  0  0  0  0  0  0  0  0
   12.5985  -18.6245   25.1745 O   0  0  0  0  0  0  0  0  0  0  0  0
  2  1  1  0
  2  3  1  0
  3 10  1  0
  3  4  2  0
  6  5  1  6
  7  6  1  0
  8  6  1  0
  9  8  1  1
 10  9  1  0
 11  9  1  0
 11 13  1  0
 12 11  2  0
 14 20  1  0
 14 13  1  0
 14 15  1  1
 16 15  1  0
 17 18  1  0
 17 16  1  0
 18 19  1  0
 20 22  1  0
 21 20  2  0
M  END
$$$$
