GLK.pdb
     RDKit          3D

 22 21  0  0  1  0  0  0  0  0999 V2000
    7.9980  -15.6731   19.7616 N   0  0  0  0  0  0  0  0  0  0  0  0
    7.1206  -15.8787   20.8867 C   0  0  0  0  0  0  0  0  0  0  0  0
    7.8067  -15.3917   22.1256 C   0  0  0  0  0  0  0  0  0  0  0  0
    9.0284  -15.6194   22.2729 O   0  0  0  0  0  0  0  0  0  0  0  0
    5.9942  -11.9755   26.8202 C   0  0  0  0  0  0  0  0  0  0  0  0
    7.2456  -12.7620   26.3554 C   0  0  2  0  0  0  0  0  0  0  0  0
    8.3642  -11.7487   26.3846 C   0  0  0  0  0  0  0  0  0  0  0  0
    6.9096  -13.2767   25.0074 C   0  0  0  0  0  0  0  0  0  0  0  0
    7.7516  -14.3494   24.4308 C   0  0  2  0  0  0  0  0  0  0  0  0
    7.1212  -14.6840   23.1333 N   0  0  0  0  0  0  0  0  0  0  0  0
    7.9486  -15.5623   25.2248 C   0  0  0  0  0  0  0  0  0  0  0  0
    6.9903  -16.3806   25.4715 O   0  0  0  0  0  0  0  0  0  0  0  0
    9.1986  -15.9240   25.7708 N   0  0  0  0  0  0  0  0  0  0  0  0
    9.3653  -17.2895   26.4141 C   0  0  1  0  0  0  0  0  0  0  0  0
   10.2185  -18.0182   25.4558 C   0  0  0  0  0  0  0  0  0  0  0  0
    9.9393  -19.3209   24.8938 C   0  0  0  0  0  0  0  0  0  0  0  0
   10.8913  -19.9667   23.9607 C   0  0  0  0  0  0  0  0  0  0  0  0
   10.3623  -21.3798   23.5878 C   0  0  0  0  0  0  0  0  0  0  0  0
   11.3390  -22.0257   22.7371 N   0  0  0  0  0  0  0  0  0  0  0  0
    9.9908  -17.0362   27.7171 C   0  0  0  0  0  0  0  0  0  0  0  0
   10.4672  -15.8551   27.9537 O   0  0  0  0  0  0  0  0  0  0  0  0
   10.1332  -17.9121   28.7467 O   0  0  0  0  0  0  0  0  0  0  0  0
  2  1  1  0
  2  3  1  0
  3 10  1  0
  3  4  2  0
  6  5  1  6
  7  6  1  0
  8  6  1  0
  9  8  1  1
 10  9  1  0
 11  9  1  0
 11 13  1  0
 12 11  2  0
 14 20  1  0
 14 13  1  0
 14 15  1  6
 16 15  1  0
 17 18  1  0
 17 16  1  0
 18 19  1  0
 20 22  1  0
 21 20  2  0
M  END
$$$$
