GLK.pdb
     RDKit          3D

 22 21  0  0  1  0  0  0  0  0999 V2000
    6.7714  -17.4198   20.6240 N   0  0  0  0  0  0  0  0  0  0  0  0
    6.4179  -17.3015   22.0165 C   0  0  0  0  0  0  0  0  0  0  0  0
    7.1267  -16.1147   22.5924 C   0  0  0  0  0  0  0  0  0  0  0  0
    8.0350  -15.5678   21.9275 O   0  0  0  0  0  0  0  0  0  0  0  0
    8.0547  -12.4950   26.6670 C   0  0  0  0  0  0  0  0  0  0  0  0
    6.7334  -12.4326   25.8602 C   0  0  2  0  0  0  0  0  0  0  0  0
    5.7073  -11.9340   26.8488 C   0  0  0  0  0  0  0  0  0  0  0  0
    6.5046  -13.8122   25.3710 C   0  0  0  0  0  0  0  0  0  0  0  0
    7.4734  -14.3915   24.4128 C   0  0  2  0  0  0  0  0  0  0  0  0
    6.8046  -15.5919   23.8609 N   0  0  0  0  0  0  0  0  0  0  0  0
    8.8031  -14.7395   24.9143 C   0  0  0  0  0  0  0  0  0  0  0  0
    9.5969  -13.8615   25.4121 O   0  0  0  0  0  0  0  0  0  0  0  0
    9.3071  -16.0574   24.8936 N   0  0  0  0  0  0  0  0  0  0  0  0
   10.7421  -16.3146   25.3191 C   0  0  1  0  0  0  0  0  0  0  0  0
   10.6583  -17.5915   26.0538 C   0  0  0  0  0  0  0  0  0  0  0  0
   10.9331  -17.7784   27.4611 C   0  0  0  0  0  0  0  0  0  0  0  0
   10.8129  -19.1147   28.0886 C   0  0  0  0  0  0  0  0  0  0  0  0
   11.1341  -18.9981   29.6048 C   0  0  0  0  0  0  0  0  0  0  0  0
   11.0858  -20.3222   30.1874 N   0  0  0  0  0  0  0  0  0  0  0  0
   11.5158  -16.3773   24.0739 C   0  0  0  0  0  0  0  0  0  0  0  0
   10.8855  -16.6125   22.9669 O   0  0  0  0  0  0  0  0  0  0  0  0
   12.8565  -16.2075   23.9276 O   0  0  0  0  0  0  0  0  0  0  0  0
  2  1  1  0
  2  3  1  0
  3 10  1  0
  3  4  2  0
  6  5  1  1
  7  6  1  0
  8  6  1  0
  9  8  1  1
 10  9  1  0
 11  9  1  0
 11 13  1  0
 12 11  2  0
 14 20  1  0
 14 13  1  0
 14 15  1  6
 16 15  1  0
 17 18  1  0
 17 16  1  0
 18 19  1  0
 20 22  1  0
 21 20  2  0
M  END
$$$$
