GLK.pdb
     RDKit          3D

 22 21  0  0  1  0  0  0  0  0999 V2000
    7.3393  -14.8402   20.2130 N   0  0  0  0  0  0  0  0  0  0  0  0
    6.5625  -15.0092   21.4156 C   0  0  0  0  0  0  0  0  0  0  0  0
    7.4418  -14.7378   22.5971 C   0  0  0  0  0  0  0  0  0  0  0  0
    8.6839  -14.7477   22.4450 O   0  0  0  0  0  0  0  0  0  0  0  0
    7.9841  -11.3650   25.4924 C   0  0  0  0  0  0  0  0  0  0  0  0
    6.6609  -12.1672   25.5711 C   0  0  2  0  0  0  0  0  0  0  0  0
    5.8045  -11.3936   26.5443 C   0  0  0  0  0  0  0  0  0  0  0  0
    7.0481  -13.5226   26.0268 C   0  0  0  0  0  0  0  0  0  0  0  0
    7.7723  -14.4048   25.0836 C   0  0  2  0  0  0  0  0  0  0  0  0
    6.9162  -14.4711   23.8772 N   0  0  0  0  0  0  0  0  0  0  0  0
    8.1126  -15.7537   25.5367 C   0  0  0  0  0  0  0  0  0  0  0  0
    7.2174  -16.6497   25.7478 O   0  0  0  0  0  0  0  0  0  0  0  0
    9.4409  -16.1697   25.7690 N   0  0  0  0  0  0  0  0  0  0  0  0
    9.7081  -17.5925   26.2277 C   0  0  1  0  0  0  0  0  0  0  0  0
   10.6171  -18.1216   25.1927 C   0  0  0  0  0  0  0  0  0  0  0  0
   10.3229  -18.2269   23.7809 C   0  0  0  0  0  0  0  0  0  0  0  0
   11.3275  -18.7607   22.8324 C   0  0  0  0  0  0  0  0  0  0  0  0
   10.7351  -18.7409   21.3956 C   0  0  0  0  0  0  0  0  0  0  0  0
   11.7407  -19.2315   20.4776 N   0  0  0  0  0  0  0  0  0  0  0  0
   10.3085  -17.4692   27.5610 C   0  0  0  0  0  0  0  0  0  0  0  0
   10.5793  -18.5520   28.2183 O   0  0  0  0  0  0  0  0  0  0  0  0
   10.6344  -16.3230   28.2149 O   0  0  0  0  0  0  0  0  0  0  0  0
  2  1  1  0
  2  3  1  0
  3 10  1  0
  3  4  2  0
  6  5  1  1
  7  6  1  0
  8  6  1  0
  9  8  1  1
 10  9  1  0
 11  9  1  0
 11 13  1  0
 12 11  2  0
 14 20  1  0
 14 13  1  0
 14 15  1  6
 16 15  1  0
 17 18  1  0
 17 16  1  0
 18 19  1  0
 20 22  1  0
 21 20  2  0
M  END
$$$$
