CQD.pdb
     RDKit          3D

 24 23  0  0  1  0  0  0  0  0999 V2000
   22.6406  -13.9299  -17.4183 N   0  0  0  0  0  0  0  0  0  0  0  0
   22.6454  -12.9877  -16.3304 C   0  0  1  0  0  0  0  0  0  0  0  0
   24.0653  -12.7070  -15.8934 C   0  0  0  0  0  0  0  0  0  0  0  0
   24.6803  -14.1101  -14.9219 S   0  0  0  0  0  0  0  0  0  0  0  0
   21.8722  -11.7678  -16.5850 C   0  0  0  0  0  0  0  0  0  0  0  0
   22.0824  -11.1670  -17.6835 O   0  0  0  0  0  0  0  0  0  0  0  0
   16.0874  -10.8844  -16.2744 N   0  0  0  0  0  0  0  0  0  0  0  0
   16.9687  -11.7457  -16.9785 C   0  0  0  0  0  0  0  0  0  0  0  0
   16.4261  -12.7598  -17.5306 O   0  0  0  0  0  0  0  0  0  0  0  0
   18.4347  -11.4902  -17.0725 C   0  0  0  0  0  0  0  0  0  0  0  0
   18.7290  -10.2558  -16.2953 C   0  0  0  0  0  0  0  0  0  0  0  0
   20.2069  -10.0057  -16.0851 C   0  0  2  0  0  0  0  0  0  0  0  0
   20.9185  -11.2000  -15.7260 N   0  0  0  0  0  0  0  0  0  0  0  0
   20.4291   -8.8702  -15.1541 C   0  0  0  0  0  0  0  0  0  0  0  0
   20.3863   -9.1403  -13.9262 O   0  0  0  0  0  0  0  0  0  0  0  0
   20.6783   -7.5441  -15.5301 N   0  0  0  0  0  0  0  0  0  0  0  0
   20.8888   -6.4578  -14.5818 C   0  0  1  0  0  0  0  0  0  0  0  0
   22.0595   -5.6132  -14.9515 C   0  0  0  0  0  0  0  0  0  0  0  0
   22.2213   -4.5157  -13.9779 C   0  0  0  0  0  0  0  0  0  0  0  0
   22.6670   -4.7423  -12.8263 O   0  0  0  0  0  0  0  0  0  0  0  0
   19.6545   -5.6518  -14.4928 C   0  0  0  0  0  0  0  0  0  0  0  0
   18.9077   -5.5714  -15.5123 O   0  0  0  0  0  0  0  0  0  0  0  0
   21.8968   -3.1946  -14.2717 O   0  0  0  0  0  0  0  0  0  0  0  0
   19.2243   -4.9623  -13.3802 O   0  0  0  0  0  0  0  0  0  0  0  0
  2  1  1  6
  3  2  1  0
  4  3  1  0
  5  2  1  0
  5  6  2  0
  7  8  1  0
  8 10  1  0
  8  9  2  0
 10 11  1  0
 12 11  1  1
 12 13  1  0
 13  5  1  0
 14 12  1  0
 15 14  2  0
 16 14  1  0
 17 16  1  0
 17 21  1  0
 17 18  1  6
 19 23  1  0
 19 18  1  0
 20 19  2  0
 21 24  1  0
 22 21  2  0
M  END
$$$$
