CQD.pdb
     RDKit          3D

 24 23  0  0  1  0  0  0  0  0999 V2000
   27.6433  -11.4128  -17.9745 N   0  0  0  0  0  0  0  0  0  0  0  0
   26.6393  -11.5246  -16.9495 C   0  0  1  0  0  0  0  0  0  0  0  0
   27.2745  -11.3896  -15.5842 C   0  0  0  0  0  0  0  0  0  0  0  0
   28.3368  -12.8270  -15.2743 S   0  0  0  0  0  0  0  0  0  0  0  0
   25.4857  -10.6381  -17.1352 C   0  0  0  0  0  0  0  0  0  0  0  0
   25.6870   -9.5462  -17.7511 O   0  0  0  0  0  0  0  0  0  0  0  0
   19.5782  -12.1342  -17.9954 N   0  0  0  0  0  0  0  0  0  0  0  0
   19.5108  -10.7171  -18.0286 C   0  0  0  0  0  0  0  0  0  0  0  0
   18.3715  -10.2250  -18.3241 O   0  0  0  0  0  0  0  0  0  0  0  0
   20.6895   -9.8511  -17.7384 C   0  0  0  0  0  0  0  0  0  0  0  0
   21.8324  -10.7421  -17.4002 C   0  0  0  0  0  0  0  0  0  0  0  0
   23.0969   -9.9974  -17.0295 C   0  0  2  0  0  0  0  0  0  0  0  0
   24.1759  -10.8838  -16.6950 N   0  0  0  0  0  0  0  0  0  0  0  0
   22.8252   -8.9643  -15.9979 C   0  0  0  0  0  0  0  0  0  0  0  0
   22.8646   -9.3489  -14.8007 O   0  0  0  0  0  0  0  0  0  0  0  0
   22.5331   -7.6177  -16.2493 N   0  0  0  0  0  0  0  0  0  0  0  0
   22.3741   -6.6133  -15.2055 C   0  0  1  0  0  0  0  0  0  0  0  0
   22.6012   -5.2333  -15.7196 C   0  0  0  0  0  0  0  0  0  0  0  0
   22.4739   -4.2552  -14.6216 C   0  0  0  0  0  0  0  0  0  0  0  0
   22.7961   -4.5646  -13.4482 O   0  0  0  0  0  0  0  0  0  0  0  0
   21.0292   -6.7478  -14.6102 C   0  0  0  0  0  0  0  0  0  0  0  0
   20.1219   -7.3191  -15.2840 O   0  0  0  0  0  0  0  0  0  0  0  0
   22.0001   -2.9612  -14.8169 O   0  0  0  0  0  0  0  0  0  0  0  0
   20.6559   -6.3023  -13.3610 O   0  0  0  0  0  0  0  0  0  0  0  0
  2  1  1  6
  3  2  1  0
  4  3  1  0
  5  2  1  0
  5  6  2  0
  7  8  1  0
  8 10  1  0
  8  9  2  0
 10 11  1  0
 12 11  1  1
 12 13  1  0
 13  5  1  0
 14 12  1  0
 15 14  2  0
 16 14  1  0
 17 16  1  0
 17 21  1  0
 17 18  1  6
 19 23  1  0
 19 18  1  0
 20 19  2  0
 21 24  1  0
 22 21  2  0
M  END
$$$$
