CQD.pdb
     RDKit          3D

 24 23  0  0  1  0  0  0  0  0999 V2000
   26.5918  -19.9589   -9.6649 N   0  0  0  0  0  0  0  0  0  0  0  0
   25.4538  -20.6819  -10.1684 C   0  0  1  0  0  0  0  0  0  0  0  0
   24.2122  -20.2985   -9.3957 C   0  0  0  0  0  0  0  0  0  0  0  0
   24.5133  -20.5389   -7.6230 S   0  0  0  0  0  0  0  0  0  0  0  0
   25.2757  -20.5911  -11.6214 C   0  0  0  0  0  0  0  0  0  0  0  0
   24.9719  -19.4543  -12.0982 O   0  0  0  0  0  0  0  0  0  0  0  0
   27.5707  -24.1821  -16.1791 N   0  0  0  0  0  0  0  0  0  0  0  0
   26.8834  -23.1717  -16.9008 C   0  0  0  0  0  0  0  0  0  0  0  0
   27.0597  -23.1783  -18.1643 O   0  0  0  0  0  0  0  0  0  0  0  0
   26.0098  -22.1637  -16.2345 C   0  0  0  0  0  0  0  0  0  0  0  0
   26.0483  -22.4293  -14.7708 C   0  0  0  0  0  0  0  0  0  0  0  0
   25.2592  -21.4325  -13.9494 C   0  0  2  0  0  0  0  0  0  0  0  0
   25.4098  -21.6459  -12.5375 N   0  0  0  0  0  0  0  0  0  0  0  0
   23.8459  -21.3688  -14.4008 C   0  0  0  0  0  0  0  0  0  0  0  0
   22.9857  -21.8249  -13.6041 O   0  0  0  0  0  0  0  0  0  0  0  0
   23.4030  -20.8492  -15.6239 N   0  0  0  0  0  0  0  0  0  0  0  0
   22.0372  -20.4044  -15.8696 C   0  0  1  0  0  0  0  0  0  0  0  0
   21.5751  -19.4281  -14.8430 C   0  0  0  0  0  0  0  0  0  0  0  0
   20.1755  -19.7098  -14.4685 C   0  0  0  0  0  0  0  0  0  0  0  0
   19.7640  -20.8921  -14.3728 O   0  0  0  0  0  0  0  0  0  0  0  0
   21.9558  -19.8310  -17.2281 C   0  0  0  0  0  0  0  0  0  0  0  0
   22.9282  -19.1410  -17.6547 O   0  0  0  0  0  0  0  0  0  0  0  0
   19.2495  -18.7045  -14.2052 O   0  0  0  0  0  0  0  0  0  0  0  0
   20.8988  -19.9781  -18.0996 O   0  0  0  0  0  0  0  0  0  0  0  0
  2  1  1  1
  3  2  1  0
  4  3  1  0
  5  2  1  0
  5  6  2  0
  7  8  1  0
  8 10  1  0
  8  9  2  0
 10 11  1  0
 12 11  1  6
 12 13  1  0
 13  5  1  0
 14 12  1  0
 15 14  2  0
 16 14  1  0
 17 16  1  0
 17 21  1  0
 17 18  1  1
 19 23  1  0
 19 18  1  0
 20 19  2  0
 21 24  1  0
 22 21  2  0
M  END
$$$$
