CQD.pdb
     RDKit          3D

 24 23  0  0  1  0  0  0  0  0999 V2000
   19.9744  -16.6422  -14.6514 N   0  0  0  0  0  0  0  0  0  0  0  0
   19.1829  -15.5266  -15.0991 C   0  0  1  0  0  0  0  0  0  0  0  0
   18.0119  -15.3142  -14.1668 C   0  0  0  0  0  0  0  0  0  0  0  0
   16.8957  -16.7401  -14.2745 S   0  0  0  0  0  0  0  0  0  0  0  0
   19.9508  -14.3012  -15.3435 C   0  0  0  0  0  0  0  0  0  0  0  0
   20.5350  -13.7747  -14.3468 O   0  0  0  0  0  0  0  0  0  0  0  0
   21.7852  -13.4215  -20.5783 N   0  0  0  0  0  0  0  0  0  0  0  0
   22.7321  -13.8770  -19.6244 C   0  0  0  0  0  0  0  0  0  0  0  0
   23.5996  -14.7053  -20.0593 O   0  0  0  0  0  0  0  0  0  0  0  0
   22.7219  -13.4227  -18.2043 C   0  0  0  0  0  0  0  0  0  0  0  0
   21.6259  -12.4272  -18.0562 C   0  0  0  0  0  0  0  0  0  0  0  0
   20.9261  -12.4860  -16.7154 C   0  0  2  0  0  0  0  0  0  0  0  0
   20.1012  -13.6534  -16.5794 N   0  0  0  0  0  0  0  0  0  0  0  0
   20.2188  -11.2127  -16.4259 C   0  0  0  0  0  0  0  0  0  0  0  0
   18.9925  -11.1809  -16.7049 O   0  0  0  0  0  0  0  0  0  0  0  0
   20.8007  -10.0633  -15.8759 N   0  0  0  0  0  0  0  0  0  0  0  0
   20.0441   -8.8864  -15.4685 C   0  0  1  0  0  0  0  0  0  0  0  0
   19.0401   -9.2056  -14.4146 C   0  0  0  0  0  0  0  0  0  0  0  0
   18.3235   -7.9808  -14.0086 C   0  0  0  0  0  0  0  0  0  0  0  0
   18.4880   -7.4928  -12.8636 O   0  0  0  0  0  0  0  0  0  0  0  0
   20.9856   -7.8442  -15.0123 C   0  0  0  0  0  0  0  0  0  0  0  0
   22.2065   -8.1494  -14.8708 O   0  0  0  0  0  0  0  0  0  0  0  0
   17.4430   -7.3092  -14.8516 O   0  0  0  0  0  0  0  0  0  0  0  0
   20.6576   -6.5385  -14.7192 O   0  0  0  0  0  0  0  0  0  0  0  0
  2  1  1  1
  3  2  1  0
  4  3  1  0
  5  2  1  0
  5  6  2  0
  7  8  1  0
  8 10  1  0
  8  9  2  0
 10 11  1  0
 12 11  1  6
 12 13  1  0
 13  5  1  0
 14 12  1  0
 15 14  2  0
 16 14  1  0
 17 16  1  0
 17 21  1  0
 17 18  1  1
 19 23  1  0
 19 18  1  0
 20 19  2  0
 21 24  1  0
 22 21  2  0
M  END
$$$$
