CQD.pdb
     RDKit          3D

 24 23  0  0  1  0  0  0  0  0999 V2000
   23.5656  -12.7185  -19.7380 N   0  0  0  0  0  0  0  0  0  0  0  0
   22.5902  -11.8283  -19.1660 C   0  0  1  0  0  0  0  0  0  0  0  0
   21.5620  -12.6168  -18.3870 C   0  0  0  0  0  0  0  0  0  0  0  0
   20.9232  -13.9582  -19.4279 S   0  0  0  0  0  0  0  0  0  0  0  0
   23.1634  -10.7179  -18.3981 C   0  0  0  0  0  0  0  0  0  0  0  0
   24.4009  -10.7820  -18.1220 O   0  0  0  0  0  0  0  0  0  0  0  0
   24.6036   -5.2783  -18.7736 N   0  0  0  0  0  0  0  0  0  0  0  0
   23.9890   -6.0613  -19.7852 C   0  0  0  0  0  0  0  0  0  0  0  0
   23.6670   -5.4353  -20.8491 O   0  0  0  0  0  0  0  0  0  0  0  0
   23.7323   -7.5213  -19.6242 C   0  0  0  0  0  0  0  0  0  0  0  0
   24.2376   -7.9238  -18.2837 C   0  0  0  0  0  0  0  0  0  0  0  0
   23.1640   -8.4679  -17.3658 C   0  0  2  0  0  0  0  0  0  0  0  0
   22.4705   -9.5874  -17.9382 N   0  0  0  0  0  0  0  0  0  0  0  0
   22.2674   -7.3834  -16.8912 C   0  0  0  0  0  0  0  0  0  0  0  0
   21.4067   -6.9733  -17.7120 O   0  0  0  0  0  0  0  0  0  0  0  0
   22.3045   -6.7912  -15.6224 N   0  0  0  0  0  0  0  0  0  0  0  0
   21.1582   -6.1477  -14.9935 C   0  0  1  0  0  0  0  0  0  0  0  0
   20.2854   -7.1280  -14.2880 C   0  0  0  0  0  0  0  0  0  0  0  0
   19.1452   -6.4325  -13.6600 C   0  0  0  0  0  0  0  0  0  0  0  0
   19.0808   -5.1786  -13.6613 O   0  0  0  0  0  0  0  0  0  0  0  0
   21.6414   -5.1008  -14.0708 C   0  0  0  0  0  0  0  0  0  0  0  0
   20.7922   -4.3454  -13.5121 O   0  0  0  0  0  0  0  0  0  0  0  0
   18.0973   -7.1095  -13.0429 O   0  0  0  0  0  0  0  0  0  0  0  0
   22.9593   -4.8601  -13.7490 O   0  0  0  0  0  0  0  0  0  0  0  0
  2  1  1  1
  3  2  1  0
  4  3  1  0
  5  2  1  0
  5  6  2  0
  7  8  1  0
  8 10  1  0
  8  9  2  0
 10 11  1  0
 12 11  1  6
 12 13  1  0
 13  5  1  0
 14 12  1  0
 15 14  2  0
 16 14  1  0
 17 16  1  0
 17 21  1  0
 17 18  1  1
 19 23  1  0
 19 18  1  0
 20 19  2  0
 21 24  1  0
 22 21  2  0
M  END
$$$$
