CQD.pdb
     RDKit          3D

 24 23  0  0  1  0  0  0  0  0999 V2000
   18.1657  -16.2728  -15.2549 N   0  0  0  0  0  0  0  0  0  0  0  0
   19.5949  -16.1364  -15.1548 C   0  0  1  0  0  0  0  0  0  0  0  0
   20.2652  -17.4544  -15.4699 C   0  0  0  0  0  0  0  0  0  0  0  0
   19.6896  -18.7132  -14.2974 S   0  0  0  0  0  0  0  0  0  0  0  0
   20.1492  -15.0141  -15.9192 C   0  0  0  0  0  0  0  0  0  0  0  0
   21.0663  -15.2796  -16.7561 O   0  0  0  0  0  0  0  0  0  0  0  0
   19.6363  -14.0286  -20.7359 N   0  0  0  0  0  0  0  0  0  0  0  0
   20.1648  -12.7237  -20.5569 C   0  0  0  0  0  0  0  0  0  0  0  0
   20.4187  -12.0788  -21.6279 O   0  0  0  0  0  0  0  0  0  0  0  0
   20.4107  -12.1361  -19.2087 C   0  0  0  0  0  0  0  0  0  0  0  0
   19.9551  -13.1254  -18.1947 C   0  0  0  0  0  0  0  0  0  0  0  0
   20.1957  -12.6883  -16.7657 C   0  0  2  0  0  0  0  0  0  0  0  0
   19.7600  -13.6699  -15.8125 N   0  0  0  0  0  0  0  0  0  0  0  0
   19.6472  -11.3296  -16.5234 C   0  0  0  0  0  0  0  0  0  0  0  0
   18.3937  -11.2361  -16.4719 O   0  0  0  0  0  0  0  0  0  0  0  0
   20.4039  -10.1635  -16.3508 N   0  0  0  0  0  0  0  0  0  0  0  0
   19.8248   -8.8512  -16.0940 C   0  0  1  0  0  0  0  0  0  0  0  0
   20.8375   -7.8845  -15.5838 C   0  0  0  0  0  0  0  0  0  0  0  0
   21.0030   -8.0448  -14.1259 C   0  0  0  0  0  0  0  0  0  0  0  0
   20.2454   -8.8060  -13.4756 O   0  0  0  0  0  0  0  0  0  0  0  0
   19.1887   -8.3563  -17.3315 C   0  0  0  0  0  0  0  0  0  0  0  0
   19.6988   -8.6759  -18.4456 O   0  0  0  0  0  0  0  0  0  0  0  0
   21.9861   -7.3769  -13.4017 O   0  0  0  0  0  0  0  0  0  0  0  0
   18.0649   -7.5615  -17.3941 O   0  0  0  0  0  0  0  0  0  0  0  0
  2  1  1  6
  3  2  1  0
  4  3  1  0
  5  2  1  0
  5  6  2  0
  7  8  1  0
  8 10  1  0
  8  9  2  0
 10 11  1  0
 12 11  1  6
 12 13  1  0
 13  5  1  0
 14 12  1  0
 15 14  2  0
 16 14  1  0
 17 16  1  0
 17 21  1  0
 17 18  1  6
 19 23  1  0
 19 18  1  0
 20 19  2  0
 21 24  1  0
 22 21  2  0
M  END
$$$$
