CQD.pdb
     RDKit          3D

 24 23  0  0  1  0  0  0  0  0999 V2000
   26.4111  -20.3556   -9.8634 N   0  0  0  0  0  0  0  0  0  0  0  0
   25.2128  -20.8250  -10.5076 C   0  0  1  0  0  0  0  0  0  0  0  0
   23.9996  -20.4344   -9.6944 C   0  0  0  0  0  0  0  0  0  0  0  0
   24.1910  -21.0534   -8.0000 S   0  0  0  0  0  0  0  0  0  0  0  0
   25.1007  -20.4496  -11.9210 C   0  0  0  0  0  0  0  0  0  0  0  0
   25.0846  -19.2093  -12.1918 O   0  0  0  0  0  0  0  0  0  0  0  0
   27.5395  -22.9183  -16.9209 N   0  0  0  0  0  0  0  0  0  0  0  0
   28.1076  -22.0151  -15.9853 C   0  0  0  0  0  0  0  0  0  0  0  0
   29.3820  -21.9548  -15.9794 O   0  0  0  0  0  0  0  0  0  0  0  0
   27.2774  -21.1862  -15.0649 C   0  0  0  0  0  0  0  0  0  0  0  0
   25.8516  -21.5418  -15.2988 C   0  0  0  0  0  0  0  0  0  0  0  0
   24.8891  -20.8550  -14.3539 C   0  0  2  0  0  0  0  0  0  0  0  0
   25.0093  -21.3352  -13.0060 N   0  0  0  0  0  0  0  0  0  0  0  0
   23.5024  -20.8919  -14.8842 C   0  0  0  0  0  0  0  0  0  0  0  0
   22.6800  -21.5966  -14.2442 O   0  0  0  0  0  0  0  0  0  0  0  0
   23.0463  -20.2148  -16.0224 N   0  0  0  0  0  0  0  0  0  0  0  0
   21.6897  -19.7047  -16.1738 C   0  0  1  0  0  0  0  0  0  0  0  0
   21.2333  -18.9648  -14.9635 C   0  0  0  0  0  0  0  0  0  0  0  0
   19.7770  -19.1279  -14.7880 C   0  0  0  0  0  0  0  0  0  0  0  0
   19.1557  -20.0313  -15.3996 O   0  0  0  0  0  0  0  0  0  0  0  0
   21.6289  -18.8509  -17.3772 C   0  0  0  0  0  0  0  0  0  0  0  0
   22.6914  -18.2897  -17.7773 O   0  0  0  0  0  0  0  0  0  0  0  0
   19.0227  -18.3086  -13.9531 O   0  0  0  0  0  0  0  0  0  0  0  0
   20.5008  -18.5997  -18.1273 O   0  0  0  0  0  0  0  0  0  0  0  0
  2  1  1  1
  3  2  1  0
  4  3  1  0
  5  2  1  0
  5  6  2  0
  7  8  1  0
  8 10  1  0
  8  9  2  0
 10 11  1  0
 12 11  1  6
 12 13  1  0
 13  5  1  0
 14 12  1  0
 15 14  2  0
 16 14  1  0
 17 16  1  0
 17 21  1  0
 17 18  1  1
 19 23  1  0
 19 18  1  0
 20 19  2  0
 21 24  1  0
 22 21  2  0
M  END
$$$$
