CQD.pdb
     RDKit          3D

 24 23  0  0  1  0  0  0  0  0999 V2000
   15.1465  -12.3666  -11.7093 N   0  0  0  0  0  0  0  0  0  0  0  0
   16.1805  -11.4080  -11.4210 C   0  0  1  0  0  0  0  0  0  0  0  0
   17.3310  -11.5798  -12.3867 C   0  0  0  0  0  0  0  0  0  0  0  0
   17.9902  -13.2633  -12.2378 S   0  0  0  0  0  0  0  0  0  0  0  0
   15.7103  -10.0218  -11.3303 C   0  0  0  0  0  0  0  0  0  0  0  0
   14.7494   -9.6849  -12.0886 O   0  0  0  0  0  0  0  0  0  0  0  0
   14.8762   -6.0776   -6.6609 N   0  0  0  0  0  0  0  0  0  0  0  0
   13.8596   -6.8624   -7.2648 C   0  0  0  0  0  0  0  0  0  0  0  0
   12.7899   -7.0000   -6.5834 O   0  0  0  0  0  0  0  0  0  0  0  0
   14.0220   -7.4893   -8.6079 C   0  0  0  0  0  0  0  0  0  0  0  0
   15.4013   -7.1929   -9.0811 C   0  0  0  0  0  0  0  0  0  0  0  0
   15.6876   -7.6973  -10.4792 C   0  0  2  0  0  0  0  0  0  0  0  0
   16.2240   -9.0292  -10.4813 N   0  0  0  0  0  0  0  0  0  0  0  0
   16.5031   -6.7191  -11.2431 C   0  0  0  0  0  0  0  0  0  0  0  0
   17.6720   -6.5199  -10.8228 O   0  0  0  0  0  0  0  0  0  0  0  0
   16.0797   -6.0127  -12.3761 N   0  0  0  0  0  0  0  0  0  0  0  0
   16.9205   -5.0744  -13.1083 C   0  0  1  0  0  0  0  0  0  0  0  0
   16.6235   -5.0810  -14.5685 C   0  0  0  0  0  0  0  0  0  0  0  0
   17.4736   -6.0732  -15.2550 C   0  0  0  0  0  0  0  0  0  0  0  0
   18.3499   -6.7122  -14.6224 O   0  0  0  0  0  0  0  0  0  0  0  0
   16.7479   -3.7250  -12.5335 C   0  0  0  0  0  0  0  0  0  0  0  0
   17.5087   -2.7941  -12.9315 O   0  0  0  0  0  0  0  0  0  0  0  0
   17.3574   -6.3531  -16.6134 O   0  0  0  0  0  0  0  0  0  0  0  0
   15.8155   -3.3704  -11.5831 O   0  0  0  0  0  0  0  0  0  0  0  0
  2  1  1  6
  3  2  1  0
  4  3  1  0
  5  2  1  0
  5  6  2  0
  7  8  1  0
  8 10  1  0
  8  9  2  0
 10 11  1  0
 12 11  1  1
 12 13  1  0
 13  5  1  0
 14 12  1  0
 15 14  2  0
 16 14  1  0
 17 16  1  0
 17 21  1  0
 17 18  1  6
 19 23  1  0
 19 18  1  0
 20 19  2  0
 21 24  1  0
 22 21  2  0
M  END
$$$$
