CQD.pdb
     RDKit          3D

 24 23  0  0  1  0  0  0  0  0999 V2000
   14.0085  -12.4481  -11.6275 N   0  0  0  0  0  0  0  0  0  0  0  0
   15.2506  -11.9975  -11.0572 C   0  0  1  0  0  0  0  0  0  0  0  0
   16.3954  -12.8358  -11.5793 C   0  0  0  0  0  0  0  0  0  0  0  0
   16.2372  -14.5269  -10.9421 S   0  0  0  0  0  0  0  0  0  0  0  0
   15.4883  -10.5563  -11.1901 C   0  0  0  0  0  0  0  0  0  0  0  0
   15.1241  -10.0064  -12.2749 O   0  0  0  0  0  0  0  0  0  0  0  0
   15.3057   -5.6192   -7.4013 N   0  0  0  0  0  0  0  0  0  0  0  0
   14.2521   -6.3972   -7.9479 C   0  0  0  0  0  0  0  0  0  0  0  0
   13.0958   -6.1882   -7.4510 O   0  0  0  0  0  0  0  0  0  0  0  0
   14.4724   -7.3963   -9.0327 C   0  0  0  0  0  0  0  0  0  0  0  0
   15.9356   -7.4625   -9.2956 C   0  0  0  0  0  0  0  0  0  0  0  0
   16.3032   -8.3290  -10.4809 C   0  0  2  0  0  0  0  0  0  0  0  0
   16.0821   -9.7250  -10.2278 N   0  0  0  0  0  0  0  0  0  0  0  0
   17.6706   -8.0152  -10.9680 C   0  0  0  0  0  0  0  0  0  0  0  0
   18.6212   -8.3616  -10.2204 O   0  0  0  0  0  0  0  0  0  0  0  0
   17.9795   -7.3741  -12.1745 N   0  0  0  0  0  0  0  0  0  0  0  0
   19.3389   -7.1068  -12.6264 C   0  0  1  0  0  0  0  0  0  0  0  0
   19.8947   -8.2371  -13.4226 C   0  0  0  0  0  0  0  0  0  0  0  0
   21.2660   -7.9193  -13.8664 C   0  0  0  0  0  0  0  0  0  0  0  0
   21.8418   -6.8766  -13.4694 O   0  0  0  0  0  0  0  0  0  0  0  0
   19.3489   -5.8503  -13.4022 C   0  0  0  0  0  0  0  0  0  0  0  0
   20.4603   -5.3910  -13.7990 O   0  0  0  0  0  0  0  0  0  0  0  0
   21.9862   -8.7378  -14.7316 O   0  0  0  0  0  0  0  0  0  0  0  0
   18.2387   -5.1104  -13.7466 O   0  0  0  0  0  0  0  0  0  0  0  0
  2  1  1  6
  3  2  1  0
  4  3  1  0
  5  2  1  0
  5  6  2  0
  7  8  1  0
  8 10  1  0
  8  9  2  0
 10 11  1  0
 12 11  1  1
 12 13  1  0
 13  5  1  0
 14 12  1  0
 15 14  2  0
 16 14  1  0
 17 16  1  0
 17 21  1  0
 17 18  1  6
 19 23  1  0
 19 18  1  0
 20 19  2  0
 21 24  1  0
 22 21  2  0
M  END
$$$$
