CQD.pdb
     RDKit          3D

 24 23  0  0  1  0  0  0  0  0999 V2000
   28.3790   -1.7561   -7.2570 N   0  0  0  0  0  0  0  0  0  0  0  0
   28.9567   -0.5167   -6.8082 C   0  0  1  0  0  0  0  0  0  0  0  0
   30.3468   -0.3552   -7.3801 C   0  0  0  0  0  0  0  0  0  0  0  0
   31.2355   -1.9309   -7.2452 S   0  0  0  0  0  0  0  0  0  0  0  0
   28.1072    0.6590   -7.0257 C   0  0  0  0  0  0  0  0  0  0  0  0
   28.1390    1.5688   -6.1408 O   0  0  0  0  0  0  0  0  0  0  0  0
   25.7970    2.9705  -12.3506 N   0  0  0  0  0  0  0  0  0  0  0  0
   25.4514    3.9647  -11.3987 C   0  0  0  0  0  0  0  0  0  0  0  0
   24.9710    5.0451  -11.8778 O   0  0  0  0  0  0  0  0  0  0  0  0
   25.6342    3.7685   -9.9319 C   0  0  0  0  0  0  0  0  0  0  0  0
   26.2627    2.4350   -9.7292 C   0  0  0  0  0  0  0  0  0  0  0  0
   26.5340    2.1032   -8.2776 C   0  0  2  0  0  0  0  0  0  0  0  0
   27.2596    0.8738   -8.1235 N   0  0  0  0  0  0  0  0  0  0  0  0
   25.2880    2.1713   -7.4724 C   0  0  0  0  0  0  0  0  0  0  0  0
   24.6135    1.1119   -7.3996 O   0  0  0  0  0  0  0  0  0  0  0  0
   24.8128    3.3039   -6.7991 N   0  0  0  0  0  0  0  0  0  0  0  0
   23.6162    3.3110   -5.9676 C   0  0  1  0  0  0  0  0  0  0  0  0
   23.9079    2.8970   -4.5662 C   0  0  0  0  0  0  0  0  0  0  0  0
   22.6700    2.9176   -3.7627 C   0  0  0  0  0  0  0  0  0  0  0  0
   21.5482    2.7909   -4.3120 O   0  0  0  0  0  0  0  0  0  0  0  0
   23.0079    4.6560   -6.0124 C   0  0  0  0  0  0  0  0  0  0  0  0
   21.8536    4.7834   -6.5175 O   0  0  0  0  0  0  0  0  0  0  0  0
   22.6724    3.0752   -2.3798 O   0  0  0  0  0  0  0  0  0  0  0  0
   23.5877    5.8153   -5.5453 O   0  0  0  0  0  0  0  0  0  0  0  0
  2  1  1  6
  3  2  1  0
  4  3  1  0
  5  2  1  0
  5  6  2  0
  7  8  1  0
  8 10  1  0
  8  9  2  0
 10 11  1  0
 12 11  1  6
 12 13  1  0
 13  5  1  0
 14 12  1  0
 15 14  2  0
 16 14  1  0
 17 16  1  0
 17 21  1  0
 17 18  1  1
 19 23  1  0
 19 18  1  0
 20 19  2  0
 21 24  1  0
 22 21  2  0
M  END
$$$$
