CQD.pdb
     RDKit          3D

 24 23  0  0  1  0  0  0  0  0999 V2000
   25.6800  -15.1439  -15.5540 N   0  0  0  0  0  0  0  0  0  0  0  0
   25.1077  -14.2631  -16.5378 C   0  0  1  0  0  0  0  0  0  0  0  0
   23.7652  -14.7919  -16.9892 C   0  0  0  0  0  0  0  0  0  0  0  0
   24.0103  -16.3322  -17.9158 S   0  0  0  0  0  0  0  0  0  0  0  0
   25.0622  -12.8542  -16.1329 C   0  0  0  0  0  0  0  0  0  0  0  0
   24.7007  -12.6049  -14.9417 O   0  0  0  0  0  0  0  0  0  0  0  0
   30.1771   -9.3630  -17.4882 N   0  0  0  0  0  0  0  0  0  0  0  0
   28.7733   -9.1555  -17.4986 C   0  0  0  0  0  0  0  0  0  0  0  0
   28.3772   -8.0851  -18.0687 O   0  0  0  0  0  0  0  0  0  0  0  0
   27.8155  -10.1203  -16.8859 C   0  0  0  0  0  0  0  0  0  0  0  0
   26.4490   -9.5465  -17.0190 C   0  0  0  0  0  0  0  0  0  0  0  0
   25.3627  -10.4139  -16.4202 C   0  0  2  0  0  0  0  0  0  0  0  0
   25.3815  -11.7519  -16.9408 N   0  0  0  0  0  0  0  0  0  0  0  0
   24.0373   -9.7505  -16.5140 C   0  0  0  0  0  0  0  0  0  0  0  0
   23.4576   -9.8196  -17.6283 O   0  0  0  0  0  0  0  0  0  0  0  0
   23.3931   -9.0651  -15.4761 N   0  0  0  0  0  0  0  0  0  0  0  0
   22.0824   -8.4417  -15.6064 C   0  0  1  0  0  0  0  0  0  0  0  0
   21.1839   -8.7883  -14.4693 C   0  0  0  0  0  0  0  0  0  0  0  0
   19.8901   -8.0930  -14.6143 C   0  0  0  0  0  0  0  0  0  0  0  0
   19.8093   -7.0194  -15.2602 O   0  0  0  0  0  0  0  0  0  0  0  0
   22.2554   -6.9798  -15.7251 C   0  0  0  0  0  0  0  0  0  0  0  0
   23.3739   -6.4740  -15.4141 O   0  0  0  0  0  0  0  0  0  0  0  0
   18.7095   -8.5749  -14.0566 O   0  0  0  0  0  0  0  0  0  0  0  0
   21.2947   -6.0898  -16.1534 O   0  0  0  0  0  0  0  0  0  0  0  0
  2  1  1  1
  3  2  1  0
  4  3  1  0
  5  2  1  0
  5  6  2  0
  7  8  1  0
  8 10  1  0
  8  9  2  0
 10 11  1  0
 12 11  1  6
 12 13  1  0
 13  5  1  0
 14 12  1  0
 15 14  2  0
 16 14  1  0
 17 16  1  0
 17 21  1  0
 17 18  1  1
 19 23  1  0
 19 18  1  0
 20 19  2  0
 21 24  1  0
 22 21  2  0
M  END
$$$$
