CQD.pdb
     RDKit          3D

 24 23  0  0  1  0  0  0  0  0999 V2000
   25.0218  -12.9970  -18.1467 N   0  0  0  0  0  0  0  0  0  0  0  0
   24.4930  -12.5517  -16.8845 C   0  0  1  0  0  0  0  0  0  0  0  0
   25.6227  -12.1845  -15.9493 C   0  0  0  0  0  0  0  0  0  0  0  0
   26.5610  -13.6792  -15.5294 S   0  0  0  0  0  0  0  0  0  0  0  0
   23.4746  -11.5019  -16.9932 C   0  0  0  0  0  0  0  0  0  0  0  0
   23.7297  -10.5244  -17.7621 O   0  0  0  0  0  0  0  0  0  0  0  0
   17.3538  -11.9100  -16.9158 N   0  0  0  0  0  0  0  0  0  0  0  0
   17.5502  -10.5228  -17.1415 C   0  0  0  0  0  0  0  0  0  0  0  0
   16.5061   -9.8612  -17.4572 O   0  0  0  0  0  0  0  0  0  0  0  0
   18.8862   -9.8718  -17.0199 C   0  0  0  0  0  0  0  0  0  0  0  0
   19.8851  -10.9388  -16.7408 C   0  0  0  0  0  0  0  0  0  0  0  0
   21.2935  -10.4196  -16.5466 C   0  0  2  0  0  0  0  0  0  0  0  0
   22.2405  -11.4760  -16.3253 N   0  0  0  0  0  0  0  0  0  0  0  0
   21.3314   -9.3519  -15.5152 C   0  0  0  0  0  0  0  0  0  0  0  0
   21.3646   -9.7355  -14.3175 O   0  0  0  0  0  0  0  0  0  0  0  0
   21.3329   -7.9740  -15.7673 N   0  0  0  0  0  0  0  0  0  0  0  0
   21.4812   -6.9598  -14.7315 C   0  0  1  0  0  0  0  0  0  0  0  0
   22.3973   -5.8624  -15.1521 C   0  0  0  0  0  0  0  0  0  0  0  0
   22.5011   -4.8501  -14.0830 C   0  0  0  0  0  0  0  0  0  0  0  0
   22.7042   -5.1946  -12.8928 O   0  0  0  0  0  0  0  0  0  0  0  0
   20.1466   -6.4363  -14.3771 C   0  0  0  0  0  0  0  0  0  0  0  0
   19.2371   -6.4471  -15.2583 O   0  0  0  0  0  0  0  0  0  0  0  0
   22.3826   -3.4846  -14.3248 O   0  0  0  0  0  0  0  0  0  0  0  0
   19.7844   -5.9254  -13.1499 O   0  0  0  0  0  0  0  0  0  0  0  0
  2  1  1  6
  3  2  1  0
  4  3  1  0
  5  2  1  0
  5  6  2  0
  7  8  1  0
  8 10  1  0
  8  9  2  0
 10 11  1  0
 12 11  1  1
 12 13  1  0
 13  5  1  0
 14 12  1  0
 15 14  2  0
 16 14  1  0
 17 16  1  0
 17 21  1  0
 17 18  1  6
 19 23  1  0
 19 18  1  0
 20 19  2  0
 21 24  1  0
 22 21  2  0
M  END
$$$$
