CQD.pdb
     RDKit          3D

 24 23  0  0  1  0  0  0  0  0999 V2000
   16.9185  -13.0670  -16.6405 N   0  0  0  0  0  0  0  0  0  0  0  0
   18.0234  -12.4986  -15.9144 C   0  0  1  0  0  0  0  0  0  0  0  0
   19.3181  -12.7632  -16.6490 C   0  0  0  0  0  0  0  0  0  0  0  0
   19.8290  -14.4798  -16.3605 S   0  0  0  0  0  0  0  0  0  0  0  0
   17.8469  -11.0879  -15.5538 C   0  0  0  0  0  0  0  0  0  0  0  0
   17.4535  -10.3006  -16.4688 O   0  0  0  0  0  0  0  0  0  0  0  0
   15.5596   -8.1709  -10.6577 N   0  0  0  0  0  0  0  0  0  0  0  0
   16.7889   -8.8447  -10.4365 C   0  0  0  0  0  0  0  0  0  0  0  0
   17.0813   -9.0743   -9.2161 O   0  0  0  0  0  0  0  0  0  0  0  0
   17.6868   -9.2615  -11.5516 C   0  0  0  0  0  0  0  0  0  0  0  0
   17.0456   -8.8444  -12.8280 C   0  0  0  0  0  0  0  0  0  0  0  0
   17.8908   -9.1196  -14.0531 C   0  0  2  0  0  0  0  0  0  0  0  0
   18.0725  -10.5245  -14.2883 N   0  0  0  0  0  0  0  0  0  0  0  0
   19.1589   -8.3478  -14.0113 C   0  0  0  0  0  0  0  0  0  0  0  0
   20.2193   -9.0112  -14.1457 O   0  0  0  0  0  0  0  0  0  0  0  0
   19.2648   -6.9620  -13.8368 N   0  0  0  0  0  0  0  0  0  0  0  0
   20.5201   -6.2270  -13.9230 C   0  0  1  0  0  0  0  0  0  0  0  0
   21.2142   -6.4582  -15.2212 C   0  0  0  0  0  0  0  0  0  0  0  0
   22.5059   -5.7443  -15.2403 C   0  0  0  0  0  0  0  0  0  0  0  0
   23.0675   -5.4084  -14.1688 O   0  0  0  0  0  0  0  0  0  0  0  0
   20.2516   -4.7908  -13.7083 C   0  0  0  0  0  0  0  0  0  0  0  0
   21.1570   -4.0756  -13.1863 O   0  0  0  0  0  0  0  0  0  0  0  0
   23.1634   -5.4086  -16.4202 O   0  0  0  0  0  0  0  0  0  0  0  0
   19.0829   -4.1356  -14.0299 O   0  0  0  0  0  0  0  0  0  0  0  0
  2  1  1  6
  3  2  1  0
  4  3  1  0
  5  2  1  0
  5  6  2  0
  7  8  1  0
  8 10  1  0
  8  9  2  0
 10 11  1  0
 12 11  1  1
 12 13  1  0
 13  5  1  0
 14 12  1  0
 15 14  2  0
 16 14  1  0
 17 16  1  0
 17 21  1  0
 17 18  1  6
 19 23  1  0
 19 18  1  0
 20 19  2  0
 21 24  1  0
 22 21  2  0
M  END
$$$$
