CQD.pdb
     RDKit          3D

 24 23  0  0  1  0  0  0  0  0999 V2000
   19.6953  -13.3666  -15.3753 N   0  0  0  0  0  0  0  0  0  0  0  0
   19.6195  -12.0672  -15.9895 C   0  0  1  0  0  0  0  0  0  0  0  0
   18.1838  -11.5952  -16.0296 C   0  0  0  0  0  0  0  0  0  0  0  0
   17.1641  -12.8517  -16.8495 S   0  0  0  0  0  0  0  0  0  0  0  0
   20.5337  -11.0741  -15.4157 C   0  0  0  0  0  0  0  0  0  0  0  0
   20.4144  -10.8242  -14.1767 O   0  0  0  0  0  0  0  0  0  0  0  0
   26.4352  -10.0220  -16.4731 N   0  0  0  0  0  0  0  0  0  0  0  0
   25.8482  -10.9456  -15.5696 C   0  0  0  0  0  0  0  0  0  0  0  0
   26.6222  -11.8628  -15.1367 O   0  0  0  0  0  0  0  0  0  0  0  0
   24.4208  -10.8579  -15.1476 C   0  0  0  0  0  0  0  0  0  0  0  0
   23.8425   -9.6322  -15.7621 C   0  0  0  0  0  0  0  0  0  0  0  0
   22.3779   -9.4230  -15.4425 C   0  0  2  0  0  0  0  0  0  0  0  0
   21.5312  -10.3718  -16.1095 N   0  0  0  0  0  0  0  0  0  0  0  0
   21.9814   -8.0080  -15.6570 C   0  0  0  0  0  0  0  0  0  0  0  0
   21.5745   -7.7124  -16.8102 O   0  0  0  0  0  0  0  0  0  0  0  0
   22.0246   -6.9936  -14.6921 N   0  0  0  0  0  0  0  0  0  0  0  0
   21.5270   -5.6419  -14.9130 C   0  0  1  0  0  0  0  0  0  0  0  0
   20.0433   -5.6083  -15.0468 C   0  0  0  0  0  0  0  0  0  0  0  0
   19.5875   -4.2273  -15.2988 C   0  0  0  0  0  0  0  0  0  0  0  0
   19.0537   -3.5526  -14.3844 O   0  0  0  0  0  0  0  0  0  0  0  0
   21.9842   -4.7751  -13.8082 C   0  0  0  0  0  0  0  0  0  0  0  0
   22.3714   -5.3180  -12.7315 O   0  0  0  0  0  0  0  0  0  0  0  0
   19.7193   -3.6048  -16.5366 O   0  0  0  0  0  0  0  0  0  0  0  0
   22.0332   -3.3985  -13.8353 O   0  0  0  0  0  0  0  0  0  0  0  0
  2  1  1  1
  3  2  1  0
  4  3  1  0
  5  2  1  0
  5  6  2  0
  7  8  1  0
  8 10  1  0
  8  9  2  0
 10 11  1  0
 12 11  1  6
 12 13  1  0
 13  5  1  0
 14 12  1  0
 15 14  2  0
 16 14  1  0
 17 16  1  0
 17 21  1  0
 17 18  1  1
 19 23  1  0
 19 18  1  0
 20 19  2  0
 21 24  1  0
 22 21  2  0
M  END
$$$$
