YFH.pdb
     RDKit          3D

 34 36  0  0  1  0  0  0  0  0999 V2000
   28.3986  -17.1290  -18.1186 O   0  0  0  0  0  0  0  0  0  0  0  0
   27.9193  -17.6759  -16.9341 C   0  0  0  0  0  0  0  0  0  0  0  0
   28.4253  -17.2975  -15.7149 C   0  0  0  0  0  0  0  0  0  0  0  0
   27.9642  -17.8272  -14.5329 C   0  0  0  0  0  0  0  0  0  0  0  0
   26.9541  -18.7739  -14.5929 C   0  0  0  0  0  0  0  0  0  0  0  0
   26.4158  -19.3823  -13.3395 C   0  0  0  0  0  0  0  0  0  0  0  0
   27.3048  -20.5514  -12.9729 C   0  0  2  0  0  0  0  0  0  0  0  0
   27.0955  -21.6492  -13.8636 N   0  0  0  0  0  0  0  0  0  0  0  0
   27.0241  -20.9307  -11.5456 C   0  0  0  0  0  0  0  0  0  0  0  0
   26.1481  -21.7932  -11.2830 O   0  0  0  0  0  0  0  0  0  0  0  0
   26.4217  -19.1785  -15.7963 C   0  0  0  0  0  0  0  0  0  0  0  0
   26.9216  -18.6131  -16.9684 C   0  0  0  0  0  0  0  0  0  0  0  0
   27.7163  -20.3478  -10.4665 N   0  0  0  0  0  0  0  0  0  0  0  0
   27.4002  -20.6439   -9.0614 C   0  0  1  0  0  0  0  0  0  0  0  0
   28.5651  -20.2410   -8.1830 C   0  0  0  0  0  0  0  0  0  0  0  0
   28.2380  -20.1523   -6.7573 C   0  0  0  0  0  0  0  0  0  0  0  0
   28.2668  -21.2818   -5.9683 C   0  0  0  0  0  0  0  0  0  0  0  0
   27.9613  -21.2384   -4.6133 C   0  0  0  0  0  0  0  0  0  0  0  0
   27.6153  -20.0512   -4.0060 C   0  0  0  0  0  0  0  0  0  0  0  0
   27.5837  -18.9165   -4.7867 C   0  0  0  0  0  0  0  0  0  0  0  0
   27.8912  -18.9768   -6.1372 C   0  0  0  0  0  0  0  0  0  0  0  0
   26.1242  -20.0465   -8.6631 C   0  0  0  0  0  0  0  0  0  0  0  0
   25.9269  -18.8118   -8.8646 O   0  0  0  0  0  0  0  0  0  0  0  0
   25.0576  -20.7477   -8.0572 N   0  0  0  0  0  0  0  0  0  0  0  0
   23.6813  -20.4943   -8.4247 C   0  0  1  0  0  0  0  0  0  0  0  0
   23.4206  -20.9317   -9.8634 C   0  0  0  0  0  0  0  0  0  0  0  0
   21.9807  -20.6743  -10.1337 C   0  0  0  0  0  0  0  0  0  0  0  0
   21.0825  -20.1312   -9.2338 C   0  0  0  0  0  0  0  0  0  0  0  0
   19.8790  -20.0487   -9.8308 N   0  0  0  0  0  0  0  0  0  0  0  0
   19.9918  -20.5216  -11.0746 C   0  0  0  0  0  0  0  0  0  0  0  0
   21.2670  -20.8982  -11.2500 N   0  0  0  0  0  0  0  0  0  0  0  0
   22.8117  -21.2078   -7.4804 C   0  0  0  0  0  0  0  0  0  0  0  0
   23.2919  -22.1309   -6.7860 O   0  0  0  0  0  0  0  0  0  0  0  0
   21.4828  -20.8881   -7.3377 O   0  0  0  0  0  0  0  0  0  0  0  0
  2  1  1  0
  3  2  2  0
  4  3  1  0
  5  4  2  0
  5 11  1  0
  6  5  1  0
  7  6  1  0
  7  8  1  6
  9  7  1  0
  9 10  2  0
 11 12  2  0
 12  2  1  0
 13  9  1  0
 14 13  1  0
 14 15  1  1
 16 15  1  0
 16 17  2  0
 17 18  1  0
 19 18  2  0
 20 19  1  0
 21 20  2  0
 21 16  1  0
 22 14  1  0
 23 22  2  0
 24 22  1  0
 25 26  1  6
 25 24  1  0
 26 27  1  0
 27 28  2  0
 28 29  1  0
 30 29  1  0
 31 27  1  0
 31 30  2  0
 32 34  1  0
 32 25  1  0
 33 32  2  0
M  END
$$$$
