YFH.pdb
     RDKit          3D

 34 36  0  0  1  0  0  0  0  0999 V2000
   17.3300  -24.0796  -10.0987 O   0  0  0  0  0  0  0  0  0  0  0  0
   18.4209  -23.7326  -10.8871 C   0  0  0  0  0  0  0  0  0  0  0  0
   18.8019  -24.5008  -11.9596 C   0  0  0  0  0  0  0  0  0  0  0  0
   19.8777  -24.1738  -12.7508 C   0  0  0  0  0  0  0  0  0  0  0  0
   20.5902  -23.0266  -12.4406 C   0  0  0  0  0  0  0  0  0  0  0  0
   21.7679  -22.6242  -13.2666 C   0  0  0  0  0  0  0  0  0  0  0  0
   21.4661  -21.2716  -13.8759 C   0  0  2  0  0  0  0  0  0  0  0  0
   20.2507  -21.3111  -14.6266 N   0  0  0  0  0  0  0  0  0  0  0  0
   22.6351  -20.8651  -14.7292 C   0  0  0  0  0  0  0  0  0  0  0  0
   22.6337  -21.1153  -15.9611 O   0  0  0  0  0  0  0  0  0  0  0  0
   20.2387  -22.2312  -11.3733 C   0  0  0  0  0  0  0  0  0  0  0  0
   19.1401  -22.6035  -10.5999 C   0  0  0  0  0  0  0  0  0  0  0  0
   23.7563  -20.2011  -14.1950 N   0  0  0  0  0  0  0  0  0  0  0  0
   24.9443  -19.8693  -14.9952 C   0  0  1  0  0  0  0  0  0  0  0  0
   25.7506  -18.8010  -14.2884 C   0  0  0  0  0  0  0  0  0  0  0  0
   26.9793  -18.4163  -14.9884 C   0  0  0  0  0  0  0  0  0  0  0  0
   26.9641  -17.3787  -15.8952 C   0  0  0  0  0  0  0  0  0  0  0  0
   28.1078  -16.9857  -16.5798 C   0  0  0  0  0  0  0  0  0  0  0  0
   29.3092  -17.6274  -16.3728 C   0  0  0  0  0  0  0  0  0  0  0  0
   29.3343  -18.6660  -15.4680 C   0  0  0  0  0  0  0  0  0  0  0  0
   28.1843  -19.0459  -14.7931 C   0  0  0  0  0  0  0  0  0  0  0  0
   25.7152  -21.0682  -15.3301 C   0  0  0  0  0  0  0  0  0  0  0  0
   25.7668  -22.0248  -14.5017 O   0  0  0  0  0  0  0  0  0  0  0  0
   26.4272  -21.2609  -16.5353 N   0  0  0  0  0  0  0  0  0  0  0  0
   27.0971  -22.5099  -16.8258 C   0  0  1  0  0  0  0  0  0  0  0  0
   26.1770  -23.6926  -16.5360 C   0  0  0  0  0  0  0  0  0  0  0  0
   26.9338  -24.9210  -16.8974 C   0  0  0  0  0  0  0  0  0  0  0  0
   27.5678  -25.7624  -16.0020 C   0  0  0  0  0  0  0  0  0  0  0  0
   28.1440  -26.7634  -16.6933 N   0  0  0  0  0  0  0  0  0  0  0  0
   27.8931  -26.5783  -17.9918 C   0  0  0  0  0  0  0  0  0  0  0  0
   27.1600  -25.4611  -18.1069 N   0  0  0  0  0  0  0  0  0  0  0  0
   27.5211  -22.4912  -18.2319 C   0  0  0  0  0  0  0  0  0  0  0  0
   28.0866  -23.4983  -18.7123 O   0  0  0  0  0  0  0  0  0  0  0  0
   27.3123  -21.3965  -19.0358 O   0  0  0  0  0  0  0  0  0  0  0  0
  2  1  1  0
  3  2  2  0
  4  3  1  0
  5  4  2  0
  5 11  1  0
  6  5  1  0
  7  6  1  0
  7  8  1  6
  9  7  1  0
  9 10  2  0
 11 12  2  0
 12  2  1  0
 13  9  1  0
 14 13  1  0
 14 15  1  1
 16 15  1  0
 16 17  2  0
 17 18  1  0
 19 18  2  0
 20 19  1  0
 21 20  2  0
 21 16  1  0
 22 14  1  0
 23 22  2  0
 24 22  1  0
 25 26  1  6
 25 24  1  0
 26 27  1  0
 27 28  2  0
 28 29  1  0
 30 29  1  0
 31 27  1  0
 31 30  2  0
 32 34  1  0
 32 25  1  0
 33 32  2  0
M  END
$$$$
