YFH.pdb
     RDKit          3D

 34 36  0  0  1  0  0  0  0  0999 V2000
   19.8566   -9.4763  -23.1250 O   0  0  0  0  0  0  0  0  0  0  0  0
   20.7659  -10.5203  -23.0027 C   0  0  0  0  0  0  0  0  0  0  0  0
   20.9455  -11.4347  -24.0113 C   0  0  0  0  0  0  0  0  0  0  0  0
   21.8400  -12.4738  -23.9087 C   0  0  0  0  0  0  0  0  0  0  0  0
   22.5768  -12.5868  -22.7406 C   0  0  0  0  0  0  0  0  0  0  0  0
   23.5626  -13.6967  -22.5757 C   0  0  0  0  0  0  0  0  0  0  0  0
   24.9512  -13.0991  -22.6578 C   0  0  2  0  0  0  0  0  0  0  0  0
   25.1986  -12.5630  -23.9592 N   0  0  0  0  0  0  0  0  0  0  0  0
   25.9476  -14.1648  -22.2954 C   0  0  0  0  0  0  0  0  0  0  0  0
   26.3501  -14.9747  -23.1685 O   0  0  0  0  0  0  0  0  0  0  0  0
   22.4244  -11.6896  -21.7076 C   0  0  0  0  0  0  0  0  0  0  0  0
   21.5052  -10.6523  -21.8578 C   0  0  0  0  0  0  0  0  0  0  0  0
   26.4605  -14.2970  -20.9905 N   0  0  0  0  0  0  0  0  0  0  0  0
   27.4161  -15.3480  -20.6106 C   0  0  1  0  0  0  0  0  0  0  0  0
   28.2934  -14.8524  -19.4811 C   0  0  0  0  0  0  0  0  0  0  0  0
   29.2687  -15.8367  -19.0038 C   0  0  0  0  0  0  0  0  0  0  0  0
   30.5059  -15.9329  -19.6031 C   0  0  0  0  0  0  0  0  0  0  0  0
   31.4564  -16.8543  -19.1802 C   0  0  0  0  0  0  0  0  0  0  0  0
   31.1908  -17.7125  -18.1357 C   0  0  0  0  0  0  0  0  0  0  0  0
   29.9565  -17.6239  -17.5303 C   0  0  0  0  0  0  0  0  0  0  0  0
   29.0192  -16.6990  -17.9642 C   0  0  0  0  0  0  0  0  0  0  0  0
   26.7345  -16.6108  -20.3203 C   0  0  0  0  0  0  0  0  0  0  0  0
   25.7172  -16.6082  -19.5659 O   0  0  0  0  0  0  0  0  0  0  0  0
   27.1208  -17.8726  -20.8254 N   0  0  0  0  0  0  0  0  0  0  0  0
   26.4367  -19.0854  -20.4328 C   0  0  1  0  0  0  0  0  0  0  0  0
   26.9082  -20.2654  -21.2781 C   0  0  0  0  0  0  0  0  0  0  0  0
   26.0856  -21.4367  -20.8730 C   0  0  0  0  0  0  0  0  0  0  0  0
   25.7401  -21.7605  -19.5740 C   0  0  0  0  0  0  0  0  0  0  0  0
   24.9941  -22.8807  -19.5987 N   0  0  0  0  0  0  0  0  0  0  0  0
   24.8601  -23.2704  -20.8689 C   0  0  0  0  0  0  0  0  0  0  0  0
   25.5236  -22.3910  -21.6340 N   0  0  0  0  0  0  0  0  0  0  0  0
   26.6859  -19.3150  -19.0037 C   0  0  0  0  0  0  0  0  0  0  0  0
   25.7138  -19.4685  -18.2315 O   0  0  0  0  0  0  0  0  0  0  0  0
   27.9597  -19.3670  -18.4908 O   0  0  0  0  0  0  0  0  0  0  0  0
  2  1  1  0
  3  2  2  0
  4  3  1  0
  5  4  2  0
  5 11  1  0
  6  5  1  0
  7  6  1  0
  7  8  1  6
  9  7  1  0
  9 10  2  0
 11 12  2  0
 12  2  1  0
 13  9  1  0
 14 13  1  0
 14 15  1  1
 16 15  1  0
 16 17  2  0
 17 18  1  0
 19 18  2  0
 20 19  1  0
 21 20  2  0
 21 16  1  0
 22 14  1  0
 23 22  2  0
 24 22  1  0
 25 26  1  6
 25 24  1  0
 26 27  1  0
 27 28  2  0
 28 29  1  0
 30 29  1  0
 31 27  1  0
 31 30  2  0
 32 34  1  0
 32 25  1  0
 33 32  2  0
M  END
$$$$
