YFH.pdb
     RDKit          3D

 34 36  0  0  1  0  0  0  0  0999 V2000
   18.6143  -20.5291  -11.2902 O   0  0  0  0  0  0  0  0  0  0  0  0
   19.9732  -20.3353  -11.5081 C   0  0  0  0  0  0  0  0  0  0  0  0
   20.6891  -21.1597  -12.3409 C   0  0  0  0  0  0  0  0  0  0  0  0
   22.0335  -20.9838  -12.5688 C   0  0  0  0  0  0  0  0  0  0  0  0
   22.6715  -19.9339  -11.9280 C   0  0  0  0  0  0  0  0  0  0  0  0
   24.1310  -19.6969  -12.1394 C   0  0  0  0  0  0  0  0  0  0  0  0
   24.8858  -20.8216  -11.4634 C   0  0  2  0  0  0  0  0  0  0  0  0
   23.9886  -21.6957  -10.7755 N   0  0  0  0  0  0  0  0  0  0  0  0
   25.9000  -20.2186  -10.5319 C   0  0  0  0  0  0  0  0  0  0  0  0
   26.6618  -19.3039  -10.9358 O   0  0  0  0  0  0  0  0  0  0  0  0
   21.9874  -19.0864  -11.0859 C   0  0  0  0  0  0  0  0  0  0  0  0
   20.6251  -19.3045  -10.8859 C   0  0  0  0  0  0  0  0  0  0  0  0
   26.0356  -20.6445   -9.1964 N   0  0  0  0  0  0  0  0  0  0  0  0
   27.1226  -20.1866   -8.3185 C   0  0  1  0  0  0  0  0  0  0  0  0
   26.5388  -19.5965   -7.0528 C   0  0  0  0  0  0  0  0  0  0  0  0
   27.5403  -19.1989   -6.0596 C   0  0  0  0  0  0  0  0  0  0  0  0
   27.6792  -19.9153   -4.8906 C   0  0  0  0  0  0  0  0  0  0  0  0
   28.6158  -19.5685   -3.9243 C   0  0  0  0  0  0  0  0  0  0  0  0
   29.4467  -18.4845   -4.1044 C   0  0  0  0  0  0  0  0  0  0  0  0
   29.3153  -17.7620   -5.2701 C   0  0  0  0  0  0  0  0  0  0  0  0
   28.3757  -18.1211   -6.2243 C   0  0  0  0  0  0  0  0  0  0  0  0
   28.1006  -21.2497   -8.0795 C   0  0  0  0  0  0  0  0  0  0  0  0
   27.7101  -22.3581   -7.6075 O   0  0  0  0  0  0  0  0  0  0  0  0
   29.4856  -21.1473   -8.3399 N   0  0  0  0  0  0  0  0  0  0  0  0
   30.3931  -22.2337   -8.0408 C   0  0  1  0  0  0  0  0  0  0  0  0
   31.7555  -21.9874   -8.6830 C   0  0  0  0  0  0  0  0  0  0  0  0
   32.6259  -23.1272   -8.2884 C   0  0  0  0  0  0  0  0  0  0  0  0
   32.2591  -24.4599   -8.3135 C   0  0  0  0  0  0  0  0  0  0  0  0
   33.3027  -25.1968   -7.8896 N   0  0  0  0  0  0  0  0  0  0  0  0
   34.3117  -24.3715   -7.5995 C   0  0  0  0  0  0  0  0  0  0  0  0
   33.8940  -23.1205   -7.8436 N   0  0  0  0  0  0  0  0  0  0  0  0
   30.5017  -22.3571   -6.5813 C   0  0  0  0  0  0  0  0  0  0  0  0
   30.5763  -21.3206   -5.8849 O   0  0  0  0  0  0  0  0  0  0  0  0
   30.5226  -23.5819   -5.9585 O   0  0  0  0  0  0  0  0  0  0  0  0
  2  1  1  0
  3  2  2  0
  4  3  1  0
  5  4  2  0
  5 11  1  0
  6  5  1  0
  7  6  1  0
  7  8  1  1
  9  7  1  0
  9 10  2  0
 11 12  2  0
 12  2  1  0
 13  9  1  0
 14 13  1  0
 14 15  1  1
 16 15  1  0
 16 17  2  0
 17 18  1  0
 19 18  2  0
 20 19  1  0
 21 20  2  0
 21 16  1  0
 22 14  1  0
 23 22  2  0
 24 22  1  0
 25 26  1  6
 25 24  1  0
 26 27  1  0
 27 28  2  0
 28 29  1  0
 30 29  1  0
 31 27  1  0
 31 30  2  0
 32 34  1  0
 32 25  1  0
 33 32  2  0
M  END
$$$$
