YFH.pdb
     RDKit          3D

 34 36  0  0  1  0  0  0  0  0999 V2000
   22.6327   -7.4692  -23.5035 O   0  0  0  0  0  0  0  0  0  0  0  0
   22.5212   -8.6295  -22.7464 C   0  0  0  0  0  0  0  0  0  0  0  0
   22.9007   -8.6623  -21.4271 C   0  0  0  0  0  0  0  0  0  0  0  0
   22.7980   -9.8002  -20.6623 C   0  0  0  0  0  0  0  0  0  0  0  0
   22.2920  -10.9436  -21.2596 C   0  0  0  0  0  0  0  0  0  0  0  0
   22.1586  -12.2078  -20.4753 C   0  0  0  0  0  0  0  0  0  0  0  0
   23.5509  -12.7475  -20.2261 C   0  0  2  0  0  0  0  0  0  0  0  0
   24.1780  -13.1248  -21.4536 N   0  0  0  0  0  0  0  0  0  0  0  0
   23.4463  -13.9066  -19.2745 C   0  0  0  0  0  0  0  0  0  0  0  0
   23.2601  -15.0692  -19.7150 O   0  0  0  0  0  0  0  0  0  0  0  0
   21.9010  -10.9495  -22.5796 C   0  0  0  0  0  0  0  0  0  0  0  0
   22.0240   -9.7715  -23.3149 C   0  0  0  0  0  0  0  0  0  0  0  0
   23.5504  -13.7414  -17.8798 N   0  0  0  0  0  0  0  0  0  0  0  0
   23.4745  -14.8651  -16.9346 C   0  0  1  0  0  0  0  0  0  0  0  0
   24.6751  -14.8357  -16.0133 C   0  0  0  0  0  0  0  0  0  0  0  0
   25.9410  -15.1780  -16.6676 C   0  0  0  0  0  0  0  0  0  0  0  0
   26.3623  -16.4890  -16.7183 C   0  0  0  0  0  0  0  0  0  0  0  0
   27.5570  -16.8528  -17.3280 C   0  0  0  0  0  0  0  0  0  0  0  0
   28.3697  -15.9042  -17.9090 C   0  0  0  0  0  0  0  0  0  0  0  0
   27.9568  -14.5906  -17.8634 C   0  0  0  0  0  0  0  0  0  0  0  0
   26.7621  -14.2442  -17.2511 C   0  0  0  0  0  0  0  0  0  0  0  0
   22.1900  -14.8873  -16.2323 C   0  0  0  0  0  0  0  0  0  0  0  0
   21.6176  -13.7933  -15.9503 O   0  0  0  0  0  0  0  0  0  0  0  0
   21.5083  -16.0580  -15.8310 N   0  0  0  0  0  0  0  0  0  0  0  0
   20.0749  -16.0680  -15.6347 C   0  0  1  0  0  0  0  0  0  0  0  0
   19.3676  -15.3972  -16.8090 C   0  0  0  0  0  0  0  0  0  0  0  0
   17.9110  -15.4376  -16.5098 C   0  0  0  0  0  0  0  0  0  0  0  0
   17.2260  -14.5135  -15.7427 C   0  0  0  0  0  0  0  0  0  0  0  0
   15.9309  -14.8768  -15.6943 N   0  0  0  0  0  0  0  0  0  0  0  0
   15.7803  -15.9974  -16.4050 C   0  0  0  0  0  0  0  0  0  0  0  0
   16.9835  -16.3302  -16.8953 N   0  0  0  0  0  0  0  0  0  0  0  0
   19.6402  -17.4613  -15.4708 C   0  0  0  0  0  0  0  0  0  0  0  0
   20.1535  -18.3492  -16.1871 O   0  0  0  0  0  0  0  0  0  0  0  0
   18.6842  -17.8173  -14.5501 O   0  0  0  0  0  0  0  0  0  0  0  0
  2  1  1  0
  3  2  2  0
  4  3  1  0
  5  4  2  0
  5 11  1  0
  6  5  1  0
  7  6  1  0
  7  8  1  6
  9  7  1  0
  9 10  2  0
 11 12  2  0
 12  2  1  0
 13  9  1  0
 14 13  1  0
 14 15  1  1
 16 15  1  0
 16 17  2  0
 17 18  1  0
 19 18  2  0
 20 19  1  0
 21 20  2  0
 21 16  1  0
 22 14  1  0
 23 22  2  0
 24 22  1  0
 25 26  1  6
 25 24  1  0
 26 27  1  0
 27 28  2  0
 28 29  1  0
 30 29  1  0
 31 27  1  0
 31 30  2  0
 32 34  1  0
 32 25  1  0
 33 32  2  0
M  END
$$$$
