YFH.pdb
     RDKit          3D

 34 36  0  0  1  0  0  0  0  0999 V2000
   32.1988  -32.8603  -15.5265 O   0  0  0  0  0  0  0  0  0  0  0  0
   31.3716  -31.9420  -16.1625 C   0  0  0  0  0  0  0  0  0  0  0  0
   31.8758  -31.0077  -17.0333 C   0  0  0  0  0  0  0  0  0  0  0  0
   31.0736  -30.0916  -17.6716 C   0  0  0  0  0  0  0  0  0  0  0  0
   29.7123  -30.1270  -17.4155 C   0  0  0  0  0  0  0  0  0  0  0  0
   28.7945  -29.1548  -18.0816 C   0  0  0  0  0  0  0  0  0  0  0  0
   28.8819  -27.8444  -17.3287 C   0  0  2  0  0  0  0  0  0  0  0  0
   28.2569  -27.9504  -16.0479 N   0  0  0  0  0  0  0  0  0  0  0  0
   28.2492  -26.7714  -18.1703 C   0  0  0  0  0  0  0  0  0  0  0  0
   27.2279  -26.1661  -17.7571 O   0  0  0  0  0  0  0  0  0  0  0  0
   29.1698  -31.0488  -16.5488 C   0  0  0  0  0  0  0  0  0  0  0  0
   30.0232  -31.9578  -15.9251 C   0  0  0  0  0  0  0  0  0  0  0  0
   28.7637  -26.4077  -19.4298 N   0  0  0  0  0  0  0  0  0  0  0  0
   28.2300  -25.2865  -20.2172 C   0  0  1  0  0  0  0  0  0  0  0  0
   29.3603  -24.5983  -20.9519 C   0  0  0  0  0  0  0  0  0  0  0  0
   28.9408  -23.4423  -21.7489 C   0  0  0  0  0  0  0  0  0  0  0  0
   28.7024  -23.5814  -23.0990 C   0  0  0  0  0  0  0  0  0  0  0  0
   28.3051  -22.5088  -23.8884 C   0  0  0  0  0  0  0  0  0  0  0  0
   28.1342  -21.2559  -23.3416 C   0  0  0  0  0  0  0  0  0  0  0  0
   28.3702  -21.1070  -21.9924 C   0  0  0  0  0  0  0  0  0  0  0  0
   28.7661  -22.1872  -21.2188 C   0  0  0  0  0  0  0  0  0  0  0  0
   27.1344  -25.7179  -21.0874 C   0  0  0  0  0  0  0  0  0  0  0  0
   27.0672  -26.9307  -21.4462 O   0  0  0  0  0  0  0  0  0  0  0  0
   26.1105  -24.8757  -21.5760 N   0  0  0  0  0  0  0  0  0  0  0  0
   25.0578  -25.3827  -22.4291 C   0  0  1  0  0  0  0  0  0  0  0  0
   24.3110  -26.5220  -21.7408 C   0  0  0  0  0  0  0  0  0  0  0  0
   24.0779  -27.5658  -22.7746 C   0  0  0  0  0  0  0  0  0  0  0  0
   25.0661  -28.2421  -23.4656 C   0  0  0  0  0  0  0  0  0  0  0  0
   24.4775  -29.1059  -24.3136 N   0  0  0  0  0  0  0  0  0  0  0  0
   23.1537  -28.9945  -24.1779 C   0  0  0  0  0  0  0  0  0  0  0  0
   22.9200  -28.0601  -23.2444 N   0  0  0  0  0  0  0  0  0  0  0  0
   24.1556  -24.2720  -22.7603 C   0  0  0  0  0  0  0  0  0  0  0  0
   24.4111  -23.1275  -22.3249 O   0  0  0  0  0  0  0  0  0  0  0  0
   23.0372  -24.4557  -23.5374 O   0  0  0  0  0  0  0  0  0  0  0  0
  2  1  1  0
  3  2  2  0
  4  3  1  0
  5  4  2  0
  5 11  1  0
  6  5  1  0
  7  6  1  0
  7  8  1  1
  9  7  1  0
  9 10  2  0
 11 12  2  0
 12  2  1  0
 13  9  1  0
 14 13  1  0
 14 15  1  6
 16 15  1  0
 16 17  2  0
 17 18  1  0
 19 18  2  0
 20 19  1  0
 21 20  2  0
 21 16  1  0
 22 14  1  0
 23 22  2  0
 24 22  1  0
 25 26  1  1
 25 24  1  0
 26 27  1  0
 27 28  2  0
 28 29  1  0
 30 29  1  0
 31 27  1  0
 31 30  2  0
 32 34  1  0
 32 25  1  0
 33 32  2  0
M  END
$$$$
