YFH.pdb
     RDKit          3D

 34 36  0  0  1  0  0  0  0  0999 V2000
   23.3176  -15.3765  -22.5161 O   0  0  0  0  0  0  0  0  0  0  0  0
   22.9922  -16.1931  -21.4395 C   0  0  0  0  0  0  0  0  0  0  0  0
   23.0409  -15.7282  -20.1483 C   0  0  0  0  0  0  0  0  0  0  0  0
   22.7227  -16.5207  -19.0708 C   0  0  0  0  0  0  0  0  0  0  0  0
   22.3422  -17.8305  -19.3148 C   0  0  0  0  0  0  0  0  0  0  0  0
   21.9860  -18.7356  -18.1812 C   0  0  0  0  0  0  0  0  0  0  0  0
   23.2443  -18.9910  -17.3792 C   0  0  2  0  0  0  0  0  0  0  0  0
   24.2104  -19.6987  -18.1591 N   0  0  0  0  0  0  0  0  0  0  0  0
   22.8683  -19.7488  -16.1365 C   0  0  0  0  0  0  0  0  0  0  0  0
   22.7042  -20.9942  -16.1828 O   0  0  0  0  0  0  0  0  0  0  0  0
   22.2816  -18.3326  -20.5953 C   0  0  0  0  0  0  0  0  0  0  0  0
   22.6134  -17.4909  -21.6560 C   0  0  0  0  0  0  0  0  0  0  0  0
   22.6881  -19.1082  -14.8953 N   0  0  0  0  0  0  0  0  0  0  0  0
   22.2139  -19.8121  -13.6946 C   0  0  1  0  0  0  0  0  0  0  0  0
   22.6434  -19.0526  -12.4578 C   0  0  0  0  0  0  0  0  0  0  0  0
   22.2402  -19.6826  -11.1976 C   0  0  0  0  0  0  0  0  0  0  0  0
   21.0352  -19.3560  -10.6142 C   0  0  0  0  0  0  0  0  0  0  0  0
   20.6189  -19.9304   -9.4192 C   0  0  0  0  0  0  0  0  0  0  0  0
   21.4058  -20.8563   -8.7700 C   0  0  0  0  0  0  0  0  0  0  0  0
   22.6123  -21.1892   -9.3455 C   0  0  0  0  0  0  0  0  0  0  0  0
   23.0131  -20.6070  -10.5382 C   0  0  0  0  0  0  0  0  0  0  0  0
   20.7743  -20.0707  -13.7601 C   0  0  0  0  0  0  0  0  0  0  0  0
   19.9998  -19.1659  -14.1908 O   0  0  0  0  0  0  0  0  0  0  0  0
   20.1520  -21.2798  -13.3763 N   0  0  0  0  0  0  0  0  0  0  0  0
   18.7142  -21.4361  -13.4180 C   0  0  1  0  0  0  0  0  0  0  0  0
   18.3191  -22.4973  -14.4412 C   0  0  0  0  0  0  0  0  0  0  0  0
   17.6792  -21.7791  -15.5759 C   0  0  0  0  0  0  0  0  0  0  0  0
   17.3803  -20.4295  -15.6018 C   0  0  0  0  0  0  0  0  0  0  0  0
   16.8108  -20.1423  -16.7871 N   0  0  0  0  0  0  0  0  0  0  0  0
   16.7423  -21.2659  -17.5055 C   0  0  0  0  0  0  0  0  0  0  0  0
   17.2700  -22.2521  -16.7653 N   0  0  0  0  0  0  0  0  0  0  0  0
   18.2482  -21.7893  -12.0707 C   0  0  0  0  0  0  0  0  0  0  0  0
   18.7504  -22.7771  -11.4905 O   0  0  0  0  0  0  0  0  0  0  0  0
   17.2746  -21.0625  -11.4285 O   0  0  0  0  0  0  0  0  0  0  0  0
  2  1  1  0
  3  2  2  0
  4  3  1  0
  5  4  2  0
  5 11  1  0
  6  5  1  0
  7  6  1  0
  7  8  1  6
  9  7  1  0
  9 10  2  0
 11 12  2  0
 12  2  1  0
 13  9  1  0
 14 13  1  0
 14 15  1  1
 16 15  1  0
 16 17  2  0
 17 18  1  0
 19 18  2  0
 20 19  1  0
 21 20  2  0
 21 16  1  0
 22 14  1  0
 23 22  2  0
 24 22  1  0
 25 26  1  6
 25 24  1  0
 26 27  1  0
 27 28  2  0
 28 29  1  0
 30 29  1  0
 31 27  1  0
 31 30  2  0
 32 34  1  0
 32 25  1  0
 33 32  2  0
M  END
$$$$
