YFH.pdb
     RDKit          3D

 34 36  0  0  1  0  0  0  0  0999 V2000
   25.2350  -24.7341  -16.6004 O   0  0  0  0  0  0  0  0  0  0  0  0
   26.1298  -25.7974  -16.6237 C   0  0  0  0  0  0  0  0  0  0  0  0
   25.7329  -27.0737  -16.3090 C   0  0  0  0  0  0  0  0  0  0  0  0
   26.6032  -28.1379  -16.3264 C   0  0  0  0  0  0  0  0  0  0  0  0
   27.9220  -27.8958  -16.6759 C   0  0  0  0  0  0  0  0  0  0  0  0
   28.9102  -29.0153  -16.7111 C   0  0  0  0  0  0  0  0  0  0  0  0
   29.4193  -29.1395  -18.1314 C   0  0  2  0  0  0  0  0  0  0  0  0
   28.3406  -29.3664  -19.0409 N   0  0  0  0  0  0  0  0  0  0  0  0
   30.4297  -30.2517  -18.1768 C   0  0  0  0  0  0  0  0  0  0  0  0
   30.0541  -31.4378  -18.3565 O   0  0  0  0  0  0  0  0  0  0  0  0
   28.3573  -26.6300  -16.9978 C   0  0  0  0  0  0  0  0  0  0  0  0
   27.4380  -25.5824  -16.9660 C   0  0  0  0  0  0  0  0  0  0  0  0
   31.8095  -30.0157  -18.0232 N   0  0  0  0  0  0  0  0  0  0  0  0
   32.8267  -31.0551  -18.2403 C   0  0  1  0  0  0  0  0  0  0  0  0
   33.6228  -30.7340  -19.4869 C   0  0  0  0  0  0  0  0  0  0  0  0
   32.8575  -30.8449  -20.7318 C   0  0  0  0  0  0  0  0  0  0  0  0
   32.2702  -29.7281  -21.2858 C   0  0  0  0  0  0  0  0  0  0  0  0
   31.5355  -29.7932  -22.4636 C   0  0  0  0  0  0  0  0  0  0  0  0
   31.3676  -30.9901  -23.1247 C   0  0  0  0  0  0  0  0  0  0  0  0
   31.9510  -32.1123  -22.5785 C   0  0  0  0  0  0  0  0  0  0  0  0
   32.6809  -32.0304  -21.4026 C   0  0  0  0  0  0  0  0  0  0  0  0
   33.6508  -31.2543  -17.0467 C   0  0  0  0  0  0  0  0  0  0  0  0
   34.0807  -30.2453  -16.4134 O   0  0  0  0  0  0  0  0  0  0  0  0
   34.0186  -32.5125  -16.5192 N   0  0  0  0  0  0  0  0  0  0  0  0
   34.8344  -32.6238  -15.3295 C   0  0  1  0  0  0  0  0  0  0  0  0
   34.0047  -33.1369  -14.1558 C   0  0  0  0  0  0  0  0  0  0  0  0
   34.9336  -33.2687  -13.0015 C   0  0  0  0  0  0  0  0  0  0  0  0
   36.2432  -32.8265  -12.9741 C   0  0  0  0  0  0  0  0  0  0  0  0
   36.7660  -33.1186  -11.7687 N   0  0  0  0  0  0  0  0  0  0  0  0
   35.8287  -33.7290  -11.0390 C   0  0  0  0  0  0  0  0  0  0  0  0
   34.7226  -33.8159  -11.7925 N   0  0  0  0  0  0  0  0  0  0  0  0
   35.9607  -33.5195  -15.6232 C   0  0  0  0  0  0  0  0  0  0  0  0
   35.8960  -34.2759  -16.6175 O   0  0  0  0  0  0  0  0  0  0  0  0
   37.0861  -33.5489  -14.8351 O   0  0  0  0  0  0  0  0  0  0  0  0
  2  1  1  0
  3  2  2  0
  4  3  1  0
  5  4  2  0
  5 11  1  0
  6  5  1  0
  7  6  1  0
  7  8  1  6
  9  7  1  0
  9 10  2  0
 11 12  2  0
 12  2  1  0
 13  9  1  0
 14 13  1  0
 14 15  1  6
 16 15  1  0
 16 17  2  0
 17 18  1  0
 19 18  2  0
 20 19  1  0
 21 20  2  0
 21 16  1  0
 22 14  1  0
 23 22  2  0
 24 22  1  0
 25 26  1  1
 25 24  1  0
 26 27  1  0
 27 28  2  0
 28 29  1  0
 30 29  1  0
 31 27  1  0
 31 30  2  0
 32 34  1  0
 32 25  1  0
 33 32  2  0
M  END
$$$$
