YFH.pdb
     RDKit          3D

 34 36  0  0  1  0  0  0  0  0999 V2000
   24.8580  -13.5109  -21.8408 O   0  0  0  0  0  0  0  0  0  0  0  0
   24.5974  -14.5782  -20.9895 C   0  0  0  0  0  0  0  0  0  0  0  0
   23.9025  -15.6823  -21.4181 C   0  0  0  0  0  0  0  0  0  0  0  0
   23.6352  -16.7475  -20.5910 C   0  0  0  0  0  0  0  0  0  0  0  0
   24.0901  -16.6878  -19.2835 C   0  0  0  0  0  0  0  0  0  0  0  0
   23.8277  -17.8171  -18.3417 C   0  0  0  0  0  0  0  0  0  0  0  0
   25.1256  -18.5727  -18.1512 C   0  0  2  0  0  0  0  0  0  0  0  0
   25.4861  -19.2741  -19.3430 N   0  0  0  0  0  0  0  0  0  0  0  0
   24.9636  -19.5052  -16.9832 C   0  0  0  0  0  0  0  0  0  0  0  0
   24.3221  -20.5780  -17.1172 O   0  0  0  0  0  0  0  0  0  0  0  0
   24.7902  -15.5979  -18.8173 C   0  0  0  0  0  0  0  0  0  0  0  0
   25.0370  -14.5418  -19.6933 C   0  0  0  0  0  0  0  0  0  0  0  0
   25.5123  -19.2216  -15.7176 N   0  0  0  0  0  0  0  0  0  0  0  0
   25.1981  -20.0089  -14.5162 C   0  0  1  0  0  0  0  0  0  0  0  0
   26.1330  -19.6158  -13.3926 C   0  0  0  0  0  0  0  0  0  0  0  0
   25.7673  -20.1714  -12.0868 C   0  0  0  0  0  0  0  0  0  0  0  0
   25.9272  -21.5171  -11.8370 C   0  0  0  0  0  0  0  0  0  0  0  0
   25.5903  -22.0814  -10.6125 C   0  0  0  0  0  0  0  0  0  0  0  0
   25.0793  -21.3055   -9.5952 C   0  0  0  0  0  0  0  0  0  0  0  0
   24.9158  -19.9588   -9.8355 C   0  0  0  0  0  0  0  0  0  0  0  0
   25.2567  -19.4114  -11.0628 C   0  0  0  0  0  0  0  0  0  0  0  0
   23.7795  -19.9097  -14.1679 C   0  0  0  0  0  0  0  0  0  0  0  0
   23.2592  -18.7669  -14.0021 O   0  0  0  0  0  0  0  0  0  0  0  0
   22.9101  -21.0104  -13.9977 N   0  0  0  0  0  0  0  0  0  0  0  0
   21.5296  -20.8292  -13.6043 C   0  0  1  0  0  0  0  0  0  0  0  0
   20.6191  -21.7653  -14.3941 C   0  0  0  0  0  0  0  0  0  0  0  0
   19.2283  -21.4869  -13.9459 C   0  0  0  0  0  0  0  0  0  0  0  0
   18.8677  -20.5589  -12.9865 C   0  0  0  0  0  0  0  0  0  0  0  0
   17.5291  -20.5879  -12.8481 N   0  0  0  0  0  0  0  0  0  0  0  0
   17.0379  -21.5026  -13.6880 C   0  0  0  0  0  0  0  0  0  0  0  0
   18.0728  -22.0422  -14.3488 N   0  0  0  0  0  0  0  0  0  0  0  0
   21.4250  -21.0709  -12.1593 C   0  0  0  0  0  0  0  0  0  0  0  0
   22.1348  -21.9579  -11.6358 O   0  0  0  0  0  0  0  0  0  0  0  0
   20.5680  -20.3474  -11.3652 O   0  0  0  0  0  0  0  0  0  0  0  0
  2  1  1  0
  3  2  2  0
  4  3  1  0
  5  4  2  0
  5 11  1  0
  6  5  1  0
  7  6  1  0
  7  8  1  6
  9  7  1  0
  9 10  2  0
 11 12  2  0
 12  2  1  0
 13  9  1  0
 14 13  1  0
 14 15  1  1
 16 15  1  0
 16 17  2  0
 17 18  1  0
 19 18  2  0
 20 19  1  0
 21 20  2  0
 21 16  1  0
 22 14  1  0
 23 22  2  0
 24 22  1  0
 25 26  1  6
 25 24  1  0
 26 27  1  0
 27 28  2  0
 28 29  1  0
 30 29  1  0
 31 27  1  0
 31 30  2  0
 32 34  1  0
 32 25  1  0
 33 32  2  0
M  END
$$$$
