YFH.pdb
     RDKit          3D

 34 36  0  0  1  0  0  0  0  0999 V2000
   25.3137    1.6846  -19.7654 O   0  0  0  0  0  0  0  0  0  0  0  0
   24.5899    0.5903  -19.3068 C   0  0  0  0  0  0  0  0  0  0  0  0
   24.6388    0.2005  -17.9910 C   0  0  0  0  0  0  0  0  0  0  0  0
   23.9302   -0.8789  -17.5188 C   0  0  0  0  0  0  0  0  0  0  0  0
   23.1450   -1.5859  -18.4153 C   0  0  0  0  0  0  0  0  0  0  0  0
   22.3543   -2.7671  -17.9564 C   0  0  0  0  0  0  0  0  0  0  0  0
   23.3007   -3.9434  -17.8452 C   0  0  2  0  0  0  0  0  0  0  0  0
   23.7571   -4.3535  -19.1359 N   0  0  0  0  0  0  0  0  0  0  0  0
   22.5908   -5.0562  -17.1257 C   0  0  0  0  0  0  0  0  0  0  0  0
   21.8054   -5.8119  -17.7521 O   0  0  0  0  0  0  0  0  0  0  0  0
   23.0704   -1.2255  -19.7419 C   0  0  0  0  0  0  0  0  0  0  0  0
   23.8071   -0.1236  -20.1741 C   0  0  0  0  0  0  0  0  0  0  0  0
   22.7724   -5.2930  -15.7494 N   0  0  0  0  0  0  0  0  0  0  0  0
   22.1122   -6.3954  -15.0347 C   0  0  1  0  0  0  0  0  0  0  0  0
   23.1264   -7.1276  -14.1824 C   0  0  0  0  0  0  0  0  0  0  0  0
   23.9671   -8.0688  -14.9273 C   0  0  0  0  0  0  0  0  0  0  0  0
   23.8971   -9.4194  -14.6626 C   0  0  0  0  0  0  0  0  0  0  0  0
   24.6791  -10.3427  -15.3462 C   0  0  0  0  0  0  0  0  0  0  0  0
   25.5610   -9.9342  -16.3227 C   0  0  0  0  0  0  0  0  0  0  0  0
   25.6381   -8.5858  -16.5943 C   0  0  0  0  0  0  0  0  0  0  0  0
   24.8508   -7.6776  -15.9033 C   0  0  0  0  0  0  0  0  0  0  0  0
   20.9425   -5.9252  -14.2901 C   0  0  0  0  0  0  0  0  0  0  0  0
   20.9491   -4.7597  -13.7947 O   0  0  0  0  0  0  0  0  0  0  0  0
   19.7677   -6.6789  -14.0704 N   0  0  0  0  0  0  0  0  0  0  0  0
   18.4552   -6.1198  -14.3114 C   0  0  1  0  0  0  0  0  0  0  0  0
   18.3694   -5.5396  -15.7204 C   0  0  0  0  0  0  0  0  0  0  0  0
   17.0004   -4.9768  -15.8678 C   0  0  0  0  0  0  0  0  0  0  0  0
   16.0420   -4.9330  -14.8722 C   0  0  0  0  0  0  0  0  0  0  0  0
   14.9340   -4.3557  -15.3730 N   0  0  0  0  0  0  0  0  0  0  0  0
   15.1649   -4.0358  -16.6489 C   0  0  0  0  0  0  0  0  0  0  0  0
   16.4178   -4.4151  -16.9406 N   0  0  0  0  0  0  0  0  0  0  0  0
   17.4570   -7.1770  -14.1042 C   0  0  0  0  0  0  0  0  0  0  0  0
   17.5335   -8.2291  -14.7766 O   0  0  0  0  0  0  0  0  0  0  0  0
   16.4400   -7.0425  -13.1898 O   0  0  0  0  0  0  0  0  0  0  0  0
  2  1  1  0
  3  2  2  0
  4  3  1  0
  5  4  2  0
  5 11  1  0
  6  5  1  0
  7  6  1  0
  7  8  1  6
  9  7  1  0
  9 10  2  0
 11 12  2  0
 12  2  1  0
 13  9  1  0
 14 13  1  0
 14 15  1  1
 16 15  1  0
 16 17  2  0
 17 18  1  0
 19 18  2  0
 20 19  1  0
 21 20  2  0
 21 16  1  0
 22 14  1  0
 23 22  2  0
 24 22  1  0
 25 26  1  6
 25 24  1  0
 26 27  1  0
 27 28  2  0
 28 29  1  0
 30 29  1  0
 31 27  1  0
 31 30  2  0
 32 34  1  0
 32 25  1  0
 33 32  2  0
M  END
$$$$
