YFH.pdb
     RDKit          3D

 34 36  0  0  1  0  0  0  0  0999 V2000
   28.5979  -36.0928  -16.5499 O   0  0  0  0  0  0  0  0  0  0  0  0
   28.3209  -34.7860  -16.1660 C   0  0  0  0  0  0  0  0  0  0  0  0
   29.0939  -34.1338  -15.2372 C   0  0  0  0  0  0  0  0  0  0  0  0
   28.8356  -32.8417  -14.8449 C   0  0  0  0  0  0  0  0  0  0  0  0
   27.7543  -32.1906  -15.4167 C   0  0  0  0  0  0  0  0  0  0  0  0
   27.4279  -30.7861  -15.0270 C   0  0  0  0  0  0  0  0  0  0  0  0
   27.7034  -29.8979  -16.2216 C   0  0  2  0  0  0  0  0  0  0  0  0
   29.1050  -29.8284  -16.4921 N   0  0  0  0  0  0  0  0  0  0  0  0
   27.1211  -28.5396  -15.9462 C   0  0  0  0  0  0  0  0  0  0  0  0
   27.7516  -27.7154  -15.2367 O   0  0  0  0  0  0  0  0  0  0  0  0
   26.9563  -32.8114  -16.3511 C   0  0  0  0  0  0  0  0  0  0  0  0
   27.2576  -34.1224  -16.7173 C   0  0  0  0  0  0  0  0  0  0  0  0
   25.8717  -28.1428  -16.4609 N   0  0  0  0  0  0  0  0  0  0  0  0
   25.3092  -26.8013  -16.2465 C   0  0  1  0  0  0  0  0  0  0  0  0
   25.4101  -25.9979  -17.5253 C   0  0  0  0  0  0  0  0  0  0  0  0
   26.7139  -25.3612  -17.7315 C   0  0  0  0  0  0  0  0  0  0  0  0
   27.6596  -25.9629  -18.5332 C   0  0  0  0  0  0  0  0  0  0  0  0
   28.9074  -25.3913  -18.7515 C   0  0  0  0  0  0  0  0  0  0  0  0
   29.2448  -24.1902  -18.1673 C   0  0  0  0  0  0  0  0  0  0  0  0
   28.3058  -23.5810  -17.3641 C   0  0  0  0  0  0  0  0  0  0  0  0
   27.0654  -24.1645  -17.1564 C   0  0  0  0  0  0  0  0  0  0  0  0
   23.9539  -26.8715  -15.6970 C   0  0  0  0  0  0  0  0  0  0  0  0
   23.1332  -27.7100  -16.1738 O   0  0  0  0  0  0  0  0  0  0  0  0
   23.4648  -26.0633  -14.6462 N   0  0  0  0  0  0  0  0  0  0  0  0
   22.0939  -26.1598  -14.1939 C   0  0  1  0  0  0  0  0  0  0  0  0
   21.8628  -25.2577  -12.9847 C   0  0  0  0  0  0  0  0  0  0  0  0
   20.4330  -25.4114  -12.6044 C   0  0  0  0  0  0  0  0  0  0  0  0
   19.5317  -26.2672  -13.2100 C   0  0  0  0  0  0  0  0  0  0  0  0
   18.3399  -26.1319  -12.5992 N   0  0  0  0  0  0  0  0  0  0  0  0
   18.4630  -25.2203  -11.6311 C   0  0  0  0  0  0  0  0  0  0  0  0
   19.7330  -24.7891  -11.6408 N   0  0  0  0  0  0  0  0  0  0  0  0
   21.2118  -25.7971  -15.3109 C   0  0  0  0  0  0  0  0  0  0  0  0
   20.1796  -26.4728  -15.5178 O   0  0  0  0  0  0  0  0  0  0  0  0
   21.4892  -24.7336  -16.1357 O   0  0  0  0  0  0  0  0  0  0  0  0
  2  1  1  0
  3  2  2  0
  4  3  1  0
  5  4  2  0
  5 11  1  0
  6  5  1  0
  7  6  1  0
  7  8  1  1
  9  7  1  0
  9 10  2  0
 11 12  2  0
 12  2  1  0
 13  9  1  0
 14 13  1  0
 14 15  1  6
 16 15  1  0
 16 17  2  0
 17 18  1  0
 19 18  2  0
 20 19  1  0
 21 20  2  0
 21 16  1  0
 22 14  1  0
 23 22  2  0
 24 22  1  0
 25 26  1  1
 25 24  1  0
 26 27  1  0
 27 28  2  0
 28 29  1  0
 30 29  1  0
 31 27  1  0
 31 30  2  0
 32 34  1  0
 32 25  1  0
 33 32  2  0
M  END
$$$$
