YFH.pdb
     RDKit          3D

 34 36  0  0  1  0  0  0  0  0999 V2000
   25.3086   -5.2317  -16.4647 O   0  0  0  0  0  0  0  0  0  0  0  0
   24.0146   -5.5297  -16.0541 C   0  0  0  0  0  0  0  0  0  0  0  0
   23.1648   -6.2648  -16.8434 C   0  0  0  0  0  0  0  0  0  0  0  0
   21.8818   -6.5695  -16.4544 C   0  0  0  0  0  0  0  0  0  0  0  0
   21.4484   -6.1110  -15.2207 C   0  0  0  0  0  0  0  0  0  0  0  0
   20.0639   -6.4129  -14.7483 C   0  0  0  0  0  0  0  0  0  0  0  0
   20.1285   -7.6578  -13.8893 C   0  0  2  0  0  0  0  0  0  0  0  0
   20.4715   -8.8012  -14.6750 N   0  0  0  0  0  0  0  0  0  0  0  0
   18.8014   -7.8301  -13.2045 C   0  0  0  0  0  0  0  0  0  0  0  0
   17.8524   -8.3978  -13.8022 O   0  0  0  0  0  0  0  0  0  0  0  0
   22.2712   -5.3713  -14.4016 C   0  0  0  0  0  0  0  0  0  0  0  0
   23.5641   -5.0874  -14.8391 C   0  0  0  0  0  0  0  0  0  0  0  0
   18.5714   -7.3724  -11.8926 N   0  0  0  0  0  0  0  0  0  0  0  0
   17.2461   -7.4037  -11.2566 C   0  0  1  0  0  0  0  0  0  0  0  0
   17.3989   -7.6897   -9.7782 C   0  0  0  0  0  0  0  0  0  0  0  0
   16.1300   -7.7741   -9.0499 C   0  0  0  0  0  0  0  0  0  0  0  0
   15.6957   -6.7102   -8.2893 C   0  0  0  0  0  0  0  0  0  0  0  0
   14.4995   -6.7528   -7.5832 C   0  0  0  0  0  0  0  0  0  0  0  0
   13.6983   -7.8729   -7.6202 C   0  0  0  0  0  0  0  0  0  0  0  0
   14.1241   -8.9418   -8.3779 C   0  0  0  0  0  0  0  0  0  0  0  0
   15.3203   -8.8833   -9.0765 C   0  0  0  0  0  0  0  0  0  0  0  0
   16.4841   -6.1880  -11.5486 C   0  0  0  0  0  0  0  0  0  0  0  0
   17.0217   -5.0573  -11.3575 O   0  0  0  0  0  0  0  0  0  0  0  0
   15.1609   -6.1628  -12.0435 N   0  0  0  0  0  0  0  0  0  0  0  0
   14.4788   -4.9157  -12.3135 C   0  0  1  0  0  0  0  0  0  0  0  0
   14.2494   -4.7429  -13.8125 C   0  0  0  0  0  0  0  0  0  0  0  0
   13.6362   -3.4006  -13.9987 C   0  0  0  0  0  0  0  0  0  0  0  0
   13.7970   -2.3227  -13.1480 C   0  0  0  0  0  0  0  0  0  0  0  0
   13.0958   -1.2842  -13.6395 N   0  0  0  0  0  0  0  0  0  0  0  0
   12.5007   -1.6741  -14.7696 C   0  0  0  0  0  0  0  0  0  0  0  0
   12.8328   -2.9564  -14.9801 N   0  0  0  0  0  0  0  0  0  0  0  0
   13.2109   -4.9122  -11.5723 C   0  0  0  0  0  0  0  0  0  0  0  0
   12.5187   -5.9537  -11.5417 O   0  0  0  0  0  0  0  0  0  0  0  0
   12.7637   -3.7946  -10.9093 O   0  0  0  0  0  0  0  0  0  0  0  0
  2  1  1  0
  3  2  2  0
  4  3  1  0
  5  4  2  0
  5 11  1  0
  6  5  1  0
  7  6  1  0
  7  8  1  6
  9  7  1  0
  9 10  2  0
 11 12  2  0
 12  2  1  0
 13  9  1  0
 14 13  1  0
 14 15  1  1
 16 15  1  0
 16 17  2  0
 17 18  1  0
 19 18  2  0
 20 19  1  0
 21 20  2  0
 21 16  1  0
 22 14  1  0
 23 22  2  0
 24 22  1  0
 25 26  1  6
 25 24  1  0
 26 27  1  0
 27 28  2  0
 28 29  1  0
 30 29  1  0
 31 27  1  0
 31 30  2  0
 32 34  1  0
 32 25  1  0
 33 32  2  0
M  END
$$$$
