VIC.pdb
     RDKit          3D

 22 21  0  0  1  0  0  0  0  0999 V2000
   18.6016  -13.6043  -19.2773 C   0  0  0  0  0  0  0  0  0  0  0  0
   20.0690  -13.7302  -18.9465 C   0  0  2  0  0  0  0  0  0  0  0  0
   20.4894  -15.1790  -19.0599 C   0  0  0  0  0  0  0  0  0  0  0  0
   20.4071  -13.2685  -17.5744 C   0  0  2  0  0  0  0  0  0  0  0  0
   20.0647  -14.2047  -16.5349 N   0  0  0  0  0  0  0  0  0  0  0  0
   19.8714  -11.9274  -17.2290 C   0  0  0  0  0  0  0  0  0  0  0  0
   20.1468  -10.9002  -17.9181 O   0  0  0  0  0  0  0  0  0  0  0  0
   15.2042  -12.0939  -15.5705 C   0  0  0  0  0  0  0  0  0  0  0  0
   16.1060  -11.0841  -16.2456 C   0  0  0  0  0  0  0  0  0  0  0  0
   17.0824  -10.4477  -15.2400 C   0  0  2  0  0  0  0  0  0  0  0  0
   16.5079   -9.1201  -14.8052 C   0  0  0  0  0  0  0  0  0  0  0  0
   18.4626  -10.4264  -15.7298 C   0  0  2  0  0  0  0  0  0  0  0  0
   19.0220  -11.7058  -16.1073 N   0  0  0  0  0  0  0  0  0  0  0  0
   19.4350   -9.5290  -15.0871 C   0  0  0  0  0  0  0  0  0  0  0  0
   19.9850   -9.6910  -13.9776 O   0  0  0  0  0  0  0  0  0  0  0  0
   19.8311   -8.3131  -15.7592 N   0  0  0  0  0  0  0  0  0  0  0  0
   20.7610   -7.3768  -15.2114 C   0  0  1  0  0  0  0  0  0  0  0  0
   22.0857   -7.2812  -15.8862 C   0  0  0  0  0  0  0  0  0  0  0  0
   22.8340   -8.8369  -16.3296 S   0  0  0  0  0  0  0  0  0  0  0  0
   20.1629   -6.0502  -14.9036 C   0  0  0  0  0  0  0  0  0  0  0  0
   19.0598   -5.6294  -15.2737 O   0  0  0  0  0  0  0  0  0  0  0  0
   20.9241   -5.1940  -14.1162 O   0  0  0  0  0  0  0  0  0  0  0  0
  2  1  1  1
  2  3  1  0
  4  2  1  0
  4  6  1  0
  4  5  1  1
  6 13  1  0
  6  7  2  0
  8  9  1  0
  9 10  1  0
 10 12  1  0
 10 11  1  6
 12 14  1  0
 12 13  1  1
 14 15  2  0
 16 14  1  0
 16 17  1  0
 17 20  1  0
 17 18  1  6
 19 18  1  0
 20 22  1  0
 21 20  2  0
M  END
$$$$
