VIC.pdb
     RDKit          3D

 22 21  0  0  1  0  0  0  0  0999 V2000
   13.6192  -12.3983  -13.2553 C   0  0  0  0  0  0  0  0  0  0  0  0
   15.0376  -12.1193  -13.6903 C   0  0  2  0  0  0  0  0  0  0  0  0
   15.6947  -13.4100  -14.1270 C   0  0  0  0  0  0  0  0  0  0  0  0
   15.8784  -11.5252  -12.6178 C   0  0  2  0  0  0  0  0  0  0  0  0
   16.2733  -12.4566  -11.5926 N   0  0  0  0  0  0  0  0  0  0  0  0
   15.3015  -10.3107  -11.9877 C   0  0  0  0  0  0  0  0  0  0  0  0
   14.8602   -9.3448  -12.6792 O   0  0  0  0  0  0  0  0  0  0  0  0
   11.3322  -10.3001   -8.7078 C   0  0  0  0  0  0  0  0  0  0  0  0
   12.3961   -9.8994   -9.7061 C   0  0  0  0  0  0  0  0  0  0  0  0
   13.5635   -9.1715   -9.0155 C   0  0  2  0  0  0  0  0  0  0  0  0
   13.0132   -7.9358   -8.3435 C   0  0  0  0  0  0  0  0  0  0  0  0
   14.7080   -8.9683   -9.9067 C   0  0  2  0  0  0  0  0  0  0  0  0
   15.2090  -10.1489  -10.5756 N   0  0  0  0  0  0  0  0  0  0  0  0
   15.7665   -8.0283   -9.5071 C   0  0  0  0  0  0  0  0  0  0  0  0
   16.8262   -8.3040   -8.9063 O   0  0  0  0  0  0  0  0  0  0  0  0
   15.6194   -6.6232   -9.8090 N   0  0  0  0  0  0  0  0  0  0  0  0
   16.5921   -5.6361   -9.4612 C   0  0  1  0  0  0  0  0  0  0  0  0
   17.8909   -5.6956  -10.1884 C   0  0  0  0  0  0  0  0  0  0  0  0
   18.5347   -4.1268  -10.7371 S   0  0  0  0  0  0  0  0  0  0  0  0
   16.0380   -4.2593   -9.3624 C   0  0  0  0  0  0  0  0  0  0  0  0
   15.0005   -3.8372   -9.8880 O   0  0  0  0  0  0  0  0  0  0  0  0
   16.7628   -3.3522   -8.5980 O   0  0  0  0  0  0  0  0  0  0  0  0
  2  1  1  1
  2  3  1  0
  4  2  1  0
  4  6  1  0
  4  5  1  1
  6 13  1  0
  6  7  2  0
  8  9  1  0
  9 10  1  0
 10 12  1  0
 10 11  1  6
 12 14  1  0
 12 13  1  1
 14 15  2  0
 16 14  1  0
 16 17  1  0
 17 20  1  0
 17 18  1  6
 19 18  1  0
 20 22  1  0
 21 20  2  0
M  END
$$$$
