VIC.pdb
     RDKit          3D

 22 21  0  0  1  0  0  0  0  0999 V2000
   26.2955  -19.2657  -16.2767 C   0  0  0  0  0  0  0  0  0  0  0  0
   26.8492  -20.6315  -16.6036 C   0  0  2  0  0  0  0  0  0  0  0  0
   25.8128  -21.4270  -17.3663 C   0  0  0  0  0  0  0  0  0  0  0  0
   27.2272  -21.4191  -15.4008 C   0  0  2  0  0  0  0  0  0  0  0  0
   27.7577  -22.7258  -15.6931 N   0  0  0  0  0  0  0  0  0  0  0  0
   26.1532  -21.5372  -14.3823 C   0  0  0  0  0  0  0  0  0  0  0  0
   25.2457  -22.4176  -14.4674 O   0  0  0  0  0  0  0  0  0  0  0  0
   27.2609  -20.7651   -9.1663 C   0  0  0  0  0  0  0  0  0  0  0  0
   26.7062  -21.2409  -10.4911 C   0  0  0  0  0  0  0  0  0  0  0  0
   25.4347  -20.4631  -10.8753 C   0  0  2  0  0  0  0  0  0  0  0  0
   24.3929  -20.7131   -9.8106 C   0  0  0  0  0  0  0  0  0  0  0  0
   25.0189  -20.7092  -12.2580 C   0  0  2  0  0  0  0  0  0  0  0  0
   26.0688  -20.6743  -13.2523 N   0  0  0  0  0  0  0  0  0  0  0  0
   23.7451  -20.1465  -12.7319 C   0  0  0  0  0  0  0  0  0  0  0  0
   23.5624  -19.0116  -13.2201 O   0  0  0  0  0  0  0  0  0  0  0  0
   22.5416  -20.9410  -12.6443 N   0  0  0  0  0  0  0  0  0  0  0  0
   21.2884  -20.5373  -13.1990 C   0  0  1  0  0  0  0  0  0  0  0  0
   21.2865  -20.1695  -14.6426 C   0  0  0  0  0  0  0  0  0  0  0  0
   19.7398  -19.5473  -15.2730 S   0  0  0  0  0  0  0  0  0  0  0  0
   20.1534  -21.4195  -12.8173 C   0  0  0  0  0  0  0  0  0  0  0  0
   20.2188  -22.4825  -12.1875 O   0  0  0  0  0  0  0  0  0  0  0  0
   18.8858  -21.0045  -13.2092 O   0  0  0  0  0  0  0  0  0  0  0  0
  2  1  1  1
  2  3  1  0
  4  2  1  0
  4  6  1  0
  4  5  1  6
  6 13  1  0
  6  7  2  0
  8  9  1  0
  9 10  1  0
 10 12  1  0
 10 11  1  1
 12 14  1  0
 12 13  1  6
 14 15  2  0
 16 14  1  0
 16 17  1  0
 17 20  1  0
 17 18  1  6
 19 18  1  0
 20 22  1  0
 21 20  2  0
M  END
$$$$
