VIC.pdb
     RDKit          3D

 22 21  0  0  1  0  0  0  0  0999 V2000
   19.1553  -13.8856  -17.5114 C   0  0  0  0  0  0  0  0  0  0  0  0
   19.8242  -12.5387  -17.3800 C   0  0  2  0  0  0  0  0  0  0  0  0
   21.3078  -12.7317  -17.1557 C   0  0  0  0  0  0  0  0  0  0  0  0
   19.2992  -11.7260  -16.2513 C   0  0  2  0  0  0  0  0  0  0  0  0
   17.9576  -12.0655  -15.8527 N   0  0  0  0  0  0  0  0  0  0  0  0
   19.3992  -10.2584  -16.4534 C   0  0  0  0  0  0  0  0  0  0  0  0
   20.4906   -9.7014  -16.7767 O   0  0  0  0  0  0  0  0  0  0  0  0
   15.5413   -8.6291  -18.6050 C   0  0  0  0  0  0  0  0  0  0  0  0
   16.8876   -7.9423  -18.5377 C   0  0  0  0  0  0  0  0  0  0  0  0
   17.1479   -7.3607  -17.1364 C   0  0  2  0  0  0  0  0  0  0  0  0
   17.1325   -5.8542  -17.2443 C   0  0  0  0  0  0  0  0  0  0  0  0
   18.3217   -7.9513  -16.4894 C   0  0  2  0  0  0  0  0  0  0  0  0
   18.2859   -9.3842  -16.2955 N   0  0  0  0  0  0  0  0  0  0  0  0
   18.9684   -7.2271  -15.3844 C   0  0  0  0  0  0  0  0  0  0  0  0
   18.6732   -7.2900  -14.1725 O   0  0  0  0  0  0  0  0  0  0  0  0
   20.0636   -6.3288  -15.6689 N   0  0  0  0  0  0  0  0  0  0  0  0
   20.6866   -5.5074  -14.6797 C   0  0  1  0  0  0  0  0  0  0  0  0
   22.0694   -5.8855  -14.2745 C   0  0  0  0  0  0  0  0  0  0  0  0
   22.8968   -4.7287  -13.2003 S   0  0  0  0  0  0  0  0  0  0  0  0
   20.5258   -4.0493  -14.9254 C   0  0  0  0  0  0  0  0  0  0  0  0
   20.1466   -3.1970  -14.1127 O   0  0  0  0  0  0  0  0  0  0  0  0
   20.8353   -3.5975  -16.2032 O   0  0  0  0  0  0  0  0  0  0  0  0
  2  1  1  1
  2  3  1  0
  4  2  1  0
  4  6  1  0
  4  5  1  6
  6 13  1  0
  6  7  2  0
  8  9  1  0
  9 10  1  0
 10 12  1  0
 10 11  1  6
 12 14  1  0
 12 13  1  1
 14 15  2  0
 16 14  1  0
 16 17  1  0
 17 20  1  0
 17 18  1  6
 19 18  1  0
 20 22  1  0
 21 20  2  0
M  END
$$$$
