VIC.pdb
     RDKit          3D

 22 21  0  0  1  0  0  0  0  0999 V2000
   25.6341  -17.4375  -17.0737 C   0  0  0  0  0  0  0  0  0  0  0  0
   26.6704  -17.1282  -16.0204 C   0  0  2  0  0  0  0  0  0  0  0  0
   27.6595  -16.1219  -16.5658 C   0  0  0  0  0  0  0  0  0  0  0  0
   27.4384  -18.3221  -15.5788 C   0  0  2  0  0  0  0  0  0  0  0  0
   28.1834  -18.9670  -16.6292 N   0  0  0  0  0  0  0  0  0  0  0  0
   26.6331  -19.3344  -14.8496 C   0  0  0  0  0  0  0  0  0  0  0  0
   26.3491  -20.4578  -15.3625 O   0  0  0  0  0  0  0  0  0  0  0  0
   25.6162  -21.6087   -9.2512 C   0  0  0  0  0  0  0  0  0  0  0  0
   25.1028  -21.4178  -10.6614 C   0  0  0  0  0  0  0  0  0  0  0  0
   25.8575  -20.2859  -11.3816 C   0  0  2  0  0  0  0  0  0  0  0  0
   25.8446  -19.0700  -10.4855 C   0  0  0  0  0  0  0  0  0  0  0  0
   25.3922  -20.0823  -12.7554 C   0  0  2  0  0  0  0  0  0  0  0  0
   26.1268  -19.1119  -13.5371 N   0  0  0  0  0  0  0  0  0  0  0  0
   23.9465  -20.0792  -13.0270 C   0  0  0  0  0  0  0  0  0  0  0  0
   23.1810  -19.0928  -13.0008 O   0  0  0  0  0  0  0  0  0  0  0  0
   23.2840  -21.3193  -13.3595 N   0  0  0  0  0  0  0  0  0  0  0  0
   21.8921  -21.4109  -13.6690 C   0  0  1  0  0  0  0  0  0  0  0  0
   21.5158  -22.3296  -14.7797 C   0  0  0  0  0  0  0  0  0  0  0  0
   22.6520  -22.3787  -16.1521 S   0  0  0  0  0  0  0  0  0  0  0  0
   21.0212  -21.5514  -12.4715 C   0  0  0  0  0  0  0  0  0  0  0  0
   21.3846  -21.7913  -11.3134 O   0  0  0  0  0  0  0  0  0  0  0  0
   19.6550  -21.3956  -12.6762 O   0  0  0  0  0  0  0  0  0  0  0  0
  2  1  1  6
  2  3  1  0
  4  2  1  0
  4  6  1  0
  4  5  1  6
  6 13  1  0
  6  7  2  0
  8  9  1  0
  9 10  1  0
 10 12  1  0
 10 11  1  1
 12 14  1  0
 12 13  1  1
 14 15  2  0
 16 14  1  0
 16 17  1  0
 17 20  1  0
 17 18  1  6
 19 18  1  0
 20 22  1  0
 21 20  2  0
M  END
$$$$
