VIC.pdb
     RDKit          3D

 22 21  0  0  1  0  0  0  0  0999 V2000
   19.4653  -12.6129  -18.2910 C   0  0  0  0  0  0  0  0  0  0  0  0
   19.6225  -11.7745  -19.5365 C   0  0  2  0  0  0  0  0  0  0  0  0
   20.0801  -12.6517  -20.6809 C   0  0  0  0  0  0  0  0  0  0  0  0
   20.6118  -10.6749  -19.3875 C   0  0  2  0  0  0  0  0  0  0  0  0
   21.9839  -11.1123  -19.3755 N   0  0  0  0  0  0  0  0  0  0  0  0
   20.3666   -9.7821  -18.2266 C   0  0  0  0  0  0  0  0  0  0  0  0
   19.2131   -9.3267  -17.9661 O   0  0  0  0  0  0  0  0  0  0  0  0
   23.3696  -10.4933  -13.7114 C   0  0  0  0  0  0  0  0  0  0  0  0
   22.3160  -10.2694  -14.7738 C   0  0  0  0  0  0  0  0  0  0  0  0
   22.1143   -8.7690  -15.0523 C   0  0  2  0  0  0  0  0  0  0  0  0
   21.7444   -8.0966  -13.7513 C   0  0  0  0  0  0  0  0  0  0  0  0
   21.2209   -8.5207  -16.1861 C   0  0  2  0  0  0  0  0  0  0  0  0
   21.4028   -9.3776  -17.3371 N   0  0  0  0  0  0  0  0  0  0  0  0
   20.8809   -7.1332  -16.5372 C   0  0  0  0  0  0  0  0  0  0  0  0
   21.5082   -6.3807  -17.3118 O   0  0  0  0  0  0  0  0  0  0  0  0
   19.7118   -6.5188  -15.9517 N   0  0  0  0  0  0  0  0  0  0  0  0
   19.2962   -5.1824  -16.2390 C   0  0  1  0  0  0  0  0  0  0  0  0
   18.9360   -4.8864  -17.6539 C   0  0  0  0  0  0  0  0  0  0  0  0
   18.3261   -3.2402  -17.9614 S   0  0  0  0  0  0  0  0  0  0  0  0
   18.3198   -4.6359  -15.2590 C   0  0  0  0  0  0  0  0  0  0  0  0
   18.2364   -3.4649  -14.8685 O   0  0  0  0  0  0  0  0  0  0  0  0
   17.4045   -5.5368  -14.7269 O   0  0  0  0  0  0  0  0  0  0  0  0
  2  1  1  1
  2  3  1  0
  4  2  1  0
  4  6  1  0
  4  5  1  1
  6 13  1  0
  6  7  2  0
  8  9  1  0
  9 10  1  0
 10 12  1  0
 10 11  1  1
 12 14  1  0
 12 13  1  6
 14 15  2  0
 16 14  1  0
 16 17  1  0
 17 20  1  0
 17 18  1  6
 19 18  1  0
 20 22  1  0
 21 20  2  0
M  END
$$$$
