VIC.pdb
     RDKit          3D

 22 21  0  0  1  0  0  0  0  0999 V2000
   27.8880  -32.7763  -14.9455 C   0  0  0  0  0  0  0  0  0  0  0  0
   26.9691  -33.6332  -15.7823 C   0  0  2  0  0  0  0  0  0  0  0  0
   27.7072  -34.1120  -17.0129 C   0  0  0  0  0  0  0  0  0  0  0  0
   25.7476  -32.9190  -16.2381 C   0  0  2  0  0  0  0  0  0  0  0  0
   26.0002  -31.8570  -17.1777 N   0  0  0  0  0  0  0  0  0  0  0  0
   24.8864  -32.4134  -15.1392 C   0  0  0  0  0  0  0  0  0  0  0  0
   24.8597  -31.1868  -14.8218 O   0  0  0  0  0  0  0  0  0  0  0  0
   19.9273  -32.0186  -15.2194 C   0  0  0  0  0  0  0  0  0  0  0  0
   21.4050  -31.9811  -14.8969 C   0  0  0  0  0  0  0  0  0  0  0  0
   21.7246  -32.8189  -13.6458 C   0  0  2  0  0  0  0  0  0  0  0  0
   20.7896  -32.3864  -12.5410 C   0  0  0  0  0  0  0  0  0  0  0  0
   23.1525  -32.8243  -13.3199 C   0  0  2  0  0  0  0  0  0  0  0  0
   24.0419  -33.2657  -14.3718 N   0  0  0  0  0  0  0  0  0  0  0  0
   23.5774  -33.2495  -11.9773 C   0  0  0  0  0  0  0  0  0  0  0  0
   23.7398  -34.4220  -11.5788 O   0  0  0  0  0  0  0  0  0  0  0  0
   23.8447  -32.2513  -10.9678 N   0  0  0  0  0  0  0  0  0  0  0  0
   24.2906  -32.5654   -9.6472 C   0  0  1  0  0  0  0  0  0  0  0  0
   25.1746  -31.5644   -8.9870 C   0  0  0  0  0  0  0  0  0  0  0  0
   26.0625  -32.1509   -7.5572 S   0  0  0  0  0  0  0  0  0  0  0  0
   23.2127  -33.0733   -8.7570 C   0  0  0  0  0  0  0  0  0  0  0  0
   23.1948  -34.1542   -8.1552 O   0  0  0  0  0  0  0  0  0  0  0  0
   22.1100  -32.2448   -8.5829 O   0  0  0  0  0  0  0  0  0  0  0  0
  2  1  1  6
  2  3  1  0
  4  2  1  0
  4  6  1  0
  4  5  1  6
  6 13  1  0
  6  7  2  0
  8  9  1  0
  9 10  1  0
 10 12  1  0
 10 11  1  1
 12 14  1  0
 12 13  1  6
 14 15  2  0
 16 14  1  0
 16 17  1  0
 17 20  1  0
 17 18  1  1
 19 18  1  0
 20 22  1  0
 21 20  2  0
M  END
$$$$
