VIC.pdb
     RDKit          3D

 22 21  0  0  1  0  0  0  0  0999 V2000
   26.4232  -18.9821  -16.0678 C   0  0  0  0  0  0  0  0  0  0  0  0
   27.4634  -18.8017  -14.9888 C   0  0  2  0  0  0  0  0  0  0  0  0
   28.7194  -18.2126  -15.5920 C   0  0  0  0  0  0  0  0  0  0  0  0
   27.8399  -20.0712  -14.3130 C   0  0  2  0  0  0  0  0  0  0  0  0
   28.4584  -21.0409  -15.1798 N   0  0  0  0  0  0  0  0  0  0  0  0
   26.7356  -20.7152  -13.5577 C   0  0  0  0  0  0  0  0  0  0  0  0
   26.1388  -21.7442  -13.9945 O   0  0  0  0  0  0  0  0  0  0  0  0
   26.6222  -20.4590   -8.1599 C   0  0  0  0  0  0  0  0  0  0  0  0
   26.3457  -21.1165   -9.4941 C   0  0  0  0  0  0  0  0  0  0  0  0
   25.0895  -20.5246  -10.1583 C   0  0  2  0  0  0  0  0  0  0  0  0
   23.8789  -21.0562   -9.4281 C   0  0  0  0  0  0  0  0  0  0  0  0
   25.0908  -20.6878  -11.6138 C   0  0  2  0  0  0  0  0  0  0  0  0
   26.2738  -20.2223  -12.3037 N   0  0  0  0  0  0  0  0  0  0  0  0
   23.8459  -20.4497  -12.3605 C   0  0  0  0  0  0  0  0  0  0  0  0
   23.4971  -19.3873  -12.9168 O   0  0  0  0  0  0  0  0  0  0  0  0
   22.8828  -21.5181  -12.4942 N   0  0  0  0  0  0  0  0  0  0  0  0
   21.6354  -21.3742  -13.1760 C   0  0  1  0  0  0  0  0  0  0  0  0
   21.4784  -22.1372  -14.4458 C   0  0  0  0  0  0  0  0  0  0  0  0
   20.2256  -23.4048  -14.4284 S   0  0  0  0  0  0  0  0  0  0  0  0
   20.4505  -21.4729  -12.2823 C   0  0  0  0  0  0  0  0  0  0  0  0
   20.3737  -22.0992  -11.2180 O   0  0  0  0  0  0  0  0  0  0  0  0
   19.3100  -20.7883  -12.6861 O   0  0  0  0  0  0  0  0  0  0  0  0
  2  1  1  6
  2  3  1  0
  4  2  1  0
  4  6  1  0
  4  5  1  6
  6 13  1  0
  6  7  2  0
  8  9  1  0
  9 10  1  0
 10 12  1  0
 10 11  1  1
 12 14  1  0
 12 13  1  6
 14 15  2  0
 16 14  1  0
 16 17  1  0
 17 20  1  0
 17 18  1  6
 19 18  1  0
 20 22  1  0
 21 20  2  0
M  END
$$$$
