VIC.pdb
     RDKit          3D

 22 21  0  0  1  0  0  0  0  0999 V2000
   20.8594  -21.1797  -10.8899 C   0  0  0  0  0  0  0  0  0  0  0  0
   20.4709  -20.4025  -12.1243 C   0  0  2  0  0  0  0  0  0  0  0  0
   19.0364  -20.7163  -12.4876 C   0  0  0  0  0  0  0  0  0  0  0  0
   21.3146  -20.7135  -13.3082 C   0  0  2  0  0  0  0  0  0  0  0  0
   21.2772  -22.0950  -13.7137 N   0  0  0  0  0  0  0  0  0  0  0  0
   22.7268  -20.2707  -13.1886 C   0  0  0  0  0  0  0  0  0  0  0  0
   23.0322  -19.0552  -13.0009 O   0  0  0  0  0  0  0  0  0  0  0  0
   26.0066  -20.8272   -9.5376 C   0  0  0  0  0  0  0  0  0  0  0  0
   25.2404  -20.4992  -10.8003 C   0  0  0  0  0  0  0  0  0  0  0  0
   25.9603  -21.0437  -12.0472 C   0  0  2  0  0  0  0  0  0  0  0  0
   27.3897  -20.5565  -12.0131 C   0  0  0  0  0  0  0  0  0  0  0  0
   25.2186  -20.7875  -13.2839 C   0  0  2  0  0  0  0  0  0  0  0  0
   23.8246  -21.1736  -13.2796 N   0  0  0  0  0  0  0  0  0  0  0  0
   25.8844  -21.0130  -14.5761 C   0  0  0  0  0  0  0  0  0  0  0  0
   26.1958  -22.1140  -15.0768 O   0  0  0  0  0  0  0  0  0  0  0  0
   26.2464  -19.8797  -15.3956 N   0  0  0  0  0  0  0  0  0  0  0  0
   26.3594  -19.9400  -16.8186 C   0  0  1  0  0  0  0  0  0  0  0  0
   25.0868  -19.8834  -17.5909 C   0  0  0  0  0  0  0  0  0  0  0  0
   24.9383  -21.0708  -18.9118 S   0  0  0  0  0  0  0  0  0  0  0  0
   27.4208  -19.0573  -17.3722 C   0  0  0  0  0  0  0  0  0  0  0  0
   28.2014  -19.3235  -18.2945 O   0  0  0  0  0  0  0  0  0  0  0  0
   27.5477  -17.8004  -16.7918 O   0  0  0  0  0  0  0  0  0  0  0  0
  2  1  1  1
  2  3  1  0
  4  2  1  0
  4  6  1  0
  4  5  1  1
  6 13  1  0
  6  7  2  0
  8  9  1  0
  9 10  1  0
 10 12  1  0
 10 11  1  6
 12 14  1  0
 12 13  1  6
 14 15  2  0
 16 14  1  0
 16 17  1  0
 17 20  1  0
 17 18  1  6
 19 18  1  0
 20 22  1  0
 21 20  2  0
M  END
$$$$
