VIC.pdb
     RDKit          3D

 22 21  0  0  1  0  0  0  0  0999 V2000
   20.5614  -21.7267  -16.0367 C   0  0  0  0  0  0  0  0  0  0  0  0
   21.9595  -21.4488  -15.5397 C   0  0  2  0  0  0  0  0  0  0  0  0
   22.9194  -22.4468  -16.1489 C   0  0  0  0  0  0  0  0  0  0  0  0
   22.0904  -21.5413  -14.0617 C   0  0  2  0  0  0  0  0  0  0  0  0
   20.9135  -21.1347  -13.3378 N   0  0  0  0  0  0  0  0  0  0  0  0
   23.2785  -20.8451  -13.5062 C   0  0  0  0  0  0  0  0  0  0  0  0
   23.3209  -19.5837  -13.3921 O   0  0  0  0  0  0  0  0  0  0  0  0
   24.9219  -20.9308   -8.8010 C   0  0  0  0  0  0  0  0  0  0  0  0
   24.6464  -20.7308  -10.2751 C   0  0  0  0  0  0  0  0  0  0  0  0
   25.8854  -21.0658  -11.1248 C   0  0  2  0  0  0  0  0  0  0  0  0
   27.0599  -20.3001  -10.5628 C   0  0  0  0  0  0  0  0  0  0  0  0
   25.6422  -20.9150  -12.5612 C   0  0  2  0  0  0  0  0  0  0  0  0
   24.4422  -21.5415  -13.0710 N   0  0  0  0  0  0  0  0  0  0  0  0
   26.7805  -20.9879  -13.4902 C   0  0  0  0  0  0  0  0  0  0  0  0
   27.7652  -21.7519  -13.4105 O   0  0  0  0  0  0  0  0  0  0  0  0
   26.8231  -20.1034  -14.6317 N   0  0  0  0  0  0  0  0  0  0  0  0
   27.6244  -20.3482  -15.7890 C   0  0  1  0  0  0  0  0  0  0  0  0
   27.6336  -21.7438  -16.3099 C   0  0  0  0  0  0  0  0  0  0  0  0
   28.7049  -22.8770  -15.4469 S   0  0  0  0  0  0  0  0  0  0  0  0
   27.4616  -19.3251  -16.8563 C   0  0  0  0  0  0  0  0  0  0  0  0
   26.6436  -18.3970  -16.8764 O   0  0  0  0  0  0  0  0  0  0  0  0
   28.3202  -19.4225  -17.9453 O   0  0  0  0  0  0  0  0  0  0  0  0
  2  1  1  1
  2  3  1  0
  4  2  1  0
  4  6  1  0
  4  5  1  1
  6 13  1  0
  6  7  2  0
  8  9  1  0
  9 10  1  0
 10 12  1  0
 10 11  1  1
 12 14  1  0
 12 13  1  6
 14 15  2  0
 16 14  1  0
 16 17  1  0
 17 20  1  0
 17 18  1  6
 19 18  1  0
 20 22  1  0
 21 20  2  0
M  END
$$$$
