VIC.pdb
     RDKit          3D

 22 21  0  0  1  0  0  0  0  0999 V2000
   18.5788   -9.5949  -17.1511 C   0  0  0  0  0  0  0  0  0  0  0  0
   17.7095   -9.3077  -15.9508 C   0  0  2  0  0  0  0  0  0  0  0  0
   18.4280   -8.3513  -15.0247 C   0  0  0  0  0  0  0  0  0  0  0  0
   17.3655  -10.5226  -15.1662 C   0  0  2  0  0  0  0  0  0  0  0  0
   16.7743  -11.5806  -15.9444 N   0  0  0  0  0  0  0  0  0  0  0  0
   16.5284  -10.2624  -13.9677 C   0  0  0  0  0  0  0  0  0  0  0  0
   15.4321   -9.6312  -14.0429 O   0  0  0  0  0  0  0  0  0  0  0  0
   15.5285  -13.8887  -12.1169 C   0  0  0  0  0  0  0  0  0  0  0  0
   14.7896  -12.6250  -11.7346 C   0  0  0  0  0  0  0  0  0  0  0  0
   15.6426  -11.7379  -10.8099 C   0  0  2  0  0  0  0  0  0  0  0  0
   14.8909  -11.5545   -9.5126 C   0  0  0  0  0  0  0  0  0  0  0  0
   16.1032  -10.5141  -11.4696 C   0  0  2  0  0  0  0  0  0  0  0  0
   16.8993  -10.6975  -12.6632 N   0  0  0  0  0  0  0  0  0  0  0  0
   16.5404   -9.3782  -10.6433 C   0  0  0  0  0  0  0  0  0  0  0  0
   17.5722   -9.3143   -9.9426 O   0  0  0  0  0  0  0  0  0  0  0  0
   15.7292   -8.1839  -10.5920 N   0  0  0  0  0  0  0  0  0  0  0  0
   16.0485   -7.0482   -9.7860 C   0  0  1  0  0  0  0  0  0  0  0  0
   16.4353   -5.8051  -10.5100 C   0  0  0  0  0  0  0  0  0  0  0  0
   17.3692   -6.0498  -12.0082 S   0  0  0  0  0  0  0  0  0  0  0  0
   15.0807   -6.8069   -8.6825 C   0  0  0  0  0  0  0  0  0  0  0  0
   13.9453   -7.2861   -8.5729 O   0  0  0  0  0  0  0  0  0  0  0  0
   15.4974   -5.9532   -7.6675 O   0  0  0  0  0  0  0  0  0  0  0  0
  2  1  1  6
  2  3  1  0
  4  2  1  0
  4  6  1  0
  4  5  1  6
  6 13  1  0
  6  7  2  0
  8  9  1  0
  9 10  1  0
 10 12  1  0
 10 11  1  1
 12 14  1  0
 12 13  1  6
 14 15  2  0
 16 14  1  0
 16 17  1  0
 17 20  1  0
 17 18  1  6
 19 18  1  0
 20 22  1  0
 21 20  2  0
M  END
$$$$
