VIC.pdb
     RDKit          3D

 22 21  0  0  1  0  0  0  0  0999 V2000
   26.1604  -18.6719  -16.1341 C   0  0  0  0  0  0  0  0  0  0  0  0
   27.2661  -18.6190  -15.1077 C   0  0  2  0  0  0  0  0  0  0  0  0
   28.5116  -18.0350  -15.7374 C   0  0  0  0  0  0  0  0  0  0  0  0
   27.6229  -19.9518  -14.5543 C   0  0  2  0  0  0  0  0  0  0  0  0
   28.1187  -20.8846  -15.5333 N   0  0  0  0  0  0  0  0  0  0  0  0
   26.5458  -20.5943  -13.7593 C   0  0  0  0  0  0  0  0  0  0  0  0
   25.9054  -21.5989  -14.1911 O   0  0  0  0  0  0  0  0  0  0  0  0
   26.5137  -20.6648   -8.2565 C   0  0  0  0  0  0  0  0  0  0  0  0
   26.3142  -21.0783   -9.6981 C   0  0  0  0  0  0  0  0  0  0  0  0
   25.0440  -20.4418  -10.2905 C   0  0  2  0  0  0  0  0  0  0  0  0
   23.8538  -20.9747   -9.5281 C   0  0  0  0  0  0  0  0  0  0  0  0
   24.9826  -20.5574  -11.7493 C   0  0  2  0  0  0  0  0  0  0  0  0
   26.1604  -20.1269  -12.4702 N   0  0  0  0  0  0  0  0  0  0  0  0
   23.7239  -20.2355  -12.4392 C   0  0  0  0  0  0  0  0  0  0  0  0
   23.3095  -19.0994  -12.7514 O   0  0  0  0  0  0  0  0  0  0  0  0
   22.8276  -21.3039  -12.8163 N   0  0  0  0  0  0  0  0  0  0  0  0
   21.5899  -21.0910  -13.4976 C   0  0  1  0  0  0  0  0  0  0  0  0
   21.4037  -21.8192  -14.7838 C   0  0  0  0  0  0  0  0  0  0  0  0
   22.8516  -22.6465  -15.4128 S   0  0  0  0  0  0  0  0  0  0  0  0
   20.3990  -21.1568  -12.6089 C   0  0  0  0  0  0  0  0  0  0  0  0
   19.2457  -20.8049  -12.8861 O   0  0  0  0  0  0  0  0  0  0  0  0
   20.6046  -21.6685  -11.3328 O   0  0  0  0  0  0  0  0  0  0  0  0
  2  1  1  6
  2  3  1  0
  4  2  1  0
  4  6  1  0
  4  5  1  6
  6 13  1  0
  6  7  2  0
  8  9  1  0
  9 10  1  0
 10 12  1  0
 10 11  1  1
 12 14  1  0
 12 13  1  6
 14 15  2  0
 16 14  1  0
 16 17  1  0
 17 20  1  0
 17 18  1  6
 19 18  1  0
 20 22  1  0
 21 20  2  0
M  END
$$$$
