NDP.pdb
     RDKit          3D

 24 24  0  0  1  0  0  0  0  0999 V2000
    8.7776  -12.4515   17.7784 N   0  0  0  0  0  0  0  0  0  0  0  0
    8.2621  -13.7281   18.0969 C   0  0  0  0  0  0  0  0  0  0  0  0
    8.5405  -14.6758   17.3158 O   0  0  0  0  0  0  0  0  0  0  0  0
    7.4271  -13.9204   19.3108 C   0  0  0  0  0  0  0  0  0  0  0  0
    8.3547  -14.1586   20.4844 C   0  0  2  0  0  0  0  0  0  0  0  0
    9.0926  -15.3940   20.2639 N   0  0  0  0  0  0  0  0  0  0  0  0
    7.5859  -14.3341   21.7511 C   0  0  0  0  0  0  0  0  0  0  0  0
    6.6417  -13.5594   22.0842 O   0  0  0  0  0  0  0  0  0  0  0  0
    7.9326  -15.3994   22.5936 N   0  0  0  0  0  0  0  0  0  0  0  0
    7.2739  -15.6099   23.9114 C   0  0  1  0  0  0  0  0  0  0  0  0
    7.4389  -17.1238   24.0960 C   0  0  0  0  0  0  0  0  0  0  0  0
    6.6190  -17.9486   23.2307 C   0  0  0  0  0  0  0  0  0  0  0  0
    5.3519  -17.8073   23.3381 O   0  0  0  0  0  0  0  0  0  0  0  0
    8.0273  -14.8259   24.9085 C   0  0  0  0  0  0  0  0  0  0  0  0
    9.3020  -14.9769   24.9412 O   0  0  0  0  0  0  0  0  0  0  0  0
    7.0529  -18.8749   22.2983 O   0  0  0  0  0  0  0  0  0  0  0  0
    7.4855  -13.9138   25.8367 N   0  0  0  0  0  0  0  0  0  0  0  0
    6.1052  -13.4711   25.8608 C   0  0  0  0  0  0  0  0  0  0  0  0
    6.2063  -12.0478   26.4374 C   0  0  0  0  0  0  0  0  0  0  0  0
    7.2196  -12.3344   27.5563 C   0  0  0  0  0  0  0  0  0  0  0  0
    8.1895  -13.2303   26.8740 C   0  0  1  0  0  0  0  0  0  0  0  0
    8.8940  -14.1472   27.8025 C   0  0  0  0  0  0  0  0  0  0  0  0
    9.7543  -13.7968   28.6187 O   0  0  0  0  0  0  0  0  0  0  0  0
    8.5502  -15.4986   27.7381 O   0  0  0  0  0  0  0  0  0  0  0  0
  2  4  1  0
  2  1  1  0
  3  2  2  0
  4  5  1  0
  5  7  1  0
  5  6  1  6
  7  8  2  0
  9 10  1  0
  9  7  1  0
 10 14  1  0
 10 11  1  1
 12 11  1  0
 12 13  2  0
 14 15  2  0
 14 17  1  0
 16 12  1  0
 17 21  1  0
 17 18  1  0
 18 19  1  0
 19 20  1  0
 21 20  1  0
 21 22  1  1
 23 22  2  0
 24 22  1  0
M  END
$$$$
