NDP.pdb
     RDKit          3D

 24 24  0  0  1  0  0  0  0  0999 V2000
    9.2732  -14.6491   17.8931 N   0  0  0  0  0  0  0  0  0  0  0  0
    8.7338  -13.4406   18.3886 C   0  0  0  0  0  0  0  0  0  0  0  0
    8.9066  -12.4031   17.6963 O   0  0  0  0  0  0  0  0  0  0  0  0
    7.9957  -13.4195   19.6780 C   0  0  0  0  0  0  0  0  0  0  0  0
    7.9608  -14.8333   20.2209 C   0  0  2  0  0  0  0  0  0  0  0  0
    7.2049  -15.6755   19.3052 N   0  0  0  0  0  0  0  0  0  0  0  0
    7.2599  -14.8873   21.5370 C   0  0  0  0  0  0  0  0  0  0  0  0
    6.1147  -14.3787   21.7169 O   0  0  0  0  0  0  0  0  0  0  0  0
    7.9047  -15.5273   22.6044 N   0  0  0  0  0  0  0  0  0  0  0  0
    7.2560  -15.6920   23.9337 C   0  0  1  0  0  0  0  0  0  0  0  0
    7.2227  -17.2196   24.0691 C   0  0  0  0  0  0  0  0  0  0  0  0
    6.8121  -17.7200   25.3663 C   0  0  0  0  0  0  0  0  0  0  0  0
    5.7199  -17.2519   25.8406 O   0  0  0  0  0  0  0  0  0  0  0  0
    8.1310  -15.0477   24.9316 C   0  0  0  0  0  0  0  0  0  0  0  0
    9.3850  -15.3202   24.8846 O   0  0  0  0  0  0  0  0  0  0  0  0
    7.4700  -18.6498   26.1525 O   0  0  0  0  0  0  0  0  0  0  0  0
    7.7277  -14.1492   25.9401 N   0  0  0  0  0  0  0  0  0  0  0  0
    6.3888  -13.6147   26.0925 C   0  0  0  0  0  0  0  0  0  0  0  0
    6.6354  -12.2329   26.7238 C   0  0  0  0  0  0  0  0  0  0  0  0
    7.7064  -12.6451   27.7455 C   0  0  0  0  0  0  0  0  0  0  0  0
    8.5551  -13.5693   26.9491 C   0  0  1  0  0  0  0  0  0  0  0  0
    9.2591  -14.5786   27.7767 C   0  0  0  0  0  0  0  0  0  0  0  0
    8.9840  -15.7839   27.8008 O   0  0  0  0  0  0  0  0  0  0  0  0
   10.3044  -14.1193   28.5799 O   0  0  0  0  0  0  0  0  0  0  0  0
  2  4  1  0
  2  1  1  0
  3  2  2  0
  4  5  1  0
  5  7  1  0
  5  6  1  6
  7  8  2  0
  9 10  1  0
  9  7  1  0
 10 14  1  0
 10 11  1  1
 12 11  1  0
 12 13  2  0
 14 15  2  0
 14 17  1  0
 16 12  1  0
 17 21  1  0
 17 18  1  0
 18 19  1  0
 19 20  1  0
 21 20  1  0
 21 22  1  1
 23 22  2  0
 24 22  1  0
M  END
$$$$
