NDP.pdb
     RDKit          3D

 24 24  0  0  1  0  0  0  0  0999 V2000
    2.3722  -28.2758   29.7653 N   0  0  0  0  0  0  0  0  0  0  0  0
    2.1791  -26.9657   30.2586 C   0  0  0  0  0  0  0  0  0  0  0  0
    2.6655  -26.6952   31.3881 O   0  0  0  0  0  0  0  0  0  0  0  0
    1.4284  -25.9639   29.4580 C   0  0  0  0  0  0  0  0  0  0  0  0
    0.9794  -26.6314   28.1745 C   0  0  2  0  0  0  0  0  0  0  0  0
    2.1070  -26.7033   27.2565 N   0  0  0  0  0  0  0  0  0  0  0  0
   -0.0815  -25.8321   27.4948 C   0  0  0  0  0  0  0  0  0  0  0  0
    0.1861  -24.9382   26.6394 O   0  0  0  0  0  0  0  0  0  0  0  0
   -1.4189  -26.0909   27.8253 N   0  0  0  0  0  0  0  0  0  0  0  0
   -2.5463  -25.3686   27.1754 C   0  0  1  0  0  0  0  0  0  0  0  0
   -3.5489  -26.5077   26.9515 C   0  0  0  0  0  0  0  0  0  0  0  0
   -4.7787  -26.1310   26.2827 C   0  0  0  0  0  0  0  0  0  0  0  0
   -5.6637  -27.0461   26.1541 O   0  0  0  0  0  0  0  0  0  0  0  0
   -3.0317  -24.3589   28.1353 C   0  0  0  0  0  0  0  0  0  0  0  0
   -3.1622  -24.7202   29.3606 O   0  0  0  0  0  0  0  0  0  0  0  0
   -5.1051  -24.8894   25.7656 O   0  0  0  0  0  0  0  0  0  0  0  0
   -3.3662  -23.0211   27.8428 N   0  0  0  0  0  0  0  0  0  0  0  0
   -3.1426  -22.3662   26.5690 C   0  0  0  0  0  0  0  0  0  0  0  0
   -2.9261  -20.8953   26.9672 C   0  0  0  0  0  0  0  0  0  0  0  0
   -4.0531  -20.7797   28.0052 C   0  0  0  0  0  0  0  0  0  0  0  0
   -3.9296  -22.0649   28.7412 C   0  0  1  0  0  0  0  0  0  0  0  0
   -5.2043  -22.5170   29.3495 C   0  0  0  0  0  0  0  0  0  0  0  0
   -5.9071  -23.4342   28.9093 O   0  0  0  0  0  0  0  0  0  0  0  0
   -5.6269  -21.8495   30.5004 O   0  0  0  0  0  0  0  0  0  0  0  0
  2  4  1  0
  2  1  1  0
  3  2  2  0
  4  5  1  0
  5  7  1  0
  5  6  1  6
  7  8  2  0
  9 10  1  0
  9  7  1  0
 10 14  1  0
 10 11  1  1
 12 11  1  0
 12 13  2  0
 14 15  2  0
 14 17  1  0
 16 12  1  0
 17 21  1  0
 17 18  1  0
 18 19  1  0
 19 20  1  0
 21 20  1  0
 21 22  1  6
 23 22  2  0
 24 22  1  0
M  END
$$$$
