NDP.pdb
     RDKit          3D

 24 24  0  0  1  0  0  0  0  0999 V2000
    7.2957  -13.7502   16.8396 N   0  0  0  0  0  0  0  0  0  0  0  0
    8.1204  -13.4815   17.9553 C   0  0  0  0  0  0  0  0  0  0  0  0
    9.3569  -13.3674   17.7466 O   0  0  0  0  0  0  0  0  0  0  0  0
    7.5291  -13.3431   19.3114 C   0  0  0  0  0  0  0  0  0  0  0  0
    8.3685  -14.1579   20.2737 C   0  0  2  0  0  0  0  0  0  0  0  0
    8.3990  -15.5419   19.8234 N   0  0  0  0  0  0  0  0  0  0  0  0
    7.7700  -14.1607   21.6405 C   0  0  0  0  0  0  0  0  0  0  0  0
    7.1718  -13.1538   22.1210 O   0  0  0  0  0  0  0  0  0  0  0  0
    7.8818  -15.3273   22.4095 N   0  0  0  0  0  0  0  0  0  0  0  0
    7.1817  -15.4829   23.7136 C   0  0  1  0  0  0  0  0  0  0  0  0
    7.0798  -17.0095   23.8242 C   0  0  0  0  0  0  0  0  0  0  0  0
    6.1043  -17.6323   22.9513 C   0  0  0  0  0  0  0  0  0  0  0  0
    4.8924  -17.2412   23.0762 O   0  0  0  0  0  0  0  0  0  0  0  0
    8.0483  -14.8903   24.7501 C   0  0  0  0  0  0  0  0  0  0  0  0
    9.2813  -15.2484   24.7679 O   0  0  0  0  0  0  0  0  0  0  0  0
    6.3361  -18.6054   21.9947 O   0  0  0  0  0  0  0  0  0  0  0  0
    7.6581  -13.9565   25.7314 N   0  0  0  0  0  0  0  0  0  0  0  0
    6.3882  -13.2578   25.7580 C   0  0  0  0  0  0  0  0  0  0  0  0
    6.7390  -11.9239   26.4408 C   0  0  0  0  0  0  0  0  0  0  0  0
    7.6380  -12.4773   27.5573 C   0  0  0  0  0  0  0  0  0  0  0  0
    8.4423  -13.4949   26.8318 C   0  0  1  0  0  0  0  0  0  0  0  0
    8.9246  -14.5924   27.7048 C   0  0  0  0  0  0  0  0  0  0  0  0
    8.4806  -15.7463   27.6940 O   0  0  0  0  0  0  0  0  0  0  0  0
    9.9535  -14.2845   28.5967 O   0  0  0  0  0  0  0  0  0  0  0  0
  2  4  1  0
  2  1  1  0
  3  2  2  0
  4  5  1  0
  5  7  1  0
  5  6  1  6
  7  8  2  0
  9 10  1  0
  9  7  1  0
 10 14  1  0
 10 11  1  1
 12 11  1  0
 12 13  2  0
 14 15  2  0
 14 17  1  0
 16 12  1  0
 17 21  1  0
 17 18  1  0
 18 19  1  0
 19 20  1  0
 21 20  1  0
 21 22  1  1
 23 22  2  0
 24 22  1  0
M  END
$$$$
