NDP.pdb
     RDKit          3D

 24 24  0  0  1  0  0  0  0  0999 V2000
    9.1168  -12.5764   17.5662 N   0  0  0  0  0  0  0  0  0  0  0  0
    8.6194  -13.8560   17.9008 C   0  0  0  0  0  0  0  0  0  0  0  0
    9.0142  -14.8299   17.2070 O   0  0  0  0  0  0  0  0  0  0  0  0
    7.6688  -14.0214   19.0308 C   0  0  0  0  0  0  0  0  0  0  0  0
    8.4681  -14.0316   20.3175 C   0  0  2  0  0  0  0  0  0  0  0  0
    9.5158  -15.0374   20.2182 N   0  0  0  0  0  0  0  0  0  0  0  0
    7.6125  -14.4114   21.4795 C   0  0  0  0  0  0  0  0  0  0  0  0
    6.4033  -14.0499   21.5782 O   0  0  0  0  0  0  0  0  0  0  0  0
    8.1814  -15.1969   22.4915 N   0  0  0  0  0  0  0  0  0  0  0  0
    7.4426  -15.5330   23.7389 C   0  0  1  0  0  0  0  0  0  0  0  0
    7.6316  -17.0539   23.8044 C   0  0  0  0  0  0  0  0  0  0  0  0
    7.1299  -17.6915   25.0057 C   0  0  0  0  0  0  0  0  0  0  0  0
    6.1525  -17.1131   25.5950 O   0  0  0  0  0  0  0  0  0  0  0  0
    8.1097  -14.8248   24.8480 C   0  0  0  0  0  0  0  0  0  0  0  0
    9.3743  -14.9989   24.9873 O   0  0  0  0  0  0  0  0  0  0  0  0
    7.5899  -18.8591   25.5895 O   0  0  0  0  0  0  0  0  0  0  0  0
    7.4948  -13.9627   25.7785 N   0  0  0  0  0  0  0  0  0  0  0  0
    6.1547  -13.4237   25.6553 C   0  0  0  0  0  0  0  0  0  0  0  0
    6.2563  -12.0694   26.3792 C   0  0  0  0  0  0  0  0  0  0  0  0
    7.0779  -12.5293   27.5933 C   0  0  0  0  0  0  0  0  0  0  0  0
    8.0810  -13.4289   26.9661 C   0  0  1  0  0  0  0  0  0  0  0  0
    8.5875  -14.4749   27.8872 C   0  0  0  0  0  0  0  0  0  0  0  0
    8.2505  -15.6641   27.8540 O   0  0  0  0  0  0  0  0  0  0  0  0
    9.5098  -14.0722   28.8546 O   0  0  0  0  0  0  0  0  0  0  0  0
  2  4  1  0
  2  1  1  0
  3  2  2  0
  4  5  1  0
  5  7  1  0
  5  6  1  6
  7  8  2  0
  9 10  1  0
  9  7  1  0
 10 14  1  0
 10 11  1  1
 12 11  1  0
 12 13  2  0
 14 15  2  0
 14 17  1  0
 16 12  1  0
 17 21  1  0
 17 18  1  0
 18 19  1  0
 19 20  1  0
 21 20  1  0
 21 22  1  1
 23 22  2  0
 24 22  1  0
M  END
$$$$
