NDP.pdb
     RDKit          3D

 24 24  0  0  1  0  0  0  0  0999 V2000
    7.2904  -12.8359   19.5156 N   0  0  0  0  0  0  0  0  0  0  0  0
    8.3790  -13.5082   18.9157 C   0  0  0  0  0  0  0  0  0  0  0  0
    8.3426  -13.6695   17.6674 O   0  0  0  0  0  0  0  0  0  0  0  0
    9.5108  -13.9965   19.7456 C   0  0  0  0  0  0  0  0  0  0  0  0
    9.1943  -15.4118   20.1830 C   0  0  2  0  0  0  0  0  0  0  0  0
    8.6782  -16.1571   19.0439 N   0  0  0  0  0  0  0  0  0  0  0  0
    8.1296  -15.4268   21.2282 C   0  0  0  0  0  0  0  0  0  0  0  0
    6.9348  -15.7595   20.9744 O   0  0  0  0  0  0  0  0  0  0  0  0
    8.4789  -15.0565   22.5341 N   0  0  0  0  0  0  0  0  0  0  0  0
    7.5878  -15.3249   23.6955 C   0  0  1  0  0  0  0  0  0  0  0  0
    7.6334  -16.8565   23.7668 C   0  0  0  0  0  0  0  0  0  0  0  0
    6.4123  -17.4945   24.2175 C   0  0  0  0  0  0  0  0  0  0  0  0
    5.3214  -16.8640   23.9948 O   0  0  0  0  0  0  0  0  0  0  0  0
    8.1963  -14.6784   24.8738 C   0  0  0  0  0  0  0  0  0  0  0  0
    9.4182  -14.9670   25.1435 O   0  0  0  0  0  0  0  0  0  0  0  0
    6.2922  -18.7125   24.8637 O   0  0  0  0  0  0  0  0  0  0  0  0
    7.5682  -13.7619   25.7414 N   0  0  0  0  0  0  0  0  0  0  0  0
    6.2509  -13.1918   25.5384 C   0  0  0  0  0  0  0  0  0  0  0  0
    6.3614  -11.8120   26.2112 C   0  0  0  0  0  0  0  0  0  0  0  0
    7.1170  -12.2439   27.4775 C   0  0  0  0  0  0  0  0  0  0  0  0
    8.1189  -13.1959   26.9310 C   0  0  1  0  0  0  0  0  0  0  0  0
    8.5550  -14.2167   27.9144 C   0  0  0  0  0  0  0  0  0  0  0  0
    9.4120  -14.0320   28.7864 O   0  0  0  0  0  0  0  0  0  0  0  0
    7.9449  -15.4699   27.8370 O   0  0  0  0  0  0  0  0  0  0  0  0
  2  4  1  0
  2  1  1  0
  3  2  2  0
  4  5  1  0
  5  7  1  0
  5  6  1  6
  7  8  2  0
  9 10  1  0
  9  7  1  0
 10 14  1  0
 10 11  1  1
 12 11  1  0
 12 13  2  0
 14 15  2  0
 14 17  1  0
 16 12  1  0
 17 21  1  0
 17 18  1  0
 18 19  1  0
 19 20  1  0
 21 20  1  0
 21 22  1  1
 23 22  2  0
 24 22  1  0
M  END
$$$$
