NDP.pdb
     RDKit          3D

 24 24  0  0  1  0  0  0  0  0999 V2000
    8.5989  -14.5493   16.7449 N   0  0  0  0  0  0  0  0  0  0  0  0
    8.1029  -14.3503   18.0531 C   0  0  0  0  0  0  0  0  0  0  0  0
    7.7312  -15.3697   18.6922 O   0  0  0  0  0  0  0  0  0  0  0  0
    8.0323  -12.9831   18.6307 C   0  0  0  0  0  0  0  0  0  0  0  0
    8.7786  -12.9923   19.9488 C   0  0  2  0  0  0  0  0  0  0  0  0
    9.8257  -14.0022   19.8951 N   0  0  0  0  0  0  0  0  0  0  0  0
    7.8751  -13.3655   21.0761 C   0  0  0  0  0  0  0  0  0  0  0  0
    6.8006  -12.7418   21.3191 O   0  0  0  0  0  0  0  0  0  0  0  0
    8.2418  -14.4479   21.8877 N   0  0  0  0  0  0  0  0  0  0  0  0
    7.4171  -14.8781   23.0495 C   0  0  1  0  0  0  0  0  0  0  0  0
    7.5008  -16.4054   22.9335 C   0  0  0  0  0  0  0  0  0  0  0  0
    8.7866  -16.9848   23.2690 C   0  0  0  0  0  0  0  0  0  0  0  0
    9.8098  -16.4822   22.6880 O   0  0  0  0  0  0  0  0  0  0  0  0
    8.0699  -14.3596   24.2667 C   0  0  0  0  0  0  0  0  0  0  0  0
    9.3300  -14.5690   24.3987 O   0  0  0  0  0  0  0  0  0  0  0  0
    9.0336  -18.0237   24.1495 O   0  0  0  0  0  0  0  0  0  0  0  0
    7.4460  -13.6453   25.3096 N   0  0  0  0  0  0  0  0  0  0  0  0
    6.0664  -13.2001   25.3049 C   0  0  0  0  0  0  0  0  0  0  0  0
    6.1102  -11.9221   26.1614 C   0  0  0  0  0  0  0  0  0  0  0  0
    7.0259  -12.4387   27.2819 C   0  0  0  0  0  0  0  0  0  0  0  0
    8.0554  -13.1914   26.5185 C   0  0  1  0  0  0  0  0  0  0  0  0
    8.6831  -14.2838   27.3008 C   0  0  0  0  0  0  0  0  0  0  0  0
    8.4515  -15.4875   27.1387 O   0  0  0  0  0  0  0  0  0  0  0  0
    9.5984  -13.9099   28.2862 O   0  0  0  0  0  0  0  0  0  0  0  0
  2  4  1  0
  2  1  1  0
  3  2  2  0
  4  5  1  0
  5  7  1  0
  5  6  1  6
  7  8  2  0
  9 10  1  0
  9  7  1  0
 10 14  1  0
 10 11  1  1
 12 11  1  0
 12 13  2  0
 14 15  2  0
 14 17  1  0
 16 12  1  0
 17 21  1  0
 17 18  1  0
 18 19  1  0
 19 20  1  0
 21 20  1  0
 21 22  1  1
 23 22  2  0
 24 22  1  0
M  END
$$$$
