NDP.pdb
     RDKit          3D

 24 24  0  0  1  0  0  0  0  0999 V2000
    8.9365  -12.5656   17.9123 N   0  0  0  0  0  0  0  0  0  0  0  0
    8.3124  -13.8321   17.9702 C   0  0  0  0  0  0  0  0  0  0  0  0
    8.5484  -14.6369   17.0309 O   0  0  0  0  0  0  0  0  0  0  0  0
    7.4172  -14.1780   19.1046 C   0  0  0  0  0  0  0  0  0  0  0  0
    8.2774  -14.6938   20.2397 C   0  0  2  0  0  0  0  0  0  0  0  0
    8.8617  -15.9693   19.8515 N   0  0  0  0  0  0  0  0  0  0  0  0
    7.4603  -14.9463   21.4624 C   0  0  0  0  0  0  0  0  0  0  0  0
    6.2129  -15.1567   21.4130 O   0  0  0  0  0  0  0  0  0  0  0  0
    8.1104  -14.9477   22.7042 N   0  0  0  0  0  0  0  0  0  0  0  0
    7.3924  -15.2577   23.9704 C   0  0  1  0  0  0  0  0  0  0  0  0
    7.2271  -16.7789   23.8621 C   0  0  0  0  0  0  0  0  0  0  0  0
    6.7197  -17.4354   25.0508 C   0  0  0  0  0  0  0  0  0  0  0  0
    5.5732  -17.0527   25.4706 O   0  0  0  0  0  0  0  0  0  0  0  0
    8.2728  -14.8553   25.0837 C   0  0  0  0  0  0  0  0  0  0  0  0
    9.4516  -15.3631   25.1207 O   0  0  0  0  0  0  0  0  0  0  0  0
    7.3370  -18.4326   25.7857 O   0  0  0  0  0  0  0  0  0  0  0  0
    7.9505  -13.9561   26.1204 N   0  0  0  0  0  0  0  0  0  0  0  0
    6.7289  -13.1797   26.1997 C   0  0  0  0  0  0  0  0  0  0  0  0
    7.1702  -11.9125   26.9536 C   0  0  0  0  0  0  0  0  0  0  0  0
    8.0385  -12.5859   28.0275 C   0  0  0  0  0  0  0  0  0  0  0  0
    8.7703  -13.6100   27.2372 C   0  0  1  0  0  0  0  0  0  0  0  0
    9.1860  -14.7845   28.0415 C   0  0  0  0  0  0  0  0  0  0  0  0
    8.6924  -15.9140   27.9436 O   0  0  0  0  0  0  0  0  0  0  0  0
   10.2084  -14.5842   28.9706 O   0  0  0  0  0  0  0  0  0  0  0  0
  2  4  1  0
  2  1  1  0
  3  2  2  0
  4  5  1  0
  5  7  1  0
  5  6  1  6
  7  8  2  0
  9 10  1  0
  9  7  1  0
 10 14  1  0
 10 11  1  1
 12 11  1  0
 12 13  2  0
 14 15  2  0
 14 17  1  0
 16 12  1  0
 17 21  1  0
 17 18  1  0
 18 19  1  0
 19 20  1  0
 21 20  1  0
 21 22  1  1
 23 22  2  0
 24 22  1  0
M  END
$$$$
