NDP.pdb
     RDKit          3D

 24 24  0  0  1  0  0  0  0  0999 V2000
    8.3073  -12.4937   17.5113 N   0  0  0  0  0  0  0  0  0  0  0  0
    8.1530  -13.8380   17.9188 C   0  0  0  0  0  0  0  0  0  0  0  0
    8.7061  -14.7231   17.2144 O   0  0  0  0  0  0  0  0  0  0  0  0
    7.3648  -14.1695   19.1340 C   0  0  0  0  0  0  0  0  0  0  0  0
    8.2329  -13.8952   20.3446 C   0  0  2  0  0  0  0  0  0  0  0  0
    9.5118  -14.5697   20.1751 N   0  0  0  0  0  0  0  0  0  0  0  0
    7.6146  -14.4457   21.5860 C   0  0  0  0  0  0  0  0  0  0  0  0
    6.3942  -14.2686   21.8719 O   0  0  0  0  0  0  0  0  0  0  0  0
    8.4264  -15.1835   22.4586 N   0  0  0  0  0  0  0  0  0  0  0  0
    7.9242  -15.6910   23.7644 C   0  0  1  0  0  0  0  0  0  0  0  0
    8.5133  -17.1071   23.7878 C   0  0  0  0  0  0  0  0  0  0  0  0
    7.8260  -18.0800   22.9617 C   0  0  0  0  0  0  0  0  0  0  0  0
    8.4977  -18.5904   21.9997 O   0  0  0  0  0  0  0  0  0  0  0  0
    8.4825  -14.8211   24.8171 C   0  0  0  0  0  0  0  0  0  0  0  0
    9.7562  -14.8306   24.9803 O   0  0  0  0  0  0  0  0  0  0  0  0
    6.5209  -18.5209   23.0960 O   0  0  0  0  0  0  0  0  0  0  0  0
    7.7532  -13.9668   25.6687 N   0  0  0  0  0  0  0  0  0  0  0  0
    6.3773  -13.5601   25.4610 C   0  0  0  0  0  0  0  0  0  0  0  0
    6.3264  -12.1630   26.1044 C   0  0  0  0  0  0  0  0  0  0  0  0
    7.1312  -12.4759   27.3753 C   0  0  0  0  0  0  0  0  0  0  0  0
    8.2367  -13.3147   26.8434 C   0  0  1  0  0  0  0  0  0  0  0  0
    8.7928  -14.2559   27.8455 C   0  0  0  0  0  0  0  0  0  0  0  0
    8.5848  -15.4747   27.8568 O   0  0  0  0  0  0  0  0  0  0  0  0
    9.6072  -13.7113   28.8401 O   0  0  0  0  0  0  0  0  0  0  0  0
  2  4  1  0
  2  1  1  0
  3  2  2  0
  4  5  1  0
  5  7  1  0
  5  6  1  6
  7  8  2  0
  9 10  1  0
  9  7  1  0
 10 14  1  0
 10 11  1  1
 12 11  1  0
 12 13  2  0
 14 15  2  0
 14 17  1  0
 16 12  1  0
 17 21  1  0
 17 18  1  0
 18 19  1  0
 19 20  1  0
 21 20  1  0
 21 22  1  1
 23 22  2  0
 24 22  1  0
M  END
$$$$
