NDP.pdb
     RDKit          3D

 24 24  0  0  1  0  0  0  0  0999 V2000
    9.6411  -12.9284   18.1166 N   0  0  0  0  0  0  0  0  0  0  0  0
    8.2784  -13.2662   17.9556 C   0  0  0  0  0  0  0  0  0  0  0  0
    7.7931  -13.1765   16.7971 O   0  0  0  0  0  0  0  0  0  0  0  0
    7.4702  -13.7071   19.1219 C   0  0  0  0  0  0  0  0  0  0  0  0
    8.3685  -13.7062   20.3415 C   0  0  2  0  0  0  0  0  0  0  0  0
    9.4349  -14.6779   20.1469 N   0  0  0  0  0  0  0  0  0  0  0  0
    7.6193  -14.1247   21.5621 C   0  0  0  0  0  0  0  0  0  0  0  0
    6.5144  -13.6023   21.8920 O   0  0  0  0  0  0  0  0  0  0  0  0
    8.1706  -15.1339   22.3636 N   0  0  0  0  0  0  0  0  0  0  0  0
    7.5494  -15.5464   23.6515 C   0  0  1  0  0  0  0  0  0  0  0  0
    7.9353  -17.0297   23.7144 C   0  0  0  0  0  0  0  0  0  0  0  0
    7.4023  -17.8564   22.6495 C   0  0  0  0  0  0  0  0  0  0  0  0
    6.1517  -18.1217   22.7024 O   0  0  0  0  0  0  0  0  0  0  0  0
    8.1788  -14.7453   24.7186 C   0  0  0  0  0  0  0  0  0  0  0  0
    9.4575  -14.7987   24.8241 O   0  0  0  0  0  0  0  0  0  0  0  0
    8.0952  -18.3931   21.5783 O   0  0  0  0  0  0  0  0  0  0  0  0
    7.5132  -13.9137   25.6418 N   0  0  0  0  0  0  0  0  0  0  0  0
    6.1125  -13.5465   25.5727 C   0  0  0  0  0  0  0  0  0  0  0  0
    6.0856  -12.1524   26.2243 C   0  0  0  0  0  0  0  0  0  0  0  0
    7.0206  -12.4441   27.4081 C   0  0  0  0  0  0  0  0  0  0  0  0
    8.0916  -13.2499   26.7660 C   0  0  1  0  0  0  0  0  0  0  0  0
    8.7706  -14.1763   27.7041 C   0  0  0  0  0  0  0  0  0  0  0  0
    9.5959  -13.8323   28.5581 O   0  0  0  0  0  0  0  0  0  0  0  0
    8.4436  -15.5297   27.6030 O   0  0  0  0  0  0  0  0  0  0  0  0
  2  4  1  0
  2  1  1  0
  3  2  2  0
  4  5  1  0
  5  7  1  0
  5  6  1  6
  7  8  2  0
  9 10  1  0
  9  7  1  0
 10 14  1  0
 10 11  1  1
 12 11  1  0
 12 13  2  0
 14 15  2  0
 14 17  1  0
 16 12  1  0
 17 21  1  0
 17 18  1  0
 18 19  1  0
 19 20  1  0
 21 20  1  0
 21 22  1  1
 23 22  2  0
 24 22  1  0
M  END
$$$$
