NDP.pdb
     RDKit          3D

 24 24  0  0  1  0  0  0  0  0999 V2000
    6.2641  -22.1563   23.8144 N   0  0  0  0  0  0  0  0  0  0  0  0
    7.0018  -20.9887   23.5151 C   0  0  0  0  0  0  0  0  0  0  0  0
    8.1328  -20.8648   24.0547 O   0  0  0  0  0  0  0  0  0  0  0  0
    6.4445  -19.9618   22.5972 C   0  0  0  0  0  0  0  0  0  0  0  0
    5.6126  -18.9999   23.4202 C   0  0  2  0  0  0  0  0  0  0  0  0
    4.3745  -18.7142   22.7097 N   0  0  0  0  0  0  0  0  0  0  0  0
    6.3179  -17.6975   23.6014 C   0  0  0  0  0  0  0  0  0  0  0  0
    6.3857  -17.1132   24.7224 O   0  0  0  0  0  0  0  0  0  0  0  0
    6.9226  -17.1109   22.4812 N   0  0  0  0  0  0  0  0  0  0  0  0
    8.0042  -16.0965   22.6088 C   0  0  1  0  0  0  0  0  0  0  0  0
    9.0889  -16.8983   23.3393 C   0  0  0  0  0  0  0  0  0  0  0  0
   10.3474  -16.2062   23.5357 C   0  0  0  0  0  0  0  0  0  0  0  0
   10.3862  -15.3469   24.4829 O   0  0  0  0  0  0  0  0  0  0  0  0
    8.4027  -15.7061   21.2431 C   0  0  0  0  0  0  0  0  0  0  0  0
    8.8486  -16.6286   20.4690 O   0  0  0  0  0  0  0  0  0  0  0  0
   11.5158  -16.3699   22.8120 O   0  0  0  0  0  0  0  0  0  0  0  0
    8.3390  -14.4100   20.6926 N   0  0  0  0  0  0  0  0  0  0  0  0
    7.8778  -13.2286   21.3950 C   0  0  0  0  0  0  0  0  0  0  0  0
    7.2841  -12.3637   20.2689 C   0  0  0  0  0  0  0  0  0  0  0  0
    8.3869  -12.5786   19.2209 C   0  0  0  0  0  0  0  0  0  0  0  0
    8.6615  -14.0332   19.3536 C   0  0  1  0  0  0  0  0  0  0  0  0
   10.0410  -14.4078   18.9588 C   0  0  0  0  0  0  0  0  0  0  0  0
   10.9470  -14.6904   19.7515 O   0  0  0  0  0  0  0  0  0  0  0  0
   10.3204  -14.4392   17.5915 O   0  0  0  0  0  0  0  0  0  0  0  0
  2  4  1  0
  2  1  1  0
  3  2  2  0
  4  5  1  0
  5  7  1  0
  5  6  1  6
  7  8  2  0
  9 10  1  0
  9  7  1  0
 10 14  1  0
 10 11  1  6
 12 11  1  0
 12 13  2  0
 14 15  2  0
 14 17  1  0
 16 12  1  0
 17 21  1  0
 17 18  1  0
 18 19  1  0
 19 20  1  0
 21 20  1  0
 21 22  1  1
 23 22  2  0
 24 22  1  0
M  END
$$$$
