NDP.pdb
     RDKit          3D

 24 24  0  0  1  0  0  0  0  0999 V2000
    8.4625  -12.8824   17.4258 N   0  0  0  0  0  0  0  0  0  0  0  0
    8.8967  -13.3419   18.6896 C   0  0  0  0  0  0  0  0  0  0  0  0
   10.1176  -13.6235   18.8147 O   0  0  0  0  0  0  0  0  0  0  0  0
    7.9323  -13.4792   19.8117 C   0  0  0  0  0  0  0  0  0  0  0  0
    8.0718  -14.8760   20.3808 C   0  0  2  0  0  0  0  0  0  0  0  0
    7.5082  -15.8317   19.4384 N   0  0  0  0  0  0  0  0  0  0  0  0
    7.3041  -15.0182   21.6524 C   0  0  0  0  0  0  0  0  0  0  0  0
    6.0660  -14.7657   21.7290 O   0  0  0  0  0  0  0  0  0  0  0  0
    7.9916  -15.4476   22.7960 N   0  0  0  0  0  0  0  0  0  0  0  0
    7.3234  -15.5656   24.1206 C   0  0  1  0  0  0  0  0  0  0  0  0
    7.4267  -17.0739   24.3804 C   0  0  0  0  0  0  0  0  0  0  0  0
    6.5467  -17.9041   23.5818 C   0  0  0  0  0  0  0  0  0  0  0  0
    5.2996  -17.8518   23.8630 O   0  0  0  0  0  0  0  0  0  0  0  0
    8.1068  -14.7642   25.0800 C   0  0  0  0  0  0  0  0  0  0  0  0
    9.3829  -14.9066   25.0685 O   0  0  0  0  0  0  0  0  0  0  0  0
    6.9039  -18.7497   22.5460 O   0  0  0  0  0  0  0  0  0  0  0  0
    7.5924  -13.8438   26.0157 N   0  0  0  0  0  0  0  0  0  0  0  0
    6.2366  -13.3308   26.0205 C   0  0  0  0  0  0  0  0  0  0  0  0
    6.3980  -11.9263   26.6287 C   0  0  0  0  0  0  0  0  0  0  0  0
    7.3707  -12.2871   27.7620 C   0  0  0  0  0  0  0  0  0  0  0  0
    8.3080  -13.2183   27.0814 C   0  0  1  0  0  0  0  0  0  0  0  0
    8.9442  -14.1887   28.0049 C   0  0  0  0  0  0  0  0  0  0  0  0
    8.6942  -15.3993   28.0341 O   0  0  0  0  0  0  0  0  0  0  0  0
    9.8905  -13.6836   28.8983 O   0  0  0  0  0  0  0  0  0  0  0  0
  2  4  1  0
  2  1  1  0
  3  2  2  0
  4  5  1  0
  5  7  1  0
  5  6  1  6
  7  8  2  0
  9 10  1  0
  9  7  1  0
 10 14  1  0
 10 11  1  1
 12 11  1  0
 12 13  2  0
 14 15  2  0
 14 17  1  0
 16 12  1  0
 17 21  1  0
 17 18  1  0
 18 19  1  0
 19 20  1  0
 21 20  1  0
 21 22  1  1
 23 22  2  0
 24 22  1  0
M  END
$$$$
