NDP.pdb
     RDKit          3D

 24 24  0  0  1  0  0  0  0  0999 V2000
    8.0408  -12.6153   17.5061 N   0  0  0  0  0  0  0  0  0  0  0  0
    8.5718  -13.1084   18.7193 C   0  0  0  0  0  0  0  0  0  0  0  0
    9.8139  -13.3093   18.7679 O   0  0  0  0  0  0  0  0  0  0  0  0
    7.6800  -13.3719   19.8783 C   0  0  0  0  0  0  0  0  0  0  0  0
    7.8644  -14.8174   20.2919 C   0  0  2  0  0  0  0  0  0  0  0  0
    7.2605  -15.6801   19.2867 N   0  0  0  0  0  0  0  0  0  0  0  0
    7.1680  -15.1014   21.5806 C   0  0  0  0  0  0  0  0  0  0  0  0
    5.9062  -15.1074   21.6827 O   0  0  0  0  0  0  0  0  0  0  0  0
    7.9519  -15.3695   22.7113 N   0  0  0  0  0  0  0  0  0  0  0  0
    7.3479  -15.6334   24.0457 C   0  0  1  0  0  0  0  0  0  0  0  0
    7.5089  -17.1548   24.1573 C   0  0  0  0  0  0  0  0  0  0  0  0
    7.1865  -17.7207   25.4524 C   0  0  0  0  0  0  0  0  0  0  0  0
    5.9891  -17.5493   25.8697 O   0  0  0  0  0  0  0  0  0  0  0  0
    8.1488  -14.8981   25.0428 C   0  0  0  0  0  0  0  0  0  0  0  0
    9.4069  -15.1500   25.0953 O   0  0  0  0  0  0  0  0  0  0  0  0
    8.0299  -18.4278   26.2916 O   0  0  0  0  0  0  0  0  0  0  0  0
    7.6700  -13.9324   25.9513 N   0  0  0  0  0  0  0  0  0  0  0  0
    6.3584  -13.3172   25.8982 C   0  0  0  0  0  0  0  0  0  0  0  0
    6.6029  -11.9235   26.5036 C   0  0  0  0  0  0  0  0  0  0  0  0
    7.4993  -12.3470   27.6775 C   0  0  0  0  0  0  0  0  0  0  0  0
    8.3886  -13.3535   27.0410 C   0  0  1  0  0  0  0  0  0  0  0  0
    8.9112  -14.3610   27.9954 C   0  0  0  0  0  0  0  0  0  0  0  0
    8.5657  -15.5479   28.0242 O   0  0  0  0  0  0  0  0  0  0  0  0
    9.8601  -13.9224   28.9205 O   0  0  0  0  0  0  0  0  0  0  0  0
  2  4  1  0
  2  1  1  0
  3  2  2  0
  4  5  1  0
  5  7  1  0
  5  6  1  6
  7  8  2  0
  9 10  1  0
  9  7  1  0
 10 14  1  0
 10 11  1  1
 12 11  1  0
 12 13  2  0
 14 15  2  0
 14 17  1  0
 16 12  1  0
 17 21  1  0
 17 18  1  0
 18 19  1  0
 19 20  1  0
 21 20  1  0
 21 22  1  1
 23 22  2  0
 24 22  1  0
M  END
$$$$
