NDP.pdb
     RDKit          3D

 24 24  0  0  1  0  0  0  0  0999 V2000
    8.7762  -12.0953   18.2824 N   0  0  0  0  0  0  0  0  0  0  0  0
    8.2998  -13.4133   18.1012 C   0  0  0  0  0  0  0  0  0  0  0  0
    8.6892  -14.0336   17.0768 O   0  0  0  0  0  0  0  0  0  0  0  0
    7.3765  -14.0222   19.0935 C   0  0  0  0  0  0  0  0  0  0  0  0
    8.2101  -14.7851   20.1023 C   0  0  2  0  0  0  0  0  0  0  0  0
    8.6711  -16.0260   19.4965 N   0  0  0  0  0  0  0  0  0  0  0  0
    7.3985  -15.1619   21.2962 C   0  0  0  0  0  0  0  0  0  0  0  0
    6.2762  -15.7395   21.1986 O   0  0  0  0  0  0  0  0  0  0  0  0
    7.9091  -14.8592   22.5660 N   0  0  0  0  0  0  0  0  0  0  0  0
    7.2005  -15.2496   23.8152 C   0  0  1  0  0  0  0  0  0  0  0  0
    7.2923  -16.7795   23.7519 C   0  0  0  0  0  0  0  0  0  0  0  0
    6.7901  -17.4811   24.9167 C   0  0  0  0  0  0  0  0  0  0  0  0
    7.6220  -18.2303   25.5363 O   0  0  0  0  0  0  0  0  0  0  0  0
    7.9562  -14.6768   24.9454 C   0  0  0  0  0  0  0  0  0  0  0  0
    9.1811  -15.0370   25.0828 O   0  0  0  0  0  0  0  0  0  0  0  0
    5.5082  -17.4324   25.4364 O   0  0  0  0  0  0  0  0  0  0  0  0
    7.4673  -13.7602   25.8982 N   0  0  0  0  0  0  0  0  0  0  0  0
    6.1327  -13.1940   25.9008 C   0  0  0  0  0  0  0  0  0  0  0  0
    6.3420  -11.8125   26.5461 C   0  0  0  0  0  0  0  0  0  0  0  0
    7.2859  -12.2397   27.6807 C   0  0  0  0  0  0  0  0  0  0  0  0
    8.1939  -13.1903   26.9873 C   0  0  1  0  0  0  0  0  0  0  0  0
    8.7800  -14.2078   27.8930 C   0  0  0  0  0  0  0  0  0  0  0  0
    9.6462  -13.9758   28.7443 O   0  0  0  0  0  0  0  0  0  0  0  0
    8.3096  -15.5156   27.7627 O   0  0  0  0  0  0  0  0  0  0  0  0
  2  4  1  0
  2  1  1  0
  3  2  2  0
  4  5  1  0
  5  7  1  0
  5  6  1  6
  7  8  2  0
  9 10  1  0
  9  7  1  0
 10 14  1  0
 10 11  1  1
 12 11  1  0
 12 13  2  0
 14 15  2  0
 14 17  1  0
 16 12  1  0
 17 21  1  0
 17 18  1  0
 18 19  1  0
 19 20  1  0
 21 20  1  0
 21 22  1  1
 23 22  2  0
 24 22  1  0
M  END
$$$$
