KCM.pdb
     RDKit          3D

 24 23  0  0  1  0  0  0  0  0999 V2000
    5.8461  -17.1935   20.6672 N   0  0  0  0  0  0  0  0  0  0  0  0
    7.1002  -16.7295   21.1521 C   0  0  1  0  0  0  0  0  0  0  0  0
    7.2873  -15.2869   20.8464 C   0  0  0  0  0  0  0  0  0  0  0  0
    7.7540  -14.9775   19.4576 C   0  0  0  0  0  0  0  0  0  0  0  0
    8.0816  -13.5495   19.1966 C   0  0  0  0  0  0  0  0  0  0  0  0
    8.5156  -13.4250   17.7220 C   0  0  0  0  0  0  0  0  0  0  0  0
    8.7541  -12.0301   17.4331 N   0  0  0  0  0  0  0  0  0  0  0  0
    7.3475  -17.0621   22.5752 C   0  0  0  0  0  0  0  0  0  0  0  0
    6.4546  -16.7797   23.4146 O   0  0  0  0  0  0  0  0  0  0  0  0
    8.5337  -17.6821   23.0526 N   0  0  0  0  0  0  0  0  0  0  0  0
    8.8924  -17.7682   24.4541 C   0  0  1  0  0  0  0  0  0  0  0  0
    9.7828  -18.9325   24.7524 C   0  0  0  0  0  0  0  0  0  0  0  0
   10.4273  -18.9180   26.4328 S   0  0  0  0  0  0  0  0  0  0  0  0
    9.4885  -16.5290   24.9753 C   0  0  0  0  0  0  0  0  0  0  0  0
   10.5140  -15.9843   24.5166 O   0  0  0  0  0  0  0  0  0  0  0  0
    5.8080  -11.7722   26.5141 C   0  0  0  0  0  0  0  0  0  0  0  0
    7.0619  -11.3843   27.7731 S   0  0  0  0  0  0  0  0  0  0  0  0
    8.4633  -12.4974   27.6235 C   0  0  0  0  0  0  0  0  0  0  0  0
    8.1581  -13.7774   26.9071 C   0  0  0  0  0  0  0  0  0  0  0  0
    9.3492  -14.6343   26.6151 C   0  0  2  0  0  0  0  0  0  0  0  0
    8.8532  -15.9029   26.0817 N   0  0  0  0  0  0  0  0  0  0  0  0
   10.0752  -14.9231   27.8639 C   0  0  0  0  0  0  0  0  0  0  0  0
   10.0792  -16.1847   28.4591 O   0  0  0  0  0  0  0  0  0  0  0  0
   10.7335  -14.0188   28.4562 O   0  0  0  0  0  0  0  0  0  0  0  0
  2  1  1  1
  3  2  1  0
  4  3  1  0
  5  6  1  0
  5  4  1  0
  7  6  1  0
  8  2  1  0
  8  9  2  0
 10 11  1  0
 10  8  1  0
 11 12  1  6
 12 13  1  0
 14 11  1  0
 15 14  2  0
 16 17  1  0
 18 19  1  0
 18 17  1  0
 20 19  1  1
 20 21  1  0
 21 14  1  0
 22 20  1  0
 22 23  1  0
 24 22  2  0
M  END
$$$$
