KCM.pdb
     RDKit          3D

 24 23  0  0  1  0  0  0  0  0999 V2000
    9.5618  -18.3319   18.2935 N   0  0  0  0  0  0  0  0  0  0  0  0
    9.6202  -19.2021   19.4172 C   0  0  1  0  0  0  0  0  0  0  0  0
   10.9764  -19.7931   19.5616 C   0  0  0  0  0  0  0  0  0  0  0  0
   12.1038  -18.8101   19.6313 C   0  0  0  0  0  0  0  0  0  0  0  0
   13.4663  -19.4042   19.7044 C   0  0  0  0  0  0  0  0  0  0  0  0
   14.4884  -18.2496   19.6826 C   0  0  0  0  0  0  0  0  0  0  0  0
   15.8168  -18.8159   19.7093 N   0  0  0  0  0  0  0  0  0  0  0  0
    9.1123  -18.5919   20.6689 C   0  0  0  0  0  0  0  0  0  0  0  0
    9.1730  -17.3413   20.7867 O   0  0  0  0  0  0  0  0  0  0  0  0
    8.5593  -19.3332   21.7477 N   0  0  0  0  0  0  0  0  0  0  0  0
    8.0377  -18.7308   22.9583 C   0  0  1  0  0  0  0  0  0  0  0  0
    7.0376  -19.6003   23.6520 C   0  0  0  0  0  0  0  0  0  0  0  0
    6.2210  -18.7789   25.0297 S   0  0  0  0  0  0  0  0  0  0  0  0
    9.0904  -18.3207   23.8996 C   0  0  0  0  0  0  0  0  0  0  0  0
   10.1707  -18.9239   24.0670 O   0  0  0  0  0  0  0  0  0  0  0  0
   10.5247  -13.0268   29.6747 C   0  0  0  0  0  0  0  0  0  0  0  0
    9.3431  -13.7160   28.4761 S   0  0  0  0  0  0  0  0  0  0  0  0
   10.1333  -14.9811   27.4758 C   0  0  0  0  0  0  0  0  0  0  0  0
    9.2422  -15.5882   26.4356 C   0  0  0  0  0  0  0  0  0  0  0  0
    9.8767  -16.6663   25.6152 C   0  0  2  0  0  0  0  0  0  0  0  0
    8.8651  -17.1525   24.6769 N   0  0  0  0  0  0  0  0  0  0  0  0
   10.2650  -17.7916   26.4829 C   0  0  0  0  0  0  0  0  0  0  0  0
   11.5745  -17.9883   26.9218 O   0  0  0  0  0  0  0  0  0  0  0  0
    9.4084  -18.6399   26.8684 O   0  0  0  0  0  0  0  0  0  0  0  0
  2  1  1  6
  3  2  1  0
  4  3  1  0
  5  6  1  0
  5  4  1  0
  7  6  1  0
  8  2  1  0
  8  9  2  0
 10 11  1  0
 10  8  1  0
 11 12  1  1
 12 13  1  0
 14 11  1  0
 15 14  2  0
 16 17  1  0
 18 19  1  0
 18 17  1  0
 20 19  1  1
 20 21  1  0
 21 14  1  0
 22 20  1  0
 22 23  1  0
 24 22  2  0
M  END
$$$$
