KCM.pdb
     RDKit          3D

 24 23  0  0  1  0  0  0  0  0999 V2000
    8.1843  -17.6825   20.6547 N   0  0  0  0  0  0  0  0  0  0  0  0
    9.0102  -16.5283   20.5589 C   0  0  1  0  0  0  0  0  0  0  0  0
    8.7470  -15.7899   19.2960 C   0  0  0  0  0  0  0  0  0  0  0  0
    9.4609  -16.3078   18.0858 C   0  0  0  0  0  0  0  0  0  0  0  0
    8.5931  -16.9297   17.0491 C   0  0  0  0  0  0  0  0  0  0  0  0
    9.4731  -17.2477   15.8232 C   0  0  0  0  0  0  0  0  0  0  0  0
    8.6525  -17.9000   14.8296 N   0  0  0  0  0  0  0  0  0  0  0  0
    8.9652  -15.6633   21.7618 C   0  0  0  0  0  0  0  0  0  0  0  0
    9.9158  -14.8626   21.9530 O   0  0  0  0  0  0  0  0  0  0  0  0
    7.9121  -15.6819   22.7157 N   0  0  0  0  0  0  0  0  0  0  0  0
    7.8549  -14.8111   23.8728 C   0  0  1  0  0  0  0  0  0  0  0  0
    6.4542  -14.5311   24.3167 C   0  0  0  0  0  0  0  0  0  0  0  0
    6.3485  -14.0033   26.0342 S   0  0  0  0  0  0  0  0  0  0  0  0
    8.6559  -15.3006   25.0047 C   0  0  0  0  0  0  0  0  0  0  0  0
    8.8813  -16.5038   25.2501 O   0  0  0  0  0  0  0  0  0  0  0  0
   12.0345  -14.7392   31.5273 C   0  0  0  0  0  0  0  0  0  0  0  0
   11.6388  -14.3254   29.8010 S   0  0  0  0  0  0  0  0  0  0  0  0
    9.8616  -14.1845   29.5835 C   0  0  0  0  0  0  0  0  0  0  0  0
    9.4402  -13.8015   28.1977 C   0  0  0  0  0  0  0  0  0  0  0  0
    9.8813  -14.7441   27.1229 C   0  0  2  0  0  0  0  0  0  0  0  0
    9.2161  -14.3362   25.8855 N   0  0  0  0  0  0  0  0  0  0  0  0
    9.4373  -16.1114   27.4443 C   0  0  0  0  0  0  0  0  0  0  0  0
   10.2881  -17.0709   27.9934 O   0  0  0  0  0  0  0  0  0  0  0  0
    8.2443  -16.4744   27.2277 O   0  0  0  0  0  0  0  0  0  0  0  0
  2  1  1  1
  3  2  1  0
  4  3  1  0
  5  6  1  0
  5  4  1  0
  7  6  1  0
  8  2  1  0
  8  9  2  0
 10 11  1  0
 10  8  1  0
 11 12  1  1
 12 13  1  0
 14 11  1  0
 15 14  2  0
 16 17  1  0
 18 19  1  0
 18 17  1  0
 20 19  1  1
 20 21  1  0
 21 14  1  0
 22 20  1  0
 22 23  1  0
 24 22  2  0
M  END
$$$$
