KCM.pdb
     RDKit          3D

 24 23  0  0  1  0  0  0  0  0999 V2000
    6.4921  -16.3599   21.3175 N   0  0  0  0  0  0  0  0  0  0  0  0
    7.8943  -16.4364   21.5441 C   0  0  1  0  0  0  0  0  0  0  0  0
    8.6370  -16.5112   20.2587 C   0  0  0  0  0  0  0  0  0  0  0  0
    7.8695  -17.0738   19.1025 C   0  0  0  0  0  0  0  0  0  0  0  0
    8.5911  -17.0854   17.8011 C   0  0  0  0  0  0  0  0  0  0  0  0
    7.6274  -17.6349   16.7299 C   0  0  0  0  0  0  0  0  0  0  0  0
    8.2832  -17.5605   15.4452 N   0  0  0  0  0  0  0  0  0  0  0  0
    8.4076  -15.3859   22.4553 C   0  0  0  0  0  0  0  0  0  0  0  0
    9.6506  -15.2034   22.5103 O   0  0  0  0  0  0  0  0  0  0  0  0
    7.5810  -14.5693   23.2733 N   0  0  0  0  0  0  0  0  0  0  0  0
    8.0415  -13.8990   24.4728 C   0  0  1  0  0  0  0  0  0  0  0  0
    7.1881  -12.7282   24.8446 C   0  0  0  0  0  0  0  0  0  0  0  0
    5.6277  -13.2034   25.6055 S   0  0  0  0  0  0  0  0  0  0  0  0
    8.1856  -14.8051   25.6221 C   0  0  0  0  0  0  0  0  0  0  0  0
    7.6536  -15.9309   25.7125 O   0  0  0  0  0  0  0  0  0  0  0  0
   12.5975  -19.6989   28.5354 C   0  0  0  0  0  0  0  0  0  0  0  0
   12.0380  -18.4710   27.3161 S   0  0  0  0  0  0  0  0  0  0  0  0
   10.9302  -17.2853   28.0860 C   0  0  0  0  0  0  0  0  0  0  0  0
   10.3531  -16.2782   27.1388 C   0  0  0  0  0  0  0  0  0  0  0  0
    9.4031  -15.3032   27.7594 C   0  0  2  0  0  0  0  0  0  0  0  0
    8.9889  -14.3707   26.7110 N   0  0  0  0  0  0  0  0  0  0  0  0
   10.0939  -14.5287   28.8048 C   0  0  0  0  0  0  0  0  0  0  0  0
   10.5566  -13.2289   28.5985 O   0  0  0  0  0  0  0  0  0  0  0  0
   10.2996  -15.0244   29.9510 O   0  0  0  0  0  0  0  0  0  0  0  0
  2  1  1  6
  3  2  1  0
  4  3  1  0
  5  6  1  0
  5  4  1  0
  7  6  1  0
  8  2  1  0
  8  9  2  0
 10 11  1  0
 10  8  1  0
 11 12  1  1
 12 13  1  0
 14 11  1  0
 15 14  2  0
 16 17  1  0
 18 19  1  0
 18 17  1  0
 20 19  1  6
 20 21  1  0
 21 14  1  0
 22 20  1  0
 22 23  1  0
 24 22  2  0
M  END
$$$$
