KCM.pdb
     RDKit          3D

 24 23  0  0  1  0  0  0  0  0999 V2000
    7.5647  -20.9318   21.3389 N   0  0  0  0  0  0  0  0  0  0  0  0
    7.1633  -19.7691   22.0534 C   0  0  1  0  0  0  0  0  0  0  0  0
    7.2108  -20.0042   23.5204 C   0  0  0  0  0  0  0  0  0  0  0  0
    8.0820  -21.1385   23.9636 C   0  0  0  0  0  0  0  0  0  0  0  0
    7.9806  -21.4973   25.4043 C   0  0  0  0  0  0  0  0  0  0  0  0
    8.9223  -22.6909   25.6626 C   0  0  0  0  0  0  0  0  0  0  0  0
    8.9422  -22.9572   27.0821 N   0  0  0  0  0  0  0  0  0  0  0  0
    7.8762  -18.5386   21.6353 C   0  0  0  0  0  0  0  0  0  0  0  0
    9.0325  -18.6567   21.1551 O   0  0  0  0  0  0  0  0  0  0  0  0
    7.3338  -17.2297   21.7432 N   0  0  0  0  0  0  0  0  0  0  0  0
    8.0199  -16.0320   21.3013 C   0  0  1  0  0  0  0  0  0  0  0  0
    7.0801  -14.9686   20.8288 C   0  0  0  0  0  0  0  0  0  0  0  0
    5.4359  -15.5950   20.4495 S   0  0  0  0  0  0  0  0  0  0  0  0
    8.9360  -15.4843   22.3128 C   0  0  0  0  0  0  0  0  0  0  0  0
    9.7288  -14.5395   22.1186 O   0  0  0  0  0  0  0  0  0  0  0  0
    7.0763  -10.8331   27.3053 C   0  0  0  0  0  0  0  0  0  0  0  0
    6.8110  -12.0182   25.9515 S   0  0  0  0  0  0  0  0  0  0  0  0
    8.0117  -13.3507   26.0428 C   0  0  0  0  0  0  0  0  0  0  0  0
    7.9603  -14.3048   24.8888 C   0  0  0  0  0  0  0  0  0  0  0  0
    9.1135  -15.2542   24.8056 C   0  0  2  0  0  0  0  0  0  0  0  0
    8.9203  -16.0707   23.6072 N   0  0  0  0  0  0  0  0  0  0  0  0
    9.1045  -16.1547   25.9713 C   0  0  0  0  0  0  0  0  0  0  0  0
    9.6219  -15.7857   27.2131 O   0  0  0  0  0  0  0  0  0  0  0  0
    8.6194  -17.3207   25.8873 O   0  0  0  0  0  0  0  0  0  0  0  0
  2  1  1  6
  3  2  1  0
  4  3  1  0
  5  6  1  0
  5  4  1  0
  7  6  1  0
  8  2  1  0
  8  9  2  0
 10 11  1  0
 10  8  1  0
 11 12  1  1
 12 13  1  0
 14 11  1  0
 15 14  2  0
 16 17  1  0
 18 19  1  0
 18 17  1  0
 20 19  1  1
 20 21  1  0
 21 14  1  0
 22 20  1  0
 22 23  1  0
 24 22  2  0
M  END
$$$$
