KCM.pdb
     RDKit          3D

 24 23  0  0  1  0  0  0  0  0999 V2000
    7.1200  -20.2824   20.5547 N   0  0  0  0  0  0  0  0  0  0  0  0
    6.8707  -19.1707   21.4064 C   0  0  1  0  0  0  0  0  0  0  0  0
    6.5585  -19.6198   22.7886 C   0  0  0  0  0  0  0  0  0  0  0  0
    5.2628  -20.3527   22.9510 C   0  0  0  0  0  0  0  0  0  0  0  0
    5.3833  -21.7972   23.2876 C   0  0  0  0  0  0  0  0  0  0  0  0
    3.9589  -22.3711   23.4292 C   0  0  0  0  0  0  0  0  0  0  0  0
    3.5737  -22.9528   22.1645 N   0  0  0  0  0  0  0  0  0  0  0  0
    7.9275  -18.1327   21.3540 C   0  0  0  0  0  0  0  0  0  0  0  0
    9.1094  -18.4753   21.6131 O   0  0  0  0  0  0  0  0  0  0  0  0
    7.6887  -16.7703   21.0281 N   0  0  0  0  0  0  0  0  0  0  0  0
    8.7279  -15.7627   20.9564 C   0  0  1  0  0  0  0  0  0  0  0  0
    8.4694  -14.7404   19.8955 C   0  0  0  0  0  0  0  0  0  0  0  0
    6.9061  -13.8752   20.1126 S   0  0  0  0  0  0  0  0  0  0  0  0
    8.9816  -15.1013   22.2451 C   0  0  0  0  0  0  0  0  0  0  0  0
    9.3978  -13.9315   22.3755 O   0  0  0  0  0  0  0  0  0  0  0  0
    6.8399  -11.1824   27.8259 C   0  0  0  0  0  0  0  0  0  0  0  0
    6.6862  -12.0560   26.2382 S   0  0  0  0  0  0  0  0  0  0  0  0
    7.8332  -13.4364   26.1706 C   0  0  0  0  0  0  0  0  0  0  0  0
    7.9429  -14.0792   24.8217 C   0  0  0  0  0  0  0  0  0  0  0  0
    8.8933  -15.2323   24.7497 C   0  0  2  0  0  0  0  0  0  0  0  0
    8.7358  -15.8452   23.4308 N   0  0  0  0  0  0  0  0  0  0  0  0
    8.5331  -16.2405   25.7615 C   0  0  0  0  0  0  0  0  0  0  0  0
    7.9272  -17.4538   25.4346 O   0  0  0  0  0  0  0  0  0  0  0  0
    8.7624  -16.0385   26.9897 O   0  0  0  0  0  0  0  0  0  0  0  0
  2  1  1  6
  3  2  1  0
  4  3  1  0
  5  6  1  0
  5  4  1  0
  7  6  1  0
  8  2  1  0
  8  9  2  0
 10 11  1  0
 10  8  1  0
 11 12  1  6
 12 13  1  0
 14 11  1  0
 15 14  2  0
 16 17  1  0
 18 19  1  0
 18 17  1  0
 20 19  1  6
 20 21  1  0
 21 14  1  0
 22 20  1  0
 22 23  1  0
 24 22  2  0
M  END
$$$$
