KCM.pdb
     RDKit          3D

 24 23  0  0  1  0  0  0  0  0999 V2000
   10.6482  -19.5655   19.3493 N   0  0  0  0  0  0  0  0  0  0  0  0
   10.9067  -18.1993   19.6494 C   0  0  1  0  0  0  0  0  0  0  0  0
   10.8385  -17.3635   18.4221 C   0  0  0  0  0  0  0  0  0  0  0  0
   12.0019  -17.4935   17.4883 C   0  0  0  0  0  0  0  0  0  0  0  0
   13.3407  -17.2776   18.1011 C   0  0  0  0  0  0  0  0  0  0  0  0
   14.3863  -17.2793   16.9676 C   0  0  0  0  0  0  0  0  0  0  0  0
   15.6771  -16.9706   17.5375 N   0  0  0  0  0  0  0  0  0  0  0  0
   10.0851  -17.6694   20.7636 C   0  0  0  0  0  0  0  0  0  0  0  0
    9.8020  -16.4442   20.7618 O   0  0  0  0  0  0  0  0  0  0  0  0
    9.5955  -18.4612   21.8372 N   0  0  0  0  0  0  0  0  0  0  0  0
    8.7366  -17.9542   22.8887 C   0  0  1  0  0  0  0  0  0  0  0  0
    7.6883  -18.9374   23.3031 C   0  0  0  0  0  0  0  0  0  0  0  0
    8.3648  -20.3885   24.1253 S   0  0  0  0  0  0  0  0  0  0  0  0
    9.4811  -17.4823   24.0658 C   0  0  0  0  0  0  0  0  0  0  0  0
   10.6127  -17.8883   24.4026 O   0  0  0  0  0  0  0  0  0  0  0  0
   11.3800  -13.6531   29.6943 C   0  0  0  0  0  0  0  0  0  0  0  0
   10.6040  -13.6344   28.0496 S   0  0  0  0  0  0  0  0  0  0  0  0
    9.0455  -14.5263   28.0835 C   0  0  0  0  0  0  0  0  0  0  0  0
    8.5972  -15.0318   26.7462 C   0  0  0  0  0  0  0  0  0  0  0  0
    9.5164  -16.0253   26.1088 C   0  0  2  0  0  0  0  0  0  0  0  0
    8.8709  -16.4915   24.8816 N   0  0  0  0  0  0  0  0  0  0  0  0
    9.6894  -17.1876   26.9971 C   0  0  0  0  0  0  0  0  0  0  0  0
   10.8814  -17.4492   27.6730 O   0  0  0  0  0  0  0  0  0  0  0  0
    8.7452  -18.0098   27.1819 O   0  0  0  0  0  0  0  0  0  0  0  0
  2  1  1  6
  3  2  1  0
  4  3  1  0
  5  6  1  0
  5  4  1  0
  7  6  1  0
  8  2  1  0
  8  9  2  0
 10 11  1  0
 10  8  1  0
 11 12  1  1
 12 13  1  0
 14 11  1  0
 15 14  2  0
 16 17  1  0
 18 19  1  0
 18 17  1  0
 20 19  1  1
 20 21  1  0
 21 14  1  0
 22 20  1  0
 22 23  1  0
 24 22  2  0
M  END
$$$$
