KCM.pdb
     RDKit          3D

 24 23  0  0  1  0  0  0  0  0999 V2000
    9.8340  -15.2297   18.7040 N   0  0  0  0  0  0  0  0  0  0  0  0
    9.0771  -14.3900   19.5672 C   0  0  1  0  0  0  0  0  0  0  0  0
    7.9190  -13.7958   18.8492 C   0  0  0  0  0  0  0  0  0  0  0  0
    8.1980  -13.3229   17.4561 C   0  0  0  0  0  0  0  0  0  0  0  0
    7.2523  -13.8086   16.4148 C   0  0  0  0  0  0  0  0  0  0  0  0
    7.6864  -13.2068   15.0629 C   0  0  0  0  0  0  0  0  0  0  0  0
    7.7332  -14.2688   14.0850 N   0  0  0  0  0  0  0  0  0  0  0  0
    8.7019  -15.0366   20.8471 C   0  0  0  0  0  0  0  0  0  0  0  0
    8.0429  -14.3643   21.6809 O   0  0  0  0  0  0  0  0  0  0  0  0
    9.0409  -16.3726   21.1926 N   0  0  0  0  0  0  0  0  0  0  0  0
    8.7771  -16.9634   22.4894 C   0  0  1  0  0  0  0  0  0  0  0  0
    9.1876  -18.3998   22.5645 C   0  0  0  0  0  0  0  0  0  0  0  0
   10.0199  -18.8182   24.1045 S   0  0  0  0  0  0  0  0  0  0  0  0
    9.3742  -16.2080   23.6009 C   0  0  0  0  0  0  0  0  0  0  0  0
   10.5371  -15.7536   23.6096 O   0  0  0  0  0  0  0  0  0  0  0  0
    6.4960  -11.9504   27.7657 C   0  0  0  0  0  0  0  0  0  0  0  0
    6.3674  -12.2394   25.9747 S   0  0  0  0  0  0  0  0  0  0  0  0
    7.6905  -13.3195   25.4192 C   0  0  0  0  0  0  0  0  0  0  0  0
    8.1109  -14.3453   26.4270 C   0  0  0  0  0  0  0  0  0  0  0  0
    9.1278  -15.3276   25.9381 C   0  0  2  0  0  0  0  0  0  0  0  0
    8.5716  -15.9760   24.7505 N   0  0  0  0  0  0  0  0  0  0  0  0
    9.3488  -16.3674   26.9579 C   0  0  0  0  0  0  0  0  0  0  0  0
   10.0749  -16.1353   28.1262 O   0  0  0  0  0  0  0  0  0  0  0  0
    8.8809  -17.5338   26.8080 O   0  0  0  0  0  0  0  0  0  0  0  0
  2  1  1  6
  3  2  1  0
  4  3  1  0
  5  6  1  0
  5  4  1  0
  7  6  1  0
  8  2  1  0
  8  9  2  0
 10 11  1  0
 10  8  1  0
 11 12  1  6
 12 13  1  0
 14 11  1  0
 15 14  2  0
 16 17  1  0
 18 19  1  0
 18 17  1  0
 20 19  1  1
 20 21  1  0
 21 14  1  0
 22 20  1  0
 22 23  1  0
 24 22  2  0
M  END
$$$$
