KCM.pdb
     RDKit          3D

 24 23  0  0  1  0  0  0  0  0999 V2000
    9.2547  -15.7611   19.9897 N   0  0  0  0  0  0  0  0  0  0  0  0
    8.1712  -15.3502   20.8147 C   0  0  1  0  0  0  0  0  0  0  0  0
    6.8675  -15.7119   20.1989 C   0  0  0  0  0  0  0  0  0  0  0  0
    6.6557  -17.1732   19.9497 C   0  0  0  0  0  0  0  0  0  0  0  0
    6.4037  -17.5500   18.5323 C   0  0  0  0  0  0  0  0  0  0  0  0
    5.9834  -19.0335   18.5041 C   0  0  0  0  0  0  0  0  0  0  0  0
    5.7452  -19.4139   17.1312 N   0  0  0  0  0  0  0  0  0  0  0  0
    8.2951  -15.7937   22.2236 C   0  0  0  0  0  0  0  0  0  0  0  0
    7.3734  -15.4918   23.0241 O   0  0  0  0  0  0  0  0  0  0  0  0
    9.3932  -16.5410   22.7286 N   0  0  0  0  0  0  0  0  0  0  0  0
    9.5211  -16.9545   24.1117 C   0  0  1  0  0  0  0  0  0  0  0  0
   10.3758  -18.1712   24.2745 C   0  0  0  0  0  0  0  0  0  0  0  0
   12.0823  -17.9103   23.7651 S   0  0  0  0  0  0  0  0  0  0  0  0
    9.9980  -15.8795   24.9945 C   0  0  0  0  0  0  0  0  0  0  0  0
   10.8215  -15.0005   24.6657 O   0  0  0  0  0  0  0  0  0  0  0  0
    6.4455  -10.7170   26.0848 C   0  0  0  0  0  0  0  0  0  0  0  0
    6.7709  -12.1123   27.2051 S   0  0  0  0  0  0  0  0  0  0  0  0
    8.3080  -12.9271   26.7588 C   0  0  0  0  0  0  0  0  0  0  0  0
    8.7037  -14.0405   27.6799 C   0  0  0  0  0  0  0  0  0  0  0  0
    9.9210  -14.8019   27.2597 C   0  0  2  0  0  0  0  0  0  0  0  0
    9.4860  -15.8348   26.3195 N   0  0  0  0  0  0  0  0  0  0  0  0
   10.5162  -15.4759   28.4265 C   0  0  0  0  0  0  0  0  0  0  0  0
   11.2722  -14.7989   29.3838 O   0  0  0  0  0  0  0  0  0  0  0  0
   10.3630  -16.7193   28.6063 O   0  0  0  0  0  0  0  0  0  0  0  0
  2  1  1  6
  3  2  1  0
  4  3  1  0
  5  6  1  0
  5  4  1  0
  7  6  1  0
  8  2  1  0
  8  9  2  0
 10 11  1  0
 10  8  1  0
 11 12  1  6
 12 13  1  0
 14 11  1  0
 15 14  2  0
 16 17  1  0
 18 19  1  0
 18 17  1  0
 20 19  1  1
 20 21  1  0
 21 14  1  0
 22 20  1  0
 22 23  1  0
 24 22  2  0
M  END
$$$$
