KCM.pdb
     RDKit          3D

 24 23  0  0  1  0  0  0  0  0999 V2000
    8.9417  -19.4446   18.5406 N   0  0  0  0  0  0  0  0  0  0  0  0
    8.1994  -18.2315   18.5710 C   0  0  1  0  0  0  0  0  0  0  0  0
    7.0575  -18.2835   17.6208 C   0  0  0  0  0  0  0  0  0  0  0  0
    7.4051  -18.0562   16.1821 C   0  0  0  0  0  0  0  0  0  0  0  0
    8.3364  -16.9253   15.9206 C   0  0  0  0  0  0  0  0  0  0  0  0
    8.5781  -16.8528   14.3992 C   0  0  0  0  0  0  0  0  0  0  0  0
    9.4407  -15.7266   14.1276 N   0  0  0  0  0  0  0  0  0  0  0  0
    7.8049  -17.8097   19.9361 C   0  0  0  0  0  0  0  0  0  0  0  0
    6.6261  -17.4108   20.1167 O   0  0  0  0  0  0  0  0  0  0  0  0
    8.6776  -17.8278   21.0574 N   0  0  0  0  0  0  0  0  0  0  0  0
    8.2432  -17.6095   22.4227 C   0  0  1  0  0  0  0  0  0  0  0  0
    8.3423  -18.8418   23.2647 C   0  0  0  0  0  0  0  0  0  0  0  0
   10.0203  -19.4808   23.3889 S   0  0  0  0  0  0  0  0  0  0  0  0
    8.9380  -16.4916   23.0785 C   0  0  0  0  0  0  0  0  0  0  0  0
   10.1237  -16.1653   22.8632 O   0  0  0  0  0  0  0  0  0  0  0  0
    5.2710  -12.0164   26.1935 C   0  0  0  0  0  0  0  0  0  0  0  0
    6.9381  -11.3036   26.3368 S   0  0  0  0  0  0  0  0  0  0  0  0
    8.1841  -12.5678   26.0631 C   0  0  0  0  0  0  0  0  0  0  0  0
    7.7561  -13.6621   25.1336 C   0  0  0  0  0  0  0  0  0  0  0  0
    8.8407  -14.6152   24.7422 C   0  0  2  0  0  0  0  0  0  0  0  0
    8.2093  -15.7242   24.0271 N   0  0  0  0  0  0  0  0  0  0  0  0
    9.4830  -15.1641   25.9489 C   0  0  0  0  0  0  0  0  0  0  0  0
    9.2833  -16.4760   26.3789 O   0  0  0  0  0  0  0  0  0  0  0  0
   10.2534  -14.4509   26.6559 O   0  0  0  0  0  0  0  0  0  0  0  0
  2  1  1  1
  3  2  1  0
  4  3  1  0
  5  6  1  0
  5  4  1  0
  7  6  1  0
  8  2  1  0
  8  9  2  0
 10 11  1  0
 10  8  1  0
 11 12  1  1
 12 13  1  0
 14 11  1  0
 15 14  2  0
 16 17  1  0
 18 19  1  0
 18 17  1  0
 20 19  1  1
 20 21  1  0
 21 14  1  0
 22 20  1  0
 22 23  1  0
 24 22  2  0
M  END
$$$$
