KCM.pdb
     RDKit          3D

 24 23  0  0  1  0  0  0  0  0999 V2000
    7.4516  -16.7930   19.9504 N   0  0  0  0  0  0  0  0  0  0  0  0
    8.1345  -15.8877   20.8092 C   0  0  1  0  0  0  0  0  0  0  0  0
    7.4933  -14.5469   20.7857 C   0  0  0  0  0  0  0  0  0  0  0  0
    8.0565  -13.5803   19.7903 C   0  0  0  0  0  0  0  0  0  0  0  0
    7.6250  -13.7894   18.3815 C   0  0  0  0  0  0  0  0  0  0  0  0
    8.2878  -12.6985   17.5162 C   0  0  0  0  0  0  0  0  0  0  0  0
    7.9141  -12.9194   16.1387 N   0  0  0  0  0  0  0  0  0  0  0  0
    8.3437  -16.4115   22.1800 C   0  0  0  0  0  0  0  0  0  0  0  0
    7.3431  -16.8364   22.8121 O   0  0  0  0  0  0  0  0  0  0  0  0
    9.6078  -16.4639   22.8270 N   0  0  0  0  0  0  0  0  0  0  0  0
    9.8105  -16.9888   24.1626 C   0  0  1  0  0  0  0  0  0  0  0  0
   10.6825  -18.2040   24.1798 C   0  0  0  0  0  0  0  0  0  0  0  0
   11.3843  -18.5482   25.8010 S   0  0  0  0  0  0  0  0  0  0  0  0
   10.3235  -15.9847   25.1065 C   0  0  0  0  0  0  0  0  0  0  0  0
   11.3712  -15.3251   24.9449 O   0  0  0  0  0  0  0  0  0  0  0  0
    6.4895  -11.1664   25.3589 C   0  0  0  0  0  0  0  0  0  0  0  0
    6.7621  -12.5514   26.5056 S   0  0  0  0  0  0  0  0  0  0  0  0
    8.5204  -12.8237   26.7503 C   0  0  0  0  0  0  0  0  0  0  0  0
    8.8441  -13.9521   27.6812 C   0  0  0  0  0  0  0  0  0  0  0  0
   10.0297  -14.7740   27.2850 C   0  0  2  0  0  0  0  0  0  0  0  0
    9.5743  -15.7448   26.2900 N   0  0  0  0  0  0  0  0  0  0  0  0
   10.5302  -15.5234   28.4503 C   0  0  0  0  0  0  0  0  0  0  0  0
   11.2520  -14.9209   29.4809 O   0  0  0  0  0  0  0  0  0  0  0  0
   10.3218  -16.7668   28.5610 O   0  0  0  0  0  0  0  0  0  0  0  0
  2  1  1  6
  3  2  1  0
  4  3  1  0
  5  6  1  0
  5  4  1  0
  7  6  1  0
  8  2  1  0
  8  9  2  0
 10 11  1  0
 10  8  1  0
 11 12  1  6
 12 13  1  0
 14 11  1  0
 15 14  2  0
 16 17  1  0
 18 19  1  0
 18 17  1  0
 20 19  1  1
 20 21  1  0
 21 14  1  0
 22 20  1  0
 22 23  1  0
 24 22  2  0
M  END
$$$$
