RVI.pdb
     RDKit          3D

 27 26  0  0  1  0  0  0  0  0999 V2000
   14.9525  -19.6142   18.5727 N   0  0  0  0  0  0  0  0  0  0  0  0
   15.7114  -18.8930   19.5382 C   0  0  0  0  0  0  0  0  0  0  0  0
   16.9537  -18.5687   19.3221 N   0  0  0  0  0  0  0  0  0  0  0  0
   15.1620  -18.4818   20.7778 N   0  0  0  0  0  0  0  0  0  0  0  0
   14.0227  -19.1299   21.3671 C   0  0  0  0  0  0  0  0  0  0  0  0
   12.8239  -19.2297   20.5088 C   0  0  0  0  0  0  0  0  0  0  0  0
   11.4825  -19.1051   21.0936 C   0  0  0  0  0  0  0  0  0  0  0  0
   10.5225  -18.1168   20.5713 C   0  0  2  0  0  0  0  0  0  0  0  0
   10.9129  -17.5895   19.2838 N   0  0  0  0  0  0  0  0  0  0  0  0
   10.4453  -16.9666   21.5475 C   0  0  0  0  0  0  0  0  0  0  0  0
   11.3928  -16.1962   21.7457 O   0  0  0  0  0  0  0  0  0  0  0  0
   17.4403  -18.0393   20.0675 C   0  0  0  0  0  0  0  0  0  0  0  0
    7.3144  -14.7293   21.5382 C   0  0  1  0  0  0  0  0  0  0  0  0
    7.5408  -15.3054   22.9105 C   0  0  0  0  0  0  0  0  0  0  0  0
    6.9433  -14.4492   23.9972 C   0  0  2  0  0  0  0  0  0  0  0  0
    8.9723  -15.6893   23.1886 N   0  0  0  0  0  0  0  0  0  0  0  0
    9.2589  -16.7688   22.2497 C   0  0  0  0  0  0  0  0  0  0  0  0
    9.2196  -16.2196   24.5424 O   0  0  0  0  0  0  0  0  0  0  0  0
    9.5754  -17.4469   24.6046 C   0  0  0  0  0  0  0  0  0  0  0  0
   10.3140  -12.5339   28.4431 C   0  0  0  0  0  0  0  0  0  0  0  0
   10.4997  -13.7240   27.5759 C   0  0  2  0  0  0  0  0  0  0  0  0
    9.8649  -14.9974   27.9676 C   0  0  0  0  0  0  0  0  0  0  0  0
   10.5411  -15.4613   29.2596 C   0  0  2  0  0  0  0  0  0  0  0  0
    9.7715  -16.0449   26.9571 N   0  0  0  0  0  0  0  0  0  0  0  0
    9.0999  -15.5109   25.7403 C   0  0  0  0  0  0  0  0  0  0  0  0
    9.1761  -17.3481   27.2685 O   0  0  0  0  0  0  0  0  0  0  0  0
    7.9125  -17.4921   27.0545 O   0  0  0  0  0  0  0  0  0  0  0  0
  2  1  1  0
  3  2  2  0
  4  2  1  0
  5  6  1  0
  5  4  1  0
  7  6  1  0
  8  9  1  6
  8  7  1  0
 10  8  1  0
 11 10  2  0
 13 12  1  6
 13 14  1  0
 15 13  1  0
 15 16  1  1
 16 10  1  0
 17 15  1  0
 18 17  2  0
 20 19  1  0
 20 21  1  0
 21 23  1  0
 21 22  1  6
 23 24  1  6
 24 17  1  0
 25 23  1  0
 25 27  1  0
 26 25  2  0
M  END
$$$$
