RVI.pdb
     RDKit          3D

 27 26  0  0  1  0  0  0  0  0999 V2000
    9.2021  -22.2996   21.5188 N   0  0  0  0  0  0  0  0  0  0  0  0
   10.3793  -22.7571   20.8608 C   0  0  0  0  0  0  0  0  0  0  0  0
   10.5707  -24.0205   20.6105 N   0  0  0  0  0  0  0  0  0  0  0  0
   11.4004  -21.8716   20.4358 N   0  0  0  0  0  0  0  0  0  0  0  0
   11.2679  -20.4435   20.5286 C   0  0  0  0  0  0  0  0  0  0  0  0
   11.5178  -19.8594   21.8628 C   0  0  0  0  0  0  0  0  0  0  0  0
   11.3737  -18.4136   22.0766 C   0  0  0  0  0  0  0  0  0  0  0  0
   11.2131  -17.4963   20.9348 C   0  0  2  0  0  0  0  0  0  0  0  0
   12.4452  -17.2932   20.2074 N   0  0  0  0  0  0  0  0  0  0  0  0
   10.7510  -16.1579   21.4612 C   0  0  0  0  0  0  0  0  0  0  0  0
   11.5348  -15.3104   21.9065 O   0  0  0  0  0  0  0  0  0  0  0  0
   11.4571  -24.2803   20.1421 C   0  0  0  0  0  0  0  0  0  0  0  0
    7.9010  -14.3776   19.4662 C   0  0  2  0  0  0  0  0  0  0  0  0
    7.5589  -14.4852   20.9283 C   0  0  0  0  0  0  0  0  0  0  0  0
    6.6027  -13.4090   21.3739 C   0  0  2  0  0  0  0  0  0  0  0  0
    8.7581  -14.6138   21.8334 N   0  0  0  0  0  0  0  0  0  0  0  0
    9.3884  -15.8703   21.4423 C   0  0  0  0  0  0  0  0  0  0  0  0
    8.4415  -14.7201   23.2699 O   0  0  0  0  0  0  0  0  0  0  0  0
    9.0752  -15.6247   23.9155 C   0  0  0  0  0  0  0  0  0  0  0  0
    6.5178  -10.3505   26.0002 C   0  0  0  0  0  0  0  0  0  0  0  0
    7.3566  -11.5493   25.7509 C   0  0  2  0  0  0  0  0  0  0  0  0
    6.7867  -12.8850   26.0135 C   0  0  0  0  0  0  0  0  0  0  0  0
    6.5528  -12.9884   27.5222 C   0  0  2  0  0  0  0  0  0  0  0  0
    7.4845  -14.0388   25.4575 N   0  0  0  0  0  0  0  0  0  0  0  0
    7.5256  -13.9338   23.9729 C   0  0  0  0  0  0  0  0  0  0  0  0
    7.0850  -15.4062   25.8043 O   0  0  0  0  0  0  0  0  0  0  0  0
    6.1223  -15.9351   25.1285 O   0  0  0  0  0  0  0  0  0  0  0  0
  2  1  1  0
  3  2  2  0
  4  2  1  0
  5  6  1  0
  5  4  1  0
  7  6  1  0
  8  9  1  1
  8  7  1  0
 10  8  1  0
 11 10  2  0
 13 12  1  6
 13 14  1  0
 15 13  1  0
 15 16  1  1
 16 10  1  0
 17 15  1  0
 18 17  2  0
 20 19  1  0
 20 21  1  0
 21 23  1  0
 21 22  1  6
 23 24  1  1
 24 17  1  0
 25 23  1  0
 25 27  1  0
 26 25  2  0
M  END
$$$$
