RVI.pdb
     RDKit          3D

 27 26  0  0  1  0  0  0  0  0999 V2000
    8.4959  -13.6399   15.3109 N   0  0  0  0  0  0  0  0  0  0  0  0
    7.7914  -14.1702   16.4291 C   0  0  0  0  0  0  0  0  0  0  0  0
    6.6881  -13.6273   16.8573 N   0  0  0  0  0  0  0  0  0  0  0  0
    8.2409  -15.3155   17.1319 N   0  0  0  0  0  0  0  0  0  0  0  0
    7.5004  -15.8889   18.2220 C   0  0  0  0  0  0  0  0  0  0  0  0
    7.7386  -15.2852   19.5496 C   0  0  0  0  0  0  0  0  0  0  0  0
    8.9981  -15.5368   20.2618 C   0  0  0  0  0  0  0  0  0  0  0  0
    9.0177  -16.3444   21.4940 C   0  0  2  0  0  0  0  0  0  0  0  0
    7.6977  -16.7688   21.9015 N   0  0  0  0  0  0  0  0  0  0  0  0
    9.6059  -15.5051   22.6037 C   0  0  0  0  0  0  0  0  0  0  0  0
   10.8255  -15.3823   22.7713 O   0  0  0  0  0  0  0  0  0  0  0  0
    6.2277  -14.0720   17.6714 C   0  0  0  0  0  0  0  0  0  0  0  0
    6.8745  -13.9429   25.6530 C   0  0  1  0  0  0  0  0  0  0  0  0
    7.7933  -13.1335   24.7771 C   0  0  0  0  0  0  0  0  0  0  0  0
    7.0926  -12.5916   23.5578 C   0  0  1  0  0  0  0  0  0  0  0  0
    9.0938  -13.8216   24.4471 N   0  0  0  0  0  0  0  0  0  0  0  0
    8.7377  -14.8449   23.4698 C   0  0  0  0  0  0  0  0  0  0  0  0
    9.7334  -14.5141   25.5814 O   0  0  0  0  0  0  0  0  0  0  0  0
   10.1982  -13.7606   26.5049 C   0  0  0  0  0  0  0  0  0  0  0  0
    9.1345  -13.9147   29.5961 C   0  0  0  0  0  0  0  0  0  0  0  0
    9.8624  -14.4655   28.4258 C   0  0  2  0  0  0  0  0  0  0  0  0
    9.7611  -15.9095   28.1385 C   0  0  0  0  0  0  0  0  0  0  0  0
   10.0878  -16.6528   29.4355 C   0  0  2  0  0  0  0  0  0  0  0  0
   10.4874  -16.4210   26.9818 N   0  0  0  0  0  0  0  0  0  0  0  0
    9.8740  -15.8959   25.7308 C   0  0  0  0  0  0  0  0  0  0  0  0
   10.7170  -17.8583   26.8053 O   0  0  0  0  0  0  0  0  0  0  0  0
   11.4872  -18.4474   27.6557 O   0  0  0  0  0  0  0  0  0  0  0  0
  2  1  1  0
  3  2  2  0
  4  2  1  0
  5  6  1  0
  5  4  1  0
  7  6  1  0
  8  9  1  1
  8  7  1  0
 10  8  1  0
 11 10  2  0
 13 12  1  1
 13 14  1  0
 15 13  1  0
 15 16  1  6
 16 10  1  0
 17 15  1  0
 18 17  2  0
 20 19  1  0
 20 21  1  0
 21 23  1  0
 21 22  1  6
 23 24  1  6
 24 17  1  0
 25 23  1  0
 25 27  1  0
 26 25  2  0
M  END
$$$$
