RVI.pdb
     RDKit          3D

 27 26  0  0  1  0  0  0  0  0999 V2000
    9.1619  -14.0787   17.0159 N   0  0  0  0  0  0  0  0  0  0  0  0
    9.6820  -13.4214   18.1673 C   0  0  0  0  0  0  0  0  0  0  0  0
   10.9598  -13.2212   18.3166 N   0  0  0  0  0  0  0  0  0  0  0  0
    8.8463  -12.9431   19.2067 N   0  0  0  0  0  0  0  0  0  0  0  0
    7.4347  -13.2106   19.2435 C   0  0  0  0  0  0  0  0  0  0  0  0
    7.0516  -14.6027   19.5584 C   0  0  0  0  0  0  0  0  0  0  0  0
    8.0666  -15.5677   20.0005 C   0  0  0  0  0  0  0  0  0  0  0  0
    7.6892  -16.9463   20.3582 C   0  0  2  0  0  0  0  0  0  0  0  0
    6.8003  -17.5480   19.3906 N   0  0  0  0  0  0  0  0  0  0  0  0
    6.9812  -16.9149   21.6922 C   0  0  0  0  0  0  0  0  0  0  0  0
    5.7913  -16.5965   21.8077 O   0  0  0  0  0  0  0  0  0  0  0  0
   11.2679  -12.7718   19.1973 C   0  0  0  0  0  0  0  0  0  0  0  0
    6.8506  -18.9857   26.0413 C   0  0  1  0  0  0  0  0  0  0  0  0
    7.3400  -18.7187   24.6429 C   0  0  0  0  0  0  0  0  0  0  0  0
    8.7227  -19.2687   24.4047 C   0  0  2  0  0  0  0  0  0  0  0  0
    7.1980  -17.2828   24.2046 N   0  0  0  0  0  0  0  0  0  0  0  0
    7.6997  -17.2590   22.8346 C   0  0  0  0  0  0  0  0  0  0  0  0
    8.0041  -16.3174   24.9748 O   0  0  0  0  0  0  0  0  0  0  0  0
    9.2074  -16.1501   24.5743 C   0  0  0  0  0  0  0  0  0  0  0  0
    5.8483  -11.8579   26.9801 C   0  0  0  0  0  0  0  0  0  0  0  0
    6.8634  -12.7612   26.3831 C   0  0  2  0  0  0  0  0  0  0  0  0
    7.7743  -13.5004   27.2785 C   0  0  0  0  0  0  0  0  0  0  0  0
    8.6668  -12.4670   27.9693 C   0  0  2  0  0  0  0  0  0  0  0  0
    8.5190  -14.6189   26.7114 N   0  0  0  0  0  0  0  0  0  0  0  0
    7.5752  -15.5846   26.0842 C   0  0  0  0  0  0  0  0  0  0  0  0
    9.4761  -15.3805   27.5199 O   0  0  0  0  0  0  0  0  0  0  0  0
    9.0456  -16.4452   28.1067 O   0  0  0  0  0  0  0  0  0  0  0  0
  2  1  1  0
  3  2  2  0
  4  2  1  0
  5  6  1  0
  5  4  1  0
  7  6  1  0
  8  9  1  6
  8  7  1  0
 10  8  1  0
 11 10  2  0
 13 12  1  6
 13 14  1  0
 15 13  1  0
 15 16  1  1
 16 10  1  0
 17 15  1  0
 18 17  2  0
 20 19  1  0
 20 21  1  0
 21 23  1  0
 21 22  1  1
 23 24  1  6
 24 17  1  0
 25 23  1  0
 25 27  1  0
 26 25  2  0
M  END
$$$$
