RVI.pdb
     RDKit          3D

 27 26  0  0  1  0  0  0  0  0999 V2000
   10.2293  -12.7316   19.4628 N   0  0  0  0  0  0  0  0  0  0  0  0
    8.9031  -13.2152   19.2747 C   0  0  0  0  0  0  0  0  0  0  0  0
    8.2328  -12.9565   18.1888 N   0  0  0  0  0  0  0  0  0  0  0  0
    8.2422  -14.0068   20.2464 N   0  0  0  0  0  0  0  0  0  0  0  0
    7.8486  -15.3657   19.9933 C   0  0  0  0  0  0  0  0  0  0  0  0
    6.4151  -15.6673   20.1882 C   0  0  0  0  0  0  0  0  0  0  0  0
    5.9293  -17.0496   20.0872 C   0  0  0  0  0  0  0  0  0  0  0  0
    6.5404  -18.1227   20.8910 C   0  0  2  0  0  0  0  0  0  0  0  0
    6.1252  -19.4402   20.4663 N   0  0  0  0  0  0  0  0  0  0  0  0
    6.1198  -17.9376   22.3300 C   0  0  0  0  0  0  0  0  0  0  0  0
    4.9330  -17.8911   22.6766 O   0  0  0  0  0  0  0  0  0  0  0  0
    7.3325  -13.4520   18.0600 C   0  0  0  0  0  0  0  0  0  0  0  0
    8.8842  -19.2859   25.1893 C   0  0  1  0  0  0  0  0  0  0  0  0
    7.3904  -19.1071   25.2465 C   0  0  0  0  0  0  0  0  0  0  0  0
    6.6507  -20.2628   24.6234 C   0  0  1  0  0  0  0  0  0  0  0  0
    6.9111  -17.7677   24.7465 N   0  0  0  0  0  0  0  0  0  0  0  0
    7.1100  -17.8151   23.3018 C   0  0  0  0  0  0  0  0  0  0  0  0
    7.6747  -16.6098   25.2480 O   0  0  0  0  0  0  0  0  0  0  0  0
    8.6465  -16.2213   24.5124 C   0  0  0  0  0  0  0  0  0  0  0  0
    5.5032  -12.1850   27.0349 C   0  0  0  0  0  0  0  0  0  0  0  0
    6.5462  -13.0590   26.4424 C   0  0  2  0  0  0  0  0  0  0  0  0
    7.5456  -13.6804   27.3329 C   0  0  0  0  0  0  0  0  0  0  0  0
    8.4013  -12.5508   27.9104 C   0  0  2  0  0  0  0  0  0  0  0  0
    8.3333  -14.7852   26.7981 N   0  0  0  0  0  0  0  0  0  0  0  0
    7.4334  -15.9146   26.4354 C   0  0  0  0  0  0  0  0  0  0  0  0
    9.4724  -15.3337   27.5407 O   0  0  0  0  0  0  0  0  0  0  0  0
   10.6162  -14.7579   27.3877 O   0  0  0  0  0  0  0  0  0  0  0  0
  2  1  1  0
  3  2  2  0
  4  2  1  0
  5  6  1  0
  5  4  1  0
  7  6  1  0
  8  9  1  6
  8  7  1  0
 10  8  1  0
 11 10  2  0
 13 12  1  1
 13 14  1  0
 15 13  1  0
 15 16  1  6
 16 10  1  0
 17 15  1  0
 18 17  2  0
 20 19  1  0
 20 21  1  0
 21 23  1  0
 21 22  1  1
 23 24  1  6
 24 17  1  0
 25 23  1  0
 25 27  1  0
 26 25  2  0
M  END
$$$$
