RVI.pdb
     RDKit          3D

 27 26  0  0  1  0  0  0  0  0999 V2000
    8.5938  -11.8841   18.3803 N   0  0  0  0  0  0  0  0  0  0  0  0
    9.5113  -12.9250   18.7009 C   0  0  0  0  0  0  0  0  0  0  0  0
   10.6461  -12.6741   19.2879 N   0  0  0  0  0  0  0  0  0  0  0  0
    9.2429  -14.2855   18.4096 N   0  0  0  0  0  0  0  0  0  0  0  0
    7.9070  -14.7852   18.2330 C   0  0  0  0  0  0  0  0  0  0  0  0
    6.9210  -14.3587   19.2478 C   0  0  0  0  0  0  0  0  0  0  0  0
    6.2115  -15.3586   20.0563 C   0  0  0  0  0  0  0  0  0  0  0  0
    6.8348  -16.6577   20.3640 C   0  0  2  0  0  0  0  0  0  0  0  0
    6.2507  -17.7460   19.6137 N   0  0  0  0  0  0  0  0  0  0  0  0
    6.6405  -16.9423   21.8347 C   0  0  0  0  0  0  0  0  0  0  0  0
    5.5214  -17.0686   22.3468 O   0  0  0  0  0  0  0  0  0  0  0  0
   11.2897  -13.4724   19.4328 C   0  0  0  0  0  0  0  0  0  0  0  0
    8.1142  -19.7613   23.5765 C   0  0  2  0  0  0  0  0  0  0  0  0
    8.6476  -18.5303   24.2596 C   0  0  0  0  0  0  0  0  0  0  0  0
    9.0108  -18.7860   25.6997 C   0  0  2  0  0  0  0  0  0  0  0  0
    7.7861  -17.3056   24.0820 N   0  0  0  0  0  0  0  0  0  0  0  0
    7.7682  -17.0669   22.6426 C   0  0  0  0  0  0  0  0  0  0  0  0
    8.3119  -16.0813   24.7145 O   0  0  0  0  0  0  0  0  0  0  0  0
    8.4936  -15.0840   23.9342 C   0  0  0  0  0  0  0  0  0  0  0  0
    6.6968  -11.3580   26.1866 C   0  0  0  0  0  0  0  0  0  0  0  0
    7.8857  -12.2377   26.3115 C   0  0  2  0  0  0  0  0  0  0  0  0
    7.7017  -13.6998   26.2337 C   0  0  0  0  0  0  0  0  0  0  0  0
    6.4267  -14.0372   27.0096 C   0  0  2  0  0  0  0  0  0  0  0  0
    8.8358  -14.5437   26.5926 N   0  0  0  0  0  0  0  0  0  0  0  0
    8.6240  -15.9205   26.0666 C   0  0  0  0  0  0  0  0  0  0  0  0
    9.2890  -14.6543   27.9826 O   0  0  0  0  0  0  0  0  0  0  0  0
    9.8639  -13.6251   28.5054 O   0  0  0  0  0  0  0  0  0  0  0  0
  2  1  1  0
  3  2  2  0
  4  2  1  0
  5  6  1  0
  5  4  1  0
  7  6  1  0
  8  9  1  6
  8  7  1  0
 10  8  1  0
 11 10  2  0
 13 12  1  6
 13 14  1  0
 15 13  1  0
 15 16  1  1
 16 10  1  0
 17 15  1  0
 18 17  2  0
 20 19  1  0
 20 21  1  0
 21 23  1  0
 21 22  1  6
 23 24  1  1
 24 17  1  0
 25 23  1  0
 25 27  1  0
 26 25  2  0
M  END
$$$$
