RVI.pdb
     RDKit          3D

 27 26  0  0  1  0  0  0  0  0999 V2000
   14.2135  -13.6361   18.0157 N   0  0  0  0  0  0  0  0  0  0  0  0
   14.1610  -14.5838   19.0774 C   0  0  0  0  0  0  0  0  0  0  0  0
   15.0392  -15.5397   19.1794 N   0  0  0  0  0  0  0  0  0  0  0  0
   13.1631  -14.5387   20.0823 N   0  0  0  0  0  0  0  0  0  0  0  0
   11.7706  -14.3583   19.7759 C   0  0  0  0  0  0  0  0  0  0  0  0
   10.9396  -15.5797   19.8153 C   0  0  0  0  0  0  0  0  0  0  0  0
    9.4963  -15.5015   19.5549 C   0  0  0  0  0  0  0  0  0  0  0  0
    8.6493  -16.7038   19.6436 C   0  0  2  0  0  0  0  0  0  0  0  0
    7.8796  -16.9313   18.4419 N   0  0  0  0  0  0  0  0  0  0  0  0
    7.6856  -16.5232   20.7928 C   0  0  0  0  0  0  0  0  0  0  0  0
    6.5526  -16.0489   20.6440 O   0  0  0  0  0  0  0  0  0  0  0  0
   14.9178  -16.2116   19.9581 C   0  0  0  0  0  0  0  0  0  0  0  0
    6.1757  -18.5637   24.8194 C   0  0  1  0  0  0  0  0  0  0  0  0
    7.0257  -18.3409   23.5970 C   0  0  0  0  0  0  0  0  0  0  0  0
    8.2857  -19.1674   23.6166 C   0  0  2  0  0  0  0  0  0  0  0  0
    7.2833  -16.8888   23.2825 N   0  0  0  0  0  0  0  0  0  0  0  0
    8.0922  -16.9072   22.0683 C   0  0  0  0  0  0  0  0  0  0  0  0
    8.0586  -16.1616   24.3050 O   0  0  0  0  0  0  0  0  0  0  0  0
    9.3304  -16.2734   24.2250 C   0  0  0  0  0  0  0  0  0  0  0  0
    6.6075  -11.3020   25.5951 C   0  0  0  0  0  0  0  0  0  0  0  0
    7.5343  -12.4374   25.3616 C   0  0  2  0  0  0  0  0  0  0  0  0
    7.9055  -13.3002   26.4999 C   0  0  0  0  0  0  0  0  0  0  0  0
    8.7799  -12.4629   27.4359 C   0  0  2  0  0  0  0  0  0  0  0  0
    8.4724  -14.6098   26.1987 N   0  0  0  0  0  0  0  0  0  0  0  0
    7.5335  -15.3772   25.3347 C   0  0  0  0  0  0  0  0  0  0  0  0
    8.9349  -15.5001   27.2679 O   0  0  0  0  0  0  0  0  0  0  0  0
   10.1488  -15.3566   27.6792 O   0  0  0  0  0  0  0  0  0  0  0  0
  2  1  1  0
  3  2  2  0
  4  2  1  0
  5  6  1  0
  5  4  1  0
  7  6  1  0
  8  9  1  6
  8  7  1  0
 10  8  1  0
 11 10  2  0
 13 12  1  6
 13 14  1  0
 15 13  1  0
 15 16  1  1
 16 10  1  0
 17 15  1  0
 18 17  2  0
 20 19  1  0
 20 21  1  0
 21 23  1  0
 21 22  1  1
 23 24  1  6
 24 17  1  0
 25 23  1  0
 25 27  1  0
 26 25  2  0
M  END
$$$$
