RVI.pdb
     RDKit          3D

 27 26  0  0  1  0  0  0  0  0999 V2000
   10.3192  -22.1109   17.7143 N   0  0  0  0  0  0  0  0  0  0  0  0
    9.0998  -21.5874   17.1977 C   0  0  0  0  0  0  0  0  0  0  0  0
    8.7996  -21.6841   15.9344 N   0  0  0  0  0  0  0  0  0  0  0  0
    8.1446  -20.9425   18.0219 N   0  0  0  0  0  0  0  0  0  0  0  0
    8.4032  -20.6325   19.4013 C   0  0  0  0  0  0  0  0  0  0  0  0
    9.7199  -20.0262   19.6886 C   0  0  0  0  0  0  0  0  0  0  0  0
    9.8037  -18.7230   20.3604 C   0  0  0  0  0  0  0  0  0  0  0  0
    9.9930  -17.4859   19.5826 C   0  0  2  0  0  0  0  0  0  0  0  0
   11.2777  -17.4354   18.9228 N   0  0  0  0  0  0  0  0  0  0  0  0
    9.9026  -16.3111   20.5278 C   0  0  0  0  0  0  0  0  0  0  0  0
   10.8991  -15.8033   21.0568 O   0  0  0  0  0  0  0  0  0  0  0  0
    7.8751  -21.3223   15.6395 C   0  0  0  0  0  0  0  0  0  0  0  0
    5.9543  -14.6471   20.7940 C   0  0  1  0  0  0  0  0  0  0  0  0
    7.2536  -13.8867   20.7821 C   0  0  0  0  0  0  0  0  0  0  0  0
    7.6671  -13.4804   19.3911 C   0  0  1  0  0  0  0  0  0  0  0  0
    8.3651  -14.5552   21.5512 N   0  0  0  0  0  0  0  0  0  0  0  0
    8.6463  -15.7813   20.8120 C   0  0  0  0  0  0  0  0  0  0  0  0
    8.0140  -14.9534   22.9272 O   0  0  0  0  0  0  0  0  0  0  0  0
    8.3922  -16.1223   23.2836 C   0  0  0  0  0  0  0  0  0  0  0  0
    7.7474  -11.2738   27.8480 C   0  0  0  0  0  0  0  0  0  0  0  0
    7.9975  -12.5991   27.2285 C   0  0  2  0  0  0  0  0  0  0  0  0
    7.5180  -12.8457   25.8548 C   0  0  0  0  0  0  0  0  0  0  0  0
    6.0361  -12.4658   25.8180 C   0  0  2  0  0  0  0  0  0  0  0  0
    7.7934  -14.1517   25.2670 N   0  0  0  0  0  0  0  0  0  0  0  0
    7.3158  -14.1791   23.8570 C   0  0  0  0  0  0  0  0  0  0  0  0
    7.3483  -15.3866   25.9203 O   0  0  0  0  0  0  0  0  0  0  0  0
    6.2270  -15.8937   25.5348 O   0  0  0  0  0  0  0  0  0  0  0  0
  2  1  1  0
  3  2  2  0
  4  2  1  0
  5  6  1  0
  5  4  1  0
  7  6  1  0
  8  9  1  1
  8  7  1  0
 10  8  1  0
 11 10  2  0
 13 12  1  1
 13 14  1  0
 15 13  1  0
 15 16  1  6
 16 10  1  0
 17 15  1  0
 18 17  2  0
 20 19  1  0
 20 21  1  0
 21 23  1  0
 21 22  1  6
 23 24  1  1
 24 17  1  0
 25 23  1  0
 25 27  1  0
 26 25  2  0
M  END
$$$$
