RVI.pdb
     RDKit          3D

 27 26  0  0  1  0  0  0  0  0999 V2000
    8.1485  -12.5727   17.7561 N   0  0  0  0  0  0  0  0  0  0  0  0
    7.9882  -13.7346   16.9484 C   0  0  0  0  0  0  0  0  0  0  0  0
    8.1386  -13.6900   15.6558 N   0  0  0  0  0  0  0  0  0  0  0  0
    7.6660  -14.9996   17.4993 N   0  0  0  0  0  0  0  0  0  0  0  0
    7.9189  -15.3261   18.8759 C   0  0  0  0  0  0  0  0  0  0  0  0
    6.9464  -14.7931   19.8526 C   0  0  0  0  0  0  0  0  0  0  0  0
    6.1329  -15.7094   20.6622 C   0  0  0  0  0  0  0  0  0  0  0  0
    6.6950  -16.9789   21.1558 C   0  0  2  0  0  0  0  0  0  0  0  0
    6.1147  -18.1328   20.5076 N   0  0  0  0  0  0  0  0  0  0  0  0
    6.4141  -17.0797   22.6366 C   0  0  0  0  0  0  0  0  0  0  0  0
    5.2832  -16.9210   23.1126 O   0  0  0  0  0  0  0  0  0  0  0  0
    8.1515  -14.5938   15.1502 C   0  0  0  0  0  0  0  0  0  0  0  0
    6.9669  -20.0082   24.5363 C   0  0  2  0  0  0  0  0  0  0  0  0
    7.8495  -18.9681   25.1732 C   0  0  0  0  0  0  0  0  0  0  0  0
    8.1277  -19.2634   26.6245 C   0  0  2  0  0  0  0  0  0  0  0  0
    7.3946  -17.5492   24.9415 N   0  0  0  0  0  0  0  0  0  0  0  0
    7.4725  -17.3630   23.4964 C   0  0  0  0  0  0  0  0  0  0  0  0
    8.2502  -16.5164   25.5550 O   0  0  0  0  0  0  0  0  0  0  0  0
    9.3981  -16.3500   25.0156 C   0  0  0  0  0  0  0  0  0  0  0  0
    6.7206  -11.6434   26.4928 C   0  0  0  0  0  0  0  0  0  0  0  0
    7.5671  -12.8369   26.2441 C   0  0  2  0  0  0  0  0  0  0  0  0
    8.2860  -13.4496   27.3779 C   0  0  0  0  0  0  0  0  0  0  0  0
    9.2392  -12.3900   27.9350 C   0  0  2  0  0  0  0  0  0  0  0  0
    8.9262  -14.7408   27.1539 N   0  0  0  0  0  0  0  0  0  0  0  0
    7.9217  -15.7200   26.6547 C   0  0  0  0  0  0  0  0  0  0  0  0
    9.7091  -15.3923   28.2086 O   0  0  0  0  0  0  0  0  0  0  0  0
    9.1118  -16.2750   28.9348 O   0  0  0  0  0  0  0  0  0  0  0  0
  2  1  1  0
  3  2  2  0
  4  2  1  0
  5  6  1  0
  5  4  1  0
  7  6  1  0
  8  9  1  6
  8  7  1  0
 10  8  1  0
 11 10  2  0
 13 12  1  6
 13 14  1  0
 15 13  1  0
 15 16  1  1
 16 10  1  0
 17 15  1  0
 18 17  2  0
 20 19  1  0
 20 21  1  0
 21 23  1  0
 21 22  1  1
 23 24  1  6
 24 17  1  0
 25 23  1  0
 25 27  1  0
 26 25  2  0
M  END
$$$$
