RVI.pdb
     RDKit          3D

 27 26  0  0  1  0  0  0  0  0999 V2000
   14.9136  -18.8406   20.6402 N   0  0  0  0  0  0  0  0  0  0  0  0
   14.4737  -20.1750   20.4077 C   0  0  0  0  0  0  0  0  0  0  0  0
   15.2538  -21.1951   20.6224 N   0  0  0  0  0  0  0  0  0  0  0  0
   13.1691  -20.4702   19.9403 N   0  0  0  0  0  0  0  0  0  0  0  0
   12.2676  -19.4498   19.4801 C   0  0  0  0  0  0  0  0  0  0  0  0
   12.1432  -18.2614   20.3495 C   0  0  0  0  0  0  0  0  0  0  0  0
   11.3164  -17.1219   19.9314 C   0  0  0  0  0  0  0  0  0  0  0  0
    9.9024  -17.3127   19.5635 C   0  0  2  0  0  0  0  0  0  0  0  0
    9.7074  -17.4043   18.1345 N   0  0  0  0  0  0  0  0  0  0  0  0
    9.1147  -16.1279   20.0711 C   0  0  0  0  0  0  0  0  0  0  0  0
    8.6480  -15.2655   19.3167 O   0  0  0  0  0  0  0  0  0  0  0  0
   14.8545  -22.1371   20.4620 C   0  0  0  0  0  0  0  0  0  0  0  0
    6.1162  -16.8673   21.8172 C   0  0  1  0  0  0  0  0  0  0  0  0
    6.6138  -15.4886   21.4737 C   0  0  0  0  0  0  0  0  0  0  0  0
    6.5816  -15.2206   19.9911 C   0  0  1  0  0  0  0  0  0  0  0  0
    7.9383  -15.1375   22.1032 N   0  0  0  0  0  0  0  0  0  0  0  0
    8.9076  -16.0055   21.4429 C   0  0  0  0  0  0  0  0  0  0  0  0
    8.0292  -15.4128   23.5493 O   0  0  0  0  0  0  0  0  0  0  0  0
    8.8235  -16.3564   23.8888 C   0  0  0  0  0  0  0  0  0  0  0  0
    6.6315  -10.9319   26.2053 C   0  0  0  0  0  0  0  0  0  0  0  0
    7.4600  -12.0667   25.7271 C   0  0  2  0  0  0  0  0  0  0  0  0
    7.4644  -13.3224   26.5024 C   0  0  0  0  0  0  0  0  0  0  0  0
    8.0998  -13.0138   27.8598 C   0  0  2  0  0  0  0  0  0  0  0  0
    8.0190  -14.5099   25.8624 N   0  0  0  0  0  0  0  0  0  0  0  0
    7.3348  -14.7453   24.5611 C   0  0  0  0  0  0  0  0  0  0  0  0
    8.0933  -15.7899   26.5735 O   0  0  0  0  0  0  0  0  0  0  0  0
    7.0822  -16.5847   26.4768 O   0  0  0  0  0  0  0  0  0  0  0  0
  2  1  1  0
  3  2  2  0
  4  2  1  0
  5  6  1  0
  5  4  1  0
  7  6  1  0
  8  9  1  6
  8  7  1  0
 10  8  1  0
 11 10  2  0
 13 12  1  1
 13 14  1  0
 15 13  1  0
 15 16  1  6
 16 10  1  0
 17 15  1  0
 18 17  2  0
 20 19  1  0
 20 21  1  0
 21 23  1  0
 21 22  1  6
 23 24  1  6
 24 17  1  0
 25 23  1  0
 25 27  1  0
 26 25  2  0
M  END
$$$$
