RVI.pdb
     RDKit          3D

 27 26  0  0  1  0  0  0  0  0999 V2000
    9.7327  -22.3285   21.4165 N   0  0  0  0  0  0  0  0  0  0  0  0
    9.6557  -22.8060   20.0770 C   0  0  0  0  0  0  0  0  0  0  0  0
    9.2871  -24.0259   19.8102 N   0  0  0  0  0  0  0  0  0  0  0  0
    9.9655  -21.9864   18.9634 N   0  0  0  0  0  0  0  0  0  0  0  0
   10.5746  -20.6926   19.1064 C   0  0  0  0  0  0  0  0  0  0  0  0
   10.3208  -19.9999   20.3868 C   0  0  0  0  0  0  0  0  0  0  0  0
   10.8641  -18.6557   20.6215 C   0  0  0  0  0  0  0  0  0  0  0  0
   10.6406  -17.5730   19.6474 C   0  0  2  0  0  0  0  0  0  0  0  0
   11.7494  -17.4083   18.7354 N   0  0  0  0  0  0  0  0  0  0  0  0
   10.4596  -16.2798   20.4068 C   0  0  0  0  0  0  0  0  0  0  0  0
   11.4123  -15.6376   20.8656 O   0  0  0  0  0  0  0  0  0  0  0  0
    9.2618  -24.3044   18.8130 C   0  0  0  0  0  0  0  0  0  0  0  0
    7.0800  -12.7545   21.1718 C   0  0  1  0  0  0  0  0  0  0  0  0
    7.5342  -14.1055   20.6872 C   0  0  0  0  0  0  0  0  0  0  0  0
    6.4186  -15.1187   20.6861 C   0  0  2  0  0  0  0  0  0  0  0  0
    8.7846  -14.6127   21.3605 N   0  0  0  0  0  0  0  0  0  0  0  0
    9.1678  -15.7945   20.5954 C   0  0  0  0  0  0  0  0  0  0  0  0
    8.6033  -15.0454   22.7587 O   0  0  0  0  0  0  0  0  0  0  0  0
    8.6999  -16.3033   22.9705 C   0  0  0  0  0  0  0  0  0  0  0  0
    8.4094  -13.1869   28.6937 C   0  0  0  0  0  0  0  0  0  0  0  0
    8.7218  -14.1548   27.6128 C   0  0  2  0  0  0  0  0  0  0  0  0
    8.5085  -13.7498   26.2098 C   0  0  0  0  0  0  0  0  0  0  0  0
    7.3621  -12.7362   26.2009 C   0  0  2  0  0  0  0  0  0  0  0  0
    8.3516  -14.8070   25.2175 N   0  0  0  0  0  0  0  0  0  0  0  0
    8.3388  -14.2158   23.8510 C   0  0  0  0  0  0  0  0  0  0  0  0
    7.2506  -15.7714   25.3044 O   0  0  0  0  0  0  0  0  0  0  0  0
    6.1796  -15.5148   24.6333 O   0  0  0  0  0  0  0  0  0  0  0  0
  2  1  1  0
  3  2  2  0
  4  2  1  0
  5  6  1  0
  5  4  1  0
  7  6  1  0
  8  9  1  6
  8  7  1  0
 10  8  1  0
 11 10  2  0
 13 12  1  6
 13 14  1  0
 15 13  1  0
 15 16  1  1
 16 10  1  0
 17 15  1  0
 18 17  2  0
 20 19  1  0
 20 21  1  0
 21 23  1  0
 21 22  1  6
 23 24  1  1
 24 17  1  0
 25 23  1  0
 25 27  1  0
 26 25  2  0
M  END
$$$$
