RVI.pdb
     RDKit          3D

 27 26  0  0  1  0  0  0  0  0999 V2000
   15.7262  -20.4583   18.0499 N   0  0  0  0  0  0  0  0  0  0  0  0
   16.4408  -19.5701   18.9035 C   0  0  0  0  0  0  0  0  0  0  0  0
   17.6843  -19.2598   18.6738 N   0  0  0  0  0  0  0  0  0  0  0  0
   15.8440  -18.9699   20.0398 N   0  0  0  0  0  0  0  0  0  0  0  0
   14.4872  -19.2404   20.4291 C   0  0  0  0  0  0  0  0  0  0  0  0
   13.4556  -18.3893   19.8005 C   0  0  0  0  0  0  0  0  0  0  0  0
   12.7610  -17.3636   20.5893 C   0  0  0  0  0  0  0  0  0  0  0  0
   11.5528  -17.6991   21.3631 C   0  0  2  0  0  0  0  0  0  0  0  0
   10.6095  -18.4897   20.6057 N   0  0  0  0  0  0  0  0  0  0  0  0
   10.8724  -16.4117   21.7650 C   0  0  0  0  0  0  0  0  0  0  0  0
   11.4709  -15.4920   22.3364 O   0  0  0  0  0  0  0  0  0  0  0  0
   18.1252  -18.5729   19.3112 C   0  0  0  0  0  0  0  0  0  0  0  0
    7.9282  -14.9288   19.3920 C   0  0  1  0  0  0  0  0  0  0  0  0
    7.5366  -15.1733   20.8249 C   0  0  0  0  0  0  0  0  0  0  0  0
    6.3592  -14.3335   21.2486 C   0  0  2  0  0  0  0  0  0  0  0  0
    8.6864  -15.1023   21.7980 N   0  0  0  0  0  0  0  0  0  0  0  0
    9.5180  -16.2579   21.4788 C   0  0  0  0  0  0  0  0  0  0  0  0
    8.3051  -15.2256   23.2174 O   0  0  0  0  0  0  0  0  0  0  0  0
    8.6424  -16.3171   23.7930 C   0  0  0  0  0  0  0  0  0  0  0  0
    7.1600  -10.8352   26.2594 C   0  0  0  0  0  0  0  0  0  0  0  0
    7.7444  -12.1764   26.0095 C   0  0  2  0  0  0  0  0  0  0  0  0
    6.8654  -13.3601   26.0731 C   0  0  0  0  0  0  0  0  0  0  0  0
    6.5112  -13.5818   27.5452 C   0  0  2  0  0  0  0  0  0  0  0  0
    7.3148  -14.5727   25.3989 N   0  0  0  0  0  0  0  0  0  0  0  0
    7.6191  -14.2715   23.9729 C   0  0  0  0  0  0  0  0  0  0  0  0
    6.5196  -15.8038   25.4425 O   0  0  0  0  0  0  0  0  0  0  0  0
    5.5683  -15.9292   24.5809 O   0  0  0  0  0  0  0  0  0  0  0  0
  2  1  1  0
  3  2  2  0
  4  2  1  0
  5  6  1  0
  5  4  1  0
  7  6  1  0
  8  9  1  6
  8  7  1  0
 10  8  1  0
 11 10  2  0
 13 12  1  6
 13 14  1  0
 15 13  1  0
 15 16  1  1
 16 10  1  0
 17 15  1  0
 18 17  2  0
 20 19  1  0
 20 21  1  0
 21 23  1  0
 21 22  1  6
 23 24  1  1
 24 17  1  0
 25 23  1  0
 25 27  1  0
 26 25  2  0
M  END
$$$$
