RVI.pdb
     RDKit          3D

 27 26  0  0  1  0  0  0  0  0999 V2000
   15.3771  -15.7798   19.2075 N   0  0  0  0  0  0  0  0  0  0  0  0
   14.9977  -14.5333   18.6328 C   0  0  0  0  0  0  0  0  0  0  0  0
   15.8870  -13.6653   18.2439 N   0  0  0  0  0  0  0  0  0  0  0  0
   13.6414  -14.1694   18.4441 N   0  0  0  0  0  0  0  0  0  0  0  0
   12.5619  -15.0983   18.6370 C   0  0  0  0  0  0  0  0  0  0  0  0
   12.0483  -15.2101   20.0182 C   0  0  0  0  0  0  0  0  0  0  0  0
   10.6135  -15.0526   20.2892 C   0  0  0  0  0  0  0  0  0  0  0  0
    9.6874  -16.1867   20.1240 C   0  0  2  0  0  0  0  0  0  0  0  0
    9.0217  -16.1782   18.8413 N   0  0  0  0  0  0  0  0  0  0  0  0
    8.6329  -16.1008   21.2022 C   0  0  0  0  0  0  0  0  0  0  0  0
    7.5995  -15.4330   21.0719 O   0  0  0  0  0  0  0  0  0  0  0  0
   15.5372  -12.7946   17.8058 C   0  0  0  0  0  0  0  0  0  0  0  0
    6.8145  -18.5855   24.9806 C   0  0  1  0  0  0  0  0  0  0  0  0
    7.7012  -18.3055   23.7967 C   0  0  0  0  0  0  0  0  0  0  0  0
    8.9745  -19.1109   23.8311 C   0  0  2  0  0  0  0  0  0  0  0  0
    7.9430  -16.8391   23.5417 N   0  0  0  0  0  0  0  0  0  0  0  0
    8.8355  -16.8026   22.3880 C   0  0  0  0  0  0  0  0  0  0  0  0
    8.6256  -16.1243   24.6364 O   0  0  0  0  0  0  0  0  0  0  0  0
    9.8946  -16.0099   24.5222 C   0  0  0  0  0  0  0  0  0  0  0  0
    6.2565  -11.8806   26.7058 C   0  0  0  0  0  0  0  0  0  0  0  0
    7.3077  -12.8084   26.2189 C   0  0  2  0  0  0  0  0  0  0  0  0
    8.0389  -13.6345   27.1990 C   0  0  0  0  0  0  0  0  0  0  0  0
    8.8292  -12.6791   28.0958 C   0  0  2  0  0  0  0  0  0  0  0  0
    8.8401  -14.7404   26.6869 N   0  0  0  0  0  0  0  0  0  0  0  0
    8.0173  -15.5730   25.7667 C   0  0  0  0  0  0  0  0  0  0  0  0
    9.5571  -15.6414   27.5945 O   0  0  0  0  0  0  0  0  0  0  0  0
    8.9618  -16.7300   27.9465 O   0  0  0  0  0  0  0  0  0  0  0  0
  2  1  1  0
  3  2  2  0
  4  2  1  0
  5  6  1  0
  5  4  1  0
  7  6  1  0
  8  9  1  6
  8  7  1  0
 10  8  1  0
 11 10  2  0
 13 12  1  6
 13 14  1  0
 15 13  1  0
 15 16  1  1
 16 10  1  0
 17 15  1  0
 18 17  2  0
 20 19  1  0
 20 21  1  0
 21 23  1  0
 21 22  1  1
 23 24  1  6
 24 17  1  0
 25 23  1  0
 25 27  1  0
 26 25  2  0
M  END
$$$$
