RVI.pdb
     RDKit          3D

 27 26  0  0  1  0  0  0  0  0999 V2000
   15.1309  -16.5316   19.7481 N   0  0  0  0  0  0  0  0  0  0  0  0
   14.1292  -15.5535   20.0089 C   0  0  0  0  0  0  0  0  0  0  0  0
   13.4735  -15.5351   21.1337 N   0  0  0  0  0  0  0  0  0  0  0  0
   13.7946  -14.5455   19.0710 N   0  0  0  0  0  0  0  0  0  0  0  0
   12.5605  -13.8120   19.1377 C   0  0  0  0  0  0  0  0  0  0  0  0
   11.3386  -14.5777   18.8146 C   0  0  0  0  0  0  0  0  0  0  0  0
   10.3766  -14.9165   19.8713 C   0  0  0  0  0  0  0  0  0  0  0  0
    9.2473  -15.8229   19.5987 C   0  0  2  0  0  0  0  0  0  0  0  0
    8.4839  -15.4259   18.4377 N   0  0  0  0  0  0  0  0  0  0  0  0
    8.3259  -15.8081   20.7956 C   0  0  0  0  0  0  0  0  0  0  0  0
    7.4165  -14.9795   20.9263 O   0  0  0  0  0  0  0  0  0  0  0  0
   12.6706  -14.8846   21.2018 C   0  0  0  0  0  0  0  0  0  0  0  0
    6.9981  -19.2678   21.9863 C   0  0  2  0  0  0  0  0  0  0  0  0
    7.6505  -18.5105   23.1120 C   0  0  0  0  0  0  0  0  0  0  0  0
    7.1423  -18.9422   24.4634 C   0  0  2  0  0  0  0  0  0  0  0  0
    7.6403  -17.0132   22.9339 N   0  0  0  0  0  0  0  0  0  0  0  0
    8.5103  -16.7670   21.7887 C   0  0  0  0  0  0  0  0  0  0  0  0
    8.1955  -16.2507   24.0678 O   0  0  0  0  0  0  0  0  0  0  0  0
    9.4680  -16.1199   24.0826 C   0  0  0  0  0  0  0  0  0  0  0  0
    5.7799  -11.9474   26.0386 C   0  0  0  0  0  0  0  0  0  0  0  0
    6.8662  -12.8801   25.6477 C   0  0  2  0  0  0  0  0  0  0  0  0
    7.3926  -13.8228   26.6537 C   0  0  0  0  0  0  0  0  0  0  0  0
    8.0879  -12.9905   27.7333 C   0  0  2  0  0  0  0  0  0  0  0  0
    8.2006  -14.9392   26.1763 N   0  0  0  0  0  0  0  0  0  0  0  0
    7.4654  -15.6710   25.1081 C   0  0  0  0  0  0  0  0  0  0  0  0
    8.7517  -15.9291   27.1069 O   0  0  0  0  0  0  0  0  0  0  0  0
    9.9394  -15.7203   27.5642 O   0  0  0  0  0  0  0  0  0  0  0  0
  2  1  1  0
  3  2  2  0
  4  2  1  0
  5  6  1  0
  5  4  1  0
  7  6  1  0
  8  9  1  6
  8  7  1  0
 10  8  1  0
 11 10  2  0
 13 12  1  1
 13 14  1  0
 15 13  1  0
 15 16  1  6
 16 10  1  0
 17 15  1  0
 18 17  2  0
 20 19  1  0
 20 21  1  0
 21 23  1  0
 21 22  1  1
 23 24  1  6
 24 17  1  0
 25 23  1  0
 25 27  1  0
 26 25  2  0
M  END
$$$$
