RVI.pdb
     RDKit          3D

 27 26  0  0  1  0  0  0  0  0999 V2000
    8.5881  -22.5264   19.7150 N   0  0  0  0  0  0  0  0  0  0  0  0
    9.5565  -23.1747   20.5335 C   0  0  0  0  0  0  0  0  0  0  0  0
    9.7488  -24.4609   20.4701 N   0  0  0  0  0  0  0  0  0  0  0  0
   10.3674  -22.4636   21.4525 N   0  0  0  0  0  0  0  0  0  0  0  0
   10.2078  -21.0552   21.6895 C   0  0  0  0  0  0  0  0  0  0  0  0
    8.8473  -20.5175   21.4801 C   0  0  0  0  0  0  0  0  0  0  0  0
    8.5649  -19.0989   21.7343 C   0  0  0  0  0  0  0  0  0  0  0  0
    8.2323  -18.1872   20.6257 C   0  0  2  0  0  0  0  0  0  0  0  0
    8.6535  -18.6976   19.3410 N   0  0  0  0  0  0  0  0  0  0  0  0
    8.9362  -16.8721   20.8637 C   0  0  0  0  0  0  0  0  0  0  0  0
   10.1689  -16.7659   20.8600 O   0  0  0  0  0  0  0  0  0  0  0  0
   10.4997  -24.8562   21.0638 C   0  0  0  0  0  0  0  0  0  0  0  0
    7.8940  -12.0120   20.8989 C   0  0  1  0  0  0  0  0  0  0  0  0
    7.5774  -13.4799   20.7909 C   0  0  0  0  0  0  0  0  0  0  0  0
    6.2087  -13.8119   21.3270 C   0  0  2  0  0  0  0  0  0  0  0  0
    8.6544  -14.3837   21.3358 N   0  0  0  0  0  0  0  0  0  0  0  0
    8.1637  -15.7367   21.0957 C   0  0  0  0  0  0  0  0  0  0  0  0
    8.8893  -14.2625   22.7868 O   0  0  0  0  0  0  0  0  0  0  0  0
    9.3881  -13.1522   23.1806 C   0  0  0  0  0  0  0  0  0  0  0  0
    6.9863  -11.9513   27.0737 C   0  0  0  0  0  0  0  0  0  0  0  0
    7.9876  -12.9794   26.6951 C   0  0  2  0  0  0  0  0  0  0  0  0
    7.7882  -13.7435   25.4484 C   0  0  0  0  0  0  0  0  0  0  0  0
    6.3095  -14.1325   25.3879 C   0  0  2  0  0  0  0  0  0  0  0  0
    8.6896  -14.8602   25.1887 N   0  0  0  0  0  0  0  0  0  0  0  0
    8.6203  -15.2379   23.7501 C   0  0  0  0  0  0  0  0  0  0  0  0
    8.6221  -16.0902   25.9839 O   0  0  0  0  0  0  0  0  0  0  0  0
    7.9246  -17.0670   25.5122 O   0  0  0  0  0  0  0  0  0  0  0  0
  2  1  1  0
  3  2  2  0
  4  2  1  0
  5  6  1  0
  5  4  1  0
  7  6  1  0
  8  9  1  6
  8  7  1  0
 10  8  1  0
 11 10  2  0
 13 12  1  6
 13 14  1  0
 15 13  1  0
 15 16  1  1
 16 10  1  0
 17 15  1  0
 18 17  2  0
 20 19  1  0
 20 21  1  0
 21 23  1  0
 21 22  1  6
 23 24  1  1
 24 17  1  0
 25 23  1  0
 25 27  1  0
 26 25  2  0
M  END
$$$$
