IEQ.pdb
     RDKit          3D

 27 26  0  0  1  0  0  0  0  0999 V2000
   28.6419  -17.4268  -17.9675 C   0  0  0  0  0  0  0  0  0  0  0  0
   28.7307  -18.5308  -16.9592 C   0  0  0  0  0  0  0  0  0  0  0  0
   27.3992  -18.8739  -16.3374 C   0  0  2  0  0  0  0  0  0  0  0  0
   26.7817  -17.5890  -15.8013 C   0  0  0  0  0  0  0  0  0  0  0  0
   27.4880  -19.9623  -15.3174 C   0  0  2  0  0  0  0  0  0  0  0  0
   28.0523  -21.1285  -16.0187 N   0  0  0  0  0  0  0  0  0  0  0  0
   26.2291  -20.3968  -14.7309 C   0  0  0  0  0  0  0  0  0  0  0  0
   25.3689  -21.0612  -15.4074 O   0  0  0  0  0  0  0  0  0  0  0  0
   25.8015  -20.1517  -13.3753 N   0  0  0  0  0  0  0  0  0  0  0  0
   24.5332  -20.5926  -12.8768 C   0  0  1  0  0  0  0  0  0  0  0  0
   24.5358  -20.6236  -11.3916 C   0  0  0  0  0  0  0  0  0  0  0  0
   25.6966  -21.2110  -10.6971 C   0  0  0  0  0  0  0  0  0  0  0  0
   25.6726  -21.2025   -9.2240 C   0  0  0  0  0  0  0  0  0  0  0  0
   24.5878  -21.2308   -8.5762 O   0  0  0  0  0  0  0  0  0  0  0  0
   23.3980  -19.7949  -13.3528 C   0  0  0  0  0  0  0  0  0  0  0  0
   23.5038  -18.5889  -13.6664 O   0  0  0  0  0  0  0  0  0  0  0  0
   26.8503  -21.1629   -8.4987 O   0  0  0  0  0  0  0  0  0  0  0  0
   21.0549  -21.2497  -17.9014 N   0  0  0  0  0  0  0  0  0  0  0  0
   20.0750  -20.2439  -17.7244 C   0  0  0  0  0  0  0  0  0  0  0  0
   19.2136  -20.0730  -18.6108 O   0  0  0  0  0  0  0  0  0  0  0  0
   20.1403  -19.4358  -16.4586 C   0  0  0  0  0  0  0  0  0  0  0  0
   21.2576  -19.9607  -15.6031 C   0  0  0  0  0  0  0  0  0  0  0  0
   20.9871  -19.8484  -14.1245 C   0  0  2  0  0  0  0  0  0  0  0  0
   22.1357  -20.4323  -13.4553 N   0  0  0  0  0  0  0  0  0  0  0  0
   19.7880  -20.6012  -13.6947 C   0  0  0  0  0  0  0  0  0  0  0  0
   18.7140  -19.9995  -13.4519 O   0  0  0  0  0  0  0  0  0  0  0  0
   19.7907  -21.9776  -13.5427 O   0  0  0  0  0  0  0  0  0  0  0  0
  2  1  1  0
  2  3  1  0
  3  4  1  1
  5  3  1  0
  5  6  1  6
  7  8  2  0
  7  5  1  0
  9  7  1  0
 10  9  1  0
 10 11  1  1
 12 11  1  0
 12 13  1  0
 13 14  2  0
 15 10  1  0
 16 15  2  0
 17 13  1  0
 19 18  1  0
 20 19  2  0
 21 19  1  0
 22 21  1  0
 23 22  1  6
 23 24  1  0
 24 15  1  0
 25 23  1  0
 26 25  2  0
 27 25  1  0
M  END
$$$$
