IEQ.pdb
     RDKit          3D

 27 26  0  0  1  0  0  0  0  0999 V2000
   18.1405  -15.8355  -15.4443 C   0  0  0  0  0  0  0  0  0  0  0  0
   17.9715  -14.6166  -16.2981 C   0  0  0  0  0  0  0  0  0  0  0  0
   18.4487  -13.3521  -15.6270 C   0  0  2  0  0  0  0  0  0  0  0  0
   17.7433  -13.2344  -14.2823 C   0  0  0  0  0  0  0  0  0  0  0  0
   18.3010  -12.1376  -16.4849 C   0  0  2  0  0  0  0  0  0  0  0  0
   18.8677  -12.4976  -17.7963 N   0  0  0  0  0  0  0  0  0  0  0  0
   19.0072  -10.9461  -16.0380 C   0  0  0  0  0  0  0  0  0  0  0  0
   18.6580  -10.3185  -14.9782 O   0  0  0  0  0  0  0  0  0  0  0  0
   20.1403  -10.3417  -16.6947 N   0  0  0  0  0  0  0  0  0  0  0  0
   20.7448   -9.1304  -16.2268 C   0  0  1  0  0  0  0  0  0  0  0  0
   22.1266   -8.9961  -16.7554 C   0  0  0  0  0  0  0  0  0  0  0  0
   22.9576   -7.8708  -16.2884 C   0  0  0  0  0  0  0  0  0  0  0  0
   24.2929   -7.7256  -16.8940 C   0  0  0  0  0  0  0  0  0  0  0  0
   24.4620   -7.1332  -17.9974 O   0  0  0  0  0  0  0  0  0  0  0  0
   19.9751   -7.9222  -16.5421 C   0  0  0  0  0  0  0  0  0  0  0  0
   19.3709   -7.7696  -17.6264 O   0  0  0  0  0  0  0  0  0  0  0  0
   25.4132   -8.2394  -16.2651 O   0  0  0  0  0  0  0  0  0  0  0  0
   15.1905   -7.1015  -15.5877 N   0  0  0  0  0  0  0  0  0  0  0  0
   15.2829   -5.6912  -15.5126 C   0  0  0  0  0  0  0  0  0  0  0  0
   14.2371   -5.0194  -15.4035 O   0  0  0  0  0  0  0  0  0  0  0  0
   16.6586   -5.0884  -15.5707 C   0  0  0  0  0  0  0  0  0  0  0  0
   17.6680   -6.1918  -15.7105 C   0  0  0  0  0  0  0  0  0  0  0  0
   19.0955   -5.7083  -15.6844 C   0  0  2  0  0  0  0  0  0  0  0  0
   19.9246   -6.8944  -15.5668 N   0  0  0  0  0  0  0  0  0  0  0  0
   19.3926   -4.8375  -14.5257 C   0  0  0  0  0  0  0  0  0  0  0  0
   20.0151   -5.2901  -13.5346 O   0  0  0  0  0  0  0  0  0  0  0  0
   19.0074   -3.5083  -14.4779 O   0  0  0  0  0  0  0  0  0  0  0  0
  2  1  1  0
  2  3  1  0
  3  4  1  1
  5  3  1  0
  5  6  1  6
  7  8  2  0
  7  5  1  0
  9  7  1  0
 10  9  1  0
 10 11  1  6
 12 11  1  0
 12 13  1  0
 13 14  2  0
 15 10  1  0
 16 15  2  0
 17 13  1  0
 19 18  1  0
 20 19  2  0
 21 19  1  0
 22 21  1  0
 23 22  1  1
 23 24  1  0
 24 15  1  0
 25 23  1  0
 26 25  2  0
 27 25  1  0
M  END
$$$$
