IEQ.pdb
     RDKit          3D

 27 26  0  0  1  0  0  0  0  0999 V2000
   14.5505  -23.0795   -7.5943 C   0  0  0  0  0  0  0  0  0  0  0  0
   15.8750  -23.7288   -7.3346 C   0  0  0  0  0  0  0  0  0  0  0  0
   15.8587  -24.6516   -6.1408 C   0  0  2  0  0  0  0  0  0  0  0  0
   15.4009  -23.8504   -4.9291 C   0  0  0  0  0  0  0  0  0  0  0  0
   17.1552  -25.3636   -5.9283 C   0  0  2  0  0  0  0  0  0  0  0  0
   17.4053  -26.1253   -7.1643 N   0  0  0  0  0  0  0  0  0  0  0  0
   17.1897  -26.3216   -4.8334 C   0  0  0  0  0  0  0  0  0  0  0  0
   16.1663  -27.0279   -4.5288 O   0  0  0  0  0  0  0  0  0  0  0  0
   18.3250  -26.5929   -3.9861 N   0  0  0  0  0  0  0  0  0  0  0  0
   18.2262  -27.3863   -2.7977 C   0  0  1  0  0  0  0  0  0  0  0  0
   19.2818  -28.4312   -2.7757 C   0  0  0  0  0  0  0  0  0  0  0  0
   19.2775  -29.4198   -1.6815 C   0  0  0  0  0  0  0  0  0  0  0  0
   20.3997  -30.3734   -1.6337 C   0  0  0  0  0  0  0  0  0  0  0  0
   20.4370  -31.3151   -0.7917 O   0  0  0  0  0  0  0  0  0  0  0  0
   18.2769  -26.6059   -1.5566 C   0  0  0  0  0  0  0  0  0  0  0  0
   19.0928  -25.6755   -1.3763 O   0  0  0  0  0  0  0  0  0  0  0  0
   21.4572  -30.2644   -2.5193 O   0  0  0  0  0  0  0  0  0  0  0  0
   13.7748  -24.0688    0.7050 N   0  0  0  0  0  0  0  0  0  0  0  0
   14.5155  -23.9098    1.9005 C   0  0  0  0  0  0  0  0  0  0  0  0
   14.0744  -23.1565    2.7921 O   0  0  0  0  0  0  0  0  0  0  0  0
   15.8057  -24.6722    2.0163 C   0  0  0  0  0  0  0  0  0  0  0  0
   16.0405  -25.4284    0.7401 C   0  0  0  0  0  0  0  0  0  0  0  0
   17.3014  -26.2543    0.7532 C   0  0  2  0  0  0  0  0  0  0  0  0
   17.3564  -26.9330   -0.5290 N   0  0  0  0  0  0  0  0  0  0  0  0
   17.3056  -27.2908    1.8091 C   0  0  0  0  0  0  0  0  0  0  0  0
   16.5657  -28.2995    1.7115 O   0  0  0  0  0  0  0  0  0  0  0  0
   18.1093  -27.2019    2.9332 O   0  0  0  0  0  0  0  0  0  0  0  0
  2  1  1  0
  2  3  1  0
  3  4  1  1
  5  3  1  0
  5  6  1  6
  7  8  2  0
  7  5  1  0
  9  7  1  0
 10  9  1  0
 10 11  1  1
 12 11  1  0
 12 13  1  0
 13 14  2  0
 15 10  1  0
 16 15  2  0
 17 13  1  0
 19 18  1  0
 20 19  2  0
 21 19  1  0
 22 21  1  0
 23 22  1  6
 23 24  1  0
 24 15  1  0
 25 23  1  0
 26 25  2  0
 27 25  1  0
M  END
$$$$
