IEQ.pdb
     RDKit          3D

 27 26  0  0  1  0  0  0  0  0999 V2000
   11.8023  -11.9641  -10.8202 C   0  0  0  0  0  0  0  0  0  0  0  0
   13.2508  -11.5910  -10.7438 C   0  0  0  0  0  0  0  0  0  0  0  0
   13.4818  -10.1004  -10.7848 C   0  0  2  0  0  0  0  0  0  0  0  0
   12.7879   -9.5475  -12.0228 C   0  0  0  0  0  0  0  0  0  0  0  0
   14.9253   -9.7249  -10.6940 C   0  0  2  0  0  0  0  0  0  0  0  0
   15.3923  -10.2266   -9.3899 N   0  0  0  0  0  0  0  0  0  0  0  0
   15.2211   -8.3003  -10.7233 C   0  0  0  0  0  0  0  0  0  0  0  0
   15.1953   -7.6330  -11.8157 O   0  0  0  0  0  0  0  0  0  0  0  0
   15.5649   -7.4870   -9.5827 N   0  0  0  0  0  0  0  0  0  0  0  0
   15.9050   -6.1007   -9.7005 C   0  0  1  0  0  0  0  0  0  0  0  0
   15.3842   -5.3327   -8.5404 C   0  0  0  0  0  0  0  0  0  0  0  0
   13.9255   -5.1759   -8.3918 C   0  0  0  0  0  0  0  0  0  0  0  0
   13.4466   -4.4354   -7.2115 C   0  0  0  0  0  0  0  0  0  0  0  0
   13.0298   -5.0301   -6.1772 O   0  0  0  0  0  0  0  0  0  0  0  0
   17.3428   -5.8527   -9.8525 C   0  0  0  0  0  0  0  0  0  0  0  0
   18.1907   -6.2694   -9.0331 O   0  0  0  0  0  0  0  0  0  0  0  0
   13.4392   -3.0518   -7.2009 O   0  0  0  0  0  0  0  0  0  0  0  0
   19.7168   -9.0516  -12.7466 N   0  0  0  0  0  0  0  0  0  0  0  0
   20.8171   -8.2055  -13.0234 C   0  0  0  0  0  0  0  0  0  0  0  0
   21.8215   -8.6818  -13.5901 O   0  0  0  0  0  0  0  0  0  0  0  0
   20.6987   -6.7658  -12.6081 C   0  0  0  0  0  0  0  0  0  0  0  0
   19.3975   -6.5738  -11.8828 C   0  0  0  0  0  0  0  0  0  0  0  0
   19.1262   -5.1407  -11.5026 C   0  0  2  0  0  0  0  0  0  0  0  0
   17.7721   -5.1079  -10.9799 N   0  0  0  0  0  0  0  0  0  0  0  0
   19.1843   -4.2135  -12.6542 C   0  0  0  0  0  0  0  0  0  0  0  0
   18.1642   -4.0073  -13.3552 O   0  0  0  0  0  0  0  0  0  0  0  0
   20.3419   -3.5410  -13.0081 O   0  0  0  0  0  0  0  0  0  0  0  0
  2  1  1  0
  2  3  1  0
  3  4  1  6
  5  3  1  0
  5  6  1  1
  7  8  2  0
  7  5  1  0
  9  7  1  0
 10  9  1  0
 10 11  1  1
 12 11  1  0
 12 13  1  0
 13 14  2  0
 15 10  1  0
 16 15  2  0
 17 13  1  0
 19 18  1  0
 20 19  2  0
 21 19  1  0
 22 21  1  0
 23 22  1  6
 23 24  1  0
 24 15  1  0
 25 23  1  0
 26 25  2  0
 27 25  1  0
M  END
$$$$
