IEQ.pdb
     RDKit          3D

 27 26  0  0  1  0  0  0  0  0999 V2000
   16.4755  -15.6500  -16.1146 C   0  0  0  0  0  0  0  0  0  0  0  0
   16.3659  -14.2167  -16.5354 C   0  0  0  0  0  0  0  0  0  0  0  0
   16.7555  -13.2478  -15.4461 C   0  0  2  0  0  0  0  0  0  0  0  0
   15.9340  -13.5742  -14.2058 C   0  0  0  0  0  0  0  0  0  0  0  0
   16.6560  -11.8173  -15.8664 C   0  0  2  0  0  0  0  0  0  0  0  0
   17.5882  -11.6623  -16.9966 N   0  0  0  0  0  0  0  0  0  0  0  0
   17.0389  -10.8275  -14.8707 C   0  0  0  0  0  0  0  0  0  0  0  0
   16.4810  -10.7851  -13.7192 O   0  0  0  0  0  0  0  0  0  0  0  0
   18.0494   -9.8117  -15.0370 N   0  0  0  0  0  0  0  0  0  0  0  0
   18.3266   -8.8302  -14.0314 C   0  0  1  0  0  0  0  0  0  0  0  0
   19.5177   -8.0230  -14.4010 C   0  0  0  0  0  0  0  0  0  0  0  0
   20.7953   -8.7170  -14.6474 C   0  0  0  0  0  0  0  0  0  0  0  0
   21.9839   -7.8758  -14.8723 C   0  0  0  0  0  0  0  0  0  0  0  0
   21.9204   -6.6140  -14.8457 O   0  0  0  0  0  0  0  0  0  0  0  0
   17.1968   -7.9405  -13.7422 C   0  0  0  0  0  0  0  0  0  0  0  0
   16.3574   -7.6107  -14.6087 O   0  0  0  0  0  0  0  0  0  0  0  0
   23.2181   -8.4495  -15.1218 O   0  0  0  0  0  0  0  0  0  0  0  0
   15.5738   -7.3662   -7.9178 N   0  0  0  0  0  0  0  0  0  0  0  0
   14.6945   -6.3610   -8.3864 C   0  0  0  0  0  0  0  0  0  0  0  0
   13.9421   -5.7857   -7.5741 O   0  0  0  0  0  0  0  0  0  0  0  0
   14.7273   -6.0500   -9.8566 C   0  0  0  0  0  0  0  0  0  0  0  0
   15.7683   -6.9108  -10.5132 C   0  0  0  0  0  0  0  0  0  0  0  0
   15.9626   -6.6092  -11.9772 C   0  0  2  0  0  0  0  0  0  0  0  0
   17.0655   -7.4425  -12.4213 N   0  0  0  0  0  0  0  0  0  0  0  0
   16.3334   -5.2004  -12.2357 C   0  0  0  0  0  0  0  0  0  0  0  0
   17.5400   -4.8578  -12.2713 O   0  0  0  0  0  0  0  0  0  0  0  0
   15.3881   -4.2108  -12.4470 O   0  0  0  0  0  0  0  0  0  0  0  0
  2  1  1  0
  2  3  1  0
  3  4  1  1
  5  3  1  0
  5  6  1  6
  7  8  2  0
  7  5  1  0
  9  7  1  0
 10  9  1  0
 10 11  1  6
 12 11  1  0
 12 13  1  0
 13 14  2  0
 15 10  1  0
 16 15  2  0
 17 13  1  0
 19 18  1  0
 20 19  2  0
 21 19  1  0
 22 21  1  0
 23 22  1  1
 23 24  1  0
 24 15  1  0
 25 23  1  0
 26 25  2  0
 27 25  1  0
M  END
$$$$
