IEQ.pdb
     RDKit          3D

 27 26  0  0  1  0  0  0  0  0999 V2000
   29.4055  -20.2018  -11.3224 C   0  0  0  0  0  0  0  0  0  0  0  0
   28.2666  -21.1396  -11.5807 C   0  0  0  0  0  0  0  0  0  0  0  0
   26.9148  -20.4872  -11.4249 C   0  0  2  0  0  0  0  0  0  0  0  0
   26.8819  -19.7822  -10.0752 C   0  0  0  0  0  0  0  0  0  0  0  0
   25.7766  -21.4333  -11.6302 C   0  0  2  0  0  0  0  0  0  0  0  0
   26.1951  -22.3404  -12.7129 N   0  0  0  0  0  0  0  0  0  0  0  0
   24.5153  -20.8393  -12.0475 C   0  0  0  0  0  0  0  0  0  0  0  0
   23.7444  -20.2487  -11.2131 O   0  0  0  0  0  0  0  0  0  0  0  0
   23.9894  -20.8341  -13.3905 N   0  0  0  0  0  0  0  0  0  0  0  0
   22.6811  -20.3419  -13.7028 C   0  0  1  0  0  0  0  0  0  0  0  0
   22.6610  -19.7281  -15.0555 C   0  0  0  0  0  0  0  0  0  0  0  0
   23.9358  -19.5653  -15.7787 C   0  0  0  0  0  0  0  0  0  0  0  0
   23.8655  -19.0399  -17.1535 C   0  0  0  0  0  0  0  0  0  0  0  0
   24.8994  -18.9041  -17.8673 O   0  0  0  0  0  0  0  0  0  0  0  0
   21.6258  -21.3559  -13.6043 C   0  0  0  0  0  0  0  0  0  0  0  0
   21.8664  -22.5832  -13.5984 O   0  0  0  0  0  0  0  0  0  0  0  0
   22.6516  -18.6760  -17.7092 O   0  0  0  0  0  0  0  0  0  0  0  0
   20.3121  -23.1638   -9.3333 N   0  0  0  0  0  0  0  0  0  0  0  0
   19.0604  -23.6624   -9.7665 C   0  0  0  0  0  0  0  0  0  0  0  0
   18.4282  -24.4422   -9.0254 O   0  0  0  0  0  0  0  0  0  0  0  0
   18.5696  -23.2110  -11.1136 C   0  0  0  0  0  0  0  0  0  0  0  0
   19.5697  -22.2569  -11.7014 C   0  0  0  0  0  0  0  0  0  0  0  0
   19.1826  -21.7438  -13.0648 C   0  0  2  0  0  0  0  0  0  0  0  0
   20.2831  -20.9097  -13.5131 N   0  0  0  0  0  0  0  0  0  0  0  0
   17.9640  -20.9048  -13.0451 C   0  0  0  0  0  0  0  0  0  0  0  0
   18.0453  -19.6724  -12.8238 O   0  0  0  0  0  0  0  0  0  0  0  0
   16.7002  -21.4262  -13.2656 O   0  0  0  0  0  0  0  0  0  0  0  0
  2  1  1  0
  2  3  1  0
  3  4  1  1
  5  3  1  0
  5  6  1  6
  7  8  2  0
  7  5  1  0
  9  7  1  0
 10  9  1  0
 10 11  1  6
 12 11  1  0
 12 13  1  0
 13 14  2  0
 15 10  1  0
 16 15  2  0
 17 13  1  0
 19 18  1  0
 20 19  2  0
 21 19  1  0
 22 21  1  0
 23 22  1  1
 23 24  1  0
 24 15  1  0
 25 23  1  0
 26 25  2  0
 27 25  1  0
M  END
$$$$
