IEQ.pdb
     RDKit          3D

 27 26  0  0  1  0  0  0  0  0999 V2000
   14.4582  -12.6535  -15.4587 C   0  0  0  0  0  0  0  0  0  0  0  0
   15.3594  -11.7960  -16.2929 C   0  0  0  0  0  0  0  0  0  0  0  0
   16.5238  -11.2304  -15.5175 C   0  0  2  0  0  0  0  0  0  0  0  0
   15.9719  -10.4947  -14.3035 C   0  0  0  0  0  0  0  0  0  0  0  0
   17.4391  -10.3960  -16.3536 C   0  0  2  0  0  0  0  0  0  0  0  0
   17.7915  -11.2260  -17.5186 N   0  0  0  0  0  0  0  0  0  0  0  0
   18.6924   -9.9970  -15.7309 C   0  0  0  0  0  0  0  0  0  0  0  0
   18.7157   -9.2583  -14.6855 O   0  0  0  0  0  0  0  0  0  0  0  0
   20.0123  -10.3626  -16.1833 N   0  0  0  0  0  0  0  0  0  0  0  0
   21.2026   -9.8035  -15.6157 C   0  0  1  0  0  0  0  0  0  0  0  0
   22.3896  -10.6200  -15.9778 C   0  0  0  0  0  0  0  0  0  0  0  0
   23.6933  -10.2799  -15.3780 C   0  0  0  0  0  0  0  0  0  0  0  0
   24.8537  -11.0885  -15.7910 C   0  0  0  0  0  0  0  0  0  0  0  0
   24.7433  -12.0353  -16.6207 O   0  0  0  0  0  0  0  0  0  0  0  0
   21.4350   -8.4027  -15.9838 C   0  0  0  0  0  0  0  0  0  0  0  0
   21.3445   -7.9894  -17.1607 O   0  0  0  0  0  0  0  0  0  0  0  0
   26.1123  -10.8317  -15.2766 O   0  0  0  0  0  0  0  0  0  0  0  0
   18.4359   -4.6131  -16.5809 N   0  0  0  0  0  0  0  0  0  0  0  0
   18.5751   -4.5014  -15.1768 C   0  0  0  0  0  0  0  0  0  0  0  0
   17.6400   -4.0118  -14.5113 O   0  0  0  0  0  0  0  0  0  0  0  0
   19.8625   -4.9882  -14.5728 C   0  0  0  0  0  0  0  0  0  0  0  0
   20.7610   -5.4787  -15.6719 C   0  0  0  0  0  0  0  0  0  0  0  0
   22.0478   -6.0840  -15.1722 C   0  0  2  0  0  0  0  0  0  0  0  0
   21.7758   -7.4929  -14.9512 N   0  0  0  0  0  0  0  0  0  0  0  0
   22.4996   -5.5081  -13.8863 C   0  0  0  0  0  0  0  0  0  0  0  0
   22.5112   -6.2094  -12.8459 O   0  0  0  0  0  0  0  0  0  0  0  0
   22.9234   -4.1950  -13.7692 O   0  0  0  0  0  0  0  0  0  0  0  0
  2  1  1  0
  2  3  1  0
  3  4  1  1
  5  3  1  0
  5  6  1  6
  7  8  2  0
  7  5  1  0
  9  7  1  0
 10  9  1  0
 10 11  1  6
 12 11  1  0
 12 13  1  0
 13 14  2  0
 15 10  1  0
 16 15  2  0
 17 13  1  0
 19 18  1  0
 20 19  2  0
 21 19  1  0
 22 21  1  0
 23 22  1  1
 23 24  1  0
 24 15  1  0
 25 23  1  0
 26 25  2  0
 27 25  1  0
M  END
$$$$
