IEQ.pdb
     RDKit          3D

 27 26  0  0  1  0  0  0  0  0999 V2000
   23.2867  -16.6575  -15.5220 C   0  0  0  0  0  0  0  0  0  0  0  0
   22.4330  -15.4271  -15.4986 C   0  0  0  0  0  0  0  0  0  0  0  0
   23.1737  -14.1837  -15.9258 C   0  0  2  0  0  0  0  0  0  0  0  0
   24.4426  -14.0777  -15.0902 C   0  0  0  0  0  0  0  0  0  0  0  0
   22.3295  -12.9514  -15.8850 C   0  0  2  0  0  0  0  0  0  0  0  0
   21.0915  -13.2853  -16.6104 N   0  0  0  0  0  0  0  0  0  0  0  0
   22.8853  -11.7708  -16.5293 C   0  0  0  0  0  0  0  0  0  0  0  0
   23.6919  -10.9892  -15.9146 O   0  0  0  0  0  0  0  0  0  0  0  0
   22.6177  -11.3431  -17.8805 N   0  0  0  0  0  0  0  0  0  0  0  0
   23.1446  -10.1258  -18.4210 C   0  0  1  0  0  0  0  0  0  0  0  0
   23.2906  -10.2270  -19.8959 C   0  0  0  0  0  0  0  0  0  0  0  0
   24.3736  -11.0641  -20.4449 C   0  0  0  0  0  0  0  0  0  0  0  0
   24.4948  -11.1279  -21.9119 C   0  0  0  0  0  0  0  0  0  0  0  0
   25.3561  -11.8601  -22.4769 O   0  0  0  0  0  0  0  0  0  0  0  0
   22.3568   -8.9356  -18.0827 C   0  0  0  0  0  0  0  0  0  0  0  0
   21.1367   -8.8375  -18.3391 O   0  0  0  0  0  0  0  0  0  0  0  0
   23.6598  -10.3796  -22.7227 O   0  0  0  0  0  0  0  0  0  0  0  0
   22.6132   -6.4287  -12.9296 N   0  0  0  0  0  0  0  0  0  0  0  0
   22.0696   -5.2590  -13.5123 C   0  0  0  0  0  0  0  0  0  0  0  0
   21.7350   -4.3115  -12.7725 O   0  0  0  0  0  0  0  0  0  0  0  0
   21.9297   -5.2378  -15.0087 C   0  0  0  0  0  0  0  0  0  0  0  0
   22.4451   -6.5345  -15.5643 C   0  0  0  0  0  0  0  0  0  0  0  0
   22.3730   -6.6160  -17.0677 C   0  0  2  0  0  0  0  0  0  0  0  0
   23.0211   -7.8610  -17.4391 N   0  0  0  0  0  0  0  0  0  0  0  0
   23.0952   -5.5161  -17.7442 C   0  0  0  0  0  0  0  0  0  0  0  0
   22.6486   -4.3442  -17.7037 O   0  0  0  0  0  0  0  0  0  0  0  0
   24.2747   -5.7202  -18.4404 O   0  0  0  0  0  0  0  0  0  0  0  0
  2  1  1  0
  2  3  1  0
  3  4  1  1
  5  3  1  0
  5  6  1  6
  7  8  2  0
  7  5  1  0
  9  7  1  0
 10  9  1  0
 10 11  1  6
 12 11  1  0
 12 13  1  0
 13 14  2  0
 15 10  1  0
 16 15  2  0
 17 13  1  0
 19 18  1  0
 20 19  2  0
 21 19  1  0
 22 21  1  0
 23 22  1  1
 23 24  1  0
 24 15  1  0
 25 23  1  0
 26 25  2  0
 27 25  1  0
M  END
$$$$
