IEQ.pdb
     RDKit          3D

 27 26  0  0  1  0  0  0  0  0999 V2000
   19.4462  -15.1465  -17.6561 C   0  0  0  0  0  0  0  0  0  0  0  0
   19.1035  -14.1802  -16.5642 C   0  0  0  0  0  0  0  0  0  0  0  0
   18.9814  -12.7566  -17.0496 C   0  0  2  0  0  0  0  0  0  0  0  0
   20.2462  -12.4101  -17.8240 C   0  0  0  0  0  0  0  0  0  0  0  0
   18.6677  -11.7864  -15.9573 C   0  0  2  0  0  0  0  0  0  0  0  0
   17.3661  -12.2035  -15.4075 N   0  0  0  0  0  0  0  0  0  0  0  0
   18.5253  -10.3942  -16.3565 C   0  0  0  0  0  0  0  0  0  0  0  0
   19.5405   -9.6803  -16.6713 O   0  0  0  0  0  0  0  0  0  0  0  0
   17.2834   -9.6664  -16.4487 N   0  0  0  0  0  0  0  0  0  0  0  0
   17.2236   -8.2952  -16.8582 C   0  0  1  0  0  0  0  0  0  0  0  0
   15.8181   -7.8829  -17.1060 C   0  0  0  0  0  0  0  0  0  0  0  0
   15.0467   -8.5859  -18.1479 C   0  0  0  0  0  0  0  0  0  0  0  0
   13.5792   -8.5787  -18.0167 C   0  0  0  0  0  0  0  0  0  0  0  0
   12.8527   -7.8156  -18.7146 O   0  0  0  0  0  0  0  0  0  0  0  0
   17.8525   -7.3653  -15.9140 C   0  0  0  0  0  0  0  0  0  0  0  0
   17.7943   -7.5189  -14.6742 O   0  0  0  0  0  0  0  0  0  0  0  0
   12.9467   -9.4166  -17.1154 O   0  0  0  0  0  0  0  0  0  0  0  0
   21.8748   -6.6278  -13.5020 N   0  0  0  0  0  0  0  0  0  0  0  0
   22.1662   -5.2622  -13.7331 C   0  0  0  0  0  0  0  0  0  0  0  0
   22.8858   -4.6489  -12.9189 O   0  0  0  0  0  0  0  0  0  0  0  0
   21.5783   -4.6329  -14.9650 C   0  0  0  0  0  0  0  0  0  0  0  0
   20.6942   -5.6358  -15.6494 C   0  0  0  0  0  0  0  0  0  0  0  0
   19.2339   -5.2624  -15.6309 C   0  0  2  0  0  0  0  0  0  0  0  0
   18.5508   -6.2516  -16.4450 N   0  0  0  0  0  0  0  0  0  0  0  0
   18.9669   -3.9331  -16.2232 C   0  0  0  0  0  0  0  0  0  0  0  0
   18.5977   -3.8333  -17.4182 O   0  0  0  0  0  0  0  0  0  0  0  0
   19.1075   -2.7582  -15.5039 O   0  0  0  0  0  0  0  0  0  0  0  0
  2  1  1  0
  2  3  1  0
  3  4  1  1
  5  3  1  0
  5  6  1  6
  7  8  2  0
  7  5  1  0
  9  7  1  0
 10  9  1  0
 10 11  1  1
 12 11  1  0
 12 13  1  0
 13 14  2  0
 15 10  1  0
 16 15  2  0
 17 13  1  0
 19 18  1  0
 20 19  2  0
 21 19  1  0
 22 21  1  0
 23 22  1  6
 23 24  1  0
 24 15  1  0
 25 23  1  0
 26 25  2  0
 27 25  1  0
M  END
$$$$
