IEQ.pdb
     RDKit          3D

 27 26  0  0  1  0  0  0  0  0999 V2000
   27.3085  -15.0060  -14.7478 C   0  0  0  0  0  0  0  0  0  0  0  0
   27.1516  -14.6284  -16.1887 C   0  0  0  0  0  0  0  0  0  0  0  0
   26.3173  -13.3869  -16.3885 C   0  0  2  0  0  0  0  0  0  0  0  0
   26.8773  -12.2906  -15.4918 C   0  0  0  0  0  0  0  0  0  0  0  0
   24.8542  -13.6228  -16.1972 C   0  0  2  0  0  0  0  0  0  0  0  0
   24.4992  -14.7226  -17.1110 N   0  0  0  0  0  0  0  0  0  0  0  0
   23.9762  -12.5091  -16.5237 C   0  0  0  0  0  0  0  0  0  0  0  0
   24.2544  -11.6915  -17.4688 O   0  0  0  0  0  0  0  0  0  0  0  0
   22.7350  -12.1919  -15.8611 N   0  0  0  0  0  0  0  0  0  0  0  0
   21.9286  -11.0685  -16.2344 C   0  0  1  0  0  0  0  0  0  0  0  0
   20.4912  -11.4424  -16.2660 C   0  0  0  0  0  0  0  0  0  0  0  0
   19.4953  -10.4021  -16.5832 C   0  0  0  0  0  0  0  0  0  0  0  0
   18.0746  -10.7759  -16.4699 C   0  0  0  0  0  0  0  0  0  0  0  0
   17.7170  -11.9066  -16.0332 O   0  0  0  0  0  0  0  0  0  0  0  0
   22.1149   -9.8927  -15.3774 C   0  0  0  0  0  0  0  0  0  0  0  0
   22.4298   -9.9794  -14.1702 O   0  0  0  0  0  0  0  0  0  0  0  0
   17.0793   -9.8896  -16.8423 O   0  0  0  0  0  0  0  0  0  0  0  0
   22.2787   -4.3946  -18.1098 N   0  0  0  0  0  0  0  0  0  0  0  0
   22.3061   -3.8928  -16.7867 C   0  0  0  0  0  0  0  0  0  0  0  0
   22.3791   -2.6603  -16.6063 O   0  0  0  0  0  0  0  0  0  0  0  0
   22.2447   -4.8965  -15.6695 C   0  0  0  0  0  0  0  0  0  0  0  0
   22.1567   -6.2755  -16.2582 C   0  0  0  0  0  0  0  0  0  0  0  0
   22.0525   -7.3662  -15.2231 C   0  0  2  0  0  0  0  0  0  0  0  0
   21.9260   -8.6126  -15.9569 N   0  0  0  0  0  0  0  0  0  0  0  0
   20.8600   -7.2332  -14.3573 C   0  0  0  0  0  0  0  0  0  0  0  0
   19.7404   -7.6395  -14.7522 O   0  0  0  0  0  0  0  0  0  0  0  0
   20.9186   -6.6665  -13.0952 O   0  0  0  0  0  0  0  0  0  0  0  0
  2  1  1  0
  2  3  1  0
  3  4  1  1
  5  3  1  0
  5  6  1  6
  7  8  2  0
  7  5  1  0
  9  7  1  0
 10  9  1  0
 10 11  1  1
 12 11  1  0
 12 13  1  0
 13 14  2  0
 15 10  1  0
 16 15  2  0
 17 13  1  0
 19 18  1  0
 20 19  2  0
 21 19  1  0
 22 21  1  0
 23 22  1  6
 23 24  1  0
 24 15  1  0
 25 23  1  0
 26 25  2  0
 27 25  1  0
M  END
$$$$
