IEQ.pdb
     RDKit          3D

 27 26  0  0  1  0  0  0  0  0999 V2000
   18.9376  -29.7399  -12.4971 C   0  0  0  0  0  0  0  0  0  0  0  0
   20.0280  -30.1286  -11.5467 C   0  0  0  0  0  0  0  0  0  0  0  0
   20.5135  -28.9782  -10.6994 C   0  0  2  0  0  0  0  0  0  0  0  0
   20.9294  -27.8468  -11.6304 C   0  0  0  0  0  0  0  0  0  0  0  0
   21.5781  -29.3705   -9.7270 C   0  0  2  0  0  0  0  0  0  0  0  0
   22.8161  -29.5028  -10.5145 N   0  0  0  0  0  0  0  0  0  0  0  0
   21.3837  -30.6380   -9.0389 C   0  0  0  0  0  0  0  0  0  0  0  0
   20.3960  -30.8253   -8.2461 O   0  0  0  0  0  0  0  0  0  0  0  0
   22.2337  -31.7978   -9.1522 N   0  0  0  0  0  0  0  0  0  0  0  0
   22.0745  -32.9528   -8.3202 C   0  0  1  0  0  0  0  0  0  0  0  0
   22.5796  -34.1684   -9.0087 C   0  0  0  0  0  0  0  0  0  0  0  0
   22.3494  -35.4840   -8.3836 C   0  0  0  0  0  0  0  0  0  0  0  0
   22.9509  -36.6557   -9.0440 C   0  0  0  0  0  0  0  0  0  0  0  0
   22.8172  -37.8231   -8.5786 O   0  0  0  0  0  0  0  0  0  0  0  0
   22.7110  -32.8293   -7.0045 C   0  0  0  0  0  0  0  0  0  0  0  0
   23.7531  -32.1636   -6.8177 O   0  0  0  0  0  0  0  0  0  0  0  0
   23.6879  -36.5104  -10.2060 O   0  0  0  0  0  0  0  0  0  0  0  0
   19.2188  -33.4770   -2.1404 N   0  0  0  0  0  0  0  0  0  0  0  0
   20.4280  -33.4411   -1.4057 C   0  0  0  0  0  0  0  0  0  0  0  0
   20.3806  -33.4322   -0.1589 O   0  0  0  0  0  0  0  0  0  0  0  0
   21.7091  -33.4152   -2.1915 C   0  0  0  0  0  0  0  0  0  0  0  0
   21.3817  -33.4347   -3.6572 C   0  0  0  0  0  0  0  0  0  0  0  0
   22.5991  -33.4241   -4.5459 C   0  0  2  0  0  0  0  0  0  0  0  0
   22.1076  -33.4988   -5.9100 N   0  0  0  0  0  0  0  0  0  0  0  0
   23.4885  -34.5859   -4.3262 C   0  0  0  0  0  0  0  0  0  0  0  0
   24.4793  -34.4913   -3.5621 O   0  0  0  0  0  0  0  0  0  0  0  0
   23.2766  -35.8094   -4.9391 O   0  0  0  0  0  0  0  0  0  0  0  0
  2  1  1  0
  2  3  1  0
  3  4  1  6
  5  3  1  0
  5  6  1  6
  7  8  2  0
  7  5  1  0
  9  7  1  0
 10  9  1  0
 10 11  1  6
 12 11  1  0
 12 13  1  0
 13 14  2  0
 15 10  1  0
 16 15  2  0
 17 13  1  0
 19 18  1  0
 20 19  2  0
 21 19  1  0
 22 21  1  0
 23 22  1  1
 23 24  1  0
 24 15  1  0
 25 23  1  0
 26 25  2  0
 27 25  1  0
M  END
$$$$
