IEQ.pdb
     RDKit          3D

 27 26  0  0  1  0  0  0  0  0999 V2000
   14.8273  -14.4031  -12.0363 C   0  0  0  0  0  0  0  0  0  0  0  0
   14.6382  -13.4003  -10.9399 C   0  0  0  0  0  0  0  0  0  0  0  0
   15.1472  -12.0260  -11.2995 C   0  0  2  0  0  0  0  0  0  0  0  0
   16.6182  -12.1489  -11.6744 C   0  0  0  0  0  0  0  0  0  0  0  0
   14.8862  -11.0050  -10.2401 C   0  0  2  0  0  0  0  0  0  0  0  0
   13.4327  -11.0322  -10.0017 N   0  0  0  0  0  0  0  0  0  0  0  0
   15.2287   -9.6307  -10.5747 C   0  0  0  0  0  0  0  0  0  0  0  0
   14.8461   -9.0931  -11.6719 O   0  0  0  0  0  0  0  0  0  0  0  0
   16.0052   -8.7322   -9.7561 N   0  0  0  0  0  0  0  0  0  0  0  0
   16.4163   -7.4377  -10.2110 C   0  0  1  0  0  0  0  0  0  0  0  0
   16.0752   -6.3968   -9.2077 C   0  0  0  0  0  0  0  0  0  0  0  0
   16.4155   -4.9920   -9.5003 C   0  0  0  0  0  0  0  0  0  0  0  0
   16.1076   -3.9957   -8.4594 C   0  0  0  0  0  0  0  0  0  0  0  0
   15.6601   -4.3336   -7.3269 O   0  0  0  0  0  0  0  0  0  0  0  0
   17.8413   -7.3515  -10.5480 C   0  0  0  0  0  0  0  0  0  0  0  0
   18.7189   -8.0093   -9.9470 O   0  0  0  0  0  0  0  0  0  0  0  0
   16.3020   -2.6460   -8.6942 O   0  0  0  0  0  0  0  0  0  0  0  0
   20.0353  -10.0019  -14.2217 N   0  0  0  0  0  0  0  0  0  0  0  0
   21.1554   -9.1428  -14.3243 C   0  0  0  0  0  0  0  0  0  0  0  0
   22.1540   -9.5217  -14.9693 O   0  0  0  0  0  0  0  0  0  0  0  0
   21.0640   -7.8092  -13.6368 C   0  0  0  0  0  0  0  0  0  0  0  0
   19.7661   -7.7374  -12.8843 C   0  0  0  0  0  0  0  0  0  0  0  0
   19.5606   -6.4303  -12.1623 C   0  0  2  0  0  0  0  0  0  0  0  0
   18.2228   -6.4817  -11.6007 N   0  0  0  0  0  0  0  0  0  0  0  0
   19.6249   -5.2552  -13.0591 C   0  0  0  0  0  0  0  0  0  0  0  0
   20.7325   -4.8212  -13.4584 O   0  0  0  0  0  0  0  0  0  0  0  0
   18.4908   -4.5901  -13.4936 O   0  0  0  0  0  0  0  0  0  0  0  0
  2  1  1  0
  2  3  1  0
  3  4  1  1
  5  3  1  0
  5  6  1  6
  7  8  2  0
  7  5  1  0
  9  7  1  0
 10  9  1  0
 10 11  1  1
 12 11  1  0
 12 13  1  0
 13 14  2  0
 15 10  1  0
 16 15  2  0
 17 13  1  0
 19 18  1  0
 20 19  2  0
 21 19  1  0
 22 21  1  0
 23 22  1  6
 23 24  1  0
 24 15  1  0
 25 23  1  0
 26 25  2  0
 27 25  1  0
M  END
$$$$
