IEQ.pdb
     RDKit          3D

 27 26  0  0  1  0  0  0  0  0999 V2000
   29.3374  -21.6310   -9.8260 C   0  0  0  0  0  0  0  0  0  0  0  0
   27.9634  -21.0357   -9.7938 C   0  0  0  0  0  0  0  0  0  0  0  0
   27.2414  -21.1397  -11.1147 C   0  0  2  0  0  0  0  0  0  0  0  0
   28.2208  -20.7685  -12.2204 C   0  0  0  0  0  0  0  0  0  0  0  0
   25.9714  -20.3533  -11.1558 C   0  0  2  0  0  0  0  0  0  0  0  0
   25.0718  -20.9867  -10.1761 N   0  0  0  0  0  0  0  0  0  0  0  0
   25.2633  -20.3434  -12.4272 C   0  0  0  0  0  0  0  0  0  0  0  0
   25.8146  -19.9085  -13.4977 O   0  0  0  0  0  0  0  0  0  0  0  0
   23.9125  -20.8007  -12.6433 N   0  0  0  0  0  0  0  0  0  0  0  0
   23.2823  -20.7587  -13.9289 C   0  0  1  0  0  0  0  0  0  0  0  0
   21.9254  -21.3602  -13.8674 C   0  0  0  0  0  0  0  0  0  0  0  0
   21.5241  -22.0797  -12.6443 C   0  0  0  0  0  0  0  0  0  0  0  0
   20.1749  -21.8085  -12.1179 C   0  0  0  0  0  0  0  0  0  0  0  0
   19.1341  -22.1157  -12.7656 O   0  0  0  0  0  0  0  0  0  0  0  0
   23.2009  -19.4129  -14.5068 C   0  0  0  0  0  0  0  0  0  0  0  0
   22.8879  -18.4063  -13.8338 O   0  0  0  0  0  0  0  0  0  0  0  0
   20.0064  -21.2028  -10.8853 O   0  0  0  0  0  0  0  0  0  0  0  0
   27.3692  -18.3045  -17.0686 N   0  0  0  0  0  0  0  0  0  0  0  0
   26.9642  -16.9894  -17.3998 C   0  0  0  0  0  0  0  0  0  0  0  0
   27.8264  -16.0911  -17.4805 O   0  0  0  0  0  0  0  0  0  0  0  0
   25.4975  -16.7607  -17.6355 C   0  0  0  0  0  0  0  0  0  0  0  0
   24.7699  -18.0652  -17.4783 C   0  0  0  0  0  0  0  0  0  0  0  0
   23.5763  -17.9819  -16.5615 C   0  0  2  0  0  0  0  0  0  0  0  0
   23.4916  -19.2645  -15.8865 N   0  0  0  0  0  0  0  0  0  0  0  0
   22.3026  -17.7712  -17.2843 C   0  0  0  0  0  0  0  0  0  0  0  0
   21.6609  -18.7494  -17.7380 O   0  0  0  0  0  0  0  0  0  0  0  0
   21.7662  -16.5115  -17.4913 O   0  0  0  0  0  0  0  0  0  0  0  0
  2  1  1  0
  2  3  1  0
  3  4  1  6
  5  3  1  0
  5  6  1  1
  7  8  2  0
  7  5  1  0
  9  7  1  0
 10  9  1  0
 10 11  1  1
 12 11  1  0
 12 13  1  0
 13 14  2  0
 15 10  1  0
 16 15  2  0
 17 13  1  0
 19 18  1  0
 20 19  2  0
 21 19  1  0
 22 21  1  0
 23 22  1  6
 23 24  1  0
 24 15  1  0
 25 23  1  0
 26 25  2  0
 27 25  1  0
M  END
$$$$
