VEH.pdb
     RDKit          3D

 27 27  0  0  1  0  0  0  0  0999 V2000
   15.4871  -15.1651  -15.9568 C   0  0  0  0  0  0  0  0  0  0  0  0
   15.3528  -13.6825  -16.2433 C   0  0  1  0  0  0  0  0  0  0  0  0
   13.9079  -13.2726  -16.1906 C   0  0  0  0  0  0  0  0  0  0  0  0
   16.2171  -12.9155  -15.2688 C   0  0  2  0  0  0  0  0  0  0  0  0
   16.0088  -13.3741  -13.9191 N   0  0  0  0  0  0  0  0  0  0  0  0
   16.1421  -11.4705  -15.4329 C   0  0  0  0  0  0  0  0  0  0  0  0
   16.5292  -10.9493  -16.5267 O   0  0  0  0  0  0  0  0  0  0  0  0
   15.6617  -10.5249  -14.4618 N   0  0  0  0  0  0  0  0  0  0  0  0
   15.6173   -9.1287  -14.6859 C   0  0  1  0  0  0  0  0  0  0  0  0
   14.5232   -8.3126  -14.1356 C   0  0  0  0  0  0  0  0  0  0  0  0
   14.4491   -6.8757  -14.4850 C   0  0  0  0  0  0  0  0  0  0  0  0
   13.3548   -6.1539  -13.8124 C   0  0  0  0  0  0  0  0  0  0  0  0
   13.4964   -5.1950  -13.0365 O   0  0  0  0  0  0  0  0  0  0  0  0
   16.9268   -8.4984  -14.3187 C   0  0  0  0  0  0  0  0  0  0  0  0
   17.7268   -9.1402  -13.5581 O   0  0  0  0  0  0  0  0  0  0  0  0
   12.0271   -6.5702  -14.0555 O   0  0  0  0  0  0  0  0  0  0  0  0
   17.2494   -7.2100  -14.8201 N   0  0  0  0  0  0  0  0  0  0  0  0
   18.6023   -6.6717  -14.7024 C   0  0  1  0  0  0  0  0  0  0  0  0
   19.5105   -7.7089  -15.3177 C   0  0  0  0  0  0  0  0  0  0  0  0
   20.8864   -7.2244  -15.3987 C   0  0  0  0  0  0  0  0  0  0  0  0
   21.3534   -6.0331  -14.8948 C   0  0  0  0  0  0  0  0  0  0  0  0
   22.6593   -5.9519  -15.1814 N   0  0  0  0  0  0  0  0  0  0  0  0
   23.0276   -7.0539  -15.8493 C   0  0  0  0  0  0  0  0  0  0  0  0
   21.9363   -7.8275  -15.9781 N   0  0  0  0  0  0  0  0  0  0  0  0
   18.7001   -5.3393  -15.2922 C   0  0  0  0  0  0  0  0  0  0  0  0
   18.0373   -5.0323  -16.3063 O   0  0  0  0  0  0  0  0  0  0  0  0
   19.5330   -4.3904  -14.7329 O   0  0  0  0  0  0  0  0  0  0  0  0
  2  4  1  0
  2  1  1  1
  3  2  1  0
  4  6  1  0
  4  5  1  1
  6  7  2  0
  8  9  1  0
  8  6  1  0
  9 10  1  1
 11 10  1  0
 12 13  2  0
 12 11  1  0
 14 15  2  0
 14  9  1  0
 16 12  1  0
 17 14  1  0
 18 17  1  0
 18 25  1  0
 18 19  1  6
 20 19  1  0
 20 24  1  0
 21 22  1  0
 21 20  2  0
 22 23  1  0
 23 24  2  0
 25 27  1  0
 26 25  2  0
M  END
$$$$
