VEH.pdb
     RDKit          3D

 27 27  0  0  1  0  0  0  0  0999 V2000
   27.0820  -22.9003  -17.3994 C   0  0  0  0  0  0  0  0  0  0  0  0
   25.5990  -22.6258  -17.5522 C   0  0  1  0  0  0  0  0  0  0  0  0
   25.3697  -21.1745  -17.8681 C   0  0  0  0  0  0  0  0  0  0  0  0
   25.0356  -23.5525  -18.6052 C   0  0  2  0  0  0  0  0  0  0  0  0
   25.7740  -23.4463  -19.8377 N   0  0  0  0  0  0  0  0  0  0  0  0
   23.5907  -23.4545  -18.7576 C   0  0  0  0  0  0  0  0  0  0  0  0
   23.1132  -22.7942  -19.7343 O   0  0  0  0  0  0  0  0  0  0  0  0
   22.5997  -24.0412  -17.8965 N   0  0  0  0  0  0  0  0  0  0  0  0
   21.2132  -23.7848  -18.0122 C   0  0  1  0  0  0  0  0  0  0  0  0
   20.2776  -24.8589  -18.3822 C   0  0  0  0  0  0  0  0  0  0  0  0
   18.8707  -24.5153  -18.6904 C   0  0  0  0  0  0  0  0  0  0  0  0
   18.0254  -25.6823  -18.9983 C   0  0  0  0  0  0  0  0  0  0  0  0
   18.3813  -26.8690  -18.9172 O   0  0  0  0  0  0  0  0  0  0  0  0
   20.7039  -23.0986  -16.7806 C   0  0  0  0  0  0  0  0  0  0  0  0
   20.8589  -23.6699  -15.6492 O   0  0  0  0  0  0  0  0  0  0  0  0
   16.6974  -25.4557  -19.4228 O   0  0  0  0  0  0  0  0  0  0  0  0
   20.0640  -21.8366  -16.8955 N   0  0  0  0  0  0  0  0  0  0  0  0
   19.7035  -21.0628  -15.7100 C   0  0  1  0  0  0  0  0  0  0  0  0
   20.4768  -19.7703  -15.8141 C   0  0  0  0  0  0  0  0  0  0  0  0
   21.8515  -19.9389  -15.3491 C   0  0  0  0  0  0  0  0  0  0  0  0
   22.3923  -21.0920  -14.8304 C   0  0  0  0  0  0  0  0  0  0  0  0
   23.6685  -20.8380  -14.5126 N   0  0  0  0  0  0  0  0  0  0  0  0
   23.9467  -19.5624  -14.8151 C   0  0  0  0  0  0  0  0  0  0  0  0
   22.8289  -19.0192  -15.3265 N   0  0  0  0  0  0  0  0  0  0  0  0
   18.2561  -20.9072  -15.5937 C   0  0  0  0  0  0  0  0  0  0  0  0
   17.5058  -21.0972  -16.5750 O   0  0  0  0  0  0  0  0  0  0  0  0
   17.6901  -20.5454  -14.3872 O   0  0  0  0  0  0  0  0  0  0  0  0
  2  4  1  0
  2  1  1  6
  3  2  1  0
  4  6  1  0
  4  5  1  6
  6  7  2  0
  8  9  1  0
  8  6  1  0
  9 10  1  1
 11 10  1  0
 12 13  2  0
 12 11  1  0
 14 15  2  0
 14  9  1  0
 16 12  1  0
 17 14  1  0
 18 17  1  0
 18 25  1  0
 18 19  1  6
 20 19  1  0
 20 24  1  0
 21 22  1  0
 21 20  2  0
 22 23  1  0
 23 24  2  0
 25 27  1  0
 26 25  2  0
M  END
$$$$
