VEH.pdb
     RDKit          3D

 27 27  0  0  1  0  0  0  0  0999 V2000
   36.8316  -35.3297  -15.1747 C   0  0  0  0  0  0  0  0  0  0  0  0
   35.8434  -34.3631  -15.7968 C   0  0  1  0  0  0  0  0  0  0  0  0
   34.4918  -35.0090  -15.9181 C   0  0  0  0  0  0  0  0  0  0  0  0
   35.8167  -33.0942  -14.9757 C   0  0  2  0  0  0  0  0  0  0  0  0
   35.5563  -33.3803  -13.5879 N   0  0  0  0  0  0  0  0  0  0  0  0
   34.9776  -32.0481  -15.5433 C   0  0  0  0  0  0  0  0  0  0  0  0
   33.8480  -31.8025  -15.0127 O   0  0  0  0  0  0  0  0  0  0  0  0
   35.2902  -31.2267  -16.6815 N   0  0  0  0  0  0  0  0  0  0  0  0
   34.3858  -30.2968  -17.2462 C   0  0  1  0  0  0  0  0  0  0  0  0
   34.8717  -29.1856  -18.0800 C   0  0  0  0  0  0  0  0  0  0  0  0
   33.9360  -28.0999  -18.4513 C   0  0  0  0  0  0  0  0  0  0  0  0
   34.5405  -27.0539  -19.2948 C   0  0  0  0  0  0  0  0  0  0  0  0
   35.6767  -27.1001  -19.7934 O   0  0  0  0  0  0  0  0  0  0  0  0
   33.2901  -31.0115  -17.9781 C   0  0  0  0  0  0  0  0  0  0  0  0
   33.4619  -32.2350  -18.3009 O   0  0  0  0  0  0  0  0  0  0  0  0
   33.7832  -25.8942  -19.5719 O   0  0  0  0  0  0  0  0  0  0  0  0
   32.0920  -30.3194  -18.2957 N   0  0  0  0  0  0  0  0  0  0  0  0
   30.7848  -30.9309  -18.0691 C   0  0  1  0  0  0  0  0  0  0  0  0
   30.7680  -31.3334  -16.6141 C   0  0  0  0  0  0  0  0  0  0  0  0
   29.5109  -31.9898  -16.2626 C   0  0  0  0  0  0  0  0  0  0  0  0
   28.6382  -32.5858  -17.1426 C   0  0  0  0  0  0  0  0  0  0  0  0
   27.6043  -33.0596  -16.4350 N   0  0  0  0  0  0  0  0  0  0  0  0
   27.7995  -32.7803  -15.1388 C   0  0  0  0  0  0  0  0  0  0  0  0
   28.9689  -32.1252  -15.0422 N   0  0  0  0  0  0  0  0  0  0  0  0
   29.7011  -30.0401  -18.4745 C   0  0  0  0  0  0  0  0  0  0  0  0
   29.9365  -28.8855  -18.8911 O   0  0  0  0  0  0  0  0  0  0  0  0
   28.3888  -30.4641  -18.4038 O   0  0  0  0  0  0  0  0  0  0  0  0
  2  4  1  0
  2  1  1  1
  3  2  1  0
  4  6  1  0
  4  5  1  1
  6  7  2  0
  8  9  1  0
  8  6  1  0
  9 10  1  6
 11 10  1  0
 12 13  2  0
 12 11  1  0
 14 15  2  0
 14  9  1  0
 16 12  1  0
 17 14  1  0
 18 17  1  0
 18 25  1  0
 18 19  1  1
 20 19  1  0
 20 24  1  0
 21 22  1  0
 21 20  2  0
 22 23  1  0
 23 24  2  0
 25 27  1  0
 26 25  2  0
M  END
$$$$
