VEH.pdb
     RDKit          3D

 27 27  0  0  1  0  0  0  0  0999 V2000
   19.1860  -14.0161  -17.5894 C   0  0  0  0  0  0  0  0  0  0  0  0
   19.5927  -12.6052  -17.2127 C   0  0  1  0  0  0  0  0  0  0  0  0
   18.7963  -12.1343  -16.0284 C   0  0  0  0  0  0  0  0  0  0  0  0
   21.0840  -12.5747  -16.9676 C   0  0  2  0  0  0  0  0  0  0  0  0
   21.4671  -13.5517  -15.9805 N   0  0  0  0  0  0  0  0  0  0  0  0
   21.6099  -11.2379  -16.7286 C   0  0  0  0  0  0  0  0  0  0  0  0
   21.6865  -10.8056  -15.5348 O   0  0  0  0  0  0  0  0  0  0  0  0
   22.0715  -10.3111  -17.7265 N   0  0  0  0  0  0  0  0  0  0  0  0
   22.6408   -9.0526  -17.4207 C   0  0  1  0  0  0  0  0  0  0  0  0
   23.8891   -8.6146  -18.0655 C   0  0  0  0  0  0  0  0  0  0  0  0
   24.5051   -7.3341  -17.6492 C   0  0  0  0  0  0  0  0  0  0  0  0
   25.7048   -6.9699  -18.4231 C   0  0  0  0  0  0  0  0  0  0  0  0
   26.2564   -7.6866  -19.2737 O   0  0  0  0  0  0  0  0  0  0  0  0
   21.6155   -7.9678  -17.5578 C   0  0  0  0  0  0  0  0  0  0  0  0
   20.8237   -7.9924  -18.5594 O   0  0  0  0  0  0  0  0  0  0  0  0
   26.2927   -5.7060  -18.1947 O   0  0  0  0  0  0  0  0  0  0  0  0
   21.5453   -6.9420  -16.5789 N   0  0  0  0  0  0  0  0  0  0  0  0
   20.4978   -5.9249  -16.6258 C   0  0  1  0  0  0  0  0  0  0  0  0
   19.1924   -6.6828  -16.6558 C   0  0  0  0  0  0  0  0  0  0  0  0
   18.0523   -5.7696  -16.6823 C   0  0  0  0  0  0  0  0  0  0  0  0
   18.1189   -4.3961  -16.7032 C   0  0  0  0  0  0  0  0  0  0  0  0
   16.8646   -3.9262  -16.7119 N   0  0  0  0  0  0  0  0  0  0  0  0
   16.0123   -4.9604  -16.6971 C   0  0  0  0  0  0  0  0  0  0  0  0
   16.7477   -6.0850  -16.6789 N   0  0  0  0  0  0  0  0  0  0  0  0
   20.6309   -4.9703  -15.5287 C   0  0  0  0  0  0  0  0  0  0  0  0
   21.4968   -5.1244  -14.6407 O   0  0  0  0  0  0  0  0  0  0  0  0
   19.7953   -3.8733  -15.4559 O   0  0  0  0  0  0  0  0  0  0  0  0
  2  4  1  0
  2  1  1  1
  3  2  1  0
  4  6  1  0
  4  5  1  1
  6  7  2  0
  8  9  1  0
  8  6  1  0
  9 10  1  6
 11 10  1  0
 12 13  2  0
 12 11  1  0
 14 15  2  0
 14  9  1  0
 16 12  1  0
 17 14  1  0
 18 17  1  0
 18 25  1  0
 18 19  1  1
 20 19  1  0
 20 24  1  0
 21 22  1  0
 21 20  2  0
 22 23  1  0
 23 24  2  0
 25 27  1  0
 26 25  2  0
M  END
$$$$
