VEH.pdb
     RDKit          3D

 27 27  0  0  1  0  0  0  0  0999 V2000
   16.4430  -13.6604  -14.3718 C   0  0  0  0  0  0  0  0  0  0  0  0
   16.4424  -12.1531  -14.2106 C   0  0  1  0  0  0  0  0  0  0  0  0
   15.8334  -11.5020  -15.4205 C   0  0  0  0  0  0  0  0  0  0  0  0
   15.7247  -11.7982  -12.9285 C   0  0  2  0  0  0  0  0  0  0  0  0
   14.4150  -12.3970  -12.8849 N   0  0  0  0  0  0  0  0  0  0  0  0
   15.7475  -10.3752  -12.6203 C   0  0  0  0  0  0  0  0  0  0  0  0
   15.1328   -9.5650  -13.3843 O   0  0  0  0  0  0  0  0  0  0  0  0
   16.4121   -9.7534  -11.5070 N   0  0  0  0  0  0  0  0  0  0  0  0
   16.3784   -8.3617  -11.2546 C   0  0  1  0  0  0  0  0  0  0  0  0
   16.0635   -7.8477   -9.9120 C   0  0  0  0  0  0  0  0  0  0  0  0
   15.9828   -6.3845   -9.7005 C   0  0  0  0  0  0  0  0  0  0  0  0
   15.7008   -5.9979   -8.3070 C   0  0  0  0  0  0  0  0  0  0  0  0
   16.1259   -6.5841   -7.2984 O   0  0  0  0  0  0  0  0  0  0  0  0
   17.6383   -7.7115  -11.7415 C   0  0  0  0  0  0  0  0  0  0  0  0
   18.7618   -8.1969  -11.3773 O   0  0  0  0  0  0  0  0  0  0  0  0
   14.8815   -4.8707   -8.0759 O   0  0  0  0  0  0  0  0  0  0  0  0
   17.5581   -6.5773  -12.5916 N   0  0  0  0  0  0  0  0  0  0  0  0
   18.7644   -5.9302  -13.1017 C   0  0  1  0  0  0  0  0  0  0  0  0
   19.1294   -6.6791  -14.3607 C   0  0  0  0  0  0  0  0  0  0  0  0
   20.3087   -6.0976  -14.9977 C   0  0  0  0  0  0  0  0  0  0  0  0
   21.5914   -6.1298  -14.5029 C   0  0  0  0  0  0  0  0  0  0  0  0
   22.3800   -5.4805  -15.3694 N   0  0  0  0  0  0  0  0  0  0  0  0
   21.6338   -5.0415  -16.3924 C   0  0  0  0  0  0  0  0  0  0  0  0
   20.3671   -5.4235  -16.1568 N   0  0  0  0  0  0  0  0  0  0  0  0
   18.5673   -4.4936  -13.2746 C   0  0  0  0  0  0  0  0  0  0  0  0
   17.4207   -3.9961  -13.2844 O   0  0  0  0  0  0  0  0  0  0  0  0
   19.6541   -3.6561  -13.4306 O   0  0  0  0  0  0  0  0  0  0  0  0
  2  4  1  0
  2  1  1  6
  3  2  1  0
  4  6  1  0
  4  5  1  6
  6  7  2  0
  8  9  1  0
  8  6  1  0
  9 10  1  1
 11 10  1  0
 12 13  2  0
 12 11  1  0
 14 15  2  0
 14  9  1  0
 16 12  1  0
 17 14  1  0
 18 17  1  0
 18 25  1  0
 18 19  1  6
 20 19  1  0
 20 24  1  0
 21 22  1  0
 21 20  2  0
 22 23  1  0
 23 24  2  0
 25 27  1  0
 26 25  2  0
M  END
$$$$
