VEH.pdb
     RDKit          3D

 27 27  0  0  1  0  0  0  0  0999 V2000
   27.6881  -21.8924  -11.2917 C   0  0  0  0  0  0  0  0  0  0  0  0
   26.6325  -21.0987  -12.0358 C   0  0  1  0  0  0  0  0  0  0  0  0
   26.0042  -20.0855  -11.1208 C   0  0  0  0  0  0  0  0  0  0  0  0
   27.2620  -20.4743  -13.2601 C   0  0  2  0  0  0  0  0  0  0  0  0
   28.4464  -19.7314  -12.9121 N   0  0  0  0  0  0  0  0  0  0  0  0
   26.3177  -19.7465  -14.0962 C   0  0  0  0  0  0  0  0  0  0  0  0
   26.0981  -18.5165  -13.8582 O   0  0  0  0  0  0  0  0  0  0  0  0
   25.5733  -20.2788  -15.2055 N   0  0  0  0  0  0  0  0  0  0  0  0
   24.6371  -19.5252  -15.9520 C   0  0  1  0  0  0  0  0  0  0  0  0
   25.0641  -18.7402  -17.1214 C   0  0  0  0  0  0  0  0  0  0  0  0
   26.5048  -18.6689  -17.4551 C   0  0  0  0  0  0  0  0  0  0  0  0
   26.7991  -17.8760  -18.6616 C   0  0  0  0  0  0  0  0  0  0  0  0
   26.8194  -18.3149  -19.8229 O   0  0  0  0  0  0  0  0  0  0  0  0
   23.4685  -20.3801  -16.3401 C   0  0  0  0  0  0  0  0  0  0  0  0
   23.6775  -21.4265  -17.0414 O   0  0  0  0  0  0  0  0  0  0  0  0
   27.0847  -16.5012  -18.5081 O   0  0  0  0  0  0  0  0  0  0  0  0
   22.1622  -20.0123  -15.9234 N   0  0  0  0  0  0  0  0  0  0  0  0
   21.4327  -20.8072  -14.9385 C   0  0  1  0  0  0  0  0  0  0  0  0
   22.3049  -20.8333  -13.7064 C   0  0  0  0  0  0  0  0  0  0  0  0
   22.9746  -22.1236  -13.5610 C   0  0  0  0  0  0  0  0  0  0  0  0
   22.8578  -23.1943  -14.4161 C   0  0  0  0  0  0  0  0  0  0  0  0
   23.6145  -24.1880  -13.9324 N   0  0  0  0  0  0  0  0  0  0  0  0
   24.2027  -23.7760  -12.8009 C   0  0  0  0  0  0  0  0  0  0  0  0
   23.8056  -22.5112  -12.5808 N   0  0  0  0  0  0  0  0  0  0  0  0
   20.0837  -20.2894  -14.7276 C   0  0  0  0  0  0  0  0  0  0  0  0
   19.0815  -21.0226  -14.8695 O   0  0  0  0  0  0  0  0  0  0  0  0
   19.8936  -18.9707  -14.3643 O   0  0  0  0  0  0  0  0  0  0  0  0
  2  4  1  0
  2  1  1  1
  3  2  1  0
  4  6  1  0
  4  5  1  1
  6  7  2  0
  8  9  1  0
  8  6  1  0
  9 10  1  6
 11 10  1  0
 12 13  2  0
 12 11  1  0
 14 15  2  0
 14  9  1  0
 16 12  1  0
 17 14  1  0
 18 17  1  0
 18 25  1  0
 18 19  1  1
 20 19  1  0
 20 24  1  0
 21 22  1  0
 21 20  2  0
 22 23  1  0
 23 24  2  0
 25 27  1  0
 26 25  2  0
M  END
$$$$
