VEH.pdb
     RDKit          3D

 27 27  0  0  1  0  0  0  0  0999 V2000
   16.3588   -5.8681  -23.2149 C   0  0  0  0  0  0  0  0  0  0  0  0
   16.6660   -5.9602  -21.7333 C   0  0  1  0  0  0  0  0  0  0  0  0
   16.7183   -4.5857  -21.1278 C   0  0  0  0  0  0  0  0  0  0  0  0
   15.6395   -6.8536  -21.0752 C   0  0  2  0  0  0  0  0  0  0  0  0
   14.3008   -6.4317  -21.4001 N   0  0  0  0  0  0  0  0  0  0  0  0
   15.8759   -7.0677  -19.6543 C   0  0  0  0  0  0  0  0  0  0  0  0
   15.1880   -6.4161  -18.8057 O   0  0  0  0  0  0  0  0  0  0  0  0
   16.8369   -7.9670  -19.0749 N   0  0  0  0  0  0  0  0  0  0  0  0
   17.0266   -8.1157  -17.6808 C   0  0  1  0  0  0  0  0  0  0  0  0
   16.7125   -9.3874  -17.0100 C   0  0  0  0  0  0  0  0  0  0  0  0
   16.8546   -9.4813  -15.5392 C   0  0  0  0  0  0  0  0  0  0  0  0
   16.4748  -10.7930  -14.9857 C   0  0  0  0  0  0  0  0  0  0  0  0
   15.4671  -11.0177  -14.2961 O   0  0  0  0  0  0  0  0  0  0  0  0
   18.4107   -7.6899  -17.2932 C   0  0  0  0  0  0  0  0  0  0  0  0
   19.4073   -8.2170  -17.8929 O   0  0  0  0  0  0  0  0  0  0  0  0
   17.3118  -11.9001  -15.2485 O   0  0  0  0  0  0  0  0  0  0  0  0
   18.5849   -6.7163  -16.2749 N   0  0  0  0  0  0  0  0  0  0  0  0
   19.9068   -6.1775  -15.9645 C   0  0  1  0  0  0  0  0  0  0  0  0
   19.6589   -4.8677  -15.2558 C   0  0  0  0  0  0  0  0  0  0  0  0
   20.9156   -4.2310  -14.8685 C   0  0  0  0  0  0  0  0  0  0  0  0
   21.4842   -3.1342  -15.4726 C   0  0  0  0  0  0  0  0  0  0  0  0
   22.6318   -2.8661  -14.8360 N   0  0  0  0  0  0  0  0  0  0  0  0
   22.8024   -3.7594  -13.8516 C   0  0  0  0  0  0  0  0  0  0  0  0
   21.7473   -4.5913  -13.8786 N   0  0  0  0  0  0  0  0  0  0  0  0
   20.7135   -7.1390  -15.2179 C   0  0  0  0  0  0  0  0  0  0  0  0
   20.1919   -7.9065  -14.3806 O   0  0  0  0  0  0  0  0  0  0  0  0
   22.0762   -7.2155  -15.4281 O   0  0  0  0  0  0  0  0  0  0  0  0
  2  4  1  0
  2  1  1  6
  3  2  1  0
  4  6  1  0
  4  5  1  1
  6  7  2  0
  8  9  1  0
  8  6  1  0
  9 10  1  6
 11 10  1  0
 12 13  2  0
 12 11  1  0
 14 15  2  0
 14  9  1  0
 16 12  1  0
 17 14  1  0
 18 17  1  0
 18 25  1  0
 18 19  1  1
 20 19  1  0
 20 24  1  0
 21 22  1  0
 21 20  2  0
 22 23  1  0
 23 24  2  0
 25 27  1  0
 26 25  2  0
M  END
$$$$
