VEH.pdb
     RDKit          3D

 27 27  0  0  1  0  0  0  0  0999 V2000
   42.8666  -14.7344   -8.7943 C   0  0  0  0  0  0  0  0  0  0  0  0
   42.5010  -13.2637   -8.7576 C   0  0  1  0  0  0  0  0  0  0  0  0
   41.3913  -13.0294   -7.7715 C   0  0  0  0  0  0  0  0  0  0  0  0
   43.7421  -12.4583   -8.4480 C   0  0  2  0  0  0  0  0  0  0  0  0
   44.3232  -12.8635   -7.1934 N   0  0  0  0  0  0  0  0  0  0  0  0
   43.5568  -11.0210   -8.5904 C   0  0  0  0  0  0  0  0  0  0  0  0
   43.1815  -10.3410   -7.5831 O   0  0  0  0  0  0  0  0  0  0  0  0
   43.7566  -10.2490   -9.7870 N   0  0  0  0  0  0  0  0  0  0  0  0
   43.5335   -8.8540   -9.8635 C   0  0  1  0  0  0  0  0  0  0  0  0
   44.0816   -8.0642  -10.9778 C   0  0  0  0  0  0  0  0  0  0  0  0
   44.0466   -8.6273  -12.3467 C   0  0  0  0  0  0  0  0  0  0  0  0
   44.4373   -7.6694  -13.3959 C   0  0  0  0  0  0  0  0  0  0  0  0
   43.6646   -6.9024  -13.9928 O   0  0  0  0  0  0  0  0  0  0  0  0
   42.0723   -8.5499   -9.7240 C   0  0  0  0  0  0  0  0  0  0  0  0
   41.2228   -9.4004  -10.1549 O   0  0  0  0  0  0  0  0  0  0  0  0
   45.7978   -7.6011  -13.7696 O   0  0  0  0  0  0  0  0  0  0  0  0
   41.6647   -7.3315   -9.1200 N   0  0  0  0  0  0  0  0  0  0  0  0
   40.2520   -6.9711   -9.0272 C   0  0  1  0  0  0  0  0  0  0  0  0
   39.8837   -7.1303   -7.5718 C   0  0  0  0  0  0  0  0  0  0  0  0
   38.5163   -6.6808   -7.3212 C   0  0  0  0  0  0  0  0  0  0  0  0
   37.6331   -6.2170   -8.2678 C   0  0  0  0  0  0  0  0  0  0  0  0
   36.4939   -5.8952   -7.6409 N   0  0  0  0  0  0  0  0  0  0  0  0
   36.6332   -6.1420   -6.3310 C   0  0  0  0  0  0  0  0  0  0  0  0
   37.8742   -6.6225   -6.1439 N   0  0  0  0  0  0  0  0  0  0  0  0
   40.0015   -5.6449   -9.5847 C   0  0  0  0  0  0  0  0  0  0  0  0
   38.8368   -5.2408   -9.7904 O   0  0  0  0  0  0  0  0  0  0  0  0
   41.0569   -4.8100   -9.8950 O   0  0  0  0  0  0  0  0  0  0  0  0
  2  4  1  0
  2  1  1  1
  3  2  1  0
  4  6  1  0
  4  5  1  1
  6  7  2  0
  8  9  1  0
  8  6  1  0
  9 10  1  6
 11 10  1  0
 12 13  2  0
 12 11  1  0
 14 15  2  0
 14  9  1  0
 16 12  1  0
 17 14  1  0
 18 17  1  0
 18 25  1  0
 18 19  1  1
 20 19  1  0
 20 24  1  0
 21 22  1  0
 21 20  2  0
 22 23  1  0
 23 24  2  0
 25 27  1  0
 26 25  2  0
M  END
$$$$
