VEH.pdb
     RDKit          3D

 27 27  0  0  1  0  0  0  0  0999 V2000
   18.1113  -16.7724  -15.3145 C   0  0  0  0  0  0  0  0  0  0  0  0
   18.7621  -15.4308  -15.5876 C   0  0  1  0  0  0  0  0  0  0  0  0
   19.5256  -14.9686  -14.3785 C   0  0  0  0  0  0  0  0  0  0  0  0
   19.6290  -15.5491  -16.8202 C   0  0  2  0  0  0  0  0  0  0  0  0
   20.5654  -16.6366  -16.6928 N   0  0  0  0  0  0  0  0  0  0  0  0
   20.2234  -14.2878  -17.2402 C   0  0  0  0  0  0  0  0  0  0  0  0
   21.4676  -14.0970  -17.0576 O   0  0  0  0  0  0  0  0  0  0  0  0
   19.5389  -13.1869  -17.8626 N   0  0  0  0  0  0  0  0  0  0  0  0
   20.1955  -12.0301  -18.3445 C   0  0  1  0  0  0  0  0  0  0  0  0
   19.9943  -11.5720  -19.7285 C   0  0  0  0  0  0  0  0  0  0  0  0
   20.7517  -10.3971  -20.2166 C   0  0  0  0  0  0  0  0  0  0  0  0
   20.4339  -10.0171  -21.6043 C   0  0  0  0  0  0  0  0  0  0  0  0
   20.9613  -10.4983  -22.6201 O   0  0  0  0  0  0  0  0  0  0  0  0
   19.9737  -10.8768  -17.4130 C   0  0  0  0  0  0  0  0  0  0  0  0
   18.8238  -10.7308  -16.8773 O   0  0  0  0  0  0  0  0  0  0  0  0
   19.4515   -9.0254  -21.8204 O   0  0  0  0  0  0  0  0  0  0  0  0
   21.0384   -9.9763  -17.1467 N   0  0  0  0  0  0  0  0  0  0  0  0
   20.8549   -8.8336  -16.2552 C   0  0  1  0  0  0  0  0  0  0  0  0
   22.2443   -8.4002  -15.8540 C   0  0  0  0  0  0  0  0  0  0  0  0
   22.2075   -7.1647  -15.0751 C   0  0  0  0  0  0  0  0  0  0  0  0
   21.9478   -7.0674  -13.7281 C   0  0  0  0  0  0  0  0  0  0  0  0
   21.9938   -5.7707  -13.3957 N   0  0  0  0  0  0  0  0  0  0  0  0
   22.2739   -5.0503  -14.4906 C   0  0  0  0  0  0  0  0  0  0  0  0
   22.4030   -5.9115  -15.5141 N   0  0  0  0  0  0  0  0  0  0  0  0
   20.0415   -7.7941  -16.8800 C   0  0  0  0  0  0  0  0  0  0  0  0
   20.1609   -7.5242  -18.0945 O   0  0  0  0  0  0  0  0  0  0  0  0
   19.1200   -7.0883  -16.1320 O   0  0  0  0  0  0  0  0  0  0  0  0
  2  4  1  0
  2  1  1  1
  3  2  1  0
  4  6  1  0
  4  5  1  1
  6  7  2  0
  8  9  1  0
  8  6  1  0
  9 10  1  6
 11 10  1  0
 12 13  2  0
 12 11  1  0
 14 15  2  0
 14  9  1  0
 16 12  1  0
 17 14  1  0
 18 17  1  0
 18 25  1  0
 18 19  1  6
 20 19  1  0
 20 24  1  0
 21 22  1  0
 21 20  2  0
 22 23  1  0
 23 24  2  0
 25 27  1  0
 26 25  2  0
M  END
$$$$
