VEH.pdb
     RDKit          3D

 27 27  0  0  1  0  0  0  0  0999 V2000
   14.6604   -9.1016  -15.8785 C   0  0  0  0  0  0  0  0  0  0  0  0
   14.5920  -10.1786  -14.8139 C   0  0  1  0  0  0  0  0  0  0  0  0
   13.3412  -10.9947  -14.9810 C   0  0  0  0  0  0  0  0  0  0  0  0
   15.8510  -11.0127  -14.8798 C   0  0  2  0  0  0  0  0  0  0  0  0
   15.8341  -12.0560  -13.8864 N   0  0  0  0  0  0  0  0  0  0  0  0
   17.0745  -10.2234  -14.9044 C   0  0  0  0  0  0  0  0  0  0  0  0
   17.4937   -9.6949  -13.8261 O   0  0  0  0  0  0  0  0  0  0  0  0
   17.8978   -9.9606  -16.0538 N   0  0  0  0  0  0  0  0  0  0  0  0
   19.1111   -9.2351  -15.9966 C   0  0  1  0  0  0  0  0  0  0  0  0
   20.3506   -9.7964  -16.5574 C   0  0  0  0  0  0  0  0  0  0  0  0
   20.9522  -10.9918  -15.9240 C   0  0  0  0  0  0  0  0  0  0  0  0
   22.1459  -11.5000  -16.6224 C   0  0  0  0  0  0  0  0  0  0  0  0
   22.6187  -11.0324  -17.6710 O   0  0  0  0  0  0  0  0  0  0  0  0
   18.9175   -7.8493  -16.5344 C   0  0  0  0  0  0  0  0  0  0  0  0
   18.1441   -7.6806  -17.5364 O   0  0  0  0  0  0  0  0  0  0  0  0
   22.8240  -12.6100  -16.0717 O   0  0  0  0  0  0  0  0  0  0  0  0
   19.5926   -6.7600  -15.9237 N   0  0  0  0  0  0  0  0  0  0  0  0
   19.4718   -5.4044  -16.4545 C   0  0  1  0  0  0  0  0  0  0  0  0
   19.2673   -4.5116  -15.2543 C   0  0  0  0  0  0  0  0  0  0  0  0
   19.1533   -3.1104  -15.6521 C   0  0  0  0  0  0  0  0  0  0  0  0
   20.0519   -2.1121  -15.3570 C   0  0  0  0  0  0  0  0  0  0  0  0
   19.5861   -0.9734  -15.8864 N   0  0  0  0  0  0  0  0  0  0  0  0
   18.4237   -1.2242  -16.5045 C   0  0  0  0  0  0  0  0  0  0  0  0
   18.1661   -2.5348  -16.3561 N   0  0  0  0  0  0  0  0  0  0  0  0
   20.6146   -5.0559  -17.2941 C   0  0  0  0  0  0  0  0  0  0  0  0
   21.6944   -5.6789  -17.2052 O   0  0  0  0  0  0  0  0  0  0  0  0
   20.5181   -4.0244  -18.2072 O   0  0  0  0  0  0  0  0  0  0  0  0
  2  4  1  0
  2  1  1  6
  3  2  1  0
  4  6  1  0
  4  5  1  1
  6  7  2  0
  8  9  1  0
  8  6  1  0
  9 10  1  6
 11 10  1  0
 12 13  2  0
 12 11  1  0
 14 15  2  0
 14  9  1  0
 16 12  1  0
 17 14  1  0
 18 17  1  0
 18 25  1  0
 18 19  1  1
 20 19  1  0
 20 24  1  0
 21 22  1  0
 21 20  2  0
 22 23  1  0
 23 24  2  0
 25 27  1  0
 26 25  2  0
M  END
$$$$
