VEH.pdb
     RDKit          3D

 27 27  0  0  1  0  0  0  0  0999 V2000
   23.1441  -12.1911  -19.4256 C   0  0  0  0  0  0  0  0  0  0  0  0
   24.0277  -12.9723  -18.4733 C   0  0  1  0  0  0  0  0  0  0  0  0
   24.6641  -14.1310  -19.1883 C   0  0  0  0  0  0  0  0  0  0  0  0
   25.0403  -12.0314  -17.8616 C   0  0  2  0  0  0  0  0  0  0  0  0
   25.9577  -12.7414  -17.0073 N   0  0  0  0  0  0  0  0  0  0  0  0
   24.4471  -10.8469  -17.2569 C   0  0  0  0  0  0  0  0  0  0  0  0
   23.7023  -10.9793  -16.2343 O   0  0  0  0  0  0  0  0  0  0  0  0
   24.6117   -9.4888  -17.6998 N   0  0  0  0  0  0  0  0  0  0  0  0
   23.9823   -8.3831  -17.0811 C   0  0  1  0  0  0  0  0  0  0  0  0
   24.5056   -7.0199  -17.2639 C   0  0  0  0  0  0  0  0  0  0  0  0
   24.3200   -6.3451  -18.5687 C   0  0  0  0  0  0  0  0  0  0  0  0
   24.9254   -5.0035  -18.6379 C   0  0  0  0  0  0  0  0  0  0  0  0
   26.0847   -4.7563  -19.0071 O   0  0  0  0  0  0  0  0  0  0  0  0
   22.5130   -8.3843  -17.3782 C   0  0  0  0  0  0  0  0  0  0  0  0
   22.1196   -8.7521  -18.5361 O   0  0  0  0  0  0  0  0  0  0  0  0
   24.1404   -3.8925  -18.2575 O   0  0  0  0  0  0  0  0  0  0  0  0
   21.5946   -7.9797  -16.3741 N   0  0  0  0  0  0  0  0  0  0  0  0
   20.1604   -7.9174  -16.6444 C   0  0  1  0  0  0  0  0  0  0  0  0
   19.5134   -8.8358  -15.6357 C   0  0  0  0  0  0  0  0  0  0  0  0
   18.0626   -8.8675  -15.8051 C   0  0  0  0  0  0  0  0  0  0  0  0
   17.1462   -8.1793  -15.0449 C   0  0  0  0  0  0  0  0  0  0  0  0
   15.9249   -8.4807  -15.5050 N   0  0  0  0  0  0  0  0  0  0  0  0
   16.0447   -9.3362  -16.5297 C   0  0  0  0  0  0  0  0  0  0  0  0
   17.3566   -9.5677  -16.7066 N   0  0  0  0  0  0  0  0  0  0  0  0
   19.6729   -6.5410  -16.6261 C   0  0  0  0  0  0  0  0  0  0  0  0
   18.5736   -6.2389  -17.1384 O   0  0  0  0  0  0  0  0  0  0  0  0
   20.4253   -5.5442  -16.0367 O   0  0  0  0  0  0  0  0  0  0  0  0
  2  4  1  0
  2  1  1  6
  3  2  1  0
  4  6  1  0
  4  5  1  1
  6  7  2  0
  8  9  1  0
  8  6  1  0
  9 10  1  6
 11 10  1  0
 12 13  2  0
 12 11  1  0
 14 15  2  0
 14  9  1  0
 16 12  1  0
 17 14  1  0
 18 17  1  0
 18 25  1  0
 18 19  1  1
 20 19  1  0
 20 24  1  0
 21 22  1  0
 21 20  2  0
 22 23  1  0
 23 24  2  0
 25 27  1  0
 26 25  2  0
M  END
$$$$
