VEH.pdb
     RDKit          3D

 27 27  0  0  1  0  0  0  0  0999 V2000
   27.5381  -11.3240  -15.3166 C   0  0  0  0  0  0  0  0  0  0  0  0
   26.2537  -10.5802  -15.6250 C   0  0  1  0  0  0  0  0  0  0  0  0
   26.5099   -9.5005  -16.6385 C   0  0  0  0  0  0  0  0  0  0  0  0
   25.2087  -11.5745  -16.0768 C   0  0  2  0  0  0  0  0  0  0  0  0
   25.7100  -12.4051  -17.1420 N   0  0  0  0  0  0  0  0  0  0  0  0
   23.9076  -10.9760  -16.3404 C   0  0  0  0  0  0  0  0  0  0  0  0
   23.5147  -10.8505  -17.5436 O   0  0  0  0  0  0  0  0  0  0  0  0
   22.9769  -10.4896  -15.3580 N   0  0  0  0  0  0  0  0  0  0  0  0
   21.7010   -9.9702  -15.6799 C   0  0  1  0  0  0  0  0  0  0  0  0
   20.4837  -10.7615  -15.4392 C   0  0  0  0  0  0  0  0  0  0  0  0
   19.1809  -10.2437  -15.9154 C   0  0  0  0  0  0  0  0  0  0  0  0
   18.0554  -11.1693  -15.6977 C   0  0  0  0  0  0  0  0  0  0  0  0
   18.0204  -12.3562  -16.0606 O   0  0  0  0  0  0  0  0  0  0  0  0
   21.5235   -8.6090  -15.0777 C   0  0  0  0  0  0  0  0  0  0  0  0
   21.8424   -8.4311  -13.8541 O   0  0  0  0  0  0  0  0  0  0  0  0
   16.9116  -10.6882  -15.0227 O   0  0  0  0  0  0  0  0  0  0  0  0
   21.0084   -7.5524  -15.8736 N   0  0  0  0  0  0  0  0  0  0  0  0
   20.8620   -6.2031  -15.3332 C   0  0  1  0  0  0  0  0  0  0  0  0
   21.2161   -5.2683  -16.4646 C   0  0  0  0  0  0  0  0  0  0  0  0
   22.6491   -5.3013  -16.7477 C   0  0  0  0  0  0  0  0  0  0  0  0
   23.2557   -6.0089  -17.7589 C   0  0  0  0  0  0  0  0  0  0  0  0
   24.5744   -5.7886  -17.6777 N   0  0  0  0  0  0  0  0  0  0  0  0
   24.8156   -4.9654  -16.6480 C   0  0  0  0  0  0  0  0  0  0  0  0
   23.6315   -4.6721  -16.0841 N   0  0  0  0  0  0  0  0  0  0  0  0
   19.5353   -5.9993  -14.7579 C   0  0  0  0  0  0  0  0  0  0  0  0
   18.5308   -6.5703  -15.2343 O   0  0  0  0  0  0  0  0  0  0  0  0
   19.3697   -5.1661  -13.6692 O   0  0  0  0  0  0  0  0  0  0  0  0
  2  4  1  0
  2  1  1  6
  3  2  1  0
  4  6  1  0
  4  5  1  6
  6  7  2  0
  8  9  1  0
  8  6  1  0
  9 10  1  1
 11 10  1  0
 12 13  2  0
 12 11  1  0
 14 15  2  0
 14  9  1  0
 16 12  1  0
 17 14  1  0
 18 17  1  0
 18 25  1  0
 18 19  1  6
 20 19  1  0
 20 24  1  0
 21 22  1  0
 21 20  2  0
 22 23  1  0
 23 24  2  0
 25 27  1  0
 26 25  2  0
M  END
$$$$
