CWD.pdb
     RDKit          3D

 29 30  0  0  1  0  0  0  0  0999 V2000
    8.2828  -12.6516   17.8319 N   0  0  0  0  0  0  0  0  0  0  0  0
    8.0973  -14.0088   18.3145 C   0  0  1  0  0  0  0  0  0  0  0  0
    9.0053  -14.9733   17.5566 C   0  0  0  0  0  0  0  0  0  0  0  0
    8.7593  -16.6255   18.2770 S   0  0  0  0  0  0  0  0  0  0  0  0
    8.3832  -14.0409   19.7673 C   0  0  0  0  0  0  0  0  0  0  0  0
    9.3439  -13.3736   20.2510 O   0  0  0  0  0  0  0  0  0  0  0  0
    7.6392  -14.7881   20.6981 N   0  0  0  0  0  0  0  0  0  0  0  0
    7.8137  -14.8062   22.1115 C   0  0  1  0  0  0  0  0  0  0  0  0
    6.5649  -14.8017   22.9200 C   0  0  0  0  0  0  0  0  0  0  0  0
    6.7525  -14.7104   24.3738 C   0  0  0  0  0  0  0  0  0  0  0  0
    6.8708  -15.7963   25.2124 C   0  0  0  0  0  0  0  0  0  0  0  0
    7.0284  -15.3446   26.4643 N   0  0  0  0  0  0  0  0  0  0  0  0
    7.0131  -14.0009   26.4413 C   0  0  0  0  0  0  0  0  0  0  0  0
    7.1365  -13.0697   27.4645 C   0  0  0  0  0  0  0  0  0  0  0  0
    7.0809  -11.7157   27.1307 C   0  0  0  0  0  0  0  0  0  0  0  0
    6.9082  -11.3045   25.8231 C   0  0  0  0  0  0  0  0  0  0  0  0
    6.7860  -12.2229   24.8102 C   0  0  0  0  0  0  0  0  0  0  0  0
    6.8424  -13.5779   25.1489 C   0  0  0  0  0  0  0  0  0  0  0  0
    8.5581  -16.0465   22.4575 C   0  0  0  0  0  0  0  0  0  0  0  0
    8.5097  -17.0431   21.6926 O   0  0  0  0  0  0  0  0  0  0  0  0
    9.3386  -16.1893   23.6181 N   0  0  0  0  0  0  0  0  0  0  0  0
   10.6172  -16.9206   23.5839 C   0  0  1  0  0  0  0  0  0  0  0  0
   11.5444  -16.3350   22.5746 C   0  0  0  0  0  0  0  0  0  0  0  0
   12.8077  -17.0969   22.4961 C   0  0  0  0  0  0  0  0  0  0  0  0
   12.9069  -18.2697   22.0272 O   0  0  0  0  0  0  0  0  0  0  0  0
   11.2297  -16.9423   24.9106 C   0  0  0  0  0  0  0  0  0  0  0  0
   11.0095  -16.0607   25.7541 O   0  0  0  0  0  0  0  0  0  0  0  0
   14.0234  -16.5519   22.9520 O   0  0  0  0  0  0  0  0  0  0  0  0
   12.0953  -17.9925   25.2457 O   0  0  0  0  0  0  0  0  0  0  0  0
  2  1  1  6
  2  5  1  0
  3  2  1  0
  4  3  1  0
  5  7  1  0
  5  6  2  0
  7  8  1  0
  8  9  1  1
  9 10  1  0
 10 11  2  0
 11 12  1  0
 13 12  1  0
 14 13  2  0
 15 14  1  0
 16 17  1  0
 16 15  2  0
 17 18  2  0
 18 10  1  0
 18 13  1  0
 19  8  1  0
 19 21  1  0
 20 19  2  0
 22 23  1  6
 22 21  1  0
 22 26  1  0
 23 24  1  0
 24 28  1  0
 24 25  2  0
 26 29  1  0
 27 26  2  0
M  END
$$$$
