CWD.pdb
     RDKit          3D

 29 30  0  0  1  0  0  0  0  0999 V2000
    7.3739  -14.2156   19.8920 N   0  0  0  0  0  0  0  0  0  0  0  0
    7.4067  -15.3873   20.7494 C   0  0  1  0  0  0  0  0  0  0  0  0
    7.8645  -16.6119   19.9621 C   0  0  0  0  0  0  0  0  0  0  0  0
    9.5762  -16.3026   19.4295 S   0  0  0  0  0  0  0  0  0  0  0  0
    8.3142  -15.1186   21.8886 C   0  0  0  0  0  0  0  0  0  0  0  0
    9.0608  -14.0964   21.8919 O   0  0  0  0  0  0  0  0  0  0  0  0
    8.4194  -15.9458   23.0212 N   0  0  0  0  0  0  0  0  0  0  0  0
    9.2254  -15.7161   24.1729 C   0  0  1  0  0  0  0  0  0  0  0  0
    8.5327  -15.8344   25.4841 C   0  0  0  0  0  0  0  0  0  0  0  0
    7.4146  -14.9059   25.6952 C   0  0  0  0  0  0  0  0  0  0  0  0
    6.0889  -15.2780   25.7213 C   0  0  0  0  0  0  0  0  0  0  0  0
    5.3491  -14.1808   25.9339 N   0  0  0  0  0  0  0  0  0  0  0  0
    6.1710  -13.1231   26.0433 C   0  0  0  0  0  0  0  0  0  0  0  0
    5.9023  -11.7783   26.2638 C   0  0  0  0  0  0  0  0  0  0  0  0
    6.9810  -10.8953   26.3306 C   0  0  0  0  0  0  0  0  0  0  0  0
    8.2816  -11.3372   26.1826 C   0  0  0  0  0  0  0  0  0  0  0  0
    8.5496  -12.6657   25.9645 C   0  0  0  0  0  0  0  0  0  0  0  0
    7.4663  -13.5466   25.8985 C   0  0  0  0  0  0  0  0  0  0  0  0
   10.3226  -16.7201   24.1621 C   0  0  0  0  0  0  0  0  0  0  0  0
   10.0771  -17.9170   23.8657 O   0  0  0  0  0  0  0  0  0  0  0  0
   11.6604  -16.4165   24.4700 N   0  0  0  0  0  0  0  0  0  0  0  0
   12.6578  -17.4869   24.6436 C   0  0  1  0  0  0  0  0  0  0  0  0
   14.0340  -16.9260   24.7562 C   0  0  0  0  0  0  0  0  0  0  0  0
   14.4041  -16.1579   23.5498 C   0  0  0  0  0  0  0  0  0  0  0  0
   13.9826  -16.4137   22.3826 O   0  0  0  0  0  0  0  0  0  0  0  0
   12.3283  -18.3094   25.8059 C   0  0  0  0  0  0  0  0  0  0  0  0
   12.4765  -19.5403   25.8072 O   0  0  0  0  0  0  0  0  0  0  0  0
   15.2777  -15.0558   23.6202 O   0  0  0  0  0  0  0  0  0  0  0  0
   11.8278  -17.6911   26.9599 O   0  0  0  0  0  0  0  0  0  0  0  0
  2  1  1  6
  2  5  1  0
  3  2  1  0
  4  3  1  0
  5  7  1  0
  5  6  2  0
  7  8  1  0
  8  9  1  1
  9 10  1  0
 10 11  2  0
 11 12  1  0
 13 12  1  0
 14 13  2  0
 15 14  1  0
 16 17  1  0
 16 15  2  0
 17 18  2  0
 18 10  1  0
 18 13  1  0
 19  8  1  0
 19 21  1  0
 20 19  2  0
 22 23  1  1
 22 21  1  0
 22 26  1  0
 23 24  1  0
 24 28  1  0
 24 25  2  0
 26 29  1  0
 27 26  2  0
M  END
$$$$
