CWD.pdb
     RDKit          3D

 29 30  0  0  1  0  0  0  0  0999 V2000
    7.8715  -13.8408   19.4517 N   0  0  0  0  0  0  0  0  0  0  0  0
    7.5087  -14.9735   20.2850 C   0  0  1  0  0  0  0  0  0  0  0  0
    7.6914  -16.2803   19.5182 C   0  0  0  0  0  0  0  0  0  0  0  0
    9.4536  -16.4110   19.0860 S   0  0  0  0  0  0  0  0  0  0  0  0
    8.3455  -14.9532   21.5069 C   0  0  0  0  0  0  0  0  0  0  0  0
    9.3110  -14.1417   21.6145 O   0  0  0  0  0  0  0  0  0  0  0  0
    8.1459  -15.8024   22.6100 N   0  0  0  0  0  0  0  0  0  0  0  0
    8.9069  -15.8299   23.8137 C   0  0  1  0  0  0  0  0  0  0  0  0
    8.1458  -16.1300   25.0562 C   0  0  0  0  0  0  0  0  0  0  0  0
    7.1798  -15.1040   25.4700 C   0  0  0  0  0  0  0  0  0  0  0  0
    5.8297  -15.3253   25.6273 C   0  0  0  0  0  0  0  0  0  0  0  0
    5.2576  -14.1752   26.0097 N   0  0  0  0  0  0  0  0  0  0  0  0
    6.2096  -13.2308   26.0989 C   0  0  0  0  0  0  0  0  0  0  0  0
    6.1334  -11.8893   26.4512 C   0  0  0  0  0  0  0  0  0  0  0  0
    7.3126  -11.1428   26.4541 C   0  0  0  0  0  0  0  0  0  0  0  0
    8.5250  -11.7134   26.1175 C   0  0  0  0  0  0  0  0  0  0  0  0
    8.6028  -13.0388   25.7691 C   0  0  0  0  0  0  0  0  0  0  0  0
    7.4194  -13.7828   25.7676 C   0  0  0  0  0  0  0  0  0  0  0  0
    9.9442  -16.8856   23.6666 C   0  0  0  0  0  0  0  0  0  0  0  0
    9.9183  -17.6592   22.6759 O   0  0  0  0  0  0  0  0  0  0  0  0
   10.9872  -17.0875   24.5875 N   0  0  0  0  0  0  0  0  0  0  0  0
   12.3274  -17.4983   24.1335 C   0  0  1  0  0  0  0  0  0  0  0  0
   12.9198  -16.4819   23.2187 C   0  0  0  0  0  0  0  0  0  0  0  0
   14.2580  -16.8944   22.7478 C   0  0  0  0  0  0  0  0  0  0  0  0
   15.3121  -16.2081   22.9003 O   0  0  0  0  0  0  0  0  0  0  0  0
   13.2008  -17.7485   25.2782 C   0  0  0  0  0  0  0  0  0  0  0  0
   12.8807  -17.4344   26.4341 O   0  0  0  0  0  0  0  0  0  0  0  0
   14.4560  -18.1165   22.0770 O   0  0  0  0  0  0  0  0  0  0  0  0
   14.4425  -18.3636   25.0679 O   0  0  0  0  0  0  0  0  0  0  0  0
  2  1  1  6
  2  5  1  0
  3  2  1  0
  4  3  1  0
  5  7  1  0
  5  6  2  0
  7  8  1  0
  8  9  1  1
  9 10  1  0
 10 11  2  0
 11 12  1  0
 13 12  1  0
 14 13  2  0
 15 14  1  0
 16 17  1  0
 16 15  2  0
 17 18  2  0
 18 10  1  0
 18 13  1  0
 19  8  1  0
 19 21  1  0
 20 19  2  0
 22 23  1  6
 22 21  1  0
 22 26  1  0
 23 24  1  0
 24 28  1  0
 24 25  2  0
 26 29  1  0
 27 26  2  0
M  END
$$$$
