CWD.pdb
     RDKit          3D

 29 30  0  0  1  0  0  0  0  0999 V2000
    9.2008  -15.8987   17.7547 N   0  0  0  0  0  0  0  0  0  0  0  0
    8.5093  -16.6994   18.7496 C   0  0  1  0  0  0  0  0  0  0  0  0
    9.0196  -18.1375   18.7258 C   0  0  0  0  0  0  0  0  0  0  0  0
   10.8022  -18.0840   19.0841 S   0  0  0  0  0  0  0  0  0  0  0  0
    8.7143  -16.0851   20.0816 C   0  0  0  0  0  0  0  0  0  0  0  0
    9.6947  -15.3125   20.2921 O   0  0  0  0  0  0  0  0  0  0  0  0
    7.8686  -16.3002   21.1845 N   0  0  0  0  0  0  0  0  0  0  0  0
    8.0057  -15.7392   22.4865 C   0  0  1  0  0  0  0  0  0  0  0  0
    6.7906  -15.7831   23.3437 C   0  0  0  0  0  0  0  0  0  0  0  0
    6.9624  -15.2765   24.7115 C   0  0  0  0  0  0  0  0  0  0  0  0
    7.0741  -16.0746   25.8282 C   0  0  0  0  0  0  0  0  0  0  0  0
    7.2172  -15.2810   26.8986 N   0  0  0  0  0  0  0  0  0  0  0  0
    7.1992  -14.0009   26.4898 C   0  0  0  0  0  0  0  0  0  0  0  0
    7.3095  -12.8140   27.2030 C   0  0  0  0  0  0  0  0  0  0  0  0
    7.2544  -11.6136   26.4932 C   0  0  0  0  0  0  0  0  0  0  0  0
    7.0948  -11.5969   25.1210 C   0  0  0  0  0  0  0  0  0  0  0  0
    6.9856  -12.7684   24.4141 C   0  0  0  0  0  0  0  0  0  0  0  0
    7.0414  -13.9684   25.1288 C   0  0  0  0  0  0  0  0  0  0  0  0
    9.0716  -16.4980   23.1938 C   0  0  0  0  0  0  0  0  0  0  0  0
    9.1506  -17.7455   23.0590 O   0  0  0  0  0  0  0  0  0  0  0  0
   10.0299  -15.9000   24.0309 N   0  0  0  0  0  0  0  0  0  0  0  0
   11.2376  -16.6361   24.4438 C   0  0  1  0  0  0  0  0  0  0  0  0
   12.4669  -15.8277   24.2064 C   0  0  0  0  0  0  0  0  0  0  0  0
   13.6860  -16.5815   24.5645 C   0  0  0  0  0  0  0  0  0  0  0  0
   14.0274  -16.8662   25.7510 O   0  0  0  0  0  0  0  0  0  0  0  0
   11.1362  -17.0405   25.8445 C   0  0  0  0  0  0  0  0  0  0  0  0
   10.2250  -16.6394   26.5833 O   0  0  0  0  0  0  0  0  0  0  0  0
   14.5771  -17.0478   23.5790 O   0  0  0  0  0  0  0  0  0  0  0  0
   12.0985  -17.9105   26.3751 O   0  0  0  0  0  0  0  0  0  0  0  0
  2  1  1  6
  2  5  1  0
  3  2  1  0
  4  3  1  0
  5  7  1  0
  5  6  2  0
  7  8  1  0
  8  9  1  1
  9 10  1  0
 10 11  2  0
 11 12  1  0
 13 12  1  0
 14 13  2  0
 15 14  1  0
 16 17  1  0
 16 15  2  0
 17 18  2  0
 18 10  1  0
 18 13  1  0
 19  8  1  0
 19 21  1  0
 20 19  2  0
 22 23  1  1
 22 21  1  0
 22 26  1  0
 23 24  1  0
 24 28  1  0
 24 25  2  0
 26 29  1  0
 27 26  2  0
M  END
$$$$
