CWD.pdb
     RDKit          3D

 29 30  0  0  1  0  0  0  0  0999 V2000
    7.9400  -14.3500   19.3980 N   0  0  0  0  0  0  0  0  0  0  0  0
    7.8799  -15.5901   20.1516 C   0  0  1  0  0  0  0  0  0  0  0  0
    8.3814  -16.7550   19.3028 C   0  0  0  0  0  0  0  0  0  0  0  0
    7.0529  -17.9966   19.2508 S   0  0  0  0  0  0  0  0  0  0  0  0
    8.6923  -15.4402   21.3808 C   0  0  0  0  0  0  0  0  0  0  0  0
    9.7959  -14.8208   21.3537 O   0  0  0  0  0  0  0  0  0  0  0  0
    8.3202  -15.9543   22.6359 N   0  0  0  0  0  0  0  0  0  0  0  0
    9.0947  -15.9300   23.8310 C   0  0  1  0  0  0  0  0  0  0  0  0
    8.3425  -16.1434   25.0966 C   0  0  0  0  0  0  0  0  0  0  0  0
    7.2628  -15.1834   25.3605 C   0  0  0  0  0  0  0  0  0  0  0  0
    5.9213  -15.4932   25.3275 C   0  0  0  0  0  0  0  0  0  0  0  0
    5.2271  -14.3834   25.6149 N   0  0  0  0  0  0  0  0  0  0  0  0
    6.0932  -13.3783   25.8293 C   0  0  0  0  0  0  0  0  0  0  0  0
    5.8805  -12.0450   26.1552 C   0  0  0  0  0  0  0  0  0  0  0  0
    6.9962  -11.2225   26.3180 C   0  0  0  0  0  0  0  0  0  0  0  0
    8.2787  -11.7119   26.1613 C   0  0  0  0  0  0  0  0  0  0  0  0
    8.4913  -13.0291   25.8392 C   0  0  0  0  0  0  0  0  0  0  0  0
    7.3712  -13.8494   25.6772 C   0  0  0  0  0  0  0  0  0  0  0  0
   10.1083  -17.0141   23.7328 C   0  0  0  0  0  0  0  0  0  0  0  0
   10.0469  -17.8496   22.7953 O   0  0  0  0  0  0  0  0  0  0  0  0
   11.1662  -17.1773   24.6443 N   0  0  0  0  0  0  0  0  0  0  0  0
   12.1588  -18.2514   24.4659 C   0  0  1  0  0  0  0  0  0  0  0  0
   12.8260  -18.1512   23.1370 C   0  0  0  0  0  0  0  0  0  0  0  0
   13.7668  -17.0131   23.0899 C   0  0  0  0  0  0  0  0  0  0  0  0
   13.5752  -15.9031   23.6699 O   0  0  0  0  0  0  0  0  0  0  0  0
   13.1389  -18.2272   25.5498 C   0  0  0  0  0  0  0  0  0  0  0  0
   14.0038  -19.1063   25.6777 O   0  0  0  0  0  0  0  0  0  0  0  0
   14.9770  -17.0900   22.3742 O   0  0  0  0  0  0  0  0  0  0  0  0
   13.1044  -17.1776   26.4780 O   0  0  0  0  0  0  0  0  0  0  0  0
  2  1  1  6
  2  5  1  0
  3  2  1  0
  4  3  1  0
  5  7  1  0
  5  6  2  0
  7  8  1  0
  8  9  1  1
  9 10  1  0
 10 11  2  0
 11 12  1  0
 13 12  1  0
 14 13  2  0
 15 14  1  0
 16 17  1  0
 16 15  2  0
 17 18  2  0
 18 10  1  0
 18 13  1  0
 19  8  1  0
 19 21  1  0
 20 19  2  0
 22 23  1  6
 22 21  1  0
 22 26  1  0
 23 24  1  0
 24 28  1  0
 24 25  2  0
 26 29  1  0
 27 26  2  0
M  END
$$$$
