CWD.pdb
     RDKit          3D

 29 30  0  0  1  0  0  0  0  0999 V2000
    7.2819  -16.7136   19.9359 N   0  0  0  0  0  0  0  0  0  0  0  0
    7.4158  -17.4134   21.2014 C   0  0  1  0  0  0  0  0  0  0  0  0
    7.8826  -18.8480   20.9711 C   0  0  0  0  0  0  0  0  0  0  0  0
    9.6178  -18.7710   20.4303 S   0  0  0  0  0  0  0  0  0  0  0  0
    8.3736  -16.6738   22.0555 C   0  0  0  0  0  0  0  0  0  0  0  0
    9.1627  -15.8217   21.5520 O   0  0  0  0  0  0  0  0  0  0  0  0
    8.4835  -16.8493   23.4466 N   0  0  0  0  0  0  0  0  0  0  0  0
    9.3979  -16.1929   24.3192 C   0  0  1  0  0  0  0  0  0  0  0  0
    8.9117  -15.9470   25.7035 C   0  0  0  0  0  0  0  0  0  0  0  0
    7.6800  -15.1542   25.8102 C   0  0  0  0  0  0  0  0  0  0  0  0
    6.4088  -15.6794   25.7437 C   0  0  0  0  0  0  0  0  0  0  0  0
    5.5320  -14.6745   25.8769 N   0  0  0  0  0  0  0  0  0  0  0  0
    6.2141  -13.5262   26.0262 C   0  0  0  0  0  0  0  0  0  0  0  0
    5.7744  -12.2199   26.1979 C   0  0  0  0  0  0  0  0  0  0  0  0
    6.7344  -11.2153   26.3278 C   0  0  0  0  0  0  0  0  0  0  0  0
    8.0852  -11.5028   26.2876 C   0  0  0  0  0  0  0  0  0  0  0  0
    8.5221  -12.7929   26.1180 C   0  0  0  0  0  0  0  0  0  0  0  0
    7.5572  -13.7960   25.9885 C   0  0  0  0  0  0  0  0  0  0  0  0
   10.6119  -17.0458   24.4236 C   0  0  0  0  0  0  0  0  0  0  0  0
   10.5014  -18.2981   24.4391 O   0  0  0  0  0  0  0  0  0  0  0  0
   11.9189  -16.5347   24.5092 N   0  0  0  0  0  0  0  0  0  0  0  0
   13.0668  -17.4293   24.7390 C   0  0  1  0  0  0  0  0  0  0  0  0
   14.3296  -16.8253   24.2275 C   0  0  0  0  0  0  0  0  0  0  0  0
   14.2489  -16.5525   22.7777 C   0  0  0  0  0  0  0  0  0  0  0  0
   13.5997  -17.2614   21.9523 O   0  0  0  0  0  0  0  0  0  0  0  0
   13.1798  -17.7623   26.1575 C   0  0  0  0  0  0  0  0  0  0  0  0
   14.0571  -18.5247   26.5890 O   0  0  0  0  0  0  0  0  0  0  0  0
   14.9093  -15.4513   22.1998 O   0  0  0  0  0  0  0  0  0  0  0  0
   12.2687  -17.2039   27.0644 O   0  0  0  0  0  0  0  0  0  0  0  0
  2  1  1  6
  2  5  1  0
  3  2  1  0
  4  3  1  0
  5  7  1  0
  5  6  2  0
  7  8  1  0
  8  9  1  1
  9 10  1  0
 10 11  2  0
 11 12  1  0
 13 12  1  0
 14 13  2  0
 15 14  1  0
 16 17  1  0
 16 15  2  0
 17 18  2  0
 18 10  1  0
 18 13  1  0
 19  8  1  0
 19 21  1  0
 20 19  2  0
 22 23  1  1
 22 21  1  0
 22 26  1  0
 23 24  1  0
 24 28  1  0
 24 25  2  0
 26 29  1  0
 27 26  2  0
M  END
$$$$
