CWD.pdb
     RDKit          3D

 29 30  0  0  1  0  0  0  0  0999 V2000
    6.4070  -15.2759   19.7205 N   0  0  0  0  0  0  0  0  0  0  0  0
    6.8949  -16.3134   20.6121 C   0  0  1  0  0  0  0  0  0  0  0  0
    7.5441  -17.4407   19.8141 C   0  0  0  0  0  0  0  0  0  0  0  0
    9.0289  -16.7538   19.0187 S   0  0  0  0  0  0  0  0  0  0  0  0
    7.8592  -15.7109   21.5611 C   0  0  0  0  0  0  0  0  0  0  0  0
    8.3808  -14.5825   21.3222 O   0  0  0  0  0  0  0  0  0  0  0  0
    8.2623  -16.3189   22.7636 N   0  0  0  0  0  0  0  0  0  0  0  0
    9.1404  -15.7726   23.7429 C   0  0  1  0  0  0  0  0  0  0  0  0
    8.6949  -15.8984   25.1567 C   0  0  0  0  0  0  0  0  0  0  0  0
    7.5510  -15.0594   25.5369 C   0  0  0  0  0  0  0  0  0  0  0  0
    6.2507  -15.5061   25.6148 C   0  0  0  0  0  0  0  0  0  0  0  0
    5.4756  -14.4784   25.9880 N   0  0  0  0  0  0  0  0  0  0  0  0
    6.2504  -13.3921   26.1487 C   0  0  0  0  0  0  0  0  0  0  0  0
    5.9329  -12.0927   26.5231 C   0  0  0  0  0  0  0  0  0  0  0  0
    6.9690  -11.1614   26.6062 C   0  0  0  0  0  0  0  0  0  0  0  0
    8.2754  -11.5129   26.3258 C   0  0  0  0  0  0  0  0  0  0  0  0
    8.5915  -12.7963   25.9557 C   0  0  0  0  0  0  0  0  0  0  0  0
    7.5508  -13.7259   25.8738 C   0  0  0  0  0  0  0  0  0  0  0  0
   10.4423  -16.4822   23.6263 C   0  0  0  0  0  0  0  0  0  0  0  0
   10.4674  -17.7106   23.3598 O   0  0  0  0  0  0  0  0  0  0  0  0
   11.6895  -15.8566   23.7987 N   0  0  0  0  0  0  0  0  0  0  0  0
   12.9432  -16.6159   23.6489 C   0  0  1  0  0  0  0  0  0  0  0  0
   14.0895  -15.7087   23.3586 C   0  0  0  0  0  0  0  0  0  0  0  0
   15.3553  -16.4606   23.2363 C   0  0  0  0  0  0  0  0  0  0  0  0
   15.8377  -17.2003   24.1449 O   0  0  0  0  0  0  0  0  0  0  0  0
   13.1988  -17.4216   24.8411 C   0  0  0  0  0  0  0  0  0  0  0  0
   12.6498  -17.1860   25.9275 O   0  0  0  0  0  0  0  0  0  0  0  0
   16.1336  -16.4026   22.0643 O   0  0  0  0  0  0  0  0  0  0  0  0
   14.0933  -18.4975   24.7591 O   0  0  0  0  0  0  0  0  0  0  0  0
  2  1  1  6
  2  5  1  0
  3  2  1  0
  4  3  1  0
  5  7  1  0
  5  6  2  0
  7  8  1  0
  8  9  1  1
  9 10  1  0
 10 11  2  0
 11 12  1  0
 13 12  1  0
 14 13  2  0
 15 14  1  0
 16 17  1  0
 16 15  2  0
 17 18  2  0
 18 10  1  0
 18 13  1  0
 19  8  1  0
 19 21  1  0
 20 19  2  0
 22 23  1  1
 22 21  1  0
 22 26  1  0
 23 24  1  0
 24 28  1  0
 24 25  2  0
 26 29  1  0
 27 26  2  0
M  END
$$$$
