CWD.pdb
     RDKit          3D

 29 30  0  0  1  0  0  0  0  0999 V2000
    8.6261  -16.7693   18.4961 N   0  0  0  0  0  0  0  0  0  0  0  0
    9.4977  -15.6357   18.7503 C   0  0  1  0  0  0  0  0  0  0  0  0
    9.1035  -14.4519   17.8714 C   0  0  0  0  0  0  0  0  0  0  0  0
    8.4175  -15.1294   16.3288 S   0  0  0  0  0  0  0  0  0  0  0  0
    9.4131  -15.2826   20.1862 C   0  0  0  0  0  0  0  0  0  0  0  0
   10.2508  -14.4888   20.7061 O   0  0  0  0  0  0  0  0  0  0  0  0
    8.4313  -15.7810   21.0612 N   0  0  0  0  0  0  0  0  0  0  0  0
    8.3259  -15.5263   22.4586 C   0  0  1  0  0  0  0  0  0  0  0  0
    6.9762  -15.1360   22.9475 C   0  0  0  0  0  0  0  0  0  0  0  0
    6.8649  -14.9234   24.3964 C   0  0  0  0  0  0  0  0  0  0  0  0
    6.5197  -15.9018   25.3018 C   0  0  0  0  0  0  0  0  0  0  0  0
    6.5154  -15.3577   26.5266 N   0  0  0  0  0  0  0  0  0  0  0  0
    6.8489  -14.0600   26.4213 C   0  0  0  0  0  0  0  0  0  0  0  0
    6.9837  -13.0717   27.3879 C   0  0  0  0  0  0  0  0  0  0  0  0
    7.3484  -11.7906   26.9710 C   0  0  0  0  0  0  0  0  0  0  0  0
    7.5705  -11.5049   25.6377 C   0  0  0  0  0  0  0  0  0  0  0  0
    7.4379  -12.4800   24.6808 C   0  0  0  0  0  0  0  0  0  0  0  0
    7.0727  -13.7616   25.1026 C   0  0  0  0  0  0  0  0  0  0  0  0
    8.7102  -16.7725   23.1737 C   0  0  0  0  0  0  0  0  0  0  0  0
    8.4030  -17.8932   22.6938 O   0  0  0  0  0  0  0  0  0  0  0  0
    9.4165  -16.7878   24.3893 N   0  0  0  0  0  0  0  0  0  0  0  0
   10.5793  -17.6729   24.5768 C   0  0  1  0  0  0  0  0  0  0  0  0
   11.6160  -17.4262   23.5349 C   0  0  0  0  0  0  0  0  0  0  0  0
   12.8300  -18.2315   23.7802 C   0  0  0  0  0  0  0  0  0  0  0  0
   12.9379  -19.4635   23.5049 O   0  0  0  0  0  0  0  0  0  0  0  0
   11.1338  -17.5114   25.9193 C   0  0  0  0  0  0  0  0  0  0  0  0
   12.0416  -18.2373   26.3506 O   0  0  0  0  0  0  0  0  0  0  0  0
   13.9838  -17.6643   24.3545 O   0  0  0  0  0  0  0  0  0  0  0  0
   10.6260  -16.5038   26.7508 O   0  0  0  0  0  0  0  0  0  0  0  0
  2  1  1  1
  2  5  1  0
  3  2  1  0
  4  3  1  0
  5  7  1  0
  5  6  2  0
  7  8  1  0
  8  9  1  6
  9 10  1  0
 10 11  2  0
 11 12  1  0
 13 12  1  0
 14 13  2  0
 15 14  1  0
 16 17  1  0
 16 15  2  0
 17 18  2  0
 18 10  1  0
 18 13  1  0
 19  8  1  0
 19 21  1  0
 20 19  2  0
 22 23  1  6
 22 21  1  0
 22 26  1  0
 23 24  1  0
 24 28  1  0
 24 25  2  0
 26 29  1  0
 27 26  2  0
M  END
$$$$
