CWD.pdb
     RDKit          3D

 29 30  0  0  1  0  0  0  0  0999 V2000
    7.2256  -17.3797   21.8173 N   0  0  0  0  0  0  0  0  0  0  0  0
    7.9698  -16.2581   21.2720 C   0  0  1  0  0  0  0  0  0  0  0  0
    7.0166  -15.1608   20.8068 C   0  0  0  0  0  0  0  0  0  0  0  0
    5.5402  -15.9795   20.1292 S   0  0  0  0  0  0  0  0  0  0  0  0
    8.8965  -15.7516   22.3104 C   0  0  0  0  0  0  0  0  0  0  0  0
    9.6345  -14.7486   22.0832 O   0  0  0  0  0  0  0  0  0  0  0  0
    9.0302  -16.3210   23.5894 N   0  0  0  0  0  0  0  0  0  0  0  0
    9.7955  -15.8080   24.6755 C   0  0  1  0  0  0  0  0  0  0  0  0
    9.0918  -15.7253   25.9837 C   0  0  0  0  0  0  0  0  0  0  0  0
    7.8011  -15.0250   25.9649 C   0  0  0  0  0  0  0  0  0  0  0  0
    6.5833  -15.6432   25.7885 C   0  0  0  0  0  0  0  0  0  0  0  0
    5.6269  -14.7050   25.8260 N   0  0  0  0  0  0  0  0  0  0  0  0
    6.2066  -13.5083   26.0215 C   0  0  0  0  0  0  0  0  0  0  0  0
    5.6586  -12.2369   26.1334 C   0  0  0  0  0  0  0  0  0  0  0  0
    6.5265  -11.1631   26.3372 C   0  0  0  0  0  0  0  0  0  0  0  0
    7.8925  -11.3502   26.4262 C   0  0  0  0  0  0  0  0  0  0  0  0
    8.4363  -12.6057   26.3159 C   0  0  0  0  0  0  0  0  0  0  0  0
    7.5634  -13.6783   26.1119 C   0  0  0  0  0  0  0  0  0  0  0  0
   10.9687  -16.7029   24.8621 C   0  0  0  0  0  0  0  0  0  0  0  0
   11.8396  -16.4264   25.7256 O   0  0  0  0  0  0  0  0  0  0  0  0
   11.1810  -17.8758   24.1166 N   0  0  0  0  0  0  0  0  0  0  0  0
   12.5452  -18.3345   23.8011 C   0  0  1  0  0  0  0  0  0  0  0  0
   13.2735  -17.3282   22.9777 C   0  0  0  0  0  0  0  0  0  0  0  0
   14.6542  -17.7661   22.6871 C   0  0  0  0  0  0  0  0  0  0  0  0
   14.9827  -18.9583   22.4112 O   0  0  0  0  0  0  0  0  0  0  0  0
   13.2783  -18.6404   25.0278 C   0  0  0  0  0  0  0  0  0  0  0  0
   14.4301  -19.0988   25.0118 O   0  0  0  0  0  0  0  0  0  0  0  0
   15.7302  -16.8579   22.6981 O   0  0  0  0  0  0  0  0  0  0  0  0
   12.6635  -18.4097   26.2661 O   0  0  0  0  0  0  0  0  0  0  0  0
  2  1  1  1
  2  5  1  0
  3  2  1  0
  4  3  1  0
  5  7  1  0
  5  6  2  0
  7  8  1  0
  8  9  1  1
  9 10  1  0
 10 11  2  0
 11 12  1  0
 13 12  1  0
 14 13  2  0
 15 14  1  0
 16 17  1  0
 16 15  2  0
 17 18  2  0
 18 10  1  0
 18 13  1  0
 19  8  1  0
 19 21  1  0
 20 19  2  0
 22 23  1  1
 22 21  1  0
 22 26  1  0
 23 24  1  0
 24 28  1  0
 24 25  2  0
 26 29  1  0
 27 26  2  0
M  END
$$$$
