CWD.pdb
     RDKit          3D

 29 30  0  0  1  0  0  0  0  0999 V2000
    7.8585  -17.3061   21.1171 N   0  0  0  0  0  0  0  0  0  0  0  0
    8.5657  -16.0859   20.7701 C   0  0  1  0  0  0  0  0  0  0  0  0
    7.5980  -15.0514   20.2023 C   0  0  0  0  0  0  0  0  0  0  0  0
    6.6004  -15.8860   18.9305 S   0  0  0  0  0  0  0  0  0  0  0  0
    9.2457  -15.5692   21.9801 C   0  0  0  0  0  0  0  0  0  0  0  0
    9.9968  -14.5525   21.9139 O   0  0  0  0  0  0  0  0  0  0  0  0
    9.1193  -16.1432   23.2579 N   0  0  0  0  0  0  0  0  0  0  0  0
    9.7346  -15.6913   24.4603 C   0  0  1  0  0  0  0  0  0  0  0  0
    8.9857  -15.9665   25.7160 C   0  0  0  0  0  0  0  0  0  0  0  0
    7.6960  -15.2764   25.8479 C   0  0  0  0  0  0  0  0  0  0  0  0
    6.4694  -15.8894   25.7214 C   0  0  0  0  0  0  0  0  0  0  0  0
    5.5170  -14.9636   25.9008 N   0  0  0  0  0  0  0  0  0  0  0  0
    6.1078  -13.7799   26.1376 C   0  0  0  0  0  0  0  0  0  0  0  0
    5.5677  -12.5241   26.3838 C   0  0  0  0  0  0  0  0  0  0  0  0
    6.4467  -11.4614   26.5977 C   0  0  0  0  0  0  0  0  0  0  0  0
    7.8158  -11.6441   26.5672 C   0  0  0  0  0  0  0  0  0  0  0  0
    8.3519  -12.8842   26.3242 C   0  0  0  0  0  0  0  0  0  0  0  0
    7.4679  -13.9457   26.1105 C   0  0  0  0  0  0  0  0  0  0  0  0
   11.0523  -16.3715   24.5751 C   0  0  0  0  0  0  0  0  0  0  0  0
   11.8184  -16.1008   25.5345 O   0  0  0  0  0  0  0  0  0  0  0  0
   11.5185  -17.3282   23.6563 N   0  0  0  0  0  0  0  0  0  0  0  0
   12.9482  -17.6777   23.5892 C   0  0  1  0  0  0  0  0  0  0  0  0
   13.7711  -16.5007   23.1910 C   0  0  0  0  0  0  0  0  0  0  0  0
   15.1865  -16.8742   22.9918 C   0  0  0  0  0  0  0  0  0  0  0  0
   15.5718  -17.9099   22.3720 O   0  0  0  0  0  0  0  0  0  0  0  0
   13.4006  -18.2284   24.8651 C   0  0  0  0  0  0  0  0  0  0  0  0
   12.6685  -18.2654   25.8650 O   0  0  0  0  0  0  0  0  0  0  0  0
   16.2338  -16.0780   23.4940 O   0  0  0  0  0  0  0  0  0  0  0  0
   14.7044  -18.7326   24.9672 O   0  0  0  0  0  0  0  0  0  0  0  0
  2  1  1  1
  2  5  1  0
  3  2  1  0
  4  3  1  0
  5  7  1  0
  5  6  2  0
  7  8  1  0
  8  9  1  1
  9 10  1  0
 10 11  2  0
 11 12  1  0
 13 12  1  0
 14 13  2  0
 15 14  1  0
 16 17  1  0
 16 15  2  0
 17 18  2  0
 18 10  1  0
 18 13  1  0
 19  8  1  0
 19 21  1  0
 20 19  2  0
 22 23  1  1
 22 21  1  0
 22 26  1  0
 23 24  1  0
 24 28  1  0
 24 25  2  0
 26 29  1  0
 27 26  2  0
M  END
$$$$
