CWD.pdb
     RDKit          3D

 29 30  0  0  1  0  0  0  0  0999 V2000
    7.6759  -14.6672   19.4549 N   0  0  0  0  0  0  0  0  0  0  0  0
    7.6479  -15.7892   20.3766 C   0  0  1  0  0  0  0  0  0  0  0  0
    8.0167  -17.0821   19.6546 C   0  0  0  0  0  0  0  0  0  0  0  0
    6.7625  -17.3577   18.3661 S   0  0  0  0  0  0  0  0  0  0  0  0
    8.5870  -15.5154   21.4887 C   0  0  0  0  0  0  0  0  0  0  0  0
    9.5966  -14.7725   21.3129 O   0  0  0  0  0  0  0  0  0  0  0  0
    8.4420  -16.0385   22.7862 N   0  0  0  0  0  0  0  0  0  0  0  0
    9.3392  -15.8686   23.8792 C   0  0  1  0  0  0  0  0  0  0  0  0
    8.7381  -15.9784   25.2357 C   0  0  0  0  0  0  0  0  0  0  0  0
    7.5595  -15.1357   25.4757 C   0  0  0  0  0  0  0  0  0  0  0  0
    6.2575  -15.5746   25.3825 C   0  0  0  0  0  0  0  0  0  0  0  0
    5.4465  -14.5457   25.6645 N   0  0  0  0  0  0  0  0  0  0  0  0
    6.2001  -13.4660   25.9341 C   0  0  0  0  0  0  0  0  0  0  0  0
    5.8443  -12.1683   26.2786 C   0  0  0  0  0  0  0  0  0  0  0  0
    6.8662  -11.2446   26.5029 C   0  0  0  0  0  0  0  0  0  0  0  0
    8.1957  -11.6019   26.3878 C   0  0  0  0  0  0  0  0  0  0  0  0
    8.5498  -12.8837   26.0475 C   0  0  0  0  0  0  0  0  0  0  0  0
    7.5232  -13.8056   25.8238 C   0  0  0  0  0  0  0  0  0  0  0  0
   10.3829  -16.9229   23.7731 C   0  0  0  0  0  0  0  0  0  0  0  0
   10.4863  -17.6019   22.7201 O   0  0  0  0  0  0  0  0  0  0  0  0
   11.2932  -17.2252   24.8011 N   0  0  0  0  0  0  0  0  0  0  0  0
   12.7097  -17.4968   24.5006 C   0  0  1  0  0  0  0  0  0  0  0  0
   13.3284  -16.3629   23.7572 C   0  0  0  0  0  0  0  0  0  0  0  0
   14.1643  -16.8435   22.6378 C   0  0  0  0  0  0  0  0  0  0  0  0
   14.3599  -18.0654   22.3654 O   0  0  0  0  0  0  0  0  0  0  0  0
   13.4470  -17.7850   25.7291 C   0  0  0  0  0  0  0  0  0  0  0  0
   13.1945  -17.2139   26.8002 O   0  0  0  0  0  0  0  0  0  0  0  0
   14.8194  -15.9463   21.7726 O   0  0  0  0  0  0  0  0  0  0  0  0
   14.4746  -18.7379   25.7010 O   0  0  0  0  0  0  0  0  0  0  0  0
  2  1  1  6
  2  5  1  0
  3  2  1  0
  4  3  1  0
  5  7  1  0
  5  6  2  0
  7  8  1  0
  8  9  1  1
  9 10  1  0
 10 11  2  0
 11 12  1  0
 13 12  1  0
 14 13  2  0
 15 14  1  0
 16 17  1  0
 16 15  2  0
 17 18  2  0
 18 10  1  0
 18 13  1  0
 19  8  1  0
 19 21  1  0
 20 19  2  0
 22 23  1  1
 22 21  1  0
 22 26  1  0
 23 24  1  0
 24 28  1  0
 24 25  2  0
 26 29  1  0
 27 26  2  0
M  END
$$$$
