LTN.pdb
     RDKit          3D

 24 23  0  0  1  0  0  0  0  0999 V2000
    7.4841  -13.0116   27.4015 C   0  0  0  0  0  0  0  0  0  0  0  0
    7.4340  -13.3969   25.9343 C   0  0  2  0  0  0  0  0  0  0  0  0
    7.4553  -12.1454   25.1188 C   0  0  0  0  0  0  0  0  0  0  0  0
    6.1591  -14.1877   25.6663 C   0  0  0  0  0  0  0  0  0  0  0  0
    6.2508  -14.7896   24.2782 C   0  0  2  0  0  0  0  0  0  0  0  0
    5.0391  -15.5047   23.9853 N   0  0  0  0  0  0  0  0  0  0  0  0
    7.4631  -15.6123   24.1231 C   0  0  0  0  0  0  0  0  0  0  0  0
    7.5426  -16.6779   24.7846 O   0  0  0  0  0  0  0  0  0  0  0  0
   11.3032  -17.0201   21.3177 C   0  0  0  0  0  0  0  0  0  0  0  0
   10.2572  -15.9782   21.6564 C   0  0  1  0  0  0  0  0  0  0  0  0
    9.2364  -16.0848   20.7105 O   0  0  0  0  0  0  0  0  0  0  0  0
    9.6419  -16.2250   23.0111 C   0  0  2  0  0  0  0  0  0  0  0  0
    8.5593  -15.2861   23.2723 N   0  0  0  0  0  0  0  0  0  0  0  0
   10.5929  -16.1601   24.1128 C   0  0  0  0  0  0  0  0  0  0  0  0
   10.5176  -15.2431   24.9748 O   0  0  0  0  0  0  0  0  0  0  0  0
   12.2857  -18.4598   28.2407 N   0  0  0  0  0  0  0  0  0  0  0  0
   11.0769  -18.7725   27.5640 C   0  0  0  0  0  0  0  0  0  0  0  0
   10.1992  -19.4526   28.1534 O   0  0  0  0  0  0  0  0  0  0  0  0
   10.8031  -18.3261   26.1783 C   0  0  0  0  0  0  0  0  0  0  0  0
   12.0079  -17.5773   25.6213 C   0  0  2  0  0  0  0  0  0  0  0  0
   11.6568  -17.0935   24.3085 N   0  0  0  0  0  0  0  0  0  0  0  0
   13.1896  -18.4649   25.5967 C   0  0  0  0  0  0  0  0  0  0  0  0
   13.2186  -19.4670   24.8374 O   0  0  0  0  0  0  0  0  0  0  0  0
   14.2960  -18.2329   26.3969 O   0  0  0  0  0  0  0  0  0  0  0  0
  2  1  1  1
  2  3  1  0
  4  2  1  0
  4  5  1  0
  5  6  1  1
  5  7  1  0
  7  8  2  0
 10  9  1  6
 11 10  1  0
 12 10  1  0
 13  7  1  0
 12 13  1  1
 14 12  1  0
 14 15  2  0
 16 17  1  0
 17 18  2  0
 17 19  1  0
 20 19  1  6
 20 21  1  0
 21 14  1  0
 22 20  1  0
 22 24  1  0
 23 22  2  0
M  END
$$$$
