LTN.pdb
     RDKit          3D

 24 23  0  0  1  0  0  0  0  0999 V2000
    9.0890  -13.5548   18.2330 C   0  0  0  0  0  0  0  0  0  0  0  0
    7.9175  -13.3752   19.1810 C   0  0  2  0  0  0  0  0  0  0  0  0
    7.3250  -12.0242   18.9454 C   0  0  0  0  0  0  0  0  0  0  0  0
    8.4109  -13.4992   20.6176 C   0  0  0  0  0  0  0  0  0  0  0  0
    8.9398  -14.9047   20.8237 C   0  0  2  0  0  0  0  0  0  0  0  0
    8.0032  -15.8525   20.2854 N   0  0  0  0  0  0  0  0  0  0  0  0
    9.2744  -15.1562   22.2363 C   0  0  0  0  0  0  0  0  0  0  0  0
   10.1196  -14.4059   22.7858 O   0  0  0  0  0  0  0  0  0  0  0  0
    6.8066  -15.5673   25.1849 C   0  0  0  0  0  0  0  0  0  0  0  0
    7.8286  -16.6829   25.2583 C   0  0  1  0  0  0  0  0  0  0  0  0
    7.2409  -17.8272   24.7167 O   0  0  0  0  0  0  0  0  0  0  0  0
    9.0528  -16.3735   24.4335 C   0  0  2  0  0  0  0  0  0  0  0  0
    8.7061  -16.1948   23.0302 N   0  0  0  0  0  0  0  0  0  0  0  0
   10.1013  -17.3803   24.5315 C   0  0  0  0  0  0  0  0  0  0  0  0
   10.2109  -18.2823   23.6576 O   0  0  0  0  0  0  0  0  0  0  0  0
   14.8497  -18.4998   23.5865 N   0  0  0  0  0  0  0  0  0  0  0  0
   14.3540  -18.7766   24.8881 C   0  0  0  0  0  0  0  0  0  0  0  0
   14.7143  -19.8290   25.4737 O   0  0  0  0  0  0  0  0  0  0  0  0
   13.4204  -17.8678   25.5932 C   0  0  0  0  0  0  0  0  0  0  0  0
   12.0348  -18.4976   25.6712 C   0  0  2  0  0  0  0  0  0  0  0  0
   11.0631  -17.4349   25.5867 N   0  0  0  0  0  0  0  0  0  0  0  0
   11.9040  -19.2822   26.9171 C   0  0  0  0  0  0  0  0  0  0  0  0
   11.2484  -18.8293   27.8900 O   0  0  0  0  0  0  0  0  0  0  0  0
   12.4895  -20.5291   27.0617 O   0  0  0  0  0  0  0  0  0  0  0  0
  2  1  1  6
  2  3  1  0
  4  2  1  0
  4  5  1  0
  5  6  1  1
  5  7  1  0
  7  8  2  0
 10  9  1  6
 11 10  1  0
 12 10  1  0
 13  7  1  0
 12 13  1  6
 14 12  1  0
 14 15  2  0
 16 17  1  0
 17 18  2  0
 17 19  1  0
 20 19  1  1
 20 21  1  0
 21 14  1  0
 22 20  1  0
 22 24  1  0
 23 22  2  0
M  END
$$$$
