LTN.pdb
     RDKit          3D

 24 23  0  0  1  0  0  0  0  0999 V2000
    6.0054  -11.6286   24.9796 C   0  0  0  0  0  0  0  0  0  0  0  0
    6.2824  -12.2867   26.3188 C   0  0  2  0  0  0  0  0  0  0  0  0
    6.9301  -11.2797   27.2122 C   0  0  0  0  0  0  0  0  0  0  0  0
    7.2012  -13.4843   26.1090 C   0  0  0  0  0  0  0  0  0  0  0  0
    6.4515  -14.5295   25.3071 C   0  0  2  0  0  0  0  0  0  0  0  0
    5.2754  -14.9332   26.0275 N   0  0  0  0  0  0  0  0  0  0  0  0
    7.3236  -15.6585   24.9387 C   0  0  0  0  0  0  0  0  0  0  0  0
    7.3062  -16.6811   25.6690 O   0  0  0  0  0  0  0  0  0  0  0  0
    8.2018  -16.6102   21.1204 C   0  0  0  0  0  0  0  0  0  0  0  0
    9.4004  -16.8244   22.0214 C   0  0  1  0  0  0  0  0  0  0  0  0
   10.2665  -15.7464   21.8316 O   0  0  0  0  0  0  0  0  0  0  0  0
    9.0090  -16.8350   23.4779 C   0  0  2  0  0  0  0  0  0  0  0  0
    8.1909  -15.6759   23.8077 N   0  0  0  0  0  0  0  0  0  0  0  0
   10.1410  -16.8841   24.3937 C   0  0  0  0  0  0  0  0  0  0  0  0
   10.3709  -15.9293   25.1843 O   0  0  0  0  0  0  0  0  0  0  0  0
   11.9461  -18.6233   28.7901 N   0  0  0  0  0  0  0  0  0  0  0  0
   11.0745  -19.3333   27.9225 C   0  0  0  0  0  0  0  0  0  0  0  0
   10.7521  -20.5151   28.2050 O   0  0  0  0  0  0  0  0  0  0  0  0
   10.5226  -18.7340   26.6852 C   0  0  0  0  0  0  0  0  0  0  0  0
   11.6526  -18.3742   25.7281 C   0  0  2  0  0  0  0  0  0  0  0  0
   11.0583  -17.9765   24.4753 N   0  0  0  0  0  0  0  0  0  0  0  0
   12.5725  -19.5210   25.5757 C   0  0  0  0  0  0  0  0  0  0  0  0
   13.5940  -19.6201   26.3026 O   0  0  0  0  0  0  0  0  0  0  0  0
   12.3506  -20.5180   24.6401 O   0  0  0  0  0  0  0  0  0  0  0  0
  2  1  1  6
  2  3  1  0
  4  2  1  0
  4  5  1  0
  5  6  1  1
  5  7  1  0
  7  8  2  0
 10  9  1  6
 11 10  1  0
 12 10  1  0
 13  7  1  0
 12 13  1  1
 14 12  1  0
 14 15  2  0
 16 17  1  0
 17 18  2  0
 17 19  1  0
 20 19  1  1
 20 21  1  0
 21 14  1  0
 22 20  1  0
 22 24  1  0
 23 22  2  0
M  END
$$$$
