LTN.pdb
     RDKit          3D

 24 23  0  0  1  0  0  0  0  0999 V2000
    6.2545  -11.9326   25.0005 C   0  0  0  0  0  0  0  0  0  0  0  0
    6.3197  -12.6215   26.3513 C   0  0  2  0  0  0  0  0  0  0  0  0
    6.8487  -11.6458   27.3514 C   0  0  0  0  0  0  0  0  0  0  0  0
    7.2363  -13.8350   26.2522 C   0  0  0  0  0  0  0  0  0  0  0  0
    6.6558  -14.7925   25.2306 C   0  0  2  0  0  0  0  0  0  0  0  0
    5.4104  -15.3172   25.7195 N   0  0  0  0  0  0  0  0  0  0  0  0
    7.6224  -15.8407   24.8595 C   0  0  0  0  0  0  0  0  0  0  0  0
    7.7760  -16.8081   25.6469 O   0  0  0  0  0  0  0  0  0  0  0  0
    8.4584  -16.8609   20.9733 C   0  0  0  0  0  0  0  0  0  0  0  0
    9.6804  -16.8887   21.8679 C   0  0  1  0  0  0  0  0  0  0  0  0
   10.3842  -15.7024   21.6545 O   0  0  0  0  0  0  0  0  0  0  0  0
    9.3028  -16.9305   23.3275 C   0  0  2  0  0  0  0  0  0  0  0  0
    8.4009  -15.8379   23.6655 N   0  0  0  0  0  0  0  0  0  0  0  0
   10.4427  -16.8933   24.2340 C   0  0  0  0  0  0  0  0  0  0  0  0
   10.5786  -15.9492   25.0584 O   0  0  0  0  0  0  0  0  0  0  0  0
   11.6041  -20.5016   28.2232 N   0  0  0  0  0  0  0  0  0  0  0  0
   11.7983  -19.1862   27.7245 C   0  0  0  0  0  0  0  0  0  0  0  0
   12.5665  -18.4022   28.3374 O   0  0  0  0  0  0  0  0  0  0  0  0
   11.1272  -18.6933   26.4993 C   0  0  0  0  0  0  0  0  0  0  0  0
   12.1641  -18.2137   25.4907 C   0  0  2  0  0  0  0  0  0  0  0  0
   11.4707  -17.8850   24.2693 N   0  0  0  0  0  0  0  0  0  0  0  0
   13.1951  -19.2537   25.2902 C   0  0  0  0  0  0  0  0  0  0  0  0
   13.8997  -19.6474   26.2546 O   0  0  0  0  0  0  0  0  0  0  0  0
   13.4241  -19.8280   24.0507 O   0  0  0  0  0  0  0  0  0  0  0  0
  2  1  1  6
  2  3  1  0
  4  2  1  0
  4  5  1  0
  5  6  1  1
  5  7  1  0
  7  8  2  0
 10  9  1  6
 11 10  1  0
 12 10  1  0
 13  7  1  0
 12 13  1  1
 14 12  1  0
 14 15  2  0
 16 17  1  0
 17 18  2  0
 17 19  1  0
 20 19  1  1
 20 21  1  0
 21 14  1  0
 22 20  1  0
 22 24  1  0
 23 22  2  0
M  END
$$$$
