LTN.pdb
     RDKit          3D

 24 23  0  0  1  0  0  0  0  0999 V2000
    7.8936  -11.9610   25.1856 C   0  0  0  0  0  0  0  0  0  0  0  0
    6.5879  -12.5862   25.6411 C   0  0  2  0  0  0  0  0  0  0  0  0
    6.1753  -11.9335   26.9200 C   0  0  0  0  0  0  0  0  0  0  0  0
    6.7925  -14.0823   25.8464 C   0  0  0  0  0  0  0  0  0  0  0  0
    7.3823  -14.6646   24.5772 C   0  0  2  0  0  0  0  0  0  0  0  0
    6.5106  -14.3814   23.4703 N   0  0  0  0  0  0  0  0  0  0  0  0
    7.6834  -16.0989   24.7278 C   0  0  0  0  0  0  0  0  0  0  0  0
    6.9654  -16.7746   25.5071 O   0  0  0  0  0  0  0  0  0  0  0  0
    8.2286  -18.7972   21.9482 C   0  0  0  0  0  0  0  0  0  0  0  0
    9.3581  -18.8747   22.9545 C   0  0  1  0  0  0  0  0  0  0  0  0
   10.4469  -18.1860   22.4175 O   0  0  0  0  0  0  0  0  0  0  0  0
    8.9957  -18.1992   24.2534 C   0  0  2  0  0  0  0  0  0  0  0  0
    8.7359  -16.7805   24.0500 N   0  0  0  0  0  0  0  0  0  0  0  0
   10.0024  -18.3453   25.2964 C   0  0  0  0  0  0  0  0  0  0  0  0
   10.8108  -17.4106   25.5459 O   0  0  0  0  0  0  0  0  0  0  0  0
    8.2958  -19.8310   28.8718 N   0  0  0  0  0  0  0  0  0  0  0  0
    9.6896  -19.5769   28.9693 C   0  0  0  0  0  0  0  0  0  0  0  0
   10.0935  -18.6217   29.6798 O   0  0  0  0  0  0  0  0  0  0  0  0
   10.6990  -20.3987   28.2618 C   0  0  0  0  0  0  0  0  0  0  0  0
   11.2353  -19.6430   27.0520 C   0  0  2  0  0  0  0  0  0  0  0  0
   10.1592  -19.5164   26.0998 N   0  0  0  0  0  0  0  0  0  0  0  0
   12.4043  -20.3511   26.4893 C   0  0  0  0  0  0  0  0  0  0  0  0
   13.4324  -20.5406   27.1885 O   0  0  0  0  0  0  0  0  0  0  0  0
   12.4153  -20.8273   25.1887 O   0  0  0  0  0  0  0  0  0  0  0  0
  2  1  1  1
  2  3  1  0
  4  2  1  0
  4  5  1  0
  5  6  1  6
  5  7  1  0
  7  8  2  0
 10  9  1  6
 11 10  1  0
 12 10  1  0
 13  7  1  0
 12 13  1  6
 14 12  1  0
 14 15  2  0
 16 17  1  0
 17 18  2  0
 17 19  1  0
 20 19  1  1
 20 21  1  0
 21 14  1  0
 22 20  1  0
 22 24  1  0
 23 22  2  0
M  END
$$$$
