LTN.pdb
     RDKit          3D

 24 23  0  0  1  0  0  0  0  0999 V2000
    8.7298  -12.7069   19.1321 C   0  0  0  0  0  0  0  0  0  0  0  0
    7.6338  -13.1040   20.1040 C   0  0  2  0  0  0  0  0  0  0  0  0
    7.3406  -11.9339   20.9853 C   0  0  0  0  0  0  0  0  0  0  0  0
    8.1046  -14.2928   20.9331 C   0  0  0  0  0  0  0  0  0  0  0  0
    8.3358  -15.4660   20.0016 C   0  0  2  0  0  0  0  0  0  0  0  0
    7.1316  -15.7379   19.2659 N   0  0  0  0  0  0  0  0  0  0  0  0
    8.8517  -16.6403   20.7265 C   0  0  0  0  0  0  0  0  0  0  0  0
    8.0305  -17.5225   21.0824 O   0  0  0  0  0  0  0  0  0  0  0  0
   11.5796  -18.7973   19.3630 C   0  0  0  0  0  0  0  0  0  0  0  0
   11.8962  -18.6173   20.8333 C   0  0  1  0  0  0  0  0  0  0  0  0
   12.8954  -17.6478   20.9322 O   0  0  0  0  0  0  0  0  0  0  0  0
   10.7021  -18.1118   21.6036 C   0  0  2  0  0  0  0  0  0  0  0  0
   10.2226  -16.8503   21.0557 N   0  0  0  0  0  0  0  0  0  0  0  0
   10.9484  -17.9390   23.0291 C   0  0  0  0  0  0  0  0  0  0  0  0
   11.2778  -16.8141   23.4934 O   0  0  0  0  0  0  0  0  0  0  0  0
   11.9723  -18.9037   28.0430 N   0  0  0  0  0  0  0  0  0  0  0  0
   10.9269  -19.7639   27.6144 C   0  0  0  0  0  0  0  0  0  0  0  0
   10.3906  -20.5423   28.4433 O   0  0  0  0  0  0  0  0  0  0  0  0
   10.4356  -19.7832   26.2170 C   0  0  0  0  0  0  0  0  0  0  0  0
   11.2254  -18.7924   25.3702 C   0  0  2  0  0  0  0  0  0  0  0  0
   10.8437  -18.9884   23.9930 N   0  0  0  0  0  0  0  0  0  0  0  0
   12.6751  -18.9843   25.5853 C   0  0  0  0  0  0  0  0  0  0  0  0
   13.3701  -19.5982   24.7357 O   0  0  0  0  0  0  0  0  0  0  0  0
   13.3175  -18.5036   26.7143 O   0  0  0  0  0  0  0  0  0  0  0  0
  2  1  1  6
  2  3  1  0
  4  2  1  0
  4  5  1  0
  5  6  1  1
  5  7  1  0
  7  8  2  0
 10  9  1  6
 11 10  1  0
 12 10  1  0
 13  7  1  0
 12 13  1  6
 14 12  1  0
 14 15  2  0
 16 17  1  0
 17 18  2  0
 17 19  1  0
 20 19  1  1
 20 21  1  0
 21 14  1  0
 22 20  1  0
 22 24  1  0
 23 22  2  0
M  END
$$$$
