LTN.pdb
     RDKit          3D

 24 23  0  0  1  0  0  0  0  0999 V2000
    5.7477  -12.2154   24.4356 C   0  0  0  0  0  0  0  0  0  0  0  0
    6.0218  -12.7177   25.8413 C   0  0  2  0  0  0  0  0  0  0  0  0
    6.4127  -11.5516   26.6892 C   0  0  0  0  0  0  0  0  0  0  0  0
    7.1455  -13.7463   25.7964 C   0  0  0  0  0  0  0  0  0  0  0  0
    6.6799  -14.9298   24.9717 C   0  0  2  0  0  0  0  0  0  0  0  0
    5.5471  -15.5422   25.6097 N   0  0  0  0  0  0  0  0  0  0  0  0
    7.7801  -15.8741   24.7095 C   0  0  0  0  0  0  0  0  0  0  0  0
    7.8675  -16.8956   25.4363 O   0  0  0  0  0  0  0  0  0  0  0  0
   11.4780  -17.5748   21.8129 C   0  0  0  0  0  0  0  0  0  0  0  0
   10.4044  -16.5400   22.0795 C   0  0  1  0  0  0  0  0  0  0  0  0
    9.3802  -16.7496   21.1547 O   0  0  0  0  0  0  0  0  0  0  0  0
    9.8066  -16.6977   23.4552 C   0  0  2  0  0  0  0  0  0  0  0  0
    8.7585  -15.7128   23.6856 N   0  0  0  0  0  0  0  0  0  0  0  0
   10.7792  -16.6069   24.5360 C   0  0  0  0  0  0  0  0  0  0  0  0
   11.2692  -15.4940   24.8690 O   0  0  0  0  0  0  0  0  0  0  0  0
   11.5610  -16.0547   29.5664 N   0  0  0  0  0  0  0  0  0  0  0  0
   10.9300  -17.1591   28.9348 C   0  0  0  0  0  0  0  0  0  0  0  0
   10.6819  -18.1931   29.6054 O   0  0  0  0  0  0  0  0  0  0  0  0
   10.5472  -17.1443   27.5038 C   0  0  0  0  0  0  0  0  0  0  0  0
   11.7238  -17.5861   26.6419 C   0  0  2  0  0  0  0  0  0  0  0  0
   11.2484  -17.7279   25.2875 N   0  0  0  0  0  0  0  0  0  0  0  0
   12.2971  -18.8413   27.1716 C   0  0  0  0  0  0  0  0  0  0  0  0
   11.9338  -19.9531   26.7095 O   0  0  0  0  0  0  0  0  0  0  0  0
   13.2431  -18.8442   28.1833 O   0  0  0  0  0  0  0  0  0  0  0  0
  2  1  1  6
  2  3  1  0
  4  2  1  0
  4  5  1  0
  5  6  1  1
  5  7  1  0
  7  8  2  0
 10  9  1  6
 11 10  1  0
 12 10  1  0
 13  7  1  0
 12 13  1  1
 14 12  1  0
 14 15  2  0
 16 17  1  0
 17 18  2  0
 17 19  1  0
 20 19  1  1
 20 21  1  0
 21 14  1  0
 22 20  1  0
 22 24  1  0
 23 22  2  0
M  END
$$$$
