LTN.pdb
     RDKit          3D

 24 23  0  0  1  0  0  0  0  0999 V2000
    9.8841  -12.6600   19.4516 C   0  0  0  0  0  0  0  0  0  0  0  0
    8.5185  -13.2457   19.1424 C   0  0  2  0  0  0  0  0  0  0  0  0
    7.5148  -12.1396   19.1728 C   0  0  0  0  0  0  0  0  0  0  0  0
    8.1788  -14.3043   20.1848 C   0  0  0  0  0  0  0  0  0  0  0  0
    9.2346  -15.3904   20.1273 C   0  0  2  0  0  0  0  0  0  0  0  0
    9.0738  -16.1512   18.9188 N   0  0  0  0  0  0  0  0  0  0  0  0
    9.2236  -16.2220   21.3435 C   0  0  0  0  0  0  0  0  0  0  0  0
    8.2290  -16.9639   21.5427 O   0  0  0  0  0  0  0  0  0  0  0  0
   10.2715  -19.1497   21.9914 C   0  0  0  0  0  0  0  0  0  0  0  0
   10.9058  -18.4444   23.1724 C   0  0  1  0  0  0  0  0  0  0  0  0
   12.2276  -18.1560   22.8289 O   0  0  0  0  0  0  0  0  0  0  0  0
   10.2232  -17.1332   23.4717 C   0  0  2  0  0  0  0  0  0  0  0  0
   10.2648  -16.2467   22.3167 N   0  0  0  0  0  0  0  0  0  0  0  0
   10.7747  -16.4289   24.6217 C   0  0  0  0  0  0  0  0  0  0  0  0
   11.1476  -15.2287   24.5230 O   0  0  0  0  0  0  0  0  0  0  0  0
   10.3247  -13.1926   28.4754 N   0  0  0  0  0  0  0  0  0  0  0  0
    9.9116  -14.5512   28.4944 C   0  0  0  0  0  0  0  0  0  0  0  0
    9.6051  -15.0867   29.5898 O   0  0  0  0  0  0  0  0  0  0  0  0
    9.8252  -15.3732   27.2650 C   0  0  0  0  0  0  0  0  0  0  0  0
   11.0938  -16.2010   27.0980 C   0  0  2  0  0  0  0  0  0  0  0  0
   10.9372  -17.0125   25.9157 N   0  0  0  0  0  0  0  0  0  0  0  0
   11.3329  -17.0125   28.3100 C   0  0  0  0  0  0  0  0  0  0  0  0
   12.0374  -16.5629   29.2498 O   0  0  0  0  0  0  0  0  0  0  0  0
   10.7993  -18.2821   28.4578 O   0  0  0  0  0  0  0  0  0  0  0  0
  2  1  1  1
  2  3  1  0
  4  2  1  0
  4  5  1  0
  5  6  1  6
  5  7  1  0
  7  8  2  0
 10  9  1  6
 11 10  1  0
 12 10  1  0
 13  7  1  0
 12 13  1  6
 14 12  1  0
 14 15  2  0
 16 17  1  0
 17 18  2  0
 17 19  1  0
 20 19  1  1
 20 21  1  0
 21 14  1  0
 22 20  1  0
 22 24  1  0
 23 22  2  0
M  END
$$$$
