STL.pdb
     RDKit          3D

 22 21  0  0  1  0  0  0  0  0999 V2000
   19.7469  -21.0193  -13.8170 O   0  0  0  0  0  0  0  0  0  0  0  0
   20.3248  -19.8659  -14.3065 C   0  0  0  0  0  0  0  0  0  0  0  0
   21.7279  -20.0683  -14.8347 C   0  0  2  0  0  0  0  0  0  0  0  0
   22.4087  -20.9313  -13.9046 N   0  0  0  0  0  0  0  0  0  0  0  0
   22.4558  -18.7968  -15.0119 C   0  0  0  0  0  0  0  0  0  0  0  0
   22.0572  -17.7891  -14.3788 O   0  0  0  0  0  0  0  0  0  0  0  0
   26.4323  -16.2871  -16.5373 C   0  0  0  0  0  0  0  0  0  0  0  0
   25.6919  -17.6042  -16.5239 C   0  0  1  0  0  0  0  0  0  0  0  0
   26.3946  -18.5099  -15.7578 O   0  0  0  0  0  0  0  0  0  0  0  0
   24.2776  -17.3897  -16.0093 C   0  0  2  0  0  0  0  0  0  0  0  0
   23.5813  -18.6506  -15.8585 N   0  0  0  0  0  0  0  0  0  0  0  0
   23.5196  -16.4654  -16.8883 C   0  0  0  0  0  0  0  0  0  0  0  0
   22.5719  -16.8998  -17.5857 O   0  0  0  0  0  0  0  0  0  0  0  0
   20.2317  -13.5464  -19.2701 C   0  0  0  0  0  0  0  0  0  0  0  0
   20.6476  -13.2117  -17.8896 C   0  0  2  0  0  0  0  0  0  0  0  0
   21.0008  -11.7164  -17.8036 C   0  0  0  0  0  0  0  0  0  0  0  0
   21.6703  -14.0380  -17.2188 C   0  0  0  0  0  0  0  0  0  0  0  0
   23.0055  -14.1523  -17.8030 C   0  0  2  0  0  0  0  0  0  0  0  0
   23.8272  -15.0875  -16.9741 N   0  0  0  0  0  0  0  0  0  0  0  0
   23.8208  -12.9734  -18.0821 C   0  0  0  0  0  0  0  0  0  0  0  0
   24.7357  -12.4861  -17.3835 O   0  0  0  0  0  0  0  0  0  0  0  0
   23.6032  -12.2336  -19.2836 O   0  0  0  0  0  0  0  0  0  0  0  0
  1  2  1  0
  3  2  1  0
  3  4  1  1
  5  3  1  0
  5 11  1  0
  6  5  2  0
  8  7  1  1
  9  8  1  0
 10 11  1  6
 10  8  1  0
 12 10  1  0
 12 19  1  0
 13 12  2  0
 15 16  1  6
 15 14  1  0
 17 15  1  0
 18 19  1  0
 18 17  1  1
 20 18  1  0
 21 20  2  0
 22 20  1  0
M  END
$$$$
