STL.pdb
     RDKit          3D

 22 21  0  0  1  0  0  0  0  0999 V2000
   15.0749  -13.6815  -15.0260 O   0  0  0  0  0  0  0  0  0  0  0  0
   16.1130  -12.8383  -15.3653 C   0  0  0  0  0  0  0  0  0  0  0  0
   16.8498  -13.2580  -16.6181 C   0  0  2  0  0  0  0  0  0  0  0  0
   17.5372  -14.4858  -16.3123 N   0  0  0  0  0  0  0  0  0  0  0  0
   17.7905  -12.2259  -17.0952 C   0  0  0  0  0  0  0  0  0  0  0  0
   18.7848  -12.5915  -17.7681 O   0  0  0  0  0  0  0  0  0  0  0  0
   17.3186   -9.5928  -19.5156 C   0  0  0  0  0  0  0  0  0  0  0  0
   17.7991   -8.8721  -18.2775 C   0  0  1  0  0  0  0  0  0  0  0  0
   16.7207   -8.2880  -17.6475 O   0  0  0  0  0  0  0  0  0  0  0  0
   18.5359   -9.8466  -17.3729 C   0  0  2  0  0  0  0  0  0  0  0  0
   17.6329  -10.8429  -16.8352 N   0  0  0  0  0  0  0  0  0  0  0  0
   19.2516   -9.1352  -16.2851 C   0  0  0  0  0  0  0  0  0  0  0  0
   18.6725   -8.9124  -15.1950 O   0  0  0  0  0  0  0  0  0  0  0  0
   22.4755  -10.2638  -13.5187 C   0  0  0  0  0  0  0  0  0  0  0  0
   23.0113   -9.7950  -14.8163 C   0  0  2  0  0  0  0  0  0  0  0  0
   24.5258  -10.0605  -14.8773 C   0  0  0  0  0  0  0  0  0  0  0  0
   22.6922   -8.4318  -15.2840 C   0  0  0  0  0  0  0  0  0  0  0  0
   21.3004   -7.9861  -15.3187 C   0  0  2  0  0  0  0  0  0  0  0  0
   20.5860   -8.6888  -16.4291 N   0  0  0  0  0  0  0  0  0  0  0  0
   20.9532   -6.5697  -15.3938 C   0  0  0  0  0  0  0  0  0  0  0  0
   21.0469   -5.7047  -14.4964 O   0  0  0  0  0  0  0  0  0  0  0  0
   20.4359   -6.0338  -16.6118 O   0  0  0  0  0  0  0  0  0  0  0  0
  1  2  1  0
  3  2  1  0
  3  4  1  1
  5  3  1  0
  5 11  1  0
  6  5  2  0
  8  7  1  6
  9  8  1  0
 10 11  1  1
 10  8  1  0
 12 10  1  0
 12 19  1  0
 13 12  2  0
 15 16  1  1
 15 14  1  0
 17 15  1  0
 18 19  1  0
 18 17  1  6
 20 18  1  0
 21 20  2  0
 22 20  1  0
M  END
$$$$
