STL.pdb
     RDKit          3D

 22 21  0  0  1  0  0  0  0  0999 V2000
   16.7832  -12.6915  -14.3634 O   0  0  0  0  0  0  0  0  0  0  0  0
   16.3742  -13.5217  -15.3867 C   0  0  0  0  0  0  0  0  0  0  0  0
   16.0358  -12.7864  -16.6648 C   0  0  2  0  0  0  0  0  0  0  0  0
   15.6043  -13.7749  -17.6189 N   0  0  0  0  0  0  0  0  0  0  0  0
   17.1729  -12.0036  -17.1865 C   0  0  0  0  0  0  0  0  0  0  0  0
   18.1411  -12.6231  -17.6905 O   0  0  0  0  0  0  0  0  0  0  0  0
   17.6903   -9.6133  -19.9508 C   0  0  0  0  0  0  0  0  0  0  0  0
   18.0393   -8.8634  -18.6864 C   0  0  1  0  0  0  0  0  0  0  0  0
   16.9802   -8.0540  -18.3340 O   0  0  0  0  0  0  0  0  0  0  0  0
   18.3985   -9.8520  -17.5889 C   0  0  2  0  0  0  0  0  0  0  0  0
   17.2321  -10.5894  -17.1497 N   0  0  0  0  0  0  0  0  0  0  0  0
   19.0588   -9.1721  -16.4472 C   0  0  0  0  0  0  0  0  0  0  0  0
   18.4015   -8.9014  -15.4138 O   0  0  0  0  0  0  0  0  0  0  0  0
   22.1532  -10.5542  -13.5726 C   0  0  0  0  0  0  0  0  0  0  0  0
   22.7547  -10.0191  -14.8146 C   0  0  2  0  0  0  0  0  0  0  0  0
   24.2674  -10.3017  -14.8207 C   0  0  0  0  0  0  0  0  0  0  0  0
   22.4733   -8.6270  -15.2166 C   0  0  0  0  0  0  0  0  0  0  0  0
   21.0892   -8.1641  -15.3014 C   0  0  2  0  0  0  0  0  0  0  0  0
   20.4256   -8.8094  -16.4763 N   0  0  0  0  0  0  0  0  0  0  0  0
   20.7596   -6.7419  -15.3312 C   0  0  0  0  0  0  0  0  0  0  0  0
   20.4411   -6.0451  -16.3189 O   0  0  0  0  0  0  0  0  0  0  0  0
   20.7830   -5.9868  -14.1198 O   0  0  0  0  0  0  0  0  0  0  0  0
  1  2  1  0
  3  2  1  0
  3  4  1  6
  5  3  1  0
  5 11  1  0
  6  5  2  0
  8  7  1  6
  9  8  1  0
 10 11  1  1
 10  8  1  0
 12 10  1  0
 12 19  1  0
 13 12  2  0
 15 16  1  1
 15 14  1  0
 17 15  1  0
 18 19  1  0
 18 17  1  6
 20 18  1  0
 21 20  2  0
 22 20  1  0
M  END
$$$$
