STL.pdb
     RDKit          3D

 22 21  0  0  1  0  0  0  0  0999 V2000
   15.8637  -15.0349  -14.3516 O   0  0  0  0  0  0  0  0  0  0  0  0
   15.7096  -13.6668  -14.2583 C   0  0  0  0  0  0  0  0  0  0  0  0
   15.2825  -13.0155  -15.5552 C   0  0  2  0  0  0  0  0  0  0  0  0
   15.2133  -14.0565  -16.5477 N   0  0  0  0  0  0  0  0  0  0  0  0
   16.1984  -11.9380  -15.9769 C   0  0  0  0  0  0  0  0  0  0  0  0
   17.1304  -12.2238  -16.7675 O   0  0  0  0  0  0  0  0  0  0  0  0
   15.0913   -8.2062  -16.8371 C   0  0  0  0  0  0  0  0  0  0  0  0
   16.3121   -8.1940  -15.9469 C   0  0  1  0  0  0  0  0  0  0  0  0
   15.9369   -7.8330  -14.6702 O   0  0  0  0  0  0  0  0  0  0  0  0
   16.9860   -9.5561  -15.9856 C   0  0  2  0  0  0  0  0  0  0  0  0
   16.0836  -10.5966  -15.5380 N   0  0  0  0  0  0  0  0  0  0  0  0
   18.2383   -9.5597  -15.1897 C   0  0  0  0  0  0  0  0  0  0  0  0
   18.2436  -10.0420  -14.0319 O   0  0  0  0  0  0  0  0  0  0  0  0
   23.8523   -9.2217  -14.7519 C   0  0  0  0  0  0  0  0  0  0  0  0
   22.8678  -10.3206  -14.6351 C   0  0  2  0  0  0  0  0  0  0  0  0
   23.5182  -11.6464  -15.0677 C   0  0  0  0  0  0  0  0  0  0  0  0
   21.5298  -10.1641  -15.2385 C   0  0  0  0  0  0  0  0  0  0  0  0
   20.6993   -9.0189  -14.8697 C   0  0  2  0  0  0  0  0  0  0  0  0
   19.4502   -9.0314  -15.6923 N   0  0  0  0  0  0  0  0  0  0  0  0
   21.2261   -7.6570  -14.8833 C   0  0  0  0  0  0  0  0  0  0  0  0
   21.1507   -6.8106  -15.8000 O   0  0  0  0  0  0  0  0  0  0  0  0
   21.9269   -7.1603  -13.7429 O   0  0  0  0  0  0  0  0  0  0  0  0
  1  2  1  0
  3  2  1  0
  3  4  1  6
  5  3  1  0
  5 11  1  0
  6  5  2  0
  8  7  1  6
  9  8  1  0
 10 11  1  1
 10  8  1  0
 12 10  1  0
 12 19  1  0
 13 12  2  0
 15 16  1  6
 15 14  1  0
 17 15  1  0
 18 19  1  0
 18 17  1  6
 20 18  1  0
 21 20  2  0
 22 20  1  0
M  END
$$$$
