STL.pdb
     RDKit          3D

 22 21  0  0  1  0  0  0  0  0999 V2000
   13.2535  -19.8524   -6.5587 O   0  0  0  0  0  0  0  0  0  0  0  0
   13.1163  -20.3985   -5.2989 C   0  0  0  0  0  0  0  0  0  0  0  0
   13.2812  -21.9020   -5.2692 C   0  0  2  0  0  0  0  0  0  0  0  0
   12.2131  -22.4595   -6.0577 N   0  0  0  0  0  0  0  0  0  0  0  0
   13.2705  -22.4463   -3.8975 C   0  0  0  0  0  0  0  0  0  0  0  0
   12.1638  -22.5951   -3.3245 O   0  0  0  0  0  0  0  0  0  0  0  0
   14.6319  -25.7909   -2.9736 C   0  0  0  0  0  0  0  0  0  0  0  0
   15.2574  -24.7998   -2.0199 C   0  0  1  0  0  0  0  0  0  0  0  0
   16.5437  -24.5248   -2.4334 O   0  0  0  0  0  0  0  0  0  0  0  0
   14.3965  -23.5491   -1.9458 C   0  0  2  0  0  0  0  0  0  0  0  0
   14.4420  -22.8109   -3.1908 N   0  0  0  0  0  0  0  0  0  0  0  0
   14.7933  -22.6897   -0.8031 C   0  0  0  0  0  0  0  0  0  0  0  0
   15.6258  -21.7670   -0.9724 O   0  0  0  0  0  0  0  0  0  0  0  0
   13.6459  -19.0290    1.5786 C   0  0  0  0  0  0  0  0  0  0  0  0
   12.8464  -20.2600    1.7683 C   0  0  2  0  0  0  0  0  0  0  0  0
   11.5634  -19.9285    2.5506 C   0  0  0  0  0  0  0  0  0  0  0  0
   13.4959  -21.4727    2.3035 C   0  0  0  0  0  0  0  0  0  0  0  0
   14.6838  -22.0091    1.6415 C   0  0  2  0  0  0  0  0  0  0  0  0
   14.2613  -22.8713    0.4948 N   0  0  0  0  0  0  0  0  0  0  0  0
   15.7121  -22.7318    2.3850 C   0  0  0  0  0  0  0  0  0  0  0  0
   15.9940  -23.9482    2.3264 O   0  0  0  0  0  0  0  0  0  0  0  0
   16.5374  -22.0280    3.3134 O   0  0  0  0  0  0  0  0  0  0  0  0
  1  2  1  0
  3  2  1  0
  3  4  1  6
  5  3  1  0
  5 11  1  0
  6  5  2  0
  8  7  1  6
  9  8  1  0
 10 11  1  6
 10  8  1  0
 12 10  1  0
 12 19  1  0
 13 12  2  0
 15 16  1  1
 15 14  1  0
 17 15  1  0
 18 19  1  0
 18 17  1  1
 20 18  1  0
 21 20  2  0
 22 20  1  0
M  END
$$$$
