STL.pdb
     RDKit          3D

 22 21  0  0  1  0  0  0  0  0999 V2000
   16.5324  -15.3585  -17.8482 O   0  0  0  0  0  0  0  0  0  0  0  0
   17.3828  -14.2788  -17.7261 C   0  0  0  0  0  0  0  0  0  0  0  0
   17.5511  -13.4922  -19.0073 C   0  0  2  0  0  0  0  0  0  0  0  0
   18.2350  -14.3483  -19.9415 N   0  0  0  0  0  0  0  0  0  0  0  0
   18.2875  -12.2295  -18.8046 C   0  0  0  0  0  0  0  0  0  0  0  0
   19.5385  -12.2775  -18.7148 O   0  0  0  0  0  0  0  0  0  0  0  0
   16.3325   -8.4789  -18.1081 C   0  0  0  0  0  0  0  0  0  0  0  0
   17.5644   -8.5338  -18.9813 C   0  0  1  0  0  0  0  0  0  0  0  0
   18.2541   -7.3456  -18.8650 O   0  0  0  0  0  0  0  0  0  0  0  0
   18.4135   -9.7330  -18.5917 C   0  0  2  0  0  0  0  0  0  0  0  0
   17.6596  -10.9643  -18.7058 N   0  0  0  0  0  0  0  0  0  0  0  0
   18.9720   -9.5760  -17.2260 C   0  0  0  0  0  0  0  0  0  0  0  0
   18.3275   -9.9921  -16.2337 O   0  0  0  0  0  0  0  0  0  0  0  0
   21.9941  -10.0742  -12.9343 C   0  0  0  0  0  0  0  0  0  0  0  0
   22.6716   -9.9158  -14.2406 C   0  0  2  0  0  0  0  0  0  0  0  0
   23.6480   -8.7281  -14.1767 C   0  0  0  0  0  0  0  0  0  0  0  0
   21.8656   -9.8742  -15.4765 C   0  0  0  0  0  0  0  0  0  0  0  0
   20.8082   -8.8746  -15.6174 C   0  0  2  0  0  0  0  0  0  0  0  0
   20.2257   -8.9646  -16.9920 N   0  0  0  0  0  0  0  0  0  0  0  0
   21.0473   -7.4634  -15.3280 C   0  0  0  0  0  0  0  0  0  0  0  0
   21.3306   -6.5492  -16.1319 O   0  0  0  0  0  0  0  0  0  0  0  0
   20.9652   -6.9956  -13.9817 O   0  0  0  0  0  0  0  0  0  0  0  0
  1  2  1  0
  3  2  1  0
  3  4  1  6
  5  3  1  0
  5 11  1  0
  6  5  2  0
  8  7  1  1
  9  8  1  0
 10 11  1  1
 10  8  1  0
 12 10  1  0
 12 19  1  0
 13 12  2  0
 15 16  1  1
 15 14  1  0
 17 15  1  0
 18 19  1  0
 18 17  1  6
 20 18  1  0
 21 20  2  0
 22 20  1  0
M  END
$$$$
