STL.pdb
     RDKit          3D

 22 21  0  0  1  0  0  0  0  0999 V2000
   17.7975  -16.9109  -13.4188 O   0  0  0  0  0  0  0  0  0  0  0  0
   18.3588  -15.8513  -14.1015 C   0  0  0  0  0  0  0  0  0  0  0  0
   17.5279  -15.3772  -15.2734 C   0  0  2  0  0  0  0  0  0  0  0  0
   17.4128  -16.4858  -16.1852 N   0  0  0  0  0  0  0  0  0  0  0  0
   18.1106  -14.1971  -15.9410 C   0  0  0  0  0  0  0  0  0  0  0  0
   19.0303  -14.3786  -16.7755 O   0  0  0  0  0  0  0  0  0  0  0  0
   16.4939  -11.6626  -18.1362 C   0  0  0  0  0  0  0  0  0  0  0  0
   17.1609  -10.8852  -17.0254 C   0  0  1  0  0  0  0  0  0  0  0  0
   16.2059  -10.4947  -16.1107 O   0  0  0  0  0  0  0  0  0  0  0  0
   18.2520  -11.7334  -16.3922 C   0  0  2  0  0  0  0  0  0  0  0  0
   17.6886  -12.8688  -15.6916 N   0  0  0  0  0  0  0  0  0  0  0  0
   19.1080  -10.9235  -15.4906 C   0  0  0  0  0  0  0  0  0  0  0  0
   18.8369  -10.8497  -14.2682 O   0  0  0  0  0  0  0  0  0  0  0  0
   23.3120  -11.3885  -13.8719 C   0  0  0  0  0  0  0  0  0  0  0  0
   23.2256  -10.8321  -15.2407 C   0  0  2  0  0  0  0  0  0  0  0  0
   24.6281  -10.7922  -15.8728 C   0  0  0  0  0  0  0  0  0  0  0  0
   22.5062   -9.5629  -15.4647 C   0  0  0  0  0  0  0  0  0  0  0  0
   21.1147   -9.4344  -15.0353 C   0  0  2  0  0  0  0  0  0  0  0  0
   20.2394  -10.2173  -15.9615 N   0  0  0  0  0  0  0  0  0  0  0  0
   20.4940   -8.1277  -14.8363 C   0  0  0  0  0  0  0  0  0  0  0  0
   19.7783   -7.4849  -15.6344 O   0  0  0  0  0  0  0  0  0  0  0  0
   20.6840   -7.4372  -13.6012 O   0  0  0  0  0  0  0  0  0  0  0  0
  1  2  1  0
  3  2  1  0
  3  4  1  6
  5  3  1  0
  5 11  1  0
  6  5  2  0
  8  7  1  6
  9  8  1  0
 10 11  1  1
 10  8  1  0
 12 10  1  0
 12 19  1  0
 13 12  2  0
 15 16  1  1
 15 14  1  0
 17 15  1  0
 18 19  1  0
 18 17  1  6
 20 18  1  0
 21 20  2  0
 22 20  1  0
M  END
$$$$
