STL.pdb
     RDKit          3D

 22 21  0  0  1  0  0  0  0  0999 V2000
   12.3563  -11.7540  -14.4569 O   0  0  0  0  0  0  0  0  0  0  0  0
   13.6774  -11.4423  -14.7046 C   0  0  0  0  0  0  0  0  0  0  0  0
   14.2533  -12.1568  -15.9073 C   0  0  2  0  0  0  0  0  0  0  0  0
   14.3069  -13.5581  -15.5801 N   0  0  0  0  0  0  0  0  0  0  0  0
   15.5856  -11.6469  -16.2853 C   0  0  0  0  0  0  0  0  0  0  0  0
   16.5844  -12.3774  -16.0756 O   0  0  0  0  0  0  0  0  0  0  0  0
   16.2257   -9.5626  -19.6088 C   0  0  0  0  0  0  0  0  0  0  0  0
   16.9862   -8.9405  -18.4609 C   0  0  1  0  0  0  0  0  0  0  0  0
   16.3477   -7.7824  -18.0708 O   0  0  0  0  0  0  0  0  0  0  0  0
   17.1057   -9.9431  -17.3245 C   0  0  2  0  0  0  0  0  0  0  0  0
   15.7998  -10.3765  -16.8727 N   0  0  0  0  0  0  0  0  0  0  0  0
   17.9007   -9.3900  -16.2004 C   0  0  0  0  0  0  0  0  0  0  0  0
   17.3218   -8.9738  -15.1685 O   0  0  0  0  0  0  0  0  0  0  0  0
   22.9073   -7.9860  -13.9711 C   0  0  0  0  0  0  0  0  0  0  0  0
   22.2763   -9.3210  -13.8699 C   0  0  2  0  0  0  0  0  0  0  0  0
   23.3664  -10.4030  -13.7752 C   0  0  0  0  0  0  0  0  0  0  0  0
   21.2300   -9.7051  -14.8376 C   0  0  0  0  0  0  0  0  0  0  0  0
   20.1048   -8.8044  -15.0821 C   0  0  2  0  0  0  0  0  0  0  0  0
   19.3122   -9.3111  -16.2449 N   0  0  0  0  0  0  0  0  0  0  0  0
   20.3014   -7.3697  -15.2703 C   0  0  0  0  0  0  0  0  0  0  0  0
   20.3644   -6.4792  -14.3954 O   0  0  0  0  0  0  0  0  0  0  0  0
   20.4472   -6.8448  -16.5900 O   0  0  0  0  0  0  0  0  0  0  0  0
  1  2  1  0
  3  2  1  0
  3  4  1  1
  5  3  1  0
  5 11  1  0
  6  5  2  0
  8  7  1  6
  9  8  1  0
 10 11  1  1
 10  8  1  0
 12 10  1  0
 12 19  1  0
 13 12  2  0
 15 16  1  6
 15 14  1  0
 17 15  1  0
 18 19  1  0
 18 17  1  6
 20 18  1  0
 21 20  2  0
 22 20  1  0
M  END
$$$$
