STL.pdb
     RDKit          3D

 22 21  0  0  1  0  0  0  0  0999 V2000
   27.5099  -25.0836  -16.9612 O   0  0  0  0  0  0  0  0  0  0  0  0
   27.0183  -23.7969  -16.8799 C   0  0  0  0  0  0  0  0  0  0  0  0
   28.0973  -22.7372  -16.8432 C   0  0  2  0  0  0  0  0  0  0  0  0
   29.3633  -23.4227  -16.8723 N   0  0  0  0  0  0  0  0  0  0  0  0
   27.9926  -21.8624  -15.6594 C   0  0  0  0  0  0  0  0  0  0  0  0
   29.0480  -21.5413  -15.0608 O   0  0  0  0  0  0  0  0  0  0  0  0
   27.4497  -18.4932  -15.4769 C   0  0  0  0  0  0  0  0  0  0  0  0
   26.3345  -19.0195  -14.6036 C   0  0  1  0  0  0  0  0  0  0  0  0
   25.1608  -19.0301  -15.3270 O   0  0  0  0  0  0  0  0  0  0  0  0
   26.7020  -20.3993  -14.0822 C   0  0  2  0  0  0  0  0  0  0  0  0
   26.7647  -21.3640  -15.1604 N   0  0  0  0  0  0  0  0  0  0  0  0
   25.7602  -20.8436  -13.0252 C   0  0  0  0  0  0  0  0  0  0  0  0
   24.9954  -21.8152  -13.2354 O   0  0  0  0  0  0  0  0  0  0  0  0
   26.5786  -21.8911   -8.3699 C   0  0  0  0  0  0  0  0  0  0  0  0
   26.3911  -20.4849   -8.7920 C   0  0  2  0  0  0  0  0  0  0  0  0
   26.7553  -19.5430   -7.6310 C   0  0  0  0  0  0  0  0  0  0  0  0
   25.1207  -20.0801   -9.4254 C   0  0  0  0  0  0  0  0  0  0  0  0
   24.7340  -20.6635  -10.7087 C   0  0  2  0  0  0  0  0  0  0  0  0
   25.6875  -20.2043  -11.7656 N   0  0  0  0  0  0  0  0  0  0  0  0
   23.3808  -20.5173  -11.2378 C   0  0  0  0  0  0  0  0  0  0  0  0
   22.9927  -19.7778  -12.1678 O   0  0  0  0  0  0  0  0  0  0  0  0
   22.3158  -21.2818  -10.6724 O   0  0  0  0  0  0  0  0  0  0  0  0
  1  2  1  0
  3  2  1  0
  3  4  1  1
  5  3  1  0
  5 11  1  0
  6  5  2  0
  8  7  1  6
  9  8  1  0
 10 11  1  6
 10  8  1  0
 12 10  1  0
 12 19  1  0
 13 12  2  0
 15 16  1  1
 15 14  1  0
 17 15  1  0
 18 19  1  0
 18 17  1  1
 20 18  1  0
 21 20  2  0
 22 20  1  0
M  END
$$$$
