STL.pdb
     RDKit          3D

 22 21  0  0  1  0  0  0  0  0999 V2000
   14.8474   -4.2759   -8.2309 O   0  0  0  0  0  0  0  0  0  0  0  0
   15.6926   -5.2402   -8.7405 C   0  0  0  0  0  0  0  0  0  0  0  0
   15.1363   -6.6440   -8.6471 C   0  0  2  0  0  0  0  0  0  0  0  0
   15.0511   -6.9721   -7.2476 N   0  0  0  0  0  0  0  0  0  0  0  0
   15.9586   -7.6292   -9.3758 C   0  0  0  0  0  0  0  0  0  0  0  0
   16.9537   -8.1229   -8.7916 O   0  0  0  0  0  0  0  0  0  0  0  0
   14.6337  -10.7578  -11.2547 C   0  0  0  0  0  0  0  0  0  0  0  0
   15.5595   -9.9981  -12.1760 C   0  0  1  0  0  0  0  0  0  0  0  0
   14.8076   -9.3023  -13.0989 O   0  0  0  0  0  0  0  0  0  0  0  0
   16.4572   -9.0840  -11.3579 C   0  0  2  0  0  0  0  0  0  0  0  0
   15.6864   -8.0492  -10.7004 N   0  0  0  0  0  0  0  0  0  0  0  0
   17.5321   -8.4958  -12.1947 C   0  0  0  0  0  0  0  0  0  0  0  0
   17.3997   -7.3401  -12.6636 O   0  0  0  0  0  0  0  0  0  0  0  0
   23.3801   -9.8939  -13.8840 C   0  0  0  0  0  0  0  0  0  0  0  0
   22.2643   -8.9224  -13.8410 C   0  0  2  0  0  0  0  0  0  0  0  0
   22.8133   -7.5165  -13.5409 C   0  0  0  0  0  0  0  0  0  0  0  0
   21.0770   -9.2161  -13.0146 C   0  0  0  0  0  0  0  0  0  0  0  0
   19.7946   -8.5967  -13.3446 C   0  0  2  0  0  0  0  0  0  0  0  0
   18.7234   -9.1981  -12.4915 N   0  0  0  0  0  0  0  0  0  0  0  0
   19.2974   -8.5538  -14.7169 C   0  0  0  0  0  0  0  0  0  0  0  0
   18.7042   -9.4536  -15.3501 O   0  0  0  0  0  0  0  0  0  0  0  0
   19.4748   -7.3699  -15.4948 O   0  0  0  0  0  0  0  0  0  0  0  0
  1  2  1  0
  3  2  1  0
  3  4  1  1
  5  3  1  0
  5 11  1  0
  6  5  2  0
  8  7  1  1
  9  8  1  0
 10 11  1  6
 10  8  1  0
 12 10  1  0
 12 19  1  0
 13 12  2  0
 15 16  1  1
 15 14  1  0
 17 15  1  0
 18 19  1  0
 18 17  1  6
 20 18  1  0
 21 20  2  0
 22 20  1  0
M  END
$$$$
