STL.pdb
     RDKit          3D

 22 21  0  0  1  0  0  0  0  0999 V2000
   19.7449  -20.6403  -11.9926 O   0  0  0  0  0  0  0  0  0  0  0  0
   20.8163  -20.0722  -12.6508 C   0  0  0  0  0  0  0  0  0  0  0  0
   20.4780  -19.5677  -14.0363 C   0  0  2  0  0  0  0  0  0  0  0  0
   19.2900  -20.2624  -14.4601 N   0  0  0  0  0  0  0  0  0  0  0  0
   21.5812  -19.7650  -14.9964 C   0  0  0  0  0  0  0  0  0  0  0  0
   21.6652  -20.8684  -15.5886 O   0  0  0  0  0  0  0  0  0  0  0  0
   22.6424  -17.3143  -17.9150 C   0  0  0  0  0  0  0  0  0  0  0  0
   23.8322  -17.6616  -17.0509 C   0  0  1  0  0  0  0  0  0  0  0  0
   24.0892  -16.6132  -16.1931 O   0  0  0  0  0  0  0  0  0  0  0  0
   23.5624  -18.9603  -16.3083 C   0  0  2  0  0  0  0  0  0  0  0  0
   22.5522  -18.7762  -15.2871 N   0  0  0  0  0  0  0  0  0  0  0  0
   24.8093  -19.5177  -15.7285 C   0  0  0  0  0  0  0  0  0  0  0  0
   25.7681  -19.8207  -16.4782 O   0  0  0  0  0  0  0  0  0  0  0  0
   26.9695  -21.1793  -10.0546 C   0  0  0  0  0  0  0  0  0  0  0  0
   27.1172  -21.0950  -11.5249 C   0  0  2  0  0  0  0  0  0  0  0  0
   28.5454  -20.6429  -11.8766 C   0  0  0  0  0  0  0  0  0  0  0  0
   26.1156  -20.3514  -12.3140 C   0  0  0  0  0  0  0  0  0  0  0  0
   26.2027  -20.3465  -13.7732 C   0  0  2  0  0  0  0  0  0  0  0  0
   24.9647  -19.7258  -14.3382 N   0  0  0  0  0  0  0  0  0  0  0  0
   26.4702  -21.5684  -14.5268 C   0  0  0  0  0  0  0  0  0  0  0  0
   25.7400  -22.5759  -14.6458 O   0  0  0  0  0  0  0  0  0  0  0  0
   27.6986  -21.7014  -15.2421 O   0  0  0  0  0  0  0  0  0  0  0  0
  1  2  1  0
  3  2  1  0
  3  4  1  6
  5  3  1  0
  5 11  1  0
  6  5  2  0
  8  7  1  1
  9  8  1  0
 10 11  1  1
 10  8  1  0
 12 10  1  0
 12 19  1  0
 13 12  2  0
 15 16  1  1
 15 14  1  0
 17 15  1  0
 18 19  1  0
 18 17  1  1
 20 18  1  0
 21 20  2  0
 22 20  1  0
M  END
$$$$
