STL.pdb
     RDKit          3D

 22 21  0  0  1  0  0  0  0  0999 V2000
   29.0484  -21.7826  -16.1542 O   0  0  0  0  0  0  0  0  0  0  0  0
   28.0952  -22.4143  -15.3820 C   0  0  0  0  0  0  0  0  0  0  0  0
   26.7031  -21.8478  -15.5546 C   0  0  2  0  0  0  0  0  0  0  0  0
   26.6842  -21.1507  -16.8144 N   0  0  0  0  0  0  0  0  0  0  0  0
   26.3130  -20.9551  -14.4461 C   0  0  0  0  0  0  0  0  0  0  0  0
   26.5140  -19.7229  -14.5748 O   0  0  0  0  0  0  0  0  0  0  0  0
   23.2872  -19.7662  -13.5190 C   0  0  0  0  0  0  0  0  0  0  0  0
   23.7432  -20.3966  -12.2237 C   0  0  1  0  0  0  0  0  0  0  0  0
   23.1310  -21.6235  -12.0781 O   0  0  0  0  0  0  0  0  0  0  0  0
   25.2594  -20.5049  -12.2143 C   0  0  2  0  0  0  0  0  0  0  0  0
   25.7232  -21.4127  -13.2429 N   0  0  0  0  0  0  0  0  0  0  0  0
   25.7615  -20.9131  -10.8790 C   0  0  0  0  0  0  0  0  0  0  0  0
   26.0186  -22.1187  -10.6478 O   0  0  0  0  0  0  0  0  0  0  0  0
   27.9404  -18.3851   -5.6540 C   0  0  0  0  0  0  0  0  0  0  0  0
   27.7623  -19.5814   -6.5070 C   0  0  2  0  0  0  0  0  0  0  0  0
   29.0358  -20.4440   -6.4615 C   0  0  0  0  0  0  0  0  0  0  0  0
   27.2798  -19.4201   -7.8926 C   0  0  0  0  0  0  0  0  0  0  0  0
   26.3770  -20.4174   -8.4651 C   0  0  2  0  0  0  0  0  0  0  0  0
   25.9663  -19.9807   -9.8354 N   0  0  0  0  0  0  0  0  0  0  0  0
   25.1755  -20.8548   -7.7598 C   0  0  0  0  0  0  0  0  0  0  0  0
   24.0023  -20.4514   -7.9127 O   0  0  0  0  0  0  0  0  0  0  0  0
   25.2751  -21.8656   -6.7565 O   0  0  0  0  0  0  0  0  0  0  0  0
  1  2  1  0
  3  2  1  0
  3  4  1  6
  5  3  1  0
  5 11  1  0
  6  5  2  0
  8  7  1  6
  9  8  1  0
 10 11  1  6
 10  8  1  0
 12 10  1  0
 12 19  1  0
 13 12  2  0
 15 16  1  6
 15 14  1  0
 17 15  1  0
 18 19  1  0
 18 17  1  1
 20 18  1  0
 21 20  2  0
 22 20  1  0
M  END
$$$$
