STL.pdb
     RDKit          3D

 22 21  0  0  1  0  0  0  0  0999 V2000
   24.9220  -14.5946  -15.0715 O   0  0  0  0  0  0  0  0  0  0  0  0
   25.8794  -13.9439  -15.8224 C   0  0  0  0  0  0  0  0  0  0  0  0
   25.5825  -13.9342  -17.3058 C   0  0  2  0  0  0  0  0  0  0  0  0
   25.5728  -15.3061  -17.7433 N   0  0  0  0  0  0  0  0  0  0  0  0
   26.5584  -13.1372  -18.0740 C   0  0  0  0  0  0  0  0  0  0  0  0
   27.4085  -13.7452  -18.7689 O   0  0  0  0  0  0  0  0  0  0  0  0
   27.8891   -8.9789  -20.3020 C   0  0  0  0  0  0  0  0  0  0  0  0
   26.8700   -9.7551  -19.5007 C   0  0  1  0  0  0  0  0  0  0  0  0
   25.8208  -10.1066  -20.3234 O   0  0  0  0  0  0  0  0  0  0  0  0
   27.5343  -10.9659  -18.8655 C   0  0  2  0  0  0  0  0  0  0  0  0
   26.5888  -11.7216  -18.0704 N   0  0  0  0  0  0  0  0  0  0  0  0
   28.7131  -10.5700  -18.0560 C   0  0  0  0  0  0  0  0  0  0  0  0
   28.5514  -10.0451  -16.9284 O   0  0  0  0  0  0  0  0  0  0  0  0
   34.9504  -11.1330  -18.2423 C   0  0  0  0  0  0  0  0  0  0  0  0
   33.7308  -10.5359  -17.6536 C   0  0  2  0  0  0  0  0  0  0  0  0
   33.8280  -10.5680  -16.1182 C   0  0  0  0  0  0  0  0  0  0  0  0
   32.4043  -10.9940  -18.1112 C   0  0  0  0  0  0  0  0  0  0  0  0
   31.2119  -10.2258  -17.7574 C   0  0  2  0  0  0  0  0  0  0  0  0
   30.0379  -10.7637  -18.5120 N   0  0  0  0  0  0  0  0  0  0  0  0
   31.1806   -8.7699  -17.8668 C   0  0  0  0  0  0  0  0  0  0  0  0
   31.1105   -8.0764  -18.9043 O   0  0  0  0  0  0  0  0  0  0  0  0
   31.2337   -7.9724  -16.6838 O   0  0  0  0  0  0  0  0  0  0  0  0
  1  2  1  0
  3  2  1  0
  3  4  1  6
  5  3  1  0
  5 11  1  0
  6  5  2  0
  8  7  1  6
  9  8  1  0
 10 11  1  1
 10  8  1  0
 12 10  1  0
 12 19  1  0
 13 12  2  0
 15 16  1  1
 15 14  1  0
 17 15  1  0
 18 19  1  0
 18 17  1  6
 20 18  1  0
 21 20  2  0
 22 20  1  0
M  END
$$$$
