MKE.pdb
     RDKit          3D

 27 26  0  0  1  0  0  0  0  0999 V2000
   17.3932  -16.9436  -12.3666 C   0  0  0  0  0  0  0  0  0  0  0  0
   17.5868  -18.5848  -13.0192 S   0  0  0  0  0  0  0  0  0  0  0  0
   19.0847  -18.9265  -13.8751 C   0  0  0  0  0  0  0  0  0  0  0  0
   19.8474  -17.7546  -14.3448 C   0  0  0  0  0  0  0  0  0  0  0  0
   21.1041  -17.9541  -15.1164 C   0  0  2  0  0  0  0  0  0  0  0  0
   22.1905  -18.5341  -14.4228 N   0  0  0  0  0  0  0  0  0  0  0  0
   21.3988  -16.7426  -15.9029 C   0  0  0  0  0  0  0  0  0  0  0  0
   21.8702  -15.7224  -15.3320 O   0  0  0  0  0  0  0  0  0  0  0  0
   21.1844  -16.6056  -17.3263 N   0  0  0  0  0  0  0  0  0  0  0  0
   21.5721  -15.4184  -18.0138 C   0  0  1  0  0  0  0  0  0  0  0  0
   22.1442  -15.4676  -19.3725 C   0  0  0  0  0  0  0  0  0  0  0  0
   23.4938  -15.9571  -19.6484 C   0  0  0  0  0  0  0  0  0  0  0  0
   23.7257  -17.3861  -19.2932 C   0  0  0  0  0  0  0  0  0  0  0  0
   25.1471  -17.7205  -19.7623 C   0  0  0  0  0  0  0  0  0  0  0  0
   25.4401  -19.1061  -19.4762 N   0  0  0  0  0  0  0  0  0  0  0  0
   20.3825  -14.4843  -17.9464 C   0  0  0  0  0  0  0  0  0  0  0  0
   19.2048  -14.9188  -17.9846 O   0  0  0  0  0  0  0  0  0  0  0  0
   20.5617  -13.0826  -17.8357 N   0  0  0  0  0  0  0  0  0  0  0  0
   19.4184  -12.1755  -17.5471 C   0  0  1  0  0  0  0  0  0  0  0  0
   19.7834  -11.2634  -16.4213 C   0  0  0  0  0  0  0  0  0  0  0  0
   18.7005  -10.2932  -16.0822 C   0  0  0  0  0  0  0  0  0  0  0  0
   19.0473   -9.4382  -14.9336 C   0  0  0  0  0  0  0  0  0  0  0  0
   20.0667   -8.6826  -15.0192 O   0  0  0  0  0  0  0  0  0  0  0  0
   19.0924  -11.5036  -18.8097 C   0  0  0  0  0  0  0  0  0  0  0  0
   17.7860  -11.1095  -19.1509 O   0  0  0  0  0  0  0  0  0  0  0  0
   18.3070   -9.4303  -13.7704 O   0  0  0  0  0  0  0  0  0  0  0  0
   19.9637  -11.2359  -19.6702 O   0  0  0  0  0  0  0  0  0  0  0  0
  1  2  1  0
  3  4  1  0
  3  2  1  0
  4  5  1  0
  5  6  1  1
  7  5  1  0
  7  8  2  0
  9  7  1  0
 10  9  1  0
 10 11  1  6
 12 11  1  0
 13 12  1  0
 13 14  1  0
 14 15  1  0
 16 10  1  0
 17 16  2  0
 18 16  1  0
 19 18  1  0
 19 20  1  1
 21 20  1  0
 22 21  1  0
 23 22  2  0
 24 19  1  0
 24 25  1  0
 26 22  1  0
 27 24  2  0
M  END
$$$$
