MKE.pdb
     RDKit          3D

 27 26  0  0  1  0  0  0  0  0999 V2000
   28.3139  -18.3812  -19.7356 C   0  0  0  0  0  0  0  0  0  0  0  0
   29.1802  -19.4112  -18.5756 S   0  0  0  0  0  0  0  0  0  0  0  0
   28.1971  -20.4126  -17.5158 C   0  0  0  0  0  0  0  0  0  0  0  0
   27.0847  -19.7327  -16.8258 C   0  0  0  0  0  0  0  0  0  0  0  0
   27.3308  -19.0481  -15.5277 C   0  0  2  0  0  0  0  0  0  0  0  0
   27.8085  -19.8505  -14.4666 N   0  0  0  0  0  0  0  0  0  0  0  0
   26.1999  -18.1548  -15.2177 C   0  0  0  0  0  0  0  0  0  0  0  0
   25.4710  -18.3886  -14.2162 O   0  0  0  0  0  0  0  0  0  0  0  0
   25.8282  -16.9895  -15.9889 N   0  0  0  0  0  0  0  0  0  0  0  0
   24.6443  -16.2566  -15.6829 C   0  0  1  0  0  0  0  0  0  0  0  0
   24.5225  -14.8221  -16.0037 C   0  0  0  0  0  0  0  0  0  0  0  0
   23.3246  -14.0400  -15.7024 C   0  0  0  0  0  0  0  0  0  0  0  0
   23.4038  -12.6017  -16.0858 C   0  0  0  0  0  0  0  0  0  0  0  0
   22.0920  -11.9593  -15.6181 C   0  0  0  0  0  0  0  0  0  0  0  0
   22.1477  -10.5311  -15.8297 N   0  0  0  0  0  0  0  0  0  0  0  0
   23.4937  -17.0537  -16.2599 C   0  0  0  0  0  0  0  0  0  0  0  0
   23.5879  -17.6300  -17.3717 O   0  0  0  0  0  0  0  0  0  0  0  0
   22.2679  -17.1763  -15.5587 N   0  0  0  0  0  0  0  0  0  0  0  0
   21.1473  -17.9953  -16.0943 C   0  0  1  0  0  0  0  0  0  0  0  0
   20.6402  -18.9014  -15.0200 C   0  0  0  0  0  0  0  0  0  0  0  0
   19.4111  -19.6488  -15.4195 C   0  0  0  0  0  0  0  0  0  0  0  0
   18.8927  -20.5035  -14.3372 C   0  0  0  0  0  0  0  0  0  0  0  0
   17.7958  -21.1213  -14.5178 O   0  0  0  0  0  0  0  0  0  0  0  0
   20.1598  -17.0501  -16.6266 C   0  0  0  0  0  0  0  0  0  0  0  0
   19.3815  -17.3190  -17.7670 O   0  0  0  0  0  0  0  0  0  0  0  0
   19.5537  -20.6551  -13.1368 O   0  0  0  0  0  0  0  0  0  0  0  0
   19.9454  -15.9352  -16.0950 O   0  0  0  0  0  0  0  0  0  0  0  0
  1  2  1  0
  3  4  1  0
  3  2  1  0
  4  5  1  0
  5  6  1  1
  7  5  1  0
  7  8  2  0
  9  7  1  0
 10  9  1  0
 10 11  1  6
 12 11  1  0
 13 12  1  0
 13 14  1  0
 14 15  1  0
 16 10  1  0
 17 16  2  0
 18 16  1  0
 19 18  1  0
 19 20  1  1
 21 20  1  0
 22 21  1  0
 23 22  2  0
 24 19  1  0
 24 25  1  0
 26 22  1  0
 27 24  2  0
M  END
$$$$
