MKE.pdb
     RDKit          3D

 27 26  0  0  1  0  0  0  0  0999 V2000
   25.0569  -15.5103  -18.4202 C   0  0  0  0  0  0  0  0  0  0  0  0
   26.3839  -16.5764  -17.9109 S   0  0  0  0  0  0  0  0  0  0  0  0
   26.0722  -18.3067  -17.9534 C   0  0  0  0  0  0  0  0  0  0  0  0
   24.7884  -18.7507  -17.3786 C   0  0  0  0  0  0  0  0  0  0  0  0
   24.7551  -19.3279  -16.0074 C   0  0  2  0  0  0  0  0  0  0  0  0
   25.7607  -20.2690  -15.6894 N   0  0  0  0  0  0  0  0  0  0  0  0
   23.3719  -19.7033  -15.6626 C   0  0  0  0  0  0  0  0  0  0  0  0
   22.5739  -20.0627  -16.5697 O   0  0  0  0  0  0  0  0  0  0  0  0
   22.8185  -19.6930  -14.3268 N   0  0  0  0  0  0  0  0  0  0  0  0
   21.4937  -20.1581  -14.0799 C   0  0  1  0  0  0  0  0  0  0  0  0
   21.1319  -20.8121  -12.8082 C   0  0  0  0  0  0  0  0  0  0  0  0
   19.8113  -21.3875  -12.5588 C   0  0  0  0  0  0  0  0  0  0  0  0
   19.5804  -21.8392  -11.1572 C   0  0  0  0  0  0  0  0  0  0  0  0
   18.1322  -22.3412  -11.1004 C   0  0  0  0  0  0  0  0  0  0  0  0
   17.7995  -22.7133   -9.7445 N   0  0  0  0  0  0  0  0  0  0  0  0
   20.5741  -18.9952  -14.3867 C   0  0  0  0  0  0  0  0  0  0  0  0
   20.6650  -17.9065  -13.7673 O   0  0  0  0  0  0  0  0  0  0  0  0
   19.5776  -19.0988  -15.3894 N   0  0  0  0  0  0  0  0  0  0  0  0
   18.7204  -17.9384  -15.7528 C   0  0  1  0  0  0  0  0  0  0  0  0
   18.4686  -17.9525  -17.2256 C   0  0  0  0  0  0  0  0  0  0  0  0
   17.5211  -19.0274  -17.6449 C   0  0  0  0  0  0  0  0  0  0  0  0
   17.8684  -19.6076  -18.9539 C   0  0  0  0  0  0  0  0  0  0  0  0
   17.1871  -20.5899  -19.3878 O   0  0  0  0  0  0  0  0  0  0  0  0
   17.5188  -18.0319  -14.9167 C   0  0  0  0  0  0  0  0  0  0  0  0
   16.6113  -16.9686  -14.7608 O   0  0  0  0  0  0  0  0  0  0  0  0
   18.9060  -19.1242  -19.7226 O   0  0  0  0  0  0  0  0  0  0  0  0
   17.2224  -19.0726  -14.2839 O   0  0  0  0  0  0  0  0  0  0  0  0
  1  2  1  0
  3  4  1  0
  3  2  1  0
  4  5  1  0
  5  6  1  6
  7  5  1  0
  7  8  2  0
  9  7  1  0
 10  9  1  0
 10 11  1  1
 12 11  1  0
 13 12  1  0
 13 14  1  0
 14 15  1  0
 16 10  1  0
 17 16  2  0
 18 16  1  0
 19 18  1  0
 19 20  1  6
 21 20  1  0
 22 21  1  0
 23 22  2  0
 24 19  1  0
 24 25  1  0
 26 22  1  0
 27 24  2  0
M  END
$$$$
