MKE.pdb
     RDKit          3D

 27 26  0  0  1  0  0  0  0  0999 V2000
   26.7912  -18.0214   -6.8712 C   0  0  0  0  0  0  0  0  0  0  0  0
   27.3964  -19.6887   -6.7679 S   0  0  0  0  0  0  0  0  0  0  0  0
   26.8626  -20.8052   -8.0173 C   0  0  0  0  0  0  0  0  0  0  0  0
   26.4078  -20.1972   -9.2819 C   0  0  0  0  0  0  0  0  0  0  0  0
   25.7915  -21.0532  -10.3316 C   0  0  2  0  0  0  0  0  0  0  0  0
   26.1043  -22.4311  -10.2925 N   0  0  0  0  0  0  0  0  0  0  0  0
   25.9100  -20.3900  -11.6428 C   0  0  0  0  0  0  0  0  0  0  0  0
   25.3613  -19.2712  -11.8327 O   0  0  0  0  0  0  0  0  0  0  0  0
   26.6214  -20.9261  -12.7818 N   0  0  0  0  0  0  0  0  0  0  0  0
   26.6101  -20.2492  -14.0365 C   0  0  1  0  0  0  0  0  0  0  0  0
   27.7502  -20.3360  -14.9683 C   0  0  0  0  0  0  0  0  0  0  0  0
   27.7628  -19.6735  -16.2715 C   0  0  0  0  0  0  0  0  0  0  0  0
   27.5925  -18.1935  -16.2224 C   0  0  0  0  0  0  0  0  0  0  0  0
   27.5484  -17.7173  -17.6797 C   0  0  0  0  0  0  0  0  0  0  0  0
   27.4057  -16.2800  -17.7173 N   0  0  0  0  0  0  0  0  0  0  0  0
   25.3111  -20.6344  -14.7120 C   0  0  0  0  0  0  0  0  0  0  0  0
   24.9651  -21.8358  -14.8309 O   0  0  0  0  0  0  0  0  0  0  0  0
   24.4391  -19.6455  -15.2327 N   0  0  0  0  0  0  0  0  0  0  0  0
   23.1406  -20.0103  -15.8603 C   0  0  1  0  0  0  0  0  0  0  0  0
   22.0950  -19.0301  -15.4377 C   0  0  0  0  0  0  0  0  0  0  0  0
   20.7842  -19.2456  -16.1190 C   0  0  0  0  0  0  0  0  0  0  0  0
   19.7875  -18.2204  -15.7637 C   0  0  0  0  0  0  0  0  0  0  0  0
   20.1218  -17.2959  -14.9570 O   0  0  0  0  0  0  0  0  0  0  0  0
   23.3819  -20.0759  -17.3058 C   0  0  0  0  0  0  0  0  0  0  0  0
   22.7309  -20.9947  -18.1487 O   0  0  0  0  0  0  0  0  0  0  0  0
   18.5064  -18.2298  -16.2735 O   0  0  0  0  0  0  0  0  0  0  0  0
   24.1891  -19.3117  -17.8854 O   0  0  0  0  0  0  0  0  0  0  0  0
  1  2  1  0
  3  4  1  0
  3  2  1  0
  4  5  1  0
  5  6  1  6
  7  5  1  0
  7  8  2  0
  9  7  1  0
 10  9  1  0
 10 11  1  6
 12 11  1  0
 13 12  1  0
 13 14  1  0
 14 15  1  0
 16 10  1  0
 17 16  2  0
 18 16  1  0
 19 18  1  0
 19 20  1  6
 21 20  1  0
 22 21  1  0
 23 22  2  0
 24 19  1  0
 24 25  1  0
 26 22  1  0
 27 24  2  0
M  END
$$$$
