MKE.pdb
     RDKit          3D

 27 26  0  0  1  0  0  0  0  0999 V2000
   19.5104  -30.4539   -1.2288 C   0  0  0  0  0  0  0  0  0  0  0  0
   19.0495  -28.7380   -1.2374 S   0  0  0  0  0  0  0  0  0  0  0  0
   18.1523  -28.1646   -2.6370 C   0  0  0  0  0  0  0  0  0  0  0  0
   17.7703  -26.7399   -2.6257 C   0  0  0  0  0  0  0  0  0  0  0  0
   17.1873  -26.1235   -3.8482 C   0  0  2  0  0  0  0  0  0  0  0  0
   18.0176  -26.0703   -4.9909 N   0  0  0  0  0  0  0  0  0  0  0  0
   16.4863  -24.8779   -3.4876 C   0  0  0  0  0  0  0  0  0  0  0  0
   17.1278  -23.7956   -3.4112 O   0  0  0  0  0  0  0  0  0  0  0  0
   15.0738  -24.7763   -3.1954 N   0  0  0  0  0  0  0  0  0  0  0  0
   14.4558  -23.5060   -3.0030 C   0  0  1  0  0  0  0  0  0  0  0  0
   13.4149  -23.0092   -3.9225 C   0  0  0  0  0  0  0  0  0  0  0  0
   13.5960  -22.9553   -5.3722 C   0  0  0  0  0  0  0  0  0  0  0  0
   13.2055  -21.6627   -6.0036 C   0  0  0  0  0  0  0  0  0  0  0  0
   13.4793  -21.8176   -7.5047 C   0  0  0  0  0  0  0  0  0  0  0  0
   13.2341  -20.5617   -8.1756 N   0  0  0  0  0  0  0  0  0  0  0  0
   13.9838  -23.4799   -1.5647 C   0  0  0  0  0  0  0  0  0  0  0  0
   13.4106  -24.4691   -1.0449 O   0  0  0  0  0  0  0  0  0  0  0  0
   14.1766  -22.3326   -0.7550 N   0  0  0  0  0  0  0  0  0  0  0  0
   13.5749  -22.2318    0.6019 C   0  0  1  0  0  0  0  0  0  0  0  0
   14.6532  -21.9677    1.6020 C   0  0  0  0  0  0  0  0  0  0  0  0
   15.5050  -23.1640    1.8707 C   0  0  0  0  0  0  0  0  0  0  0  0
   16.5487  -22.9000    2.8766 C   0  0  0  0  0  0  0  0  0  0  0  0
   17.7232  -22.6166    2.4796 O   0  0  0  0  0  0  0  0  0  0  0  0
   12.5374  -21.1981    0.5202 C   0  0  0  0  0  0  0  0  0  0  0  0
   11.5942  -20.9793    1.5405 O   0  0  0  0  0  0  0  0  0  0  0  0
   16.2968  -22.9513    4.2312 O   0  0  0  0  0  0  0  0  0  0  0  0
   12.4249  -20.4388   -0.4709 O   0  0  0  0  0  0  0  0  0  0  0  0
  1  2  1  0
  3  4  1  0
  3  2  1  0
  4  5  1  0
  5  6  1  6
  7  5  1  0
  7  8  2  0
  9  7  1  0
 10  9  1  0
 10 11  1  6
 12 11  1  0
 13 12  1  0
 13 14  1  0
 14 15  1  0
 16 10  1  0
 17 16  2  0
 18 16  1  0
 19 18  1  0
 19 20  1  1
 21 20  1  0
 22 21  1  0
 23 22  2  0
 24 19  1  0
 24 25  1  0
 26 22  1  0
 27 24  2  0
M  END
$$$$
