MKE.pdb
     RDKit          3D

 27 26  0  0  1  0  0  0  0  0999 V2000
   21.9936   -7.3820  -12.9261 C   0  0  0  0  0  0  0  0  0  0  0  0
   21.8849   -9.1249  -13.2536 S   0  0  0  0  0  0  0  0  0  0  0  0
   20.4390   -9.6878  -14.0815 C   0  0  0  0  0  0  0  0  0  0  0  0
   19.1547   -9.1730  -13.5702 C   0  0  0  0  0  0  0  0  0  0  0  0
   18.3320  -10.0163  -12.6612 C   0  0  2  0  0  0  0  0  0  0  0  0
   17.9653  -11.2951  -13.1389 N   0  0  0  0  0  0  0  0  0  0  0  0
   17.2540   -9.2017  -12.0718 C   0  0  0  0  0  0  0  0  0  0  0  0
   16.6870   -8.3142  -12.7645 O   0  0  0  0  0  0  0  0  0  0  0  0
   16.7682   -9.3253  -10.7155 N   0  0  0  0  0  0  0  0  0  0  0  0
   15.6195   -8.6016  -10.2807 C   0  0  1  0  0  0  0  0  0  0  0  0
   14.6648   -9.1798   -9.3164 C   0  0  0  0  0  0  0  0  0  0  0  0
   13.4665   -8.4743   -8.8652 C   0  0  0  0  0  0  0  0  0  0  0  0
   12.6422   -9.2155   -7.8686 C   0  0  0  0  0  0  0  0  0  0  0  0
   11.4285   -8.3271   -7.5688 C   0  0  0  0  0  0  0  0  0  0  0  0
   10.5013   -9.0408   -6.7211 N   0  0  0  0  0  0  0  0  0  0  0  0
   16.1219   -7.2494   -9.8209 C   0  0  0  0  0  0  0  0  0  0  0  0
   17.1819   -7.1349   -9.1573 O   0  0  0  0  0  0  0  0  0  0  0  0
   15.4084   -6.0637  -10.1282 N   0  0  0  0  0  0  0  0  0  0  0  0
   15.9482   -4.7221   -9.7789 C   0  0  1  0  0  0  0  0  0  0  0  0
   16.7086   -4.1770  -10.9439 C   0  0  0  0  0  0  0  0  0  0  0  0
   17.1682   -2.7720  -10.7345 C   0  0  0  0  0  0  0  0  0  0  0  0
   17.9573   -2.2606  -11.8687 C   0  0  0  0  0  0  0  0  0  0  0  0
   18.2147   -3.0437  -12.8372 O   0  0  0  0  0  0  0  0  0  0  0  0
   14.8023   -3.9120   -9.3517 C   0  0  0  0  0  0  0  0  0  0  0  0
   14.9388   -2.7305   -8.6007 O   0  0  0  0  0  0  0  0  0  0  0  0
   18.4271   -0.9652  -11.9155 O   0  0  0  0  0  0  0  0  0  0  0  0
   13.6206   -4.2233   -9.6311 O   0  0  0  0  0  0  0  0  0  0  0  0
  1  2  1  0
  3  4  1  0
  3  2  1  0
  4  5  1  0
  5  6  1  6
  7  5  1  0
  7  8  2  0
  9  7  1  0
 10  9  1  0
 10 11  1  1
 12 11  1  0
 13 12  1  0
 13 14  1  0
 14 15  1  0
 16 10  1  0
 17 16  2  0
 18 16  1  0
 19 18  1  0
 19 20  1  6
 21 20  1  0
 22 21  1  0
 23 22  2  0
 24 19  1  0
 24 25  1  0
 26 22  1  0
 27 24  2  0
M  END
$$$$
