MKE.pdb
     RDKit          3D

 27 26  0  0  1  0  0  0  0  0999 V2000
   25.0868  -12.9032  -14.5905 C   0  0  0  0  0  0  0  0  0  0  0  0
   24.7791  -13.4035  -16.2674 S   0  0  0  0  0  0  0  0  0  0  0  0
   23.0978  -13.4759  -16.7778 C   0  0  0  0  0  0  0  0  0  0  0  0
   22.3714  -12.1925  -16.8082 C   0  0  0  0  0  0  0  0  0  0  0  0
   21.0011  -12.1072  -16.2341 C   0  0  2  0  0  0  0  0  0  0  0  0
   20.2489  -13.3035  -16.2048 N   0  0  0  0  0  0  0  0  0  0  0  0
   20.3166  -10.9140  -16.7639 C   0  0  0  0  0  0  0  0  0  0  0  0
   20.9927   -9.9373  -17.1856 O   0  0  0  0  0  0  0  0  0  0  0  0
   18.8824  -10.7481  -16.8441 N   0  0  0  0  0  0  0  0  0  0  0  0
   18.3124   -9.5572  -17.3819 C   0  0  1  0  0  0  0  0  0  0  0  0
   16.9405   -9.5368  -17.9234 C   0  0  0  0  0  0  0  0  0  0  0  0
   16.6345   -9.1370  -19.2960 C   0  0  0  0  0  0  0  0  0  0  0  0
   15.1866   -9.1680  -19.6485 C   0  0  0  0  0  0  0  0  0  0  0  0
   15.0896   -8.7080  -21.1084 C   0  0  0  0  0  0  0  0  0  0  0  0
   13.7100   -8.7372  -21.5366 N   0  0  0  0  0  0  0  0  0  0  0  0
   18.5106   -8.4836  -16.3329 C   0  0  0  0  0  0  0  0  0  0  0  0
   18.5196   -8.7582  -15.1075 O   0  0  0  0  0  0  0  0  0  0  0  0
   18.6949   -7.1279  -16.7032 N   0  0  0  0  0  0  0  0  0  0  0  0
   19.0272   -6.0871  -15.6935 C   0  0  1  0  0  0  0  0  0  0  0  0
   20.3496   -6.4039  -15.0743 C   0  0  0  0  0  0  0  0  0  0  0  0
   20.8638   -5.3058  -14.2032 C   0  0  0  0  0  0  0  0  0  0  0  0
   22.1495   -5.6436  -13.5680 C   0  0  0  0  0  0  0  0  0  0  0  0
   22.7957   -4.7262  -12.9694 O   0  0  0  0  0  0  0  0  0  0  0  0
   18.9607   -4.7974  -16.3893 C   0  0  0  0  0  0  0  0  0  0  0  0
   19.1263   -4.6697  -17.7803 O   0  0  0  0  0  0  0  0  0  0  0  0
   22.6763   -6.9173  -13.6016 O   0  0  0  0  0  0  0  0  0  0  0  0
   18.7505   -3.7199  -15.7841 O   0  0  0  0  0  0  0  0  0  0  0  0
  1  2  1  0
  3  4  1  0
  3  2  1  0
  4  5  1  0
  5  6  1  6
  7  5  1  0
  7  8  2  0
  9  7  1  0
 10  9  1  0
 10 11  1  1
 12 11  1  0
 13 12  1  0
 13 14  1  0
 14 15  1  0
 16 10  1  0
 17 16  2  0
 18 16  1  0
 19 18  1  0
 19 20  1  6
 21 20  1  0
 22 21  1  0
 23 22  2  0
 24 19  1  0
 24 25  1  0
 26 22  1  0
 27 24  2  0
M  END
$$$$
