MKE.pdb
     RDKit          3D

 27 26  0  0  1  0  0  0  0  0999 V2000
   24.6067  -19.9928   -8.4586 C   0  0  0  0  0  0  0  0  0  0  0  0
   25.8688  -20.9935   -9.2087 S   0  0  0  0  0  0  0  0  0  0  0  0
   26.2903  -20.6213  -10.8749 C   0  0  0  0  0  0  0  0  0  0  0  0
   25.4407  -21.2341  -11.9133 C   0  0  0  0  0  0  0  0  0  0  0  0
   26.0686  -21.8185  -13.1293 C   0  0  2  0  0  0  0  0  0  0  0  0
   27.1367  -21.0929  -13.7042 N   0  0  0  0  0  0  0  0  0  0  0  0
   25.0182  -22.2833  -14.0533 C   0  0  0  0  0  0  0  0  0  0  0  0
   23.9157  -21.6748  -14.1082 O   0  0  0  0  0  0  0  0  0  0  0  0
   25.1352  -23.4225  -14.9361 N   0  0  0  0  0  0  0  0  0  0  0  0
   24.0904  -23.7518  -15.8484 C   0  0  1  0  0  0  0  0  0  0  0  0
   24.3419  -24.5869  -17.0379 C   0  0  0  0  0  0  0  0  0  0  0  0
   25.1955  -24.1566  -18.1441 C   0  0  0  0  0  0  0  0  0  0  0  0
   25.3130  -25.1365  -19.2612 C   0  0  0  0  0  0  0  0  0  0  0  0
   26.2614  -24.5056  -20.2884 C   0  0  0  0  0  0  0  0  0  0  0  0
   26.3618  -25.3622  -21.4476 N   0  0  0  0  0  0  0  0  0  0  0  0
   22.9580  -24.3066  -15.0106 C   0  0  0  0  0  0  0  0  0  0  0  0
   23.1762  -24.9133  -13.9329 O   0  0  0  0  0  0  0  0  0  0  0  0
   21.6086  -24.1563  -15.4177 N   0  0  0  0  0  0  0  0  0  0  0  0
   20.4835  -24.5948  -14.5487 C   0  0  1  0  0  0  0  0  0  0  0  0
   19.7381  -23.3946  -14.0624 C   0  0  0  0  0  0  0  0  0  0  0  0
   18.5072  -23.7446  -13.2935 C   0  0  0  0  0  0  0  0  0  0  0  0
   17.7472  -22.5550  -12.8716 C   0  0  0  0  0  0  0  0  0  0  0  0
   18.0941  -21.4167  -13.3203 O   0  0  0  0  0  0  0  0  0  0  0  0
   19.6896  -25.5391  -15.3422 C   0  0  0  0  0  0  0  0  0  0  0  0
   18.9003  -26.5494  -14.7635 O   0  0  0  0  0  0  0  0  0  0  0  0
   16.6759  -22.6330  -12.0071 O   0  0  0  0  0  0  0  0  0  0  0  0
   19.6640  -25.5051  -16.5951 O   0  0  0  0  0  0  0  0  0  0  0  0
  1  2  1  0
  3  4  1  0
  3  2  1  0
  4  5  1  0
  5  6  1  6
  7  5  1  0
  7  8  2  0
  9  7  1  0
 10  9  1  0
 10 11  1  6
 12 11  1  0
 13 12  1  0
 13 14  1  0
 14 15  1  0
 16 10  1  0
 17 16  2  0
 18 16  1  0
 19 18  1  0
 19 20  1  6
 21 20  1  0
 22 21  1  0
 23 22  2  0
 24 19  1  0
 24 25  1  0
 26 22  1  0
 27 24  2  0
M  END
$$$$
