MKE.pdb
     RDKit          3D

 27 26  0  0  1  0  0  0  0  0999 V2000
   27.4319  -12.0855  -15.6710 C   0  0  0  0  0  0  0  0  0  0  0  0
   26.7584  -13.7248  -15.5444 S   0  0  0  0  0  0  0  0  0  0  0  0
   25.2584  -14.0350  -16.4083 C   0  0  0  0  0  0  0  0  0  0  0  0
   24.7727  -15.4276  -16.3891 C   0  0  0  0  0  0  0  0  0  0  0  0
   25.7459  -16.5491  -16.4861 C   0  0  2  0  0  0  0  0  0  0  0  0
   26.5743  -16.5744  -17.6311 N   0  0  0  0  0  0  0  0  0  0  0  0
   25.0789  -17.8146  -16.1302 C   0  0  0  0  0  0  0  0  0  0  0  0
   24.2991  -18.3666  -16.9525 O   0  0  0  0  0  0  0  0  0  0  0  0
   25.2365  -18.5097  -14.8721 N   0  0  0  0  0  0  0  0  0  0  0  0
   24.5585  -19.7393  -14.6254 C   0  0  1  0  0  0  0  0  0  0  0  0
   25.1485  -20.7854  -13.7691 C   0  0  0  0  0  0  0  0  0  0  0  0
   24.5517  -22.1103  -13.6088 C   0  0  0  0  0  0  0  0  0  0  0  0
   24.7115  -23.0146  -14.7829 C   0  0  0  0  0  0  0  0  0  0  0  0
   23.8803  -24.2668  -14.4774 C   0  0  0  0  0  0  0  0  0  0  0  0
   23.9039  -25.1557  -15.6162 N   0  0  0  0  0  0  0  0  0  0  0  0
   23.1645  -19.3676  -14.1663 C   0  0  0  0  0  0  0  0  0  0  0  0
   22.9764  -18.4996  -13.2784 O   0  0  0  0  0  0  0  0  0  0  0  0
   22.0217  -19.9899  -14.7285 N   0  0  0  0  0  0  0  0  0  0  0  0
   20.6504  -19.6711  -14.2477 C   0  0  1  0  0  0  0  0  0  0  0  0
   19.8438  -19.1261  -15.3813 C   0  0  0  0  0  0  0  0  0  0  0  0
   20.0787  -17.6708  -15.6173 C   0  0  0  0  0  0  0  0  0  0  0  0
   19.2158  -17.1242  -16.6792 C   0  0  0  0  0  0  0  0  0  0  0  0
   18.6719  -17.9288  -17.5002 O   0  0  0  0  0  0  0  0  0  0  0  0
   20.1245  -20.9017  -13.6470 C   0  0  0  0  0  0  0  0  0  0  0  0
   18.9840  -20.9239  -12.8240 O   0  0  0  0  0  0  0  0  0  0  0  0
   18.9796  -15.7725  -16.8143 O   0  0  0  0  0  0  0  0  0  0  0  0
   20.6618  -22.0193  -13.8305 O   0  0  0  0  0  0  0  0  0  0  0  0
  1  2  1  0
  3  4  1  0
  3  2  1  0
  4  5  1  0
  5  6  1  6
  7  5  1  0
  7  8  2  0
  9  7  1  0
 10  9  1  0
 10 11  1  1
 12 11  1  0
 13 12  1  0
 13 14  1  0
 14 15  1  0
 16 10  1  0
 17 16  2  0
 18 16  1  0
 19 18  1  0
 19 20  1  6
 21 20  1  0
 22 21  1  0
 23 22  2  0
 24 19  1  0
 24 25  1  0
 26 22  1  0
 27 24  2  0
M  END
$$$$
