MKE.pdb
     RDKit          3D

 27 26  0  0  1  0  0  0  0  0999 V2000
   27.0751  -14.2649  -14.2872 C   0  0  0  0  0  0  0  0  0  0  0  0
   26.9941  -15.0063  -15.8999 S   0  0  0  0  0  0  0  0  0  0  0  0
   25.7021  -14.4595  -16.9603 C   0  0  0  0  0  0  0  0  0  0  0  0
   24.8439  -13.3800  -16.4369 C   0  0  0  0  0  0  0  0  0  0  0  0
   23.8732  -12.7061  -17.3413 C   0  0  2  0  0  0  0  0  0  0  0  0
   24.3048  -12.4558  -18.6638 N   0  0  0  0  0  0  0  0  0  0  0  0
   23.2382  -11.5796  -16.6337 C   0  0  0  0  0  0  0  0  0  0  0  0
   22.7171  -11.7631  -15.5007 O   0  0  0  0  0  0  0  0  0  0  0  0
   23.1476  -10.2279  -17.1394 N   0  0  0  0  0  0  0  0  0  0  0  0
   22.4548   -9.2183  -16.4093 C   0  0  1  0  0  0  0  0  0  0  0  0
   22.9004   -7.8123  -16.4277 C   0  0  0  0  0  0  0  0  0  0  0  0
   22.1289   -6.7269  -15.8243 C   0  0  0  0  0  0  0  0  0  0  0  0
   22.7784   -5.3868  -15.8889 C   0  0  0  0  0  0  0  0  0  0  0  0
   21.8000   -4.4030  -15.2353 C   0  0  0  0  0  0  0  0  0  0  0  0
   22.2974   -3.0543  -15.3802 N   0  0  0  0  0  0  0  0  0  0  0  0
   20.9966   -9.3432  -16.7966 C   0  0  0  0  0  0  0  0  0  0  0  0
   20.6498   -9.5551  -17.9849 O   0  0  0  0  0  0  0  0  0  0  0  0
   19.9716   -9.2258  -15.8246 N   0  0  0  0  0  0  0  0  0  0  0  0
   18.5345   -9.2335  -16.2090 C   0  0  1  0  0  0  0  0  0  0  0  0
   18.0546  -10.6458  -16.2984 C   0  0  0  0  0  0  0  0  0  0  0  0
   16.9899  -10.9641  -15.3014 C   0  0  0  0  0  0  0  0  0  0  0  0
   16.5060  -12.3511  -15.4149 C   0  0  0  0  0  0  0  0  0  0  0  0
   16.1750  -12.7915  -16.5611 O   0  0  0  0  0  0  0  0  0  0  0  0
   17.8363   -8.4020  -15.2227 C   0  0  0  0  0  0  0  0  0  0  0  0
   16.5038   -7.9813  -15.3836 O   0  0  0  0  0  0  0  0  0  0  0  0
   16.3982  -13.1859  -14.3229 O   0  0  0  0  0  0  0  0  0  0  0  0
   18.3868   -8.0111  -14.1665 O   0  0  0  0  0  0  0  0  0  0  0  0
  1  2  1  0
  3  4  1  0
  3  2  1  0
  4  5  1  0
  5  6  1  6
  7  5  1  0
  7  8  2  0
  9  7  1  0
 10  9  1  0
 10 11  1  6
 12 11  1  0
 13 12  1  0
 13 14  1  0
 14 15  1  0
 16 10  1  0
 17 16  2  0
 18 16  1  0
 19 18  1  0
 19 20  1  1
 21 20  1  0
 22 21  1  0
 23 22  2  0
 24 19  1  0
 24 25  1  0
 26 22  1  0
 27 24  2  0
M  END
$$$$
