AQH.pdb
     RDKit          3D

 25 25  0  0  1  0  0  0  0  0999 V2000
   21.8240  -15.3724  -17.6045 C   0  0  0  0  0  0  0  0  0  0  0  0
   23.0736  -15.5883  -16.8110 C   0  0  2  0  0  0  0  0  0  0  0  0
   22.9190  -16.6548  -15.8575 N   0  0  0  0  0  0  0  0  0  0  0  0
   23.5015  -14.3388  -16.0995 C   0  0  0  0  0  0  0  0  0  0  0  0
   23.1007  -14.1787  -14.9189 O   0  0  0  0  0  0  0  0  0  0  0  0
   28.3557  -10.9857  -17.8837 N   0  0  0  0  0  0  0  0  0  0  0  0
   27.9429  -10.1665  -16.8071 C   0  0  0  0  0  0  0  0  0  0  0  0
   28.6198   -9.1755  -16.4814 O   0  0  0  0  0  0  0  0  0  0  0  0
   26.7011  -10.5158  -16.0884 C   0  0  0  0  0  0  0  0  0  0  0  0
   26.0674  -11.7519  -16.5935 C   0  0  0  0  0  0  0  0  0  0  0  0
   24.7628  -12.1658  -15.9669 C   0  0  2  0  0  0  0  0  0  0  0  0
   24.3207  -13.3653  -16.7074 N   0  0  0  0  0  0  0  0  0  0  0  0
   23.7473  -11.1312  -16.1936 C   0  0  0  0  0  0  0  0  0  0  0  0
   23.3191  -11.0309  -17.4057 O   0  0  0  0  0  0  0  0  0  0  0  0
   23.2015  -10.2557  -15.2298 N   0  0  0  0  0  0  0  0  0  0  0  0
   22.1556   -9.3492  -15.6419 C   0  0  1  0  0  0  0  0  0  0  0  0
   20.9181   -9.5193  -14.7871 C   0  0  0  0  0  0  0  0  0  0  0  0
   19.9220   -8.5089  -15.1751 C   0  0  0  0  0  0  0  0  0  0  0  0
   19.9636   -7.5370  -16.1533 C   0  0  0  0  0  0  0  0  0  0  0  0
   18.8028   -6.8333  -16.0979 N   0  0  0  0  0  0  0  0  0  0  0  0
   18.0520   -7.3292  -15.1308 C   0  0  0  0  0  0  0  0  0  0  0  0
   18.7160   -8.3449  -14.5621 N   0  0  0  0  0  0  0  0  0  0  0  0
   22.6946   -7.9846  -15.6243 C   0  0  0  0  0  0  0  0  0  0  0  0
   23.7685   -7.7273  -15.0010 O   0  0  0  0  0  0  0  0  0  0  0  0
   22.0532   -6.9569  -16.2818 O   0  0  0  0  0  0  0  0  0  0  0  0
  2  1  1  1
  2  4  1  0
  3  2  1  0
  4  5  2  0
  7  6  1  0
  7  9  1  0
  8  7  2  0
 10  9  1  0
 11 10  1  6
 11 13  1  0
 12 11  1  0
 12  4  1  0
 13 14  2  0
 15 16  1  0
 15 13  1  0
 16 23  1  0
 16 17  1  1
 18 17  1  0
 18 19  2  0
 20 19  1  0
 21 20  1  0
 22 21  2  0
 22 18  1  0
 23 24  2  0
 23 25  1  0
M  END
$$$$
