AQH.pdb
     RDKit          3D

 25 25  0  0  1  0  0  0  0  0999 V2000
   16.1905  -14.1786  -16.2344 C   0  0  0  0  0  0  0  0  0  0  0  0
   17.1807  -13.2239  -15.6463 C   0  0  2  0  0  0  0  0  0  0  0  0
   17.7656  -13.7431  -14.4385 N   0  0  0  0  0  0  0  0  0  0  0  0
   16.5627  -11.8855  -15.3682 C   0  0  0  0  0  0  0  0  0  0  0  0
   16.0485  -11.2726  -16.3378 O   0  0  0  0  0  0  0  0  0  0  0  0
   13.6653  -10.7548  -10.2659 N   0  0  0  0  0  0  0  0  0  0  0  0
   13.0063  -11.0998  -11.4689 C   0  0  0  0  0  0  0  0  0  0  0  0
   11.8678  -11.5992  -11.4360 O   0  0  0  0  0  0  0  0  0  0  0  0
   13.6985  -10.8545  -12.7500 C   0  0  0  0  0  0  0  0  0  0  0  0
   15.0353  -10.2475  -12.5793 C   0  0  0  0  0  0  0  0  0  0  0  0
   15.8598  -10.0310  -13.8199 C   0  0  2  0  0  0  0  0  0  0  0  0
   16.5453  -11.3137  -14.0794 N   0  0  0  0  0  0  0  0  0  0  0  0
   16.9076   -9.0375  -13.5584 C   0  0  0  0  0  0  0  0  0  0  0  0
   18.0021   -9.5039  -13.0616 O   0  0  0  0  0  0  0  0  0  0  0  0
   16.8349   -7.6481  -13.7985 N   0  0  0  0  0  0  0  0  0  0  0  0
   18.0462   -6.8695  -13.6880 C   0  0  1  0  0  0  0  0  0  0  0  0
   19.1370   -7.4288  -14.5759 C   0  0  0  0  0  0  0  0  0  0  0  0
   20.3231   -6.5636  -14.4850 C   0  0  0  0  0  0  0  0  0  0  0  0
   20.8832   -5.9197  -13.4011 C   0  0  0  0  0  0  0  0  0  0  0  0
   21.9602   -5.2168  -13.8389 N   0  0  0  0  0  0  0  0  0  0  0  0
   22.0857   -5.4003  -15.1410 C   0  0  0  0  0  0  0  0  0  0  0  0
   21.1014   -6.2139  -15.5475 N   0  0  0  0  0  0  0  0  0  0  0  0
   17.7213   -5.4677  -13.9745 C   0  0  0  0  0  0  0  0  0  0  0  0
   16.8477   -5.1773  -14.8466 O   0  0  0  0  0  0  0  0  0  0  0  0
   18.3508   -4.4396  -13.3063 O   0  0  0  0  0  0  0  0  0  0  0  0
  2  1  1  1
  2  4  1  0
  3  2  1  0
  4  5  2  0
  7  6  1  0
  7  9  1  0
  8  7  2  0
 10  9  1  0
 11 10  1  1
 11 13  1  0
 12 11  1  0
 12  4  1  0
 13 14  2  0
 15 16  1  0
 15 13  1  0
 16 23  1  0
 16 17  1  6
 18 17  1  0
 18 19  2  0
 20 19  1  0
 21 20  1  0
 22 21  2  0
 22 18  1  0
 23 24  2  0
 23 25  1  0
M  END
$$$$
