AQH.pdb
     RDKit          3D

 25 25  0  0  1  0  0  0  0  0999 V2000
   18.9748  -12.1520  -15.9427 C   0  0  0  0  0  0  0  0  0  0  0  0
   17.5555  -12.3863  -15.5322 C   0  0  2  0  0  0  0  0  0  0  0  0
   16.8654  -13.2337  -16.4683 N   0  0  0  0  0  0  0  0  0  0  0  0
   16.8038  -11.0976  -15.3751 C   0  0  0  0  0  0  0  0  0  0  0  0
   16.2831  -10.6018  -16.4062 O   0  0  0  0  0  0  0  0  0  0  0  0
   13.5629   -9.7081  -10.4861 N   0  0  0  0  0  0  0  0  0  0  0  0
   13.2074   -8.6104  -11.3041 C   0  0  0  0  0  0  0  0  0  0  0  0
   12.2251   -7.9061  -11.0114 O   0  0  0  0  0  0  0  0  0  0  0  0
   14.0240   -8.3267  -12.5013 C   0  0  0  0  0  0  0  0  0  0  0  0
   15.0126   -9.3861  -12.7926 C   0  0  0  0  0  0  0  0  0  0  0  0
   15.8917   -9.1983  -14.0000 C   0  0  2  0  0  0  0  0  0  0  0  0
   16.6710  -10.4465  -14.1315 N   0  0  0  0  0  0  0  0  0  0  0  0
   16.8574   -8.1212  -13.7544 C   0  0  0  0  0  0  0  0  0  0  0  0
   17.8708   -8.4412  -13.0244 O   0  0  0  0  0  0  0  0  0  0  0  0
   16.7869   -6.7956  -14.2353 N   0  0  0  0  0  0  0  0  0  0  0  0
   18.0042   -6.0205  -14.2887 C   0  0  1  0  0  0  0  0  0  0  0  0
   18.9728   -6.5952  -15.3000 C   0  0  0  0  0  0  0  0  0  0  0  0
   19.9564   -7.4364  -14.6010 C   0  0  0  0  0  0  0  0  0  0  0  0
   20.1374   -7.6749  -13.2543 C   0  0  0  0  0  0  0  0  0  0  0  0
   21.2020   -8.5070  -13.1131 N   0  0  0  0  0  0  0  0  0  0  0  0
   21.6816   -8.7892  -14.3112 C   0  0  0  0  0  0  0  0  0  0  0  0
   20.9379   -8.1481  -15.2232 N   0  0  0  0  0  0  0  0  0  0  0  0
   17.6491   -4.6211  -14.5498 C   0  0  0  0  0  0  0  0  0  0  0  0
   18.5447   -3.7235  -14.5603 O   0  0  0  0  0  0  0  0  0  0  0  0
   16.3435   -4.2506  -14.7908 O   0  0  0  0  0  0  0  0  0  0  0  0
  2  1  1  6
  2  4  1  0
  3  2  1  0
  4  5  2  0
  7  6  1  0
  7  9  1  0
  8  7  2  0
 10  9  1  0
 11 10  1  1
 11 13  1  0
 12 11  1  0
 12  4  1  0
 13 14  2  0
 15 16  1  0
 15 13  1  0
 16 23  1  0
 16 17  1  6
 18 17  1  0
 18 19  2  0
 20 19  1  0
 21 20  1  0
 22 21  2  0
 22 18  1  0
 23 24  2  0
 23 25  1  0
M  END
$$$$
