AQH.pdb
     RDKit          3D

 25 25  0  0  1  0  0  0  0  0999 V2000
   25.4919  -13.3417  -19.1536 C   0  0  0  0  0  0  0  0  0  0  0  0
   26.3224  -14.5793  -19.2816 C   0  0  2  0  0  0  0  0  0  0  0  0
   26.8879  -14.7050  -20.5988 N   0  0  0  0  0  0  0  0  0  0  0  0
   25.5331  -15.8128  -18.9558 C   0  0  0  0  0  0  0  0  0  0  0  0
   24.5014  -16.0369  -19.6381 O   0  0  0  0  0  0  0  0  0  0  0  0
   27.9737  -20.6561  -16.0523 N   0  0  0  0  0  0  0  0  0  0  0  0
   26.6239  -21.0740  -15.9907 C   0  0  0  0  0  0  0  0  0  0  0  0
   26.3339  -22.1776  -15.4960 O   0  0  0  0  0  0  0  0  0  0  0  0
   25.5803  -20.1755  -16.5237 C   0  0  0  0  0  0  0  0  0  0  0  0
   26.1222  -18.9032  -17.0453 C   0  0  0  0  0  0  0  0  0  0  0  0
   25.1479  -17.9416  -17.6712 C   0  0  2  0  0  0  0  0  0  0  0  0
   25.9108  -16.7032  -17.9297 N   0  0  0  0  0  0  0  0  0  0  0  0
   24.0957  -17.5964  -16.7085 C   0  0  0  0  0  0  0  0  0  0  0  0
   24.4577  -16.8167  -15.7475 O   0  0  0  0  0  0  0  0  0  0  0  0
   22.7504  -18.0240  -16.7359 N   0  0  0  0  0  0  0  0  0  0  0  0
   21.8878  -17.6425  -15.6423 C   0  0  1  0  0  0  0  0  0  0  0  0
   20.9072  -16.5714  -16.0692 C   0  0  0  0  0  0  0  0  0  0  0  0
   20.0069  -16.2674  -14.9463 C   0  0  0  0  0  0  0  0  0  0  0  0
   20.1781  -15.4369  -13.8582 C   0  0  0  0  0  0  0  0  0  0  0  0
   19.0635  -15.5189  -13.0858 N   0  0  0  0  0  0  0  0  0  0  0  0
   18.2173  -16.3615  -13.6506 C   0  0  0  0  0  0  0  0  0  0  0  0
   18.7742  -16.8235  -14.7786 N   0  0  0  0  0  0  0  0  0  0  0  0
   21.2413  -18.8520  -15.1210 C   0  0  0  0  0  0  0  0  0  0  0  0
   21.0979  -19.8720  -15.8607 O   0  0  0  0  0  0  0  0  0  0  0  0
   20.7795  -18.9102  -13.8237 O   0  0  0  0  0  0  0  0  0  0  0  0
  2  1  1  6
  2  4  1  0
  3  2  1  0
  4  5  2  0
  7  6  1  0
  7  9  1  0
  8  7  2  0
 10  9  1  0
 11 10  1  1
 11 13  1  0
 12 11  1  0
 12  4  1  0
 13 14  2  0
 15 16  1  0
 15 13  1  0
 16 23  1  0
 16 17  1  6
 18 17  1  0
 18 19  2  0
 20 19  1  0
 21 20  1  0
 22 21  2  0
 22 18  1  0
 23 24  2  0
 23 25  1  0
M  END
$$$$
