AQH.pdb
     RDKit          3D

 25 25  0  0  1  0  0  0  0  0999 V2000
   43.9480   -9.6881   -9.3610 C   0  0  0  0  0  0  0  0  0  0  0  0
   42.7312  -10.1626   -8.6317 C   0  0  2  0  0  0  0  0  0  0  0  0
   42.6285  -11.5978   -8.6485 N   0  0  0  0  0  0  0  0  0  0  0  0
   41.4772   -9.5643   -9.1973 C   0  0  0  0  0  0  0  0  0  0  0  0
   41.3618   -9.5377  -10.4487 O   0  0  0  0  0  0  0  0  0  0  0  0
   35.9939   -9.6199   -6.4969 N   0  0  0  0  0  0  0  0  0  0  0  0
   37.2123  -10.3056   -6.2832 C   0  0  0  0  0  0  0  0  0  0  0  0
   37.3145  -11.1207   -5.3495 O   0  0  0  0  0  0  0  0  0  0  0  0
   38.3467  -10.0307   -7.1877 C   0  0  0  0  0  0  0  0  0  0  0  0
   38.0904   -8.9077   -8.1137 C   0  0  0  0  0  0  0  0  0  0  0  0
   39.2388   -8.4389   -8.9666 C   0  0  2  0  0  0  0  0  0  0  0  0
   40.4520   -9.0447   -8.3804 N   0  0  0  0  0  0  0  0  0  0  0  0
   39.3921   -6.9846   -8.8455 C   0  0  0  0  0  0  0  0  0  0  0  0
   39.7372   -6.5588   -7.6785 O   0  0  0  0  0  0  0  0  0  0  0  0
   39.2061   -6.0264   -9.8657 N   0  0  0  0  0  0  0  0  0  0  0  0
   39.3906   -4.6321   -9.5378 C   0  0  1  0  0  0  0  0  0  0  0  0
   40.6046   -4.0627  -10.2398 C   0  0  0  0  0  0  0  0  0  0  0  0
   40.7445   -2.6422   -9.8845 C   0  0  0  0  0  0  0  0  0  0  0  0
   41.1312   -2.0469   -8.7016 C   0  0  0  0  0  0  0  0  0  0  0  0
   41.0743   -0.6999   -8.8694 N   0  0  0  0  0  0  0  0  0  0  0  0
   40.6704   -0.4426  -10.1006 C   0  0  0  0  0  0  0  0  0  0  0  0
   40.4664   -1.6089  -10.7283 N   0  0  0  0  0  0  0  0  0  0  0  0
   38.1476   -3.9169   -9.8480 C   0  0  0  0  0  0  0  0  0  0  0  0
   37.3597   -4.3571  -10.7387 O   0  0  0  0  0  0  0  0  0  0  0  0
   37.8068   -2.7591   -9.1824 O   0  0  0  0  0  0  0  0  0  0  0  0
  2  1  1  6
  2  4  1  0
  3  2  1  0
  4  5  2  0
  7  6  1  0
  7  9  1  0
  8  7  2  0
 10  9  1  0
 11 10  1  1
 11 13  1  0
 12 11  1  0
 12  4  1  0
 13 14  2  0
 15 16  1  0
 15 13  1  0
 16 23  1  0
 16 17  1  6
 18 17  1  0
 18 19  2  0
 20 19  1  0
 21 20  1  0
 22 21  2  0
 22 18  1  0
 23 24  2  0
 23 25  1  0
M  END
$$$$
