AQH.pdb
     RDKit          3D

 25 25  0  0  1  0  0  0  0  0999 V2000
   15.4133  -12.7177  -16.5354 C   0  0  0  0  0  0  0  0  0  0  0  0
   16.7535  -13.3710  -16.6564 C   0  0  2  0  0  0  0  0  0  0  0  0
   16.8056  -14.6134  -15.9323 N   0  0  0  0  0  0  0  0  0  0  0  0
   17.8548  -12.4690  -16.1829 C   0  0  0  0  0  0  0  0  0  0  0  0
   17.9583  -12.2831  -14.9440 O   0  0  0  0  0  0  0  0  0  0  0  0
   23.1380  -12.0436  -19.0954 N   0  0  0  0  0  0  0  0  0  0  0  0
   23.3877  -11.0064  -18.1668 C   0  0  0  0  0  0  0  0  0  0  0  0
   24.5043  -10.4604  -18.1261 O   0  0  0  0  0  0  0  0  0  0  0  0
   22.2998  -10.5944  -17.2572 C   0  0  0  0  0  0  0  0  0  0  0  0
   21.0361  -11.3219  -17.4984 C   0  0  0  0  0  0  0  0  0  0  0  0
   19.8854  -11.0352  -16.5713 C   0  0  2  0  0  0  0  0  0  0  0  0
   18.7527  -11.8415  -17.0707 N   0  0  0  0  0  0  0  0  0  0  0  0
   19.4863   -9.6280  -16.6880 C   0  0  0  0  0  0  0  0  0  0  0  0
   18.9869   -9.2860  -17.8265 O   0  0  0  0  0  0  0  0  0  0  0  0
   19.5902   -8.6336  -15.6912 N   0  0  0  0  0  0  0  0  0  0  0  0
   19.2525   -7.2740  -16.0419 C   0  0  1  0  0  0  0  0  0  0  0  0
   18.0897   -6.7700  -15.2143 C   0  0  0  0  0  0  0  0  0  0  0  0
   17.8377   -5.3593  -15.5465 C   0  0  0  0  0  0  0  0  0  0  0  0
   18.4464   -4.5316  -16.4670 C   0  0  0  0  0  0  0  0  0  0  0  0
   17.8717   -3.3040  -16.3748 N   0  0  0  0  0  0  0  0  0  0  0  0
   16.9390   -3.3415  -15.4402 C   0  0  0  0  0  0  0  0  0  0  0  0
   16.9061   -4.5798  -14.9288 N   0  0  0  0  0  0  0  0  0  0  0  0
   20.4604   -6.4511  -15.9143 C   0  0  0  0  0  0  0  0  0  0  0  0
   20.4682   -5.2543  -16.3334 O   0  0  0  0  0  0  0  0  0  0  0  0
   21.6071   -6.9536  -15.3378 O   0  0  0  0  0  0  0  0  0  0  0  0
  2  1  1  1
  2  4  1  0
  3  2  1  0
  4  5  2  0
  7  6  1  0
  7  9  1  0
  8  7  2  0
 10  9  1  0
 11 10  1  6
 11 13  1  0
 12 11  1  0
 12  4  1  0
 13 14  2  0
 15 16  1  0
 15 13  1  0
 16 23  1  0
 16 17  1  1
 18 17  1  0
 18 19  2  0
 20 19  1  0
 21 20  1  0
 22 21  2  0
 22 18  1  0
 23 24  2  0
 23 25  1  0
M  END
$$$$
