AQH.pdb
     RDKit          3D

 25 25  0  0  1  0  0  0  0  0999 V2000
   19.0604  -14.2614  -16.2440 C   0  0  0  0  0  0  0  0  0  0  0  0
   18.0307  -13.3823  -15.6078 C   0  0  2  0  0  0  0  0  0  0  0  0
   16.6972  -13.8646  -15.8521 N   0  0  0  0  0  0  0  0  0  0  0  0
   18.1444  -11.9633  -16.0810 C   0  0  0  0  0  0  0  0  0  0  0  0
   18.3445  -11.7764  -17.3079 O   0  0  0  0  0  0  0  0  0  0  0  0
   15.4976   -8.2473  -17.5597 N   0  0  0  0  0  0  0  0  0  0  0  0
   15.8962   -7.1418  -16.7726 C   0  0  0  0  0  0  0  0  0  0  0  0
   15.6549   -5.9835  -17.1554 O   0  0  0  0  0  0  0  0  0  0  0  0
   16.5987   -7.3970  -15.4990 C   0  0  0  0  0  0  0  0  0  0  0  0
   16.7871   -8.8361  -15.2194 C   0  0  0  0  0  0  0  0  0  0  0  0
   18.0570   -9.4759  -15.7131 C   0  0  2  0  0  0  0  0  0  0  0  0
   18.0351  -10.8632  -15.2058 N   0  0  0  0  0  0  0  0  0  0  0  0
   19.2189   -8.8207  -15.1016 C   0  0  0  0  0  0  0  0  0  0  0  0
   19.3331   -8.9720  -13.8263 O   0  0  0  0  0  0  0  0  0  0  0  0
   20.2067   -8.0597  -15.7637 N   0  0  0  0  0  0  0  0  0  0  0  0
   21.3150   -7.5530  -14.9887 C   0  0  1  0  0  0  0  0  0  0  0  0
   22.6105   -7.6430  -15.7662 C   0  0  0  0  0  0  0  0  0  0  0  0
   23.0686   -9.0408  -15.7789 C   0  0  0  0  0  0  0  0  0  0  0  0
   22.5592  -10.1578  -15.1498 C   0  0  0  0  0  0  0  0  0  0  0  0
   23.3576  -11.2140  -15.4544 N   0  0  0  0  0  0  0  0  0  0  0  0
   24.3328  -10.7954  -16.2411 C   0  0  0  0  0  0  0  0  0  0  0  0
   24.1718   -9.4810  -16.4469 N   0  0  0  0  0  0  0  0  0  0  0  0
   20.9886   -6.1905  -14.5532 C   0  0  0  0  0  0  0  0  0  0  0  0
   21.8006   -5.5361  -13.8316 O   0  0  0  0  0  0  0  0  0  0  0  0
   19.8016   -5.5915  -14.9166 O   0  0  0  0  0  0  0  0  0  0  0  0
  2  1  1  6
  2  4  1  0
  3  2  1  0
  4  5  2  0
  7  6  1  0
  7  9  1  0
  8  7  2  0
 10  9  1  0
 11 10  1  1
 11 13  1  0
 12 11  1  0
 12  4  1  0
 13 14  2  0
 15 16  1  0
 15 13  1  0
 16 23  1  0
 16 17  1  6
 18 17  1  0
 18 19  2  0
 20 19  1  0
 21 20  1  0
 22 21  2  0
 22 18  1  0
 23 24  2  0
 23 25  1  0
M  END
$$$$
