AQH.pdb
     RDKit          3D

 25 25  0  0  1  0  0  0  0  0999 V2000
   35.8356  -29.0615  -19.5552 C   0  0  0  0  0  0  0  0  0  0  0  0
   34.6825  -28.5856  -18.7296 C   0  0  2  0  0  0  0  0  0  0  0  0
   34.5206  -29.3765  -17.5385 N   0  0  0  0  0  0  0  0  0  0  0  0
   33.4020  -28.5896  -19.5111 C   0  0  0  0  0  0  0  0  0  0  0  0
   33.3352  -27.8384  -20.5168 O   0  0  0  0  0  0  0  0  0  0  0  0
   28.2684  -30.5978  -22.9625 N   0  0  0  0  0  0  0  0  0  0  0  0
   29.4810  -30.9119  -22.3058 C   0  0  0  0  0  0  0  0  0  0  0  0
   30.5436  -30.9668  -22.9496 O   0  0  0  0  0  0  0  0  0  0  0  0
   29.4518  -31.1702  -20.8522 C   0  0  0  0  0  0  0  0  0  0  0  0
   30.7328  -30.8609  -20.1829 C   0  0  0  0  0  0  0  0  0  0  0  0
   31.0674  -29.4092  -19.9673 C   0  0  2  0  0  0  0  0  0  0  0  0
   32.3007  -29.3945  -19.1541 N   0  0  0  0  0  0  0  0  0  0  0  0
   30.0221  -28.7682  -19.1613 C   0  0  0  0  0  0  0  0  0  0  0  0
   29.8496  -29.2623  -17.9830 O   0  0  0  0  0  0  0  0  0  0  0  0
   29.2068  -27.6807  -19.5433 N   0  0  0  0  0  0  0  0  0  0  0  0
   28.2341  -27.1879  -18.5963 C   0  0  1  0  0  0  0  0  0  0  0  0
   28.3811  -25.6957  -18.3900 C   0  0  0  0  0  0  0  0  0  0  0  0
   27.3498  -25.2357  -17.4474 C   0  0  0  0  0  0  0  0  0  0  0  0
   27.1463  -25.5455  -16.1185 C   0  0  0  0  0  0  0  0  0  0  0  0
   26.0389  -24.8817  -15.6959 N   0  0  0  0  0  0  0  0  0  0  0  0
   25.5545  -24.1796  -16.7045 C   0  0  0  0  0  0  0  0  0  0  0  0
   26.3375  -24.3835  -17.7728 N   0  0  0  0  0  0  0  0  0  0  0  0
   26.8991  -27.5852  -19.0574 C   0  0  0  0  0  0  0  0  0  0  0  0
   26.7067  -27.8982  -20.2710 O   0  0  0  0  0  0  0  0  0  0  0  0
   25.8297  -27.6300  -18.1890 O   0  0  0  0  0  0  0  0  0  0  0  0
  2  1  1  6
  2  4  1  0
  3  2  1  0
  4  5  2  0
  7  6  1  0
  7  9  1  0
  8  7  2  0
 10  9  1  0
 11 10  1  1
 11 13  1  0
 12 11  1  0
 12  4  1  0
 13 14  2  0
 15 16  1  0
 15 13  1  0
 16 23  1  0
 16 17  1  6
 18 17  1  0
 18 19  2  0
 20 19  1  0
 21 20  1  0
 22 21  2  0
 22 18  1  0
 23 24  2  0
 23 25  1  0
M  END
$$$$
