AQH.pdb
     RDKit          3D

 25 25  0  0  1  0  0  0  0  0999 V2000
   22.6921  -13.2729  -15.9330 C   0  0  0  0  0  0  0  0  0  0  0  0
   21.4913  -13.7372  -16.6948 C   0  0  2  0  0  0  0  0  0  0  0  0
   21.8532  -14.2737  -17.9800 N   0  0  0  0  0  0  0  0  0  0  0  0
   20.4897  -12.6353  -16.8763 C   0  0  0  0  0  0  0  0  0  0  0  0
   20.6443  -11.8687  -17.8605 O   0  0  0  0  0  0  0  0  0  0  0  0
   15.9650  -13.9394  -14.0188 N   0  0  0  0  0  0  0  0  0  0  0  0
   15.7573  -14.0959  -15.4090 C   0  0  0  0  0  0  0  0  0  0  0  0
   15.0963  -15.0584  -15.8371 O   0  0  0  0  0  0  0  0  0  0  0  0
   16.3399  -13.0975  -16.3280 C   0  0  0  0  0  0  0  0  0  0  0  0
   17.0911  -12.0344  -15.6278 C   0  0  0  0  0  0  0  0  0  0  0  0
   18.3206  -11.4942  -16.3077 C   0  0  2  0  0  0  0  0  0  0  0  0
   19.4076  -12.4439  -15.9928 N   0  0  0  0  0  0  0  0  0  0  0  0
   18.6982  -10.2074  -15.7122 C   0  0  0  0  0  0  0  0  0  0  0  0
   19.5598  -10.2710  -14.7551 O   0  0  0  0  0  0  0  0  0  0  0  0
   18.2213   -8.9312  -16.0828 N   0  0  0  0  0  0  0  0  0  0  0  0
   18.8209   -7.7705  -15.4673 C   0  0  1  0  0  0  0  0  0  0  0  0
   20.3234   -7.7711  -15.6503 C   0  0  0  0  0  0  0  0  0  0  0  0
   20.8699   -6.4996  -15.1518 C   0  0  0  0  0  0  0  0  0  0  0  0
   21.0601   -5.2923  -15.7918 C   0  0  0  0  0  0  0  0  0  0  0  0
   21.6231   -4.4298  -14.9058 N   0  0  0  0  0  0  0  0  0  0  0  0
   21.7866   -5.0531  -13.7527 C   0  0  0  0  0  0  0  0  0  0  0  0
   21.3352   -6.3079  -13.8855 N   0  0  0  0  0  0  0  0  0  0  0  0
   18.1673   -6.5728  -16.0068 C   0  0  0  0  0  0  0  0  0  0  0  0
   17.3941   -6.6603  -17.0081 O   0  0  0  0  0  0  0  0  0  0  0  0
   18.3738   -5.3328  -15.4415 O   0  0  0  0  0  0  0  0  0  0  0  0
  2  1  1  6
  2  4  1  0
  3  2  1  0
  4  5  2  0
  7  6  1  0
  7  9  1  0
  8  7  2  0
 10  9  1  0
 11 10  1  1
 11 13  1  0
 12 11  1  0
 12  4  1  0
 13 14  2  0
 15 16  1  0
 15 13  1  0
 16 23  1  0
 16 17  1  6
 18 17  1  0
 18 19  2  0
 20 19  1  0
 21 20  1  0
 22 21  2  0
 22 18  1  0
 23 24  2  0
 23 25  1  0
M  END
$$$$
