AQH.pdb
     RDKit          3D

 25 25  0  0  1  0  0  0  0  0999 V2000
   14.9306  -10.9983  -14.2311 C   0  0  0  0  0  0  0  0  0  0  0  0
   16.4012  -11.1923  -14.0378 C   0  0  2  0  0  0  0  0  0  0  0  0
   16.7369  -12.5827  -13.8811 N   0  0  0  0  0  0  0  0  0  0  0  0
   16.9124  -10.4179  -12.8590 C   0  0  0  0  0  0  0  0  0  0  0  0
   16.8361  -10.9650  -11.7298 O   0  0  0  0  0  0  0  0  0  0  0  0
   21.1604   -6.1106  -13.6929 N   0  0  0  0  0  0  0  0  0  0  0  0
   21.1842   -6.1278  -12.2789 C   0  0  0  0  0  0  0  0  0  0  0  0
   22.0266   -5.4536  -11.6604 O   0  0  0  0  0  0  0  0  0  0  0  0
   20.1938   -6.9584  -11.5648 C   0  0  0  0  0  0  0  0  0  0  0  0
   19.3274   -7.7372  -12.4744 C   0  0  0  0  0  0  0  0  0  0  0  0
   18.1740   -8.4840  -11.8597 C   0  0  2  0  0  0  0  0  0  0  0  0
   17.4618   -9.1254  -12.9840 N   0  0  0  0  0  0  0  0  0  0  0  0
   17.2334   -7.5383  -11.2481 C   0  0  0  0  0  0  0  0  0  0  0  0
   16.4808   -6.8935  -12.0728 O   0  0  0  0  0  0  0  0  0  0  0  0
   17.0734   -7.2758   -9.8701 N   0  0  0  0  0  0  0  0  0  0  0  0
   16.1932   -6.2012   -9.4751 C   0  0  1  0  0  0  0  0  0  0  0  0
   15.4564   -6.5414   -8.1975 C   0  0  0  0  0  0  0  0  0  0  0  0
   14.3310   -7.4344   -8.5135 C   0  0  0  0  0  0  0  0  0  0  0  0
   13.8615   -7.8912   -9.7275 C   0  0  0  0  0  0  0  0  0  0  0  0
   12.7767   -8.6745   -9.4921 N   0  0  0  0  0  0  0  0  0  0  0  0
   12.5599   -8.7184   -8.1898 C   0  0  0  0  0  0  0  0  0  0  0  0
   13.4931   -7.9721   -7.5830 N   0  0  0  0  0  0  0  0  0  0  0  0
   16.9829   -4.9681   -9.3834 C   0  0  0  0  0  0  0  0  0  0  0  0
   18.2436   -5.0026   -9.5157 O   0  0  0  0  0  0  0  0  0  0  0  0
   16.3786   -3.7505   -9.1553 O   0  0  0  0  0  0  0  0  0  0  0  0
  2  1  1  1
  2  4  1  0
  3  2  1  0
  4  5  2  0
  7  6  1  0
  7  9  1  0
  8  7  2  0
 10  9  1  0
 11 10  1  6
 11 13  1  0
 12 11  1  0
 12  4  1  0
 13 14  2  0
 15 16  1  0
 15 13  1  0
 16 23  1  0
 16 17  1  1
 18 17  1  0
 18 19  2  0
 20 19  1  0
 21 20  1  0
 22 21  2  0
 22 18  1  0
 23 24  2  0
 23 25  1  0
M  END
$$$$
