AQH.pdb
     RDKit          3D

 25 25  0  0  1  0  0  0  0  0999 V2000
   27.3976  -34.1894   -3.4738 C   0  0  0  0  0  0  0  0  0  0  0  0
   26.2982  -33.7569   -2.5562 C   0  0  2  0  0  0  0  0  0  0  0  0
   26.2308  -32.3237   -2.4473 N   0  0  0  0  0  0  0  0  0  0  0  0
   26.4489  -34.3563   -1.1892 C   0  0  0  0  0  0  0  0  0  0  0  0
   26.1423  -35.5676   -1.0512 O   0  0  0  0  0  0  0  0  0  0  0  0
   31.1096  -33.1511    2.2629 N   0  0  0  0  0  0  0  0  0  0  0  0
   30.3970  -33.8657    3.2538 C   0  0  0  0  0  0  0  0  0  0  0  0
   30.9310  -34.1152    4.3489 O   0  0  0  0  0  0  0  0  0  0  0  0
   29.0182  -34.3030    2.9566 C   0  0  0  0  0  0  0  0  0  0  0  0
   28.5613  -33.9027    1.6092 C   0  0  0  0  0  0  0  0  0  0  0  0
   27.1489  -34.2545    1.2253 C   0  0  2  0  0  0  0  0  0  0  0  0
   26.9139  -33.6133   -0.0847 N   0  0  0  0  0  0  0  0  0  0  0  0
   26.2060  -33.6443    2.1696 C   0  0  0  0  0  0  0  0  0  0  0  0
   26.0487  -32.3701    2.0505 O   0  0  0  0  0  0  0  0  0  0  0  0
   25.4657  -34.3064    3.1730 N   0  0  0  0  0  0  0  0  0  0  0  0
   24.6789  -33.5079    4.0834 C   0  0  1  0  0  0  0  0  0  0  0  0
   23.3665  -34.1874    4.4104 C   0  0  0  0  0  0  0  0  0  0  0  0
   22.4654  -34.0771    3.2530 C   0  0  0  0  0  0  0  0  0  0  0  0
   22.6434  -34.4542    1.9380 C   0  0  0  0  0  0  0  0  0  0  0  0
   21.5243  -34.1143    1.2469 N   0  0  0  0  0  0  0  0  0  0  0  0
   20.6689  -33.5462    2.0779 C   0  0  0  0  0  0  0  0  0  0  0  0
   21.2243  -33.5162    3.2971 N   0  0  0  0  0  0  0  0  0  0  0  0
   25.4966  -33.2168    5.2664 C   0  0  0  0  0  0  0  0  0  0  0  0
   25.0251  -32.5220    6.2166 O   0  0  0  0  0  0  0  0  0  0  0  0
   26.7867  -33.6897    5.3745 O   0  0  0  0  0  0  0  0  0  0  0  0
  2  1  1  6
  2  4  1  0
  3  2  1  0
  4  5  2  0
  7  6  1  0
  7  9  1  0
  8  7  2  0
 10  9  1  0
 11 10  1  1
 11 13  1  0
 12 11  1  0
 12  4  1  0
 13 14  2  0
 15 16  1  0
 15 13  1  0
 16 23  1  0
 16 17  1  1
 18 17  1  0
 18 19  2  0
 20 19  1  0
 21 20  1  0
 22 21  2  0
 22 18  1  0
 23 24  2  0
 23 25  1  0
M  END
$$$$
