AQH.pdb
     RDKit          3D

 25 25  0  0  1  0  0  0  0  0999 V2000
   24.1117   -9.8850  -22.3034 C   0  0  0  0  0  0  0  0  0  0  0  0
   24.0855  -10.6645  -21.0269 C   0  0  2  0  0  0  0  0  0  0  0  0
   23.7294  -12.0403  -21.2524 N   0  0  0  0  0  0  0  0  0  0  0  0
   23.1433  -10.0607  -20.0278 C   0  0  0  0  0  0  0  0  0  0  0  0
   22.1061   -9.5064  -20.4718 O   0  0  0  0  0  0  0  0  0  0  0  0
   21.8176  -12.7577  -14.9146 N   0  0  0  0  0  0  0  0  0  0  0  0
   21.1215  -11.5611  -14.6248 C   0  0  0  0  0  0  0  0  0  0  0  0
   20.3482  -11.5086  -13.6523 O   0  0  0  0  0  0  0  0  0  0  0  0
   21.3347  -10.3896  -15.4982 C   0  0  0  0  0  0  0  0  0  0  0  0
   22.2085  -10.6802  -16.6543 C   0  0  0  0  0  0  0  0  0  0  0  0
   22.3929   -9.5878  -17.6733 C   0  0  2  0  0  0  0  0  0  0  0  0
   23.3867  -10.0991  -18.6395 N   0  0  0  0  0  0  0  0  0  0  0  0
   22.9890   -8.4063  -17.0393 C   0  0  0  0  0  0  0  0  0  0  0  0
   24.2467   -8.2322  -17.2634 O   0  0  0  0  0  0  0  0  0  0  0  0
   22.3292   -7.4582  -16.2275 N   0  0  0  0  0  0  0  0  0  0  0  0
   22.9530   -6.1703  -16.0331 C   0  0  1  0  0  0  0  0  0  0  0  0
   23.3013   -5.5274  -17.3584 C   0  0  0  0  0  0  0  0  0  0  0  0
   23.9078   -4.2104  -17.1102 C   0  0  0  0  0  0  0  0  0  0  0  0
   25.0224   -3.8596  -16.3769 C   0  0  0  0  0  0  0  0  0  0  0  0
   25.1545   -2.5086  -16.4312 N   0  0  0  0  0  0  0  0  0  0  0  0
   24.1722   -2.0155  -17.1638 C   0  0  0  0  0  0  0  0  0  0  0  0
   23.4082   -3.0339  -17.5825 N   0  0  0  0  0  0  0  0  0  0  0  0
   22.0666   -5.3494  -15.2006 C   0  0  0  0  0  0  0  0  0  0  0  0
   20.8844   -5.7336  -14.9503 O   0  0  0  0  0  0  0  0  0  0  0  0
   22.4944   -4.1505  -14.6719 O   0  0  0  0  0  0  0  0  0  0  0  0
  2  1  1  6
  2  4  1  0
  3  2  1  0
  4  5  2  0
  7  6  1  0
  7  9  1  0
  8  7  2  0
 10  9  1  0
 11 10  1  1
 11 13  1  0
 12 11  1  0
 12  4  1  0
 13 14  2  0
 15 16  1  0
 15 13  1  0
 16 23  1  0
 16 17  1  6
 18 17  1  0
 18 19  2  0
 20 19  1  0
 21 20  1  0
 22 21  2  0
 22 18  1  0
 23 24  2  0
 23 25  1  0
M  END
$$$$
