VIW.pdb
     RDKit          3D

 30 31  0  0  1  0  0  0  0  0999 V2000
   20.7006  -18.0836  -16.3771 C   0  0  0  0  0  0  0  0  0  0  0  0
   21.9424  -18.8492  -16.0228 C   0  0  1  0  0  0  0  0  0  0  0  0
   22.9490  -18.6967  -17.1334 C   0  0  0  0  0  0  0  0  0  0  0  0
   22.5103  -18.4165  -14.6817 C   0  0  2  0  0  0  0  0  0  0  0  0
   22.6746  -16.9926  -14.6236 N   0  0  0  0  0  0  0  0  0  0  0  0
   23.7261  -19.1674  -14.3304 C   0  0  0  0  0  0  0  0  0  0  0  0
   23.6553  -20.4197  -14.2794 O   0  0  0  0  0  0  0  0  0  0  0  0
   28.2471  -18.3037  -16.8045 C   0  0  0  0  0  0  0  0  0  0  0  0
   27.1268  -18.8595  -16.0119 C   0  0  0  0  0  0  0  0  0  0  0  0
   27.3550  -18.8669  -14.4976 C   0  0  2  0  0  0  0  0  0  0  0  0
   28.6667  -19.5003  -14.1909 C   0  0  0  0  0  0  0  0  0  0  0  0
   26.1658  -19.4337  -13.7736 C   0  0  2  0  0  0  0  0  0  0  0  0
   24.9821  -18.5855  -14.0419 N   0  0  0  0  0  0  0  0  0  0  0  0
   26.3114  -19.4963  -12.3009 C   0  0  0  0  0  0  0  0  0  0  0  0
   26.1029  -18.4740  -11.5949 O   0  0  0  0  0  0  0  0  0  0  0  0
   26.6763  -20.6395  -11.5553 N   0  0  0  0  0  0  0  0  0  0  0  0
   26.8285  -20.6819  -10.1242 C   0  0  1  0  0  0  0  0  0  0  0  0
   25.7831  -20.0002   -9.3559 C   0  0  0  0  0  0  0  0  0  0  0  0
   25.9544  -20.2272   -7.9011 C   0  0  0  0  0  0  0  0  0  0  0  0
   25.1810  -21.0785   -7.1101 C   0  0  0  0  0  0  0  0  0  0  0  0
   25.6467  -21.0645   -5.8603 N   0  0  0  0  0  0  0  0  0  0  0  0
   26.7133  -20.2276   -5.7797 C   0  0  0  0  0  0  0  0  0  0  0  0
   27.5327  -19.8455   -4.7585 C   0  0  0  0  0  0  0  0  0  0  0  0
   28.5697  -18.9477   -4.9038 C   0  0  0  0  0  0  0  0  0  0  0  0
   28.7489  -18.4338   -6.1727 C   0  0  0  0  0  0  0  0  0  0  0  0
   27.9378  -18.7998   -7.2272 C   0  0  0  0  0  0  0  0  0  0  0  0
   26.8998  -19.7108   -7.0460 C   0  0  0  0  0  0  0  0  0  0  0  0
   27.2052  -22.0228   -9.6910 C   0  0  0  0  0  0  0  0  0  0  0  0
   26.6791  -23.0589  -10.1951 O   0  0  0  0  0  0  0  0  0  0  0  0
   28.1669  -22.2886   -8.7041 O   0  0  0  0  0  0  0  0  0  0  0  0
  2  1  1  6
  3  2  1  0
  4  2  1  0
  4  5  1  6
  6  4  1  0
  6  7  2  0
  9 10  1  0
  9  8  1  0
 10 12  1  0
 10 11  1  6
 12 13  1  1
 13  6  1  0
 14 12  1  0
 14 16  1  0
 15 14  2  0
 17 16  1  0
 17 28  1  0
 18 19  1  0
 17 18  1  1
 19 27  1  0
 20 21  1  0
 20 19  2  0
 21 22  1  0
 22 27  2  0
 22 23  1  0
 23 24  2  0
 24 25  1  0
 26 25  2  0
 27 26  1  0
 28 29  2  0
 28 30  1  0
M  END
$$$$
