VIW.pdb
     RDKit          3D

 30 31  0  0  1  0  0  0  0  0999 V2000
   27.8182  -17.9505  -16.8722 C   0  0  0  0  0  0  0  0  0  0  0  0
   27.5241  -18.9992  -15.8390 C   0  0  1  0  0  0  0  0  0  0  0  0
   26.3061  -19.7790  -16.2612 C   0  0  0  0  0  0  0  0  0  0  0  0
   28.7193  -19.9051  -15.5965 C   0  0  2  0  0  0  0  0  0  0  0  0
   29.0020  -20.7101  -16.7498 N   0  0  0  0  0  0  0  0  0  0  0  0
   28.5796  -20.6803  -14.3535 C   0  0  0  0  0  0  0  0  0  0  0  0
   28.0940  -21.8355  -14.4268 O   0  0  0  0  0  0  0  0  0  0  0  0
   32.2478  -21.6205  -10.7739 C   0  0  0  0  0  0  0  0  0  0  0  0
   30.9863  -21.7389  -11.5400 C   0  0  0  0  0  0  0  0  0  0  0  0
   29.7910  -21.0068  -10.9233 C   0  0  2  0  0  0  0  0  0  0  0  0
   29.5345  -21.5299   -9.5535 C   0  0  0  0  0  0  0  0  0  0  0  0
   28.6141  -21.0077  -11.8585 C   0  0  2  0  0  0  0  0  0  0  0  0
   28.9524  -20.2237  -13.0683 N   0  0  0  0  0  0  0  0  0  0  0  0
   27.3811  -20.4061  -11.3004 C   0  0  0  0  0  0  0  0  0  0  0  0
   27.3106  -19.1642  -11.1011 O   0  0  0  0  0  0  0  0  0  0  0  0
   26.2065  -21.1078  -10.9484 N   0  0  0  0  0  0  0  0  0  0  0  0
   25.0670  -20.5344  -10.2809 C   0  0  1  0  0  0  0  0  0  0  0  0
   24.6007  -19.2511  -10.8137 C   0  0  0  0  0  0  0  0  0  0  0  0
   24.0919  -19.3998  -12.1980 C   0  0  0  0  0  0  0  0  0  0  0  0
   23.0794  -20.2690  -12.6077 C   0  0  0  0  0  0  0  0  0  0  0  0
   22.8555  -20.1028  -13.9120 N   0  0  0  0  0  0  0  0  0  0  0  0
   23.6873  -19.1465  -14.3999 C   0  0  0  0  0  0  0  0  0  0  0  0
   23.8791  -18.6115  -15.6398 C   0  0  0  0  0  0  0  0  0  0  0  0
   24.8150  -17.6369  -15.9168 C   0  0  0  0  0  0  0  0  0  0  0  0
   25.5769  -17.2111  -14.8470 C   0  0  0  0  0  0  0  0  0  0  0  0
   25.4079  -17.7317  -13.5804 C   0  0  0  0  0  0  0  0  0  0  0  0
   24.4518  -18.7144  -13.3348 C   0  0  0  0  0  0  0  0  0  0  0  0
   24.0571  -21.5559  -10.0273 C   0  0  0  0  0  0  0  0  0  0  0  0
   24.1724  -22.7339  -10.4782 O   0  0  0  0  0  0  0  0  0  0  0  0
   22.8933  -21.3403   -9.2732 O   0  0  0  0  0  0  0  0  0  0  0  0
  2  1  1  6
  3  2  1  0
  4  2  1  0
  4  5  1  6
  6  4  1  0
  6  7  2  0
  9 10  1  0
  9  8  1  0
 10 12  1  0
 10 11  1  1
 12 13  1  6
 13  6  1  0
 14 12  1  0
 14 16  1  0
 15 14  2  0
 17 16  1  0
 17 28  1  0
 18 19  1  0
 17 18  1  6
 19 27  1  0
 20 21  1  0
 20 19  2  0
 21 22  1  0
 22 27  2  0
 22 23  1  0
 23 24  2  0
 24 25  1  0
 26 25  2  0
 27 26  1  0
 28 29  2  0
 28 30  1  0
M  END
$$$$
