VIW.pdb
     RDKit          3D

 30 31  0  0  1  0  0  0  0  0999 V2000
   29.0862  -20.5681  -14.5284 C   0  0  0  0  0  0  0  0  0  0  0  0
   28.8102  -19.4413  -15.4811 C   0  0  1  0  0  0  0  0  0  0  0  0
   29.6130  -19.6515  -16.7386 C   0  0  0  0  0  0  0  0  0  0  0  0
   27.3264  -19.2994  -15.7748 C   0  0  2  0  0  0  0  0  0  0  0  0
   27.0865  -18.2735  -16.7483 N   0  0  0  0  0  0  0  0  0  0  0  0
   26.5339  -19.1449  -14.5445 C   0  0  0  0  0  0  0  0  0  0  0  0
   26.5508  -18.0319  -13.9643 O   0  0  0  0  0  0  0  0  0  0  0  0
   21.6099  -19.1581  -14.4538 C   0  0  0  0  0  0  0  0  0  0  0  0
   23.0396  -19.0542  -14.0830 C   0  0  0  0  0  0  0  0  0  0  0  0
   23.5014  -20.0589  -13.0234 C   0  0  2  0  0  0  0  0  0  0  0  0
   22.5881  -20.0050  -11.8492 C   0  0  0  0  0  0  0  0  0  0  0  0
   24.9658  -19.8970  -12.7255 C   0  0  2  0  0  0  0  0  0  0  0  0
   25.7457  -20.1609  -13.9563 N   0  0  0  0  0  0  0  0  0  0  0  0
   25.4911  -20.8176  -11.6909 C   0  0  0  0  0  0  0  0  0  0  0  0
   25.5569  -22.0560  -11.9126 O   0  0  0  0  0  0  0  0  0  0  0  0
   25.9561  -20.4419  -10.4108 N   0  0  0  0  0  0  0  0  0  0  0  0
   26.2610  -21.3537   -9.3391 C   0  0  1  0  0  0  0  0  0  0  0  0
   27.6025  -21.2272   -8.7627 C   0  0  0  0  0  0  0  0  0  0  0  0
   27.6459  -20.1563   -7.7386 C   0  0  0  0  0  0  0  0  0  0  0  0
   26.9034  -18.9744   -7.7601 C   0  0  0  0  0  0  0  0  0  0  0  0
   27.1647  -18.2686   -6.6590 N   0  0  0  0  0  0  0  0  0  0  0  0
   28.0638  -18.9366   -5.8910 C   0  0  0  0  0  0  0  0  0  0  0  0
   28.6673  -18.6638   -4.6986 C   0  0  0  0  0  0  0  0  0  0  0  0
   29.5847  -19.4991   -4.0959 C   0  0  0  0  0  0  0  0  0  0  0  0
   29.8765  -20.6647   -4.7759 C   0  0  0  0  0  0  0  0  0  0  0  0
   29.2836  -20.9706   -5.9836 C   0  0  0  0  0  0  0  0  0  0  0  0
   28.3595  -20.1050   -6.5640 C   0  0  0  0  0  0  0  0  0  0  0  0
   25.1418  -21.4384   -8.4077 C   0  0  0  0  0  0  0  0  0  0  0  0
   24.1080  -20.7187   -8.5402 O   0  0  0  0  0  0  0  0  0  0  0  0
   25.0998  -22.3075   -7.3066 O   0  0  0  0  0  0  0  0  0  0  0  0
  2  1  1  1
  3  2  1  0
  4  2  1  0
  4  5  1  6
  6  4  1  0
  6  7  2  0
  9 10  1  0
  9  8  1  0
 10 12  1  0
 10 11  1  1
 12 13  1  6
 13  6  1  0
 14 12  1  0
 14 16  1  0
 15 14  2  0
 17 16  1  0
 17 28  1  0
 18 19  1  0
 17 18  1  1
 19 27  1  0
 20 21  1  0
 20 19  2  0
 21 22  1  0
 22 27  2  0
 22 23  1  0
 23 24  2  0
 24 25  1  0
 26 25  2  0
 27 26  1  0
 28 29  2  0
 28 30  1  0
M  END
$$$$
