VIW.pdb
     RDKit          3D

 30 31  0  0  1  0  0  0  0  0999 V2000
   22.2160  -18.2045  -16.1869 C   0  0  0  0  0  0  0  0  0  0  0  0
   23.4225  -19.0798  -16.0085 C   0  0  1  0  0  0  0  0  0  0  0  0
   24.6657  -18.2482  -16.1900 C   0  0  0  0  0  0  0  0  0  0  0  0
   23.4103  -19.7931  -14.6672 C   0  0  2  0  0  0  0  0  0  0  0  0
   23.2444  -18.8636  -13.5872 N   0  0  0  0  0  0  0  0  0  0  0  0
   24.5696  -20.6853  -14.5073 C   0  0  0  0  0  0  0  0  0  0  0  0
   24.6769  -21.6633  -15.2869 O   0  0  0  0  0  0  0  0  0  0  0  0
   29.5448  -18.9159  -12.9711 C   0  0  0  0  0  0  0  0  0  0  0  0
   28.2470  -19.6081  -12.8008 C   0  0  0  0  0  0  0  0  0  0  0  0
   27.9933  -20.7471  -13.7924 C   0  0  2  0  0  0  0  0  0  0  0  0
   28.1118  -20.2355  -15.1852 C   0  0  0  0  0  0  0  0  0  0  0  0
   26.7198  -21.4759  -13.4657 C   0  0  2  0  0  0  0  0  0  0  0  0
   25.5843  -20.5281  -13.5352 N   0  0  0  0  0  0  0  0  0  0  0  0
   26.6818  -22.0771  -12.1126 C   0  0  0  0  0  0  0  0  0  0  0  0
   27.6056  -22.8426  -11.7281 O   0  0  0  0  0  0  0  0  0  0  0  0
   25.6697  -21.8753  -11.1478 N   0  0  0  0  0  0  0  0  0  0  0  0
   25.8847  -21.3865   -9.8107 C   0  0  1  0  0  0  0  0  0  0  0  0
   26.9948  -20.4427   -9.6524 C   0  0  0  0  0  0  0  0  0  0  0  0
   27.1137  -19.9878   -8.2466 C   0  0  0  0  0  0  0  0  0  0  0  0
   26.1469  -19.2778   -7.5327 C   0  0  0  0  0  0  0  0  0  0  0  0
   26.5771  -19.0768   -6.2863 N   0  0  0  0  0  0  0  0  0  0  0  0
   27.8084  -19.6291   -6.1336 C   0  0  0  0  0  0  0  0  0  0  0  0
   28.6841  -19.6986   -5.0902 C   0  0  0  0  0  0  0  0  0  0  0  0
   29.9181  -20.3104   -5.1657 C   0  0  0  0  0  0  0  0  0  0  0  0
   30.2403  -20.8692   -6.3865 C   0  0  0  0  0  0  0  0  0  0  0  0
   29.3770  -20.8164   -7.4615 C   0  0  0  0  0  0  0  0  0  0  0  0
   28.1370  -20.1917   -7.3505 C   0  0  0  0  0  0  0  0  0  0  0  0
   24.6149  -21.0308   -9.1874 C   0  0  0  0  0  0  0  0  0  0  0  0
   24.4509  -21.0806   -7.9324 O   0  0  0  0  0  0  0  0  0  0  0  0
   23.4828  -20.6037   -9.8985 O   0  0  0  0  0  0  0  0  0  0  0  0
  2  1  1  1
  3  2  1  0
  4  2  1  0
  4  5  1  1
  6  4  1  0
  6  7  2  0
  9 10  1  0
  9  8  1  0
 10 12  1  0
 10 11  1  6
 12 13  1  1
 13  6  1  0
 14 12  1  0
 14 16  1  0
 15 14  2  0
 17 16  1  0
 17 28  1  0
 18 19  1  0
 17 18  1  6
 19 27  1  0
 20 21  1  0
 20 19  2  0
 21 22  1  0
 22 27  2  0
 22 23  1  0
 23 24  2  0
 24 25  1  0
 26 25  2  0
 27 26  1  0
 28 29  2  0
 28 30  1  0
M  END
$$$$
