VIW.pdb
     RDKit          3D

 30 31  0  0  1  0  0  0  0  0999 V2000
   21.7650  -19.0509  -11.2813 C   0  0  0  0  0  0  0  0  0  0  0  0
   21.0309  -19.9974  -12.1864 C   0  0  1  0  0  0  0  0  0  0  0  0
   19.7552  -19.3447  -12.6517 C   0  0  0  0  0  0  0  0  0  0  0  0
   21.8936  -20.4479  -13.3530 C   0  0  2  0  0  0  0  0  0  0  0  0
   21.1402  -21.2458  -14.2769 N   0  0  0  0  0  0  0  0  0  0  0  0
   23.1413  -21.0845  -12.9017 C   0  0  0  0  0  0  0  0  0  0  0  0
   23.0705  -22.2246  -12.3813 O   0  0  0  0  0  0  0  0  0  0  0  0
   27.2804  -21.8612  -15.9148 C   0  0  0  0  0  0  0  0  0  0  0  0
   26.2863  -21.9048  -14.8185 C   0  0  0  0  0  0  0  0  0  0  0  0
   26.7074  -21.1710  -13.5420 C   0  0  2  0  0  0  0  0  0  0  0  0
   28.0486  -21.6491  -13.1078 C   0  0  0  0  0  0  0  0  0  0  0  0
   25.6222  -21.2249  -12.5033 C   0  0  2  0  0  0  0  0  0  0  0  0
   24.4284  -20.5089  -13.0082 N   0  0  0  0  0  0  0  0  0  0  0  0
   25.9733  -20.5943  -11.2098 C   0  0  0  0  0  0  0  0  0  0  0  0
   25.6024  -19.4184  -10.9516 O   0  0  0  0  0  0  0  0  0  0  0  0
   26.7177  -21.1985  -10.1722 N   0  0  0  0  0  0  0  0  0  0  0  0
   27.2904  -20.5025   -9.0494 C   0  0  1  0  0  0  0  0  0  0  0  0
   26.4109  -20.3426   -7.8880 C   0  0  0  0  0  0  0  0  0  0  0  0
   27.0656  -19.5398   -6.8277 C   0  0  0  0  0  0  0  0  0  0  0  0
   27.1780  -18.1485   -6.8078 C   0  0  0  0  0  0  0  0  0  0  0  0
   27.7875  -17.7707   -5.6832 N   0  0  0  0  0  0  0  0  0  0  0  0
   28.0930  -18.8652   -4.9394 C   0  0  0  0  0  0  0  0  0  0  0  0
   28.7158  -19.0413   -3.7388 C   0  0  0  0  0  0  0  0  0  0  0  0
   28.9393  -20.2761   -3.1660 C   0  0  0  0  0  0  0  0  0  0  0  0
   28.4896  -21.3650   -3.8860 C   0  0  0  0  0  0  0  0  0  0  0  0
   27.8557  -21.2211   -5.1031 C   0  0  0  0  0  0  0  0  0  0  0  0
   27.6446  -19.9587   -5.6526 C   0  0  0  0  0  0  0  0  0  0  0  0
   28.6478  -20.9728   -8.7964 C   0  0  0  0  0  0  0  0  0  0  0  0
   28.9455  -22.2033   -8.8359 O   0  0  0  0  0  0  0  0  0  0  0  0
   29.7291  -20.1290   -8.4989 O   0  0  0  0  0  0  0  0  0  0  0  0
  2  1  1  6
  3  2  1  0
  4  2  1  0
  4  5  1  1
  6  4  1  0
  6  7  2  0
  9 10  1  0
  9  8  1  0
 10 12  1  0
 10 11  1  1
 12 13  1  6
 13  6  1  0
 14 12  1  0
 14 16  1  0
 15 14  2  0
 17 16  1  0
 17 28  1  0
 18 19  1  0
 17 18  1  1
 19 27  1  0
 20 21  1  0
 20 19  2  0
 21 22  1  0
 22 27  2  0
 22 23  1  0
 23 24  2  0
 24 25  1  0
 26 25  2  0
 27 26  1  0
 28 29  2  0
 28 30  1  0
M  END
$$$$
