VIW.pdb
     RDKit          3D

 30 31  0  0  1  0  0  0  0  0999 V2000
   29.5936  -20.0632  -16.9605 C   0  0  0  0  0  0  0  0  0  0  0  0
   28.8263  -19.8215  -15.6930 C   0  0  1  0  0  0  0  0  0  0  0  0
   29.5995  -18.8641  -14.8238 C   0  0  0  0  0  0  0  0  0  0  0  0
   27.4185  -19.3223  -15.9705 C   0  0  2  0  0  0  0  0  0  0  0  0
   27.4354  -18.1793  -16.8372 N   0  0  0  0  0  0  0  0  0  0  0  0
   26.6537  -19.1138  -14.7307 C   0  0  0  0  0  0  0  0  0  0  0  0
   26.7405  -17.9985  -14.1612 O   0  0  0  0  0  0  0  0  0  0  0  0
   21.7799  -18.8150  -14.6721 C   0  0  0  0  0  0  0  0  0  0  0  0
   23.1923  -18.7563  -14.2320 C   0  0  0  0  0  0  0  0  0  0  0  0
   23.5854  -19.8140  -13.1966 C   0  0  2  0  0  0  0  0  0  0  0  0
   22.6756  -19.7281  -12.0215 C   0  0  0  0  0  0  0  0  0  0  0  0
   25.0568  -19.7557  -12.8946 C   0  0  2  0  0  0  0  0  0  0  0  0
   25.8193  -20.0795  -14.1220 N   0  0  0  0  0  0  0  0  0  0  0  0
   25.5122  -20.7073  -11.8550 C   0  0  0  0  0  0  0  0  0  0  0  0
   25.5009  -21.9475  -12.0758 O   0  0  0  0  0  0  0  0  0  0  0  0
   25.9877  -20.3610  -10.5704 N   0  0  0  0  0  0  0  0  0  0  0  0
   26.2806  -21.2958   -9.5153 C   0  0  1  0  0  0  0  0  0  0  0  0
   27.6265  -21.2028   -8.9426 C   0  0  0  0  0  0  0  0  0  0  0  0
   27.6997  -20.1326   -7.9196 C   0  0  0  0  0  0  0  0  0  0  0  0
   26.9308  -18.9677   -7.8989 C   0  0  0  0  0  0  0  0  0  0  0  0
   27.2339  -18.2577   -6.8113 N   0  0  0  0  0  0  0  0  0  0  0  0
   28.1870  -18.9064   -6.0933 C   0  0  0  0  0  0  0  0  0  0  0  0
   28.8461  -18.6217   -4.9336 C   0  0  0  0  0  0  0  0  0  0  0  0
   29.8125  -19.4370   -4.3822 C   0  0  0  0  0  0  0  0  0  0  0  0
   30.0941  -20.5949   -5.0795 C   0  0  0  0  0  0  0  0  0  0  0  0
   29.4454  -20.9123   -6.2552 C   0  0  0  0  0  0  0  0  0  0  0  0
   28.4728  -20.0669   -6.7840 C   0  0  0  0  0  0  0  0  0  0  0  0
   25.1638  -21.3761   -8.5804 C   0  0  0  0  0  0  0  0  0  0  0  0
   24.1937  -20.5631   -8.6292 O   0  0  0  0  0  0  0  0  0  0  0  0
   25.0552  -22.3406   -7.5668 O   0  0  0  0  0  0  0  0  0  0  0  0
  2  1  1  6
  3  2  1  0
  4  2  1  0
  4  5  1  1
  6  4  1  0
  6  7  2  0
  9 10  1  0
  9  8  1  0
 10 12  1  0
 10 11  1  1
 12 13  1  6
 13  6  1  0
 14 12  1  0
 14 16  1  0
 15 14  2  0
 17 16  1  0
 17 28  1  0
 18 19  1  0
 17 18  1  1
 19 27  1  0
 20 21  1  0
 20 19  2  0
 21 22  1  0
 22 27  2  0
 22 23  1  0
 23 24  2  0
 24 25  1  0
 26 25  2  0
 27 26  1  0
 28 29  2  0
 28 30  1  0
M  END
$$$$
