VIW.pdb
     RDKit          3D

 30 31  0  0  1  0  0  0  0  0999 V2000
   21.1321  -21.7827  -15.8751 C   0  0  0  0  0  0  0  0  0  0  0  0
   22.3933  -21.9150  -15.0717 C   0  0  1  0  0  0  0  0  0  0  0  0
   22.4154  -23.2676  -14.4084 C   0  0  0  0  0  0  0  0  0  0  0  0
   23.6316  -21.6812  -15.9204 C   0  0  2  0  0  0  0  0  0  0  0  0
   23.6721  -22.5810  -17.0369 N   0  0  0  0  0  0  0  0  0  0  0  0
   24.8616  -21.6846  -15.1126 C   0  0  0  0  0  0  0  0  0  0  0  0
   25.4600  -22.7758  -14.9487 O   0  0  0  0  0  0  0  0  0  0  0  0
   29.0622  -18.5820  -15.6292 C   0  0  0  0  0  0  0  0  0  0  0  0
   28.1619  -19.6920  -15.2424 C   0  0  0  0  0  0  0  0  0  0  0  0
   27.5590  -19.5691  -13.8401 C   0  0  2  0  0  0  0  0  0  0  0  0
   28.6480  -19.4080  -12.8381 C   0  0  0  0  0  0  0  0  0  0  0  0
   26.5785  -20.6768  -13.5732 C   0  0  2  0  0  0  0  0  0  0  0  0
   25.4303  -20.5448  -14.4988 N   0  0  0  0  0  0  0  0  0  0  0  0
   26.0141  -20.6855  -12.2038 C   0  0  0  0  0  0  0  0  0  0  0  0
   24.9132  -20.1223  -11.9636 O   0  0  0  0  0  0  0  0  0  0  0  0
   26.6038  -21.2913  -11.0718 N   0  0  0  0  0  0  0  0  0  0  0  0
   26.0923  -21.2118   -9.7283 C   0  0  1  0  0  0  0  0  0  0  0  0
   27.0269  -21.6063   -8.6706 C   0  0  0  0  0  0  0  0  0  0  0  0
   27.2940  -20.4796   -7.7451 C   0  0  0  0  0  0  0  0  0  0  0  0
   26.6808  -19.2261   -7.7851 C   0  0  0  0  0  0  0  0  0  0  0  0
   27.1338  -18.4805   -6.7762 N   0  0  0  0  0  0  0  0  0  0  0  0
   28.0374  -19.1911   -6.0530 C   0  0  0  0  0  0  0  0  0  0  0  0
   28.7935  -18.9068   -4.9539 C   0  0  0  0  0  0  0  0  0  0  0  0
   29.6796  -19.7966   -4.3831 C   0  0  0  0  0  0  0  0  0  0  0  0
   29.7718  -21.0313   -4.9941 C   0  0  0  0  0  0  0  0  0  0  0  0
   29.0210  -21.3505   -6.1068 C   0  0  0  0  0  0  0  0  0  0  0  0
   28.1339  -20.4285   -6.6572 C   0  0  0  0  0  0  0  0  0  0  0  0
   25.3563  -19.9672   -9.5357 C   0  0  0  0  0  0  0  0  0  0  0  0
   25.8203  -18.8522   -9.9175 O   0  0  0  0  0  0  0  0  0  0  0  0
   24.0927  -19.8872   -8.9304 O   0  0  0  0  0  0  0  0  0  0  0  0
  2  1  1  6
  3  2  1  0
  4  2  1  0
  4  5  1  6
  6  4  1  0
  6  7  2  0
  9 10  1  0
  9  8  1  0
 10 12  1  0
 10 11  1  1
 12 13  1  6
 13  6  1  0
 14 12  1  0
 14 16  1  0
 15 14  2  0
 17 16  1  0
 17 28  1  0
 18 19  1  0
 17 18  1  1
 19 27  1  0
 20 21  1  0
 20 19  2  0
 21 22  1  0
 22 27  2  0
 22 23  1  0
 23 24  2  0
 24 25  1  0
 26 25  2  0
 27 26  1  0
 28 29  2  0
 28 30  1  0
M  END
$$$$
