VIW.pdb
     RDKit          3D

 30 31  0  0  1  0  0  0  0  0999 V2000
   27.9459  -18.7782  -17.1283 C   0  0  0  0  0  0  0  0  0  0  0  0
   26.9682  -19.4170  -16.1850 C   0  0  1  0  0  0  0  0  0  0  0  0
   25.8806  -20.0884  -16.9828 C   0  0  0  0  0  0  0  0  0  0  0  0
   27.6505  -20.3846  -15.2331 C   0  0  2  0  0  0  0  0  0  0  0  0
   28.3805  -21.3897  -15.9507 N   0  0  0  0  0  0  0  0  0  0  0  0
   26.7141  -20.9306  -14.2379 C   0  0  0  0  0  0  0  0  0  0  0  0
   26.1158  -21.9998  -14.5110 O   0  0  0  0  0  0  0  0  0  0  0  0
   27.6460  -20.6512   -8.9749 C   0  0  0  0  0  0  0  0  0  0  0  0
   27.1284  -21.1348  -10.2751 C   0  0  0  0  0  0  0  0  0  0  0  0
   25.7519  -20.5857  -10.6611 C   0  0  2  0  0  0  0  0  0  0  0  0
   24.7476  -20.9843   -9.6373 C   0  0  0  0  0  0  0  0  0  0  0  0
   25.4117  -20.9288  -12.0845 C   0  0  2  0  0  0  0  0  0  0  0  0
   26.4304  -20.3412  -12.9843 N   0  0  0  0  0  0  0  0  0  0  0  0
   24.1001  -20.4185  -12.5463 C   0  0  0  0  0  0  0  0  0  0  0  0
   23.9178  -19.1828  -12.7103 O   0  0  0  0  0  0  0  0  0  0  0  0
   22.9659  -21.2067  -12.8434 N   0  0  0  0  0  0  0  0  0  0  0  0
   21.7477  -20.7168  -13.4342 C   0  0  1  0  0  0  0  0  0  0  0  0
   21.9129  -19.8950  -14.6364 C   0  0  0  0  0  0  0  0  0  0  0  0
   20.6077  -19.6315  -15.2877 C   0  0  0  0  0  0  0  0  0  0  0  0
   19.5903  -18.8209  -14.7810 C   0  0  0  0  0  0  0  0  0  0  0  0
   18.5816  -18.7814  -15.6528 N   0  0  0  0  0  0  0  0  0  0  0  0
   18.8843  -19.5424  -16.7362 C   0  0  0  0  0  0  0  0  0  0  0  0
   18.2159  -19.8500  -17.8847 C   0  0  0  0  0  0  0  0  0  0  0  0
   18.7205  -20.6778  -18.8660 C   0  0  0  0  0  0  0  0  0  0  0  0
   19.9759  -21.2004  -18.6271 C   0  0  0  0  0  0  0  0  0  0  0  0
   20.6785  -20.9089  -17.4759 C   0  0  0  0  0  0  0  0  0  0  0  0
   20.1399  -20.0675  -16.5053 C   0  0  0  0  0  0  0  0  0  0  0  0
   20.7438  -21.7738  -13.4834 C   0  0  0  0  0  0  0  0  0  0  0  0
   21.0532  -22.9761  -13.7344 O   0  0  0  0  0  0  0  0  0  0  0  0
   19.3742  -21.5679  -13.2570 O   0  0  0  0  0  0  0  0  0  0  0  0
  2  1  1  6
  3  2  1  0
  4  2  1  0
  4  5  1  6
  6  4  1  0
  6  7  2  0
  9 10  1  0
  9  8  1  0
 10 12  1  0
 10 11  1  1
 12 13  1  6
 13  6  1  0
 14 12  1  0
 14 16  1  0
 15 14  2  0
 17 16  1  0
 17 28  1  0
 18 19  1  0
 17 18  1  6
 19 27  1  0
 20 21  1  0
 20 19  2  0
 21 22  1  0
 22 27  2  0
 22 23  1  0
 23 24  2  0
 24 25  1  0
 26 25  2  0
 27 26  1  0
 28 29  2  0
 28 30  1  0
M  END
$$$$
