VIW.pdb
     RDKit          3D

 30 31  0  0  1  0  0  0  0  0999 V2000
   21.1496  -17.7228  -15.8441 C   0  0  0  0  0  0  0  0  0  0  0  0
   22.2909  -18.6899  -15.7187 C   0  0  1  0  0  0  0  0  0  0  0  0
   21.8028  -20.0747  -16.0566 C   0  0  0  0  0  0  0  0  0  0  0  0
   23.4748  -18.2823  -16.5790 C   0  0  2  0  0  0  0  0  0  0  0  0
   23.0994  -18.1731  -17.9592 N   0  0  0  0  0  0  0  0  0  0  0  0
   24.6448  -19.1450  -16.3504 C   0  0  0  0  0  0  0  0  0  0  0  0
   24.8275  -20.1141  -17.1271 O   0  0  0  0  0  0  0  0  0  0  0  0
   29.3894  -17.2137  -16.1156 C   0  0  0  0  0  0  0  0  0  0  0  0
   28.3059  -18.2103  -16.2738 C   0  0  0  0  0  0  0  0  0  0  0  0
   28.0044  -19.0338  -15.0184 C   0  0  2  0  0  0  0  0  0  0  0  0
   29.2264  -19.7720  -14.5971 C   0  0  0  0  0  0  0  0  0  0  0  0
   26.7646  -19.8641  -15.2002 C   0  0  2  0  0  0  0  0  0  0  0  0
   25.5908  -18.9686  -15.3143 N   0  0  0  0  0  0  0  0  0  0  0  0
   26.4751  -20.7945  -14.0846 C   0  0  0  0  0  0  0  0  0  0  0  0
   27.1653  -21.8365  -13.9272 O   0  0  0  0  0  0  0  0  0  0  0  0
   25.4553  -20.6347  -13.1200 N   0  0  0  0  0  0  0  0  0  0  0  0
   25.1613  -21.5665  -12.0625 C   0  0  1  0  0  0  0  0  0  0  0  0
   26.2973  -21.9431  -11.2165 C   0  0  0  0  0  0  0  0  0  0  0  0
   26.4397  -21.0162  -10.0685 C   0  0  0  0  0  0  0  0  0  0  0  0
   25.5376  -20.0124   -9.7117 C   0  0  0  0  0  0  0  0  0  0  0  0
   25.9668  -19.4063   -8.6038 N   0  0  0  0  0  0  0  0  0  0  0  0
   27.1345  -19.9689   -8.1985 C   0  0  0  0  0  0  0  0  0  0  0  0
   27.9831  -19.7267   -7.1586 C   0  0  0  0  0  0  0  0  0  0  0  0
   29.1510  -20.4284   -6.9438 C   0  0  0  0  0  0  0  0  0  0  0  0
   29.4345  -21.4220   -7.8597 C   0  0  0  0  0  0  0  0  0  0  0  0
   28.5971  -21.6925   -8.9224 C   0  0  0  0  0  0  0  0  0  0  0  0
   27.4239  -20.9652   -9.1092 C   0  0  0  0  0  0  0  0  0  0  0  0
   23.9224  -21.1970  -11.3872 C   0  0  0  0  0  0  0  0  0  0  0  0
   23.3738  -21.9587  -10.5367 O   0  0  0  0  0  0  0  0  0  0  0  0
   23.2390  -19.9905  -11.6036 O   0  0  0  0  0  0  0  0  0  0  0  0
  2  1  1  6
  3  2  1  0
  4  2  1  0
  4  5  1  6
  6  4  1  0
  6  7  2  0
  9 10  1  0
  9  8  1  0
 10 12  1  0
 10 11  1  6
 12 13  1  1
 13  6  1  0
 14 12  1  0
 14 16  1  0
 15 14  2  0
 17 16  1  0
 17 28  1  0
 18 19  1  0
 17 18  1  1
 19 27  1  0
 20 21  1  0
 20 19  2  0
 21 22  1  0
 22 27  2  0
 22 23  1  0
 23 24  2  0
 24 25  1  0
 26 25  2  0
 27 26  1  0
 28 29  2  0
 28 30  1  0
M  END
$$$$
