VIW.pdb
     RDKit          3D

 30 31  0  0  1  0  0  0  0  0999 V2000
   24.6157  -14.6009  -14.6594 C   0  0  0  0  0  0  0  0  0  0  0  0
   24.7096  -16.0864  -14.4643 C   0  0  1  0  0  0  0  0  0  0  0  0
   23.4187  -16.7243  -14.9077 C   0  0  0  0  0  0  0  0  0  0  0  0
   25.9091  -16.6769  -15.1859 C   0  0  2  0  0  0  0  0  0  0  0  0
   25.8657  -16.3833  -16.5894 N   0  0  0  0  0  0  0  0  0  0  0  0
   26.0835  -18.1068  -14.8855 C   0  0  0  0  0  0  0  0  0  0  0  0
   25.3350  -18.9302  -15.4666 O   0  0  0  0  0  0  0  0  0  0  0  0
   29.6202  -20.8201  -16.6081 C   0  0  0  0  0  0  0  0  0  0  0  0
   28.3714  -20.4337  -15.9129 C   0  0  0  0  0  0  0  0  0  0  0  0
   28.4061  -20.6037  -14.3913 C   0  0  2  0  0  0  0  0  0  0  0  0
   28.7865  -22.0020  -14.0512 C   0  0  0  0  0  0  0  0  0  0  0  0
   27.1402  -20.0946  -13.7605 C   0  0  2  0  0  0  0  0  0  0  0  0
   27.0370  -18.6345  -13.9846 N   0  0  0  0  0  0  0  0  0  0  0  0
   27.0532  -20.3011  -12.2964 C   0  0  0  0  0  0  0  0  0  0  0  0
   28.0990  -20.4454  -11.6090 O   0  0  0  0  0  0  0  0  0  0  0  0
   25.8613  -20.3550  -11.5398 N   0  0  0  0  0  0  0  0  0  0  0  0
   25.7913  -20.5696  -10.1178 C   0  0  1  0  0  0  0  0  0  0  0  0
   26.8314  -19.9075   -9.3255 C   0  0  0  0  0  0  0  0  0  0  0  0
   26.6532  -20.1752   -7.8785 C   0  0  0  0  0  0  0  0  0  0  0  0
   25.5816  -20.8569   -7.2992 C   0  0  0  0  0  0  0  0  0  0  0  0
   25.7752  -20.9470   -5.9827 N   0  0  0  0  0  0  0  0  0  0  0  0
   26.9468  -20.3454   -5.6511 C   0  0  0  0  0  0  0  0  0  0  0  0
   27.5992  -20.1456   -4.4701 C   0  0  0  0  0  0  0  0  0  0  0  0
   28.8007  -19.4767   -4.3627 C   0  0  0  0  0  0  0  0  0  0  0  0
   29.3336  -19.0010   -5.5442 C   0  0  0  0  0  0  0  0  0  0  0  0
   28.6993  -19.1865   -6.7554 C   0  0  0  0  0  0  0  0  0  0  0  0
   27.4869  -19.8683   -6.8285 C   0  0  0  0  0  0  0  0  0  0  0  0
   24.4157  -20.4414   -9.6499 C   0  0  0  0  0  0  0  0  0  0  0  0
   23.6131  -19.6048  -10.1600 O   0  0  0  0  0  0  0  0  0  0  0  0
   23.8603  -21.2169   -8.6205 O   0  0  0  0  0  0  0  0  0  0  0  0
  2  1  1  6
  3  2  1  0
  4  2  1  0
  4  5  1  6
  6  4  1  0
  6  7  2  0
  9 10  1  0
  9  8  1  0
 10 12  1  0
 10 11  1  6
 12 13  1  1
 13  6  1  0
 14 12  1  0
 14 16  1  0
 15 14  2  0
 17 16  1  0
 17 28  1  0
 18 19  1  0
 17 18  1  1
 19 27  1  0
 20 21  1  0
 20 19  2  0
 21 22  1  0
 22 27  2  0
 22 23  1  0
 23 24  2  0
 24 25  1  0
 26 25  2  0
 27 26  1  0
 28 29  2  0
 28 30  1  0
M  END
$$$$
