VIW.pdb
     RDKit          3D

 30 31  0  0  1  0  0  0  0  0999 V2000
   29.3959  -22.9663  -18.8917 C   0  0  0  0  0  0  0  0  0  0  0  0
   29.3542  -21.9839  -17.7572 C   0  0  1  0  0  0  0  0  0  0  0  0
   28.9513  -20.6333  -18.2896 C   0  0  0  0  0  0  0  0  0  0  0  0
   28.4350  -22.4485  -16.6403 C   0  0  2  0  0  0  0  0  0  0  0  0
   27.1353  -22.7858  -17.1452 N   0  0  0  0  0  0  0  0  0  0  0  0
   28.4056  -21.4958  -15.5192 C   0  0  0  0  0  0  0  0  0  0  0  0
   29.4902  -21.2096  -14.9558 O   0  0  0  0  0  0  0  0  0  0  0  0
   27.3122  -16.6445  -15.7759 C   0  0  0  0  0  0  0  0  0  0  0  0
   27.7886  -17.9303  -15.2173 C   0  0  0  0  0  0  0  0  0  0  0  0
   26.8190  -18.6035  -14.2416 C   0  0  2  0  0  0  0  0  0  0  0  0
   26.5081  -17.6737  -13.1215 C   0  0  0  0  0  0  0  0  0  0  0  0
   27.3092  -19.9685  -13.8463 C   0  0  2  0  0  0  0  0  0  0  0  0
   27.2405  -20.8695  -15.0193 N   0  0  0  0  0  0  0  0  0  0  0  0
   26.5249  -20.6191  -12.7714 C   0  0  0  0  0  0  0  0  0  0  0  0
   25.4206  -21.1675  -13.0297 O   0  0  0  0  0  0  0  0  0  0  0  0
   26.8982  -20.7012  -11.4113 N   0  0  0  0  0  0  0  0  0  0  0  0
   26.1087  -21.3060  -10.3702 C   0  0  1  0  0  0  0  0  0  0  0  0
   26.8553  -21.7668   -9.1962 C   0  0  0  0  0  0  0  0  0  0  0  0
   27.1409  -20.6452   -8.2699 C   0  0  0  0  0  0  0  0  0  0  0  0
   26.5506  -19.3809   -8.3108 C   0  0  0  0  0  0  0  0  0  0  0  0
   27.0151  -18.6438   -7.3009 N   0  0  0  0  0  0  0  0  0  0  0  0
   27.9042  -19.3708   -6.5760 C   0  0  0  0  0  0  0  0  0  0  0  0
   28.6632  -19.1004   -5.4755 C   0  0  0  0  0  0  0  0  0  0  0  0
   29.5319  -20.0062   -4.9032 C   0  0  0  0  0  0  0  0  0  0  0  0
   29.6030  -21.2423   -5.5142 C   0  0  0  0  0  0  0  0  0  0  0  0
   28.8486  -21.5477   -6.6284 C   0  0  0  0  0  0  0  0  0  0  0  0
   27.9795  -20.6095   -7.1804 C   0  0  0  0  0  0  0  0  0  0  0  0
   24.9014  -20.5246  -10.1264 C   0  0  0  0  0  0  0  0  0  0  0  0
   24.8285  -19.2974  -10.4315 O   0  0  0  0  0  0  0  0  0  0  0  0
   23.7316  -21.0444   -9.5513 O   0  0  0  0  0  0  0  0  0  0  0  0
  2  1  1  6
  3  2  1  0
  4  2  1  0
  4  5  1  6
  6  4  1  0
  6  7  2  0
  9 10  1  0
  9  8  1  0
 10 12  1  0
 10 11  1  1
 12 13  1  6
 13  6  1  0
 14 12  1  0
 14 16  1  0
 15 14  2  0
 17 16  1  0
 17 28  1  0
 18 19  1  0
 17 18  1  1
 19 27  1  0
 20 21  1  0
 20 19  2  0
 21 22  1  0
 22 27  2  0
 22 23  1  0
 23 24  2  0
 24 25  1  0
 26 25  2  0
 27 26  1  0
 28 29  2  0
 28 30  1  0
M  END
$$$$
