VIW.pdb
     RDKit          3D

 30 31  0  0  1  0  0  0  0  0999 V2000
   28.2266  -16.2062  -15.8689 C   0  0  0  0  0  0  0  0  0  0  0  0
   27.5080  -17.0015  -14.8178 C   0  0  1  0  0  0  0  0  0  0  0  0
   26.7135  -16.0630  -13.9471 C   0  0  0  0  0  0  0  0  0  0  0  0
   26.6336  -18.0842  -15.4270 C   0  0  2  0  0  0  0  0  0  0  0  0
   25.7469  -17.5397  -16.4145 N   0  0  0  0  0  0  0  0  0  0  0  0
   25.9527  -18.8861  -14.3980 C   0  0  0  0  0  0  0  0  0  0  0  0
   24.8167  -18.5157  -14.0134 O   0  0  0  0  0  0  0  0  0  0  0  0
   24.7772  -23.5405  -15.4842 C   0  0  0  0  0  0  0  0  0  0  0  0
   24.8023  -22.2383  -14.7800 C   0  0  0  0  0  0  0  0  0  0  0  0
   25.5176  -22.2558  -13.4260 C   0  0  2  0  0  0  0  0  0  0  0  0
   24.8688  -23.2505  -12.5285 C   0  0  0  0  0  0  0  0  0  0  0  0
   25.6621  -20.8659  -12.8718 C   0  0  2  0  0  0  0  0  0  0  0  0
   26.4810  -20.0537  -13.8005 N   0  0  0  0  0  0  0  0  0  0  0  0
   26.3296  -20.7936  -11.5516 C   0  0  0  0  0  0  0  0  0  0  0  0
   27.5758  -20.6264  -11.4748 O   0  0  0  0  0  0  0  0  0  0  0  0
   25.6891  -20.8941  -10.2963 N   0  0  0  0  0  0  0  0  0  0  0  0
   26.3526  -20.8325   -9.0200 C   0  0  1  0  0  0  0  0  0  0  0  0
   27.3516  -19.7697   -8.8764 C   0  0  0  0  0  0  0  0  0  0  0  0
   27.5411  -19.4025   -7.4528 C   0  0  0  0  0  0  0  0  0  0  0  0
   26.7197  -18.5509   -6.7120 C   0  0  0  0  0  0  0  0  0  0  0  0
   27.1681  -18.4857   -5.4576 N   0  0  0  0  0  0  0  0  0  0  0  0
   28.2706  -19.2677   -5.3254 C   0  0  0  0  0  0  0  0  0  0  0  0
   29.1070  -19.5443   -4.2841 C   0  0  0  0  0  0  0  0  0  0  0  0
   30.2030  -20.3760   -4.3824 C   0  0  0  0  0  0  0  0  0  0  0  0
   30.4251  -20.9363   -5.6246 C   0  0  0  0  0  0  0  0  0  0  0  0
   29.5981  -20.6772   -6.6982 C   0  0  0  0  0  0  0  0  0  0  0  0
   28.4982  -19.8331   -6.5639 C   0  0  0  0  0  0  0  0  0  0  0  0
   25.3893  -20.9911   -7.9363 C   0  0  0  0  0  0  0  0  0  0  0  0
   24.1461  -20.8340   -8.1209 O   0  0  0  0  0  0  0  0  0  0  0  0
   25.7366  -21.3307   -6.6196 O   0  0  0  0  0  0  0  0  0  0  0  0
  2  1  1  6
  3  2  1  0
  4  2  1  0
  4  5  1  6
  6  4  1  0
  6  7  2  0
  9 10  1  0
  9  8  1  0
 10 12  1  0
 10 11  1  1
 12 13  1  6
 13  6  1  0
 14 12  1  0
 14 16  1  0
 15 14  2  0
 17 16  1  0
 17 28  1  0
 18 19  1  0
 17 18  1  1
 19 27  1  0
 20 21  1  0
 20 19  2  0
 21 22  1  0
 22 27  2  0
 22 23  1  0
 23 24  2  0
 24 25  1  0
 26 25  2  0
 27 26  1  0
 28 29  2  0
 28 30  1  0
M  END
$$$$
