QYT.pdb
     RDKit          3D

 29 29  0  0  1  0  0  0  0  0999 V2000
   21.3709  -23.9229  -13.6552 N   0  0  0  0  0  0  0  0  0  0  0  0
   20.2187  -23.1045  -13.7566 C   0  0  0  0  0  0  0  0  0  0  0  0
   19.0951  -23.6437  -13.6820 O   0  0  0  0  0  0  0  0  0  0  0  0
   20.3400  -21.6443  -13.9478 C   0  0  0  0  0  0  0  0  0  0  0  0
   21.7418  -21.1265  -13.8910 C   0  0  0  0  0  0  0  0  0  0  0  0
   22.3143  -20.9482  -12.5285 C   0  0  2  0  0  0  0  0  0  0  0  0
   21.5647  -19.9373  -11.7721 N   0  0  0  0  0  0  0  0  0  0  0  0
   23.7603  -20.6187  -12.4992 C   0  0  0  0  0  0  0  0  0  0  0  0
   24.1061  -19.4243  -12.6596 O   0  0  0  0  0  0  0  0  0  0  0  0
   26.4503  -19.3720   -6.3340 O   0  0  0  0  0  0  0  0  0  0  0  0
   26.6055  -19.9981   -7.5832 C   0  0  0  0  0  0  0  0  0  0  0  0
   25.5078  -20.5050   -8.2073 C   0  0  0  0  0  0  0  0  0  0  0  0
   25.6675  -21.1239   -9.4441 C   0  0  0  0  0  0  0  0  0  0  0  0
   26.8912  -21.2430  -10.0598 C   0  0  0  0  0  0  0  0  0  0  0  0
   27.0198  -21.8996  -11.3613 C   0  0  0  0  0  0  0  0  0  0  0  0
   26.1962  -21.3193  -12.4556 C   0  0  2  0  0  0  0  0  0  0  0  0
   24.7799  -21.5890  -12.2980 N   0  0  0  0  0  0  0  0  0  0  0  0
   26.6316  -21.6250  -13.8226 C   0  0  0  0  0  0  0  0  0  0  0  0
   27.2750  -22.7028  -14.0766 O   0  0  0  0  0  0  0  0  0  0  0  0
   27.9861  -20.7152   -9.3947 C   0  0  0  0  0  0  0  0  0  0  0  0
   27.8427  -20.0959   -8.1623 C   0  0  0  0  0  0  0  0  0  0  0  0
   25.0865  -22.6458  -17.0187 C   0  0  0  0  0  0  0  0  0  0  0  0
   25.6694  -21.2612  -17.2060 C   0  0  1  0  0  0  0  0  0  0  0  0
   24.7019  -20.3253  -16.9375 O   0  0  0  0  0  0  0  0  0  0  0  0
   26.8944  -21.1008  -16.2829 C   0  0  2  0  0  0  0  0  0  0  0  0
   26.3984  -20.8048  -14.9563 N   0  0  0  0  0  0  0  0  0  0  0  0
   27.5906  -19.8926  -16.7897 C   0  0  0  0  0  0  0  0  0  0  0  0
   27.5788  -18.7979  -16.1681 O   0  0  0  0  0  0  0  0  0  0  0  0
   28.3020  -19.8913  -17.9854 O   0  0  0  0  0  0  0  0  0  0  0  0
  1  2  1  0
  2  3  2  0
  2  4  1  0
  4  5  1  0
  6  5  1  0
  6  7  1  6
  8  9  2  0
  8  6  1  0
 10 11  1  0
 11 21  2  0
 12 11  1  0
 12 13  2  0
 13 14  1  0
 14 15  1  0
 16 15  1  1
 16 17  1  0
 17  8  1  0
 18 16  1  0
 18 26  1  0
 19 18  2  0
 20 14  2  0
 21 20  1  0
 23 22  1  1
 23 25  1  0
 24 23  1  0
 25 26  1  1
 25 27  1  0
 27 29  1  0
 28 27  2  0
M  END
$$$$
