QYT.pdb
     RDKit          3D

 29 29  0  0  1  0  0  0  0  0999 V2000
   32.2982  -26.3396  -17.7946 N   0  0  0  0  0  0  0  0  0  0  0  0
   33.6194  -26.0050  -18.1822 C   0  0  0  0  0  0  0  0  0  0  0  0
   33.9973  -24.8220  -18.0549 O   0  0  0  0  0  0  0  0  0  0  0  0
   34.5328  -27.0310  -18.7267 C   0  0  0  0  0  0  0  0  0  0  0  0
   33.9171  -28.3838  -18.8916 C   0  0  0  0  0  0  0  0  0  0  0  0
   34.6611  -29.5163  -18.2752 C   0  0  2  0  0  0  0  0  0  0  0  0
   35.9227  -29.7637  -18.9845 N   0  0  0  0  0  0  0  0  0  0  0  0
   33.8941  -30.7817  -18.1709 C   0  0  0  0  0  0  0  0  0  0  0  0
   33.8496  -31.5393  -19.1688 O   0  0  0  0  0  0  0  0  0  0  0  0
   38.2743  -35.0094  -16.4739 O   0  0  0  0  0  0  0  0  0  0  0  0
   36.9366  -34.6029  -16.3262 C   0  0  0  0  0  0  0  0  0  0  0  0
   36.6693  -33.4409  -15.6708 C   0  0  0  0  0  0  0  0  0  0  0  0
   35.3427  -33.0435  -15.5276 C   0  0  0  0  0  0  0  0  0  0  0  0
   34.2919  -33.7792  -16.0226 C   0  0  0  0  0  0  0  0  0  0  0  0
   32.9099  -33.3286  -15.8535 C   0  0  0  0  0  0  0  0  0  0  0  0
   32.4094  -32.3928  -16.8958 C   0  0  2  0  0  0  0  0  0  0  0  0
   33.2036  -31.1833  -16.9948 N   0  0  0  0  0  0  0  0  0  0  0  0
   30.9798  -32.0691  -16.8395 C   0  0  0  0  0  0  0  0  0  0  0  0
   30.5703  -31.0303  -16.2123 O   0  0  0  0  0  0  0  0  0  0  0  0
   34.6024  -34.9565  -16.6841 C   0  0  0  0  0  0  0  0  0  0  0  0
   35.9188  -35.3653  -16.8345 C   0  0  0  0  0  0  0  0  0  0  0  0
   28.5046  -31.3802  -19.6733 C   0  0  0  0  0  0  0  0  0  0  0  0
   28.0237  -32.5711  -18.8717 C   0  0  1  0  0  0  0  0  0  0  0  0
   28.4539  -33.7251  -19.4778 O   0  0  0  0  0  0  0  0  0  0  0  0
   28.5496  -32.4519  -17.4268 C   0  0  2  0  0  0  0  0  0  0  0  0
   29.9462  -32.8299  -17.4440 N   0  0  0  0  0  0  0  0  0  0  0  0
   27.8056  -33.4886  -16.6699 C   0  0  0  0  0  0  0  0  0  0  0  0
   28.3594  -34.5319  -16.2343 O   0  0  0  0  0  0  0  0  0  0  0  0
   26.4470  -33.3748  -16.3923 O   0  0  0  0  0  0  0  0  0  0  0  0
  1  2  1  0
  2  3  2  0
  2  4  1  0
  4  5  1  0
  6  5  1  0
  6  7  1  6
  8  9  2  0
  8  6  1  0
 10 11  1  0
 11 21  2  0
 12 11  1  0
 12 13  2  0
 13 14  1  0
 14 15  1  0
 16 15  1  1
 16 17  1  0
 17  8  1  0
 18 16  1  0
 18 26  1  0
 19 18  2  0
 20 14  2  0
 21 20  1  0
 23 22  1  6
 23 25  1  0
 24 23  1  0
 25 26  1  6
 25 27  1  0
 27 29  1  0
 28 27  2  0
M  END
$$$$
