QYT.pdb
     RDKit          3D

 29 29  0  0  1  0  0  0  0  0999 V2000
   19.2979  -14.3068  -15.9003 N   0  0  0  0  0  0  0  0  0  0  0  0
   17.9070  -14.2635  -15.6332 C   0  0  0  0  0  0  0  0  0  0  0  0
   17.2923  -15.3411  -15.4932 O   0  0  0  0  0  0  0  0  0  0  0  0
   17.1957  -12.9731  -15.5231 C   0  0  0  0  0  0  0  0  0  0  0  0
   18.0615  -11.7697  -15.7194 C   0  0  0  0  0  0  0  0  0  0  0  0
   17.6826  -10.8728  -16.8455 C   0  0  2  0  0  0  0  0  0  0  0  0
   17.7319  -11.5887  -18.1265 N   0  0  0  0  0  0  0  0  0  0  0  0
   18.4797   -9.6255  -16.9431 C   0  0  0  0  0  0  0  0  0  0  0  0
   19.5250   -9.6351  -17.6353 O   0  0  0  0  0  0  0  0  0  0  0  0
   17.1789   -7.2350  -22.7033 O   0  0  0  0  0  0  0  0  0  0  0  0
   17.3969   -6.9592  -21.3420 C   0  0  0  0  0  0  0  0  0  0  0  0
   16.4594   -7.3425  -20.4335 C   0  0  0  0  0  0  0  0  0  0  0  0
   16.6807   -7.0668  -19.0869 C   0  0  0  0  0  0  0  0  0  0  0  0
   17.8096   -6.4222  -18.6390 C   0  0  0  0  0  0  0  0  0  0  0  0
   18.0080   -6.1505  -17.2148 C   0  0  0  0  0  0  0  0  0  0  0  0
   18.8182   -7.1567  -16.4776 C   0  0  2  0  0  0  0  0  0  0  0  0
   18.1202   -8.4144  -16.2910 N   0  0  0  0  0  0  0  0  0  0  0  0
   19.4159   -6.7054  -15.2164 C   0  0  0  0  0  0  0  0  0  0  0  0
   18.6902   -6.5341  -14.1751 O   0  0  0  0  0  0  0  0  0  0  0  0
   18.7421   -6.0469  -19.5928 C   0  0  0  0  0  0  0  0  0  0  0  0
   18.5355   -6.3147  -20.9376 C   0  0  0  0  0  0  0  0  0  0  0  0
   21.9310   -8.3292  -13.0788 C   0  0  0  0  0  0  0  0  0  0  0  0
   22.5099   -6.9731  -13.4221 C   0  0  1  0  0  0  0  0  0  0  0  0
   23.3836   -7.1091  -14.4719 O   0  0  0  0  0  0  0  0  0  0  0  0
   21.3583   -6.0033  -13.7565 C   0  0  2  0  0  0  0  0  0  0  0  0
   20.7926   -6.4253  -15.0196 N   0  0  0  0  0  0  0  0  0  0  0  0
   22.0208   -4.6927  -13.9685 C   0  0  0  0  0  0  0  0  0  0  0  0
   22.1742   -4.1930  -15.1137 O   0  0  0  0  0  0  0  0  0  0  0  0
   22.5156   -3.9309  -12.9147 O   0  0  0  0  0  0  0  0  0  0  0  0
  1  2  1  0
  2  3  2  0
  2  4  1  0
  4  5  1  0
  6  5  1  0
  6  7  1  6
  8  9  2  0
  8  6  1  0
 10 11  1  0
 11 21  2  0
 12 11  1  0
 12 13  2  0
 13 14  1  0
 14 15  1  0
 16 15  1  1
 16 17  1  0
 17  8  1  0
 18 16  1  0
 18 26  1  0
 19 18  2  0
 20 14  2  0
 21 20  1  0
 23 22  1  6
 23 25  1  0
 24 23  1  0
 25 26  1  6
 25 27  1  0
 27 29  1  0
 28 27  2  0
M  END
$$$$
