QYT.pdb
     RDKit          3D

 29 29  0  0  1  0  0  0  0  0999 V2000
   29.1553  -18.6077  -17.9136 N   0  0  0  0  0  0  0  0  0  0  0  0
   29.3478  -19.3281  -19.1185 C   0  0  0  0  0  0  0  0  0  0  0  0
   30.2312  -18.9405  -19.9110 O   0  0  0  0  0  0  0  0  0  0  0  0
   28.5222  -20.5121  -19.4344 C   0  0  0  0  0  0  0  0  0  0  0  0
   27.5861  -20.9236  -18.3432 C   0  0  0  0  0  0  0  0  0  0  0  0
   28.1979  -21.6665  -17.2076 C   0  0  2  0  0  0  0  0  0  0  0  0
   28.6871  -22.9808  -17.6426 N   0  0  0  0  0  0  0  0  0  0  0  0
   27.3174  -21.8313  -16.0251 C   0  0  0  0  0  0  0  0  0  0  0  0
   26.5933  -22.8523  -15.9550 O   0  0  0  0  0  0  0  0  0  0  0  0
   23.6851  -20.8506   -7.9713 O   0  0  0  0  0  0  0  0  0  0  0  0
   24.4981  -20.7509   -9.1140 C   0  0  0  0  0  0  0  0  0  0  0  0
   24.2310  -19.7814  -10.0304 C   0  0  0  0  0  0  0  0  0  0  0  0
   25.0395  -19.6876  -11.1600 C   0  0  0  0  0  0  0  0  0  0  0  0
   26.0975  -20.5362  -11.3857 C   0  0  0  0  0  0  0  0  0  0  0  0
   26.9262  -20.4061  -12.5848 C   0  0  0  0  0  0  0  0  0  0  0  0
   26.3678  -21.0207  -13.8189 C   0  0  2  0  0  0  0  0  0  0  0  0
   27.2504  -20.8893  -14.9623 N   0  0  0  0  0  0  0  0  0  0  0  0
   25.0001  -20.6270  -14.1739 C   0  0  0  0  0  0  0  0  0  0  0  0
   24.7643  -19.4770  -14.6857 O   0  0  0  0  0  0  0  0  0  0  0  0
   26.3393  -21.5109  -10.4309 C   0  0  0  0  0  0  0  0  0  0  0  0
   25.5427  -21.6167   -9.3009 C   0  0  0  0  0  0  0  0  0  0  0  0
   22.5692  -21.4657  -16.6877 C   0  0  0  0  0  0  0  0  0  0  0  0
   21.9155  -21.8520  -15.3780 C   0  0  1  0  0  0  0  0  0  0  0  0
   22.1237  -23.1892  -15.1480 O   0  0  0  0  0  0  0  0  0  0  0  0
   22.4965  -20.9786  -14.2475 C   0  0  2  0  0  0  0  0  0  0  0  0
   23.8471  -21.4353  -14.0009 N   0  0  0  0  0  0  0  0  0  0  0  0
   21.6773  -21.3126  -13.0563 C   0  0  0  0  0  0  0  0  0  0  0  0
   22.1225  -22.0087  -12.1065 O   0  0  0  0  0  0  0  0  0  0  0  0
   20.3636  -20.8780  -12.9120 O   0  0  0  0  0  0  0  0  0  0  0  0
  1  2  1  0
  2  3  2  0
  2  4  1  0
  4  5  1  0
  6  5  1  0
  6  7  1  6
  8  9  2  0
  8  6  1  0
 10 11  1  0
 11 21  2  0
 12 11  1  0
 12 13  2  0
 13 14  1  0
 14 15  1  0
 16 15  1  1
 16 17  1  0
 17  8  1  0
 18 16  1  0
 18 26  1  0
 19 18  2  0
 20 14  2  0
 21 20  1  0
 23 22  1  6
 23 25  1  0
 24 23  1  0
 25 26  1  1
 25 27  1  0
 27 29  1  0
 28 27  2  0
M  END
$$$$
