QYT.pdb
     RDKit          3D

 29 29  0  0  1  0  0  0  0  0999 V2000
   18.2096  -13.1444  -18.9161 N   0  0  0  0  0  0  0  0  0  0  0  0
   19.4185  -13.4011  -19.6091 C   0  0  0  0  0  0  0  0  0  0  0  0
   19.3806  -14.1196  -20.6293 O   0  0  0  0  0  0  0  0  0  0  0  0
   20.6985  -12.8335  -19.1371 C   0  0  0  0  0  0  0  0  0  0  0  0
   20.5978  -12.0494  -17.8677 C   0  0  0  0  0  0  0  0  0  0  0  0
   21.0067  -10.6205  -17.9520 C   0  0  2  0  0  0  0  0  0  0  0  0
   22.4648  -10.4978  -18.0734 N   0  0  0  0  0  0  0  0  0  0  0  0
   20.5283   -9.7692  -16.8353 C   0  0  0  0  0  0  0  0  0  0  0  0
   19.3040   -9.7671  -16.5654 O   0  0  0  0  0  0  0  0  0  0  0  0
   19.5010   -5.7904   -9.1397 O   0  0  0  0  0  0  0  0  0  0  0  0
   20.0570   -6.3862  -10.2852 C   0  0  0  0  0  0  0  0  0  0  0  0
   19.8556   -7.7144  -10.5010 C   0  0  0  0  0  0  0  0  0  0  0  0
   20.4087   -8.2989  -11.6372 C   0  0  0  0  0  0  0  0  0  0  0  0
   21.1505   -7.5866  -12.5498 C   0  0  0  0  0  0  0  0  0  0  0  0
   21.7154   -8.2356  -13.7335 C   0  0  0  0  0  0  0  0  0  0  0  0
   20.9271   -8.0823  -14.9855 C   0  0  2  0  0  0  0  0  0  0  0  0
   21.3876   -8.9520  -16.0510 N   0  0  0  0  0  0  0  0  0  0  0  0
   20.7553   -6.7106  -15.4760 C   0  0  0  0  0  0  0  0  0  0  0  0
   21.7209   -6.0985  -16.0532 O   0  0  0  0  0  0  0  0  0  0  0  0
   21.3346   -6.2367  -12.2970 C   0  0  0  0  0  0  0  0  0  0  0  0
   20.7899   -5.6405  -11.1697 C   0  0  0  0  0  0  0  0  0  0  0  0
   18.4884   -5.2636  -18.0930 C   0  0  0  0  0  0  0  0  0  0  0  0
   18.1648   -4.5831  -16.7799 C   0  0  1  0  0  0  0  0  0  0  0  0
   17.1028   -5.2230  -16.1909 O   0  0  0  0  0  0  0  0  0  0  0  0
   19.4169   -4.6028  -15.8798 C   0  0  2  0  0  0  0  0  0  0  0  0
   19.5621   -5.9502  -15.3729 N   0  0  0  0  0  0  0  0  0  0  0  0
   19.0722   -3.7205  -14.7378 C   0  0  0  0  0  0  0  0  0  0  0  0
   18.7467   -4.1750  -13.6099 O   0  0  0  0  0  0  0  0  0  0  0  0
   19.0863   -2.3330  -14.8398 O   0  0  0  0  0  0  0  0  0  0  0  0
  1  2  1  0
  2  3  2  0
  2  4  1  0
  4  5  1  0
  6  5  1  0
  6  7  1  1
  8  9  2  0
  8  6  1  0
 10 11  1  0
 11 21  2  0
 12 11  1  0
 12 13  2  0
 13 14  1  0
 14 15  1  0
 16 15  1  1
 16 17  1  0
 17  8  1  0
 18 16  1  0
 18 26  1  0
 19 18  2  0
 20 14  2  0
 21 20  1  0
 23 22  1  6
 23 25  1  0
 24 23  1  0
 25 26  1  1
 25 27  1  0
 27 29  1  0
 28 27  2  0
M  END
$$$$
