QYT.pdb
     RDKit          3D

 29 29  0  0  1  0  0  0  0  0999 V2000
   23.0584  -27.8270  -16.1312 N   0  0  0  0  0  0  0  0  0  0  0  0
   22.4553  -27.2345  -14.9940 C   0  0  0  0  0  0  0  0  0  0  0  0
   21.2155  -27.0890  -14.9837 O   0  0  0  0  0  0  0  0  0  0  0  0
   23.2729  -26.7961  -13.8439 C   0  0  0  0  0  0  0  0  0  0  0  0
   23.2578  -25.3209  -13.5997 C   0  0  0  0  0  0  0  0  0  0  0  0
   23.6650  -24.4673  -14.7493 C   0  0  2  0  0  0  0  0  0  0  0  0
   25.1022  -24.6005  -15.0190 N   0  0  0  0  0  0  0  0  0  0  0  0
   23.3167  -23.0318  -14.6130 C   0  0  0  0  0  0  0  0  0  0  0  0
   22.1425  -22.7278  -14.2956 O   0  0  0  0  0  0  0  0  0  0  0  0
   25.2593  -21.4349   -8.3458 O   0  0  0  0  0  0  0  0  0  0  0  0
   25.2073  -21.0581   -9.6992 C   0  0  0  0  0  0  0  0  0  0  0  0
   24.1125  -20.3919  -10.1563 C   0  0  0  0  0  0  0  0  0  0  0  0
   24.0666  -20.0213  -11.4975 C   0  0  0  0  0  0  0  0  0  0  0  0
   25.0844  -20.3019  -12.3784 C   0  0  0  0  0  0  0  0  0  0  0  0
   25.0009  -19.8951  -13.7817 C   0  0  0  0  0  0  0  0  0  0  0  0
   23.9516  -20.5778  -14.5850 C   0  0  2  0  0  0  0  0  0  0  0  0
   24.2470  -21.9776  -14.8238 N   0  0  0  0  0  0  0  0  0  0  0  0
   23.5587  -19.9126  -15.8320 C   0  0  0  0  0  0  0  0  0  0  0  0
   24.4436  -19.5400  -16.6794 O   0  0  0  0  0  0  0  0  0  0  0  0
   26.1830  -20.9814  -11.8772 C   0  0  0  0  0  0  0  0  0  0  0  0
   26.2430  -21.3572  -10.5438 C   0  0  0  0  0  0  0  0  0  0  0  0
   21.4766  -21.0452  -18.7724 C   0  0  0  0  0  0  0  0  0  0  0  0
   20.8009  -19.8422  -18.1492 C   0  0  1  0  0  0  0  0  0  0  0  0
   19.8410  -20.2718  -17.2669 O   0  0  0  0  0  0  0  0  0  0  0  0
   21.8661  -18.9680  -17.4567 C   0  0  2  0  0  0  0  0  0  0  0  0
   22.2243  -19.6252  -16.2184 N   0  0  0  0  0  0  0  0  0  0  0  0
   21.1564  -17.7102  -17.1169 C   0  0  0  0  0  0  0  0  0  0  0  0
   20.8782  -17.3931  -15.9308 O   0  0  0  0  0  0  0  0  0  0  0  0
   20.7521  -16.7992  -18.0877 O   0  0  0  0  0  0  0  0  0  0  0  0
  1  2  1  0
  2  3  2  0
  2  4  1  0
  4  5  1  0
  6  5  1  0
  6  7  1  1
  8  9  2  0
  8  6  1  0
 10 11  1  0
 11 21  2  0
 12 11  1  0
 12 13  2  0
 13 14  1  0
 14 15  1  0
 16 15  1  6
 16 17  1  0
 17  8  1  0
 18 16  1  0
 18 26  1  0
 19 18  2  0
 20 14  2  0
 21 20  1  0
 23 22  1  1
 23 25  1  0
 24 23  1  0
 25 26  1  1
 25 27  1  0
 27 29  1  0
 28 27  2  0
M  END
$$$$
