QYT.pdb
     RDKit          3D

 29 29  0  0  1  0  0  0  0  0999 V2000
   29.2492  -18.1211  -18.4172 N   0  0  0  0  0  0  0  0  0  0  0  0
   29.5380  -18.8967  -19.5674 C   0  0  0  0  0  0  0  0  0  0  0  0
   30.4275  -18.4986  -20.3477 O   0  0  0  0  0  0  0  0  0  0  0  0
   28.8037  -20.1493  -19.8413 C   0  0  0  0  0  0  0  0  0  0  0  0
   27.8739  -20.5737  -18.7498 C   0  0  0  0  0  0  0  0  0  0  0  0
   28.5043  -21.2600  -17.5889 C   0  0  2  0  0  0  0  0  0  0  0  0
   29.0236  -22.5776  -17.9765 N   0  0  0  0  0  0  0  0  0  0  0  0
   27.6294  -21.4017  -16.3994 C   0  0  0  0  0  0  0  0  0  0  0  0
   26.7720  -22.3165  -16.3918 O   0  0  0  0  0  0  0  0  0  0  0  0
   24.3361  -20.7491   -8.1818 O   0  0  0  0  0  0  0  0  0  0  0  0
   25.1273  -20.6310   -9.3380 C   0  0  0  0  0  0  0  0  0  0  0  0
   24.9030  -19.5917  -10.1869 C   0  0  0  0  0  0  0  0  0  0  0  0
   25.6896  -19.4799  -11.3302 C   0  0  0  0  0  0  0  0  0  0  0  0
   26.6844  -20.3788  -11.6351 C   0  0  0  0  0  0  0  0  0  0  0  0
   27.4919  -20.2279  -12.8462 C   0  0  0  0  0  0  0  0  0  0  0  0
   26.8353  -20.6544  -14.1109 C   0  0  2  0  0  0  0  0  0  0  0  0
   27.7112  -20.5521  -15.2624 N   0  0  0  0  0  0  0  0  0  0  0  0
   25.5314  -20.0468  -14.3978 C   0  0  0  0  0  0  0  0  0  0  0  0
   25.4415  -18.8035  -14.6915 O   0  0  0  0  0  0  0  0  0  0  0  0
   26.8840  -21.4240  -10.7476 C   0  0  0  0  0  0  0  0  0  0  0  0
   26.1085  -21.5485   -9.6048 C   0  0  0  0  0  0  0  0  0  0  0  0
   22.9349  -20.0165  -16.9479 C   0  0  0  0  0  0  0  0  0  0  0  0
   22.2869  -20.6128  -15.7165 C   0  0  1  0  0  0  0  0  0  0  0  0
   22.3480  -21.9819  -15.7937 O   0  0  0  0  0  0  0  0  0  0  0  0
   23.0031  -20.0768  -14.4601 C   0  0  2  0  0  0  0  0  0  0  0  0
   24.2901  -20.7336  -14.3847 N   0  0  0  0  0  0  0  0  0  0  0  0
   22.1784  -20.5573  -13.3242 C   0  0  0  0  0  0  0  0  0  0  0  0
   22.5780  -21.4506  -12.5323 O   0  0  0  0  0  0  0  0  0  0  0  0
   20.9094  -20.0515  -13.0606 O   0  0  0  0  0  0  0  0  0  0  0  0
  1  2  1  0
  2  3  2  0
  2  4  1  0
  4  5  1  0
  6  5  1  0
  6  7  1  6
  8  9  2  0
  8  6  1  0
 10 11  1  0
 11 21  2  0
 12 11  1  0
 12 13  2  0
 13 14  1  0
 14 15  1  0
 16 15  1  1
 16 17  1  0
 17  8  1  0
 18 16  1  0
 18 26  1  0
 19 18  2  0
 20 14  2  0
 21 20  1  0
 23 22  1  6
 23 25  1  0
 24 23  1  0
 25 26  1  1
 25 27  1  0
 27 29  1  0
 28 27  2  0
M  END
$$$$
