QYT.pdb
     RDKit          3D

 29 29  0  0  1  0  0  0  0  0999 V2000
   26.7272  -19.3991  -18.4027 N   0  0  0  0  0  0  0  0  0  0  0  0
   27.8893  -19.7518  -19.1327 C   0  0  0  0  0  0  0  0  0  0  0  0
   28.4960  -18.8573  -19.7574 O   0  0  0  0  0  0  0  0  0  0  0  0
   28.3751  -21.1471  -19.1572 C   0  0  0  0  0  0  0  0  0  0  0  0
   27.5589  -22.1015  -18.3453 C   0  0  0  0  0  0  0  0  0  0  0  0
   28.1386  -22.4998  -17.0333 C   0  0  2  0  0  0  0  0  0  0  0  0
   28.7810  -23.8172  -17.1212 N   0  0  0  0  0  0  0  0  0  0  0  0
   27.1808  -22.4894  -15.9006 C   0  0  0  0  0  0  0  0  0  0  0  0
   26.3316  -23.4087  -15.8256 O   0  0  0  0  0  0  0  0  0  0  0  0
   23.0984  -20.5432   -8.2438 O   0  0  0  0  0  0  0  0  0  0  0  0
   23.9864  -20.5964   -9.3325 C   0  0  0  0  0  0  0  0  0  0  0  0
   25.1692  -21.2530   -9.1869 C   0  0  0  0  0  0  0  0  0  0  0  0
   26.0445  -21.3024  -10.2684 C   0  0  0  0  0  0  0  0  0  0  0  0
   25.7606  -20.7137  -11.4781 C   0  0  0  0  0  0  0  0  0  0  0  0
   26.7056  -20.7876  -12.5931 C   0  0  0  0  0  0  0  0  0  0  0  0
   26.1792  -21.4071  -13.8387 C   0  0  2  0  0  0  0  0  0  0  0  0
   27.1739  -21.4883  -14.8910 N   0  0  0  0  0  0  0  0  0  0  0  0
   24.9243  -20.8505  -14.3557 C   0  0  0  0  0  0  0  0  0  0  0  0
   24.8982  -19.6876  -14.8915 O   0  0  0  0  0  0  0  0  0  0  0  0
   24.5471  -20.0541  -11.5893 C   0  0  0  0  0  0  0  0  0  0  0  0
   23.6651  -19.9964  -10.5209 C   0  0  0  0  0  0  0  0  0  0  0  0
   22.0272  -23.0830  -15.8903 C   0  0  0  0  0  0  0  0  0  0  0  0
   22.0293  -21.5821  -16.0884 C   0  0  1  0  0  0  0  0  0  0  0  0
   20.7871  -21.1824  -16.5142 O   0  0  0  0  0  0  0  0  0  0  0  0
   22.4288  -20.8992  -14.7646 C   0  0  2  0  0  0  0  0  0  0  0  0
   23.6663  -21.5054  -14.3234 N   0  0  0  0  0  0  0  0  0  0  0  0
   21.3642  -21.2863  -13.8064 C   0  0  0  0  0  0  0  0  0  0  0  0
   21.5732  -22.0799  -12.8518 O   0  0  0  0  0  0  0  0  0  0  0  0
   20.0652  -20.7969  -13.9009 O   0  0  0  0  0  0  0  0  0  0  0  0
  1  2  1  0
  2  3  2  0
  2  4  1  0
  4  5  1  0
  6  5  1  0
  6  7  1  6
  8  9  2  0
  8  6  1  0
 10 11  1  0
 11 21  2  0
 12 11  1  0
 12 13  2  0
 13 14  1  0
 14 15  1  0
 16 15  1  1
 16 17  1  0
 17  8  1  0
 18 16  1  0
 18 26  1  0
 19 18  2  0
 20 14  2  0
 21 20  1  0
 23 22  1  1
 23 25  1  0
 24 23  1  0
 25 26  1  1
 25 27  1  0
 27 29  1  0
 28 27  2  0
M  END
$$$$
