QYT.pdb
     RDKit          3D

 29 29  0  0  1  0  0  0  0  0999 V2000
   25.8850  -13.9400  -19.8388 N   0  0  0  0  0  0  0  0  0  0  0  0
   26.5283  -14.1355  -18.5916 C   0  0  0  0  0  0  0  0  0  0  0  0
   27.5283  -14.8815  -18.5463 O   0  0  0  0  0  0  0  0  0  0  0  0
   26.0289  -13.4735  -17.3686 C   0  0  0  0  0  0  0  0  0  0  0  0
   24.9152  -12.5028  -17.6004 C   0  0  0  0  0  0  0  0  0  0  0  0
   24.4717  -11.7260  -16.4105 C   0  0  2  0  0  0  0  0  0  0  0  0
   24.1306  -12.6202  -15.2969 N   0  0  0  0  0  0  0  0  0  0  0  0
   23.3457  -10.7931  -16.6605 C   0  0  0  0  0  0  0  0  0  0  0  0
   22.5819  -11.0216  -17.6282 O   0  0  0  0  0  0  0  0  0  0  0  0
   16.1327   -6.1944  -16.9807 O   0  0  0  0  0  0  0  0  0  0  0  0
   17.2525   -7.0129  -16.7514 C   0  0  0  0  0  0  0  0  0  0  0  0
   18.1770   -7.1569  -17.7392 C   0  0  0  0  0  0  0  0  0  0  0  0
   19.2839   -7.9687  -17.5064 C   0  0  0  0  0  0  0  0  0  0  0  0
   19.4794   -8.6307  -16.3173 C   0  0  0  0  0  0  0  0  0  0  0  0
   20.6564   -9.4750  -16.1089 C   0  0  0  0  0  0  0  0  0  0  0  0
   21.9586   -8.7578  -16.0608 C   0  0  2  0  0  0  0  0  0  0  0  0
   23.0850   -9.6487  -15.8582 N   0  0  0  0  0  0  0  0  0  0  0  0
   22.0324   -7.6148  -15.1444 C   0  0  0  0  0  0  0  0  0  0  0  0
   22.1130   -7.7972  -13.8793 O   0  0  0  0  0  0  0  0  0  0  0  0
   18.5173   -8.4604  -15.3348 C   0  0  0  0  0  0  0  0  0  0  0  0
   17.4096   -7.6551  -15.5520 C   0  0  0  0  0  0  0  0  0  0  0  0
   22.8674   -3.8160  -16.5790 C   0  0  0  0  0  0  0  0  0  0  0  0
   23.2000   -4.1852  -15.1490 C   0  0  1  0  0  0  0  0  0  0  0  0
   23.2867   -3.0402  -14.3969 O   0  0  0  0  0  0  0  0  0  0  0  0
   22.1184   -5.1439  -14.6111 C   0  0  2  0  0  0  0  0  0  0  0  0
   22.0254   -6.2517  -15.5372 N   0  0  0  0  0  0  0  0  0  0  0  0
   20.8551   -4.3705  -14.6966 C   0  0  0  0  0  0  0  0  0  0  0  0
   19.9514   -4.6465  -15.5284 O   0  0  0  0  0  0  0  0  0  0  0  0
   20.5874   -3.2896  -13.8625 O   0  0  0  0  0  0  0  0  0  0  0  0
  1  2  1  0
  2  3  2  0
  2  4  1  0
  4  5  1  0
  6  5  1  0
  6  7  1  1
  8  9  2  0
  8  6  1  0
 10 11  1  0
 11 21  2  0
 12 11  1  0
 12 13  2  0
 13 14  1  0
 14 15  1  0
 16 15  1  1
 16 17  1  0
 17  8  1  0
 18 16  1  0
 18 26  1  0
 19 18  2  0
 20 14  2  0
 21 20  1  0
 23 22  1  6
 23 25  1  0
 24 23  1  0
 25 26  1  6
 25 27  1  0
 27 29  1  0
 28 27  2  0
M  END
$$$$
