QYT.pdb
     RDKit          3D

 29 29  0  0  1  0  0  0  0  0999 V2000
   21.2703   -9.0513  -23.1458 N   0  0  0  0  0  0  0  0  0  0  0  0
   22.3444   -9.9319  -23.4266 C   0  0  0  0  0  0  0  0  0  0  0  0
   22.6992  -10.0807  -24.6142 O   0  0  0  0  0  0  0  0  0  0  0  0
   23.0313  -10.6608  -22.3403 C   0  0  0  0  0  0  0  0  0  0  0  0
   22.4936  -10.3848  -20.9725 C   0  0  0  0  0  0  0  0  0  0  0  0
   23.2186   -9.3498  -20.1855 C   0  0  2  0  0  0  0  0  0  0  0  0
   24.6424   -9.6862  -20.0613 N   0  0  0  0  0  0  0  0  0  0  0  0
   22.6531   -9.0809  -18.8407 C   0  0  0  0  0  0  0  0  0  0  0  0
   21.4203   -8.8763  -18.7391 O   0  0  0  0  0  0  0  0  0  0  0  0
   21.5798  -15.1176  -16.9759 O   0  0  0  0  0  0  0  0  0  0  0  0
   22.0059  -13.8357  -16.5865 C   0  0  0  0  0  0  0  0  0  0  0  0
   21.1065  -12.9858  -16.0207 C   0  0  0  0  0  0  0  0  0  0  0  0
   21.5342  -11.7176  -15.6370 C   0  0  0  0  0  0  0  0  0  0  0  0
   22.8299  -11.2903  -15.8075 C   0  0  0  0  0  0  0  0  0  0  0  0
   23.2428   -9.9496  -15.3906 C   0  0  0  0  0  0  0  0  0  0  0  0
   22.8880   -8.8500  -16.3272 C   0  0  2  0  0  0  0  0  0  0  0  0
   23.4375   -9.0425  -17.6556 N   0  0  0  0  0  0  0  0  0  0  0  0
   23.1507   -7.4874  -15.8518 C   0  0  0  0  0  0  0  0  0  0  0  0
   24.3433   -7.0208  -15.8353 O   0  0  0  0  0  0  0  0  0  0  0  0
   23.7175  -12.1827  -16.3868 C   0  0  0  0  0  0  0  0  0  0  0  0
   23.3062  -13.4491  -16.7741 C   0  0  0  0  0  0  0  0  0  0  0  0
   21.8227   -4.2561  -17.1579 C   0  0  0  0  0  0  0  0  0  0  0  0
   21.4631   -4.2975  -15.6879 C   0  0  1  0  0  0  0  0  0  0  0  0
   20.1641   -4.7204  -15.5538 O   0  0  0  0  0  0  0  0  0  0  0  0
   22.4483   -5.2297  -14.9538 C   0  0  2  0  0  0  0  0  0  0  0  0
   22.1642   -6.5816  -15.3840 N   0  0  0  0  0  0  0  0  0  0  0  0
   22.0745   -5.1184  -13.5223 C   0  0  0  0  0  0  0  0  0  0  0  0
   22.2912   -4.0774  -12.8485 O   0  0  0  0  0  0  0  0  0  0  0  0
   21.4599   -6.1581  -12.8316 O   0  0  0  0  0  0  0  0  0  0  0  0
  1  2  1  0
  2  3  2  0
  2  4  1  0
  4  5  1  0
  6  5  1  0
  6  7  1  1
  8  9  2  0
  8  6  1  0
 10 11  1  0
 11 21  2  0
 12 11  1  0
 12 13  2  0
 13 14  1  0
 14 15  1  0
 16 15  1  1
 16 17  1  0
 17  8  1  0
 18 16  1  0
 18 26  1  0
 19 18  2  0
 20 14  2  0
 21 20  1  0
 23 22  1  6
 23 25  1  0
 24 23  1  0
 25 26  1  6
 25 27  1  0
 27 29  1  0
 28 27  2  0
M  END
$$$$
