QYT.pdb
     RDKit          3D

 29 29  0  0  1  0  0  0  0  0999 V2000
   25.7235  -17.9145  -21.2433 N   0  0  0  0  0  0  0  0  0  0  0  0
   27.0940  -18.1335  -21.5287 C   0  0  0  0  0  0  0  0  0  0  0  0
   27.5961  -17.5626  -22.5189 O   0  0  0  0  0  0  0  0  0  0  0  0
   27.9142  -19.0185  -20.6758 C   0  0  0  0  0  0  0  0  0  0  0  0
   27.2119  -19.5312  -19.4592 C   0  0  0  0  0  0  0  0  0  0  0  0
   28.0454  -20.3211  -18.5118 C   0  0  2  0  0  0  0  0  0  0  0  0
   28.5786  -21.5258  -19.1602 N   0  0  0  0  0  0  0  0  0  0  0  0
   27.3648  -20.6973  -17.2486 C   0  0  0  0  0  0  0  0  0  0  0  0
   26.4174  -21.5169  -17.2996 O   0  0  0  0  0  0  0  0  0  0  0  0
   24.9459  -20.6949   -8.6553 O   0  0  0  0  0  0  0  0  0  0  0  0
   25.6477  -20.5829   -9.8684 C   0  0  0  0  0  0  0  0  0  0  0  0
   25.9486  -19.3440  -10.3437 C   0  0  0  0  0  0  0  0  0  0  0  0
   26.6437  -19.2393  -11.5455 C   0  0  0  0  0  0  0  0  0  0  0  0
   27.0381  -20.3387  -12.2709 C   0  0  0  0  0  0  0  0  0  0  0  0
   27.7685  -20.1891  -13.5301 C   0  0  0  0  0  0  0  0  0  0  0  0
   26.9632  -20.3866  -14.7650 C   0  0  2  0  0  0  0  0  0  0  0  0
   27.7307  -20.1761  -15.9775 N   0  0  0  0  0  0  0  0  0  0  0  0
   25.6894  -19.6618  -14.8275 C   0  0  0  0  0  0  0  0  0  0  0  0
   25.6688  -18.3915  -14.9890 O   0  0  0  0  0  0  0  0  0  0  0  0
   26.7141  -21.5837  -11.7559 C   0  0  0  0  0  0  0  0  0  0  0  0
   26.0222  -21.7038  -10.5603 C   0  0  0  0  0  0  0  0  0  0  0  0
   22.8689  -18.8275  -16.8766 C   0  0  0  0  0  0  0  0  0  0  0  0
   22.3088  -19.6838  -15.7608 C   0  0  1  0  0  0  0  0  0  0  0  0
   22.2641  -20.9914  -16.1760 O   0  0  0  0  0  0  0  0  0  0  0  0
   23.1855  -19.5110  -14.5038 C   0  0  2  0  0  0  0  0  0  0  0  0
   24.4057  -20.2568  -14.7237 N   0  0  0  0  0  0  0  0  0  0  0  0
   22.4271  -20.1856  -13.4216 C   0  0  0  0  0  0  0  0  0  0  0  0
   22.8142  -21.2635  -12.8990 O   0  0  0  0  0  0  0  0  0  0  0  0
   21.2386  -19.6704  -12.9142 O   0  0  0  0  0  0  0  0  0  0  0  0
  1  2  1  0
  2  3  2  0
  2  4  1  0
  4  5  1  0
  6  5  1  0
  6  7  1  6
  8  9  2  0
  8  6  1  0
 10 11  1  0
 11 21  2  0
 12 11  1  0
 12 13  2  0
 13 14  1  0
 14 15  1  0
 16 15  1  1
 16 17  1  0
 17  8  1  0
 18 16  1  0
 18 26  1  0
 19 18  2  0
 20 14  2  0
 21 20  1  0
 23 22  1  6
 23 25  1  0
 24 23  1  0
 25 26  1  6
 25 27  1  0
 27 29  1  0
 28 27  2  0
M  END
$$$$
