MPI.pdb
     RDKit          3D

 24 24  0  0  1  0  0  0  0  0999 V2000
    9.1494  -11.6215   20.9453 C   0  0  0  0  0  0  0  0  0  0  0  0
    7.7541  -12.6561   20.4984 S   0  0  0  0  0  0  0  0  0  0  0  0
    8.0262  -14.3988   20.8992 C   0  0  0  0  0  0  0  0  0  0  0  0
    6.7819  -15.2233   20.6236 C   0  0  0  0  0  0  0  0  0  0  0  0
    7.0305  -16.6923   20.9842 C   0  0  2  0  0  0  0  0  0  0  0  0
    5.8795  -17.4115   20.5675 N   0  0  0  0  0  0  0  0  0  0  0  0
    7.4535  -16.8552   22.3691 C   0  0  0  0  0  0  0  0  0  0  0  0
    6.5163  -16.7673   23.2390 O   0  0  0  0  0  0  0  0  0  0  0  0
    8.7587  -17.0949   22.8603 N   0  0  0  0  0  0  0  0  0  0  0  0
   10.0378  -17.0148   22.1985 C   0  0  0  0  0  0  0  0  0  0  0  0
   10.8087  -18.1567   22.8069 C   0  0  0  0  0  0  0  0  0  0  0  0
   10.0979  -18.5150   24.0819 C   0  0  0  0  0  0  0  0  0  0  0  0
    9.0474  -17.4813   24.2226 C   0  0  1  0  0  0  0  0  0  0  0  0
    9.5049  -16.2419   24.9494 C   0  0  0  0  0  0  0  0  0  0  0  0
   10.3234  -15.4746   24.3882 O   0  0  0  0  0  0  0  0  0  0  0  0
    6.2938  -12.6863   26.3260 C   0  0  0  0  0  0  0  0  0  0  0  0
    7.5098  -13.4903   26.0806 C   0  0  0  0  0  0  0  0  0  0  0  0
    8.4346  -13.7873   27.1699 C   0  0  2  0  0  0  0  0  0  0  0  0
    8.9170  -12.4851   27.8374 C   0  0  0  0  0  0  0  0  0  0  0  0
    9.5010  -14.7663   26.9948 C   0  0  2  0  0  0  0  0  0  0  0  0
    9.0390  -15.9295   26.2312 N   0  0  0  0  0  0  0  0  0  0  0  0
   10.4421  -15.1220   28.0405 C   0  0  0  0  0  0  0  0  0  0  0  0
   10.2524  -16.1492   28.7387 O   0  0  0  0  0  0  0  0  0  0  0  0
   11.5769  -14.4171   28.3507 O   0  0  0  0  0  0  0  0  0  0  0  0
  1  2  1  0
  3  2  1  0
  4  3  1  0
  5  6  1  1
  5  4  1  0
  7  5  1  0
  8  7  2  0
  9 10  1  0
  9  7  1  0
 11 10  1  0
 12 11  1  0
 12 13  1  0
 13  9  1  0
 13 14  1  1
 14 15  2  0
 17 18  1  0
 17 16  1  0
 18 20  1  0
 18 19  1  6
 20 21  1  1
 21 14  1  0
 22 20  1  0
 23 22  2  0
 24 22  1  0
M  END
$$$$
