MPI.pdb
     RDKit          3D

 24 24  0  0  1  0  0  0  0  0999 V2000
    5.0923  -11.9372   25.7526 C   0  0  0  0  0  0  0  0  0  0  0  0
    6.7310  -12.5403   26.1622 S   0  0  0  0  0  0  0  0  0  0  0  0
    7.2726  -13.8749   25.0681 C   0  0  0  0  0  0  0  0  0  0  0  0
    6.0853  -14.6327   24.5021 C   0  0  0  0  0  0  0  0  0  0  0  0
    6.5549  -15.6359   23.4424 C   0  0  2  0  0  0  0  0  0  0  0  0
    5.4182  -16.4070   23.0834 N   0  0  0  0  0  0  0  0  0  0  0  0
    7.7476  -16.3611   23.8609 C   0  0  0  0  0  0  0  0  0  0  0  0
    7.5330  -17.3688   24.6232 O   0  0  0  0  0  0  0  0  0  0  0  0
    9.0961  -16.0875   23.5305 N   0  0  0  0  0  0  0  0  0  0  0  0
    9.6874  -14.9437   22.8806 C   0  0  0  0  0  0  0  0  0  0  0  0
   10.7759  -15.5552   22.0380 C   0  0  0  0  0  0  0  0  0  0  0  0
   11.0327  -16.9228   22.6065 C   0  0  0  0  0  0  0  0  0  0  0  0
   10.1937  -16.9802   23.8249 C   0  0  1  0  0  0  0  0  0  0  0  0
   10.8770  -16.4530   25.0614 C   0  0  0  0  0  0  0  0  0  0  0  0
   11.8389  -15.6581   24.9329 O   0  0  0  0  0  0  0  0  0  0  0  0
    9.9085  -12.9177   28.0834 C   0  0  0  0  0  0  0  0  0  0  0  0
   10.4571  -14.1240   27.4283 C   0  0  0  0  0  0  0  0  0  0  0  0
   10.7548  -15.3209   28.2086 C   0  0  2  0  0  0  0  0  0  0  0  0
   11.5633  -14.9557   29.4683 C   0  0  0  0  0  0  0  0  0  0  0  0
   11.2335  -16.5343   27.5568 C   0  0  2  0  0  0  0  0  0  0  0  0
   10.4640  -16.8292   26.3442 N   0  0  0  0  0  0  0  0  0  0  0  0
   11.6206  -17.7324   28.2783 C   0  0  0  0  0  0  0  0  0  0  0  0
   10.8084  -18.6822   28.4078 O   0  0  0  0  0  0  0  0  0  0  0  0
   12.8478  -17.9425   28.8533 O   0  0  0  0  0  0  0  0  0  0  0  0
  1  2  1  0
  3  2  1  0
  4  3  1  0
  5  6  1  1
  5  4  1  0
  7  5  1  0
  8  7  2  0
  9 10  1  0
  9  7  1  0
 11 10  1  0
 12 11  1  0
 12 13  1  0
 13  9  1  0
 13 14  1  1
 14 15  2  0
 17 18  1  0
 17 16  1  0
 18 20  1  0
 18 19  1  1
 20 21  1  6
 21 14  1  0
 22 20  1  0
 23 22  2  0
 24 22  1  0
M  END
$$$$
