MPI.pdb
     RDKit          3D

 24 24  0  0  1  0  0  0  0  0999 V2000
    2.1898  -19.4977   21.5819 C   0  0  0  0  0  0  0  0  0  0  0  0
    3.0089  -17.9286   21.8716 S   0  0  0  0  0  0  0  0  0  0  0  0
    4.6353  -18.1262   22.6380 C   0  0  0  0  0  0  0  0  0  0  0  0
    5.4389  -19.2097   21.9421 C   0  0  0  0  0  0  0  0  0  0  0  0
    6.4419  -18.5810   20.9682 C   0  0  2  0  0  0  0  0  0  0  0  0
    7.0356  -19.6527   20.2509 N   0  0  0  0  0  0  0  0  0  0  0  0
    7.3397  -17.6439   21.6313 C   0  0  0  0  0  0  0  0  0  0  0  0
    8.2669  -18.1821   22.3337 O   0  0  0  0  0  0  0  0  0  0  0  0
    7.3087  -16.2298   21.5924 N   0  0  0  0  0  0  0  0  0  0  0  0
    6.3861  -15.3308   20.9437 C   0  0  0  0  0  0  0  0  0  0  0  0
    7.2750  -14.2076   20.4778 C   0  0  0  0  0  0  0  0  0  0  0  0
    8.5418  -14.3103   21.2803 C   0  0  0  0  0  0  0  0  0  0  0  0
    8.2715  -15.3852   22.2619 C   0  0  1  0  0  0  0  0  0  0  0  0
    7.6278  -14.8997   23.5362 C   0  0  0  0  0  0  0  0  0  0  0  0
    6.8260  -13.9364   23.4842 O   0  0  0  0  0  0  0  0  0  0  0  0
    5.8202  -12.0245   26.1248 C   0  0  0  0  0  0  0  0  0  0  0  0
    6.8654  -12.9082   25.5664 C   0  0  0  0  0  0  0  0  0  0  0  0
    7.6523  -13.7709   26.4419 C   0  0  2  0  0  0  0  0  0  0  0  0
    8.3134  -12.9438   27.5612 C   0  0  0  0  0  0  0  0  0  0  0  0
    8.5384  -14.7865   25.8854 C   0  0  2  0  0  0  0  0  0  0  0  0
    7.9040  -15.4971   24.7709 N   0  0  0  0  0  0  0  0  0  0  0  0
    9.3749  -15.6518   26.6962 C   0  0  0  0  0  0  0  0  0  0  0  0
   10.0566  -15.1718   27.6362 O   0  0  0  0  0  0  0  0  0  0  0  0
    9.4936  -17.0084   26.5340 O   0  0  0  0  0  0  0  0  0  0  0  0
  1  2  1  0
  3  2  1  0
  4  3  1  0
  5  6  1  1
  5  4  1  0
  7  5  1  0
  8  7  2  0
  9 10  1  0
  9  7  1  0
 11 10  1  0
 12 11  1  0
 12 13  1  0
 13  9  1  0
 13 14  1  1
 14 15  2  0
 17 18  1  0
 17 16  1  0
 18 20  1  0
 18 19  1  6
 20 21  1  1
 21 14  1  0
 22 20  1  0
 23 22  2  0
 24 22  1  0
M  END
$$$$
