MPI.pdb
     RDKit          3D

 24 24  0  0  1  0  0  0  0  0999 V2000
    8.0707  -18.7401   29.7531 C   0  0  0  0  0  0  0  0  0  0  0  0
    8.7723  -18.5644   28.1119 S   0  0  0  0  0  0  0  0  0  0  0  0
    7.7270  -17.5797   27.0123 C   0  0  0  0  0  0  0  0  0  0  0  0
    6.6330  -18.4301   26.3925 C   0  0  0  0  0  0  0  0  0  0  0  0
    5.7350  -17.5671   25.4987 C   0  0  2  0  0  0  0  0  0  0  0  0
    4.8392  -18.4553   24.8473 N   0  0  0  0  0  0  0  0  0  0  0  0
    6.5046  -16.6600   24.6571 C   0  0  0  0  0  0  0  0  0  0  0  0
    6.6262  -17.0230   23.4338 O   0  0  0  0  0  0  0  0  0  0  0  0
    7.1256  -15.4431   25.0256 N   0  0  0  0  0  0  0  0  0  0  0  0
    7.1761  -14.7653   26.2978 C   0  0  0  0  0  0  0  0  0  0  0  0
    7.0977  -13.3112   25.9127 C   0  0  0  0  0  0  0  0  0  0  0  0
    7.4706  -13.2382   24.4585 C   0  0  0  0  0  0  0  0  0  0  0  0
    7.8830  -14.6175   24.1128 C   0  0  1  0  0  0  0  0  0  0  0  0
    9.3428  -14.8988   24.3648 C   0  0  0  0  0  0  0  0  0  0  0  0
    9.7259  -15.1210   25.5384 O   0  0  0  0  0  0  0  0  0  0  0  0
   10.0406  -16.7672   19.3937 C   0  0  0  0  0  0  0  0  0  0  0  0
    9.9906  -16.5984   20.8613 C   0  0  0  0  0  0  0  0  0  0  0  0
   11.2123  -16.3544   21.6217 C   0  0  2  0  0  0  0  0  0  0  0  0
   12.2857  -17.4014   21.2673 C   0  0  0  0  0  0  0  0  0  0  0  0
   11.1545  -16.0589   23.0484 C   0  0  2  0  0  0  0  0  0  0  0  0
   10.2765  -14.9173   23.3228 N   0  0  0  0  0  0  0  0  0  0  0  0
   12.3124  -16.0961   23.9222 C   0  0  0  0  0  0  0  0  0  0  0  0
   12.8408  -15.0268   24.3171 O   0  0  0  0  0  0  0  0  0  0  0  0
   12.9102  -17.2393   24.3878 O   0  0  0  0  0  0  0  0  0  0  0  0
  1  2  1  0
  3  2  1  0
  4  3  1  0
  5  6  1  6
  5  4  1  0
  7  5  1  0
  8  7  2  0
  9 10  1  0
  9  7  1  0
 11 10  1  0
 12 11  1  0
 12 13  1  0
 13  9  1  0
 13 14  1  1
 14 15  2  0
 17 18  1  0
 17 16  1  0
 18 20  1  0
 18 19  1  1
 20 21  1  6
 21 14  1  0
 22 20  1  0
 23 22  2  0
 24 22  1  0
M  END
$$$$
