MPI.pdb
     RDKit          3D

 24 24  0  0  1  0  0  0  0  0999 V2000
    6.0902  -12.7563   25.9259 C   0  0  0  0  0  0  0  0  0  0  0  0
    6.5856  -14.1642   26.9206 S   0  0  0  0  0  0  0  0  0  0  0  0
    6.6727  -15.6950   25.9612 C   0  0  0  0  0  0  0  0  0  0  0  0
    5.8862  -15.5748   24.6685 C   0  0  0  0  0  0  0  0  0  0  0  0
    6.0875  -16.8279   23.8087 C   0  0  2  0  0  0  0  0  0  0  0  0
    5.4451  -17.8943   24.4912 N   0  0  0  0  0  0  0  0  0  0  0  0
    7.4826  -17.0202   23.4341 C   0  0  0  0  0  0  0  0  0  0  0  0
    7.8653  -18.2416   23.3673 O   0  0  0  0  0  0  0  0  0  0  0  0
    8.4514  -16.0316   23.1401 N   0  0  0  0  0  0  0  0  0  0  0  0
    8.3392  -14.5943   23.0961 C   0  0  0  0  0  0  0  0  0  0  0  0
    9.2351  -14.2174   21.9456 C   0  0  0  0  0  0  0  0  0  0  0  0
   10.1419  -15.3933   21.7129 C   0  0  0  0  0  0  0  0  0  0  0  0
    9.8295  -16.3257   22.8197 C   0  0  1  0  0  0  0  0  0  0  0  0
   10.6387  -16.0827   24.0687 C   0  0  0  0  0  0  0  0  0  0  0  0
   11.5408  -15.2113   24.0493 O   0  0  0  0  0  0  0  0  0  0  0  0
    9.8790  -13.1591   28.5331 C   0  0  0  0  0  0  0  0  0  0  0  0
   10.6809  -14.3201   28.0924 C   0  0  0  0  0  0  0  0  0  0  0  0
   10.4066  -14.9683   26.8139 C   0  0  2  0  0  0  0  0  0  0  0  0
    8.9550  -14.6987   26.3734 C   0  0  0  0  0  0  0  0  0  0  0  0
   10.8296  -16.3423   26.5701 C   0  0  2  0  0  0  0  0  0  0  0  0
   10.4069  -16.8047   25.2446 N   0  0  0  0  0  0  0  0  0  0  0  0
   10.7692  -17.3894   27.5729 C   0  0  0  0  0  0  0  0  0  0  0  0
   11.4401  -17.2909   28.6306 O   0  0  0  0  0  0  0  0  0  0  0  0
   10.0087  -18.5268   27.4779 O   0  0  0  0  0  0  0  0  0  0  0  0
  1  2  1  0
  3  2  1  0
  4  3  1  0
  5  6  1  1
  5  4  1  0
  7  5  1  0
  8  7  2  0
  9 10  1  0
  9  7  1  0
 11 10  1  0
 12 11  1  0
 12 13  1  0
 13  9  1  0
 13 14  1  1
 14 15  2  0
 17 18  1  0
 17 16  1  0
 18 20  1  0
 18 19  1  1
 20 21  1  6
 21 14  1  0
 22 20  1  0
 23 22  2  0
 24 22  1  0
M  END
$$$$
