MPI.pdb
     RDKit          3D

 24 24  0  0  1  0  0  0  0  0999 V2000
    7.8369  -12.1075   18.7379 C   0  0  0  0  0  0  0  0  0  0  0  0
    7.9204  -12.3083   20.5183 S   0  0  0  0  0  0  0  0  0  0  0  0
    8.0665  -14.0415   21.0147 C   0  0  0  0  0  0  0  0  0  0  0  0
    6.9350  -14.8722   20.4370 C   0  0  0  0  0  0  0  0  0  0  0  0
    7.1447  -16.3542   20.7682 C   0  0  2  0  0  0  0  0  0  0  0  0
    6.0366  -17.0520   20.2199 N   0  0  0  0  0  0  0  0  0  0  0  0
    7.4344  -16.5670   22.1805 C   0  0  0  0  0  0  0  0  0  0  0  0
    6.4418  -16.3932   22.9724 O   0  0  0  0  0  0  0  0  0  0  0  0
    8.6652  -16.9369   22.7726 N   0  0  0  0  0  0  0  0  0  0  0  0
    9.9923  -17.0017   22.2116 C   0  0  0  0  0  0  0  0  0  0  0  0
   10.5882  -18.2106   22.8840 C   0  0  0  0  0  0  0  0  0  0  0  0
    9.7478  -18.4742   24.1019 C   0  0  0  0  0  0  0  0  0  0  0  0
    8.8059  -17.3332   24.1553 C   0  0  1  0  0  0  0  0  0  0  0  0
    9.3361  -16.1394   24.9087 C   0  0  0  0  0  0  0  0  0  0  0  0
   10.1853  -15.3995   24.3566 O   0  0  0  0  0  0  0  0  0  0  0  0
    6.3400  -12.4606   26.4464 C   0  0  0  0  0  0  0  0  0  0  0  0
    7.5708  -13.2258   26.1552 C   0  0  0  0  0  0  0  0  0  0  0  0
    8.4154  -13.7128   27.2412 C   0  0  2  0  0  0  0  0  0  0  0  0
    8.9282  -12.5366   28.0942 C   0  0  0  0  0  0  0  0  0  0  0  0
    9.4363  -14.7242   26.9939 C   0  0  2  0  0  0  0  0  0  0  0  0
    8.9039  -15.8397   26.2053 N   0  0  0  0  0  0  0  0  0  0  0  0
   10.3970  -15.1543   27.9928 C   0  0  0  0  0  0  0  0  0  0  0  0
   11.3868  -14.4317   28.2700 O   0  0  0  0  0  0  0  0  0  0  0  0
   10.3222  -16.3248   28.7036 O   0  0  0  0  0  0  0  0  0  0  0  0
  1  2  1  0
  3  2  1  0
  4  3  1  0
  5  6  1  1
  5  4  1  0
  7  5  1  0
  8  7  2  0
  9 10  1  0
  9  7  1  0
 11 10  1  0
 12 11  1  0
 12 13  1  0
 13  9  1  0
 13 14  1  1
 14 15  2  0
 17 18  1  0
 17 16  1  0
 18 20  1  0
 18 19  1  6
 20 21  1  1
 21 14  1  0
 22 20  1  0
 23 22  2  0
 24 22  1  0
M  END
$$$$
