MPI.pdb
     RDKit          3D

 24 24  0  0  1  0  0  0  0  0999 V2000
    4.9634  -13.0884   25.4537 C   0  0  0  0  0  0  0  0  0  0  0  0
    5.3376  -14.3761   26.6448 S   0  0  0  0  0  0  0  0  0  0  0  0
    6.0081  -15.8657   25.8682 C   0  0  0  0  0  0  0  0  0  0  0  0
    5.2800  -16.1820   24.5744 C   0  0  0  0  0  0  0  0  0  0  0  0
    5.9861  -17.3249   23.8363 C   0  0  2  0  0  0  0  0  0  0  0  0
    5.6581  -18.5189   24.5309 N   0  0  0  0  0  0  0  0  0  0  0  0
    7.3999  -17.0481   23.6168 C   0  0  0  0  0  0  0  0  0  0  0  0
    8.1647  -18.0765   23.6287 O   0  0  0  0  0  0  0  0  0  0  0  0
    8.0197  -15.7953   23.3958 N   0  0  0  0  0  0  0  0  0  0  0  0
    7.4974  -14.4569   23.5224 C   0  0  0  0  0  0  0  0  0  0  0  0
    8.1579  -13.7240   22.3843 C   0  0  0  0  0  0  0  0  0  0  0  0
    9.3432  -14.5542   21.9780 C   0  0  0  0  0  0  0  0  0  0  0  0
    9.3959  -15.6401   22.9829 C   0  0  1  0  0  0  0  0  0  0  0  0
   10.1938  -15.2932   24.2145 C   0  0  0  0  0  0  0  0  0  0  0  0
   10.6267  -14.1236   24.3495 O   0  0  0  0  0  0  0  0  0  0  0  0
   10.0849  -12.1240   26.8830 C   0  0  0  0  0  0  0  0  0  0  0  0
   10.5720  -13.3991   26.3157 C   0  0  0  0  0  0  0  0  0  0  0  0
   10.3564  -14.6564   27.0247 C   0  0  2  0  0  0  0  0  0  0  0  0
   10.5296  -14.4558   28.5425 C   0  0  0  0  0  0  0  0  0  0  0  0
   10.9554  -15.8952   26.5422 C   0  0  2  0  0  0  0  0  0  0  0  0
   10.4615  -16.2431   25.2063 N   0  0  0  0  0  0  0  0  0  0  0  0
   11.1708  -17.0607   27.3795 C   0  0  0  0  0  0  0  0  0  0  0  0
   10.4185  -18.0616   27.2751 O   0  0  0  0  0  0  0  0  0  0  0  0
   12.1679  -17.1854   28.3128 O   0  0  0  0  0  0  0  0  0  0  0  0
  1  2  1  0
  3  2  1  0
  4  3  1  0
  5  6  1  1
  5  4  1  0
  7  5  1  0
  8  7  2  0
  9 10  1  0
  9  7  1  0
 11 10  1  0
 12 11  1  0
 12 13  1  0
 13  9  1  0
 13 14  1  1
 14 15  2  0
 17 18  1  0
 17 16  1  0
 18 20  1  0
 18 19  1  1
 20 21  1  6
 21 14  1  0
 22 20  1  0
 23 22  2  0
 24 22  1  0
M  END
$$$$
