MPI.pdb
     RDKit          3D

 24 24  0  0  1  0  0  0  0  0999 V2000
    8.0836  -12.0905   18.8379 C   0  0  0  0  0  0  0  0  0  0  0  0
    8.0840  -12.3457   20.6133 S   0  0  0  0  0  0  0  0  0  0  0  0
    8.1486  -14.0967   21.0623 C   0  0  0  0  0  0  0  0  0  0  0  0
    6.9594  -14.8502   20.4949 C   0  0  0  0  0  0  0  0  0  0  0  0
    7.0583  -16.3382   20.8494 C   0  0  2  0  0  0  0  0  0  0  0  0
    5.8703  -16.9487   20.3680 N   0  0  0  0  0  0  0  0  0  0  0  0
    7.3955  -16.5490   22.2513 C   0  0  0  0  0  0  0  0  0  0  0  0
    6.4308  -16.3716   23.0763 O   0  0  0  0  0  0  0  0  0  0  0  0
    8.6450  -16.9203   22.8020 N   0  0  0  0  0  0  0  0  0  0  0  0
    9.9570  -16.9604   22.2042 C   0  0  0  0  0  0  0  0  0  0  0  0
   10.5814  -18.1781   22.8335 C   0  0  0  0  0  0  0  0  0  0  0  0
    9.7765  -18.4762   24.0674 C   0  0  0  0  0  0  0  0  0  0  0  0
    8.8265  -17.3454   24.1712 C   0  0  1  0  0  0  0  0  0  0  0  0
    9.3664  -16.1636   24.9364 C   0  0  0  0  0  0  0  0  0  0  0  0
   10.2245  -15.4274   24.3930 O   0  0  0  0  0  0  0  0  0  0  0  0
    6.1549  -12.7248   26.6272 C   0  0  0  0  0  0  0  0  0  0  0  0
    7.4296  -13.3808   26.2670 C   0  0  0  0  0  0  0  0  0  0  0  0
    8.3785  -13.7766   27.3029 C   0  0  2  0  0  0  0  0  0  0  0  0
    8.8802  -12.5409   28.0746 C   0  0  0  0  0  0  0  0  0  0  0  0
    9.4377  -14.7365   27.0147 C   0  0  2  0  0  0  0  0  0  0  0  0
    8.9335  -15.8707   26.2344 N   0  0  0  0  0  0  0  0  0  0  0  0
   10.4495  -15.1270   27.9787 C   0  0  0  0  0  0  0  0  0  0  0  0
   10.3704  -16.2361   28.5638 O   0  0  0  0  0  0  0  0  0  0  0  0
   11.5404  -14.3710   28.3241 O   0  0  0  0  0  0  0  0  0  0  0  0
  1  2  1  0
  3  2  1  0
  4  3  1  0
  5  6  1  1
  5  4  1  0
  7  5  1  0
  8  7  2  0
  9 10  1  0
  9  7  1  0
 11 10  1  0
 12 11  1  0
 12 13  1  0
 13  9  1  0
 13 14  1  1
 14 15  2  0
 17 18  1  0
 17 16  1  0
 18 20  1  0
 18 19  1  6
 20 21  1  1
 21 14  1  0
 22 20  1  0
 23 22  2  0
 24 22  1  0
M  END
$$$$
