MPI.pdb
     RDKit          3D

 24 24  0  0  1  0  0  0  0  0999 V2000
    7.6577  -11.9688   19.6457 C   0  0  0  0  0  0  0  0  0  0  0  0
    7.9365  -12.9346   18.1602 S   0  0  0  0  0  0  0  0  0  0  0  0
    7.9884  -14.7126   18.4883 C   0  0  0  0  0  0  0  0  0  0  0  0
    9.3794  -15.1495   18.9108 C   0  0  0  0  0  0  0  0  0  0  0  0
    9.2955  -16.4016   19.7912 C   0  0  2  0  0  0  0  0  0  0  0  0
    8.8949  -17.4668   18.9424 N   0  0  0  0  0  0  0  0  0  0  0  0
    8.5070  -16.1759   20.9957 C   0  0  0  0  0  0  0  0  0  0  0  0
    8.0902  -14.9746   21.1569 O   0  0  0  0  0  0  0  0  0  0  0  0
    8.1526  -17.1131   21.9949 N   0  0  0  0  0  0  0  0  0  0  0  0
    8.6267  -18.4546   22.2310 C   0  0  0  0  0  0  0  0  0  0  0  0
    7.3891  -19.1772   22.6944 C   0  0  0  0  0  0  0  0  0  0  0  0
    6.4178  -18.1158   23.1296 C   0  0  0  0  0  0  0  0  0  0  0  0
    7.1840  -16.8524   23.0353 C   0  0  1  0  0  0  0  0  0  0  0  0
    7.9546  -16.5117   24.2858 C   0  0  0  0  0  0  0  0  0  0  0  0
    9.1527  -16.8714   24.3792 O   0  0  0  0  0  0  0  0  0  0  0  0
    7.1239  -11.1163   26.9450 C   0  0  0  0  0  0  0  0  0  0  0  0
    7.7743  -12.4411   27.0290 C   0  0  0  0  0  0  0  0  0  0  0  0
    7.3222  -13.5438   26.1865 C   0  0  2  0  0  0  0  0  0  0  0  0
    5.8063  -13.7632   26.3536 C   0  0  0  0  0  0  0  0  0  0  0  0
    8.0748  -14.7913   26.1261 C   0  0  2  0  0  0  0  0  0  0  0  0
    7.3656  -15.8061   25.3407 N   0  0  0  0  0  0  0  0  0  0  0  0
    8.7827  -15.3560   27.2599 C   0  0  0  0  0  0  0  0  0  0  0  0
    8.3784  -16.4204   27.7910 O   0  0  0  0  0  0  0  0  0  0  0  0
    9.9087  -14.8199   27.8307 O   0  0  0  0  0  0  0  0  0  0  0  0
  1  2  1  0
  3  2  1  0
  4  3  1  0
  5  6  1  6
  5  4  1  0
  7  5  1  0
  8  7  2  0
  9 10  1  0
  9  7  1  0
 11 10  1  0
 12 11  1  0
 12 13  1  0
 13  9  1  0
 13 14  1  1
 14 15  2  0
 17 18  1  0
 17 16  1  0
 18 20  1  0
 18 19  1  1
 20 21  1  1
 21 14  1  0
 22 20  1  0
 23 22  2  0
 24 22  1  0
M  END
$$$$
