MPI.pdb
     RDKit          3D

 24 24  0  0  1  0  0  0  0  0999 V2000
    8.3492  -20.5599   23.1196 C   0  0  0  0  0  0  0  0  0  0  0  0
   10.1121  -20.3751   23.3932 S   0  0  0  0  0  0  0  0  0  0  0  0
   10.7735  -18.8611   22.6570 C   0  0  0  0  0  0  0  0  0  0  0  0
   10.3131  -18.7071   21.2188 C   0  0  0  0  0  0  0  0  0  0  0  0
   10.7910  -17.3656   20.6516 C   0  0  2  0  0  0  0  0  0  0  0  0
   12.2097  -17.4181   20.6293 N   0  0  0  0  0  0  0  0  0  0  0  0
   10.1763  -16.2311   21.3287 C   0  0  0  0  0  0  0  0  0  0  0  0
   10.9810  -15.5010   22.0086 O   0  0  0  0  0  0  0  0  0  0  0  0
    8.8147  -15.8460   21.3252 N   0  0  0  0  0  0  0  0  0  0  0  0
    7.6710  -16.4549   20.6915 C   0  0  0  0  0  0  0  0  0  0  0  0
    6.8479  -15.2690   20.2615 C   0  0  0  0  0  0  0  0  0  0  0  0
    7.3347  -14.1003   21.0716 C   0  0  0  0  0  0  0  0  0  0  0  0
    8.3040  -14.6885   22.0236 C   0  0  1  0  0  0  0  0  0  0  0  0
    7.6788  -15.1812   23.3043 C   0  0  0  0  0  0  0  0  0  0  0  0
    7.7464  -16.4022   23.5840 O   0  0  0  0  0  0  0  0  0  0  0  0
    5.6426  -10.8358   25.8475 C   0  0  0  0  0  0  0  0  0  0  0  0
    6.7075  -11.8336   25.6118 C   0  0  0  0  0  0  0  0  0  0  0  0
    6.6588  -13.1382   26.2643 C   0  0  2  0  0  0  0  0  0  0  0  0
    7.0219  -13.0085   27.7560 C   0  0  0  0  0  0  0  0  0  0  0  0
    7.2558  -14.3091   25.6327 C   0  0  2  0  0  0  0  0  0  0  0  0
    7.0271  -14.3104   24.1845 N   0  0  0  0  0  0  0  0  0  0  0  0
    7.2093  -15.6408   26.2071 C   0  0  0  0  0  0  0  0  0  0  0  0
    6.2407  -16.4021   25.9603 O   0  0  0  0  0  0  0  0  0  0  0  0
    8.1693  -16.1784   27.0258 O   0  0  0  0  0  0  0  0  0  0  0  0
  1  2  1  0
  3  2  1  0
  4  3  1  0
  5  6  1  1
  5  4  1  0
  7  5  1  0
  8  7  2  0
  9 10  1  0
  9  7  1  0
 11 10  1  0
 12 11  1  0
 12 13  1  0
 13  9  1  0
 13 14  1  1
 14 15  2  0
 17 18  1  0
 17 16  1  0
 18 20  1  0
 18 19  1  1
 20 21  1  6
 21 14  1  0
 22 20  1  0
 23 22  2  0
 24 22  1  0
M  END
$$$$
