MPI.pdb
     RDKit          3D

 24 24  0  0  1  0  0  0  0  0999 V2000
    6.4542  -12.6428   25.5838 C   0  0  0  0  0  0  0  0  0  0  0  0
    5.8036  -14.0674   26.4579 S   0  0  0  0  0  0  0  0  0  0  0  0
    6.2751  -15.6320   25.6824 C   0  0  0  0  0  0  0  0  0  0  0  0
    5.4569  -15.8890   24.4299 C   0  0  0  0  0  0  0  0  0  0  0  0
    5.9611  -17.1499   23.7187 C   0  0  2  0  0  0  0  0  0  0  0  0
    5.5064  -18.2556   24.4845 N   0  0  0  0  0  0  0  0  0  0  0  0
    7.3869  -17.0834   23.4249 C   0  0  0  0  0  0  0  0  0  0  0  0
    8.0090  -18.2022   23.4889 O   0  0  0  0  0  0  0  0  0  0  0  0
    8.1552  -15.9454   23.0829 N   0  0  0  0  0  0  0  0  0  0  0  0
    7.8324  -14.5415   23.1547 C   0  0  0  0  0  0  0  0  0  0  0  0
    8.5027  -13.9745   21.9308 C   0  0  0  0  0  0  0  0  0  0  0  0
    9.5300  -14.9855   21.5046 C   0  0  0  0  0  0  0  0  0  0  0  0
    9.5059  -16.0100   22.5732 C   0  0  1  0  0  0  0  0  0  0  0  0
   10.4314  -15.7111   23.7256 C   0  0  0  0  0  0  0  0  0  0  0  0
   11.6624  -15.6100   23.5069 O   0  0  0  0  0  0  0  0  0  0  0  0
   10.3995  -13.4194   29.4199 C   0  0  0  0  0  0  0  0  0  0  0  0
   10.5969  -14.5901   28.5393 C   0  0  0  0  0  0  0  0  0  0  0  0
   10.5621  -14.4405   27.0880 C   0  0  2  0  0  0  0  0  0  0  0  0
    9.3353  -13.6119   26.6609 C   0  0  0  0  0  0  0  0  0  0  0  0
   10.8092  -15.5827   26.2159 C   0  0  2  0  0  0  0  0  0  0  0  0
    9.9497  -15.5449   25.0287 N   0  0  0  0  0  0  0  0  0  0  0  0
   11.0285  -16.9314   26.7043 C   0  0  0  0  0  0  0  0  0  0  0  0
   10.1982  -17.8391   26.4486 O   0  0  0  0  0  0  0  0  0  0  0  0
   12.1095  -17.3333   27.4466 O   0  0  0  0  0  0  0  0  0  0  0  0
  1  2  1  0
  3  2  1  0
  4  3  1  0
  5  6  1  1
  5  4  1  0
  7  5  1  0
  8  7  2  0
  9 10  1  0
  9  7  1  0
 11 10  1  0
 12 11  1  0
 12 13  1  0
 13  9  1  0
 13 14  1  1
 14 15  2  0
 17 18  1  0
 17 16  1  0
 18 20  1  0
 18 19  1  1
 20 21  1  6
 21 14  1  0
 22 20  1  0
 23 22  2  0
 24 22  1  0
M  END
$$$$
