MPI.pdb
     RDKit          3D

 24 24  0  0  1  0  0  0  0  0999 V2000
    5.0668  -14.3277   26.2855 C   0  0  0  0  0  0  0  0  0  0  0  0
    5.5079  -15.9522   26.9046 S   0  0  0  0  0  0  0  0  0  0  0  0
    6.0556  -17.0696   25.5920 C   0  0  0  0  0  0  0  0  0  0  0  0
    5.3034  -16.8050   24.3004 C   0  0  0  0  0  0  0  0  0  0  0  0
    5.9501  -17.5765   23.1444 C   0  0  2  0  0  0  0  0  0  0  0  0
    5.6760  -18.9509   23.3719 N   0  0  0  0  0  0  0  0  0  0  0  0
    7.3429  -17.1990   22.9415 C   0  0  0  0  0  0  0  0  0  0  0  0
    8.1606  -18.1784   22.8193 O   0  0  0  0  0  0  0  0  0  0  0  0
    7.8918  -15.8970   22.8655 N   0  0  0  0  0  0  0  0  0  0  0  0
    7.2841  -14.6095   23.0967 C   0  0  0  0  0  0  0  0  0  0  0  0
    7.9377  -13.7329   22.0608 C   0  0  0  0  0  0  0  0  0  0  0  0
    9.1853  -14.4499   21.6264 C   0  0  0  0  0  0  0  0  0  0  0  0
    9.2695  -15.6232   22.5255 C   0  0  1  0  0  0  0  0  0  0  0  0
   10.0010  -15.3515   23.8158 C   0  0  0  0  0  0  0  0  0  0  0  0
   11.1858  -14.9421   23.7690 O   0  0  0  0  0  0  0  0  0  0  0  0
    8.3110  -12.0322   27.1838 C   0  0  0  0  0  0  0  0  0  0  0  0
    9.1271  -13.0306   26.4613 C   0  0  0  0  0  0  0  0  0  0  0  0
    9.5208  -14.2768   27.1112 C   0  0  2  0  0  0  0  0  0  0  0  0
   10.3033  -13.9854   28.4062 C   0  0  0  0  0  0  0  0  0  0  0  0
   10.0905  -15.3727   26.3362 C   0  0  2  0  0  0  0  0  0  0  0  0
    9.3903  -15.5454   25.0597 N   0  0  0  0  0  0  0  0  0  0  0  0
   10.5089  -16.6339   26.9192 C   0  0  0  0  0  0  0  0  0  0  0  0
    9.8148  -17.6680   26.7534 O   0  0  0  0  0  0  0  0  0  0  0  0
   11.6468  -16.8180   27.6624 O   0  0  0  0  0  0  0  0  0  0  0  0
  1  2  1  0
  3  2  1  0
  4  3  1  0
  5  6  1  1
  5  4  1  0
  7  5  1  0
  8  7  2  0
  9 10  1  0
  9  7  1  0
 11 10  1  0
 12 11  1  0
 12 13  1  0
 13  9  1  0
 13 14  1  1
 14 15  2  0
 17 18  1  0
 17 16  1  0
 18 20  1  0
 18 19  1  1
 20 21  1  6
 21 14  1  0
 22 20  1  0
 23 22  2  0
 24 22  1  0
M  END
$$$$
