MPI.pdb
     RDKit          3D

 24 24  0  0  1  0  0  0  0  0999 V2000
    7.6534  -11.8546   21.4478 C   0  0  0  0  0  0  0  0  0  0  0  0
    8.2861  -12.5508   19.9207 S   0  0  0  0  0  0  0  0  0  0  0  0
    8.4449  -14.3511   19.9925 C   0  0  0  0  0  0  0  0  0  0  0  0
    7.1005  -15.0081   20.2480 C   0  0  0  0  0  0  0  0  0  0  0  0
    7.2905  -16.4969   20.5597 C   0  0  2  0  0  0  0  0  0  0  0  0
    6.1997  -17.1784   19.9585 N   0  0  0  0  0  0  0  0  0  0  0  0
    7.5270  -16.7368   21.9775 C   0  0  0  0  0  0  0  0  0  0  0  0
    6.5021  -16.5907   22.7331 O   0  0  0  0  0  0  0  0  0  0  0  0
    8.7378  -17.1061   22.6098 N   0  0  0  0  0  0  0  0  0  0  0  0
   10.0761  -17.2101   22.0821 C   0  0  0  0  0  0  0  0  0  0  0  0
   10.6368  -18.4052   22.8074 C   0  0  0  0  0  0  0  0  0  0  0  0
    9.7647  -18.6152   24.0135 C   0  0  0  0  0  0  0  0  0  0  0  0
    8.8407  -17.4585   24.0076 C   0  0  1  0  0  0  0  0  0  0  0  0
    9.3730  -16.2489   24.7337 C   0  0  0  0  0  0  0  0  0  0  0  0
   10.2954  -15.5807   24.2079 O   0  0  0  0  0  0  0  0  0  0  0  0
    6.2530  -12.4753   25.9940 C   0  0  0  0  0  0  0  0  0  0  0  0
    7.4557  -13.3049   25.7699 C   0  0  0  0  0  0  0  0  0  0  0  0
    8.3103  -13.6893   26.8888 C   0  0  2  0  0  0  0  0  0  0  0  0
    8.7928  -12.4408   27.6521 C   0  0  0  0  0  0  0  0  0  0  0  0
    9.3559  -14.6909   26.7170 C   0  0  2  0  0  0  0  0  0  0  0  0
    8.8634  -15.8564   25.9763 N   0  0  0  0  0  0  0  0  0  0  0  0
   10.3018  -15.0489   27.7576 C   0  0  0  0  0  0  0  0  0  0  0  0
   10.1523  -16.1130   28.4087 O   0  0  0  0  0  0  0  0  0  0  0  0
   11.4001  -14.3076   28.1114 O   0  0  0  0  0  0  0  0  0  0  0  0
  1  2  1  0
  3  2  1  0
  4  3  1  0
  5  6  1  1
  5  4  1  0
  7  5  1  0
  8  7  2  0
  9 10  1  0
  9  7  1  0
 11 10  1  0
 12 11  1  0
 12 13  1  0
 13  9  1  0
 13 14  1  1
 14 15  2  0
 17 18  1  0
 17 16  1  0
 18 20  1  0
 18 19  1  6
 20 21  1  1
 21 14  1  0
 22 20  1  0
 23 22  2  0
 24 22  1  0
M  END
$$$$
