MPI.pdb
     RDKit          3D

 24 24  0  0  1  0  0  0  0  0999 V2000
    5.9516  -12.1718   25.3054 C   0  0  0  0  0  0  0  0  0  0  0  0
    5.6868  -13.4351   26.5506 S   0  0  0  0  0  0  0  0  0  0  0  0
    6.0802  -15.0951   25.9494 C   0  0  0  0  0  0  0  0  0  0  0  0
    5.7685  -15.2280   24.4698 C   0  0  0  0  0  0  0  0  0  0  0  0
    6.0701  -16.6530   23.9920 C   0  0  2  0  0  0  0  0  0  0  0  0
    5.3314  -17.5265   24.8329 N   0  0  0  0  0  0  0  0  0  0  0  0
    7.5007  -16.9002   23.8660 C   0  0  0  0  0  0  0  0  0  0  0  0
    7.8685  -18.1046   24.1046 O   0  0  0  0  0  0  0  0  0  0  0  0
    8.5178  -15.9804   23.5171 N   0  0  0  0  0  0  0  0  0  0  0  0
    8.5013  -14.5389   23.4717 C   0  0  0  0  0  0  0  0  0  0  0  0
    9.3594  -14.2255   22.2742 C   0  0  0  0  0  0  0  0  0  0  0  0
   10.1708  -15.4608   22.0005 C   0  0  0  0  0  0  0  0  0  0  0  0
    9.8541  -16.3682   23.1267 C   0  0  1  0  0  0  0  0  0  0  0  0
   10.7421  -16.1790   24.3306 C   0  0  0  0  0  0  0  0  0  0  0  0
   11.9846  -16.1229   24.1674 O   0  0  0  0  0  0  0  0  0  0  0  0
    9.4645  -13.2558   29.0589 C   0  0  0  0  0  0  0  0  0  0  0  0
    9.5823  -14.4154   28.1498 C   0  0  0  0  0  0  0  0  0  0  0  0
   10.8653  -14.7534   27.5418 C   0  0  2  0  0  0  0  0  0  0  0  0
   11.4338  -13.5438   26.7751 C   0  0  0  0  0  0  0  0  0  0  0  0
   11.0424  -16.0133   26.8293 C   0  0  2  0  0  0  0  0  0  0  0  0
   10.2134  -16.0654   25.6211 N   0  0  0  0  0  0  0  0  0  0  0  0
   11.1473  -17.3004   27.4910 C   0  0  0  0  0  0  0  0  0  0  0  0
   10.3624  -18.2332   27.1870 O   0  0  0  0  0  0  0  0  0  0  0  0
   12.0690  -17.6159   28.4564 O   0  0  0  0  0  0  0  0  0  0  0  0
  1  2  1  0
  3  2  1  0
  4  3  1  0
  5  6  1  1
  5  4  1  0
  7  5  1  0
  8  7  2  0
  9 10  1  0
  9  7  1  0
 11 10  1  0
 12 11  1  0
 12 13  1  0
 13  9  1  0
 13 14  1  1
 14 15  2  0
 17 18  1  0
 17 16  1  0
 18 20  1  0
 18 19  1  6
 20 21  1  6
 21 14  1  0
 22 20  1  0
 23 22  2  0
 24 22  1  0
M  END
$$$$
