MIQ.pdb
     RDKit          3D

 26 25  0  0  1  0  0  0  0  0999 V2000
   21.6612  -13.1593    7.5783 C   0  0  0  0  0  0  0  0  0  0  0  0
   21.0603  -11.6050    6.9063 S   0  0  0  0  0  0  0  0  0  0  0  0
   19.6084  -11.7670    5.8871 C   0  0  0  0  0  0  0  0  0  0  0  0
   18.9519  -13.1090    5.8924 C   0  0  0  0  0  0  0  0  0  0  0  0
   17.8696  -13.3044    4.8853 C   0  0  2  0  0  0  0  0  0  0  0  0
   16.7009  -12.5016    5.1480 N   0  0  0  0  0  0  0  0  0  0  0  0
   17.4521  -14.7536    5.0091 C   0  0  0  0  0  0  0  0  0  0  0  0
   16.5512  -15.0107    5.8096 O   0  0  0  0  0  0  0  0  0  0  0  0
   17.8570  -17.8449    0.5581 C   0  0  0  0  0  0  0  0  0  0  0  0
   17.2782  -17.2401    1.8534 C   0  0  0  0  0  0  0  0  0  0  0  0
   18.0562  -17.7689    3.0270 C   0  0  2  0  0  0  0  0  0  0  0  0
   17.9862  -19.2676    2.9641 C   0  0  0  0  0  0  0  0  0  0  0  0
   17.8890  -17.1273    4.3193 C   0  0  2  0  0  0  0  0  0  0  0  0
   18.1370  -15.7106    4.1857 N   0  0  0  0  0  0  0  0  0  0  0  0
   18.5827  -17.6159    5.5129 C   0  0  0  0  0  0  0  0  0  0  0  0
   19.7514  -17.2008    5.7335 O   0  0  0  0  0  0  0  0  0  0  0  0
   21.4767  -16.4439   10.8223 N   0  0  0  0  0  0  0  0  0  0  0  0
   20.1663  -16.8470   10.5020 C   0  0  0  0  0  0  0  0  0  0  0  0
   19.2066  -16.1011   10.9186 O   0  0  0  0  0  0  0  0  0  0  0  0
   19.8756  -18.0679    9.7151 C   0  0  0  0  0  0  0  0  0  0  0  0
   19.2027  -17.7596    8.4282 C   0  0  0  0  0  0  0  0  0  0  0  0
   18.9166  -18.9416    7.5790 C   0  0  2  0  0  0  0  0  0  0  0  0
   18.0552  -18.5160    6.4467 N   0  0  0  0  0  0  0  0  0  0  0  0
   18.3017  -20.1235    8.1386 C   0  0  0  0  0  0  0  0  0  0  0  0
   16.9933  -20.4643    7.8483 O   0  0  0  0  0  0  0  0  0  0  0  0
   18.9355  -20.8747    8.9156 O   0  0  0  0  0  0  0  0  0  0  0  0
  2  1  1  0
  3  2  1  0
  4  5  1  0
  4  3  1  0
  5  7  1  0
  5  6  1  1
  7  8  2  0
  7 14  1  0
 10  9  1  0
 11 12  1  1
 11 10  1  0
 13 11  1  0
 13 14  1  6
 15 13  1  0
 15 16  2  0
 17 18  1  0
 18 20  1  0
 18 19  2  0
 20 21  1  0
 22 21  1  1
 22 23  1  0
 23 15  1  0
 24 22  1  0
 25 24  1  0
 26 24  2  0
M  END
$$$$
