MIQ.pdb
     RDKit          3D

 26 25  0  0  1  0  0  0  0  0999 V2000
   25.4515  -18.9431  -18.7796 C   0  0  0  0  0  0  0  0  0  0  0  0
   27.2349  -19.1551  -18.8362 S   0  0  0  0  0  0  0  0  0  0  0  0
   27.8894  -20.1598  -17.5189 C   0  0  0  0  0  0  0  0  0  0  0  0
   26.9064  -20.6056  -16.4860 C   0  0  0  0  0  0  0  0  0  0  0  0
   27.4749  -21.3683  -15.3376 C   0  0  2  0  0  0  0  0  0  0  0  0
   28.0956  -22.6082  -15.7340 N   0  0  0  0  0  0  0  0  0  0  0  0
   26.2960  -21.7214  -14.4570 C   0  0  0  0  0  0  0  0  0  0  0  0
   25.6755  -22.7487  -14.7369 O   0  0  0  0  0  0  0  0  0  0  0  0
   26.7767  -20.6602   -9.1946 C   0  0  0  0  0  0  0  0  0  0  0  0
   26.4116  -21.4020  -10.4965 C   0  0  0  0  0  0  0  0  0  0  0  0
   25.2352  -20.7153  -11.1340 C   0  0  2  0  0  0  0  0  0  0  0  0
   24.1468  -20.6538  -10.1012 C   0  0  0  0  0  0  0  0  0  0  0  0
   24.8720  -21.0747  -12.4937 C   0  0  2  0  0  0  0  0  0  0  0  0
   25.9958  -20.8339  -13.3685 N   0  0  0  0  0  0  0  0  0  0  0  0
   23.6610  -20.5492  -13.1277 C   0  0  0  0  0  0  0  0  0  0  0  0
   23.7419  -19.4578  -13.7515 O   0  0  0  0  0  0  0  0  0  0  0  0
   22.6873  -22.1101  -17.9946 N   0  0  0  0  0  0  0  0  0  0  0  0
   21.4494  -21.4510  -17.8699 C   0  0  0  0  0  0  0  0  0  0  0  0
   20.7799  -21.2549  -18.9489 O   0  0  0  0  0  0  0  0  0  0  0  0
   20.9129  -20.9985  -16.5655 C   0  0  0  0  0  0  0  0  0  0  0  0
   21.8787  -21.2082  -15.4577 C   0  0  0  0  0  0  0  0  0  0  0  0
   21.4036  -20.7574  -14.1268 C   0  0  2  0  0  0  0  0  0  0  0  0
   22.4018  -21.1609  -13.1041 N   0  0  0  0  0  0  0  0  0  0  0  0
   20.1133  -21.1690  -13.6232 C   0  0  0  0  0  0  0  0  0  0  0  0
   18.9371  -20.6896  -14.1699 O   0  0  0  0  0  0  0  0  0  0  0  0
   20.0200  -21.9701  -12.6643 O   0  0  0  0  0  0  0  0  0  0  0  0
  2  1  1  0
  3  2  1  0
  4  5  1  0
  4  3  1  0
  5  7  1  0
  5  6  1  6
  7  8  2  0
  7 14  1  0
 10  9  1  0
 11 12  1  1
 11 10  1  0
 13 11  1  0
 13 14  1  6
 15 13  1  0
 15 16  2  0
 17 18  1  0
 18 20  1  0
 18 19  2  0
 20 21  1  0
 22 21  1  6
 22 23  1  0
 23 15  1  0
 24 22  1  0
 25 24  1  0
 26 24  2  0
M  END
$$$$
