MIQ.pdb
     RDKit          3D

 26 25  0  0  1  0  0  0  0  0999 V2000
   26.5456   -9.5342  -15.4032 C   0  0  0  0  0  0  0  0  0  0  0  0
   25.6735  -10.9090  -14.6431 S   0  0  0  0  0  0  0  0  0  0  0  0
   24.3605  -11.5788  -15.6434 C   0  0  0  0  0  0  0  0  0  0  0  0
   23.4313  -10.5822  -16.2559 C   0  0  0  0  0  0  0  0  0  0  0  0
   22.2674  -11.1508  -16.9948 C   0  0  2  0  0  0  0  0  0  0  0  0
   22.6502  -11.8766  -18.1806 N   0  0  0  0  0  0  0  0  0  0  0  0
   21.4479   -9.9611  -17.4453 C   0  0  0  0  0  0  0  0  0  0  0  0
   21.7861   -9.4134  -18.4961 O   0  0  0  0  0  0  0  0  0  0  0  0
   16.5394  -10.5176  -18.3190 C   0  0  0  0  0  0  0  0  0  0  0  0
   17.9566   -9.9151  -18.4037 C   0  0  0  0  0  0  0  0  0  0  0  0
   18.1504   -8.9645  -17.2544 C   0  0  2  0  0  0  0  0  0  0  0  0
   17.0192   -7.9779  -17.3017 C   0  0  0  0  0  0  0  0  0  0  0  0
   19.4866   -8.4645  -16.9820 C   0  0  2  0  0  0  0  0  0  0  0  0
   20.3443   -9.5671  -16.6148 N   0  0  0  0  0  0  0  0  0  0  0  0
   19.7158   -7.3591  -16.0493 C   0  0  0  0  0  0  0  0  0  0  0  0
   19.5628   -7.5781  -14.8182 O   0  0  0  0  0  0  0  0  0  0  0  0
   24.1607   -3.3711  -16.2146 N   0  0  0  0  0  0  0  0  0  0  0  0
   24.0607   -4.7531  -15.9652 C   0  0  0  0  0  0  0  0  0  0  0  0
   25.1315   -5.4506  -16.0990 O   0  0  0  0  0  0  0  0  0  0  0  0
   22.7929   -5.4019  -15.5579 C   0  0  0  0  0  0  0  0  0  0  0  0
   21.6574   -4.4462  -15.5273 C   0  0  0  0  0  0  0  0  0  0  0  0
   20.3268   -5.0698  -15.3256 C   0  0  2  0  0  0  0  0  0  0  0  0
   20.0973   -6.0605  -16.4078 N   0  0  0  0  0  0  0  0  0  0  0  0
   19.1328   -4.2592  -15.2536 C   0  0  0  0  0  0  0  0  0  0  0  0
   18.1397   -4.3478  -16.2119 O   0  0  0  0  0  0  0  0  0  0  0  0
   18.9638   -3.4399  -14.3209 O   0  0  0  0  0  0  0  0  0  0  0  0
  2  1  1  0
  3  2  1  0
  4  5  1  0
  4  3  1  0
  5  7  1  0
  5  6  1  6
  7  8  2  0
  7 14  1  0
 10  9  1  0
 11 12  1  6
 11 10  1  0
 13 11  1  0
 13 14  1  1
 15 13  1  0
 15 16  2  0
 17 18  1  0
 18 20  1  0
 18 19  2  0
 20 21  1  0
 22 21  1  6
 22 23  1  0
 23 15  1  0
 24 22  1  0
 25 24  1  0
 26 24  2  0
M  END
$$$$
