MIQ.pdb
     RDKit          3D

 26 25  0  0  1  0  0  0  0  0999 V2000
   23.1888  -18.3625  -19.4069 C   0  0  0  0  0  0  0  0  0  0  0  0
   24.8269  -17.6754  -19.6772 S   0  0  0  0  0  0  0  0  0  0  0  0
   26.1160  -18.4843  -18.7514 C   0  0  0  0  0  0  0  0  0  0  0  0
   25.6672  -19.3134  -17.5924 C   0  0  0  0  0  0  0  0  0  0  0  0
   26.7506  -19.8270  -16.7056 C   0  0  2  0  0  0  0  0  0  0  0  0
   27.6970  -20.6669  -17.3973 N   0  0  0  0  0  0  0  0  0  0  0  0
   26.0594  -20.6906  -15.6731 C   0  0  0  0  0  0  0  0  0  0  0  0
   25.7551  -21.8354  -16.0131 O   0  0  0  0  0  0  0  0  0  0  0  0
   28.2872  -21.0426  -11.1118 C   0  0  0  0  0  0  0  0  0  0  0  0
   27.4525  -21.4289  -12.3498 C   0  0  0  0  0  0  0  0  0  0  0  0
   26.0516  -20.9111  -12.1726 C   0  0  2  0  0  0  0  0  0  0  0  0
   25.5176  -21.5078  -10.9022 C   0  0  0  0  0  0  0  0  0  0  0  0
   25.1753  -20.8634  -13.3301 C   0  0  2  0  0  0  0  0  0  0  0  0
   25.8144  -20.1088  -14.3830 N   0  0  0  0  0  0  0  0  0  0  0  0
   23.7815  -20.4281  -13.2185 C   0  0  0  0  0  0  0  0  0  0  0  0
   23.5312  -19.1989  -13.3334 O   0  0  0  0  0  0  0  0  0  0  0  0
   20.8014  -19.6704  -17.3057 N   0  0  0  0  0  0  0  0  0  0  0  0
   19.7419  -19.4491  -16.4055 C   0  0  0  0  0  0  0  0  0  0  0  0
   18.6427  -18.9987  -16.8953 O   0  0  0  0  0  0  0  0  0  0  0  0
   19.8566  -19.7207  -14.9538 C   0  0  0  0  0  0  0  0  0  0  0  0
   21.2071  -20.2101  -14.5791 C   0  0  0  0  0  0  0  0  0  0  0  0
   21.3208  -20.7136  -13.1885 C   0  0  2  0  0  0  0  0  0  0  0  0
   22.6844  -21.2685  -12.9939 N   0  0  0  0  0  0  0  0  0  0  0  0
   20.3998  -21.7058  -12.6831 C   0  0  0  0  0  0  0  0  0  0  0  0
   20.6408  -23.0592  -12.8333 O   0  0  0  0  0  0  0  0  0  0  0  0
   19.3443  -21.3685  -12.0984 O   0  0  0  0  0  0  0  0  0  0  0  0
  2  1  1  0
  3  2  1  0
  4  5  1  0
  4  3  1  0
  5  7  1  0
  5  6  1  6
  7  8  2  0
  7 14  1  0
 10  9  1  0
 11 12  1  1
 11 10  1  0
 13 11  1  0
 13 14  1  6
 15 13  1  0
 15 16  2  0
 17 18  1  0
 18 20  1  0
 18 19  2  0
 20 21  1  0
 22 21  1  6
 22 23  1  0
 23 15  1  0
 24 22  1  0
 25 24  1  0
 26 24  2  0
M  END
$$$$
