MIQ.pdb
     RDKit          3D

 26 25  0  0  1  0  0  0  0  0999 V2000
   28.0468  -26.7282  -19.1341 C   0  0  0  0  0  0  0  0  0  0  0  0
   26.2558  -26.7754  -18.9964 S   0  0  0  0  0  0  0  0  0  0  0  0
   25.5233  -25.2258  -18.5114 C   0  0  0  0  0  0  0  0  0  0  0  0
   25.9260  -24.7031  -17.1710 C   0  0  0  0  0  0  0  0  0  0  0  0
   26.7004  -23.4286  -17.1789 C   0  0  2  0  0  0  0  0  0  0  0  0
   28.1155  -23.6280  -17.3718 N   0  0  0  0  0  0  0  0  0  0  0  0
   26.5181  -22.8304  -15.8010 C   0  0  0  0  0  0  0  0  0  0  0  0
   27.5142  -22.7765  -15.0774 O   0  0  0  0  0  0  0  0  0  0  0  0
   28.1474  -19.3249  -14.3792 C   0  0  0  0  0  0  0  0  0  0  0  0
   27.3871  -20.6644  -14.3012 C   0  0  0  0  0  0  0  0  0  0  0  0
   25.9101  -20.3904  -14.3758 C   0  0  2  0  0  0  0  0  0  0  0  0
   25.6381  -19.1961  -13.5069 C   0  0  0  0  0  0  0  0  0  0  0  0
   24.9895  -21.5119  -14.3090 C   0  0  2  0  0  0  0  0  0  0  0  0
   25.2028  -22.3742  -15.4480 N   0  0  0  0  0  0  0  0  0  0  0  0
   23.5495  -21.3119  -14.1333 C   0  0  0  0  0  0  0  0  0  0  0  0
   22.8824  -20.8950  -15.1172 O   0  0  0  0  0  0  0  0  0  0  0  0
   19.6508  -24.2123  -10.1838 N   0  0  0  0  0  0  0  0  0  0  0  0
   18.8007  -23.3608  -10.9149 C   0  0  0  0  0  0  0  0  0  0  0  0
   17.5425  -23.4354  -10.6652 O   0  0  0  0  0  0  0  0  0  0  0  0
   19.3056  -22.4056  -11.9283 C   0  0  0  0  0  0  0  0  0  0  0  0
   20.7880  -22.4027  -12.0081 C   0  0  0  0  0  0  0  0  0  0  0  0
   21.3544  -21.4492  -12.9929 C   0  0  2  0  0  0  0  0  0  0  0  0
   22.8356  -21.5475  -12.9521 N   0  0  0  0  0  0  0  0  0  0  0  0
   21.0363  -20.0411  -12.9272 C   0  0  0  0  0  0  0  0  0  0  0  0
   19.9352  -19.5172  -13.5794 O   0  0  0  0  0  0  0  0  0  0  0  0
   21.7577  -19.2457  -12.2815 O   0  0  0  0  0  0  0  0  0  0  0  0
  2  1  1  0
  3  2  1  0
  4  5  1  0
  4  3  1  0
  5  7  1  0
  5  6  1  1
  7  8  2  0
  7 14  1  0
 10  9  1  0
 11 12  1  1
 11 10  1  0
 13 11  1  0
 13 14  1  6
 15 13  1  0
 15 16  2  0
 17 18  1  0
 18 20  1  0
 18 19  2  0
 20 21  1  0
 22 21  1  1
 22 23  1  0
 23 15  1  0
 24 22  1  0
 25 24  1  0
 26 24  2  0
M  END
$$$$
