MIQ.pdb
     RDKit          3D

 26 25  0  0  1  0  0  0  0  0999 V2000
   19.1374  -10.6709  -24.4443 C   0  0  0  0  0  0  0  0  0  0  0  0
   18.9571  -10.0539  -22.7664 S   0  0  0  0  0  0  0  0  0  0  0  0
   19.8114  -11.0230  -21.5401 C   0  0  0  0  0  0  0  0  0  0  0  0
   19.7511  -10.5063  -20.1396 C   0  0  0  0  0  0  0  0  0  0  0  0
   20.4974  -11.3023  -19.1230 C   0  0  2  0  0  0  0  0  0  0  0  0
   19.9456  -12.6190  -18.9193 N   0  0  0  0  0  0  0  0  0  0  0  0
   20.3445  -10.5483  -17.8200 C   0  0  0  0  0  0  0  0  0  0  0  0
   19.3802  -10.8435  -17.1117 O   0  0  0  0  0  0  0  0  0  0  0  0
   23.6582  -10.6995  -14.0641 C   0  0  0  0  0  0  0  0  0  0  0  0
   22.4049  -10.5435  -14.9492 C   0  0  0  0  0  0  0  0  0  0  0  0
   22.3064   -9.1137  -15.4053 C   0  0  2  0  0  0  0  0  0  0  0  0
   22.5384   -8.2487  -14.1998 C   0  0  0  0  0  0  0  0  0  0  0  0
   21.2387   -8.7461  -16.3189 C   0  0  2  0  0  0  0  0  0  0  0  0
   21.3328   -9.5523  -17.5137 N   0  0  0  0  0  0  0  0  0  0  0  0
   21.0087   -7.3532  -16.7080 C   0  0  0  0  0  0  0  0  0  0  0  0
   21.9228   -6.7510  -17.3314 O   0  0  0  0  0  0  0  0  0  0  0  0
   16.1857   -4.5503  -19.1167 N   0  0  0  0  0  0  0  0  0  0  0  0
   17.0067   -3.4511  -18.8006 C   0  0  0  0  0  0  0  0  0  0  0  0
   16.6070   -2.2925  -19.1864 O   0  0  0  0  0  0  0  0  0  0  0  0
   18.2767   -3.5916  -18.0513 C   0  0  0  0  0  0  0  0  0  0  0  0
   18.5737   -5.0054  -17.7094 C   0  0  0  0  0  0  0  0  0  0  0  0
   19.7929   -5.2021  -16.8880 C   0  0  2  0  0  0  0  0  0  0  0  0
   19.8454   -6.6191  -16.4469 N   0  0  0  0  0  0  0  0  0  0  0  0
   20.0295   -4.3986  -15.7105 C   0  0  0  0  0  0  0  0  0  0  0  0
   19.6743   -4.8413  -14.4495 O   0  0  0  0  0  0  0  0  0  0  0  0
   20.5581   -3.2659  -15.7973 O   0  0  0  0  0  0  0  0  0  0  0  0
  2  1  1  0
  3  2  1  0
  4  5  1  0
  4  3  1  0
  5  7  1  0
  5  6  1  1
  7  8  2  0
  7 14  1  0
 10  9  1  0
 11 12  1  1
 11 10  1  0
 13 11  1  0
 13 14  1  6
 15 13  1  0
 15 16  2  0
 17 18  1  0
 18 20  1  0
 18 19  2  0
 20 21  1  0
 22 21  1  1
 22 23  1  0
 23 15  1  0
 24 22  1  0
 25 24  1  0
 26 24  2  0
M  END
$$$$
