MIQ.pdb
     RDKit          3D

 26 25  0  0  1  0  0  0  0  0999 V2000
   29.6127  -19.0368  -18.2684 C   0  0  0  0  0  0  0  0  0  0  0  0
   29.3928  -18.3626  -16.6174 S   0  0  0  0  0  0  0  0  0  0  0  0
   27.7206  -17.8705  -16.2504 C   0  0  0  0  0  0  0  0  0  0  0  0
   26.8582  -18.9096  -15.6113 C   0  0  0  0  0  0  0  0  0  0  0  0
   27.5813  -20.0119  -14.9142 C   0  0  2  0  0  0  0  0  0  0  0  0
   28.1430  -20.9822  -15.8212 N   0  0  0  0  0  0  0  0  0  0  0  0
   26.5361  -20.7279  -14.0867 C   0  0  0  0  0  0  0  0  0  0  0  0
   25.9770  -21.6957  -14.6057 O   0  0  0  0  0  0  0  0  0  0  0  0
   27.0260  -20.3567   -8.6504 C   0  0  0  0  0  0  0  0  0  0  0  0
   26.7641  -21.0275  -10.0142 C   0  0  0  0  0  0  0  0  0  0  0  0
   25.4636  -20.5131  -10.5675 C   0  0  2  0  0  0  0  0  0  0  0  0
   24.3942  -20.8512   -9.5688 C   0  0  0  0  0  0  0  0  0  0  0  0
   25.1766  -20.7181  -11.9765 C   0  0  2  0  0  0  0  0  0  0  0  0
   26.2805  -20.2240  -12.7663 N   0  0  0  0  0  0  0  0  0  0  0  0
   23.9238  -20.2568  -12.5784 C   0  0  0  0  0  0  0  0  0  0  0  0
   23.8167  -19.0353  -12.8668 O   0  0  0  0  0  0  0  0  0  0  0  0
   22.2116  -22.5063  -16.9805 N   0  0  0  0  0  0  0  0  0  0  0  0
   20.8974  -22.4195  -16.4829 C   0  0  0  0  0  0  0  0  0  0  0  0
   20.0416  -23.2611  -16.9415 O   0  0  0  0  0  0  0  0  0  0  0  0
   20.4909  -21.4180  -15.4701 C   0  0  0  0  0  0  0  0  0  0  0  0
   21.6484  -20.6558  -14.9378 C   0  0  0  0  0  0  0  0  0  0  0  0
   21.6196  -20.4271  -13.4725 C   0  0  2  0  0  0  0  0  0  0  0  0
   22.8173  -21.0643  -12.8684 N   0  0  0  0  0  0  0  0  0  0  0  0
   20.4880  -20.8499  -12.6796 C   0  0  0  0  0  0  0  0  0  0  0  0
   20.5852  -21.8967  -11.7812 O   0  0  0  0  0  0  0  0  0  0  0  0
   19.3755  -20.2842  -12.7891 O   0  0  0  0  0  0  0  0  0  0  0  0
  2  1  1  0
  3  2  1  0
  4  5  1  0
  4  3  1  0
  5  7  1  0
  5  6  1  6
  7  8  2  0
  7 14  1  0
 10  9  1  0
 11 12  1  1
 11 10  1  0
 13 11  1  0
 13 14  1  6
 15 13  1  0
 15 16  2  0
 17 18  1  0
 18 20  1  0
 18 19  2  0
 20 21  1  0
 22 21  1  6
 22 23  1  0
 23 15  1  0
 24 22  1  0
 25 24  1  0
 26 24  2  0
M  END
$$$$
