MIQ.pdb
     RDKit          3D

 26 25  0  0  1  0  0  0  0  0999 V2000
   17.9962  -12.8438  -18.7229 C   0  0  0  0  0  0  0  0  0  0  0  0
   18.4572  -14.5349  -19.1187 S   0  0  0  0  0  0  0  0  0  0  0  0
   20.0568  -15.0157  -18.4997 C   0  0  0  0  0  0  0  0  0  0  0  0
   20.7213  -14.0441  -17.5798 C   0  0  0  0  0  0  0  0  0  0  0  0
   22.0364  -14.4745  -17.0236 C   0  0  2  0  0  0  0  0  0  0  0  0
   21.9531  -15.6884  -16.2497 N   0  0  0  0  0  0  0  0  0  0  0  0
   22.4617  -13.3717  -16.0787 C   0  0  0  0  0  0  0  0  0  0  0  0
   21.9734  -13.3838  -14.9473 O   0  0  0  0  0  0  0  0  0  0  0  0
   27.5071  -12.3102  -15.3995 C   0  0  0  0  0  0  0  0  0  0  0  0
   25.9887  -12.5094  -15.2176 C   0  0  0  0  0  0  0  0  0  0  0  0
   25.2758  -11.2720  -15.6896 C   0  0  2  0  0  0  0  0  0  0  0  0
   25.9412  -10.0995  -15.0280 C   0  0  0  0  0  0  0  0  0  0  0  0
   23.8251  -11.2882  -15.7601 C   0  0  2  0  0  0  0  0  0  0  0  0
   23.3983  -12.4022  -16.5745 N   0  0  0  0  0  0  0  0  0  0  0  0
   23.0636  -10.1002  -16.1515 C   0  0  0  0  0  0  0  0  0  0  0  0
   23.1546   -9.7011  -17.3428 O   0  0  0  0  0  0  0  0  0  0  0  0
   17.3075   -9.2705  -15.9248 N   0  0  0  0  0  0  0  0  0  0  0  0
   17.6899   -7.9694  -16.3032 C   0  0  0  0  0  0  0  0  0  0  0  0
   16.7504   -7.1540  -16.6250 O   0  0  0  0  0  0  0  0  0  0  0  0
   19.1037   -7.5285  -16.3319 C   0  0  0  0  0  0  0  0  0  0  0  0
   20.0440   -8.6373  -16.0316 C   0  0  0  0  0  0  0  0  0  0  0  0
   21.4627   -8.2273  -15.8928 C   0  0  2  0  0  0  0  0  0  0  0  0
   22.2289   -9.3570  -15.3081 N   0  0  0  0  0  0  0  0  0  0  0  0
   21.8224   -7.0525  -15.1322 C   0  0  0  0  0  0  0  0  0  0  0  0
   21.5434   -5.7790  -15.5933 O   0  0  0  0  0  0  0  0  0  0  0  0
   22.4099   -7.1518  -14.0300 O   0  0  0  0  0  0  0  0  0  0  0  0
  2  1  1  0
  3  2  1  0
  4  5  1  0
  4  3  1  0
  5  7  1  0
  5  6  1  1
  7  8  2  0
  7 14  1  0
 10  9  1  0
 11 12  1  1
 11 10  1  0
 13 11  1  0
 13 14  1  6
 15 13  1  0
 15 16  2  0
 17 18  1  0
 18 20  1  0
 18 19  2  0
 20 21  1  0
 22 21  1  1
 22 23  1  0
 23 15  1  0
 24 22  1  0
 25 24  1  0
 26 24  2  0
M  END
$$$$
