MIQ.pdb
     RDKit          3D

 26 25  0  0  1  0  0  0  0  0999 V2000
   20.9155  -19.7296   -7.3337 C   0  0  0  0  0  0  0  0  0  0  0  0
   21.6747  -21.3582   -7.3397 S   0  0  0  0  0  0  0  0  0  0  0  0
   23.4300  -21.3405   -7.6423 C   0  0  0  0  0  0  0  0  0  0  0  0
   23.8569  -20.8516   -8.9878 C   0  0  0  0  0  0  0  0  0  0  0  0
   25.3257  -20.8654   -9.2458 C   0  0  2  0  0  0  0  0  0  0  0  0
   26.0691  -20.0393   -8.3270 N   0  0  0  0  0  0  0  0  0  0  0  0
   25.5045  -20.2701  -10.6255 C   0  0  0  0  0  0  0  0  0  0  0  0
   25.6470  -19.0479  -10.6942 O   0  0  0  0  0  0  0  0  0  0  0  0
   28.6011  -19.6707  -13.4243 C   0  0  0  0  0  0  0  0  0  0  0  0
   28.1355  -21.1071  -13.1103 C   0  0  0  0  0  0  0  0  0  0  0  0
   26.7777  -21.3224  -13.7203 C   0  0  2  0  0  0  0  0  0  0  0  0
   26.9367  -21.1955  -15.2082 C   0  0  0  0  0  0  0  0  0  0  0  0
   25.6264  -20.6934  -13.0967 C   0  0  2  0  0  0  0  0  0  0  0  0
   25.4944  -21.1745  -11.7412 N   0  0  0  0  0  0  0  0  0  0  0  0
   24.3071  -20.7087  -13.7321 C   0  0  0  0  0  0  0  0  0  0  0  0
   23.5999  -21.7439  -13.6098 O   0  0  0  0  0  0  0  0  0  0  0  0
   20.5410  -15.8513  -15.0393 N   0  0  0  0  0  0  0  0  0  0  0  0
   19.7393  -16.9993  -15.1862 C   0  0  0  0  0  0  0  0  0  0  0  0
   18.4671  -16.8232  -15.2248 O   0  0  0  0  0  0  0  0  0  0  0  0
   20.3083  -18.3621  -15.3011 C   0  0  0  0  0  0  0  0  0  0  0  0
   21.6919  -18.4397  -14.7687 C   0  0  0  0  0  0  0  0  0  0  0  0
   22.3328  -19.7710  -14.8986 C   0  0  2  0  0  0  0  0  0  0  0  0
   23.7514  -19.6591  -14.4737 N   0  0  0  0  0  0  0  0  0  0  0  0
   22.3390  -20.4691  -16.1637 C   0  0  0  0  0  0  0  0  0  0  0  0
   21.2916  -21.2886  -16.5427 O   0  0  0  0  0  0  0  0  0  0  0  0
   23.3032  -20.3604  -16.9565 O   0  0  0  0  0  0  0  0  0  0  0  0
  2  1  1  0
  3  2  1  0
  4  5  1  0
  4  3  1  0
  5  7  1  0
  5  6  1  1
  7  8  2  0
  7 14  1  0
 10  9  1  0
 11 12  1  6
 11 10  1  0
 13 11  1  0
 13 14  1  1
 15 13  1  0
 15 16  2  0
 17 18  1  0
 18 20  1  0
 18 19  2  0
 20 21  1  0
 22 21  1  6
 22 23  1  0
 23 15  1  0
 24 22  1  0
 25 24  1  0
 26 24  2  0
M  END
$$$$
