MIQ.pdb
     RDKit          3D

 26 25  0  0  1  0  0  0  0  0999 V2000
   15.7805  -12.3501  -16.9560 C   0  0  0  0  0  0  0  0  0  0  0  0
   17.0344  -13.3352  -17.7842 S   0  0  0  0  0  0  0  0  0  0  0  0
   18.3190  -13.9330  -16.7046 C   0  0  0  0  0  0  0  0  0  0  0  0
   19.0913  -12.8889  -15.9662 C   0  0  0  0  0  0  0  0  0  0  0  0
   20.5540  -12.8414  -16.2530 C   0  0  2  0  0  0  0  0  0  0  0  0
   21.2501  -14.0353  -15.8410 N   0  0  0  0  0  0  0  0  0  0  0  0
   21.0972  -11.6994  -15.4221 C   0  0  0  0  0  0  0  0  0  0  0  0
   21.1313  -11.8617  -14.2010 O   0  0  0  0  0  0  0  0  0  0  0  0
   25.7766   -9.8845  -15.2325 C   0  0  0  0  0  0  0  0  0  0  0  0
   24.3051  -10.3012  -15.0330 C   0  0  0  0  0  0  0  0  0  0  0  0
   23.4148   -9.2110  -15.5630 C   0  0  2  0  0  0  0  0  0  0  0  0
   24.0476   -7.9021  -15.1868 C   0  0  0  0  0  0  0  0  0  0  0  0
   21.9772   -9.3486  -15.4071 C   0  0  2  0  0  0  0  0  0  0  0  0
   21.5287  -10.5213  -16.1212 N   0  0  0  0  0  0  0  0  0  0  0  0
   21.0652   -8.2412  -15.7009 C   0  0  0  0  0  0  0  0  0  0  0  0
   20.5172   -8.2067  -16.8347 O   0  0  0  0  0  0  0  0  0  0  0  0
   15.7641   -7.5406  -14.6683 N   0  0  0  0  0  0  0  0  0  0  0  0
   15.9822   -6.2100  -15.0737 C   0  0  0  0  0  0  0  0  0  0  0  0
   14.9430   -5.4782  -15.2620 O   0  0  0  0  0  0  0  0  0  0  0  0
   17.3378   -5.6480  -15.2752 C   0  0  0  0  0  0  0  0  0  0  0  0
   18.4030   -6.6585  -15.0562 C   0  0  0  0  0  0  0  0  0  0  0  0
   19.7832   -6.1635  -15.2798 C   0  0  2  0  0  0  0  0  0  0  0  0
   20.7407   -7.2016  -14.8209 N   0  0  0  0  0  0  0  0  0  0  0  0
   20.2248   -4.9155  -14.7004 C   0  0  0  0  0  0  0  0  0  0  0  0
   21.2355   -4.8736  -13.7576 O   0  0  0  0  0  0  0  0  0  0  0  0
   19.6962   -3.8282  -15.0291 O   0  0  0  0  0  0  0  0  0  0  0  0
  2  1  1  0
  3  2  1  0
  4  5  1  0
  4  3  1  0
  5  7  1  0
  5  6  1  1
  7  8  2  0
  7 14  1  0
 10  9  1  0
 11 12  1  1
 11 10  1  0
 13 11  1  0
 13 14  1  6
 15 13  1  0
 15 16  2  0
 17 18  1  0
 18 20  1  0
 18 19  2  0
 20 21  1  0
 22 21  1  1
 22 23  1  0
 23 15  1  0
 24 22  1  0
 25 24  1  0
 26 24  2  0
M  END
$$$$
