MIQ.pdb
     RDKit          3D

 26 25  0  0  1  0  0  0  0  0999 V2000
   26.0781  -16.4800  -16.6658 C   0  0  0  0  0  0  0  0  0  0  0  0
   27.8703  -16.6023  -16.7091 S   0  0  0  0  0  0  0  0  0  0  0  0
   28.5166  -18.0763  -15.9459 C   0  0  0  0  0  0  0  0  0  0  0  0
   27.5096  -18.9812  -15.3141 C   0  0  0  0  0  0  0  0  0  0  0  0
   28.0644  -20.0786  -14.4704 C   0  0  2  0  0  0  0  0  0  0  0  0
   28.7856  -21.0682  -15.2321 N   0  0  0  0  0  0  0  0  0  0  0  0
   26.8655  -20.7719  -13.8606 C   0  0  0  0  0  0  0  0  0  0  0  0
   26.4288  -21.7605  -14.4528 O   0  0  0  0  0  0  0  0  0  0  0  0
   26.7041  -20.6814   -8.4553 C   0  0  0  0  0  0  0  0  0  0  0  0
   26.5897  -21.2559   -9.8820 C   0  0  0  0  0  0  0  0  0  0  0  0
   25.3630  -20.6854  -10.5391 C   0  0  2  0  0  0  0  0  0  0  0  0
   24.1932  -21.0245   -9.6606 C   0  0  0  0  0  0  0  0  0  0  0  0
   25.2090  -20.8353  -11.9756 C   0  0  2  0  0  0  0  0  0  0  0  0
   26.3345  -20.2243  -12.6436 N   0  0  0  0  0  0  0  0  0  0  0  0
   23.9793  -20.4317  -12.6607 C   0  0  0  0  0  0  0  0  0  0  0  0
   23.7701  -19.2013  -12.8319 O   0  0  0  0  0  0  0  0  0  0  0  0
   21.8756  -22.0758  -17.9534 N   0  0  0  0  0  0  0  0  0  0  0  0
   20.7553  -21.3736  -17.4696 C   0  0  0  0  0  0  0  0  0  0  0  0
   19.7747  -21.2053  -18.2826 O   0  0  0  0  0  0  0  0  0  0  0  0
   20.6783  -20.8466  -16.0873 C   0  0  0  0  0  0  0  0  0  0  0  0
   21.8691  -21.2121  -15.2797 C   0  0  0  0  0  0  0  0  0  0  0  0
   21.8422  -20.7248  -13.8791 C   0  0  2  0  0  0  0  0  0  0  0  0
   23.0003  -21.3038  -13.1520 N   0  0  0  0  0  0  0  0  0  0  0  0
   20.6843  -20.9417  -13.0422 C   0  0  0  0  0  0  0  0  0  0  0  0
   19.5194  -20.2174  -13.2174 O   0  0  0  0  0  0  0  0  0  0  0  0
   20.7035  -21.7906  -12.1209 O   0  0  0  0  0  0  0  0  0  0  0  0
  2  1  1  0
  3  2  1  0
  4  5  1  0
  4  3  1  0
  5  7  1  0
  5  6  1  6
  7  8  2  0
  7 14  1  0
 10  9  1  0
 11 12  1  1
 11 10  1  0
 13 11  1  0
 13 14  1  6
 15 13  1  0
 15 16  2  0
 17 18  1  0
 18 20  1  0
 18 19  2  0
 20 21  1  0
 22 21  1  6
 22 23  1  0
 23 15  1  0
 24 22  1  0
 25 24  1  0
 26 24  2  0
M  END
$$$$
