MIQ.pdb
     RDKit          3D

 26 25  0  0  1  0  0  0  0  0999 V2000
   27.3535  -15.9280  -14.5319 C   0  0  0  0  0  0  0  0  0  0  0  0
   28.4942  -16.9838  -15.4334 S   0  0  0  0  0  0  0  0  0  0  0  0
   27.7065  -18.3071  -16.3286 C   0  0  0  0  0  0  0  0  0  0  0  0
   26.8884  -19.2533  -15.5116 C   0  0  0  0  0  0  0  0  0  0  0  0
   27.6578  -20.2200  -14.6766 C   0  0  2  0  0  0  0  0  0  0  0  0
   28.3220  -21.2361  -15.4550 N   0  0  0  0  0  0  0  0  0  0  0  0
   26.6326  -20.9202  -13.8114 C   0  0  0  0  0  0  0  0  0  0  0  0
   26.1670  -21.9779  -14.2392 O   0  0  0  0  0  0  0  0  0  0  0  0
   27.1409  -20.3997   -8.4359 C   0  0  0  0  0  0  0  0  0  0  0  0
   26.8516  -21.0997   -9.7794 C   0  0  0  0  0  0  0  0  0  0  0  0
   25.5562  -20.5730  -10.3332 C   0  0  2  0  0  0  0  0  0  0  0  0
   24.4963  -20.8343   -9.3020 C   0  0  0  0  0  0  0  0  0  0  0  0
   25.2377  -20.8327  -11.7263 C   0  0  2  0  0  0  0  0  0  0  0  0
   26.2855  -20.2980  -12.5643 N   0  0  0  0  0  0  0  0  0  0  0  0
   23.9419  -20.4610  -12.2983 C   0  0  0  0  0  0  0  0  0  0  0  0
   23.7517  -19.2544  -12.6063 O   0  0  0  0  0  0  0  0  0  0  0  0
   21.3993  -22.5806  -17.1423 N   0  0  0  0  0  0  0  0  0  0  0  0
   20.3725  -21.7264  -16.6969 C   0  0  0  0  0  0  0  0  0  0  0  0
   19.4118  -21.4899  -17.5167 O   0  0  0  0  0  0  0  0  0  0  0  0
   20.3686  -21.1181  -15.3463 C   0  0  0  0  0  0  0  0  0  0  0  0
   21.5904  -21.4571  -14.5741 C   0  0  0  0  0  0  0  0  0  0  0  0
   21.6778  -20.8173  -13.2388 C   0  0  2  0  0  0  0  0  0  0  0  0
   22.8788  -21.3398  -12.5391 N   0  0  0  0  0  0  0  0  0  0  0  0
   20.5838  -20.9125  -12.2995 C   0  0  0  0  0  0  0  0  0  0  0  0
   19.4017  -20.2217  -12.4937 O   0  0  0  0  0  0  0  0  0  0  0  0
   20.6767  -21.6204  -11.2699 O   0  0  0  0  0  0  0  0  0  0  0  0
  2  1  1  0
  3  2  1  0
  4  5  1  0
  4  3  1  0
  5  7  1  0
  5  6  1  6
  7  8  2  0
  7 14  1  0
 10  9  1  0
 11 12  1  1
 11 10  1  0
 13 11  1  0
 13 14  1  6
 15 13  1  0
 15 16  2  0
 17 18  1  0
 18 20  1  0
 18 19  2  0
 20 21  1  0
 22 21  1  6
 22 23  1  0
 23 15  1  0
 24 22  1  0
 25 24  1  0
 26 24  2  0
M  END
$$$$
