MIQ.pdb
     RDKit          3D

 26 25  0  0  1  0  0  0  0  0999 V2000
   20.0559  -21.9014  -13.0577 C   0  0  0  0  0  0  0  0  0  0  0  0
   20.0092  -21.3985  -11.3333 S   0  0  0  0  0  0  0  0  0  0  0  0
   21.5732  -21.5400  -10.4925 C   0  0  0  0  0  0  0  0  0  0  0  0
   22.7312  -20.8592  -11.1462 C   0  0  0  0  0  0  0  0  0  0  0  0
   24.0596  -21.0838  -10.5069 C   0  0  2  0  0  0  0  0  0  0  0  0
   24.1387  -20.5567   -9.1669 N   0  0  0  0  0  0  0  0  0  0  0  0
   25.0542  -20.3139  -11.3483 C   0  0  0  0  0  0  0  0  0  0  0  0
   25.1449  -19.1026  -11.1404 O   0  0  0  0  0  0  0  0  0  0  0  0
   29.8852  -21.3324  -11.1084 C   0  0  0  0  0  0  0  0  0  0  0  0
   28.4753  -20.7380  -11.3018 C   0  0  0  0  0  0  0  0  0  0  0  0
   28.1183  -20.7977  -12.7616 C   0  0  2  0  0  0  0  0  0  0  0  0
   29.2855  -20.2407  -13.5248 C   0  0  0  0  0  0  0  0  0  0  0  0
   26.7808  -20.4031  -13.1681 C   0  0  2  0  0  0  0  0  0  0  0  0
   25.8111  -21.0544  -12.3186 N   0  0  0  0  0  0  0  0  0  0  0  0
   26.3384  -20.5156  -14.5596 C   0  0  0  0  0  0  0  0  0  0  0  0
   25.3961  -21.3093  -14.8219 O   0  0  0  0  0  0  0  0  0  0  0  0
   23.7069  -15.8260  -16.1750 N   0  0  0  0  0  0  0  0  0  0  0  0
   22.9742  -17.0228  -16.2888 C   0  0  0  0  0  0  0  0  0  0  0  0
   21.7226  -16.9187  -16.5602 O   0  0  0  0  0  0  0  0  0  0  0  0
   23.5923  -18.3578  -16.1158 C   0  0  0  0  0  0  0  0  0  0  0  0
   25.0214  -18.2685  -15.7240 C   0  0  0  0  0  0  0  0  0  0  0  0
   25.9426  -19.0899  -16.5467 C   0  0  2  0  0  0  0  0  0  0  0  0
   26.8757  -19.8080  -15.6417 N   0  0  0  0  0  0  0  0  0  0  0  0
   26.7565  -18.4834  -17.5752 C   0  0  0  0  0  0  0  0  0  0  0  0
   26.5072  -18.7024  -18.9176 O   0  0  0  0  0  0  0  0  0  0  0  0
   27.7242  -17.7440  -17.2806 O   0  0  0  0  0  0  0  0  0  0  0  0
  2  1  1  0
  3  2  1  0
  4  5  1  0
  4  3  1  0
  5  7  1  0
  5  6  1  1
  7  8  2  0
  7 14  1  0
 10  9  1  0
 11 12  1  6
 11 10  1  0
 13 11  1  0
 13 14  1  1
 15 13  1  0
 15 16  2  0
 17 18  1  0
 18 20  1  0
 18 19  2  0
 20 21  1  0
 22 21  1  1
 22 23  1  0
 23 15  1  0
 24 22  1  0
 25 24  1  0
 26 24  2  0
M  END
$$$$
