ISA.pdb
     RDKit          3D

 20 19  0  0  1  0  0  0  0  0999 V2000
    6.8678  -11.7411   27.5424 C   0  0  0  0  0  0  0  0  0  0  0  0
    6.1966  -12.8043   26.6742 C   0  0  0  0  0  0  0  0  0  0  0  0
    7.2268  -13.6623   25.9919 C   0  0  2  0  0  0  0  0  0  0  0  0
    8.2382  -12.8291   25.2436 C   0  0  0  0  0  0  0  0  0  0  0  0
    6.6471  -14.7607   25.1799 C   0  0  2  0  0  0  0  0  0  0  0  0
    5.8310  -15.5773   26.0915 N   0  0  0  0  0  0  0  0  0  0  0  0
    7.6259  -15.6680   24.5416 C   0  0  0  0  0  0  0  0  0  0  0  0
    8.1671  -16.6457   25.1531 O   0  0  0  0  0  0  0  0  0  0  0  0
    7.7265  -16.3597   20.3909 O   0  0  0  0  0  0  0  0  0  0  0  0
    8.9204  -16.0669   20.9925 C   0  0  0  0  0  0  0  0  0  0  0  0
    8.8755  -16.4176   22.4761 C   0  0  2  0  0  0  0  0  0  0  0  0
    8.0147  -15.4870   23.1917 N   0  0  0  0  0  0  0  0  0  0  0  0
   10.2522  -16.2332   22.9947 C   0  0  0  0  0  0  0  0  0  0  0  0
   10.7271  -15.0524   23.1112 O   0  0  0  0  0  0  0  0  0  0  0  0
   12.8846  -18.3192   24.6625 C   0  0  0  0  0  0  0  0  0  0  0  0
   12.4199  -17.0313   23.9972 C   0  0  2  0  0  0  0  0  0  0  0  0
   11.1248  -17.2689   23.3883 N   0  0  0  0  0  0  0  0  0  0  0  0
   13.4338  -16.6156   23.0189 C   0  0  0  0  0  0  0  0  0  0  0  0
   14.5567  -16.1697   23.3544 O   0  0  0  0  0  0  0  0  0  0  0  0
   13.1521  -16.7145   21.6677 O   0  0  0  0  0  0  0  0  0  0  0  0
  2  3  1  0
  2  1  1  0
  3  5  1  0
  3  4  1  6
  5  7  1  0
  5  6  1  1
  7  8  2  0
 10  9  1  0
 11 10  1  6
 11 13  1  0
 12 11  1  0
 12  7  1  0
 13 17  1  0
 13 14  2  0
 16 15  1  6
 16 18  1  0
 17 16  1  0
 18 19  2  0
 18 20  1  0
M  END
$$$$
