ISA.pdb
     RDKit          3D

 20 19  0  0  1  0  0  0  0  0999 V2000
    7.4743  -12.0689   19.2172 C   0  0  0  0  0  0  0  0  0  0  0  0
    7.9182  -13.5262   19.3349 C   0  0  0  0  0  0  0  0  0  0  0  0
    7.8724  -13.9824   20.7677 C   0  0  2  0  0  0  0  0  0  0  0  0
    8.6552  -13.0610   21.6707 C   0  0  0  0  0  0  0  0  0  0  0  0
    8.2083  -15.4163   20.9495 C   0  0  2  0  0  0  0  0  0  0  0  0
    7.2915  -16.1794   20.0888 N   0  0  0  0  0  0  0  0  0  0  0  0
    8.0510  -15.9395   22.3243 C   0  0  0  0  0  0  0  0  0  0  0  0
    6.9155  -16.1161   22.8738 O   0  0  0  0  0  0  0  0  0  0  0  0
   11.1248  -17.9460   24.0265 O   0  0  0  0  0  0  0  0  0  0  0  0
    9.8886  -18.0871   24.5965 C   0  0  0  0  0  0  0  0  0  0  0  0
    9.0854  -16.7973   24.4654 C   0  0  2  0  0  0  0  0  0  0  0  0
    9.1809  -16.2755   23.1098 N   0  0  0  0  0  0  0  0  0  0  0  0
    9.7262  -15.8083   25.3652 C   0  0  0  0  0  0  0  0  0  0  0  0
   10.8363  -15.2749   25.0239 O   0  0  0  0  0  0  0  0  0  0  0  0
    8.9969  -13.4067   27.9806 C   0  0  0  0  0  0  0  0  0  0  0  0
    9.9406  -14.5038   27.5083 C   0  0  2  0  0  0  0  0  0  0  0  0
    9.2149  -15.3793   26.6075 N   0  0  0  0  0  0  0  0  0  0  0  0
   10.4616  -15.2136   28.6842 C   0  0  0  0  0  0  0  0  0  0  0  0
   10.1626  -16.4031   28.9455 O   0  0  0  0  0  0  0  0  0  0  0  0
   11.3189  -14.5552   29.5481 O   0  0  0  0  0  0  0  0  0  0  0  0
  2  3  1  0
  2  1  1  0
  3  5  1  0
  3  4  1  1
  5  7  1  0
  5  6  1  6
  7  8  2  0
 10  9  1  0
 11 10  1  6
 11 13  1  0
 12 11  1  0
 12  7  1  0
 13 17  1  0
 13 14  2  0
 16 15  1  1
 16 18  1  0
 17 16  1  0
 18 19  2  0
 18 20  1  0
M  END
$$$$
