ISA.pdb
     RDKit          3D

 20 19  0  0  1  0  0  0  0  0999 V2000
    6.5860  -11.4112   27.2217 C   0  0  0  0  0  0  0  0  0  0  0  0
    5.9442  -12.5878   26.4881 C   0  0  0  0  0  0  0  0  0  0  0  0
    6.9944  -13.4453   25.8362 C   0  0  2  0  0  0  0  0  0  0  0  0
    7.9520  -12.6217   25.0106 C   0  0  0  0  0  0  0  0  0  0  0  0
    6.4440  -14.6173   25.1115 C   0  0  2  0  0  0  0  0  0  0  0  0
    5.6314  -15.3711   26.0786 N   0  0  0  0  0  0  0  0  0  0  0  0
    7.4463  -15.5558   24.5606 C   0  0  0  0  0  0  0  0  0  0  0  0
    8.0586  -16.4147   25.2747 O   0  0  0  0  0  0  0  0  0  0  0  0
    8.8686  -14.9870   20.7515 O   0  0  0  0  0  0  0  0  0  0  0  0
    8.7088  -16.3120   21.0544 C   0  0  0  0  0  0  0  0  0  0  0  0
    8.6644  -16.5169   22.5651 C   0  0  2  0  0  0  0  0  0  0  0  0
    7.7781  -15.5417   23.1837 N   0  0  0  0  0  0  0  0  0  0  0  0
   10.0336  -16.2498   23.0672 C   0  0  0  0  0  0  0  0  0  0  0  0
   10.4276  -15.0420   23.2061 O   0  0  0  0  0  0  0  0  0  0  0  0
   13.0043  -18.1910   24.3237 C   0  0  0  0  0  0  0  0  0  0  0  0
   12.3453  -16.9195   23.8076 C   0  0  2  0  0  0  0  0  0  0  0  0
   10.9822  -17.2314   23.4215 N   0  0  0  0  0  0  0  0  0  0  0  0
   13.1418  -16.3986   22.6886 C   0  0  0  0  0  0  0  0  0  0  0  0
   12.8015  -16.5415   21.4901 O   0  0  0  0  0  0  0  0  0  0  0  0
   14.3185  -15.7200   22.9526 O   0  0  0  0  0  0  0  0  0  0  0  0
  2  3  1  0
  2  1  1  0
  3  5  1  0
  3  4  1  6
  5  7  1  0
  5  6  1  1
  7  8  2  0
 10  9  1  0
 11 10  1  6
 11 13  1  0
 12 11  1  0
 12  7  1  0
 13 17  1  0
 13 14  2  0
 16 15  1  6
 16 18  1  0
 17 16  1  0
 18 19  2  0
 18 20  1  0
M  END
$$$$
