ISA.pdb
     RDKit          3D

 20 19  0  0  1  0  0  0  0  0999 V2000
    6.4831  -11.6633   27.1168 C   0  0  0  0  0  0  0  0  0  0  0  0
    5.9483  -12.9196   26.4310 C   0  0  0  0  0  0  0  0  0  0  0  0
    7.0642  -13.6800   25.7681 C   0  0  2  0  0  0  0  0  0  0  0  0
    7.8535  -12.8031   24.8272 C   0  0  0  0  0  0  0  0  0  0  0  0
    6.6345  -14.9640   25.1610 C   0  0  2  0  0  0  0  0  0  0  0  0
    5.8726  -15.6866   26.1911 N   0  0  0  0  0  0  0  0  0  0  0  0
    7.7269  -15.8590   24.7201 C   0  0  0  0  0  0  0  0  0  0  0  0
    8.4668  -16.5031   25.5326 O   0  0  0  0  0  0  0  0  0  0  0  0
    8.5829  -16.0224   20.7130 O   0  0  0  0  0  0  0  0  0  0  0  0
    8.8217  -17.2094   21.3510 C   0  0  0  0  0  0  0  0  0  0  0  0
    8.9980  -16.9886   22.8498 C   0  0  2  0  0  0  0  0  0  0  0  0
    8.0060  -16.0447   23.3439 N   0  0  0  0  0  0  0  0  0  0  0  0
   10.3303  -16.3633   23.0299 C   0  0  0  0  0  0  0  0  0  0  0  0
   10.4437  -15.0926   22.9533 O   0  0  0  0  0  0  0  0  0  0  0  0
   13.5437  -16.9358   24.6152 C   0  0  0  0  0  0  0  0  0  0  0  0
   12.8228  -16.4009   23.3857 C   0  0  2  0  0  0  0  0  0  0  0  0
   11.5318  -17.0553   23.2879 N   0  0  0  0  0  0  0  0  0  0  0  0
   13.6653  -16.6398   22.2063 C   0  0  0  0  0  0  0  0  0  0  0  0
   13.3380  -17.4284   21.2879 O   0  0  0  0  0  0  0  0  0  0  0  0
   14.8728  -15.9739   22.0901 O   0  0  0  0  0  0  0  0  0  0  0  0
  2  3  1  0
  2  1  1  0
  3  5  1  0
  3  4  1  6
  5  7  1  0
  5  6  1  1
  7  8  2  0
 10  9  1  0
 11 10  1  6
 11 13  1  0
 12 11  1  0
 12  7  1  0
 13 17  1  0
 13 14  2  0
 16 15  1  1
 16 18  1  0
 17 16  1  0
 18 19  2  0
 18 20  1  0
M  END
$$$$
