ISA.pdb
     RDKit          3D

 20 19  0  0  1  0  0  0  0  0999 V2000
    5.7749  -11.2464   26.6908 C   0  0  0  0  0  0  0  0  0  0  0  0
    5.5101  -12.5259   25.8987 C   0  0  0  0  0  0  0  0  0  0  0  0
    6.7458  -13.3820   25.8422 C   0  0  2  0  0  0  0  0  0  0  0  0
    7.9563  -12.5855   25.4211 C   0  0  0  0  0  0  0  0  0  0  0  0
    6.5674  -14.6392   25.0743 C   0  0  2  0  0  0  0  0  0  0  0  0
    5.3269  -15.2617   25.5613 N   0  0  0  0  0  0  0  0  0  0  0  0
    7.6459  -15.6401   25.2285 C   0  0  0  0  0  0  0  0  0  0  0  0
    7.8047  -16.3315   26.2865 O   0  0  0  0  0  0  0  0  0  0  0  0
   10.6619  -15.4024   22.5893 O   0  0  0  0  0  0  0  0  0  0  0  0
   10.6036  -16.6799   23.0767 C   0  0  0  0  0  0  0  0  0  0  0  0
    9.7388  -16.7380   24.3316 C   0  0  2  0  0  0  0  0  0  0  0  0
    8.5717  -15.8806   24.1838 N   0  0  0  0  0  0  0  0  0  0  0  0
   10.5584  -16.1815   25.4346 C   0  0  0  0  0  0  0  0  0  0  0  0
   11.4989  -15.3590   25.1656 O   0  0  0  0  0  0  0  0  0  0  0  0
   10.6022  -14.8209   28.5459 C   0  0  0  0  0  0  0  0  0  0  0  0
   11.2880  -15.9798   27.8363 C   0  0  2  0  0  0  0  0  0  0  0  0
   10.3991  -16.4786   26.8040 N   0  0  0  0  0  0  0  0  0  0  0  0
   11.6263  -17.0061   28.8314 C   0  0  0  0  0  0  0  0  0  0  0  0
   12.3968  -16.7868   29.7962 O   0  0  0  0  0  0  0  0  0  0  0  0
   11.0795  -18.2716   28.7122 O   0  0  0  0  0  0  0  0  0  0  0  0
  2  3  1  0
  2  1  1  0
  3  5  1  0
  3  4  1  6
  5  7  1  0
  5  6  1  1
  7  8  2  0
 10  9  1  0
 11 10  1  6
 11 13  1  0
 12 11  1  0
 12  7  1  0
 13 17  1  0
 13 14  2  0
 16 15  1  1
 16 18  1  0
 17 16  1  0
 18 19  2  0
 18 20  1  0
M  END
$$$$
