ISA.pdb
     RDKit          3D

 20 19  0  0  1  0  0  0  0  0999 V2000
    8.3566  -12.3349   20.2270 C   0  0  0  0  0  0  0  0  0  0  0  0
    8.1570  -13.2506   21.4337 C   0  0  0  0  0  0  0  0  0  0  0  0
    8.1917  -14.6956   21.0168 C   0  0  2  0  0  0  0  0  0  0  0  0
    7.1496  -14.9978   19.9680 C   0  0  0  0  0  0  0  0  0  0  0  0
    8.1793  -15.6469   22.1556 C   0  0  2  0  0  0  0  0  0  0  0  0
    6.8834  -15.4826   22.8318 N   0  0  0  0  0  0  0  0  0  0  0  0
    9.2312  -15.4368   23.1744 C   0  0  0  0  0  0  0  0  0  0  0  0
    9.2309  -14.4489   23.9786 O   0  0  0  0  0  0  0  0  0  0  0  0
   10.7882  -18.2740   25.0732 O   0  0  0  0  0  0  0  0  0  0  0  0
   11.2770  -17.0497   25.4410 C   0  0  0  0  0  0  0  0  0  0  0  0
   11.4201  -16.1402   24.2252 C   0  0  2  0  0  0  0  0  0  0  0  0
   10.3107  -16.3446   23.3051 N   0  0  0  0  0  0  0  0  0  0  0  0
   12.6572  -16.5628   23.5258 C   0  0  0  0  0  0  0  0  0  0  0  0
   12.6296  -17.5894   22.7651 O   0  0  0  0  0  0  0  0  0  0  0  0
   16.1250  -15.2870   22.9006 C   0  0  0  0  0  0  0  0  0  0  0  0
   15.1086  -16.4181   22.9686 C   0  0  2  0  0  0  0  0  0  0  0  0
   13.9099  -15.9217   23.6178 N   0  0  0  0  0  0  0  0  0  0  0  0
   15.7110  -17.5483   23.6881 C   0  0  0  0  0  0  0  0  0  0  0  0
   15.3087  -17.9270   24.8138 O   0  0  0  0  0  0  0  0  0  0  0  0
   16.7666  -18.2328   23.1122 O   0  0  0  0  0  0  0  0  0  0  0  0
  2  3  1  0
  2  1  1  0
  3  5  1  0
  3  4  1  6
  5  7  1  0
  5  6  1  1
  7  8  2  0
 10  9  1  0
 11 10  1  1
 11 13  1  0
 12 11  1  0
 12  7  1  0
 13 17  1  0
 13 14  2  0
 16 15  1  1
 16 18  1  0
 17 16  1  0
 18 19  2  0
 18 20  1  0
M  END
$$$$
