ISA.pdb
     RDKit          3D

 20 19  0  0  1  0  0  0  0  0999 V2000
    7.8642  -11.8663   20.3607 C   0  0  0  0  0  0  0  0  0  0  0  0
    7.4773  -13.3011   20.7157 C   0  0  0  0  0  0  0  0  0  0  0  0
    8.5951  -14.2515   20.3833 C   0  0  2  0  0  0  0  0  0  0  0  0
    9.0297  -14.1185   18.9444 C   0  0  0  0  0  0  0  0  0  0  0  0
    8.3312  -15.6523   20.7954 C   0  0  2  0  0  0  0  0  0  0  0  0
    7.2500  -16.1522   19.9323 N   0  0  0  0  0  0  0  0  0  0  0  0
    7.8890  -15.8334   22.1955 C   0  0  0  0  0  0  0  0  0  0  0  0
    6.6999  -15.5933   22.5842 O   0  0  0  0  0  0  0  0  0  0  0  0
    9.9011  -18.3695   24.5891 O   0  0  0  0  0  0  0  0  0  0  0  0
    8.6440  -17.9764   24.9608 C   0  0  0  0  0  0  0  0  0  0  0  0
    8.3988  -16.5217   24.5738 C   0  0  2  0  0  0  0  0  0  0  0  0
    8.7874  -16.2922   23.1899 N   0  0  0  0  0  0  0  0  0  0  0  0
    9.2942  -15.7023   25.4253 C   0  0  0  0  0  0  0  0  0  0  0  0
   10.5231  -15.5700   25.1001 O   0  0  0  0  0  0  0  0  0  0  0  0
    9.0953  -13.2137   28.1849 C   0  0  0  0  0  0  0  0  0  0  0  0
    9.8488  -14.3149   27.4523 C   0  0  2  0  0  0  0  0  0  0  0  0
    8.9126  -15.0273   26.6033 N   0  0  0  0  0  0  0  0  0  0  0  0
   10.4852  -15.1899   28.4460 C   0  0  0  0  0  0  0  0  0  0  0  0
   10.1156  -16.3717   28.6440 O   0  0  0  0  0  0  0  0  0  0  0  0
   11.5371  -14.7035   29.2021 O   0  0  0  0  0  0  0  0  0  0  0  0
  2  3  1  0
  2  1  1  0
  3  5  1  0
  3  4  1  6
  5  7  1  0
  5  6  1  6
  7  8  2  0
 10  9  1  0
 11 10  1  1
 11 13  1  0
 12 11  1  0
 12  7  1  0
 13 17  1  0
 13 14  2  0
 16 15  1  1
 16 18  1  0
 17 16  1  0
 18 19  2  0
 18 20  1  0
M  END
$$$$
