ISA.pdb
     RDKit          3D

 20 19  0  0  1  0  0  0  0  0999 V2000
    7.5848  -11.9850   20.1368 C   0  0  0  0  0  0  0  0  0  0  0  0
    7.4947  -13.4855   19.8625 C   0  0  0  0  0  0  0  0  0  0  0  0
    8.6732  -13.9498   19.0510 C   0  0  2  0  0  0  0  0  0  0  0  0
    8.8112  -13.1646   17.7698 C   0  0  0  0  0  0  0  0  0  0  0  0
    8.7210  -15.4197   18.8531 C   0  0  2  0  0  0  0  0  0  0  0  0
    7.6477  -15.7553   17.9049 N   0  0  0  0  0  0  0  0  0  0  0  0
    8.4991  -16.2349   20.0675 C   0  0  0  0  0  0  0  0  0  0  0  0
    7.3395  -16.5594   20.4831 O   0  0  0  0  0  0  0  0  0  0  0  0
   11.1188  -18.8709   21.1731 O   0  0  0  0  0  0  0  0  0  0  0  0
    9.9636  -18.8741   21.9069 C   0  0  0  0  0  0  0  0  0  0  0  0
    9.4297  -17.4555   22.0760 C   0  0  2  0  0  0  0  0  0  0  0  0
    9.5900  -16.7023   20.8407 N   0  0  0  0  0  0  0  0  0  0  0  0
   10.2787  -16.8051   23.1029 C   0  0  0  0  0  0  0  0  0  0  0  0
   11.4265  -16.3501   22.7731 O   0  0  0  0  0  0  0  0  0  0  0  0
    9.9908  -15.5783   26.6305 C   0  0  0  0  0  0  0  0  0  0  0  0
   10.8206  -16.0223   25.4340 C   0  0  2  0  0  0  0  0  0  0  0  0
    9.9347  -16.6303   24.4593 N   0  0  0  0  0  0  0  0  0  0  0  0
   11.8619  -16.9470   25.9016 C   0  0  0  0  0  0  0  0  0  0  0  0
   11.8373  -18.1762   25.6548 O   0  0  0  0  0  0  0  0  0  0  0  0
   12.9196  -16.4557   26.6463 O   0  0  0  0  0  0  0  0  0  0  0  0
  2  3  1  0
  2  1  1  0
  3  5  1  0
  3  4  1  6
  5  7  1  0
  5  6  1  6
  7  8  2  0
 10  9  1  0
 11 10  1  6
 11 13  1  0
 12 11  1  0
 12  7  1  0
 13 17  1  0
 13 14  2  0
 16 15  1  1
 16 18  1  0
 17 16  1  0
 18 19  2  0
 18 20  1  0
M  END
$$$$
