ISA.pdb
     RDKit          3D

 20 19  0  0  1  0  0  0  0  0999 V2000
    5.6300  -11.2457   26.6888 C   0  0  0  0  0  0  0  0  0  0  0  0
    5.4485  -12.4998   25.8351 C   0  0  0  0  0  0  0  0  0  0  0  0
    6.7378  -13.2688   25.7382 C   0  0  2  0  0  0  0  0  0  0  0  0
    7.8671  -12.4017   25.2382 C   0  0  0  0  0  0  0  0  0  0  0  0
    6.6128  -14.5563   25.0112 C   0  0  2  0  0  0  0  0  0  0  0  0
    5.3888  -15.2055   25.5051 N   0  0  0  0  0  0  0  0  0  0  0  0
    7.7235  -15.5129   25.2112 C   0  0  0  0  0  0  0  0  0  0  0  0
    7.8512  -16.2175   26.2648 O   0  0  0  0  0  0  0  0  0  0  0  0
   10.7132  -15.3544   22.5479 O   0  0  0  0  0  0  0  0  0  0  0  0
   10.7009  -16.6029   23.1084 C   0  0  0  0  0  0  0  0  0  0  0  0
    9.8294  -16.6222   24.3598 C   0  0  2  0  0  0  0  0  0  0  0  0
    8.7177  -15.6931   24.2185 N   0  0  0  0  0  0  0  0  0  0  0  0
   10.6775  -16.1298   25.4718 C   0  0  0  0  0  0  0  0  0  0  0  0
   11.7469  -15.4820   25.2073 O   0  0  0  0  0  0  0  0  0  0  0  0
   10.9423  -14.6062   28.4702 C   0  0  0  0  0  0  0  0  0  0  0  0
   11.3530  -15.9527   27.8911 C   0  0  2  0  0  0  0  0  0  0  0  0
   10.4133  -16.3102   26.8453 N   0  0  0  0  0  0  0  0  0  0  0  0
   11.3878  -16.9406   28.9778 C   0  0  0  0  0  0  0  0  0  0  0  0
   10.6579  -17.9602   28.9905 O   0  0  0  0  0  0  0  0  0  0  0  0
   12.2568  -16.7513   30.0379 O   0  0  0  0  0  0  0  0  0  0  0  0
  2  3  1  0
  2  1  1  0
  3  5  1  0
  3  4  1  6
  5  7  1  0
  5  6  1  1
  7  8  2  0
 10  9  1  0
 11 10  1  6
 11 13  1  0
 12 11  1  0
 12  7  1  0
 13 17  1  0
 13 14  2  0
 16 15  1  1
 16 18  1  0
 17 16  1  0
 18 19  2  0
 18 20  1  0
M  END
$$$$
