ISA.pdb
     RDKit          3D

 20 19  0  0  1  0  0  0  0  0999 V2000
    7.7360  -12.2886   18.9537 C   0  0  0  0  0  0  0  0  0  0  0  0
    7.7789  -13.7536   19.3860 C   0  0  0  0  0  0  0  0  0  0  0  0
    7.5284  -13.8798   20.8639 C   0  0  2  0  0  0  0  0  0  0  0  0
    8.4784  -13.0236   21.6648 C   0  0  0  0  0  0  0  0  0  0  0  0
    7.4515  -15.2834   21.3394 C   0  0  2  0  0  0  0  0  0  0  0  0
    6.4657  -15.9666   20.4880 N   0  0  0  0  0  0  0  0  0  0  0  0
    7.0120  -15.4594   22.7410 C   0  0  0  0  0  0  0  0  0  0  0  0
    5.8482  -15.1398   23.1486 O   0  0  0  0  0  0  0  0  0  0  0  0
    8.1542  -18.3803   25.0445 O   0  0  0  0  0  0  0  0  0  0  0  0
    7.2124  -17.5105   25.5238 C   0  0  0  0  0  0  0  0  0  0  0  0
    7.5548  -16.0770   25.1314 C   0  0  2  0  0  0  0  0  0  0  0  0
    7.8844  -16.0034   23.7154 N   0  0  0  0  0  0  0  0  0  0  0  0
    8.7765  -15.7131   25.8884 C   0  0  0  0  0  0  0  0  0  0  0  0
    9.9163  -16.1156   25.4734 O   0  0  0  0  0  0  0  0  0  0  0  0
    9.7929  -13.5593   28.7858 C   0  0  0  0  0  0  0  0  0  0  0  0
   10.0072  -14.7512   27.8635 C   0  0  2  0  0  0  0  0  0  0  0  0
    8.8101  -14.9371   27.0655 N   0  0  0  0  0  0  0  0  0  0  0  0
   10.3254  -15.9281   28.6830 C   0  0  0  0  0  0  0  0  0  0  0  0
    9.5212  -16.8758   28.8493 O   0  0  0  0  0  0  0  0  0  0  0  0
   11.5597  -16.0081   29.3033 O   0  0  0  0  0  0  0  0  0  0  0  0
  2  3  1  0
  2  1  1  0
  3  5  1  0
  3  4  1  1
  5  7  1  0
  5  6  1  6
  7  8  2  0
 10  9  1  0
 11 10  1  1
 11 13  1  0
 12 11  1  0
 12  7  1  0
 13 17  1  0
 13 14  2  0
 16 15  1  1
 16 18  1  0
 17 16  1  0
 18 19  2  0
 18 20  1  0
M  END
$$$$
