ISA.pdb
     RDKit          3D

 20 19  0  0  1  0  0  0  0  0999 V2000
    6.9031  -11.6029   27.4669 C   0  0  0  0  0  0  0  0  0  0  0  0
    6.2002  -12.6925   26.6586 C   0  0  0  0  0  0  0  0  0  0  0  0
    7.2035  -13.5546   25.9422 C   0  0  2  0  0  0  0  0  0  0  0  0
    8.1680  -12.7273   25.1282 C   0  0  0  0  0  0  0  0  0  0  0  0
    6.5949  -14.6740   25.1816 C   0  0  2  0  0  0  0  0  0  0  0  0
    5.8029  -15.4583   26.1415 N   0  0  0  0  0  0  0  0  0  0  0  0
    7.5502  -15.6053   24.5424 C   0  0  0  0  0  0  0  0  0  0  0  0
    8.1548  -16.5263   25.1818 O   0  0  0  0  0  0  0  0  0  0  0  0
    8.9102  -14.7538   20.7927 O   0  0  0  0  0  0  0  0  0  0  0  0
    8.7880  -16.1040   20.9798 C   0  0  0  0  0  0  0  0  0  0  0  0
    8.7286  -16.4379   22.4667 C   0  0  2  0  0  0  0  0  0  0  0  0
    7.8427  -15.5135   23.1595 N   0  0  0  0  0  0  0  0  0  0  0  0
   10.0948  -16.2243   23.0016 C   0  0  0  0  0  0  0  0  0  0  0  0
   10.5412  -15.0335   23.1283 O   0  0  0  0  0  0  0  0  0  0  0  0
   12.8599  -18.2517   24.5382 C   0  0  0  0  0  0  0  0  0  0  0  0
   12.3236  -16.9788   23.8983 C   0  0  2  0  0  0  0  0  0  0  0  0
   10.9864  -17.2415   23.4009 N   0  0  0  0  0  0  0  0  0  0  0  0
   13.2476  -16.5623   22.8349 C   0  0  0  0  0  0  0  0  0  0  0  0
   14.4080  -16.1486   23.0688 O   0  0  0  0  0  0  0  0  0  0  0  0
   12.8342  -16.6237   21.5158 O   0  0  0  0  0  0  0  0  0  0  0  0
  2  3  1  0
  2  1  1  0
  3  5  1  0
  3  4  1  6
  5  7  1  0
  5  6  1  1
  7  8  2  0
 10  9  1  0
 11 10  1  6
 11 13  1  0
 12 11  1  0
 12  7  1  0
 13 17  1  0
 13 14  2  0
 16 15  1  6
 16 18  1  0
 17 16  1  0
 18 19  2  0
 18 20  1  0
M  END
$$$$
