HQH.pdb
     RDKit          3D

 30 31  0  0  1  0  0  0  0  0999 V2000
   18.9301  -14.0408  -17.1150 N   0  0  0  0  0  0  0  0  0  0  0  0
   18.2064  -12.7877  -17.0289 C   0  0  1  0  0  0  0  0  0  0  0  0
   17.2292  -12.7762  -15.8943 C   0  0  0  0  0  0  0  0  0  0  0  0
   16.1998  -13.8121  -16.1263 C   0  0  0  0  0  0  0  0  0  0  0  0
   15.1339  -13.7386  -16.9797 C   0  0  0  0  0  0  0  0  0  0  0  0
   14.4173  -14.8724  -16.9155 N   0  0  0  0  0  0  0  0  0  0  0  0
   15.0365  -15.6558  -16.0205 C   0  0  0  0  0  0  0  0  0  0  0  0
   16.1291  -15.0331  -15.5220 N   0  0  0  0  0  0  0  0  0  0  0  0
   19.2134  -11.6814  -16.9005 C   0  0  0  0  0  0  0  0  0  0  0  0
   20.0874  -11.7035  -16.0015 O   0  0  0  0  0  0  0  0  0  0  0  0
   22.9890   -8.8492  -19.1630 N   0  0  0  0  0  0  0  0  0  0  0  0
   22.3601   -9.7570  -20.0425 C   0  0  0  0  0  0  0  0  0  0  0  0
   23.0588  -10.4835  -20.7770 O   0  0  0  0  0  0  0  0  0  0  0  0
   20.8892   -9.8335  -20.0805 C   0  0  0  0  0  0  0  0  0  0  0  0
   20.2757   -8.8582  -19.0974 C   0  0  0  0  0  0  0  0  0  0  0  0
   20.1506   -9.4767  -17.7312 C   0  0  2  0  0  0  0  0  0  0  0  0
   19.2222  -10.5708  -17.7821 N   0  0  0  0  0  0  0  0  0  0  0  0
   19.7450   -8.4185  -16.7830 C   0  0  0  0  0  0  0  0  0  0  0  0
   18.5145   -8.2337  -16.6010 O   0  0  0  0  0  0  0  0  0  0  0  0
   20.6491   -7.6066  -16.0728 N   0  0  0  0  0  0  0  0  0  0  0  0
   20.2595   -6.5495  -15.1542 C   0  0  1  0  0  0  0  0  0  0  0  0
   20.5401   -7.0930  -13.7710 C   0  0  0  0  0  0  0  0  0  0  0  0
   19.5551   -8.0545  -13.2806 C   0  0  0  0  0  0  0  0  0  0  0  0
   18.4377   -8.5531  -13.9062 C   0  0  0  0  0  0  0  0  0  0  0  0
   17.7946   -9.4196  -13.0917 N   0  0  0  0  0  0  0  0  0  0  0  0
   18.5128   -9.4658  -11.9460 C   0  0  0  0  0  0  0  0  0  0  0  0
   19.5765   -8.6395  -12.0632 N   0  0  0  0  0  0  0  0  0  0  0  0
   21.0537   -5.3268  -15.3401 C   0  0  0  0  0  0  0  0  0  0  0  0
   20.7154   -4.1875  -14.6495 O   0  0  0  0  0  0  0  0  0  0  0  0
   22.0246   -5.3152  -16.1136 O   0  0  0  0  0  0  0  0  0  0  0  0
  2  1  1  1
  2  3  1  0
  3  4  1  0
  4  8  1  0
  5  4  2  0
  5  6  1  0
  6  7  1  0
  8  7  2  0
  9 17  1  0
  9  2  1  0
 10  9  2  0
 11 12  1  0
 12 14  1  0
 13 12  2  0
 14 15  1  0
 16 15  1  6
 16 17  1  0
 18 16  1  0
 19 18  2  0
 20 18  1  0
 21 28  1  0
 21 20  1  0
 21 22  1  1
 22 23  1  0
 23 24  2  0
 24 25  1  0
 26 25  1  0
 27 23  1  0
 27 26  2  0
 28 29  1  0
 30 28  2  0
M  END
$$$$
