HQH.pdb
     RDKit          3D

 30 31  0  0  1  0  0  0  0  0999 V2000
   26.7445  -10.1542  -19.8827 N   0  0  0  0  0  0  0  0  0  0  0  0
   26.4538   -8.8688  -20.4868 C   0  0  1  0  0  0  0  0  0  0  0  0
   26.4810   -8.9283  -21.9829 C   0  0  0  0  0  0  0  0  0  0  0  0
   27.7611   -9.5223  -22.4244 C   0  0  0  0  0  0  0  0  0  0  0  0
   29.0042   -9.2781  -21.9096 C   0  0  0  0  0  0  0  0  0  0  0  0
   29.9233   -9.9997  -22.5714 N   0  0  0  0  0  0  0  0  0  0  0  0
   29.2533  -10.6958  -23.5013 C   0  0  0  0  0  0  0  0  0  0  0  0
   27.9299  -10.4236  -23.4345 N   0  0  0  0  0  0  0  0  0  0  0  0
   25.1175   -8.4115  -19.9773 C   0  0  0  0  0  0  0  0  0  0  0  0
   24.5799   -7.3679  -20.4182 O   0  0  0  0  0  0  0  0  0  0  0  0
   21.0496  -12.0599  -16.8631 N   0  0  0  0  0  0  0  0  0  0  0  0
   20.3849  -10.8146  -16.8440 C   0  0  0  0  0  0  0  0  0  0  0  0
   19.2132  -10.7509  -16.4214 O   0  0  0  0  0  0  0  0  0  0  0  0
   21.0834   -9.6090  -17.3231 C   0  0  0  0  0  0  0  0  0  0  0  0
   22.4643   -9.9581  -17.8382 C   0  0  0  0  0  0  0  0  0  0  0  0
   23.1439   -8.7488  -18.4216 C   0  0  2  0  0  0  0  0  0  0  0  0
   24.4085   -9.1323  -18.9830 N   0  0  0  0  0  0  0  0  0  0  0  0
   23.2690   -7.7330  -17.3558 C   0  0  0  0  0  0  0  0  0  0  0  0
   24.4195   -7.4875  -16.9111 O   0  0  0  0  0  0  0  0  0  0  0  0
   22.1825   -7.0250  -16.8091 N   0  0  0  0  0  0  0  0  0  0  0  0
   22.3053   -5.9492  -15.8392 C   0  0  1  0  0  0  0  0  0  0  0  0
   23.1047   -4.8693  -16.5335 C   0  0  0  0  0  0  0  0  0  0  0  0
   23.2667   -3.6380  -15.7635 C   0  0  0  0  0  0  0  0  0  0  0  0
   24.3746   -3.1620  -15.1042 C   0  0  0  0  0  0  0  0  0  0  0  0
   24.0920   -1.9813  -14.5093 N   0  0  0  0  0  0  0  0  0  0  0  0
   22.7972   -1.7133  -14.7966 C   0  0  0  0  0  0  0  0  0  0  0  0
   22.3011   -2.7168  -15.5550 N   0  0  0  0  0  0  0  0  0  0  0  0
   21.0013   -5.3871  -15.4599 C   0  0  0  0  0  0  0  0  0  0  0  0
   19.9600   -5.4260  -16.3565 O   0  0  0  0  0  0  0  0  0  0  0  0
   20.8335   -4.8792  -14.3397 O   0  0  0  0  0  0  0  0  0  0  0  0
  2  1  1  1
  2  3  1  0
  3  4  1  0
  4  8  1  0
  5  4  2  0
  5  6  1  0
  6  7  1  0
  8  7  2  0
  9 17  1  0
  9  2  1  0
 10  9  2  0
 11 12  1  0
 12 14  1  0
 13 12  2  0
 14 15  1  0
 16 15  1  1
 16 17  1  0
 18 16  1  0
 19 18  2  0
 20 18  1  0
 21 28  1  0
 21 20  1  0
 21 22  1  6
 22 23  1  0
 23 24  2  0
 24 25  1  0
 26 25  1  0
 27 23  1  0
 27 26  2  0
 28 29  1  0
 30 28  2  0
M  END
$$$$
