HQH.pdb
     RDKit          3D

 30 31  0  0  1  0  0  0  0  0999 V2000
   24.9625  -12.0096  -18.5856 N   0  0  0  0  0  0  0  0  0  0  0  0
   24.9125  -10.7312  -17.9038 C   0  0  1  0  0  0  0  0  0  0  0  0
   25.9575   -9.7825  -18.4042 C   0  0  0  0  0  0  0  0  0  0  0  0
   27.2978  -10.3351  -18.1131 C   0  0  0  0  0  0  0  0  0  0  0  0
   28.4817   -9.6518  -18.0792 C   0  0  0  0  0  0  0  0  0  0  0  0
   29.4867  -10.4919  -17.7836 N   0  0  0  0  0  0  0  0  0  0  0  0
   28.9298  -11.7024  -17.6325 C   0  0  0  0  0  0  0  0  0  0  0  0
   27.5929  -11.6362  -17.8283 N   0  0  0  0  0  0  0  0  0  0  0  0
   23.5305  -10.1703  -18.0763 C   0  0  0  0  0  0  0  0  0  0  0  0
   22.7918  -10.5482  -19.0165 O   0  0  0  0  0  0  0  0  0  0  0  0
   19.3099  -10.0768  -14.0898 N   0  0  0  0  0  0  0  0  0  0  0  0
   19.4965  -10.9396  -15.1915 C   0  0  0  0  0  0  0  0  0  0  0  0
   18.9518  -12.0615  -15.1913 O   0  0  0  0  0  0  0  0  0  0  0  0
   20.3310  -10.5034  -16.3248 C   0  0  0  0  0  0  0  0  0  0  0  0
   20.8694   -9.1075  -16.0885 C   0  0  0  0  0  0  0  0  0  0  0  0
   21.6816   -8.6366  -17.2646 C   0  0  2  0  0  0  0  0  0  0  0  0
   23.0019   -9.1961  -17.1918 N   0  0  0  0  0  0  0  0  0  0  0  0
   21.6793   -7.1590  -17.2627 C   0  0  0  0  0  0  0  0  0  0  0  0
   22.5029   -6.5718  -16.5155 O   0  0  0  0  0  0  0  0  0  0  0  0
   20.8140   -6.3704  -18.0438 N   0  0  0  0  0  0  0  0  0  0  0  0
   20.7894   -4.9170  -18.0321 C   0  0  1  0  0  0  0  0  0  0  0  0
   19.7995   -4.5215  -19.1049 C   0  0  0  0  0  0  0  0  0  0  0  0
   19.7185   -3.0854  -19.3625 C   0  0  0  0  0  0  0  0  0  0  0  0
   20.7310   -2.1665  -19.5012 C   0  0  0  0  0  0  0  0  0  0  0  0
   20.2171   -0.9365  -19.7261 N   0  0  0  0  0  0  0  0  0  0  0  0
   18.8720   -1.0831  -19.7287 C   0  0  0  0  0  0  0  0  0  0  0  0
   18.5737   -2.3835  -19.5087 N   0  0  0  0  0  0  0  0  0  0  0  0
   20.3201   -4.3764  -16.7484 C   0  0  0  0  0  0  0  0  0  0  0  0
   20.8365   -3.1904  -16.2832 O   0  0  0  0  0  0  0  0  0  0  0  0
   19.4637   -4.9806  -16.0832 O   0  0  0  0  0  0  0  0  0  0  0  0
  2  1  1  6
  2  3  1  0
  3  4  1  0
  4  8  1  0
  5  4  2  0
  5  6  1  0
  6  7  1  0
  8  7  2  0
  9 17  1  0
  9  2  1  0
 10  9  2  0
 11 12  1  0
 12 14  1  0
 13 12  2  0
 14 15  1  0
 16 15  1  1
 16 17  1  0
 18 16  1  0
 19 18  2  0
 20 18  1  0
 21 28  1  0
 21 20  1  0
 21 22  1  6
 22 23  1  0
 23 24  2  0
 24 25  1  0
 26 25  1  0
 27 23  1  0
 27 26  2  0
 28 29  1  0
 30 28  2  0
M  END
$$$$
