HQH.pdb
     RDKit          3D

 30 31  0  0  1  0  0  0  0  0999 V2000
   26.5661  -16.7281  -18.1835 N   0  0  0  0  0  0  0  0  0  0  0  0
   26.2791  -18.0140  -17.5787 C   0  0  1  0  0  0  0  0  0  0  0  0
   27.4881  -18.6174  -16.9330 C   0  0  0  0  0  0  0  0  0  0  0  0
   28.4802  -18.9563  -17.9757 C   0  0  0  0  0  0  0  0  0  0  0  0
   28.3088  -18.8869  -19.3306 C   0  0  0  0  0  0  0  0  0  0  0  0
   29.4316  -19.2783  -19.9546 N   0  0  0  0  0  0  0  0  0  0  0  0
   30.3061  -19.5930  -18.9879 C   0  0  0  0  0  0  0  0  0  0  0  0
   29.7515  -19.4057  -17.7684 N   0  0  0  0  0  0  0  0  0  0  0  0
   25.1650  -17.8207  -16.5910 C   0  0  0  0  0  0  0  0  0  0  0  0
   25.2398  -16.9471  -15.6945 O   0  0  0  0  0  0  0  0  0  0  0  0
   19.8921  -15.9561  -17.3764 N   0  0  0  0  0  0  0  0  0  0  0  0
   19.6754  -16.4382  -16.0674 C   0  0  0  0  0  0  0  0  0  0  0  0
   18.6100  -16.1625  -15.4806 O   0  0  0  0  0  0  0  0  0  0  0  0
   20.7093  -17.2593  -15.4134 C   0  0  0  0  0  0  0  0  0  0  0  0
   21.8776  -17.4953  -16.3480 C   0  0  0  0  0  0  0  0  0  0  0  0
   22.8616  -18.4627  -15.7476 C   0  0  2  0  0  0  0  0  0  0  0  0
   23.9876  -18.6102  -16.6262 N   0  0  0  0  0  0  0  0  0  0  0  0
   22.1569  -19.7362  -15.4928 C   0  0  0  0  0  0  0  0  0  0  0  0
   21.1166  -19.9747  -16.1578 O   0  0  0  0  0  0  0  0  0  0  0  0
   22.5775  -20.6965  -14.5537 N   0  0  0  0  0  0  0  0  0  0  0  0
   21.7623  -21.1838  -13.4532 C   0  0  1  0  0  0  0  0  0  0  0  0
   22.2856  -20.4803  -12.2209 C   0  0  0  0  0  0  0  0  0  0  0  0
   23.6444  -20.8539  -11.8346 C   0  0  0  0  0  0  0  0  0  0  0  0
   24.4970  -21.7619  -12.4153 C   0  0  0  0  0  0  0  0  0  0  0  0
   25.6644  -21.8069  -11.7350 N   0  0  0  0  0  0  0  0  0  0  0  0
   25.5449  -20.9210  -10.7194 C   0  0  0  0  0  0  0  0  0  0  0  0
   24.3225  -20.3464  -10.7823 N   0  0  0  0  0  0  0  0  0  0  0  0
   20.3425  -20.8391  -13.6142 C   0  0  0  0  0  0  0  0  0  0  0  0
   19.9484  -20.0738  -14.6859 O   0  0  0  0  0  0  0  0  0  0  0  0
   19.4994  -21.2325  -12.7924 O   0  0  0  0  0  0  0  0  0  0  0  0
  2  1  1  1
  2  3  1  0
  3  4  1  0
  4  8  1  0
  5  4  2  0
  5  6  1  0
  6  7  1  0
  8  7  2  0
  9 17  1  0
  9  2  1  0
 10  9  2  0
 11 12  1  0
 12 14  1  0
 13 12  2  0
 14 15  1  0
 16 15  1  6
 16 17  1  0
 18 16  1  0
 19 18  2  0
 20 18  1  0
 21 28  1  0
 21 20  1  0
 21 22  1  1
 22 23  1  0
 23 24  2  0
 24 25  1  0
 26 25  1  0
 27 23  1  0
 27 26  2  0
 28 29  1  0
 30 28  2  0
M  END
$$$$
