HQH.pdb
     RDKit          3D

 30 31  0  0  1  0  0  0  0  0999 V2000
   19.0056  -12.8505  -17.7683 N   0  0  0  0  0  0  0  0  0  0  0  0
   20.0907  -11.8910  -17.8287 C   0  0  1  0  0  0  0  0  0  0  0  0
   20.6540  -11.7611  -19.2101 C   0  0  0  0  0  0  0  0  0  0  0  0
   21.2962  -13.0356  -19.5970 C   0  0  0  0  0  0  0  0  0  0  0  0
   20.9190  -13.8753  -20.6082 C   0  0  0  0  0  0  0  0  0  0  0  0
   21.7410  -14.9362  -20.6527 N   0  0  0  0  0  0  0  0  0  0  0  0
   22.6335  -14.7591  -19.6676 C   0  0  0  0  0  0  0  0  0  0  0  0
   22.3856  -13.6056  -19.0058 N   0  0  0  0  0  0  0  0  0  0  0  0
   19.5734  -10.5771  -17.3184 C   0  0  0  0  0  0  0  0  0  0  0  0
   18.8624   -9.8377  -18.0398 O   0  0  0  0  0  0  0  0  0  0  0  0
   15.7768   -8.8153  -14.4402 N   0  0  0  0  0  0  0  0  0  0  0  0
   16.4924   -7.7803  -13.8001 C   0  0  0  0  0  0  0  0  0  0  0  0
   15.8731   -6.8026  -13.3354 O   0  0  0  0  0  0  0  0  0  0  0  0
   17.9590   -7.8694  -13.6901 C   0  0  0  0  0  0  0  0  0  0  0  0
   18.4660   -9.1573  -14.3051 C   0  0  0  0  0  0  0  0  0  0  0  0
   19.4076   -8.8765  -15.4450 C   0  0  2  0  0  0  0  0  0  0  0  0
   19.8625  -10.1161  -16.0090 N   0  0  0  0  0  0  0  0  0  0  0  0
   20.5096   -8.0352  -14.9341 C   0  0  0  0  0  0  0  0  0  0  0  0
   21.4618   -8.6088  -14.3459 O   0  0  0  0  0  0  0  0  0  0  0  0
   20.5591   -6.6348  -15.0650 N   0  0  0  0  0  0  0  0  0  0  0  0
   21.6421   -5.7997  -14.5719 C   0  0  1  0  0  0  0  0  0  0  0  0
   21.4683   -4.4648  -15.2611 C   0  0  0  0  0  0  0  0  0  0  0  0
   21.8239   -4.4577  -16.6784 C   0  0  0  0  0  0  0  0  0  0  0  0
   22.4089   -5.4448  -17.4349 C   0  0  0  0  0  0  0  0  0  0  0  0
   22.5700   -5.0222  -18.7090 N   0  0  0  0  0  0  0  0  0  0  0  0
   22.0830   -3.7607  -18.7537 C   0  0  0  0  0  0  0  0  0  0  0  0
   21.6326   -3.4223  -17.5245 N   0  0  0  0  0  0  0  0  0  0  0  0
   21.5646   -5.5838  -13.1201 C   0  0  0  0  0  0  0  0  0  0  0  0
   22.5643   -4.8864  -12.4845 O   0  0  0  0  0  0  0  0  0  0  0  0
   20.6065   -6.0248  -12.4656 O   0  0  0  0  0  0  0  0  0  0  0  0
  2  1  1  6
  2  3  1  0
  3  4  1  0
  4  8  1  0
  5  4  2  0
  5  6  1  0
  6  7  1  0
  8  7  2  0
  9 17  1  0
  9  2  1  0
 10  9  2  0
 11 12  1  0
 12 14  1  0
 13 12  2  0
 14 15  1  0
 16 15  1  1
 16 17  1  0
 18 16  1  0
 19 18  2  0
 20 18  1  0
 21 28  1  0
 21 20  1  0
 21 22  1  6
 22 23  1  0
 23 24  2  0
 24 25  1  0
 26 25  1  0
 27 23  1  0
 27 26  2  0
 28 29  1  0
 30 28  2  0
M  END
$$$$
