HQH.pdb
     RDKit          3D

 30 31  0  0  1  0  0  0  0  0999 V2000
   21.1419  -29.0955  -13.8585 N   0  0  0  0  0  0  0  0  0  0  0  0
   20.3609  -28.0643  -13.2040 C   0  0  1  0  0  0  0  0  0  0  0  0
   21.0317  -27.5451  -11.9699 C   0  0  0  0  0  0  0  0  0  0  0  0
   21.1949  -28.6505  -11.0014 C   0  0  0  0  0  0  0  0  0  0  0  0
   20.2222  -29.2162  -10.2244 C   0  0  0  0  0  0  0  0  0  0  0  0
   20.7507  -30.1914   -9.4675 N   0  0  0  0  0  0  0  0  0  0  0  0
   22.0560  -30.2350   -9.7720 C   0  0  0  0  0  0  0  0  0  0  0  0
   22.3555  -29.3042  -10.7068 N   0  0  0  0  0  0  0  0  0  0  0  0
   20.1161  -26.9686  -14.2009 C   0  0  0  0  0  0  0  0  0  0  0  0
   20.4280  -27.1102  -15.4072 O   0  0  0  0  0  0  0  0  0  0  0  0
   14.3959  -24.0378  -15.6419 N   0  0  0  0  0  0  0  0  0  0  0  0
   15.3067  -25.0717  -15.9493 C   0  0  0  0  0  0  0  0  0  0  0  0
   14.8904  -26.2415  -16.0659 O   0  0  0  0  0  0  0  0  0  0  0  0
   16.7346  -24.7549  -16.1280 C   0  0  0  0  0  0  0  0  0  0  0  0
   17.5947  -25.6436  -15.2536 C   0  0  0  0  0  0  0  0  0  0  0  0
   18.7655  -24.8804  -14.6957 C   0  0  2  0  0  0  0  0  0  0  0  0
   19.5261  -25.7344  -13.8274 N   0  0  0  0  0  0  0  0  0  0  0  0
   18.2465  -23.6772  -14.0129 C   0  0  0  0  0  0  0  0  0  0  0  0
   17.5441  -23.8436  -12.9831 O   0  0  0  0  0  0  0  0  0  0  0  0
   18.4894  -22.3593  -14.4433 N   0  0  0  0  0  0  0  0  0  0  0  0
   18.1418  -21.1687  -13.6852 C   0  0  1  0  0  0  0  0  0  0  0  0
   18.9881  -20.0585  -14.2671 C   0  0  0  0  0  0  0  0  0  0  0  0
   20.4201  -20.1784  -14.0021 C   0  0  0  0  0  0  0  0  0  0  0  0
   21.0912  -21.1084  -13.2448 C   0  0  0  0  0  0  0  0  0  0  0  0
   22.4183  -20.8509  -13.2582 N   0  0  0  0  0  0  0  0  0  0  0  0
   22.5826  -19.7513  -14.0293 C   0  0  0  0  0  0  0  0  0  0  0  0
   21.3726  -19.3471  -14.4776 N   0  0  0  0  0  0  0  0  0  0  0  0
   16.7272  -20.8009  -13.8399 C   0  0  0  0  0  0  0  0  0  0  0  0
   16.1661  -19.8886  -12.9783 O   0  0  0  0  0  0  0  0  0  0  0  0
   16.0374  -21.3063  -14.7398 O   0  0  0  0  0  0  0  0  0  0  0  0
  2  1  1  6
  2  3  1  0
  3  4  1  0
  4  8  1  0
  5  4  2  0
  5  6  1  0
  6  7  1  0
  8  7  2  0
  9 17  1  0
  9  2  1  0
 10  9  2  0
 11 12  1  0
 12 14  1  0
 13 12  2  0
 14 15  1  0
 16 15  1  1
 16 17  1  0
 18 16  1  0
 19 18  2  0
 20 18  1  0
 21 28  1  0
 21 20  1  0
 21 22  1  6
 22 23  1  0
 23 24  2  0
 24 25  1  0
 26 25  1  0
 27 23  1  0
 27 26  2  0
 28 29  1  0
 30 28  2  0
M  END
$$$$
