HQH.pdb
     RDKit          3D

 30 31  0  0  1  0  0  0  0  0999 V2000
   20.5985  -15.4042  -20.4439 N   0  0  0  0  0  0  0  0  0  0  0  0
   21.4530  -14.2332  -20.4455 C   0  0  1  0  0  0  0  0  0  0  0  0
   21.2923  -13.4179  -21.6913 C   0  0  0  0  0  0  0  0  0  0  0  0
   21.8135  -14.1820  -22.8450 C   0  0  0  0  0  0  0  0  0  0  0  0
   21.2046  -15.2254  -23.4857 C   0  0  0  0  0  0  0  0  0  0  0  0
   21.9850  -15.6666  -24.4855 N   0  0  0  0  0  0  0  0  0  0  0  0
   23.0835  -14.8976  -24.4695 C   0  0  0  0  0  0  0  0  0  0  0  0
   23.0057  -13.9816  -23.4771 N   0  0  0  0  0  0  0  0  0  0  0  0
   21.1374  -13.4303  -19.2166 C   0  0  0  0  0  0  0  0  0  0  0  0
   19.9511  -13.2120  -18.8737 O   0  0  0  0  0  0  0  0  0  0  0  0
   23.6501  -14.0237  -13.8639 N   0  0  0  0  0  0  0  0  0  0  0  0
   22.4937  -14.6145  -14.4178 C   0  0  0  0  0  0  0  0  0  0  0  0
   22.0255  -15.6485  -13.9011 O   0  0  0  0  0  0  0  0  0  0  0  0
   21.8568  -14.0022  -15.5969 C   0  0  0  0  0  0  0  0  0  0  0  0
   22.6195  -12.7709  -16.0399 C   0  0  0  0  0  0  0  0  0  0  0  0
   21.9413  -12.1077  -17.2082 C   0  0  2  0  0  0  0  0  0  0  0  0
   22.1572  -12.8868  -18.3948 N   0  0  0  0  0  0  0  0  0  0  0  0
   22.4614  -10.7292  -17.3196 C   0  0  0  0  0  0  0  0  0  0  0  0
   23.4218  -10.5259  -18.1056 O   0  0  0  0  0  0  0  0  0  0  0  0
   21.9491   -9.6322  -16.6018 N   0  0  0  0  0  0  0  0  0  0  0  0
   22.3826   -8.2563  -16.7812 C   0  0  1  0  0  0  0  0  0  0  0  0
   22.0742   -7.9209  -18.2233 C   0  0  0  0  0  0  0  0  0  0  0  0
   22.4037   -6.5526  -18.6166 C   0  0  0  0  0  0  0  0  0  0  0  0
   23.1628   -5.6154  -17.9577 C   0  0  0  0  0  0  0  0  0  0  0  0
   23.2103   -4.4682  -18.6712 N   0  0  0  0  0  0  0  0  0  0  0  0
   22.4757   -4.6856  -19.7865 C   0  0  0  0  0  0  0  0  0  0  0  0
   21.9894   -5.9468  -19.7505 N   0  0  0  0  0  0  0  0  0  0  0  0
   21.6438   -7.3211  -15.9211 C   0  0  0  0  0  0  0  0  0  0  0  0
   20.6702   -7.8009  -15.0777 O   0  0  0  0  0  0  0  0  0  0  0  0
   21.8916   -6.1050  -15.9504 O   0  0  0  0  0  0  0  0  0  0  0  0
  2  1  1  6
  2  3  1  0
  3  4  1  0
  4  8  1  0
  5  4  2  0
  5  6  1  0
  6  7  1  0
  8  7  2  0
  9 17  1  0
  9  2  1  0
 10  9  2  0
 11 12  1  0
 12 14  1  0
 13 12  2  0
 14 15  1  0
 16 15  1  1
 16 17  1  0
 18 16  1  0
 19 18  2  0
 20 18  1  0
 21 28  1  0
 21 20  1  0
 21 22  1  6
 22 23  1  0
 23 24  2  0
 24 25  1  0
 26 25  1  0
 27 23  1  0
 27 26  2  0
 28 29  1  0
 30 28  2  0
M  END
$$$$
