HQH.pdb
     RDKit          3D

 30 31  0  0  1  0  0  0  0  0999 V2000
   19.6777  -13.0451  -16.2000 N   0  0  0  0  0  0  0  0  0  0  0  0
   19.1068  -11.7152  -16.2854 C   0  0  1  0  0  0  0  0  0  0  0  0
   17.7170  -11.6601  -15.7305 C   0  0  0  0  0  0  0  0  0  0  0  0
   16.8340  -12.5276  -16.5392 C   0  0  0  0  0  0  0  0  0  0  0  0
   16.2475  -12.2205  -17.7357 C   0  0  0  0  0  0  0  0  0  0  0  0
   15.5125  -13.2591  -18.1650 N   0  0  0  0  0  0  0  0  0  0  0  0
   15.6399  -14.2169  -17.2351 C   0  0  0  0  0  0  0  0  0  0  0  0
   16.4420  -13.7972  -16.2299 N   0  0  0  0  0  0  0  0  0  0  0  0
   20.0260  -10.7717  -15.5649 C   0  0  0  0  0  0  0  0  0  0  0  0
   19.8088  -10.4391  -14.3755 O   0  0  0  0  0  0  0  0  0  0  0  0
   25.9581  -10.4220  -16.9208 N   0  0  0  0  0  0  0  0  0  0  0  0
   25.4017  -11.2015  -15.8837 C   0  0  0  0  0  0  0  0  0  0  0  0
   26.0395  -12.1770  -15.4395 O   0  0  0  0  0  0  0  0  0  0  0  0
   24.0771  -10.8526  -15.3410 C   0  0  0  0  0  0  0  0  0  0  0  0
   23.5025   -9.6498  -16.0603 C   0  0  0  0  0  0  0  0  0  0  0  0
   22.1165   -9.3366  -15.5648 C   0  0  2  0  0  0  0  0  0  0  0  0
   21.1717  -10.2182  -16.1908 N   0  0  0  0  0  0  0  0  0  0  0  0
   21.8429   -7.9101  -15.8359 C   0  0  0  0  0  0  0  0  0  0  0  0
   21.5894   -7.5760  -17.0215 O   0  0  0  0  0  0  0  0  0  0  0  0
   21.8487   -6.9046  -14.8511 N   0  0  0  0  0  0  0  0  0  0  0  0
   21.6093   -5.4949  -15.1127 C   0  0  1  0  0  0  0  0  0  0  0  0
   20.3151   -5.1666  -14.4024 C   0  0  0  0  0  0  0  0  0  0  0  0
   19.1057   -5.5505  -15.1271 C   0  0  0  0  0  0  0  0  0  0  0  0
   18.9799   -6.1355  -16.3643 C   0  0  0  0  0  0  0  0  0  0  0  0
   17.6741   -6.3163  -16.6642 N   0  0  0  0  0  0  0  0  0  0  0  0
   16.9741   -5.8416  -15.6081 C   0  0  0  0  0  0  0  0  0  0  0  0
   17.8424   -5.3793  -14.6804 N   0  0  0  0  0  0  0  0  0  0  0  0
   22.6686   -4.6368  -14.5631 C   0  0  0  0  0  0  0  0  0  0  0  0
   23.6649   -5.1958  -13.7986 O   0  0  0  0  0  0  0  0  0  0  0  0
   22.6703   -3.4151  -14.7833 O   0  0  0  0  0  0  0  0  0  0  0  0
  2  1  1  1
  2  3  1  0
  3  4  1  0
  4  8  1  0
  5  4  2  0
  5  6  1  0
  6  7  1  0
  8  7  2  0
  9 17  1  0
  9  2  1  0
 10  9  2  0
 11 12  1  0
 12 14  1  0
 13 12  2  0
 14 15  1  0
 16 15  1  6
 16 17  1  0
 18 16  1  0
 19 18  2  0
 20 18  1  0
 21 28  1  0
 21 20  1  0
 21 22  1  1
 22 23  1  0
 23 24  2  0
 24 25  1  0
 26 25  1  0
 27 23  1  0
 27 26  2  0
 28 29  1  0
 30 28  2  0
M  END
$$$$
