HQH.pdb
     RDKit          3D

 30 31  0  0  1  0  0  0  0  0999 V2000
   28.0629  -21.2142  -15.6912 N   0  0  0  0  0  0  0  0  0  0  0  0
   27.1086  -20.1587  -15.4141 C   0  0  1  0  0  0  0  0  0  0  0  0
   26.7050  -19.4219  -16.6538 C   0  0  0  0  0  0  0  0  0  0  0  0
   27.8837  -18.7263  -17.2135 C   0  0  0  0  0  0  0  0  0  0  0  0
   28.5576  -19.0393  -18.3615 C   0  0  0  0  0  0  0  0  0  0  0  0
   29.5765  -18.1835  -18.5418 N   0  0  0  0  0  0  0  0  0  0  0  0
   29.5394  -17.3342  -17.5046 C   0  0  0  0  0  0  0  0  0  0  0  0
   28.5148  -17.6424  -16.6768 N   0  0  0  0  0  0  0  0  0  0  0  0
   25.9237  -20.7764  -14.7294 C   0  0  0  0  0  0  0  0  0  0  0  0
   25.1646  -21.5672  -15.3383 O   0  0  0  0  0  0  0  0  0  0  0  0
   25.1483  -20.2831   -8.5578 N   0  0  0  0  0  0  0  0  0  0  0  0
   26.2468  -20.7416   -9.3168 C   0  0  0  0  0  0  0  0  0  0  0  0
   27.3644  -20.8510   -8.7742 O   0  0  0  0  0  0  0  0  0  0  0  0
   26.0581  -21.0840  -10.7374 C   0  0  0  0  0  0  0  0  0  0  0  0
   24.6509  -20.7502  -11.1873 C   0  0  0  0  0  0  0  0  0  0  0  0
   24.4789  -21.0126  -12.6591 C   0  0  2  0  0  0  0  0  0  0  0  0
   25.6115  -20.4962  -13.3749 N   0  0  0  0  0  0  0  0  0  0  0  0
   23.2003  -20.4083  -13.0874 C   0  0  0  0  0  0  0  0  0  0  0  0
   23.1516  -19.1568  -13.2012 O   0  0  0  0  0  0  0  0  0  0  0  0
   22.0365  -21.1455  -13.3750 N   0  0  0  0  0  0  0  0  0  0  0  0
   20.7504  -20.5561  -13.7094 C   0  0  1  0  0  0  0  0  0  0  0  0
   20.2577  -21.3213  -14.9173 C   0  0  0  0  0  0  0  0  0  0  0  0
   20.9100  -20.9642  -16.1751 C   0  0  0  0  0  0  0  0  0  0  0  0
   21.8229  -19.9693  -16.4315 C   0  0  0  0  0  0  0  0  0  0  0  0
   22.1693  -19.9796  -17.7382 N   0  0  0  0  0  0  0  0  0  0  0  0
   21.4693  -20.9879  -18.3073 C   0  0  0  0  0  0  0  0  0  0  0  0
   20.7088  -21.5812  -17.3597 N   0  0  0  0  0  0  0  0  0  0  0  0
   19.7659  -20.7134  -12.6295 C   0  0  0  0  0  0  0  0  0  0  0  0
   18.5450  -20.0897  -12.7295 O   0  0  0  0  0  0  0  0  0  0  0  0
   20.0275  -21.4030  -11.6311 O   0  0  0  0  0  0  0  0  0  0  0  0
  2  1  1  6
  2  3  1  0
  3  4  1  0
  4  8  1  0
  5  4  2  0
  5  6  1  0
  6  7  1  0
  8  7  2  0
  9 17  1  0
  9  2  1  0
 10  9  2  0
 11 12  1  0
 12 14  1  0
 13 12  2  0
 14 15  1  0
 16 15  1  1
 16 17  1  0
 18 16  1  0
 19 18  2  0
 20 18  1  0
 21 28  1  0
 21 20  1  0
 21 22  1  6
 22 23  1  0
 23 24  2  0
 24 25  1  0
 26 25  1  0
 27 23  1  0
 27 26  2  0
 28 29  1  0
 30 28  2  0
M  END
$$$$
