HQH.pdb
     RDKit          3D

 30 31  0  0  1  0  0  0  0  0999 V2000
   26.0886  -20.8592  -18.4424 N   0  0  0  0  0  0  0  0  0  0  0  0
   25.7660  -19.8452  -17.4578 C   0  0  1  0  0  0  0  0  0  0  0  0
   24.9373  -18.7398  -18.0356 C   0  0  0  0  0  0  0  0  0  0  0  0
   25.8105  -17.8239  -18.8006 C   0  0  0  0  0  0  0  0  0  0  0  0
   27.0773  -18.0757  -19.2496 C   0  0  0  0  0  0  0  0  0  0  0  0
   27.5533  -17.0029  -19.9021 N   0  0  0  0  0  0  0  0  0  0  0  0
   26.5822  -16.0790  -19.8606 C   0  0  0  0  0  0  0  0  0  0  0  0
   25.5053  -16.5536  -19.1935 N   0  0  0  0  0  0  0  0  0  0  0  0
   25.0653  -20.5196  -16.3139 C   0  0  0  0  0  0  0  0  0  0  0  0
   24.2375  -21.4398  -16.5146 O   0  0  0  0  0  0  0  0  0  0  0  0
   27.0187  -20.9784  -10.4105 N   0  0  0  0  0  0  0  0  0  0  0  0
   25.6789  -21.4048  -10.2843 C   0  0  0  0  0  0  0  0  0  0  0  0
   25.2776  -21.8520   -9.1914 O   0  0  0  0  0  0  0  0  0  0  0  0
   24.7742  -21.3157  -11.4439 C   0  0  0  0  0  0  0  0  0  0  0  0
   25.5052  -20.7727  -12.6542 C   0  0  0  0  0  0  0  0  0  0  0  0
   24.5748  -20.6342  -13.8289 C   0  0  2  0  0  0  0  0  0  0  0  0
   25.3054  -20.1500  -14.9661 N   0  0  0  0  0  0  0  0  0  0  0  0
   23.4645  -19.7431  -13.4332 C   0  0  0  0  0  0  0  0  0  0  0  0
   23.6826  -18.5046  -13.4185 O   0  0  0  0  0  0  0  0  0  0  0  0
   22.1810  -20.1940  -13.0727 N   0  0  0  0  0  0  0  0  0  0  0  0
   20.9389  -19.6152  -13.5576 C   0  0  1  0  0  0  0  0  0  0  0  0
   21.1017  -19.5089  -15.0574 C   0  0  0  0  0  0  0  0  0  0  0  0
   19.9404  -18.9697  -15.7617 C   0  0  0  0  0  0  0  0  0  0  0  0
   18.7199  -18.5835  -15.2615 C   0  0  0  0  0  0  0  0  0  0  0  0
   17.9233  -18.1454  -16.2621 N   0  0  0  0  0  0  0  0  0  0  0  0
   18.6480  -18.2570  -17.3992 C   0  0  0  0  0  0  0  0  0  0  0  0
   19.8670  -18.7557  -17.0934 N   0  0  0  0  0  0  0  0  0  0  0  0
   19.7770  -20.4711  -13.2784 C   0  0  0  0  0  0  0  0  0  0  0  0
   18.6715  -19.9334  -12.6634 O   0  0  0  0  0  0  0  0  0  0  0  0
   19.7865  -21.6719  -13.5927 O   0  0  0  0  0  0  0  0  0  0  0  0
  2  1  1  6
  2  3  1  0
  3  4  1  0
  4  8  1  0
  5  4  2  0
  5  6  1  0
  6  7  1  0
  8  7  2  0
  9 17  1  0
  9  2  1  0
 10  9  2  0
 11 12  1  0
 12 14  1  0
 13 12  2  0
 14 15  1  0
 16 15  1  1
 16 17  1  0
 18 16  1  0
 19 18  2  0
 20 18  1  0
 21 28  1  0
 21 20  1  0
 21 22  1  6
 22 23  1  0
 23 24  2  0
 24 25  1  0
 26 25  1  0
 27 23  1  0
 27 26  2  0
 28 29  1  0
 30 28  2  0
M  END
$$$$
