HQH.pdb
     RDKit          3D

 30 31  0  0  1  0  0  0  0  0999 V2000
   24.1383  -14.9153  -17.8697 N   0  0  0  0  0  0  0  0  0  0  0  0
   24.2046  -14.0320  -16.7221 C   0  0  1  0  0  0  0  0  0  0  0  0
   25.6076  -13.6068  -16.4166 C   0  0  0  0  0  0  0  0  0  0  0  0
   26.4323  -14.8038  -16.1461 C   0  0  0  0  0  0  0  0  0  0  0  0
   26.2901  -15.6864  -15.1113 C   0  0  0  0  0  0  0  0  0  0  0  0
   27.2267  -16.6451  -15.1955 N   0  0  0  0  0  0  0  0  0  0  0  0
   27.9555  -16.3610  -16.2847 C   0  0  0  0  0  0  0  0  0  0  0  0
   27.4924  -15.2408  -16.8854 N   0  0  0  0  0  0  0  0  0  0  0  0
   23.3181  -12.8518  -16.9967 C   0  0  0  0  0  0  0  0  0  0  0  0
   23.5406  -12.0873  -17.9655 O   0  0  0  0  0  0  0  0  0  0  0  0
   17.3968  -12.4957  -15.0116 N   0  0  0  0  0  0  0  0  0  0  0  0
   17.4990  -11.3576  -15.8407 C   0  0  0  0  0  0  0  0  0  0  0  0
   16.4762  -10.6917  -16.0973 O   0  0  0  0  0  0  0  0  0  0  0  0
   18.8107  -10.9728  -16.3906 C   0  0  0  0  0  0  0  0  0  0  0  0
   19.8812  -11.9547  -15.9617 C   0  0  0  0  0  0  0  0  0  0  0  0
   21.2394  -11.5126  -16.4355 C   0  0  2  0  0  0  0  0  0  0  0  0
   22.1986  -12.5501  -16.1802 N   0  0  0  0  0  0  0  0  0  0  0  0
   21.5703  -10.2408  -15.7598 C   0  0  0  0  0  0  0  0  0  0  0  0
   22.0580  -10.3008  -14.6022 O   0  0  0  0  0  0  0  0  0  0  0  0
   21.3738   -8.9696  -16.3308 N   0  0  0  0  0  0  0  0  0  0  0  0
   21.7126   -7.7141  -15.6811 C   0  0  1  0  0  0  0  0  0  0  0  0
   21.3293   -6.6332  -16.6670 C   0  0  0  0  0  0  0  0  0  0  0  0
   21.7362   -5.2833  -16.2830 C   0  0  0  0  0  0  0  0  0  0  0  0
   21.9713   -4.7671  -15.0311 C   0  0  0  0  0  0  0  0  0  0  0  0
   22.3236   -3.4650  -15.1221 N   0  0  0  0  0  0  0  0  0  0  0  0
   22.3097   -3.1606  -16.4404 C   0  0  0  0  0  0  0  0  0  0  0  0
   21.9542   -4.2619  -17.1396 N   0  0  0  0  0  0  0  0  0  0  0  0
   20.9496   -7.5019  -14.4429 C   0  0  0  0  0  0  0  0  0  0  0  0
   21.5421   -6.8558  -13.3842 O   0  0  0  0  0  0  0  0  0  0  0  0
   19.7779   -7.9004  -14.3463 O   0  0  0  0  0  0  0  0  0  0  0  0
  2  1  1  6
  2  3  1  0
  3  4  1  0
  4  8  1  0
  5  4  2  0
  5  6  1  0
  6  7  1  0
  8  7  2  0
  9 17  1  0
  9  2  1  0
 10  9  2  0
 11 12  1  0
 12 14  1  0
 13 12  2  0
 14 15  1  0
 16 15  1  1
 16 17  1  0
 18 16  1  0
 19 18  2  0
 20 18  1  0
 21 28  1  0
 21 20  1  0
 21 22  1  6
 22 23  1  0
 23 24  2  0
 24 25  1  0
 26 25  1  0
 27 23  1  0
 27 26  2  0
 28 29  1  0
 30 28  2  0
M  END
$$$$
