HQH.pdb
     RDKit          3D

 30 31  0  0  1  0  0  0  0  0999 V2000
   23.5379  -13.9799  -20.3138 N   0  0  0  0  0  0  0  0  0  0  0  0
   24.1840  -12.8503  -19.6748 C   0  0  1  0  0  0  0  0  0  0  0  0
   25.2803  -12.2754  -20.5174 C   0  0  0  0  0  0  0  0  0  0  0  0
   26.3118  -13.3094  -20.7480 C   0  0  0  0  0  0  0  0  0  0  0  0
   27.2001  -13.8060  -19.8347 C   0  0  0  0  0  0  0  0  0  0  0  0
   27.9839  -14.7297  -20.4140 N   0  0  0  0  0  0  0  0  0  0  0  0
   27.5847  -14.8105  -21.6916 C   0  0  0  0  0  0  0  0  0  0  0  0
   26.5641  -13.9535  -21.9239 N   0  0  0  0  0  0  0  0  0  0  0  0
   23.1284  -11.8270  -19.3701 C   0  0  0  0  0  0  0  0  0  0  0  0
   22.7538  -11.0054  -20.2402 O   0  0  0  0  0  0  0  0  0  0  0  0
   18.3352  -12.8655  -15.7615 N   0  0  0  0  0  0  0  0  0  0  0  0
   18.5098  -13.1436  -17.1345 C   0  0  0  0  0  0  0  0  0  0  0  0
   17.7615  -13.9703  -17.6930 O   0  0  0  0  0  0  0  0  0  0  0  0
   19.5722  -12.4545  -17.8877 C   0  0  0  0  0  0  0  0  0  0  0  0
   20.3961  -11.5749  -16.9702 C   0  0  0  0  0  0  0  0  0  0  0  0
   21.4571  -10.8365  -17.7406 C   0  0  2  0  0  0  0  0  0  0  0  0
   22.5120  -11.7436  -18.0957 N   0  0  0  0  0  0  0  0  0  0  0  0
   21.9226   -9.7047  -16.9126 C   0  0  0  0  0  0  0  0  0  0  0  0
   22.7361   -9.9512  -15.9857 O   0  0  0  0  0  0  0  0  0  0  0  0
   21.5126   -8.3711  -17.0970 N   0  0  0  0  0  0  0  0  0  0  0  0
   21.8854   -7.2675  -16.2273 C   0  0  1  0  0  0  0  0  0  0  0  0
   21.2844   -6.0331  -16.8614 C   0  0  0  0  0  0  0  0  0  0  0  0
   21.5177   -4.7925  -16.1254 C   0  0  0  0  0  0  0  0  0  0  0  0
   22.5870   -4.4329  -15.3405 C   0  0  0  0  0  0  0  0  0  0  0  0
   22.3994   -3.1926  -14.8365 N   0  0  0  0  0  0  0  0  0  0  0  0
   21.2038   -2.7695  -15.3079 C   0  0  0  0  0  0  0  0  0  0  0  0
   20.6732   -3.7390  -16.0868 N   0  0  0  0  0  0  0  0  0  0  0  0
   21.3288   -7.4097  -14.8744 C   0  0  0  0  0  0  0  0  0  0  0  0
   22.0953   -7.0646  -13.7867 O   0  0  0  0  0  0  0  0  0  0  0  0
   20.1757   -7.8376  -14.7070 O   0  0  0  0  0  0  0  0  0  0  0  0
  2  1  1  6
  2  3  1  0
  3  4  1  0
  4  8  1  0
  5  4  2  0
  5  6  1  0
  6  7  1  0
  8  7  2  0
  9 17  1  0
  9  2  1  0
 10  9  2  0
 11 12  1  0
 12 14  1  0
 13 12  2  0
 14 15  1  0
 16 15  1  1
 16 17  1  0
 18 16  1  0
 19 18  2  0
 20 18  1  0
 21 28  1  0
 21 20  1  0
 21 22  1  6
 22 23  1  0
 23 24  2  0
 24 25  1  0
 26 25  1  0
 27 23  1  0
 27 26  2  0
 28 29  1  0
 30 28  2  0
M  END
$$$$
