HQH.pdb
     RDKit          3D

 30 31  0  0  1  0  0  0  0  0999 V2000
   23.9708  -14.5194  -18.6839 N   0  0  0  0  0  0  0  0  0  0  0  0
   24.3019  -13.4994  -17.7085 C   0  0  1  0  0  0  0  0  0  0  0  0
   25.7046  -12.9996  -17.8672 C   0  0  0  0  0  0  0  0  0  0  0  0
   26.6502  -14.0927  -17.5550 C   0  0  0  0  0  0  0  0  0  0  0  0
   27.3303  -14.8745  -18.4473 C   0  0  0  0  0  0  0  0  0  0  0  0
   28.0926  -15.7628  -17.7892 N   0  0  0  0  0  0  0  0  0  0  0  0
   27.8885  -15.5357  -16.4834 C   0  0  0  0  0  0  0  0  0  0  0  0
   27.0114  -14.5203  -16.3109 N   0  0  0  0  0  0  0  0  0  0  0  0
   23.3018  -12.3880  -17.8459 C   0  0  0  0  0  0  0  0  0  0  0  0
   23.1507  -11.7848  -18.9349 O   0  0  0  0  0  0  0  0  0  0  0  0
   17.7964  -12.5368  -15.3313 N   0  0  0  0  0  0  0  0  0  0  0  0
   17.7709  -11.2277  -15.8589 C   0  0  0  0  0  0  0  0  0  0  0  0
   16.6952  -10.5971  -15.8840 O   0  0  0  0  0  0  0  0  0  0  0  0
   19.0137  -10.6252  -16.3721 C   0  0  0  0  0  0  0  0  0  0  0  0
   20.1598  -11.6125  -16.2960 C   0  0  0  0  0  0  0  0  0  0  0  0
   21.4279  -11.0094  -16.8373 C   0  0  2  0  0  0  0  0  0  0  0  0
   22.4894  -11.9732  -16.7602 N   0  0  0  0  0  0  0  0  0  0  0  0
   21.7115   -9.7753  -16.0757 C   0  0  0  0  0  0  0  0  0  0  0  0
   22.1736   -9.8966  -14.9124 O   0  0  0  0  0  0  0  0  0  0  0  0
   21.4968   -8.4756  -16.5711 N   0  0  0  0  0  0  0  0  0  0  0  0
   21.5977   -7.2639  -15.7743 C   0  0  1  0  0  0  0  0  0  0  0  0
   21.1478   -6.1434  -16.6849 C   0  0  0  0  0  0  0  0  0  0  0  0
   21.2124   -4.8098  -16.0912 C   0  0  0  0  0  0  0  0  0  0  0  0
   20.5774   -4.3214  -14.9745 C   0  0  0  0  0  0  0  0  0  0  0  0
   20.9101   -3.0259  -14.7779 N   0  0  0  0  0  0  0  0  0  0  0  0
   21.7602   -2.6976  -15.7780 C   0  0  0  0  0  0  0  0  0  0  0  0
   21.9410   -3.7782  -16.5703 N   0  0  0  0  0  0  0  0  0  0  0  0
   20.7116   -7.2907  -14.6019 C   0  0  0  0  0  0  0  0  0  0  0  0
   21.1474   -6.7605  -13.4109 O   0  0  0  0  0  0  0  0  0  0  0  0
   19.5763   -7.7868  -14.6789 O   0  0  0  0  0  0  0  0  0  0  0  0
  2  1  1  6
  2  3  1  0
  3  4  1  0
  4  8  1  0
  5  4  2  0
  5  6  1  0
  6  7  1  0
  8  7  2  0
  9 17  1  0
  9  2  1  0
 10  9  2  0
 11 12  1  0
 12 14  1  0
 13 12  2  0
 14 15  1  0
 16 15  1  1
 16 17  1  0
 18 16  1  0
 19 18  2  0
 20 18  1  0
 21 28  1  0
 21 20  1  0
 21 22  1  6
 22 23  1  0
 23 24  2  0
 24 25  1  0
 26 25  1  0
 27 23  1  0
 27 26  2  0
 28 29  1  0
 30 28  2  0
M  END
$$$$
