HQH.pdb
     RDKit          3D

 30 31  0  0  1  0  0  0  0  0999 V2000
   24.5928  -12.9189  -17.4781 N   0  0  0  0  0  0  0  0  0  0  0  0
   24.5665  -11.9160  -16.4317 C   0  0  1  0  0  0  0  0  0  0  0  0
   25.8261  -11.1070  -16.3924 C   0  0  0  0  0  0  0  0  0  0  0  0
   26.9666  -11.9947  -16.0798 C   0  0  0  0  0  0  0  0  0  0  0  0
   28.1536  -12.0803  -16.7533 C   0  0  0  0  0  0  0  0  0  0  0  0
   28.9417  -13.0018  -16.1763 N   0  0  0  0  0  0  0  0  0  0  0  0
   28.2460  -13.4930  -15.1405 C   0  0  0  0  0  0  0  0  0  0  0  0
   27.0351  -12.8956  -15.0576 N   0  0  0  0  0  0  0  0  0  0  0  0
   23.3611  -11.0490  -16.6540 C   0  0  0  0  0  0  0  0  0  0  0  0
   23.1345  -10.5311  -17.7734 O   0  0  0  0  0  0  0  0  0  0  0  0
   17.7637  -11.8871  -14.4500 N   0  0  0  0  0  0  0  0  0  0  0  0
   17.6062  -10.6332  -15.0793 C   0  0  0  0  0  0  0  0  0  0  0  0
   16.4597  -10.1751  -15.2558 O   0  0  0  0  0  0  0  0  0  0  0  0
   18.7966   -9.8842  -15.5182 C   0  0  0  0  0  0  0  0  0  0  0  0
   20.0578  -10.6825  -15.2607 C   0  0  0  0  0  0  0  0  0  0  0  0
   21.2748   -9.9367  -15.7377 C   0  0  2  0  0  0  0  0  0  0  0  0
   22.4319  -10.7784  -15.6176 N   0  0  0  0  0  0  0  0  0  0  0  0
   21.3848   -8.6882  -14.9551 C   0  0  0  0  0  0  0  0  0  0  0  0
   22.3090   -8.6071  -14.1062 O   0  0  0  0  0  0  0  0  0  0  0  0
   20.5207   -7.5868  -15.1011 N   0  0  0  0  0  0  0  0  0  0  0  0
   20.8971   -6.2060  -14.8464 C   0  0  1  0  0  0  0  0  0  0  0  0
   22.0511   -5.9231  -15.7821 C   0  0  0  0  0  0  0  0  0  0  0  0
   22.5758   -4.5612  -15.7113 C   0  0  0  0  0  0  0  0  0  0  0  0
   22.6170   -3.6977  -14.6428 C   0  0  0  0  0  0  0  0  0  0  0  0
   23.1831   -2.5265  -15.0111 N   0  0  0  0  0  0  0  0  0  0  0  0
   23.4999   -2.6547  -16.3203 C   0  0  0  0  0  0  0  0  0  0  0  0
   23.1315   -3.8859  -16.7407 N   0  0  0  0  0  0  0  0  0  0  0  0
   19.8110   -5.2649  -15.1546 C   0  0  0  0  0  0  0  0  0  0  0  0
   19.6407   -4.1472  -14.3727 O   0  0  0  0  0  0  0  0  0  0  0  0
   19.0488   -5.4709  -16.1125 O   0  0  0  0  0  0  0  0  0  0  0  0
  2  1  1  6
  2  3  1  0
  3  4  1  0
  4  8  1  0
  5  4  2  0
  5  6  1  0
  6  7  1  0
  8  7  2  0
  9 17  1  0
  9  2  1  0
 10  9  2  0
 11 12  1  0
 12 14  1  0
 13 12  2  0
 14 15  1  0
 16 15  1  1
 16 17  1  0
 18 16  1  0
 19 18  2  0
 20 18  1  0
 21 28  1  0
 21 20  1  0
 21 22  1  6
 22 23  1  0
 23 24  2  0
 24 25  1  0
 26 25  1  0
 27 23  1  0
 27 26  2  0
 28 29  1  0
 30 28  2  0
M  END
$$$$
