HQH.pdb
     RDKit          3D

 30 31  0  0  1  0  0  0  0  0999 V2000
   16.2978  -13.5493  -17.6054 N   0  0  0  0  0  0  0  0  0  0  0  0
   17.0914  -13.1636  -16.4551 C   0  0  1  0  0  0  0  0  0  0  0  0
   17.9505  -14.2855  -15.9593 C   0  0  0  0  0  0  0  0  0  0  0  0
   17.0872  -15.3793  -15.4649 C   0  0  0  0  0  0  0  0  0  0  0  0
   16.8790  -16.5958  -16.0538 C   0  0  0  0  0  0  0  0  0  0  0  0
   16.0279  -17.3234  -15.3127 N   0  0  0  0  0  0  0  0  0  0  0  0
   15.7035  -16.5603  -14.2588 C   0  0  0  0  0  0  0  0  0  0  0  0
   16.3364  -15.3666  -14.3259 N   0  0  0  0  0  0  0  0  0  0  0  0
   17.9140  -11.9686  -16.8421 C   0  0  0  0  0  0  0  0  0  0  0  0
   18.5031  -11.9197  -17.9480 O   0  0  0  0  0  0  0  0  0  0  0  0
   17.0507   -6.1340  -14.9299 N   0  0  0  0  0  0  0  0  0  0  0  0
   18.3026   -6.0129  -15.5711 C   0  0  0  0  0  0  0  0  0  0  0  0
   18.8167   -4.8845  -15.7051 O   0  0  0  0  0  0  0  0  0  0  0  0
   18.9837   -7.2194  -16.0723 C   0  0  0  0  0  0  0  0  0  0  0  0
   18.1794   -8.4620  -15.7512 C   0  0  0  0  0  0  0  0  0  0  0  0
   18.8768   -9.6993  -16.2486 C   0  0  2  0  0  0  0  0  0  0  0  0
   18.0611  -10.8506  -15.9824 N   0  0  0  0  0  0  0  0  0  0  0  0
   20.2040   -9.7698  -15.6029 C   0  0  0  0  0  0  0  0  0  0  0  0
   20.2459  -10.0405  -14.3755 O   0  0  0  0  0  0  0  0  0  0  0  0
   21.4211   -9.5531  -16.2755 N   0  0  0  0  0  0  0  0  0  0  0  0
   22.7332   -9.6665  -15.6600 C   0  0  1  0  0  0  0  0  0  0  0  0
   23.6025  -10.3566  -16.6872 C   0  0  0  0  0  0  0  0  0  0  0  0
   24.9670  -10.6357  -16.2450 C   0  0  0  0  0  0  0  0  0  0  0  0
   25.4946  -10.6079  -14.9763 C   0  0  0  0  0  0  0  0  0  0  0  0
   26.8080  -10.9266  -15.0103 N   0  0  0  0  0  0  0  0  0  0  0  0
   27.1081  -11.1562  -16.3094 C   0  0  0  0  0  0  0  0  0  0  0  0
   25.9930  -10.9795  -17.0534 N   0  0  0  0  0  0  0  0  0  0  0  0
   23.3249   -8.3549  -15.3600 C   0  0  0  0  0  0  0  0  0  0  0  0
   24.2170   -8.2357  -14.3210 O   0  0  0  0  0  0  0  0  0  0  0  0
   23.0263   -7.3573  -16.0356 O   0  0  0  0  0  0  0  0  0  0  0  0
  2  1  1  6
  2  3  1  0
  3  4  1  0
  4  8  1  0
  5  4  2  0
  5  6  1  0
  6  7  1  0
  8  7  2  0
  9 17  1  0
  9  2  1  0
 10  9  2  0
 11 12  1  0
 12 14  1  0
 13 12  2  0
 14 15  1  0
 16 15  1  1
 16 17  1  0
 18 16  1  0
 19 18  2  0
 20 18  1  0
 21 28  1  0
 21 20  1  0
 21 22  1  6
 22 23  1  0
 23 24  2  0
 24 25  1  0
 26 25  1  0
 27 23  1  0
 27 26  2  0
 28 29  1  0
 30 28  2  0
M  END
$$$$
