HQH.pdb
     RDKit          3D

 30 31  0  0  1  0  0  0  0  0999 V2000
   33.5619  -35.2997   -3.1290 N   0  0  0  0  0  0  0  0  0  0  0  0
   33.2710  -35.0082   -1.7391 C   0  0  1  0  0  0  0  0  0  0  0  0
   34.2106  -33.9927   -1.1659 C   0  0  0  0  0  0  0  0  0  0  0  0
   35.5647  -34.5791   -1.0720 C   0  0  0  0  0  0  0  0  0  0  0  0
   35.9248  -35.8700   -1.3437 C   0  0  0  0  0  0  0  0  0  0  0  0
   37.2426  -36.0299   -1.1411 N   0  0  0  0  0  0  0  0  0  0  0  0
   37.7068  -34.8368   -0.7420 C   0  0  0  0  0  0  0  0  0  0  0  0
   36.7032  -33.9312   -0.6908 N   0  0  0  0  0  0  0  0  0  0  0  0
   31.8439  -34.5494   -1.6529 C   0  0  0  0  0  0  0  0  0  0  0  0
   31.2976  -33.9524   -2.6108 O   0  0  0  0  0  0  0  0  0  0  0  0
   27.8672  -33.7995   -3.4345 N   0  0  0  0  0  0  0  0  0  0  0  0
   26.9379  -34.0558   -2.4032 C   0  0  0  0  0  0  0  0  0  0  0  0
   25.7586  -33.6701   -2.5301 O   0  0  0  0  0  0  0  0  0  0  0  0
   27.3732  -34.7743   -1.1928 C   0  0  0  0  0  0  0  0  0  0  0  0
   28.8296  -35.1758   -1.3019 C   0  0  0  0  0  0  0  0  0  0  0  0
   29.6795  -34.3880   -0.3420 C   0  0  2  0  0  0  0  0  0  0  0  0
   31.0556  -34.7684   -0.4948 N   0  0  0  0  0  0  0  0  0  0  0  0
   29.1646  -34.6185    1.0237 C   0  0  0  0  0  0  0  0  0  0  0  0
   29.2346  -35.7850    1.4882 O   0  0  0  0  0  0  0  0  0  0  0  0
   28.6018  -33.6151    1.8345 N   0  0  0  0  0  0  0  0  0  0  0  0
   28.0924  -33.8324    3.1785 C   0  0  1  0  0  0  0  0  0  0  0  0
   28.1416  -32.4794    3.8524 C   0  0  0  0  0  0  0  0  0  0  0  0
   29.4587  -32.0941    4.3545 C   0  0  0  0  0  0  0  0  0  0  0  0
   30.7026  -32.5199    3.9541 C   0  0  0  0  0  0  0  0  0  0  0  0
   31.6619  -31.9144    4.6894 N   0  0  0  0  0  0  0  0  0  0  0  0
   31.0166  -31.1024    5.5583 C   0  0  0  0  0  0  0  0  0  0  0  0
   29.6847  -31.2133    5.3533 N   0  0  0  0  0  0  0  0  0  0  0  0
   26.6984  -34.2985    3.1792 C   0  0  0  0  0  0  0  0  0  0  0  0
   26.0744  -34.5675    4.3741 O   0  0  0  0  0  0  0  0  0  0  0  0
   26.0822  -34.4505    2.1123 O   0  0  0  0  0  0  0  0  0  0  0  0
  2  1  1  6
  2  3  1  0
  3  4  1  0
  4  8  1  0
  5  4  2  0
  5  6  1  0
  6  7  1  0
  8  7  2  0
  9 17  1  0
  9  2  1  0
 10  9  2  0
 11 12  1  0
 12 14  1  0
 13 12  2  0
 14 15  1  0
 16 15  1  6
 16 17  1  0
 18 16  1  0
 19 18  2  0
 20 18  1  0
 21 28  1  0
 21 20  1  0
 21 22  1  1
 22 23  1  0
 23 24  2  0
 24 25  1  0
 26 25  1  0
 27 23  1  0
 27 26  2  0
 28 29  1  0
 30 28  2  0
M  END
$$$$
