AET.pdb
     RDKit          3D

 22 21  0  0  1  0  0  0  0  0999 V2000
   18.4793  -12.4203  -15.4626 C   0  0  0  0  0  0  0  0  0  0  0  0
   18.0395  -11.2412  -16.3056 C   0  0  2  0  0  0  0  0  0  0  0  0
   18.8792  -11.1033  -17.4724 N   0  0  0  0  0  0  0  0  0  0  0  0
   18.1715  -10.0274  -15.4139 C   0  0  0  0  0  0  0  0  0  0  0  0
   17.4833   -9.9870  -14.3714 O   0  0  0  0  0  0  0  0  0  0  0  0
   19.0437   -8.9743  -15.7484 N   0  0  0  0  0  0  0  0  0  0  0  0
   19.2249   -7.7274  -15.0991 C   0  0  1  0  0  0  0  0  0  0  0  0
   20.6769   -7.2859  -14.9046 C   0  0  0  0  0  0  0  0  0  0  0  0
   20.7037   -6.0278  -14.0741 C   0  0  0  0  0  0  0  0  0  0  0  0
   22.1059   -5.5623  -13.8833 C   0  0  0  0  0  0  0  0  0  0  0  0
   22.3583   -4.5529  -13.1790 O   0  0  0  0  0  0  0  0  0  0  0  0
   18.4237   -6.6207  -15.5864 C   0  0  0  0  0  0  0  0  0  0  0  0
   18.6642   -6.1227  -16.7282 O   0  0  0  0  0  0  0  0  0  0  0  0
   23.1230   -6.2482  -14.4854 O   0  0  0  0  0  0  0  0  0  0  0  0
   14.8391   -6.7041  -16.1196 C   0  0  0  0  0  0  0  0  0  0  0  0
   15.0855   -5.4535  -15.2999 C   0  0  1  0  0  0  0  0  0  0  0  0
   14.8650   -5.7430  -13.9421 O   0  0  0  0  0  0  0  0  0  0  0  0
   16.5200   -5.0463  -15.4961 C   0  0  2  0  0  0  0  0  0  0  0  0
   17.3630   -6.0525  -14.8423 N   0  0  0  0  0  0  0  0  0  0  0  0
   16.7790   -3.6980  -14.8975 C   0  0  0  0  0  0  0  0  0  0  0  0
   17.6224   -3.5474  -13.8102 O   0  0  0  0  0  0  0  0  0  0  0  0
   16.2353   -2.6678  -15.3697 O   0  0  0  0  0  0  0  0  0  0  0  0
  2  4  1  0
  2  1  1  1
  3  2  1  0
  4  6  1  0
  5  4  2  0
  6  7  1  0
  7 12  1  0
  8  9  1  0
  7  8  1  6
 10 14  1  0
 10  9  1  0
 11 10  2  0
 12 13  2  0
 12 19  1  0
 16 15  1  6
 17 16  1  0
 18 16  1  0
 18 20  1  0
 18 19  1  1
 20 21  1  0
 22 20  2  0
M  END
$$$$
