AET.pdb
     RDKit          3D

 22 21  0  0  1  0  0  0  0  0999 V2000
   17.9944  -12.2997  -18.2799 C   0  0  0  0  0  0  0  0  0  0  0  0
   18.8623  -11.1790  -18.8139 C   0  0  2  0  0  0  0  0  0  0  0  0
   20.2429  -11.5945  -18.8966 N   0  0  0  0  0  0  0  0  0  0  0  0
   18.7120  -10.0399  -17.8312 C   0  0  0  0  0  0  0  0  0  0  0  0
   17.7354  -10.0620  -17.0515 O   0  0  0  0  0  0  0  0  0  0  0  0
   19.6444   -8.9859  -17.7960 N   0  0  0  0  0  0  0  0  0  0  0  0
   19.6613   -7.8390  -16.9631 C   0  0  1  0  0  0  0  0  0  0  0  0
   20.7228   -7.8354  -15.8611 C   0  0  0  0  0  0  0  0  0  0  0  0
   20.2855   -8.7569  -14.7509 C   0  0  0  0  0  0  0  0  0  0  0  0
   21.3116   -8.7916  -13.6714 C   0  0  0  0  0  0  0  0  0  0  0  0
   22.4842   -9.1743  -13.9106 O   0  0  0  0  0  0  0  0  0  0  0  0
   19.6262   -6.5522  -17.6317 C   0  0  0  0  0  0  0  0  0  0  0  0
   20.5402   -6.2445  -18.4559 O   0  0  0  0  0  0  0  0  0  0  0  0
   20.9637   -8.4002  -12.4091 O   0  0  0  0  0  0  0  0  0  0  0  0
   16.7151   -5.0347  -19.5321 C   0  0  0  0  0  0  0  0  0  0  0  0
   17.2212   -4.0006  -18.5465 C   0  0  1  0  0  0  0  0  0  0  0  0
   16.4250   -4.0407  -17.3887 O   0  0  0  0  0  0  0  0  0  0  0  0
   18.6384   -4.3558  -18.1894 C   0  0  2  0  0  0  0  0  0  0  0  0
   18.6046   -5.5984  -17.4115 N   0  0  0  0  0  0  0  0  0  0  0  0
   19.2745   -3.2665  -17.3819 C   0  0  0  0  0  0  0  0  0  0  0  0
   19.6515   -3.4772  -16.0667 O   0  0  0  0  0  0  0  0  0  0  0  0
   19.4821   -2.1316  -17.8806 O   0  0  0  0  0  0  0  0  0  0  0  0
  2  4  1  0
  2  1  1  1
  3  2  1  0
  4  6  1  0
  5  4  2  0
  6  7  1  0
  7 12  1  0
  8  9  1  0
  7  8  1  6
 10 14  1  0
 10  9  1  0
 11 10  2  0
 12 13  2  0
 12 19  1  0
 16 15  1  6
 17 16  1  0
 18 16  1  0
 18 20  1  0
 18 19  1  1
 20 21  1  0
 22 20  2  0
M  END
$$$$
