AET.pdb
     RDKit          3D

 22 21  0  0  1  0  0  0  0  0999 V2000
   20.8741  -12.7430  -16.3675 C   0  0  0  0  0  0  0  0  0  0  0  0
   20.0782  -11.6963  -17.1194 C   0  0  2  0  0  0  0  0  0  0  0  0
   20.7297  -11.3506  -18.3609 N   0  0  0  0  0  0  0  0  0  0  0  0
   20.0138  -10.4944  -16.2045 C   0  0  0  0  0  0  0  0  0  0  0  0
   19.3805  -10.6054  -15.1328 O   0  0  0  0  0  0  0  0  0  0  0  0
   20.6484   -9.2863  -16.5500 N   0  0  0  0  0  0  0  0  0  0  0  0
   20.6915   -8.0653  -15.8312 C   0  0  1  0  0  0  0  0  0  0  0  0
   22.0579   -7.3795  -15.7704 C   0  0  0  0  0  0  0  0  0  0  0  0
   21.9656   -6.1733  -14.8706 C   0  0  0  0  0  0  0  0  0  0  0  0
   23.3062   -5.5445  -14.7073 C   0  0  0  0  0  0  0  0  0  0  0  0
   24.3281   -6.0667  -15.2187 O   0  0  0  0  0  0  0  0  0  0  0  0
   19.6558   -7.0968  -16.1368 C   0  0  0  0  0  0  0  0  0  0  0  0
   19.5872   -6.5921  -17.2987 O   0  0  0  0  0  0  0  0  0  0  0  0
   23.4154   -4.3857  -13.9912 O   0  0  0  0  0  0  0  0  0  0  0  0
   15.3474   -5.0345  -15.2638 C   0  0  0  0  0  0  0  0  0  0  0  0
   16.3968   -6.0573  -14.8772 C   0  0  1  0  0  0  0  0  0  0  0  0
   15.9509   -7.3370  -15.2507 O   0  0  0  0  0  0  0  0  0  0  0  0
   17.6595   -5.7311  -15.6263 C   0  0  2  0  0  0  0  0  0  0  0  0
   18.6940   -6.6739  -15.1891 N   0  0  0  0  0  0  0  0  0  0  0  0
   18.0989   -4.3268  -15.3462 C   0  0  0  0  0  0  0  0  0  0  0  0
   18.7562   -4.0032  -14.1717 O   0  0  0  0  0  0  0  0  0  0  0  0
   17.8808   -3.4059  -16.1733 O   0  0  0  0  0  0  0  0  0  0  0  0
  2  4  1  0
  2  1  1  1
  3  2  1  0
  4  6  1  0
  5  4  2  0
  6  7  1  0
  7 12  1  0
  8  9  1  0
  7  8  1  6
 10 14  1  0
 10  9  1  0
 11 10  2  0
 12 13  2  0
 12 19  1  0
 16 15  1  6
 17 16  1  0
 18 16  1  0
 18 20  1  0
 18 19  1  1
 20 21  1  0
 22 20  2  0
M  END
$$$$
