AET.pdb
     RDKit          3D

 22 21  0  0  1  0  0  0  0  0999 V2000
   19.1773  -12.7055  -15.3812 C   0  0  0  0  0  0  0  0  0  0  0  0
   18.6977  -11.6649  -16.3720 C   0  0  2  0  0  0  0  0  0  0  0  0
   19.6399  -11.5167  -17.4563 N   0  0  0  0  0  0  0  0  0  0  0  0
   18.5852  -10.3755  -15.5905 C   0  0  0  0  0  0  0  0  0  0  0  0
   17.7756  -10.3342  -14.6393 O   0  0  0  0  0  0  0  0  0  0  0  0
   19.3690   -9.2551  -15.9250 N   0  0  0  0  0  0  0  0  0  0  0  0
   19.4306   -7.9894  -15.2899 C   0  0  1  0  0  0  0  0  0  0  0  0
   20.8315   -7.3951  -15.1302 C   0  0  0  0  0  0  0  0  0  0  0  0
   20.7400   -6.1237  -14.3250 C   0  0  0  0  0  0  0  0  0  0  0  0
   22.1019   -5.5937  -14.0362 C   0  0  0  0  0  0  0  0  0  0  0  0
   23.1254   -6.1795  -14.4698 O   0  0  0  0  0  0  0  0  0  0  0  0
   18.5071   -6.9786  -15.7688 C   0  0  0  0  0  0  0  0  0  0  0  0
   18.5290   -6.6316  -16.9889 O   0  0  0  0  0  0  0  0  0  0  0  0
   22.2293   -4.4559  -13.2900 O   0  0  0  0  0  0  0  0  0  0  0  0
   14.5861   -4.3346  -14.7236 C   0  0  0  0  0  0  0  0  0  0  0  0
   15.2611   -5.6614  -15.0078 C   0  0  1  0  0  0  0  0  0  0  0  0
   14.5217   -6.3539  -15.9823 O   0  0  0  0  0  0  0  0  0  0  0  0
   16.6394   -5.3757  -15.5375 C   0  0  2  0  0  0  0  0  0  0  0  0
   17.5598   -6.3432  -14.9316 N   0  0  0  0  0  0  0  0  0  0  0  0
   17.0657   -3.9820  -15.1923 C   0  0  0  0  0  0  0  0  0  0  0  0
   16.6988   -2.9050  -15.9809 O   0  0  0  0  0  0  0  0  0  0  0  0
   17.7688   -3.7561  -14.1752 O   0  0  0  0  0  0  0  0  0  0  0  0
  2  4  1  0
  2  1  1  1
  3  2  1  0
  4  6  1  0
  5  4  2  0
  6  7  1  0
  7 12  1  0
  8  9  1  0
  7  8  1  6
 10 14  1  0
 10  9  1  0
 11 10  2  0
 12 13  2  0
 12 19  1  0
 16 15  1  6
 17 16  1  0
 18 16  1  0
 18 20  1  0
 18 19  1  1
 20 21  1  0
 22 20  2  0
M  END
$$$$
