AET.pdb
     RDKit          3D

 22 21  0  0  1  0  0  0  0  0999 V2000
   23.3804  -12.8620  -19.7454 C   0  0  0  0  0  0  0  0  0  0  0  0
   22.4688  -13.2907  -18.6142 C   0  0  2  0  0  0  0  0  0  0  0  0
   21.7091  -14.4619  -18.9837 N   0  0  0  0  0  0  0  0  0  0  0  0
   21.5455  -12.1197  -18.3651 C   0  0  0  0  0  0  0  0  0  0  0  0
   20.9163  -11.6507  -19.3378 O   0  0  0  0  0  0  0  0  0  0  0  0
   21.3995  -11.5740  -17.0757 N   0  0  0  0  0  0  0  0  0  0  0  0
   20.5252  -10.5485  -16.6362 C   0  0  1  0  0  0  0  0  0  0  0  0
   19.3564  -11.0039  -15.7600 C   0  0  0  0  0  0  0  0  0  0  0  0
   18.4393   -9.8332  -15.5122 C   0  0  0  0  0  0  0  0  0  0  0  0
   17.2585  -10.2602  -14.7104 C   0  0  0  0  0  0  0  0  0  0  0  0
   16.3755  -11.0011  -15.2104 O   0  0  0  0  0  0  0  0  0  0  0  0
   21.1462   -9.3656  -16.0711 C   0  0  0  0  0  0  0  0  0  0  0  0
   22.1206   -9.4875  -15.2679 O   0  0  0  0  0  0  0  0  0  0  0  0
   17.1436   -9.8359  -13.4165 O   0  0  0  0  0  0  0  0  0  0  0  0
   21.7388   -4.5080  -15.8324 C   0  0  0  0  0  0  0  0  0  0  0  0
   21.0351   -5.6773  -16.4916 C   0  0  1  0  0  0  0  0  0  0  0  0
   21.4476   -5.7651  -17.8326 O   0  0  0  0  0  0  0  0  0  0  0  0
   21.4373   -6.9302  -15.7633 C   0  0  2  0  0  0  0  0  0  0  0  0
   20.7165   -8.0520  -16.3736 N   0  0  0  0  0  0  0  0  0  0  0  0
   21.0944   -6.8355  -14.3084 C   0  0  0  0  0  0  0  0  0  0  0  0
   19.8421   -7.1979  -13.8429 O   0  0  0  0  0  0  0  0  0  0  0  0
   21.9380   -6.4235  -13.4727 O   0  0  0  0  0  0  0  0  0  0  0  0
  2  4  1  0
  2  1  1  6
  3  2  1  0
  4  6  1  0
  5  4  2  0
  6  7  1  0
  7 12  1  0
  8  9  1  0
  7  8  1  1
 10 14  1  0
 10  9  1  0
 11 10  2  0
 12 13  2  0
 12 19  1  0
 16 15  1  1
 17 16  1  0
 18 16  1  0
 18 20  1  0
 18 19  1  6
 20 21  1  0
 22 20  2  0
M  END
$$$$
