AET.pdb
     RDKit          3D

 22 21  0  0  1  0  0  0  0  0999 V2000
   18.4339  -15.0793  -18.2804 C   0  0  0  0  0  0  0  0  0  0  0  0
   19.4176  -14.5237  -17.2715 C   0  0  2  0  0  0  0  0  0  0  0  0
   19.1833  -15.0873  -15.9628 N   0  0  0  0  0  0  0  0  0  0  0  0
   19.1857  -13.0298  -17.2521 C   0  0  0  0  0  0  0  0  0  0  0  0
   19.4661  -12.3786  -18.2813 O   0  0  0  0  0  0  0  0  0  0  0  0
   18.6694  -12.3918  -16.1084 N   0  0  0  0  0  0  0  0  0  0  0  0
   18.3323  -11.0272  -15.9254 C   0  0  1  0  0  0  0  0  0  0  0  0
   16.9178  -10.7571  -15.4083 C   0  0  0  0  0  0  0  0  0  0  0  0
   15.9186  -11.3374  -16.3766 C   0  0  0  0  0  0  0  0  0  0  0  0
   14.7430  -11.8843  -15.6430 C   0  0  0  0  0  0  0  0  0  0  0  0
   14.5378  -13.1227  -15.5887 O   0  0  0  0  0  0  0  0  0  0  0  0
   19.2943  -10.2129  -15.2074 C   0  0  0  0  0  0  0  0  0  0  0  0
   19.4442  -10.3687  -13.9573 O   0  0  0  0  0  0  0  0  0  0  0  0
   13.8833  -11.0205  -15.0246 O   0  0  0  0  0  0  0  0  0  0  0  0
   22.9184  -10.0647  -15.5993 C   0  0  0  0  0  0  0  0  0  0  0  0
   22.4184   -8.6419  -15.7495 C   0  0  1  0  0  0  0  0  0  0  0  0
   22.2281   -8.3633  -17.1141 O   0  0  0  0  0  0  0  0  0  0  0  0
   21.1015   -8.5355  -15.0308 C   0  0  2  0  0  0  0  0  0  0  0  0
   20.0947   -9.2315  -15.8384 N   0  0  0  0  0  0  0  0  0  0  0  0
   20.7067   -7.1021  -14.8491 C   0  0  0  0  0  0  0  0  0  0  0  0
   21.4182   -6.2647  -14.0072 O   0  0  0  0  0  0  0  0  0  0  0  0
   19.7171   -6.6237  -15.4588 O   0  0  0  0  0  0  0  0  0  0  0  0
  2  4  1  0
  2  1  1  6
  3  2  1  0
  4  6  1  0
  5  4  2  0
  6  7  1  0
  7 12  1  0
  8  9  1  0
  7  8  1  1
 10 14  1  0
 10  9  1  0
 11 10  2  0
 12 13  2  0
 12 19  1  0
 16 15  1  6
 17 16  1  0
 18 16  1  0
 18 20  1  0
 18 19  1  6
 20 21  1  0
 22 20  2  0
M  END
$$$$
