AET.pdb
     RDKit          3D

 22 21  0  0  1  0  0  0  0  0999 V2000
   16.1868  -11.1508  -16.9245 C   0  0  0  0  0  0  0  0  0  0  0  0
   16.8607  -10.9628  -15.5810 C   0  0  2  0  0  0  0  0  0  0  0  0
   15.8835  -10.9205  -14.5186 N   0  0  0  0  0  0  0  0  0  0  0  0
   17.5982   -9.6462  -15.6726 C   0  0  0  0  0  0  0  0  0  0  0  0
   18.5209   -9.5469  -16.5097 O   0  0  0  0  0  0  0  0  0  0  0  0
   17.2554   -8.5646  -14.8394 N   0  0  0  0  0  0  0  0  0  0  0  0
   17.7980   -7.2554  -14.8107 C   0  0  1  0  0  0  0  0  0  0  0  0
   16.8178   -6.1392  -14.4440 C   0  0  0  0  0  0  0  0  0  0  0  0
   15.7634   -6.0356  -15.5166 C   0  0  0  0  0  0  0  0  0  0  0  0
   14.7808   -4.9688  -15.1764 C   0  0  0  0  0  0  0  0  0  0  0  0
   14.8943   -4.3041  -14.1162 O   0  0  0  0  0  0  0  0  0  0  0  0
   19.0451   -7.0866  -14.0893 C   0  0  0  0  0  0  0  0  0  0  0  0
   19.0991   -7.3574  -12.8510 O   0  0  0  0  0  0  0  0  0  0  0  0
   13.7471   -4.7174  -16.0342 O   0  0  0  0  0  0  0  0  0  0  0  0
   22.1881   -8.7797  -14.6783 C   0  0  0  0  0  0  0  0  0  0  0  0
   22.5343   -7.3044  -14.6629 C   0  0  1  0  0  0  0  0  0  0  0  0
   22.5668   -6.8261  -15.9844 O   0  0  0  0  0  0  0  0  0  0  0  0
   21.4579   -6.5840  -13.8984 C   0  0  2  0  0  0  0  0  0  0  0  0
   20.2335   -6.6267  -14.7042 N   0  0  0  0  0  0  0  0  0  0  0  0
   21.8480   -5.1612  -13.6395 C   0  0  0  0  0  0  0  0  0  0  0  0
   22.8355   -4.8452  -12.7224 O   0  0  0  0  0  0  0  0  0  0  0  0
   21.2866   -4.2174  -14.2508 O   0  0  0  0  0  0  0  0  0  0  0  0
  2  4  1  0
  2  1  1  6
  3  2  1  0
  4  6  1  0
  5  4  2  0
  6  7  1  0
  7 12  1  0
  8  9  1  0
  7  8  1  1
 10 14  1  0
 10  9  1  0
 11 10  2  0
 12 13  2  0
 12 19  1  0
 16 15  1  6
 17 16  1  0
 18 16  1  0
 18 20  1  0
 18 19  1  6
 20 21  1  0
 22 20  2  0
M  END
$$$$
