AET.pdb
     RDKit          3D

 22 21  0  0  1  0  0  0  0  0999 V2000
   17.9231  -11.9056  -14.9175 C   0  0  0  0  0  0  0  0  0  0  0  0
   17.0099  -10.7016  -14.8125 C   0  0  2  0  0  0  0  0  0  0  0  0
   17.0932   -9.8895  -16.0037 N   0  0  0  0  0  0  0  0  0  0  0  0
   17.4926   -9.9243  -13.6089 C   0  0  0  0  0  0  0  0  0  0  0  0
   17.3886  -10.4592  -12.4842 O   0  0  0  0  0  0  0  0  0  0  0  0
   18.0425   -8.6363  -13.7514 N   0  0  0  0  0  0  0  0  0  0  0  0
   18.5001   -7.7470  -12.7470 C   0  0  1  0  0  0  0  0  0  0  0  0
   19.7052   -6.8833  -13.1250 C   0  0  0  0  0  0  0  0  0  0  0  0
   20.1511   -6.1009  -11.9158 C   0  0  0  0  0  0  0  0  0  0  0  0
   21.3087   -5.2289  -12.2604 C   0  0  0  0  0  0  0  0  0  0  0  0
   21.1354   -4.0254  -12.5771 O   0  0  0  0  0  0  0  0  0  0  0  0
   17.4910   -6.9409  -12.0867 C   0  0  0  0  0  0  0  0  0  0  0  0
   16.7336   -6.1907  -12.7744 O   0  0  0  0  0  0  0  0  0  0  0  0
   22.5702   -5.7533  -12.2284 O   0  0  0  0  0  0  0  0  0  0  0  0
   14.6946   -8.0404  -10.0479 C   0  0  0  0  0  0  0  0  0  0  0  0
   15.4101   -7.0022   -9.2071 C   0  0  1  0  0  0  0  0  0  0  0  0
   16.2770   -7.6533   -8.3124 O   0  0  0  0  0  0  0  0  0  0  0  0
   16.2125   -6.1296  -10.1327 C   0  0  2  0  0  0  0  0  0  0  0  0
   17.2989   -6.9451  -10.6849 N   0  0  0  0  0  0  0  0  0  0  0  0
   16.7806   -4.9537   -9.3992 C   0  0  0  0  0  0  0  0  0  0  0  0
   15.9566   -3.9868   -8.8491 O   0  0  0  0  0  0  0  0  0  0  0  0
   18.0227   -4.8163   -9.2649 O   0  0  0  0  0  0  0  0  0  0  0  0
  2  4  1  0
  2  1  1  6
  3  2  1  0
  4  6  1  0
  5  4  2  0
  6  7  1  0
  7 12  1  0
  8  9  1  0
  7  8  1  6
 10 14  1  0
 10  9  1  0
 11 10  2  0
 12 13  2  0
 12 19  1  0
 16 15  1  6
 17 16  1  0
 18 16  1  0
 18 20  1  0
 18 19  1  1
 20 21  1  0
 22 20  2  0
M  END
$$$$
