AET.pdb
     RDKit          3D

 22 21  0  0  1  0  0  0  0  0999 V2000
   15.6132   -9.4770  -15.3985 C   0  0  0  0  0  0  0  0  0  0  0  0
   16.7501  -10.2023  -16.0882 C   0  0  2  0  0  0  0  0  0  0  0  0
   16.7469  -11.6049  -15.7447 N   0  0  0  0  0  0  0  0  0  0  0  0
   18.0174   -9.5411  -15.5954 C   0  0  0  0  0  0  0  0  0  0  0  0
   18.1421   -9.3537  -14.3661 O   0  0  0  0  0  0  0  0  0  0  0  0
   19.0264   -9.1483  -16.4950 N   0  0  0  0  0  0  0  0  0  0  0  0
   20.3244   -8.6517  -16.2161 C   0  0  1  0  0  0  0  0  0  0  0  0
   21.4358   -9.1410  -17.1470 C   0  0  0  0  0  0  0  0  0  0  0  0
   22.0073  -10.4251  -16.6016 C   0  0  0  0  0  0  0  0  0  0  0  0
   23.0693  -10.9458  -17.5073 C   0  0  0  0  0  0  0  0  0  0  0  0
   24.2502  -10.5250  -17.4226 O   0  0  0  0  0  0  0  0  0  0  0  0
   20.4391   -7.2212  -16.0045 C   0  0  0  0  0  0  0  0  0  0  0  0
   20.0177   -6.4168  -16.8904 O   0  0  0  0  0  0  0  0  0  0  0  0
   22.7455  -11.8926  -18.4380 O   0  0  0  0  0  0  0  0  0  0  0  0
   18.7820   -5.1806  -13.8364 C   0  0  0  0  0  0  0  0  0  0  0  0
   20.2192   -4.8012  -13.5404 C   0  0  1  0  0  0  0  0  0  0  0  0
   20.6559   -5.5053  -12.4048 O   0  0  0  0  0  0  0  0  0  0  0  0
   21.0562   -5.1980  -14.7253 C   0  0  2  0  0  0  0  0  0  0  0  0
   21.0074   -6.6593  -14.8370 N   0  0  0  0  0  0  0  0  0  0  0  0
   22.4742   -4.7474  -14.5521 C   0  0  0  0  0  0  0  0  0  0  0  0
   22.8063   -3.4038  -14.5746 O   0  0  0  0  0  0  0  0  0  0  0  0
   23.3992   -5.5811  -14.3815 O   0  0  0  0  0  0  0  0  0  0  0  0
  2  4  1  0
  2  1  1  1
  3  2  1  0
  4  6  1  0
  5  4  2  0
  6  7  1  0
  7 12  1  0
  8  9  1  0
  7  8  1  6
 10 14  1  0
 10  9  1  0
 11 10  2  0
 12 13  2  0
 12 19  1  0
 16 15  1  6
 17 16  1  0
 18 16  1  0
 18 20  1  0
 18 19  1  1
 20 21  1  0
 22 20  2  0
M  END
$$$$
