AET.pdb
     RDKit          3D

 22 21  0  0  1  0  0  0  0  0999 V2000
   20.0225  -13.0458  -18.6830 C   0  0  0  0  0  0  0  0  0  0  0  0
   20.9869  -12.4615  -17.6716 C   0  0  2  0  0  0  0  0  0  0  0  0
   20.8315  -13.1008  -16.3861 N   0  0  0  0  0  0  0  0  0  0  0  0
   20.6411  -10.9928  -17.5760 C   0  0  0  0  0  0  0  0  0  0  0  0
   20.7514  -10.2952  -18.6071 O   0  0  0  0  0  0  0  0  0  0  0  0
   20.2081  -10.4283  -16.3613 N   0  0  0  0  0  0  0  0  0  0  0  0
   19.8352   -9.0890  -16.0844 C   0  0  1  0  0  0  0  0  0  0  0  0
   18.5055   -8.9095  -15.3490 C   0  0  0  0  0  0  0  0  0  0  0  0
   17.3746   -9.2740  -16.2770 C   0  0  0  0  0  0  0  0  0  0  0  0
   16.0658   -9.1343  -15.5792 C   0  0  0  0  0  0  0  0  0  0  0  0
   15.4721   -8.0276  -15.5412 O   0  0  0  0  0  0  0  0  0  0  0  0
   20.8542   -8.2414  -15.4950 C   0  0  0  0  0  0  0  0  0  0  0  0
   21.6234   -8.7085  -14.6008 O   0  0  0  0  0  0  0  0  0  0  0  0
   15.5122  -10.2288  -14.9766 O   0  0  0  0  0  0  0  0  0  0  0  0
   23.6962   -4.2947  -15.5258 C   0  0  0  0  0  0  0  0  0  0  0  0
   22.5362   -5.0351  -16.1605 C   0  0  1  0  0  0  0  0  0  0  0  0
   22.9592   -5.5944  -17.3788 O   0  0  0  0  0  0  0  0  0  0  0  0
   22.1216   -6.1365  -15.2238 C   0  0  2  0  0  0  0  0  0  0  0  0
   21.0435   -6.8907  -15.8713 N   0  0  0  0  0  0  0  0  0  0  0  0
   21.6400   -5.5761  -13.9209 C   0  0  0  0  0  0  0  0  0  0  0  0
   22.4526   -5.5697  -12.8003 O   0  0  0  0  0  0  0  0  0  0  0  0
   20.4831   -5.0967  -13.8136 O   0  0  0  0  0  0  0  0  0  0  0  0
  2  4  1  0
  2  1  1  6
  3  2  1  0
  4  6  1  0
  5  4  2  0
  6  7  1  0
  7 12  1  0
  8  9  1  0
  7  8  1  1
 10 14  1  0
 10  9  1  0
 11 10  2  0
 12 13  2  0
 12 19  1  0
 16 15  1  1
 17 16  1  0
 18 16  1  0
 18 20  1  0
 18 19  1  6
 20 21  1  0
 22 20  2  0
M  END
$$$$
