AET.pdb
     RDKit          3D

 22 21  0  0  1  0  0  0  0  0999 V2000
   24.2456  -11.9848  -15.0345 C   0  0  0  0  0  0  0  0  0  0  0  0
   23.3051  -12.2674  -16.1878 C   0  0  2  0  0  0  0  0  0  0  0  0
   24.0280  -12.7940  -17.3217 N   0  0  0  0  0  0  0  0  0  0  0  0
   22.6722  -10.9393  -16.5359 C   0  0  0  0  0  0  0  0  0  0  0  0
   23.3091  -10.1621  -17.2792 O   0  0  0  0  0  0  0  0  0  0  0  0
   21.4033  -10.5888  -16.0373 N   0  0  0  0  0  0  0  0  0  0  0  0
   20.6275   -9.4339  -16.3084 C   0  0  1  0  0  0  0  0  0  0  0  0
   19.1262   -9.6702  -16.4864 C   0  0  0  0  0  0  0  0  0  0  0  0
   18.9004  -10.5039  -17.7221 C   0  0  0  0  0  0  0  0  0  0  0  0
   17.4452  -10.7536  -17.9203 C   0  0  0  0  0  0  0  0  0  0  0  0
   17.0479  -11.6921  -18.6552 O   0  0  0  0  0  0  0  0  0  0  0  0
   20.8578   -8.2837  -15.4552 C   0  0  0  0  0  0  0  0  0  0  0  0
   20.9948   -8.4438  -14.2041 O   0  0  0  0  0  0  0  0  0  0  0  0
   16.5394   -9.9470  -17.2907 O   0  0  0  0  0  0  0  0  0  0  0  0
   22.5725   -3.8694  -14.6578 C   0  0  0  0  0  0  0  0  0  0  0  0
   22.3042   -5.0172  -15.6104 C   0  0  1  0  0  0  0  0  0  0  0  0
   23.4808   -5.7704  -15.7656 O   0  0  0  0  0  0  0  0  0  0  0  0
   21.2347   -5.8828  -15.0030 C   0  0  2  0  0  0  0  0  0  0  0  0
   20.9412   -6.9615  -15.9519 N   0  0  0  0  0  0  0  0  0  0  0  0
   19.9934   -5.0886  -14.7347 C   0  0  0  0  0  0  0  0  0  0  0  0
   19.7990   -4.4523  -13.5209 O   0  0  0  0  0  0  0  0  0  0  0  0
   19.0960   -4.9804  -15.6081 O   0  0  0  0  0  0  0  0  0  0  0  0
  2  4  1  0
  2  1  1  1
  3  2  1  0
  4  6  1  0
  5  4  2  0
  6  7  1  0
  7 12  1  0
  8  9  1  0
  7  8  1  1
 10 14  1  0
 10  9  1  0
 11 10  2  0
 12 13  2  0
 12 19  1  0
 16 15  1  1
 17 16  1  0
 18 16  1  0
 18 20  1  0
 18 19  1  6
 20 21  1  0
 22 20  2  0
M  END
$$$$
