KQI.pdb
     RDKit          3D

 27 26  0  0  1  0  0  0  0  0999 V2000
   17.3680  -26.7334   -9.4437 N   0  0  0  0  0  0  0  0  0  0  0  0
   16.7958  -27.4607   -8.3357 C   0  0  1  0  0  0  0  0  0  0  0  0
   17.2224  -28.8900   -8.2980 C   0  0  0  0  0  0  0  0  0  0  0  0
   16.2886  -29.9232   -8.7862 C   0  0  0  0  0  0  0  0  0  0  0  0
   16.6462  -31.3413   -8.8353 C   0  0  0  0  0  0  0  0  0  0  0  0
   15.6839  -32.3540   -9.3062 C   0  0  0  0  0  0  0  0  0  0  0  0
   16.2186  -33.6982   -9.3467 N   0  0  0  0  0  0  0  0  0  0  0  0
   17.1835  -26.8176   -7.0287 C   0  0  0  0  0  0  0  0  0  0  0  0
   18.3975  -26.5428   -6.9028 O   0  0  0  0  0  0  0  0  0  0  0  0
   14.2163  -22.4025   -3.7924 N   0  0  0  0  0  0  0  0  0  0  0  0
   14.7908  -22.5974   -5.0763 C   0  0  0  0  0  0  0  0  0  0  0  0
   14.5803  -21.7150   -5.9603 O   0  0  0  0  0  0  0  0  0  0  0  0
   15.6123  -23.7575   -5.4211 C   0  0  0  0  0  0  0  0  0  0  0  0
   15.8911  -24.7189   -4.3291 C   0  0  0  0  0  0  0  0  0  0  0  0
   16.7076  -25.8914   -4.7716 C   0  0  2  0  0  0  0  0  0  0  0  0
   16.2943  -26.5234   -5.9907 N   0  0  0  0  0  0  0  0  0  0  0  0
   16.8467  -26.8494   -3.6599 C   0  0  0  0  0  0  0  0  0  0  0  0
   16.0389  -27.8002   -3.4659 O   0  0  0  0  0  0  0  0  0  0  0  0
   21.7040  -28.2899   -2.4911 C   0  0  0  0  0  0  0  0  0  0  0  0
   20.2032  -28.2623   -2.6259 C   0  0  0  0  0  0  0  0  0  0  0  0
   19.5313  -27.7699   -1.3531 C   0  0  2  0  0  0  0  0  0  0  0  0
   19.8728  -28.7107   -0.2299 C   0  0  0  0  0  0  0  0  0  0  0  0
   18.0658  -27.6737   -1.6301 C   0  0  2  0  0  0  0  0  0  0  0  0
   17.9097  -26.7402   -2.7517 N   0  0  0  0  0  0  0  0  0  0  0  0
   17.2570  -27.2583   -0.4712 C   0  0  0  0  0  0  0  0  0  0  0  0
   16.5897  -28.1115    0.3764 O   0  0  0  0  0  0  0  0  0  0  0  0
   17.1701  -26.0254   -0.2387 O   0  0  0  0  0  0  0  0  0  0  0  0
  2  1  1  6
  3  2  1  0
  4  3  1  0
  5  4  1  0
  6  5  1  0
  7  6  1  0
  8  9  2  0
  8  2  1  0
 10 11  1  0
 11 12  2  0
 11 13  1  0
 13 14  1  0
 15 14  1  1
 15 16  1  0
 16  8  1  0
 17 15  1  0
 18 17  2  0
 19 20  1  0
 20 21  1  0
 21 23  1  0
 21 22  1  1
 23 25  1  0
 23 24  1  6
 24 17  1  0
 25 26  1  0
 27 25  2  0
M  END
$$$$
