KQI.pdb
     RDKit          3D

 27 26  0  0  1  0  0  0  0  0999 V2000
   27.3732  -20.8806  -16.4372 N   0  0  0  0  0  0  0  0  0  0  0  0
   26.0091  -21.2857  -16.6806 C   0  0  1  0  0  0  0  0  0  0  0  0
   25.9109  -22.5387  -17.4849 C   0  0  0  0  0  0  0  0  0  0  0  0
   26.5552  -22.5833  -18.8118 C   0  0  0  0  0  0  0  0  0  0  0  0
   27.3677  -21.4799  -19.3249 C   0  0  0  0  0  0  0  0  0  0  0  0
   27.9047  -21.5031  -20.6977 C   0  0  0  0  0  0  0  0  0  0  0  0
   28.7244  -20.3568  -21.0272 N   0  0  0  0  0  0  0  0  0  0  0  0
   25.2851  -21.5037  -15.3766 C   0  0  0  0  0  0  0  0  0  0  0  0
   24.1913  -22.1050  -15.4616 O   0  0  0  0  0  0  0  0  0  0  0  0
   26.7795  -20.3615   -9.0077 N   0  0  0  0  0  0  0  0  0  0  0  0
   25.4987  -20.9583   -9.1482 C   0  0  0  0  0  0  0  0  0  0  0  0
   24.8709  -21.2701   -8.0932 O   0  0  0  0  0  0  0  0  0  0  0  0
   24.8733  -21.2225  -10.4438 C   0  0  0  0  0  0  0  0  0  0  0  0
   25.7101  -20.9856  -11.6431 C   0  0  0  0  0  0  0  0  0  0  0  0
   24.9780  -21.2178  -12.9265 C   0  0  2  0  0  0  0  0  0  0  0  0
   25.7521  -21.0866  -14.1265 N   0  0  0  0  0  0  0  0  0  0  0  0
   23.7518  -20.4001  -12.9553 C   0  0  0  0  0  0  0  0  0  0  0  0
   23.7665  -19.1376  -12.9466 O   0  0  0  0  0  0  0  0  0  0  0  0
   19.0648  -19.4349  -16.1005 C   0  0  0  0  0  0  0  0  0  0  0  0
   19.5735  -19.4452  -14.6819 C   0  0  0  0  0  0  0  0  0  0  0  0
   20.8497  -20.2618  -14.5460 C   0  0  2  0  0  0  0  0  0  0  0  0
   20.5925  -21.6520  -15.0603 C   0  0  0  0  0  0  0  0  0  0  0  0
   21.2559  -20.2198  -13.1083 C   0  0  2  0  0  0  0  0  0  0  0  0
   22.4887  -21.0079  -12.9958 N   0  0  0  0  0  0  0  0  0  0  0  0
   20.2246  -20.7026  -12.1739 C   0  0  0  0  0  0  0  0  0  0  0  0
   19.2750  -19.9152  -11.5655 O   0  0  0  0  0  0  0  0  0  0  0  0
   20.2117  -21.9325  -11.9120 O   0  0  0  0  0  0  0  0  0  0  0  0
  2  1  1  1
  3  2  1  0
  4  3  1  0
  5  4  1  0
  6  5  1  0
  7  6  1  0
  8  9  2  0
  8  2  1  0
 10 11  1  0
 11 12  2  0
 11 13  1  0
 13 14  1  0
 15 14  1  1
 15 16  1  0
 16  8  1  0
 17 15  1  0
 18 17  2  0
 19 20  1  0
 20 21  1  0
 21 23  1  0
 21 22  1  1
 23 25  1  0
 23 24  1  6
 24 17  1  0
 25 26  1  0
 27 25  2  0
M  END
$$$$
