KQI.pdb
     RDKit          3D

 27 26  0  0  1  0  0  0  0  0999 V2000
   27.5412  -22.5306  -17.6922 N   0  0  0  0  0  0  0  0  0  0  0  0
   28.4192  -22.8252  -16.5847 C   0  0  1  0  0  0  0  0  0  0  0  0
   29.8631  -22.7390  -16.9504 C   0  0  0  0  0  0  0  0  0  0  0  0
   30.3226  -23.3965  -18.1891 C   0  0  0  0  0  0  0  0  0  0  0  0
   30.7469  -24.7965  -18.2211 C   0  0  0  0  0  0  0  0  0  0  0  0
   31.7967  -25.2956  -17.3142 C   0  0  0  0  0  0  0  0  0  0  0  0
   32.0020  -26.7264  -17.3846 N   0  0  0  0  0  0  0  0  0  0  0  0
   28.1634  -21.8737  -15.4440 C   0  0  0  0  0  0  0  0  0  0  0  0
   29.0095  -21.8973  -14.5226 O   0  0  0  0  0  0  0  0  0  0  0  0
   25.8881  -15.9744  -15.3806 N   0  0  0  0  0  0  0  0  0  0  0  0
   27.0297  -16.6542  -15.8818 C   0  0  0  0  0  0  0  0  0  0  0  0
   27.8155  -16.0136  -16.6410 O   0  0  0  0  0  0  0  0  0  0  0  0
   27.3410  -18.0467  -15.5600 C   0  0  0  0  0  0  0  0  0  0  0  0
   26.4367  -18.7222  -14.6005 C   0  0  0  0  0  0  0  0  0  0  0  0
   26.8744  -20.1105  -14.2570 C   0  0  2  0  0  0  0  0  0  0  0  0
   27.0744  -21.0005  -15.3636 N   0  0  0  0  0  0  0  0  0  0  0  0
   25.9767  -20.6769  -13.2341 C   0  0  0  0  0  0  0  0  0  0  0  0
   25.0172  -21.4491  -13.5123 O   0  0  0  0  0  0  0  0  0  0  0  0
   27.7724  -20.2157   -8.1446 C   0  0  0  0  0  0  0  0  0  0  0  0
   27.1041  -20.8148   -9.3553 C   0  0  0  0  0  0  0  0  0  0  0  0
   25.6960  -20.2729   -9.5486 C   0  0  2  0  0  0  0  0  0  0  0  0
   24.8537  -20.6816   -8.3710 C   0  0  0  0  0  0  0  0  0  0  0  0
   25.1924  -20.7940  -10.8557 C   0  0  2  0  0  0  0  0  0  0  0  0
   26.1587  -20.3736  -11.8771 N   0  0  0  0  0  0  0  0  0  0  0  0
   23.8281  -20.3555  -11.1966 C   0  0  0  0  0  0  0  0  0  0  0  0
   23.5108  -19.1873  -11.8497 O   0  0  0  0  0  0  0  0  0  0  0  0
   22.8782  -21.1096  -10.8639 O   0  0  0  0  0  0  0  0  0  0  0  0
  2  1  1  6
  3  2  1  0
  4  3  1  0
  5  4  1  0
  6  5  1  0
  7  6  1  0
  8  9  2  0
  8  2  1  0
 10 11  1  0
 11 12  2  0
 11 13  1  0
 13 14  1  0
 15 14  1  6
 15 16  1  0
 16  8  1  0
 17 15  1  0
 18 17  2  0
 19 20  1  0
 20 21  1  0
 21 23  1  0
 21 22  1  1
 23 25  1  0
 23 24  1  6
 24 17  1  0
 25 26  1  0
 27 25  2  0
M  END
$$$$
