KQI.pdb
     RDKit          3D

 27 26  0  0  1  0  0  0  0  0999 V2000
   28.3556  -21.0436  -16.2102 N   0  0  0  0  0  0  0  0  0  0  0  0
   27.1221  -21.5984  -16.7149 C   0  0  1  0  0  0  0  0  0  0  0  0
   27.2920  -22.9670  -17.2844 C   0  0  0  0  0  0  0  0  0  0  0  0
   27.5005  -23.1105  -18.7383 C   0  0  0  0  0  0  0  0  0  0  0  0
   26.4727  -23.6544  -19.6265 C   0  0  0  0  0  0  0  0  0  0  0  0
   26.1682  -25.0968  -19.6465 C   0  0  0  0  0  0  0  0  0  0  0  0
   25.0657  -25.4523  -20.5139 N   0  0  0  0  0  0  0  0  0  0  0  0
   26.0899  -21.6680  -15.6187 C   0  0  0  0  0  0  0  0  0  0  0  0
   24.9769  -22.1296  -15.9552 O   0  0  0  0  0  0  0  0  0  0  0  0
   26.2546  -20.7919   -9.0507 N   0  0  0  0  0  0  0  0  0  0  0  0
   24.9428  -21.0932   -9.5032 C   0  0  0  0  0  0  0  0  0  0  0  0
   24.0357  -21.2460   -8.6325 O   0  0  0  0  0  0  0  0  0  0  0  0
   24.5920  -21.2288  -10.9167 C   0  0  0  0  0  0  0  0  0  0  0  0
   25.7092  -21.1493  -11.8863 C   0  0  0  0  0  0  0  0  0  0  0  0
   25.2630  -21.2669  -13.3090 C   0  0  2  0  0  0  0  0  0  0  0  0
   26.3013  -21.2604  -14.2981 N   0  0  0  0  0  0  0  0  0  0  0  0
   24.2149  -20.2680  -13.5864 C   0  0  0  0  0  0  0  0  0  0  0  0
   24.4423  -19.0269  -13.6318 O   0  0  0  0  0  0  0  0  0  0  0  0
   21.0897  -18.0168  -17.4922 C   0  0  0  0  0  0  0  0  0  0  0  0
   20.9667  -18.4037  -16.0408 C   0  0  0  0  0  0  0  0  0  0  0  0
   21.9588  -19.4924  -15.6610 C   0  0  2  0  0  0  0  0  0  0  0  0
   21.6604  -20.7241  -16.4718 C   0  0  0  0  0  0  0  0  0  0  0  0
   21.8468  -19.7039  -14.1858 C   0  0  2  0  0  0  0  0  0  0  0  0
   22.8909  -20.6675  -13.8180 N   0  0  0  0  0  0  0  0  0  0  0  0
   20.5185  -20.1569  -13.7386 C   0  0  0  0  0  0  0  0  0  0  0  0
   19.4384  -19.3377  -13.5058 O   0  0  0  0  0  0  0  0  0  0  0  0
   20.3598  -21.3909  -13.5552 O   0  0  0  0  0  0  0  0  0  0  0  0
  2  1  1  1
  3  2  1  0
  4  3  1  0
  5  4  1  0
  6  5  1  0
  7  6  1  0
  8  9  2  0
  8  2  1  0
 10 11  1  0
 11 12  2  0
 11 13  1  0
 13 14  1  0
 15 14  1  1
 15 16  1  0
 16  8  1  0
 17 15  1  0
 18 17  2  0
 19 20  1  0
 20 21  1  0
 21 23  1  0
 21 22  1  6
 23 25  1  0
 23 24  1  6
 24 17  1  0
 25 26  1  0
 27 25  2  0
M  END
$$$$
