KQI.pdb
     RDKit          3D

 27 26  0  0  1  0  0  0  0  0999 V2000
   28.0733  -18.4051  -16.0130 N   0  0  0  0  0  0  0  0  0  0  0  0
   27.0079  -19.1507  -16.6400 C   0  0  1  0  0  0  0  0  0  0  0  0
   27.5041  -20.1469  -17.6338 C   0  0  0  0  0  0  0  0  0  0  0  0
   28.8962  -20.0406  -18.1117 C   0  0  0  0  0  0  0  0  0  0  0  0
   29.2280  -19.8926  -19.5292 C   0  0  0  0  0  0  0  0  0  0  0  0
   30.6299  -19.8591  -19.9843 C   0  0  0  0  0  0  0  0  0  0  0  0
   30.7789  -19.7598  -21.4204 N   0  0  0  0  0  0  0  0  0  0  0  0
   26.1974  -19.8831  -15.6014 C   0  0  0  0  0  0  0  0  0  0  0  0
   25.3925  -20.7315  -16.0460 O   0  0  0  0  0  0  0  0  0  0  0  0
   26.4595  -20.4307   -9.0159 N   0  0  0  0  0  0  0  0  0  0  0  0
   25.2466  -20.9677   -9.5229 C   0  0  0  0  0  0  0  0  0  0  0  0
   24.4384  -21.4886   -8.6984 O   0  0  0  0  0  0  0  0  0  0  0  0
   24.8875  -20.9424  -10.9406 C   0  0  0  0  0  0  0  0  0  0  0  0
   25.8209  -20.2341  -11.8470 C   0  0  0  0  0  0  0  0  0  0  0  0
   25.4003  -20.2851  -13.2815 C   0  0  2  0  0  0  0  0  0  0  0  0
   26.2932  -19.6736  -14.2224 N   0  0  0  0  0  0  0  0  0  0  0  0
   24.0181  -19.7898  -13.4131 C   0  0  0  0  0  0  0  0  0  0  0  0
   23.7105  -18.5706  -13.2986 O   0  0  0  0  0  0  0  0  0  0  0  0
   19.9052  -18.9109  -17.0466 C   0  0  0  0  0  0  0  0  0  0  0  0
   20.0894  -19.3481  -15.6161 C   0  0  0  0  0  0  0  0  0  0  0  0
   21.4886  -19.8906  -15.3675 C   0  0  2  0  0  0  0  0  0  0  0  0
   21.7102  -21.0845  -16.2558 C   0  0  0  0  0  0  0  0  0  0  0  0
   21.5952  -20.2001  -13.9093 C   0  0  2  0  0  0  0  0  0  0  0  0
   22.9642  -20.6758  -13.6787 N   0  0  0  0  0  0  0  0  0  0  0  0
   20.6013  -21.1725  -13.4230 C   0  0  0  0  0  0  0  0  0  0  0  0
   20.8436  -22.5071  -13.1955 O   0  0  0  0  0  0  0  0  0  0  0  0
   19.4390  -20.7481  -13.1980 O   0  0  0  0  0  0  0  0  0  0  0  0
  2  1  1  1
  3  2  1  0
  4  3  1  0
  5  4  1  0
  6  5  1  0
  7  6  1  0
  8  9  2  0
  8  2  1  0
 10 11  1  0
 11 12  2  0
 11 13  1  0
 13 14  1  0
 15 14  1  1
 15 16  1  0
 16  8  1  0
 17 15  1  0
 18 17  2  0
 19 20  1  0
 20 21  1  0
 21 23  1  0
 21 22  1  6
 23 25  1  0
 23 24  1  6
 24 17  1  0
 25 26  1  0
 27 25  2  0
M  END
$$$$
