KQI.pdb
     RDKit          3D

 27 26  0  0  1  0  0  0  0  0999 V2000
   19.1168  -22.8676  -16.0729 N   0  0  0  0  0  0  0  0  0  0  0  0
   19.5152  -22.0159  -14.9775 C   0  0  1  0  0  0  0  0  0  0  0  0
   18.4550  -21.8752  -13.9371 C   0  0  0  0  0  0  0  0  0  0  0  0
   17.1098  -21.4299  -14.3493 C   0  0  0  0  0  0  0  0  0  0  0  0
   16.0248  -22.3713  -14.6278 C   0  0  0  0  0  0  0  0  0  0  0  0
   14.6705  -21.8955  -14.9642 C   0  0  0  0  0  0  0  0  0  0  0  0
   14.5757  -20.4606  -15.1267 N   0  0  0  0  0  0  0  0  0  0  0  0
   20.7570  -22.5567  -14.3162 C   0  0  0  0  0  0  0  0  0  0  0  0
   20.7516  -23.7860  -14.0833 O   0  0  0  0  0  0  0  0  0  0  0  0
   24.9474  -25.3525  -16.0841 N   0  0  0  0  0  0  0  0  0  0  0  0
   24.7353  -24.0059  -16.4819 C   0  0  0  0  0  0  0  0  0  0  0  0
   25.1237  -23.6608  -17.6371 O   0  0  0  0  0  0  0  0  0  0  0  0
   24.0894  -23.0085  -15.6290 C   0  0  0  0  0  0  0  0  0  0  0  0
   23.6877  -23.4560  -14.2752 C   0  0  0  0  0  0  0  0  0  0  0  0
   23.0796  -22.3657  -13.4514 C   0  0  2  0  0  0  0  0  0  0  0  0
   21.8706  -21.7887  -13.9629 N   0  0  0  0  0  0  0  0  0  0  0  0
   24.1005  -21.3492  -13.1391 C   0  0  0  0  0  0  0  0  0  0  0  0
   24.2337  -20.2822  -13.8008 O   0  0  0  0  0  0  0  0  0  0  0  0
   25.4544  -20.7856   -8.0062 C   0  0  0  0  0  0  0  0  0  0  0  0
   25.1615  -20.6162   -9.4748 C   0  0  0  0  0  0  0  0  0  0  0  0
   26.4137  -20.7803  -10.3226 C   0  0  2  0  0  0  0  0  0  0  0  0
   27.4667  -19.8303   -9.8204 C   0  0  0  0  0  0  0  0  0  0  0  0
   26.0235  -20.5451  -11.7460 C   0  0  2  0  0  0  0  0  0  0  0  0
   24.9853  -21.5315  -12.0666 N   0  0  0  0  0  0  0  0  0  0  0  0
   27.1434  -20.6170  -12.7001 C   0  0  0  0  0  0  0  0  0  0  0  0
   27.8113  -19.5336  -13.2217 O   0  0  0  0  0  0  0  0  0  0  0  0
   27.5184  -21.7601  -13.0666 O   0  0  0  0  0  0  0  0  0  0  0  0
  2  1  1  6
  3  2  1  0
  4  3  1  0
  5  4  1  0
  6  5  1  0
  7  6  1  0
  8  9  2  0
  8  2  1  0
 10 11  1  0
 11 12  2  0
 11 13  1  0
 13 14  1  0
 15 14  1  6
 15 16  1  0
 16  8  1  0
 17 15  1  0
 18 17  2  0
 19 20  1  0
 20 21  1  0
 21 23  1  0
 21 22  1  1
 23 25  1  0
 23 24  1  6
 24 17  1  0
 25 26  1  0
 27 25  2  0
M  END
$$$$
