KQI.pdb
     RDKit          3D

 27 26  0  0  1  0  0  0  0  0999 V2000
   27.1122  -20.7451  -15.8232 N   0  0  0  0  0  0  0  0  0  0  0  0
   27.7761  -19.8054  -14.9513 C   0  0  1  0  0  0  0  0  0  0  0  0
   27.9702  -18.4670  -15.5815 C   0  0  0  0  0  0  0  0  0  0  0  0
   27.9012  -18.3572  -17.0515 C   0  0  0  0  0  0  0  0  0  0  0  0
   28.9279  -18.9225  -17.9276 C   0  0  0  0  0  0  0  0  0  0  0  0
   28.8977  -18.6934  -19.3837 C   0  0  0  0  0  0  0  0  0  0  0  0
   28.8797  -17.2956  -19.7580 N   0  0  0  0  0  0  0  0  0  0  0  0
   26.9865  -19.6191  -13.6809 C   0  0  0  0  0  0  0  0  0  0  0  0
   26.8718  -18.4374  -13.2863 O   0  0  0  0  0  0  0  0  0  0  0  0
   21.9420  -22.1276  -13.3326 N   0  0  0  0  0  0  0  0  0  0  0  0
   22.2498  -20.7585  -13.5495 C   0  0  0  0  0  0  0  0  0  0  0  0
   21.5082  -20.1018  -14.3390 O   0  0  0  0  0  0  0  0  0  0  0  0
   23.3708  -20.0752  -12.9046 C   0  0  0  0  0  0  0  0  0  0  0  0
   24.1462  -20.8623  -11.9179 C   0  0  0  0  0  0  0  0  0  0  0  0
   25.5706  -20.4209  -11.8017 C   0  0  2  0  0  0  0  0  0  0  0  0
   26.3987  -20.6551  -12.9488 N   0  0  0  0  0  0  0  0  0  0  0  0
   26.1595  -20.9599  -10.5626 C   0  0  0  0  0  0  0  0  0  0  0  0
   26.6195  -22.1323  -10.4729 O   0  0  0  0  0  0  0  0  0  0  0  0
   29.3606  -18.7537   -7.0804 C   0  0  0  0  0  0  0  0  0  0  0  0
   28.4800  -19.7066   -7.8471 C   0  0  0  0  0  0  0  0  0  0  0  0
   27.1000  -19.8291   -7.2191 C   0  0  2  0  0  0  0  0  0  0  0  0
   27.2550  -20.2861   -5.7941 C   0  0  0  0  0  0  0  0  0  0  0  0
   26.3050  -20.7685   -8.0671 C   0  0  2  0  0  0  0  0  0  0  0  0
   26.2351  -20.1711   -9.4056 N   0  0  0  0  0  0  0  0  0  0  0  0
   24.9611  -21.0669   -7.5430 C   0  0  0  0  0  0  0  0  0  0  0  0
   24.6570  -22.0929   -6.6789 O   0  0  0  0  0  0  0  0  0  0  0  0
   24.0171  -20.3241   -7.9154 O   0  0  0  0  0  0  0  0  0  0  0  0
  2  1  1  6
  3  2  1  0
  4  3  1  0
  5  4  1  0
  6  5  1  0
  7  6  1  0
  8  9  2  0
  8  2  1  0
 10 11  1  0
 11 12  2  0
 11 13  1  0
 13 14  1  0
 15 14  1  6
 15 16  1  0
 16  8  1  0
 17 15  1  0
 18 17  2  0
 19 20  1  0
 20 21  1  0
 21 23  1  0
 21 22  1  1
 23 25  1  0
 23 24  1  6
 24 17  1  0
 25 26  1  0
 27 25  2  0
M  END
$$$$
