KQI.pdb
     RDKit          3D

 27 26  0  0  1  0  0  0  0  0999 V2000
   27.7827  -21.5665  -16.2972 N   0  0  0  0  0  0  0  0  0  0  0  0
   27.1612  -20.4506  -15.6244 C   0  0  1  0  0  0  0  0  0  0  0  0
   26.5869  -19.4499  -16.5704 C   0  0  0  0  0  0  0  0  0  0  0  0
   27.5050  -18.6683  -17.4214 C   0  0  0  0  0  0  0  0  0  0  0  0
   28.7880  -19.1997  -17.8825 C   0  0  0  0  0  0  0  0  0  0  0  0
   29.6536  -18.4223  -18.7882 C   0  0  0  0  0  0  0  0  0  0  0  0
   30.9202  -19.0587  -19.0798 N   0  0  0  0  0  0  0  0  0  0  0  0
   26.0568  -20.9321  -14.7186 C   0  0  0  0  0  0  0  0  0  0  0  0
   25.4387  -21.9454  -15.1143 O   0  0  0  0  0  0  0  0  0  0  0  0
   25.5879  -20.4822   -8.3902 N   0  0  0  0  0  0  0  0  0  0  0  0
   26.5324  -20.9407   -9.3463 C   0  0  0  0  0  0  0  0  0  0  0  0
   27.6924  -21.2420   -8.9365 O   0  0  0  0  0  0  0  0  0  0  0  0
   26.2290  -21.0853  -10.7698 C   0  0  0  0  0  0  0  0  0  0  0  0
   24.8627  -20.7041  -11.1972 C   0  0  0  0  0  0  0  0  0  0  0  0
   24.6496  -20.8347  -12.6719 C   0  0  2  0  0  0  0  0  0  0  0  0
   25.7002  -20.3309  -13.5078 N   0  0  0  0  0  0  0  0  0  0  0  0
   23.3298  -20.2873  -13.0347 C   0  0  0  0  0  0  0  0  0  0  0  0
   23.0873  -19.0490  -13.0790 O   0  0  0  0  0  0  0  0  0  0  0  0
   20.2840  -22.7443  -16.7156 C   0  0  0  0  0  0  0  0  0  0  0  0
   20.6706  -22.3791  -15.3054 C   0  0  0  0  0  0  0  0  0  0  0  0
   20.6661  -20.8732  -15.0911 C   0  0  2  0  0  0  0  0  0  0  0  0
   21.6935  -20.2518  -15.9974 C   0  0  0  0  0  0  0  0  0  0  0  0
   20.9206  -20.6279  -13.6389 C   0  0  2  0  0  0  0  0  0  0  0  0
   22.2653  -21.1423  -13.3543 N   0  0  0  0  0  0  0  0  0  0  0  0
   19.9178  -21.2242  -12.7398 C   0  0  0  0  0  0  0  0  0  0  0  0
   20.1444  -22.2812  -11.8894 O   0  0  0  0  0  0  0  0  0  0  0  0
   18.7627  -20.7269  -12.7508 O   0  0  0  0  0  0  0  0  0  0  0  0
  2  1  1  6
  3  2  1  0
  4  3  1  0
  5  4  1  0
  6  5  1  0
  7  6  1  0
  8  9  2  0
  8  2  1  0
 10 11  1  0
 11 12  2  0
 11 13  1  0
 13 14  1  0
 15 14  1  1
 15 16  1  0
 16  8  1  0
 17 15  1  0
 18 17  2  0
 19 20  1  0
 20 21  1  0
 21 23  1  0
 21 22  1  6
 23 25  1  0
 23 24  1  1
 24 17  1  0
 25 26  1  0
 27 25  2  0
M  END
$$$$
