KQI.pdb
     RDKit          3D

 27 26  0  0  1  0  0  0  0  0999 V2000
   20.6322  -21.3145  -14.8845 N   0  0  0  0  0  0  0  0  0  0  0  0
   21.1797  -22.5995  -14.5196 C   0  0  1  0  0  0  0  0  0  0  0  0
   21.0422  -23.6170  -15.6022 C   0  0  0  0  0  0  0  0  0  0  0  0
   20.0570  -23.3832  -16.6758 C   0  0  0  0  0  0  0  0  0  0  0  0
   18.6524  -23.0821  -16.3971 C   0  0  0  0  0  0  0  0  0  0  0  0
   17.6604  -22.9997  -17.4847 C   0  0  0  0  0  0  0  0  0  0  0  0
   16.3483  -22.5696  -17.0514 N   0  0  0  0  0  0  0  0  0  0  0  0
   22.6417  -22.4695  -14.1767 C   0  0  0  0  0  0  0  0  0  0  0  0
   23.2013  -23.5215  -13.7955 O   0  0  0  0  0  0  0  0  0  0  0  0
   27.4996  -21.7455  -15.6441 N   0  0  0  0  0  0  0  0  0  0  0  0
   27.8664  -20.9878  -14.5005 C   0  0  0  0  0  0  0  0  0  0  0  0
   29.0569  -21.0880  -14.0798 O   0  0  0  0  0  0  0  0  0  0  0  0
   26.9427  -20.1001  -13.7948 C   0  0  0  0  0  0  0  0  0  0  0  0
   25.5465  -20.0698  -14.2891 C   0  0  0  0  0  0  0  0  0  0  0  0
   24.6899  -21.1445  -13.6988 C   0  0  2  0  0  0  0  0  0  0  0  0
   23.3770  -21.2831  -14.2587 N   0  0  0  0  0  0  0  0  0  0  0  0
   24.6648  -21.0113  -12.2309 C   0  0  0  0  0  0  0  0  0  0  0  0
   23.6502  -20.6132  -11.5936 O   0  0  0  0  0  0  0  0  0  0  0  0
   28.6863  -21.4120   -7.5324 C   0  0  0  0  0  0  0  0  0  0  0  0
   27.2903  -21.2360   -8.0721 C   0  0  0  0  0  0  0  0  0  0  0  0
   27.2452  -21.3979   -9.5839 C   0  0  2  0  0  0  0  0  0  0  0  0
   28.3310  -20.5542  -10.1941 C   0  0  0  0  0  0  0  0  0  0  0  0
   25.8700  -21.0219  -10.0326 C   0  0  2  0  0  0  0  0  0  0  0  0
   25.7953  -21.3309  -11.4652 N   0  0  0  0  0  0  0  0  0  0  0  0
   25.5099  -19.6183   -9.7680 C   0  0  0  0  0  0  0  0  0  0  0  0
   25.8369  -18.5511  -10.5716 O   0  0  0  0  0  0  0  0  0  0  0  0
   24.8512  -19.3771   -8.7242 O   0  0  0  0  0  0  0  0  0  0  0  0
  2  1  1  6
  3  2  1  0
  4  3  1  0
  5  4  1  0
  6  5  1  0
  7  6  1  0
  8  9  2  0
  8  2  1  0
 10 11  1  0
 11 12  2  0
 11 13  1  0
 13 14  1  0
 15 14  1  6
 15 16  1  0
 16  8  1  0
 17 15  1  0
 18 17  2  0
 19 20  1  0
 20 21  1  0
 21 23  1  0
 21 22  1  6
 23 25  1  0
 23 24  1  6
 24 17  1  0
 25 26  1  0
 27 25  2  0
M  END
$$$$
