KQI.pdb
     RDKit          3D

 27 26  0  0  1  0  0  0  0  0999 V2000
   27.3824  -19.6938  -15.9470 N   0  0  0  0  0  0  0  0  0  0  0  0
   27.8363  -18.6563  -15.0516 C   0  0  1  0  0  0  0  0  0  0  0  0
   27.8803  -17.3117  -15.6968 C   0  0  0  0  0  0  0  0  0  0  0  0
   28.3645  -17.2063  -17.0869 C   0  0  0  0  0  0  0  0  0  0  0  0
   28.0591  -18.2163  -18.1008 C   0  0  0  0  0  0  0  0  0  0  0  0
   28.5238  -18.0646  -19.4917 C   0  0  0  0  0  0  0  0  0  0  0  0
   29.9406  -17.7948  -19.6114 N   0  0  0  0  0  0  0  0  0  0  0  0
   26.9359  -18.5721  -13.8457 C   0  0  0  0  0  0  0  0  0  0  0  0
   26.1440  -17.6037  -13.8311 O   0  0  0  0  0  0  0  0  0  0  0  0
   22.1969  -21.2500  -14.2420 N   0  0  0  0  0  0  0  0  0  0  0  0
   22.1962  -21.0170  -12.8413 C   0  0  0  0  0  0  0  0  0  0  0  0
   21.1117  -21.1938  -12.2113 O   0  0  0  0  0  0  0  0  0  0  0  0
   23.3813  -20.5912  -12.0971 C   0  0  0  0  0  0  0  0  0  0  0  0
   24.6024  -20.3263  -12.8929 C   0  0  0  0  0  0  0  0  0  0  0  0
   25.7493  -19.8384  -12.0660 C   0  0  2  0  0  0  0  0  0  0  0  0
   26.9382  -19.4824  -12.7845 N   0  0  0  0  0  0  0  0  0  0  0  0
   26.0159  -20.7910  -10.9730 C   0  0  0  0  0  0  0  0  0  0  0  0
   26.4070  -21.9749  -11.1725 O   0  0  0  0  0  0  0  0  0  0  0  0
   27.4935  -18.8854   -6.0564 C   0  0  0  0  0  0  0  0  0  0  0  0
   26.5410  -19.4956   -7.0522 C   0  0  0  0  0  0  0  0  0  0  0  0
   27.0959  -20.7794   -7.6504 C   0  0  2  0  0  0  0  0  0  0  0  0
   28.3756  -20.4626   -8.3752 C   0  0  0  0  0  0  0  0  0  0  0  0
   26.0353  -21.3570   -8.5308 C   0  0  2  0  0  0  0  0  0  0  0  0
   25.8424  -20.4096   -9.6348 N   0  0  0  0  0  0  0  0  0  0  0  0
   24.7652  -21.6413   -7.8411 C   0  0  0  0  0  0  0  0  0  0  0  0
   24.5997  -22.5611   -6.8319 O   0  0  0  0  0  0  0  0  0  0  0  0
   23.7517  -20.9911   -8.2041 O   0  0  0  0  0  0  0  0  0  0  0  0
  2  1  1  6
  3  2  1  0
  4  3  1  0
  5  4  1  0
  6  5  1  0
  7  6  1  0
  8  9  2  0
  8  2  1  0
 10 11  1  0
 11 12  2  0
 11 13  1  0
 13 14  1  0
 15 14  1  6
 15 16  1  0
 16  8  1  0
 17 15  1  0
 18 17  2  0
 19 20  1  0
 20 21  1  0
 21 23  1  0
 21 22  1  6
 23 25  1  0
 23 24  1  6
 24 17  1  0
 25 26  1  0
 27 25  2  0
M  END
$$$$
