KQI.pdb
     RDKit          3D

 27 26  0  0  1  0  0  0  0  0999 V2000
   19.6281  -29.1691  -13.5952 N   0  0  0  0  0  0  0  0  0  0  0  0
   19.6131  -28.2501  -12.4819 C   0  0  1  0  0  0  0  0  0  0  0  0
   20.8883  -28.2566  -11.7074 C   0  0  0  0  0  0  0  0  0  0  0  0
   21.2146  -29.4384  -10.8860 C   0  0  0  0  0  0  0  0  0  0  0  0
   22.4006  -29.4940  -10.0307 C   0  0  0  0  0  0  0  0  0  0  0  0
   22.6762  -30.6701   -9.1855 C   0  0  0  0  0  0  0  0  0  0  0  0
   23.8824  -30.5550   -8.3942 N   0  0  0  0  0  0  0  0  0  0  0  0
   19.3607  -26.8445  -12.9642 C   0  0  0  0  0  0  0  0  0  0  0  0
   19.8956  -26.5450  -14.0548 O   0  0  0  0  0  0  0  0  0  0  0  0
   14.2083  -22.9814  -12.2322 N   0  0  0  0  0  0  0  0  0  0  0  0
   15.1716  -22.3557  -13.0671 C   0  0  0  0  0  0  0  0  0  0  0  0
   14.8286  -21.3033  -13.6827 O   0  0  0  0  0  0  0  0  0  0  0  0
   16.5322  -22.8628  -13.2435 C   0  0  0  0  0  0  0  0  0  0  0  0
   16.8613  -24.1297  -12.5498 C   0  0  0  0  0  0  0  0  0  0  0  0
   18.2364  -24.6300  -12.8596 C   0  0  2  0  0  0  0  0  0  0  0  0
   18.5913  -25.8951  -12.2850 N   0  0  0  0  0  0  0  0  0  0  0  0
   19.2271  -23.5794  -12.5635 C   0  0  0  0  0  0  0  0  0  0  0  0
   19.7871  -23.4595  -11.4382 O   0  0  0  0  0  0  0  0  0  0  0  0
   23.6993  -20.5277  -15.1195 C   0  0  0  0  0  0  0  0  0  0  0  0
   22.6521  -20.6059  -14.0385 C   0  0  0  0  0  0  0  0  0  0  0  0
   21.5472  -21.5894  -14.3932 C   0  0  2  0  0  0  0  0  0  0  0  0
   20.9559  -21.1959  -15.7195 C   0  0  0  0  0  0  0  0  0  0  0  0
   20.5614  -21.5780  -13.2700 C   0  0  2  0  0  0  0  0  0  0  0  0
   19.5968  -22.6490  -13.5454 N   0  0  0  0  0  0  0  0  0  0  0  0
   19.8840  -20.2849  -13.0727 C   0  0  0  0  0  0  0  0  0  0  0  0
   20.3160  -19.2834  -12.2347 O   0  0  0  0  0  0  0  0  0  0  0  0
   18.8267  -20.0809  -13.7223 O   0  0  0  0  0  0  0  0  0  0  0  0
  2  1  1  6
  3  2  1  0
  4  3  1  0
  5  4  1  0
  6  5  1  0
  7  6  1  0
  8  9  2  0
  8  2  1  0
 10 11  1  0
 11 12  2  0
 11 13  1  0
 13 14  1  0
 15 14  1  1
 15 16  1  0
 16  8  1  0
 17 15  1  0
 18 17  2  0
 19 20  1  0
 20 21  1  0
 21 23  1  0
 21 22  1  6
 23 25  1  0
 23 24  1  6
 24 17  1  0
 25 26  1  0
 27 25  2  0
M  END
$$$$
