KQI.pdb
     RDKit          3D

 27 26  0  0  1  0  0  0  0  0999 V2000
   20.1026  -15.0229  -16.2931 N   0  0  0  0  0  0  0  0  0  0  0  0
   19.7673  -13.7319  -16.8454 C   0  0  1  0  0  0  0  0  0  0  0  0
   18.3139  -13.4132  -16.7340 C   0  0  0  0  0  0  0  0  0  0  0  0
   17.3303  -14.4104  -17.1985 C   0  0  0  0  0  0  0  0  0  0  0  0
   17.2780  -15.7690  -16.6576 C   0  0  0  0  0  0  0  0  0  0  0  0
   16.2722  -16.7386  -17.1286 C   0  0  0  0  0  0  0  0  0  0  0  0
   15.4247  -16.2373  -18.1891 N   0  0  0  0  0  0  0  0  0  0  0  0
   20.5440  -12.6444  -16.1482 C   0  0  0  0  0  0  0  0  0  0  0  0
   20.2434  -12.4517  -14.9491 O   0  0  0  0  0  0  0  0  0  0  0  0
   26.6468  -11.3538  -16.4316 N   0  0  0  0  0  0  0  0  0  0  0  0
   25.8144  -12.3663  -15.8855 C   0  0  0  0  0  0  0  0  0  0  0  0
   26.3619  -13.4437  -15.5064 O   0  0  0  0  0  0  0  0  0  0  0  0
   24.3665  -12.2220  -15.7362 C   0  0  0  0  0  0  0  0  0  0  0  0
   23.7793  -10.9391  -16.1880 C   0  0  0  0  0  0  0  0  0  0  0  0
   22.2935  -10.8827  -16.0261 C   0  0  2  0  0  0  0  0  0  0  0  0
   21.5429  -11.8701  -16.7460 N   0  0  0  0  0  0  0  0  0  0  0  0
   21.8159   -9.5125  -16.2859 C   0  0  0  0  0  0  0  0  0  0  0  0
   21.5296   -9.0913  -17.4413 O   0  0  0  0  0  0  0  0  0  0  0  0
   17.9714   -5.8689  -16.9072 C   0  0  0  0  0  0  0  0  0  0  0  0
   19.3384   -5.8927  -16.2732 C   0  0  0  0  0  0  0  0  0  0  0  0
   19.8350   -7.3140  -16.0559 C   0  0  2  0  0  0  0  0  0  0  0  0
   18.8497   -8.0434  -15.1837 C   0  0  0  0  0  0  0  0  0  0  0  0
   21.2054   -7.2232  -15.4664 C   0  0  2  0  0  0  0  0  0  0  0  0
   21.6555   -8.6004  -15.2330 N   0  0  0  0  0  0  0  0  0  0  0  0
   21.2821   -6.4188  -14.2348 C   0  0  0  0  0  0  0  0  0  0  0  0
   21.3565   -6.9274  -12.9591 O   0  0  0  0  0  0  0  0  0  0  0  0
   21.2793   -5.1674  -14.3603 O   0  0  0  0  0  0  0  0  0  0  0  0
  2  1  1  1
  3  2  1  0
  4  3  1  0
  5  4  1  0
  6  5  1  0
  7  6  1  0
  8  9  2  0
  8  2  1  0
 10 11  1  0
 11 12  2  0
 11 13  1  0
 13 14  1  0
 15 14  1  6
 15 16  1  0
 16  8  1  0
 17 15  1  0
 18 17  2  0
 19 20  1  0
 20 21  1  0
 21 23  1  0
 21 22  1  1
 23 25  1  0
 23 24  1  1
 24 17  1  0
 25 26  1  0
 27 25  2  0
M  END
$$$$
