KQI.pdb
     RDKit          3D

 27 26  0  0  1  0  0  0  0  0999 V2000
   21.5792  -16.9373  -16.7786 N   0  0  0  0  0  0  0  0  0  0  0  0
   21.4864  -18.2961  -16.2998 C   0  0  1  0  0  0  0  0  0  0  0  0
   20.7181  -19.1841  -17.2202 C   0  0  0  0  0  0  0  0  0  0  0  0
   19.3770  -18.7573  -17.6640 C   0  0  0  0  0  0  0  0  0  0  0  0
   18.5153  -17.9054  -16.8437 C   0  0  0  0  0  0  0  0  0  0  0  0
   17.1437  -17.5731  -17.2700 C   0  0  0  0  0  0  0  0  0  0  0  0
   16.8828  -17.8388  -18.6685 N   0  0  0  0  0  0  0  0  0  0  0  0
   22.8623  -18.8835  -16.1161 C   0  0  0  0  0  0  0  0  0  0  0  0
   22.8944  -20.1001  -15.8258 O   0  0  0  0  0  0  0  0  0  0  0  0
   27.6540  -19.5773  -18.9104 N   0  0  0  0  0  0  0  0  0  0  0  0
   28.3129  -19.5315  -17.6534 C   0  0  0  0  0  0  0  0  0  0  0  0
   29.4175  -20.1409  -17.5402 O   0  0  0  0  0  0  0  0  0  0  0  0
   27.7825  -18.8144  -16.4941 C   0  0  0  0  0  0  0  0  0  0  0  0
   26.5025  -18.0947  -16.6900 C   0  0  0  0  0  0  0  0  0  0  0  0
   25.3434  -18.7632  -16.0217 C   0  0  2  0  0  0  0  0  0  0  0  0
   24.0575  -18.1700  -16.2475 N   0  0  0  0  0  0  0  0  0  0  0  0
   25.6341  -18.9485  -14.5884 C   0  0  0  0  0  0  0  0  0  0  0  0
   25.7233  -17.9871  -13.7748 O   0  0  0  0  0  0  0  0  0  0  0  0
   24.1625  -20.6569   -9.4942 C   0  0  0  0  0  0  0  0  0  0  0  0
   25.3671  -20.5654  -10.3953 C   0  0  0  0  0  0  0  0  0  0  0  0
   24.9732  -20.5534  -11.8645 C   0  0  2  0  0  0  0  0  0  0  0  0
   24.1787  -21.7956  -12.1632 C   0  0  0  0  0  0  0  0  0  0  0  0
   26.2311  -20.4395  -12.6634 C   0  0  2  0  0  0  0  0  0  0  0  0
   25.8265  -20.2325  -14.0588 N   0  0  0  0  0  0  0  0  0  0  0  0
   27.1366  -21.5940  -12.5339 C   0  0  0  0  0  0  0  0  0  0  0  0
   27.4151  -22.4988  -13.5317 O   0  0  0  0  0  0  0  0  0  0  0  0
   27.6997  -21.7657  -11.4226 O   0  0  0  0  0  0  0  0  0  0  0  0
  2  1  1  6
  3  2  1  0
  4  3  1  0
  5  4  1  0
  6  5  1  0
  7  6  1  0
  8  9  2  0
  8  2  1  0
 10 11  1  0
 11 12  2  0
 11 13  1  0
 13 14  1  0
 15 14  1  1
 15 16  1  0
 16  8  1  0
 17 15  1  0
 18 17  2  0
 19 20  1  0
 20 21  1  0
 21 23  1  0
 21 22  1  6
 23 25  1  0
 23 24  1  6
 24 17  1  0
 25 26  1  0
 27 25  2  0
M  END
$$$$
