KQI.pdb
     RDKit          3D

 27 26  0  0  1  0  0  0  0  0999 V2000
   22.3406  -21.4650  -13.6674 N   0  0  0  0  0  0  0  0  0  0  0  0
   22.5582  -20.4726  -12.6418 C   0  0  1  0  0  0  0  0  0  0  0  0
   21.3331  -20.1911  -11.8380 C   0  0  0  0  0  0  0  0  0  0  0  0
   20.2119  -19.4765  -12.4784 C   0  0  0  0  0  0  0  0  0  0  0  0
   20.3455  -18.1144  -12.9960 C   0  0  0  0  0  0  0  0  0  0  0  0
   19.2019  -17.4181  -13.6132 C   0  0  0  0  0  0  0  0  0  0  0  0
   18.0031  -17.4250  -12.8025 N   0  0  0  0  0  0  0  0  0  0  0  0
   23.6479  -20.9193  -11.7011 C   0  0  0  0  0  0  0  0  0  0  0  0
   23.4083  -21.9645  -11.0566 O   0  0  0  0  0  0  0  0  0  0  0  0
   26.5230  -23.5401  -11.8194 N   0  0  0  0  0  0  0  0  0  0  0  0
   26.7666  -22.6191  -12.8724 C   0  0  0  0  0  0  0  0  0  0  0  0
   26.4774  -22.9776  -14.0524 O   0  0  0  0  0  0  0  0  0  0  0  0
   27.3260  -21.2846  -12.6592 C   0  0  0  0  0  0  0  0  0  0  0  0
   27.2849  -20.7637  -11.2729 C   0  0  0  0  0  0  0  0  0  0  0  0
   25.9105  -20.7691  -10.6828 C   0  0  2  0  0  0  0  0  0  0  0  0
   24.8641  -20.2545  -11.5174 N   0  0  0  0  0  0  0  0  0  0  0  0
   25.9365  -20.1308   -9.3543 C   0  0  0  0  0  0  0  0  0  0  0  0
   25.3786  -19.0243   -9.1118 O   0  0  0  0  0  0  0  0  0  0  0  0
   28.7757  -21.0316   -3.9213 C   0  0  0  0  0  0  0  0  0  0  0  0
   27.7644  -20.3286   -4.7899 C   0  0  0  0  0  0  0  0  0  0  0  0
   27.7021  -20.9320   -6.1848 C   0  0  2  0  0  0  0  0  0  0  0  0
   29.1044  -21.1004   -6.7029 C   0  0  0  0  0  0  0  0  0  0  0  0
   26.8569  -20.0297   -7.0245 C   0  0  2  0  0  0  0  0  0  0  0  0
   26.5975  -20.7437   -8.2802 N   0  0  0  0  0  0  0  0  0  0  0  0
   27.4500  -18.7048   -7.2745 C   0  0  0  0  0  0  0  0  0  0  0  0
   27.1895  -17.5690   -6.5438 O   0  0  0  0  0  0  0  0  0  0  0  0
   28.2588  -18.6046   -8.2324 O   0  0  0  0  0  0  0  0  0  0  0  0
  2  1  1  6
  3  2  1  0
  4  3  1  0
  5  4  1  0
  6  5  1  0
  7  6  1  0
  8  9  2  0
  8  2  1  0
 10 11  1  0
 11 12  2  0
 11 13  1  0
 13 14  1  0
 15 14  1  6
 15 16  1  0
 16  8  1  0
 17 15  1  0
 18 17  2  0
 19 20  1  0
 20 21  1  0
 21 23  1  0
 21 22  1  6
 23 25  1  0
 23 24  1  6
 24 17  1  0
 25 26  1  0
 27 25  2  0
M  END
$$$$
