KQI.pdb
     RDKit          3D

 27 26  0  0  1  0  0  0  0  0999 V2000
   15.0358  -12.4297  -14.5879 N   0  0  0  0  0  0  0  0  0  0  0  0
   14.2771  -11.7295  -13.5788 C   0  0  1  0  0  0  0  0  0  0  0  0
   13.7879  -12.6285  -12.4931 C   0  0  0  0  0  0  0  0  0  0  0  0
   12.6697  -13.5473  -12.7816 C   0  0  0  0  0  0  0  0  0  0  0  0
   11.3294  -13.0671  -13.1198 C   0  0  0  0  0  0  0  0  0  0  0  0
   10.2093  -14.0064  -13.3115 C   0  0  0  0  0  0  0  0  0  0  0  0
   10.3561  -15.2511  -12.5880 N   0  0  0  0  0  0  0  0  0  0  0  0
   15.1136  -10.6437  -12.9517 C   0  0  0  0  0  0  0  0  0  0  0  0
   14.8591  -10.3921  -11.7529 O   0  0  0  0  0  0  0  0  0  0  0  0
   20.7385   -8.4037  -13.9031 N   0  0  0  0  0  0  0  0  0  0  0  0
   20.1138   -7.3659  -13.1622 C   0  0  0  0  0  0  0  0  0  0  0  0
   20.8565   -6.5677  -12.5175 O   0  0  0  0  0  0  0  0  0  0  0  0
   18.6646   -7.1737  -13.1138 C   0  0  0  0  0  0  0  0  0  0  0  0
   17.8417   -8.1556  -13.8578 C   0  0  0  0  0  0  0  0  0  0  0  0
   16.8324   -8.8485  -12.9985 C   0  0  2  0  0  0  0  0  0  0  0  0
   16.1189   -9.9307  -13.6119 N   0  0  0  0  0  0  0  0  0  0  0  0
   15.9313   -7.8542  -12.3882 C   0  0  0  0  0  0  0  0  0  0  0  0
   14.9533   -7.3437  -13.0024 O   0  0  0  0  0  0  0  0  0  0  0  0
   12.8557   -6.6178   -7.5509 C   0  0  0  0  0  0  0  0  0  0  0  0
   13.6943   -6.0149   -8.6485 C   0  0  0  0  0  0  0  0  0  0  0  0
   14.6582   -7.0297   -9.2442 C   0  0  2  0  0  0  0  0  0  0  0  0
   15.6568   -7.4257   -8.1908 C   0  0  0  0  0  0  0  0  0  0  0  0
   15.2769   -6.4028  -10.4516 C   0  0  2  0  0  0  0  0  0  0  0  0
   16.1293   -7.4265  -11.0675 N   0  0  0  0  0  0  0  0  0  0  0  0
   16.0356   -5.1715  -10.1724 C   0  0  0  0  0  0  0  0  0  0  0  0
   17.4068   -5.0651  -10.1852 O   0  0  0  0  0  0  0  0  0  0  0  0
   15.3766   -4.1353   -9.9008 O   0  0  0  0  0  0  0  0  0  0  0  0
  2  1  1  6
  3  2  1  0
  4  3  1  0
  5  4  1  0
  6  5  1  0
  7  6  1  0
  8  9  2  0
  8  2  1  0
 10 11  1  0
 11 12  2  0
 11 13  1  0
 13 14  1  0
 15 14  1  6
 15 16  1  0
 16  8  1  0
 17 15  1  0
 18 17  2  0
 19 20  1  0
 20 21  1  0
 21 23  1  0
 21 22  1  1
 23 25  1  0
 23 24  1  1
 24 17  1  0
 25 26  1  0
 27 25  2  0
M  END
$$$$
