CRY.pdb
     RDKit          3D

 30 30  0  0  1  0  0  0  0  0999 V2000
   37.8780  -11.0750   -5.7870 N   0  0  0  0  0  0  0  0  0  0  0  0
   38.4549  -11.3873   -7.0824 C   0  0  1  0  0  0  0  0  0  0  0  0
   37.5360  -10.8399   -8.1429 C   0  0  0  0  0  0  0  0  0  0  0  0
   35.9934  -11.7930   -8.0950 S   0  0  0  0  0  0  0  0  0  0  0  0
   39.8094  -10.7623   -7.1439 C   0  0  0  0  0  0  0  0  0  0  0  0
   40.0455   -9.6524   -6.5857 O   0  0  0  0  0  0  0  0  0  0  0  0
   45.7836  -16.1395   -8.5621 N   0  0  0  0  0  0  0  0  0  0  0  0
   44.3799  -16.0001   -8.8023 C   0  0  0  0  0  0  0  0  0  0  0  0
   43.7517  -16.9164   -9.4172 N   0  0  0  0  0  0  0  0  0  0  0  0
   43.7538  -14.8258   -8.3319 N   0  0  0  0  0  0  0  0  0  0  0  0
   44.4756  -13.8183   -7.6259 C   0  0  0  0  0  0  0  0  0  0  0  0
   43.6182  -12.6472   -7.1694 C   0  0  0  0  0  0  0  0  0  0  0  0
   43.1280  -11.8705   -8.3380 C   0  0  0  0  0  0  0  0  0  0  0  0
   42.1937  -10.7267   -8.0198 C   0  0  2  0  0  0  0  0  0  0  0  0
   40.8835  -11.3744   -7.8228 N   0  0  0  0  0  0  0  0  0  0  0  0
   42.0508   -9.7961   -9.1893 C   0  0  0  0  0  0  0  0  0  0  0  0
   41.4801  -10.2403  -10.2495 O   0  0  0  0  0  0  0  0  0  0  0  0
   42.7493  -16.7924   -9.6734 O   0  0  0  0  0  0  0  0  0  0  0  0
   37.0934   -3.4376  -11.7498 C   0  0  0  0  0  0  0  0  0  0  0  0
   37.8620   -4.4358  -11.1572 C   0  0  0  0  0  0  0  0  0  0  0  0
   38.3538   -4.2985   -9.8853 C   0  0  0  0  0  0  0  0  0  0  0  0
   39.1149   -5.2863   -9.2978 C   0  0  0  0  0  0  0  0  0  0  0  0
   39.4203   -6.4737   -9.9726 C   0  0  0  0  0  0  0  0  0  0  0  0
   40.2488   -7.5208   -9.3586 C   0  0  1  0  0  0  0  0  0  0  0  0
   41.6569   -7.4246   -9.8407 N   0  0  0  0  0  0  0  0  0  0  0  0
   42.4880   -8.4741   -9.2234 C   0  0  0  0  0  0  0  0  0  0  0  0
   42.2456   -6.1068   -9.5278 O   0  0  0  0  0  0  0  0  0  0  0  0
   42.3471   -5.0463  -10.4004 C   0  0  0  0  0  0  0  0  0  0  0  0
   38.9069   -6.5799  -11.2589 C   0  0  0  0  0  0  0  0  0  0  0  0
   38.1546   -5.6031  -11.8386 O   0  0  0  0  0  0  0  0  0  0  0  0
  2  1  1  1
  2  3  1  0
  4  3  1  0
  5  2  1  0
  6  5  2  0
  8  7  1  0
  9  8  2  0
 10  8  1  0
 11 12  1  0
 11 10  1  0
 12 13  1  0
 14 13  1  6
 14 15  1  0
 15  5  1  0
 16 14  1  0
 16 17  2  0
 18 19  1  0
 19 29  2  0
 20 21  2  0
 20 19  1  0
 21 22  1  0
 22 23  1  0
 22 28  2  0
 24 23  1  6
 24 25  1  0
 25 16  1  0
 26 24  1  0
 27 26  1  0
 29 28  1  0
 30 26  2  0
M  END
$$$$
