CRY.pdb
     RDKit          3D

 30 30  0  0  1  0  0  0  0  0999 V2000
   32.0796  -22.1810  -10.2502 N   0  0  0  0  0  0  0  0  0  0  0  0
   30.7043  -21.8026   -9.9784 C   0  0  1  0  0  0  0  0  0  0  0  0
   30.7050  -20.8751   -8.7916 C   0  0  0  0  0  0  0  0  0  0  0  0
   31.2734  -21.8132   -7.3469 S   0  0  0  0  0  0  0  0  0  0  0  0
   30.1606  -21.1405  -11.2011 C   0  0  0  0  0  0  0  0  0  0  0  0
   30.8143  -20.2430  -11.8065 O   0  0  0  0  0  0  0  0  0  0  0  0
   26.5064  -20.2368  -17.3009 N   0  0  0  0  0  0  0  0  0  0  0  0
   27.6158  -20.3794  -18.1934 C   0  0  0  0  0  0  0  0  0  0  0  0
   27.5898  -19.8085  -19.3274 N   0  0  0  0  0  0  0  0  0  0  0  0
   28.7049  -21.1635  -17.7561 N   0  0  0  0  0  0  0  0  0  0  0  0
   28.7649  -21.6997  -16.4356 C   0  0  0  0  0  0  0  0  0  0  0  0
   29.1645  -20.6863  -15.3734 C   0  0  0  0  0  0  0  0  0  0  0  0
   29.3179  -21.3471  -14.0509 C   0  0  0  0  0  0  0  0  0  0  0  0
   28.3597  -20.8918  -12.9753 C   0  0  2  0  0  0  0  0  0  0  0  0
   28.9008  -21.4806  -11.7363 N   0  0  0  0  0  0  0  0  0  0  0  0
   26.9921  -21.4777  -13.1779 C   0  0  0  0  0  0  0  0  0  0  0  0
   26.6675  -22.5089  -12.4864 O   0  0  0  0  0  0  0  0  0  0  0  0
   28.3806  -19.9214  -19.9964 O   0  0  0  0  0  0  0  0  0  0  0  0
   18.9788  -19.6757  -11.0006 C   0  0  0  0  0  0  0  0  0  0  0  0
   20.3215  -19.7549  -11.3602 C   0  0  0  0  0  0  0  0  0  0  0  0
   20.8039  -19.1081  -12.4680 C   0  0  0  0  0  0  0  0  0  0  0  0
   22.1331  -19.1860  -12.8247 C   0  0  0  0  0  0  0  0  0  0  0  0
   23.0504  -19.9287  -12.0726 C   0  0  0  0  0  0  0  0  0  0  0  0
   24.4641  -20.0321  -12.4604 C   0  0  1  0  0  0  0  0  0  0  0  0
   24.6160  -20.9067  -13.6589 N   0  0  0  0  0  0  0  0  0  0  0  0
   26.0316  -20.9914  -14.0615 C   0  0  0  0  0  0  0  0  0  0  0  0
   23.8269  -20.4004  -14.7998 O   0  0  0  0  0  0  0  0  0  0  0  0
   24.0720  -19.2340  -15.4897 C   0  0  0  0  0  0  0  0  0  0  0  0
   22.5283  -20.5714  -10.9574 C   0  0  0  0  0  0  0  0  0  0  0  0
   21.2145  -20.4936  -10.6056 O   0  0  0  0  0  0  0  0  0  0  0  0
  2  1  1  6
  2  3  1  0
  4  3  1  0
  5  2  1  0
  6  5  2  0
  8  7  1  0
  9  8  2  0
 10  8  1  0
 11 12  1  0
 11 10  1  0
 12 13  1  0
 14 13  1  6
 14 15  1  0
 15  5  1  0
 16 14  1  0
 16 17  2  0
 18 19  1  0
 19 29  2  0
 20 21  2  0
 20 19  1  0
 21 22  1  0
 22 23  1  0
 22 28  2  0
 24 23  1  1
 24 25  1  0
 25 16  1  0
 26 24  1  0
 27 26  1  0
 29 28  1  0
 30 26  2  0
M  END
$$$$
