CRY.pdb
     RDKit          3D

 30 30  0  0  1  0  0  0  0  0999 V2000
   25.5621  -18.6282  -20.8615 N   0  0  0  0  0  0  0  0  0  0  0  0
   25.3452  -18.2508  -19.4762 C   0  0  1  0  0  0  0  0  0  0  0  0
   24.4218  -17.0608  -19.4595 C   0  0  0  0  0  0  0  0  0  0  0  0
   25.4114  -15.5782  -19.7955 S   0  0  0  0  0  0  0  0  0  0  0  0
   24.7527  -19.4242  -18.7685 C   0  0  0  0  0  0  0  0  0  0  0  0
   23.8485  -20.1262  -19.3061 O   0  0  0  0  0  0  0  0  0  0  0  0
   27.1392  -26.4422  -16.2878 N   0  0  0  0  0  0  0  0  0  0  0  0
   27.6687  -25.1927  -16.7417 C   0  0  0  0  0  0  0  0  0  0  0  0
   28.5746  -25.1781  -17.6314 N   0  0  0  0  0  0  0  0  0  0  0  0
   27.1437  -24.0166  -16.1643 N   0  0  0  0  0  0  0  0  0  0  0  0
   25.8426  -23.9797  -15.5809 C   0  0  0  0  0  0  0  0  0  0  0  0
   25.4490  -22.6167  -15.0310 C   0  0  0  0  0  0  0  0  0  0  0  0
   25.7736  -21.5445  -16.0078 C   0  0  0  0  0  0  0  0  0  0  0  0
   24.5957  -20.9476  -16.7417 C   0  0  2  0  0  0  0  0  0  0  0  0
   25.1688  -19.8040  -17.4755 N   0  0  0  0  0  0  0  0  0  0  0  0
   23.5811  -20.3905  -15.7854 C   0  0  0  0  0  0  0  0  0  0  0  0
   23.9175  -19.3820  -15.0665 O   0  0  0  0  0  0  0  0  0  0  0  0
   28.9850  -24.2768  -17.9557 O   0  0  0  0  0  0  0  0  0  0  0  0
   18.2276  -19.0667  -20.1367 C   0  0  0  0  0  0  0  0  0  0  0  0
   18.9244  -18.9977  -18.9333 C   0  0  0  0  0  0  0  0  0  0  0  0
   20.2426  -18.6252  -18.8912 C   0  0  0  0  0  0  0  0  0  0  0  0
   20.9332  -18.5567  -17.7002 C   0  0  0  0  0  0  0  0  0  0  0  0
   20.3203  -18.8641  -16.4801 C   0  0  0  0  0  0  0  0  0  0  0  0
   21.0577  -18.8129  -15.2099 C   0  0  1  0  0  0  0  0  0  0  0  0
   21.3420  -20.1901  -14.7133 N   0  0  0  0  0  0  0  0  0  0  0  0
   22.2884  -20.8784  -15.6098 C   0  0  0  0  0  0  0  0  0  0  0  0
   20.1073  -20.9947  -14.6175 O   0  0  0  0  0  0  0  0  0  0  0  0
   19.0560  -20.7515  -13.7618 C   0  0  0  0  0  0  0  0  0  0  0  0
   18.9848  -19.2379  -16.5589 C   0  0  0  0  0  0  0  0  0  0  0  0
   18.3032  -19.3052  -17.7366 O   0  0  0  0  0  0  0  0  0  0  0  0
  2  1  1  6
  2  3  1  0
  4  3  1  0
  5  2  1  0
  6  5  2  0
  8  7  1  0
  9  8  2  0
 10  8  1  0
 11 12  1  0
 11 10  1  0
 12 13  1  0
 14 13  1  1
 14 15  1  0
 15  5  1  0
 16 14  1  0
 16 17  2  0
 18 19  1  0
 19 29  2  0
 20 21  2  0
 20 19  1  0
 21 22  1  0
 22 23  1  0
 22 28  2  0
 24 23  1  1
 24 25  1  0
 25 16  1  0
 26 24  1  0
 27 26  1  0
 29 28  1  0
 30 26  2  0
M  END
$$$$
