CRY.pdb
     RDKit          3D

 30 30  0  0  1  0  0  0  0  0999 V2000
   29.1188  -22.1902  -18.2623 N   0  0  0  0  0  0  0  0  0  0  0  0
   28.2181  -21.1344  -17.8351 C   0  0  1  0  0  0  0  0  0  0  0  0
   27.4162  -20.6969  -19.0327 C   0  0  0  0  0  0  0  0  0  0  0  0
   26.1975  -19.4743  -18.4754 S   0  0  0  0  0  0  0  0  0  0  0  0
   27.3475  -21.6840  -16.7537 C   0  0  0  0  0  0  0  0  0  0  0  0
   26.7650  -22.7989  -16.8838 O   0  0  0  0  0  0  0  0  0  0  0  0
   25.7118  -19.6532   -9.1119 N   0  0  0  0  0  0  0  0  0  0  0  0
   24.9927  -20.8894   -9.0645 C   0  0  0  0  0  0  0  0  0  0  0  0
   24.0214  -21.0229   -8.2575 N   0  0  0  0  0  0  0  0  0  0  0  0
   25.4097  -21.9174   -9.9372 N   0  0  0  0  0  0  0  0  0  0  0  0
   26.2868  -21.6653  -11.0334 C   0  0  0  0  0  0  0  0  0  0  0  0
   25.6940  -20.7638  -12.1062 C   0  0  0  0  0  0  0  0  0  0  0  0
   26.6126  -20.6615  -13.2703 C   0  0  0  0  0  0  0  0  0  0  0  0
   26.2215  -21.4671  -14.4870 C   0  0  2  0  0  0  0  0  0  0  0  0
   27.1335  -20.9915  -15.5438 N   0  0  0  0  0  0  0  0  0  0  0  0
   24.8256  -21.1405  -14.9332 C   0  0  0  0  0  0  0  0  0  0  0  0
   24.5887  -19.9527  -15.3576 O   0  0  0  0  0  0  0  0  0  0  0  0
   23.5248  -21.9350   -8.1715 O   0  0  0  0  0  0  0  0  0  0  0  0
   16.4453  -20.7305  -17.3325 C   0  0  0  0  0  0  0  0  0  0  0  0
   17.7401  -21.1661  -17.0640 C   0  0  0  0  0  0  0  0  0  0  0  0
   17.9861  -22.1509  -16.1431 C   0  0  0  0  0  0  0  0  0  0  0  0
   19.2678  -22.5828  -15.8766 C   0  0  0  0  0  0  0  0  0  0  0  0
   20.3758  -22.0358  -16.5337 C   0  0  0  0  0  0  0  0  0  0  0  0
   21.7458  -22.4779  -16.2380 C   0  0  1  0  0  0  0  0  0  0  0  0
   22.3919  -21.5605  -15.2556 N   0  0  0  0  0  0  0  0  0  0  0  0
   23.7515  -22.0271  -14.9284 C   0  0  0  0  0  0  0  0  0  0  0  0
   21.6081  -21.4678  -14.0075 O   0  0  0  0  0  0  0  0  0  0  0  0
   20.6317  -20.5337  -13.7412 C   0  0  0  0  0  0  0  0  0  0  0  0
   20.0910  -21.0404  -17.4597 C   0  0  0  0  0  0  0  0  0  0  0  0
   18.8239  -20.6144  -17.7224 O   0  0  0  0  0  0  0  0  0  0  0  0
  2  1  1  6
  2  3  1  0
  4  3  1  0
  5  2  1  0
  6  5  2  0
  8  7  1  0
  9  8  2  0
 10  8  1  0
 11 12  1  0
 11 10  1  0
 12 13  1  0
 14 13  1  1
 14 15  1  0
 15  5  1  0
 16 14  1  0
 16 17  2  0
 18 19  1  0
 19 29  2  0
 20 21  2  0
 20 19  1  0
 21 22  1  0
 22 23  1  0
 22 28  2  0
 24 23  1  6
 24 25  1  0
 25 16  1  0
 26 24  1  0
 27 26  1  0
 29 28  1  0
 30 26  2  0
M  END
$$$$
