CRY.pdb
     RDKit          3D

 30 30  0  0  1  0  0  0  0  0999 V2000
   28.0671  -20.5021  -17.3205 N   0  0  0  0  0  0  0  0  0  0  0  0
   26.7442  -20.1944  -16.8070 C   0  0  1  0  0  0  0  0  0  0  0  0
   25.8419  -19.9256  -17.9827 C   0  0  0  0  0  0  0  0  0  0  0  0
   26.6323  -18.6643  -19.0194 S   0  0  0  0  0  0  0  0  0  0  0  0
   26.2795  -21.3654  -16.0059 C   0  0  0  0  0  0  0  0  0  0  0  0
   26.6642  -22.5393  -16.2765 O   0  0  0  0  0  0  0  0  0  0  0  0
   26.5816  -19.5756   -8.9017 N   0  0  0  0  0  0  0  0  0  0  0  0
   25.6356  -20.6370   -9.0637 C   0  0  0  0  0  0  0  0  0  0  0  0
   24.6134  -20.6903   -8.3122 N   0  0  0  0  0  0  0  0  0  0  0  0
   25.8938  -21.5889  -10.0734 N   0  0  0  0  0  0  0  0  0  0  0  0
   27.0069  -21.4667  -10.9570 C   0  0  0  0  0  0  0  0  0  0  0  0
   26.6221  -21.3330  -12.4230 C   0  0  0  0  0  0  0  0  0  0  0  0
   25.2560  -21.8701  -12.6566 C   0  0  0  0  0  0  0  0  0  0  0  0
   24.9697  -22.3447  -14.0620 C   0  0  2  0  0  0  0  0  0  0  0  0
   25.3950  -21.2208  -14.9168 N   0  0  0  0  0  0  0  0  0  0  0  0
   23.4970  -22.5326  -14.2861 C   0  0  0  0  0  0  0  0  0  0  0  0
   23.1206  -23.1535  -15.3444 O   0  0  0  0  0  0  0  0  0  0  0  0
   23.9015  -21.4408   -8.4375 O   0  0  0  0  0  0  0  0  0  0  0  0
   20.2868  -16.4834  -18.1331 C   0  0  0  0  0  0  0  0  0  0  0  0
   20.8426  -17.2720  -17.1293 C   0  0  0  0  0  0  0  0  0  0  0  0
   22.1880  -17.5295  -17.0855 C   0  0  0  0  0  0  0  0  0  0  0  0
   22.7391  -18.3102  -16.0920 C   0  0  0  0  0  0  0  0  0  0  0  0
   21.9507  -18.8754  -15.0833 C   0  0  0  0  0  0  0  0  0  0  0  0
   22.5303  -19.7257  -14.0341 C   0  0  1  0  0  0  0  0  0  0  0  0
   21.6675  -20.9173  -13.7892 N   0  0  0  0  0  0  0  0  0  0  0  0
   22.4903  -22.0874  -13.4327 C   0  0  0  0  0  0  0  0  0  0  0  0
   20.8575  -21.2504  -14.9783 O   0  0  0  0  0  0  0  0  0  0  0  0
   21.3514  -21.6738  -16.1921 C   0  0  0  0  0  0  0  0  0  0  0  0
   20.5923  -18.5950  -15.1579 C   0  0  0  0  0  0  0  0  0  0  0  0
   20.0486  -17.8231  -16.1401 O   0  0  0  0  0  0  0  0  0  0  0  0
  2  1  1  6
  2  3  1  0
  4  3  1  0
  5  2  1  0
  6  5  2  0
  8  7  1  0
  9  8  2  0
 10  8  1  0
 11 12  1  0
 11 10  1  0
 12 13  1  0
 14 13  1  1
 14 15  1  0
 15  5  1  0
 16 14  1  0
 16 17  2  0
 18 19  1  0
 19 29  2  0
 20 21  2  0
 20 19  1  0
 21 22  1  0
 22 23  1  0
 22 28  2  0
 24 23  1  1
 24 25  1  0
 25 16  1  0
 26 24  1  0
 27 26  1  0
 29 28  1  0
 30 26  2  0
M  END
$$$$
