CRY.pdb
     RDKit          3D

 30 30  0  0  1  0  0  0  0  0999 V2000
   22.3299  -10.1507  -15.9718 N   0  0  0  0  0  0  0  0  0  0  0  0
   20.9733  -10.6343  -15.7871 C   0  0  1  0  0  0  0  0  0  0  0  0
   21.0506  -12.0088  -15.1758 C   0  0  0  0  0  0  0  0  0  0  0  0
   21.4744  -13.1844  -16.4906 S   0  0  0  0  0  0  0  0  0  0  0  0
   20.2597   -9.6700  -14.8983 C   0  0  0  0  0  0  0  0  0  0  0  0
   20.7671   -9.2866  -13.8053 O   0  0  0  0  0  0  0  0  0  0  0  0
   15.9472   -2.7581  -17.2344 N   0  0  0  0  0  0  0  0  0  0  0  0
   17.2941   -3.1096  -16.9028 C   0  0  0  0  0  0  0  0  0  0  0  0
   18.2592   -2.4750  -17.4305 N   0  0  0  0  0  0  0  0  0  0  0  0
   17.4829   -4.1656  -15.9855 N   0  0  0  0  0  0  0  0  0  0  0  0
   16.4436   -5.0939  -15.6812 C   0  0  0  0  0  0  0  0  0  0  0  0
   16.8362   -6.1497  -14.6584 C   0  0  0  0  0  0  0  0  0  0  0  0
   17.8148   -7.1047  -15.2412 C   0  0  0  0  0  0  0  0  0  0  0  0
   18.2285   -8.2483  -14.3448 C   0  0  2  0  0  0  0  0  0  0  0  0
   18.9942   -9.1439  -15.2316 N   0  0  0  0  0  0  0  0  0  0  0  0
   17.0365   -9.0236  -13.8625 C   0  0  0  0  0  0  0  0  0  0  0  0
   16.3616   -9.6933  -14.7244 O   0  0  0  0  0  0  0  0  0  0  0  0
   19.2293   -2.5863  -17.0667 O   0  0  0  0  0  0  0  0  0  0  0  0
   10.7874  -13.1744   -9.2742 C   0  0  0  0  0  0  0  0  0  0  0  0
   11.9393  -12.4894   -9.6514 C   0  0  0  0  0  0  0  0  0  0  0  0
   12.9221  -13.0959  -10.3894 C   0  0  0  0  0  0  0  0  0  0  0  0
   14.0628  -12.4184  -10.7632 C   0  0  0  0  0  0  0  0  0  0  0  0
   14.2698  -11.0810  -10.4064 C   0  0  0  0  0  0  0  0  0  0  0  0
   15.4936  -10.3606  -10.7845 C   0  0  1  0  0  0  0  0  0  0  0  0
   15.3957   -9.8612  -12.1864 N   0  0  0  0  0  0  0  0  0  0  0  0
   16.5949   -9.0814  -12.5428 C   0  0  0  0  0  0  0  0  0  0  0  0
   14.2029   -9.0110  -12.3743 O   0  0  0  0  0  0  0  0  0  0  0  0
   12.9593   -9.4505  -12.7703 C   0  0  0  0  0  0  0  0  0  0  0  0
   13.2550  -10.4974   -9.6588 C   0  0  0  0  0  0  0  0  0  0  0  0
   12.1279  -11.1678   -9.2900 O   0  0  0  0  0  0  0  0  0  0  0  0
  2  1  1  1
  2  3  1  0
  4  3  1  0
  5  2  1  0
  6  5  2  0
  8  7  1  0
  9  8  2  0
 10  8  1  0
 11 12  1  0
 11 10  1  0
 12 13  1  0
 14 13  1  6
 14 15  1  0
 15  5  1  0
 16 14  1  0
 16 17  2  0
 18 19  1  0
 19 29  2  0
 20 21  2  0
 20 19  1  0
 21 22  1  0
 22 23  1  0
 22 28  2  0
 24 23  1  6
 24 25  1  0
 25 16  1  0
 26 24  1  0
 27 26  1  0
 29 28  1  0
 30 26  2  0
M  END
$$$$
