CRY.pdb
     RDKit          3D

 30 30  0  0  1  0  0  0  0  0999 V2000
   33.8238  -38.1848  -13.3333 N   0  0  0  0  0  0  0  0  0  0  0  0
   33.9374  -37.8071  -14.7308 C   0  0  1  0  0  0  0  0  0  0  0  0
   33.7415  -39.0471  -15.5632 C   0  0  0  0  0  0  0  0  0  0  0  0
   35.2048  -40.0988  -15.3560 S   0  0  0  0  0  0  0  0  0  0  0  0
   32.8944  -36.7771  -15.0137 C   0  0  0  0  0  0  0  0  0  0  0  0
   31.7256  -36.8805  -14.5419 O   0  0  0  0  0  0  0  0  0  0  0  0
   34.9857  -28.8887  -17.7217 N   0  0  0  0  0  0  0  0  0  0  0  0
   34.6626  -29.8950  -18.6864 C   0  0  0  0  0  0  0  0  0  0  0  0
   35.1815  -29.8476  -19.8444 N   0  0  0  0  0  0  0  0  0  0  0  0
   33.7652  -30.9100  -18.2908 N   0  0  0  0  0  0  0  0  0  0  0  0
   33.2330  -30.9717  -16.9688 C   0  0  0  0  0  0  0  0  0  0  0  0
   32.2759  -32.1322  -16.7401 C   0  0  0  0  0  0  0  0  0  0  0  0
   33.0224  -33.3578  -16.3528 C   0  0  0  0  0  0  0  0  0  0  0  0
   32.1769  -34.5739  -16.0552 C   0  0  2  0  0  0  0  0  0  0  0  0
   33.1594  -35.6472  -15.8153 N   0  0  0  0  0  0  0  0  0  0  0  0
   31.3659  -34.9818  -17.2512 C   0  0  0  0  0  0  0  0  0  0  0  0
   31.9656  -35.5876  -18.2105 O   0  0  0  0  0  0  0  0  0  0  0  0
   34.9454  -30.5660  -20.5613 O   0  0  0  0  0  0  0  0  0  0  0  0
   26.9464  -35.7746  -24.5084 C   0  0  0  0  0  0  0  0  0  0  0  0
   27.7116  -35.5249  -23.3724 C   0  0  0  0  0  0  0  0  0  0  0  0
   29.0350  -35.8759  -23.3109 C   0  0  0  0  0  0  0  0  0  0  0  0
   29.7933  -35.6290  -22.1866 C   0  0  0  0  0  0  0  0  0  0  0  0
   29.2470  -35.0092  -21.0570 C   0  0  0  0  0  0  0  0  0  0  0  0
   30.0456  -34.7628  -19.8482 C   0  0  2  0  0  0  0  0  0  0  0  0
   29.3050  -35.2054  -18.6317 N   0  0  0  0  0  0  0  0  0  0  0  0
   30.0005  -34.7584  -17.4112 C   0  0  0  0  0  0  0  0  0  0  0  0
   29.1673  -36.6752  -18.5888 O   0  0  0  0  0  0  0  0  0  0  0  0
   29.0518  -37.5020  -19.6841 C   0  0  0  0  0  0  0  0  0  0  0  0
   27.9042  -34.6672  -21.1529 C   0  0  0  0  0  0  0  0  0  0  0  0
   27.1556  -34.9114  -22.2646 O   0  0  0  0  0  0  0  0  0  0  0  0
  2  1  1  1
  2  3  1  0
  4  3  1  0
  5  2  1  0
  6  5  2  0
  8  7  1  0
  9  8  2  0
 10  8  1  0
 11 12  1  0
 11 10  1  0
 12 13  1  0
 14 13  1  6
 14 15  1  0
 15  5  1  0
 16 14  1  0
 16 17  2  0
 18 19  1  0
 19 29  2  0
 20 21  2  0
 20 19  1  0
 21 22  1  0
 22 23  1  0
 22 28  2  0
 24 23  1  6
 24 25  1  0
 25 16  1  0
 26 24  1  0
 27 26  1  0
 29 28  1  0
 30 26  2  0
M  END
$$$$
