CRY.pdb
     RDKit          3D

 30 30  0  0  1  0  0  0  0  0999 V2000
   24.7859  -16.3514  -19.7735 N   0  0  0  0  0  0  0  0  0  0  0  0
   24.4357  -16.3032  -18.3652 C   0  0  1  0  0  0  0  0  0  0  0  0
   23.2088  -15.4412  -18.2221 C   0  0  0  0  0  0  0  0  0  0  0  0
   22.7745  -15.3712  -16.4624 S   0  0  0  0  0  0  0  0  0  0  0  0
   24.1888  -17.7022  -17.9059 C   0  0  0  0  0  0  0  0  0  0  0  0
   23.3684  -18.4544  -18.5063 O   0  0  0  0  0  0  0  0  0  0  0  0
   27.3115  -24.6531  -17.8430 N   0  0  0  0  0  0  0  0  0  0  0  0
   26.4031  -24.9309  -16.7729 C   0  0  0  0  0  0  0  0  0  0  0  0
   26.0534  -26.1288  -16.5380 N   0  0  0  0  0  0  0  0  0  0  0  0
   25.9341  -23.8345  -16.0177 N   0  0  0  0  0  0  0  0  0  0  0  0
   26.3893  -22.5043  -16.2583 C   0  0  0  0  0  0  0  0  0  0  0  0
   25.9013  -21.4884  -15.2361 C   0  0  0  0  0  0  0  0  0  0  0  0
   25.9035  -20.1199  -15.8160 C   0  0  0  0  0  0  0  0  0  0  0  0
   24.5558  -19.5860  -16.2415 C   0  0  2  0  0  0  0  0  0  0  0  0
   24.8530  -18.2490  -16.7882 N   0  0  0  0  0  0  0  0  0  0  0  0
   23.6499  -19.3851  -15.0612 C   0  0  0  0  0  0  0  0  0  0  0  0
   24.0907  -18.6990  -14.0703 O   0  0  0  0  0  0  0  0  0  0  0  0
   25.3574  -26.3417  -15.7922 O   0  0  0  0  0  0  0  0  0  0  0  0
   17.2106  -15.4982  -15.5360 C   0  0  0  0  0  0  0  0  0  0  0  0
   18.2798  -16.1860  -14.9686 C   0  0  0  0  0  0  0  0  0  0  0  0
   18.7818  -15.8396  -13.7413 C   0  0  0  0  0  0  0  0  0  0  0  0
   19.8405  -16.5201  -13.1788 C   0  0  0  0  0  0  0  0  0  0  0  0
   20.4509  -17.5951  -13.8348 C   0  0  0  0  0  0  0  0  0  0  0  0
   21.5933  -18.3103  -13.2489 C   0  0  1  0  0  0  0  0  0  0  0  0
   21.6009  -19.7353  -13.6892 N   0  0  0  0  0  0  0  0  0  0  0  0
   22.3544  -19.8840  -14.9474 C   0  0  0  0  0  0  0  0  0  0  0  0
   20.2297  -20.2443  -13.8934 O   0  0  0  0  0  0  0  0  0  0  0  0
   19.6897  -20.6323  -15.0993 C   0  0  0  0  0  0  0  0  0  0  0  0
   19.9180  -17.9192  -15.0759 C   0  0  0  0  0  0  0  0  0  0  0  0
   18.8716  -17.2462  -15.6308 O   0  0  0  0  0  0  0  0  0  0  0  0
  2  1  1  6
  2  3  1  0
  4  3  1  0
  5  2  1  0
  6  5  2  0
  8  7  1  0
  9  8  2  0
 10  8  1  0
 11 12  1  0
 11 10  1  0
 12 13  1  0
 14 13  1  1
 14 15  1  0
 15  5  1  0
 16 14  1  0
 16 17  2  0
 18 19  1  0
 19 29  2  0
 20 21  2  0
 20 19  1  0
 21 22  1  0
 22 23  1  0
 22 28  2  0
 24 23  1  1
 24 25  1  0
 25 16  1  0
 26 24  1  0
 27 26  1  0
 29 28  1  0
 30 26  2  0
M  END
$$$$
