CRY.pdb
     RDKit          3D

 30 30  0  0  1  0  0  0  0  0999 V2000
   42.7015  -13.0715  -10.6996 N   0  0  0  0  0  0  0  0  0  0  0  0
   42.0473  -11.8328  -11.0817 C   0  0  1  0  0  0  0  0  0  0  0  0
   40.7199  -12.1822  -11.7019 C   0  0  0  0  0  0  0  0  0  0  0  0
   41.0298  -12.8021  -13.3782 S   0  0  0  0  0  0  0  0  0  0  0  0
   41.8848  -11.0017   -9.8521 C   0  0  0  0  0  0  0  0  0  0  0  0
   41.4126  -11.4924   -8.7865 O   0  0  0  0  0  0  0  0  0  0  0  0
   46.0374   -8.1980   -4.7462 N   0  0  0  0  0  0  0  0  0  0  0  0
   45.6246   -9.5666   -4.6819 C   0  0  0  0  0  0  0  0  0  0  0  0
   46.4669  -10.4651   -4.3726 N   0  0  0  0  0  0  0  0  0  0  0  0
   44.2728   -9.8517   -4.9710 N   0  0  0  0  0  0  0  0  0  0  0  0
   43.5657   -9.1758   -6.0092 C   0  0  0  0  0  0  0  0  0  0  0  0
   44.2971   -9.1529   -7.3432 C   0  0  0  0  0  0  0  0  0  0  0  0
   43.5448   -8.3455   -8.3389 C   0  0  0  0  0  0  0  0  0  0  0  0
   42.1296   -8.7969   -8.6143 C   0  0  2  0  0  0  0  0  0  0  0  0
   42.2469   -9.6389   -9.8193 N   0  0  0  0  0  0  0  0  0  0  0  0
   41.2464   -7.6373   -8.9744 C   0  0  0  0  0  0  0  0  0  0  0  0
   41.5551   -6.9396  -10.0063 O   0  0  0  0  0  0  0  0  0  0  0  0
   46.1894  -11.4693   -4.3561 O   0  0  0  0  0  0  0  0  0  0  0  0
   35.4755   -1.0384   -9.1956 C   0  0  0  0  0  0  0  0  0  0  0  0
   36.1341   -2.2137   -8.8447 C   0  0  0  0  0  0  0  0  0  0  0  0
   37.0121   -2.2541   -7.7931 C   0  0  0  0  0  0  0  0  0  0  0  0
   37.6647   -3.4173   -7.4450 C   0  0  0  0  0  0  0  0  0  0  0  0
   37.4609   -4.6096   -8.1490 C   0  0  0  0  0  0  0  0  0  0  0  0
   38.1700   -5.8472   -7.7951 C   0  0  1  0  0  0  0  0  0  0  0  0
   39.3804   -6.0200   -8.6491 N   0  0  0  0  0  0  0  0  0  0  0  0
   40.1046   -7.2491   -8.2775 C   0  0  0  0  0  0  0  0  0  0  0  0
   40.2989   -4.8705   -8.5222 O   0  0  0  0  0  0  0  0  0  0  0  0
   41.1660   -4.6486   -7.4756 C   0  0  0  0  0  0  0  0  0  0  0  0
   36.5658   -4.5333   -9.2084 C   0  0  0  0  0  0  0  0  0  0  0  0
   35.9212   -3.3832   -9.5515 O   0  0  0  0  0  0  0  0  0  0  0  0
  2  1  1  1
  2  3  1  0
  4  3  1  0
  5  2  1  0
  6  5  2  0
  8  7  1  0
  9  8  2  0
 10  8  1  0
 11 12  1  0
 11 10  1  0
 12 13  1  0
 14 13  1  6
 14 15  1  0
 15  5  1  0
 16 14  1  0
 16 17  2  0
 18 19  1  0
 19 29  2  0
 20 21  2  0
 20 19  1  0
 21 22  1  0
 22 23  1  0
 22 28  2  0
 24 23  1  6
 24 25  1  0
 25 16  1  0
 26 24  1  0
 27 26  1  0
 29 28  1  0
 30 26  2  0
M  END
$$$$
