CRY.pdb
     RDKit          3D

 30 30  0  0  1  0  0  0  0  0999 V2000
   26.8878  -15.2878  -18.1714 N   0  0  0  0  0  0  0  0  0  0  0  0
   26.1340  -15.6910  -16.9976 C   0  0  1  0  0  0  0  0  0  0  0  0
   25.5421  -14.4517  -16.3790 C   0  0  0  0  0  0  0  0  0  0  0  0
   26.8520  -13.6080  -15.4502 S   0  0  0  0  0  0  0  0  0  0  0  0
   25.0786  -16.6509  -17.4379 C   0  0  0  0  0  0  0  0  0  0  0  0
   24.4601  -16.4904  -18.5292 O   0  0  0  0  0  0  0  0  0  0  0  0
   25.9461  -24.7635  -15.9740 N   0  0  0  0  0  0  0  0  0  0  0  0
   26.4601  -23.7122  -16.7975 C   0  0  0  0  0  0  0  0  0  0  0  0
   27.6448  -23.7870  -17.2487 N   0  0  0  0  0  0  0  0  0  0  0  0
   25.6039  -22.6241  -17.0718 N   0  0  0  0  0  0  0  0  0  0  0  0
   24.2704  -22.5693  -16.5683 C   0  0  0  0  0  0  0  0  0  0  0  0
   23.5158  -21.3046  -16.9503 C   0  0  0  0  0  0  0  0  0  0  0  0
   24.3472  -20.1002  -16.6902 C   0  0  0  0  0  0  0  0  0  0  0  0
   23.7359  -18.7807  -17.0997 C   0  0  2  0  0  0  0  0  0  0  0  0
   24.7223  -17.7748  -16.6638 N   0  0  0  0  0  0  0  0  0  0  0  0
   22.4680  -18.5074  -16.3433 C   0  0  0  0  0  0  0  0  0  0  0  0
   22.5548  -18.2585  -15.0873 O   0  0  0  0  0  0  0  0  0  0  0  0
   28.0536  -23.0018  -17.7983 O   0  0  0  0  0  0  0  0  0  0  0  0
   21.4463  -11.9447  -16.9297 C   0  0  0  0  0  0  0  0  0  0  0  0
   20.8937  -13.2224  -16.9079 C   0  0  0  0  0  0  0  0  0  0  0  0
   21.2326  -14.1635  -17.8448 C   0  0  0  0  0  0  0  0  0  0  0  0
   20.6859  -15.4288  -17.8240 C   0  0  0  0  0  0  0  0  0  0  0  0
   19.7604  -15.8101  -16.8460 C   0  0  0  0  0  0  0  0  0  0  0  0
   19.1589  -17.1509  -16.8318 C   0  0  2  0  0  0  0  0  0  0  0  0
   20.0242  -18.1054  -16.0804 N   0  0  0  0  0  0  0  0  0  0  0  0
   21.1888  -18.4986  -16.8941 C   0  0  0  0  0  0  0  0  0  0  0  0
   19.2796  -19.3219  -15.6972 O   0  0  0  0  0  0  0  0  0  0  0  0
   18.2247  -19.3713  -14.8134 C   0  0  0  0  0  0  0  0  0  0  0  0
   19.4391  -14.8327  -15.9128 C   0  0  0  0  0  0  0  0  0  0  0  0
   19.9801  -13.5825  -15.9341 O   0  0  0  0  0  0  0  0  0  0  0  0
  2  1  1  6
  2  3  1  0
  4  3  1  0
  5  2  1  0
  6  5  2  0
  8  7  1  0
  9  8  2  0
 10  8  1  0
 11 12  1  0
 11 10  1  0
 12 13  1  0
 14 13  1  1
 14 15  1  0
 15  5  1  0
 16 14  1  0
 16 17  2  0
 18 19  1  0
 19 29  2  0
 20 21  2  0
 20 19  1  0
 21 22  1  0
 22 23  1  0
 22 28  2  0
 24 23  1  1
 24 25  1  0
 25 16  1  0
 26 24  1  0
 27 26  1  0
 29 28  1  0
 30 26  2  0
M  END
$$$$
