CRY.pdb
     RDKit          3D

 30 30  0  0  1  0  0  0  0  0999 V2000
   27.2690  -19.7701  -16.9000 N   0  0  0  0  0  0  0  0  0  0  0  0
   26.2573  -20.6194  -16.2970 C   0  0  1  0  0  0  0  0  0  0  0  0
   26.9346  -21.4899  -15.2711 C   0  0  0  0  0  0  0  0  0  0  0  0
   27.7561  -22.8508  -16.1447 S   0  0  0  0  0  0  0  0  0  0  0  0
   25.2240  -19.7352  -15.6808 C   0  0  0  0  0  0  0  0  0  0  0  0
   25.5478  -18.6817  -15.0607 O   0  0  0  0  0  0  0  0  0  0  0  0
   20.9291  -17.9894  -20.9391 N   0  0  0  0  0  0  0  0  0  0  0  0
   20.3504  -18.8371  -19.9420 C   0  0  0  0  0  0  0  0  0  0  0  0
   19.7007  -19.8702  -20.2929 N   0  0  0  0  0  0  0  0  0  0  0  0
   20.5372  -18.4726  -18.5913 N   0  0  0  0  0  0  0  0  0  0  0  0
   21.2940  -17.3222  -18.2192 C   0  0  0  0  0  0  0  0  0  0  0  0
   22.2524  -17.5593  -17.0615 C   0  0  0  0  0  0  0  0  0  0  0  0
   21.9140  -18.8206  -16.3517 C   0  0  0  0  0  0  0  0  0  0  0  0
   22.7989  -19.1702  -15.1782 C   0  0  2  0  0  0  0  0  0  0  0  0
   23.8470  -20.0297  -15.7593 N   0  0  0  0  0  0  0  0  0  0  0  0
   22.0627  -20.0003  -14.1666 C   0  0  0  0  0  0  0  0  0  0  0  0
   21.9049  -21.2505  -14.4097 O   0  0  0  0  0  0  0  0  0  0  0  0
   19.2814  -20.5014  -19.5778 O   0  0  0  0  0  0  0  0  0  0  0  0
   17.7817  -23.2485   -7.2025 C   0  0  0  0  0  0  0  0  0  0  0  0
   18.5018  -22.4222   -8.0610 C   0  0  0  0  0  0  0  0  0  0  0  0
   19.8557  -22.5634   -8.2200 C   0  0  0  0  0  0  0  0  0  0  0  0
   20.5695  -21.7457   -9.0698 C   0  0  0  0  0  0  0  0  0  0  0  0
   19.9448  -20.7344   -9.8085 C   0  0  0  0  0  0  0  0  0  0  0  0
   20.7043  -19.8464  -10.6998 C   0  0  1  0  0  0  0  0  0  0  0  0
   20.7826  -20.4241  -12.0726 N   0  0  0  0  0  0  0  0  0  0  0  0
   21.5306  -19.5253  -12.9703 C   0  0  0  0  0  0  0  0  0  0  0  0
   19.4382  -20.6514  -12.6398 O   0  0  0  0  0  0  0  0  0  0  0  0
   18.7433  -21.8398  -12.6044 C   0  0  0  0  0  0  0  0  0  0  0  0
   18.5730  -20.6186   -9.6234 C   0  0  0  0  0  0  0  0  0  0  0  0
   17.8685  -21.4274   -8.7835 O   0  0  0  0  0  0  0  0  0  0  0  0
  2  1  1  1
  2  3  1  0
  4  3  1  0
  5  2  1  0
  6  5  2  0
  8  7  1  0
  9  8  2  0
 10  8  1  0
 11 12  1  0
 11 10  1  0
 12 13  1  0
 14 13  1  6
 14 15  1  0
 15  5  1  0
 16 14  1  0
 16 17  2  0
 18 19  1  0
 19 29  2  0
 20 21  2  0
 20 19  1  0
 21 22  1  0
 22 23  1  0
 22 28  2  0
 24 23  1  1
 24 25  1  0
 25 16  1  0
 26 24  1  0
 27 26  1  0
 29 28  1  0
 30 26  2  0
M  END
$$$$
