CRY.pdb
     RDKit          3D

 30 30  0  0  1  0  0  0  0  0999 V2000
   24.3669  -15.8629  -17.7567 N   0  0  0  0  0  0  0  0  0  0  0  0
   23.8645  -16.0865  -16.4128 C   0  0  1  0  0  0  0  0  0  0  0  0
   22.6644  -15.1984  -16.2132 C   0  0  0  0  0  0  0  0  0  0  0  0
   22.0972  -15.3983  -14.5018 S   0  0  0  0  0  0  0  0  0  0  0  0
   23.5129  -17.5322  -16.2893 C   0  0  0  0  0  0  0  0  0  0  0  0
   22.7887  -18.1070  -17.1521 O   0  0  0  0  0  0  0  0  0  0  0  0
   26.6557  -24.3945  -16.9009 N   0  0  0  0  0  0  0  0  0  0  0  0
   25.7690  -24.8940  -15.8950 C   0  0  0  0  0  0  0  0  0  0  0  0
   25.4103  -26.1119  -15.9194 N   0  0  0  0  0  0  0  0  0  0  0  0
   25.3311  -23.9867  -14.9064 N   0  0  0  0  0  0  0  0  0  0  0  0
   25.3420  -22.5765  -15.1203 C   0  0  0  0  0  0  0  0  0  0  0  0
   24.7282  -21.7730  -13.9833 C   0  0  0  0  0  0  0  0  0  0  0  0
   24.7966  -20.3171  -14.2748 C   0  0  0  0  0  0  0  0  0  0  0  0
   23.6343  -19.7494  -15.0553 C   0  0  2  0  0  0  0  0  0  0  0  0
   23.9674  -18.3214  -15.2123 N   0  0  0  0  0  0  0  0  0  0  0  0
   22.3596  -19.8175  -14.2647 C   0  0  0  0  0  0  0  0  0  0  0  0
   22.3619  -19.3445  -13.0717 O   0  0  0  0  0  0  0  0  0  0  0  0
   24.7990  -26.4999  -15.1701 O   0  0  0  0  0  0  0  0  0  0  0  0
   19.4109  -14.1733  -13.6572 C   0  0  0  0  0  0  0  0  0  0  0  0
   19.2593  -15.5473  -13.8232 C   0  0  0  0  0  0  0  0  0  0  0  0
   19.0578  -16.3785  -12.7523 C   0  0  0  0  0  0  0  0  0  0  0  0
   18.9078  -17.7390  -12.9157 C   0  0  0  0  0  0  0  0  0  0  0  0
   18.9543  -18.3335  -14.1818 C   0  0  0  0  0  0  0  0  0  0  0  0
   18.8159  -19.7858  -14.3595 C   0  0  2  0  0  0  0  0  0  0  0  0
   20.0068  -20.4966  -13.8109 N   0  0  0  0  0  0  0  0  0  0  0  0
   21.1582  -20.3549  -14.7204 C   0  0  0  0  0  0  0  0  0  0  0  0
   19.7327  -21.9340  -13.6114 O   0  0  0  0  0  0  0  0  0  0  0  0
   18.8189  -22.4608  -12.7260 C   0  0  0  0  0  0  0  0  0  0  0  0
   19.1602  -17.4629  -15.2443 C   0  0  0  0  0  0  0  0  0  0  0  0
   19.3082  -16.1184  -15.0818 O   0  0  0  0  0  0  0  0  0  0  0  0
  2  1  1  6
  2  3  1  0
  4  3  1  0
  5  2  1  0
  6  5  2  0
  8  7  1  0
  9  8  2  0
 10  8  1  0
 11 12  1  0
 11 10  1  0
 12 13  1  0
 14 13  1  1
 14 15  1  0
 15  5  1  0
 16 14  1  0
 16 17  2  0
 18 19  1  0
 19 29  2  0
 20 21  2  0
 20 19  1  0
 21 22  1  0
 22 23  1  0
 22 28  2  0
 24 23  1  1
 24 25  1  0
 25 16  1  0
 26 24  1  0
 27 26  1  0
 29 28  1  0
 30 26  2  0
M  END
$$$$
