QWI.pdb
     RDKit          3D

 32 33  0  0  1  0  0  0  0  0999 V2000
   11.2888  -16.0941   16.7145 N   0  0  0  0  0  0  0  0  0  0  0  0
   11.3502  -17.4702   17.0496 C   0  0  0  0  0  0  0  0  0  0  0  0
   12.0298  -18.2435   16.3470 O   0  0  0  0  0  0  0  0  0  0  0  0
   10.6162  -17.9739   18.2197 C   0  0  0  0  0  0  0  0  0  0  0  0
   10.9199  -17.1675   19.4382 C   0  0  0  0  0  0  0  0  0  0  0  0
   10.9466  -17.9770   20.6924 C   0  0  2  0  0  0  0  0  0  0  0  0
    9.9018  -18.9815   20.5773 N   0  0  0  0  0  0  0  0  0  0  0  0
   10.6538  -17.0729   21.8685 C   0  0  0  0  0  0  0  0  0  0  0  0
   11.4273  -16.1380   22.1439 O   0  0  0  0  0  0  0  0  0  0  0  0
    9.4999  -17.3128   22.6331 N   0  0  0  0  0  0  0  0  0  0  0  0
    9.1494  -16.5273   23.8056 C   0  0  1  0  0  0  0  0  0  0  0  0
    7.6732  -16.3953   23.9819 C   0  0  0  0  0  0  0  0  0  0  0  0
    7.3033  -14.9645   23.8976 C   0  0  0  0  0  0  0  0  0  0  0  0
    7.3263  -14.2135   22.7389 C   0  0  0  0  0  0  0  0  0  0  0  0
    6.9364  -12.9869   23.0708 N   0  0  0  0  0  0  0  0  0  0  0  0
    6.6633  -12.9019   24.3744 C   0  0  0  0  0  0  0  0  0  0  0  0
    6.2371  -11.8882   25.1914 C   0  0  0  0  0  0  0  0  0  0  0  0
    6.0224  -12.0536   26.5415 C   0  0  0  0  0  0  0  0  0  0  0  0
    6.2608  -13.3170   27.0513 C   0  0  0  0  0  0  0  0  0  0  0  0
    6.6881  -14.3500   26.2553 C   0  0  0  0  0  0  0  0  0  0  0  0
    6.8879  -14.1378   24.9176 C   0  0  0  0  0  0  0  0  0  0  0  0
    9.8142  -17.0698   25.0064 C   0  0  0  0  0  0  0  0  0  0  0  0
    9.9988  -18.3048   25.1211 O   0  0  0  0  0  0  0  0  0  0  0  0
   10.3828  -13.8975   29.6903 C   0  0  0  0  0  0  0  0  0  0  0  0
    9.9993  -15.0106   28.7413 C   0  0  0  0  0  0  0  0  0  0  0  0
   11.2591  -15.6216   28.2178 C   0  0  2  0  0  0  0  0  0  0  0  0
   12.0508  -14.5710   27.4781 C   0  0  0  0  0  0  0  0  0  0  0  0
   10.9665  -16.7441   27.2257 C   0  0  2  0  0  0  0  0  0  0  0  0
   10.2657  -16.2351   26.0646 N   0  0  0  0  0  0  0  0  0  0  0  0
   10.0770  -17.7119   27.9113 C   0  0  0  0  0  0  0  0  0  0  0  0
   10.5335  -18.5592   28.9101 O   0  0  0  0  0  0  0  0  0  0  0  0
    8.8758  -17.7943   27.6062 O   0  0  0  0  0  0  0  0  0  0  0  0
  2  3  2  0
  2  1  1  0
  4  2  1  0
  5  4  1  0
  6  5  1  0
  6  7  1  6
  8  6  1  0
  8  9  2  0
 10  8  1  0
 11 10  1  0
 11 12  1  1
 13 12  1  0
 13 14  2  0
 15 14  1  0
 16 15  1  0
 17 16  2  0
 18 17  1  0
 19 18  2  0
 19 20  1  0
 20 21  2  0
 21 16  1  0
 21 13  1  0
 22 11  1  0
 23 22  2  0
 25 24  1  0
 26 27  1  6
 26 28  1  0
 26 25  1  0
 28 29  1  6
 29 22  1  0
 30 28  1  0
 30 31  1  0
 32 30  2  0
M  END
$$$$
