QWI.pdb
     RDKit          3D

 32 33  0  0  1  0  0  0  0  0999 V2000
   11.8673  -21.6354   20.1812 N   0  0  0  0  0  0  0  0  0  0  0  0
   11.8562  -20.9653   18.9320 C   0  0  0  0  0  0  0  0  0  0  0  0
   12.1263  -21.5987   17.8930 O   0  0  0  0  0  0  0  0  0  0  0  0
   11.5257  -19.5340   18.8699 C   0  0  0  0  0  0  0  0  0  0  0  0
   11.2970  -18.9711   20.2329 C   0  0  0  0  0  0  0  0  0  0  0  0
   10.1071  -18.0728   20.3105 C   0  0  2  0  0  0  0  0  0  0  0  0
    9.9265  -17.4849   18.9931 N   0  0  0  0  0  0  0  0  0  0  0  0
   10.3793  -16.9807   21.3203 C   0  0  0  0  0  0  0  0  0  0  0  0
   11.3667  -16.2363   21.1826 O   0  0  0  0  0  0  0  0  0  0  0  0
    9.4992  -16.8300   22.4050 N   0  0  0  0  0  0  0  0  0  0  0  0
    9.6859  -15.8290   23.4430 C   0  0  1  0  0  0  0  0  0  0  0  0
    8.8336  -14.6224   23.2302 C   0  0  0  0  0  0  0  0  0  0  0  0
    7.7883  -14.5793   24.2772 C   0  0  0  0  0  0  0  0  0  0  0  0
    7.1550  -15.6888   24.8019 C   0  0  0  0  0  0  0  0  0  0  0  0
    6.2865  -15.2422   25.7036 N   0  0  0  0  0  0  0  0  0  0  0  0
    6.3217  -13.9111   25.7918 C   0  0  0  0  0  0  0  0  0  0  0  0
    5.6442  -12.9910   26.5476 C   0  0  0  0  0  0  0  0  0  0  0  0
    5.8649  -11.6350   26.4533 C   0  0  0  0  0  0  0  0  0  0  0  0
    6.8226  -11.2302   25.5414 C   0  0  0  0  0  0  0  0  0  0  0  0
    7.5158  -12.1308   24.7720 C   0  0  0  0  0  0  0  0  0  0  0  0
    7.2620  -13.4699   24.9007 C   0  0  0  0  0  0  0  0  0  0  0  0
    9.4908  -16.4286   24.7775 C   0  0  0  0  0  0  0  0  0  0  0  0
    9.0138  -17.5833   24.8862 O   0  0  0  0  0  0  0  0  0  0  0  0
   10.2181  -13.7686   29.7832 C   0  0  0  0  0  0  0  0  0  0  0  0
    9.8114  -14.7576   28.7139 C   0  0  0  0  0  0  0  0  0  0  0  0
   11.0539  -15.2340   28.0332 C   0  0  2  0  0  0  0  0  0  0  0  0
   11.7179  -14.0699   27.3393 C   0  0  0  0  0  0  0  0  0  0  0  0
   10.7410  -16.2756   26.9621 C   0  0  2  0  0  0  0  0  0  0  0  0
    9.8273  -15.7394   25.9742 N   0  0  0  0  0  0  0  0  0  0  0  0
   10.0704  -17.4108   27.6398 C   0  0  0  0  0  0  0  0  0  0  0  0
   10.7223  -18.2105   28.5668 O   0  0  0  0  0  0  0  0  0  0  0  0
    8.8841  -17.6845   27.3930 O   0  0  0  0  0  0  0  0  0  0  0  0
  2  3  2  0
  2  1  1  0
  4  2  1  0
  5  4  1  0
  6  5  1  0
  6  7  1  6
  8  6  1  0
  8  9  2  0
 10  8  1  0
 11 10  1  0
 11 12  1  6
 13 12  1  0
 13 14  2  0
 15 14  1  0
 16 15  1  0
 17 16  2  0
 18 17  1  0
 19 18  2  0
 19 20  1  0
 20 21  2  0
 21 16  1  0
 21 13  1  0
 22 11  1  0
 23 22  2  0
 25 24  1  0
 26 27  1  6
 26 28  1  0
 26 25  1  0
 28 29  1  6
 29 22  1  0
 30 28  1  0
 30 31  1  0
 32 30  2  0
M  END
$$$$
