QWI.pdb
     RDKit          3D

 32 33  0  0  1  0  0  0  0  0999 V2000
   15.2755  -19.7132   19.3851 N   0  0  0  0  0  0  0  0  0  0  0  0
   14.4060  -18.7977   18.7405 C   0  0  0  0  0  0  0  0  0  0  0  0
   14.8804  -17.9323   17.9791 O   0  0  0  0  0  0  0  0  0  0  0  0
   12.9562  -18.8755   18.9719 C   0  0  0  0  0  0  0  0  0  0  0  0
   12.5013  -17.8174   19.9209 C   0  0  0  0  0  0  0  0  0  0  0  0
   11.0421  -17.8860   20.2290 C   0  0  2  0  0  0  0  0  0  0  0  0
   10.3294  -17.5334   19.0118 N   0  0  0  0  0  0  0  0  0  0  0  0
   10.7201  -16.8832   21.3140 C   0  0  0  0  0  0  0  0  0  0  0  0
   11.2154  -15.7425   21.2755 O   0  0  0  0  0  0  0  0  0  0  0  0
    9.8577  -17.2681   22.3541 N   0  0  0  0  0  0  0  0  0  0  0  0
    9.3758  -16.3424   23.3667 C   0  0  1  0  0  0  0  0  0  0  0  0
    7.8869  -16.2413   23.3833 C   0  0  0  0  0  0  0  0  0  0  0  0
    7.5009  -14.8136   23.4445 C   0  0  0  0  0  0  0  0  0  0  0  0
    7.5751  -13.9331   22.3832 C   0  0  0  0  0  0  0  0  0  0  0  0
    7.1497  -12.7566   22.8324 N   0  0  0  0  0  0  0  0  0  0  0  0
    6.8057  -12.8258   24.1199 C   0  0  0  0  0  0  0  0  0  0  0  0
    6.3211  -11.9173   25.0237 C   0  0  0  0  0  0  0  0  0  0  0  0
    6.0365  -12.2401   26.3318 C   0  0  0  0  0  0  0  0  0  0  0  0
    6.2658  -13.5520   26.7048 C   0  0  0  0  0  0  0  0  0  0  0  0
    6.7505  -14.4820   25.8196 C   0  0  0  0  0  0  0  0  0  0  0  0
    7.0189  -14.1144   24.5285 C   0  0  0  0  0  0  0  0  0  0  0  0
    9.9319  -16.6903   24.6888 C   0  0  0  0  0  0  0  0  0  0  0  0
   10.2245  -17.8801   24.9564 O   0  0  0  0  0  0  0  0  0  0  0  0
   10.7092  -14.0525   30.2283 C   0  0  0  0  0  0  0  0  0  0  0  0
   11.1468  -15.1587   29.2947 C   0  0  0  0  0  0  0  0  0  0  0  0
   10.6549  -14.8232   27.9236 C   0  0  2  0  0  0  0  0  0  0  0  0
    9.2130  -14.3853   28.0064 C   0  0  0  0  0  0  0  0  0  0  0  0
   10.7029  -16.0369   26.9992 C   0  0  2  0  0  0  0  0  0  0  0  0
   10.1563  -15.7140   25.6971 N   0  0  0  0  0  0  0  0  0  0  0  0
    9.8490  -17.0841   27.6089 C   0  0  0  0  0  0  0  0  0  0  0  0
   10.3251  -17.9601   28.5732 O   0  0  0  0  0  0  0  0  0  0  0  0
    8.6612  -17.2106   27.2682 O   0  0  0  0  0  0  0  0  0  0  0  0
  2  3  2  0
  2  1  1  0
  4  2  1  0
  5  4  1  0
  6  5  1  0
  6  7  1  6
  8  6  1  0
  8  9  2  0
 10  8  1  0
 11 10  1  0
 11 12  1  1
 13 12  1  0
 13 14  2  0
 15 14  1  0
 16 15  1  0
 17 16  2  0
 18 17  1  0
 19 18  2  0
 19 20  1  0
 20 21  2  0
 21 16  1  0
 21 13  1  0
 22 11  1  0
 23 22  2  0
 25 24  1  0
 26 27  1  1
 26 28  1  0
 26 25  1  0
 28 29  1  6
 29 22  1  0
 30 28  1  0
 30 31  1  0
 32 30  2  0
M  END
$$$$
