QWI.pdb
     RDKit          3D

 32 33  0  0  1  0  0  0  0  0999 V2000
   13.4990  -16.6782   17.6638 N   0  0  0  0  0  0  0  0  0  0  0  0
   12.3712  -17.1102   16.9216 C   0  0  0  0  0  0  0  0  0  0  0  0
   12.5393  -17.7658   15.8749 O   0  0  0  0  0  0  0  0  0  0  0  0
   11.0160  -16.7852   17.3901 C   0  0  0  0  0  0  0  0  0  0  0  0
   11.0510  -16.0933   18.7119 C   0  0  0  0  0  0  0  0  0  0  0  0
   11.0543  -17.0331   19.8721 C   0  0  2  0  0  0  0  0  0  0  0  0
   10.1342  -18.1125   19.5527 N   0  0  0  0  0  0  0  0  0  0  0  0
   10.5684  -16.2993   21.1016 C   0  0  0  0  0  0  0  0  0  0  0  0
   11.1876  -15.3042   21.5192 O   0  0  0  0  0  0  0  0  0  0  0  0
    9.4137  -16.7646   21.7527 N   0  0  0  0  0  0  0  0  0  0  0  0
    8.8371  -16.1027   22.9120 C   0  0  1  0  0  0  0  0  0  0  0  0
    7.3905  -16.4239   23.0900 C   0  0  0  0  0  0  0  0  0  0  0  0
    6.8378  -15.5770   24.1709 C   0  0  0  0  0  0  0  0  0  0  0  0
    6.1109  -16.0495   25.2459 C   0  0  0  0  0  0  0  0  0  0  0  0
    5.7908  -14.9921   25.9850 N   0  0  0  0  0  0  0  0  0  0  0  0
    6.2678  -13.8659   25.4509 C   0  0  0  0  0  0  0  0  0  0  0  0
    6.2145  -12.5458   25.8135 C   0  0  0  0  0  0  0  0  0  0  0  0
    6.8009  -11.5417   25.0758 C   0  0  0  0  0  0  0  0  0  0  0  0
    7.4622  -11.9306   23.9251 C   0  0  0  0  0  0  0  0  0  0  0  0
    7.5307  -13.2457   23.5390 C   0  0  0  0  0  0  0  0  0  0  0  0
    6.9322  -14.2097   24.3049 C   0  0  0  0  0  0  0  0  0  0  0  0
    9.6324  -16.3954   24.1205 C   0  0  0  0  0  0  0  0  0  0  0  0
   10.4015  -17.3856   24.1444 O   0  0  0  0  0  0  0  0  0  0  0  0
   10.7829  -13.7391   29.6346 C   0  0  0  0  0  0  0  0  0  0  0  0
   11.1045  -14.8395   28.6484 C   0  0  0  0  0  0  0  0  0  0  0  0
   10.2342  -14.6486   27.4482 C   0  0  2  0  0  0  0  0  0  0  0  0
    8.7865  -14.7362   27.8651 C   0  0  0  0  0  0  0  0  0  0  0  0
   10.4684  -15.7406   26.4077 C   0  0  2  0  0  0  0  0  0  0  0  0
    9.5640  -15.5858   25.2868 N   0  0  0  0  0  0  0  0  0  0  0  0
   10.1716  -17.0376   27.0616 C   0  0  0  0  0  0  0  0  0  0  0  0
   11.1504  -17.7900   27.6938 O   0  0  0  0  0  0  0  0  0  0  0  0
    9.0176  -17.4971   27.0625 O   0  0  0  0  0  0  0  0  0  0  0  0
  2  3  2  0
  2  1  1  0
  4  2  1  0
  5  4  1  0
  6  5  1  0
  6  7  1  6
  8  6  1  0
  8  9  2  0
 10  8  1  0
 11 10  1  0
 11 12  1  1
 13 12  1  0
 13 14  2  0
 15 14  1  0
 16 15  1  0
 17 16  2  0
 18 17  1  0
 19 18  2  0
 19 20  1  0
 20 21  2  0
 21 16  1  0
 21 13  1  0
 22 11  1  0
 23 22  2  0
 25 24  1  0
 26 27  1  1
 26 28  1  0
 26 25  1  0
 28 29  1  6
 29 22  1  0
 30 28  1  0
 30 31  1  0
 32 30  2  0
M  END
$$$$
