QWI.pdb
     RDKit          3D

 32 33  0  0  1  0  0  0  0  0999 V2000
   13.7267  -13.6385   18.7668 N   0  0  0  0  0  0  0  0  0  0  0  0
   13.7200  -14.9515   18.2324 C   0  0  0  0  0  0  0  0  0  0  0  0
   14.6183  -15.2966   17.4401 O   0  0  0  0  0  0  0  0  0  0  0  0
   12.6590  -15.8943   18.6158 C   0  0  0  0  0  0  0  0  0  0  0  0
   11.9858  -15.4686   19.8777 C   0  0  0  0  0  0  0  0  0  0  0  0
   11.8976  -16.5555   20.8975 C   0  0  2  0  0  0  0  0  0  0  0  0
   11.0060  -17.5728   20.3646 N   0  0  0  0  0  0  0  0  0  0  0  0
   11.3156  -15.9885   22.1727 C   0  0  0  0  0  0  0  0  0  0  0  0
   11.8900  -15.0527   22.7580 O   0  0  0  0  0  0  0  0  0  0  0  0
   10.1240  -16.5388   22.6737 N   0  0  0  0  0  0  0  0  0  0  0  0
    9.4772  -16.0579   23.8840 C   0  0  1  0  0  0  0  0  0  0  0  0
    8.0044  -16.2995   23.8768 C   0  0  0  0  0  0  0  0  0  0  0  0
    7.3080  -15.0254   23.5887 C   0  0  0  0  0  0  0  0  0  0  0  0
    6.9493  -14.5935   22.3270 C   0  0  0  0  0  0  0  0  0  0  0  0
    6.3555  -13.4144   22.4813 N   0  0  0  0  0  0  0  0  0  0  0  0
    6.3098  -13.0600   23.7671 C   0  0  0  0  0  0  0  0  0  0  0  0
    5.8174  -11.9699   24.4350 C   0  0  0  0  0  0  0  0  0  0  0  0
    5.8933  -11.8318   25.8030 C   0  0  0  0  0  0  0  0  0  0  0  0
    6.5023  -12.8648   26.4920 C   0  0  0  0  0  0  0  0  0  0  0  0
    7.0039  -13.9679   25.8478 C   0  0  0  0  0  0  0  0  0  0  0  0
    6.9053  -14.0611   24.4855 C   0  0  0  0  0  0  0  0  0  0  0  0
   10.1351  -16.6224   25.0785 C   0  0  0  0  0  0  0  0  0  0  0  0
   10.8101  -17.6754   24.9880 O   0  0  0  0  0  0  0  0  0  0  0  0
   10.4211  -13.3289   29.5766 C   0  0  0  0  0  0  0  0  0  0  0  0
   10.7595  -14.1791   28.3727 C   0  0  0  0  0  0  0  0  0  0  0  0
   10.4944  -15.6062   28.7297 C   0  0  2  0  0  0  0  0  0  0  0  0
   11.4654  -16.0391   29.8008 C   0  0  0  0  0  0  0  0  0  0  0  0
   10.7044  -16.5308   27.5334 C   0  0  2  0  0  0  0  0  0  0  0  0
   10.0358  -16.0115   26.3580 N   0  0  0  0  0  0  0  0  0  0  0  0
   10.0864  -17.8342   27.8752 C   0  0  0  0  0  0  0  0  0  0  0  0
   10.8341  -18.9163   28.3155 O   0  0  0  0  0  0  0  0  0  0  0  0
    8.8592  -17.9990   27.7753 O   0  0  0  0  0  0  0  0  0  0  0  0
  2  3  2  0
  2  1  1  0
  4  2  1  0
  5  4  1  0
  6  5  1  0
  6  7  1  6
  8  6  1  0
  8  9  2  0
 10  8  1  0
 11 10  1  0
 11 12  1  6
 13 12  1  0
 13 14  2  0
 15 14  1  0
 16 15  1  0
 17 16  2  0
 18 17  1  0
 19 18  2  0
 19 20  1  0
 20 21  2  0
 21 16  1  0
 21 13  1  0
 22 11  1  0
 23 22  2  0
 25 24  1  0
 26 27  1  1
 26 28  1  0
 26 25  1  0
 28 29  1  6
 29 22  1  0
 30 28  1  0
 30 31  1  0
 32 30  2  0
M  END
$$$$
