QWI.pdb
     RDKit          3D

 32 33  0  0  1  0  0  0  0  0999 V2000
   15.3061  -14.0376   19.4399 N   0  0  0  0  0  0  0  0  0  0  0  0
   14.8095  -14.9246   18.4518 C   0  0  0  0  0  0  0  0  0  0  0  0
   15.4758  -15.1277   17.4182 O   0  0  0  0  0  0  0  0  0  0  0  0
   13.5179  -15.5978   18.6525 C   0  0  0  0  0  0  0  0  0  0  0  0
   12.9357  -15.2667   19.9861 C   0  0  0  0  0  0  0  0  0  0  0  0
   11.9060  -16.2468   20.4425 C   0  0  2  0  0  0  0  0  0  0  0  0
   10.9980  -16.4655   19.3283 N   0  0  0  0  0  0  0  0  0  0  0  0
   11.1457  -15.6556   21.6081 C   0  0  0  0  0  0  0  0  0  0  0  0
   11.2592  -14.4462   21.8775 O   0  0  0  0  0  0  0  0  0  0  0  0
   10.3177  -16.4968   22.3700 N   0  0  0  0  0  0  0  0  0  0  0  0
    9.5715  -16.0348   23.5294 C   0  0  1  0  0  0  0  0  0  0  0  0
    8.1091  -16.3088   23.4113 C   0  0  0  0  0  0  0  0  0  0  0  0
    7.3832  -15.0220   23.3195 C   0  0  0  0  0  0  0  0  0  0  0  0
    6.9899  -14.4240   22.1385 C   0  0  0  0  0  0  0  0  0  0  0  0
    6.3775  -13.2915   22.4691 N   0  0  0  0  0  0  0  0  0  0  0  0
    6.3525  -13.1234   23.7928 C   0  0  0  0  0  0  0  0  0  0  0  0
    5.8541  -12.1493   24.6173 C   0  0  0  0  0  0  0  0  0  0  0  0
    5.9564  -12.2043   25.9895 C   0  0  0  0  0  0  0  0  0  0  0  0
    6.5990  -13.3110   26.5139 C   0  0  0  0  0  0  0  0  0  0  0  0
    7.1073  -14.3010   25.7108 C   0  0  0  0  0  0  0  0  0  0  0  0
    6.9816  -14.2029   24.3511 C   0  0  0  0  0  0  0  0  0  0  0  0
   10.1506  -16.5891   24.7687 C   0  0  0  0  0  0  0  0  0  0  0  0
   10.8560  -17.6250   24.7265 O   0  0  0  0  0  0  0  0  0  0  0  0
    9.9833  -13.3145   29.3163 C   0  0  0  0  0  0  0  0  0  0  0  0
   10.5591  -14.1363   28.1851 C   0  0  0  0  0  0  0  0  0  0  0  0
   10.2136  -15.5687   28.4366 C   0  0  2  0  0  0  0  0  0  0  0  0
   10.9992  -16.0681   29.6244 C   0  0  0  0  0  0  0  0  0  0  0  0
   10.5870  -16.4514   27.2485 C   0  0  2  0  0  0  0  0  0  0  0  0
    9.9395  -15.9870   26.0388 N   0  0  0  0  0  0  0  0  0  0  0  0
   10.0857  -17.8151   27.5432 C   0  0  0  0  0  0  0  0  0  0  0  0
   10.8613  -18.7663   28.1894 O   0  0  0  0  0  0  0  0  0  0  0  0
    8.9363  -18.1523   27.2143 O   0  0  0  0  0  0  0  0  0  0  0  0
  2  3  2  0
  2  1  1  0
  4  2  1  0
  5  4  1  0
  6  5  1  0
  6  7  1  6
  8  6  1  0
  8  9  2  0
 10  8  1  0
 11 10  1  0
 11 12  1  6
 13 12  1  0
 13 14  2  0
 15 14  1  0
 16 15  1  0
 17 16  2  0
 18 17  1  0
 19 18  2  0
 19 20  1  0
 20 21  2  0
 21 16  1  0
 21 13  1  0
 22 11  1  0
 23 22  2  0
 25 24  1  0
 26 27  1  1
 26 28  1  0
 26 25  1  0
 28 29  1  6
 29 22  1  0
 30 28  1  0
 30 31  1  0
 32 30  2  0
M  END
$$$$
