QWI.pdb
     RDKit          3D

 32 33  0  0  1  0  0  0  0  0999 V2000
   14.5063  -19.8342   22.2109 N   0  0  0  0  0  0  0  0  0  0  0  0
   13.7429  -19.9550   21.0226 C   0  0  0  0  0  0  0  0  0  0  0  0
   14.0520  -20.8193   20.1794 O   0  0  0  0  0  0  0  0  0  0  0  0
   12.5953  -19.0648   20.7940 C   0  0  0  0  0  0  0  0  0  0  0  0
   11.3086  -19.7425   21.1291 C   0  0  0  0  0  0  0  0  0  0  0  0
   10.1059  -18.9083   20.8351 C   0  0  2  0  0  0  0  0  0  0  0  0
   10.2596  -18.3949   19.4836 N   0  0  0  0  0  0  0  0  0  0  0  0
   10.0548  -17.7559   21.8127 C   0  0  0  0  0  0  0  0  0  0  0  0
   10.8823  -16.8305   21.7294 O   0  0  0  0  0  0  0  0  0  0  0  0
    9.0610  -17.7570   22.8057 N   0  0  0  0  0  0  0  0  0  0  0  0
    8.8511  -16.6437   23.7173 C   0  0  1  0  0  0  0  0  0  0  0  0
    7.4286  -16.1929   23.7472 C   0  0  0  0  0  0  0  0  0  0  0  0
    7.3908  -14.7134   23.7198 C   0  0  0  0  0  0  0  0  0  0  0  0
    7.9444  -13.9312   22.7254 C   0  0  0  0  0  0  0  0  0  0  0  0
    7.7095  -12.6662   23.0590 N   0  0  0  0  0  0  0  0  0  0  0  0
    7.0374  -12.5858   24.2092 C   0  0  0  0  0  0  0  0  0  0  0  0
    6.5656  -11.5434   24.9627 C   0  0  0  0  0  0  0  0  0  0  0  0
    5.8836  -11.7221   26.1457 C   0  0  0  0  0  0  0  0  0  0  0  0
    5.6899  -13.0299   26.5517 C   0  0  0  0  0  0  0  0  0  0  0  0
    6.1519  -14.0922   25.8160 C   0  0  0  0  0  0  0  0  0  0  0  0
    6.8250  -13.8653   24.6456 C   0  0  0  0  0  0  0  0  0  0  0  0
    9.3662  -16.9738   25.0604 C   0  0  0  0  0  0  0  0  0  0  0  0
    9.0088  -18.0322   25.6301 O   0  0  0  0  0  0  0  0  0  0  0  0
    9.3843  -13.8977   29.4286 C   0  0  0  0  0  0  0  0  0  0  0  0
    9.3789  -15.1002   28.5117 C   0  0  0  0  0  0  0  0  0  0  0  0
   10.7711  -15.2965   28.0043 C   0  0  2  0  0  0  0  0  0  0  0  0
   11.2016  -14.0652   27.2454 C   0  0  0  0  0  0  0  0  0  0  0  0
   10.8528  -16.4726   27.0347 C   0  0  2  0  0  0  0  0  0  0  0  0
   10.2712  -16.1253   25.7543 N   0  0  0  0  0  0  0  0  0  0  0  0
   10.0531  -17.5760   27.6184 C   0  0  0  0  0  0  0  0  0  0  0  0
   10.4999  -18.3253   28.6967 O   0  0  0  0  0  0  0  0  0  0  0  0
    8.9399  -17.8676   27.1507 O   0  0  0  0  0  0  0  0  0  0  0  0
  2  3  2  0
  2  1  1  0
  4  2  1  0
  5  4  1  0
  6  5  1  0
  6  7  1  6
  8  6  1  0
  8  9  2  0
 10  8  1  0
 11 10  1  0
 11 12  1  1
 13 12  1  0
 13 14  2  0
 15 14  1  0
 16 15  1  0
 17 16  2  0
 18 17  1  0
 19 18  2  0
 19 20  1  0
 20 21  2  0
 21 16  1  0
 21 13  1  0
 22 11  1  0
 23 22  2  0
 25 24  1  0
 26 27  1  6
 26 28  1  0
 26 25  1  0
 28 29  1  6
 29 22  1  0
 30 28  1  0
 30 31  1  0
 32 30  2  0
M  END
$$$$
