QWI.pdb
     RDKit          3D

 32 33  0  0  1  0  0  0  0  0999 V2000
    9.7810  -16.3931   16.8097 N   0  0  0  0  0  0  0  0  0  0  0  0
   11.1041  -16.9017   16.8273 C   0  0  0  0  0  0  0  0  0  0  0  0
   11.6949  -17.1136   15.7504 O   0  0  0  0  0  0  0  0  0  0  0  0
   11.7688  -17.1733   18.1102 C   0  0  0  0  0  0  0  0  0  0  0  0
   10.8571  -16.9040   19.2606 C   0  0  0  0  0  0  0  0  0  0  0  0
   11.3953  -17.3847   20.5676 C   0  0  2  0  0  0  0  0  0  0  0  0
   10.9783  -18.7691   20.7205 N   0  0  0  0  0  0  0  0  0  0  0  0
   10.8028  -16.5506   21.6810 C   0  0  0  0  0  0  0  0  0  0  0  0
   11.1016  -15.3472   21.7852 O   0  0  0  0  0  0  0  0  0  0  0  0
    9.9169  -17.1618   22.5839 N   0  0  0  0  0  0  0  0  0  0  0  0
    9.3633  -16.4734   23.7389 C   0  0  1  0  0  0  0  0  0  0  0  0
    7.8786  -16.6019   23.8206 C   0  0  0  0  0  0  0  0  0  0  0  0
    7.2661  -15.2739   23.5917 C   0  0  0  0  0  0  0  0  0  0  0  0
    6.9133  -14.7738   22.3537 C   0  0  0  0  0  0  0  0  0  0  0  0
    6.4053  -13.5632   22.5613 N   0  0  0  0  0  0  0  0  0  0  0  0
    6.4095  -13.2526   23.8592 C   0  0  0  0  0  0  0  0  0  0  0  0
    6.0066  -12.1559   24.5747 C   0  0  0  0  0  0  0  0  0  0  0  0
    6.1187  -12.0722   25.9447 C   0  0  0  0  0  0  0  0  0  0  0  0
    6.6686  -13.1682   26.5843 C   0  0  0  0  0  0  0  0  0  0  0  0
    7.0801  -14.2793   25.8918 C   0  0  0  0  0  0  0  0  0  0  0  0
    6.9486  -14.3169   24.5296 C   0  0  0  0  0  0  0  0  0  0  0  0
   10.0364  -16.9181   24.9749 C   0  0  0  0  0  0  0  0  0  0  0  0
   10.7185  -17.9704   24.9776 O   0  0  0  0  0  0  0  0  0  0  0  0
   11.1098  -12.9260   28.5586 C   0  0  0  0  0  0  0  0  0  0  0  0
   11.4160  -14.1268   27.6920 C   0  0  0  0  0  0  0  0  0  0  0  0
   10.7808  -15.3230   28.3245 C   0  0  2  0  0  0  0  0  0  0  0  0
   11.6025  -15.7501   29.5160 C   0  0  0  0  0  0  0  0  0  0  0  0
   10.7360  -16.5073   27.3625 C   0  0  2  0  0  0  0  0  0  0  0  0
    9.9439  -16.1898   26.1920 N   0  0  0  0  0  0  0  0  0  0  0  0
   10.0731  -17.6248   28.0763 C   0  0  0  0  0  0  0  0  0  0  0  0
    8.7788  -18.0277   27.7828 O   0  0  0  0  0  0  0  0  0  0  0  0
   10.6674  -18.2439   28.9744 O   0  0  0  0  0  0  0  0  0  0  0  0
  2  3  2  0
  2  1  1  0
  4  2  1  0
  5  4  1  0
  6  5  1  0
  6  7  1  1
  8  6  1  0
  8  9  2  0
 10  8  1  0
 11 10  1  0
 11 12  1  1
 13 12  1  0
 13 14  2  0
 15 14  1  0
 16 15  1  0
 17 16  2  0
 18 17  1  0
 19 18  2  0
 19 20  1  0
 20 21  2  0
 21 16  1  0
 21 13  1  0
 22 11  1  0
 23 22  2  0
 25 24  1  0
 26 27  1  1
 26 28  1  0
 26 25  1  0
 28 29  1  6
 29 22  1  0
 30 28  1  0
 30 31  1  0
 32 30  2  0
M  END
$$$$
