QWI.pdb
     RDKit          3D

 32 33  0  0  1  0  0  0  0  0999 V2000
   11.6448  -22.0369   20.6211 N   0  0  0  0  0  0  0  0  0  0  0  0
   12.6681  -21.4015   19.8737 C   0  0  0  0  0  0  0  0  0  0  0  0
   13.2897  -22.0495   19.0091 O   0  0  0  0  0  0  0  0  0  0  0  0
   12.9873  -19.9877   20.1208 C   0  0  0  0  0  0  0  0  0  0  0  0
   12.2444  -19.4633   21.3041 C   0  0  0  0  0  0  0  0  0  0  0  0
   10.9212  -18.8663   20.9555 C   0  0  2  0  0  0  0  0  0  0  0  0
   11.0021  -18.4200   19.5742 N   0  0  0  0  0  0  0  0  0  0  0  0
   10.6628  -17.6805   21.8575 C   0  0  0  0  0  0  0  0  0  0  0  0
   11.5705  -16.8603   22.0843 O   0  0  0  0  0  0  0  0  0  0  0  0
    9.3869  -17.5305   22.4260 N   0  0  0  0  0  0  0  0  0  0  0  0
    9.0640  -16.4834   23.3819 C   0  0  1  0  0  0  0  0  0  0  0  0
    7.6370  -16.0547   23.2962 C   0  0  0  0  0  0  0  0  0  0  0  0
    7.5427  -14.6193   23.6453 C   0  0  0  0  0  0  0  0  0  0  0  0
    8.0625  -13.5898   22.8856 C   0  0  0  0  0  0  0  0  0  0  0  0
    7.7807  -12.4609   23.5282 N   0  0  0  0  0  0  0  0  0  0  0  0
    7.1103  -12.7008   24.6569 C   0  0  0  0  0  0  0  0  0  0  0  0
    6.6018  -11.9027   25.6476 C   0  0  0  0  0  0  0  0  0  0  0  0
    5.9315  -12.4017   26.7421 C   0  0  0  0  0  0  0  0  0  0  0  0
    5.7892  -13.7761   26.8014 C   0  0  0  0  0  0  0  0  0  0  0  0
    6.2887  -14.5984   25.8228 C   0  0  0  0  0  0  0  0  0  0  0  0
    6.9483  -14.0563   24.7526 C   0  0  0  0  0  0  0  0  0  0  0  0
    9.4479  -16.8954   24.7462 C   0  0  0  0  0  0  0  0  0  0  0  0
    9.4378  -18.1082   25.0648 O   0  0  0  0  0  0  0  0  0  0  0  0
   10.3271  -12.8868   28.6396 C   0  0  0  0  0  0  0  0  0  0  0  0
   10.7046  -13.9513   27.6341 C   0  0  0  0  0  0  0  0  0  0  0  0
   10.0763  -15.2361   28.0683 C   0  0  2  0  0  0  0  0  0  0  0  0
   10.7031  -15.6818   29.3668 C   0  0  0  0  0  0  0  0  0  0  0  0
   10.3147  -16.3480   27.0501 C   0  0  2  0  0  0  0  0  0  0  0  0
    9.8380  -15.9565   25.7395 N   0  0  0  0  0  0  0  0  0  0  0  0
    9.5263  -17.5226   27.4936 C   0  0  0  0  0  0  0  0  0  0  0  0
   10.0413  -18.4773   28.3580 O   0  0  0  0  0  0  0  0  0  0  0  0
    8.3611  -17.6897   27.0970 O   0  0  0  0  0  0  0  0  0  0  0  0
  2  3  2  0
  2  1  1  0
  4  2  1  0
  5  4  1  0
  6  5  1  0
  6  7  1  6
  8  6  1  0
  8  9  2  0
 10  8  1  0
 11 10  1  0
 11 12  1  1
 13 12  1  0
 13 14  2  0
 15 14  1  0
 16 15  1  0
 17 16  2  0
 18 17  1  0
 19 18  2  0
 19 20  1  0
 20 21  2  0
 21 16  1  0
 21 13  1  0
 22 11  1  0
 23 22  2  0
 25 24  1  0
 26 27  1  1
 26 28  1  0
 26 25  1  0
 28 29  1  6
 29 22  1  0
 30 28  1  0
 30 31  1  0
 32 30  2  0
M  END
$$$$
