MYH.pdb
     RDKit          3D

 31 32  0  0  1  0  0  0  0  0999 V2000
   20.6229  -31.5928  -13.1238 C   0  0  0  0  0  0  0  0  0  0  0  0
   22.2161  -32.2323  -13.6583 S   0  0  0  0  0  0  0  0  0  0  0  0
   23.1271  -33.0429  -12.3219 C   0  0  0  0  0  0  0  0  0  0  0  0
   24.4468  -33.5750  -12.7731 C   0  0  0  0  0  0  0  0  0  0  0  0
   25.2300  -34.3002  -11.7275 C   0  0  2  0  0  0  0  0  0  0  0  0
   24.6030  -35.5219  -11.3392 N   0  0  0  0  0  0  0  0  0  0  0  0
   25.6127  -33.5186  -10.5584 C   0  0  0  0  0  0  0  0  0  0  0  0
   26.2621  -32.4557  -10.7276 O   0  0  0  0  0  0  0  0  0  0  0  0
   21.4313  -28.6987  -10.1756 O   0  0  0  0  0  0  0  0  0  0  0  0
   22.2311  -29.6015   -9.4751 C   0  0  0  0  0  0  0  0  0  0  0  0
   23.4705  -29.2743   -8.9999 C   0  0  0  0  0  0  0  0  0  0  0  0
   24.2417  -30.2045   -8.3033 C   0  0  0  0  0  0  0  0  0  0  0  0
   23.7701  -31.4685   -8.0813 C   0  0  0  0  0  0  0  0  0  0  0  0
   24.5416  -32.4785   -7.3603 C   0  0  0  0  0  0  0  0  0  0  0  0
   25.7575  -32.9982   -8.0991 C   0  0  2  0  0  0  0  0  0  0  0  0
   25.3085  -33.8599   -9.2074 N   0  0  0  0  0  0  0  0  0  0  0  0
   26.6111  -33.7774   -7.1604 C   0  0  0  0  0  0  0  0  0  0  0  0
   26.3580  -34.9839   -6.9045 O   0  0  0  0  0  0  0  0  0  0  0  0
   22.5186  -31.7881   -8.5649 C   0  0  0  0  0  0  0  0  0  0  0  0
   21.7457  -30.8693   -9.2582 C   0  0  0  0  0  0  0  0  0  0  0  0
   27.7334  -33.1802   -6.5291 N   0  0  0  0  0  0  0  0  0  0  0  0
   28.5074  -33.9996   -5.5813 C   0  0  1  0  0  0  0  0  0  0  0  0
   29.7813  -33.3314   -5.2214 C   0  0  0  0  0  0  0  0  0  0  0  0
   30.7774  -33.4626   -6.3113 C   0  0  0  0  0  0  0  0  0  0  0  0
   30.7511  -34.1393   -7.5060 C   0  0  0  0  0  0  0  0  0  0  0  0
   31.8681  -33.8902   -8.2076 N   0  0  0  0  0  0  0  0  0  0  0  0
   32.6193  -33.0592   -7.4856 C   0  0  0  0  0  0  0  0  0  0  0  0
   31.9820  -32.7919   -6.3471 N   0  0  0  0  0  0  0  0  0  0  0  0
   27.6529  -34.0576   -4.3380 C   0  0  0  0  0  0  0  0  0  0  0  0
   28.0579  -34.8658   -3.2996 O   0  0  0  0  0  0  0  0  0  0  0  0
   26.6216  -33.4156   -4.2237 O   0  0  0  0  0  0  0  0  0  0  0  0
  1  2  1  0
  3  2  1  0
  4  5  1  0
  4  3  1  0
  5  6  1  1
  7  5  1  0
  8  7  2  0
  9 10  1  0
 10 11  2  0
 11 12  1  0
 13 12  2  0
 13 14  1  0
 15 14  1  1
 15 17  1  0
 15 16  1  0
 16  7  1  0
 17 18  2  0
 19 13  1  0
 20 10  1  0
 20 19  2  0
 21 22  1  0
 21 17  1  0
 22 23  1  1
 24 23  1  0
 25 24  2  0
 26 27  1  0
 26 25  1  0
 27 28  2  0
 28 24  1  0
 29 30  1  0
 29 22  1  0
 31 29  2  0
M  END
$$$$
