MYH.pdb
     RDKit          3D

 31 32  0  0  1  0  0  0  0  0999 V2000
   26.2328  -15.7051  -15.7454 C   0  0  0  0  0  0  0  0  0  0  0  0
   27.8541  -16.1587  -16.3765 S   0  0  0  0  0  0  0  0  0  0  0  0
   28.4862  -17.6871  -15.6433 C   0  0  0  0  0  0  0  0  0  0  0  0
   27.3990  -18.5400  -15.0786 C   0  0  0  0  0  0  0  0  0  0  0  0
   27.8636  -19.7319  -14.3065 C   0  0  2  0  0  0  0  0  0  0  0  0
   28.7007  -20.5836  -15.0876 N   0  0  0  0  0  0  0  0  0  0  0  0
   26.8257  -20.5010  -13.6318 C   0  0  0  0  0  0  0  0  0  0  0  0
   26.5825  -21.6682  -14.0300 O   0  0  0  0  0  0  0  0  0  0  0  0
   29.1865  -20.5178   -6.9128 O   0  0  0  0  0  0  0  0  0  0  0  0
   28.1256  -20.5246   -7.8183 C   0  0  0  0  0  0  0  0  0  0  0  0
   28.1279  -21.2897   -8.9512 C   0  0  0  0  0  0  0  0  0  0  0  0
   27.0480  -21.2704   -9.8337 C   0  0  0  0  0  0  0  0  0  0  0  0
   25.9605  -20.4812   -9.5811 C   0  0  0  0  0  0  0  0  0  0  0  0
   24.8073  -20.4243  -10.4765 C   0  0  0  0  0  0  0  0  0  0  0  0
   25.0666  -20.9278  -11.8814 C   0  0  2  0  0  0  0  0  0  0  0  0
   26.0429  -20.0367  -12.5335 N   0  0  0  0  0  0  0  0  0  0  0  0
   23.7902  -20.9345  -12.6480 C   0  0  0  0  0  0  0  0  0  0  0  0
   23.2998  -19.8660  -13.0986 O   0  0  0  0  0  0  0  0  0  0  0  0
   25.9684  -19.7134   -8.4354 C   0  0  0  0  0  0  0  0  0  0  0  0
   27.0378  -19.7270   -7.5531 C   0  0  0  0  0  0  0  0  0  0  0  0
   23.0925  -22.1464  -12.8915 N   0  0  0  0  0  0  0  0  0  0  0  0
   21.8805  -22.0878  -13.7257 C   0  0  1  0  0  0  0  0  0  0  0  0
   21.3534  -23.4483  -13.9902 C   0  0  0  0  0  0  0  0  0  0  0  0
   20.1105  -23.3902  -14.7957 C   0  0  0  0  0  0  0  0  0  0  0  0
   19.3482  -22.3368  -15.2376 C   0  0  0  0  0  0  0  0  0  0  0  0
   18.3469  -22.7794  -16.0144 N   0  0  0  0  0  0  0  0  0  0  0  0
   18.4492  -24.1063  -16.0848 C   0  0  0  0  0  0  0  0  0  0  0  0
   19.4997  -24.4897  -15.3614 N   0  0  0  0  0  0  0  0  0  0  0  0
   20.8657  -21.3599  -12.8771 C   0  0  0  0  0  0  0  0  0  0  0  0
   20.0454  -20.4348  -13.4827 O   0  0  0  0  0  0  0  0  0  0  0  0
   20.7494  -21.5635  -11.6797 O   0  0  0  0  0  0  0  0  0  0  0  0
  1  2  1  0
  3  2  1  0
  4  5  1  0
  4  3  1  0
  5  6  1  6
  7  5  1  0
  8  7  2  0
  9 10  1  0
 10 11  2  0
 11 12  1  0
 13 12  2  0
 13 14  1  0
 15 14  1  1
 15 17  1  0
 15 16  1  0
 16  7  1  0
 17 18  2  0
 19 13  1  0
 20 10  1  0
 20 19  2  0
 21 22  1  0
 21 17  1  0
 22 23  1  1
 24 23  1  0
 25 24  2  0
 26 27  1  0
 26 25  1  0
 27 28  2  0
 28 24  1  0
 29 30  1  0
 29 22  1  0
 31 29  2  0
M  END
$$$$
