MYH.pdb
     RDKit          3D

 31 32  0  0  1  0  0  0  0  0999 V2000
   26.3143  -16.2907  -15.7999 C   0  0  0  0  0  0  0  0  0  0  0  0
   28.0404  -16.6529  -16.1497 S   0  0  0  0  0  0  0  0  0  0  0  0
   28.3515  -18.4212  -16.3722 C   0  0  0  0  0  0  0  0  0  0  0  0
   27.3033  -19.2691  -15.7314 C   0  0  0  0  0  0  0  0  0  0  0  0
   27.7628  -20.0642  -14.5529 C   0  0  2  0  0  0  0  0  0  0  0  0
   28.7867  -20.9953  -14.9008 N   0  0  0  0  0  0  0  0  0  0  0  0
   26.7169  -20.7109  -13.7707 C   0  0  0  0  0  0  0  0  0  0  0  0
   26.4308  -21.9098  -14.0176 O   0  0  0  0  0  0  0  0  0  0  0  0
   28.4828  -20.7789   -6.5776 O   0  0  0  0  0  0  0  0  0  0  0  0
   27.5482  -20.6608   -7.6062 C   0  0  0  0  0  0  0  0  0  0  0  0
   27.3524  -21.6393   -8.5407 C   0  0  0  0  0  0  0  0  0  0  0  0
   26.4079  -21.4854   -9.5554 C   0  0  0  0  0  0  0  0  0  0  0  0
   25.6557  -20.3464   -9.6351 C   0  0  0  0  0  0  0  0  0  0  0  0
   24.6568  -20.1374  -10.6809 C   0  0  0  0  0  0  0  0  0  0  0  0
   24.9446  -20.8479  -11.9874 C   0  0  2  0  0  0  0  0  0  0  0  0
   25.9717  -20.0904  -12.7247 N   0  0  0  0  0  0  0  0  0  0  0  0
   23.6945  -20.9292  -12.7921 C   0  0  0  0  0  0  0  0  0  0  0  0
   23.2495  -19.9210  -13.4009 O   0  0  0  0  0  0  0  0  0  0  0  0
   25.8611  -19.3658   -8.6873 C   0  0  0  0  0  0  0  0  0  0  0  0
   26.7979  -19.5110   -7.6756 C   0  0  0  0  0  0  0  0  0  0  0  0
   22.9713  -22.1463  -12.8943 N   0  0  0  0  0  0  0  0  0  0  0  0
   21.7731  -22.1657  -13.7502 C   0  0  1  0  0  0  0  0  0  0  0  0
   21.2529  -23.5459  -13.9016 C   0  0  0  0  0  0  0  0  0  0  0  0
   20.0604  -23.5717  -14.7817 C   0  0  0  0  0  0  0  0  0  0  0  0
   19.3974  -22.5806  -15.4629 C   0  0  0  0  0  0  0  0  0  0  0  0
   18.4093  -23.1054  -16.2046 N   0  0  0  0  0  0  0  0  0  0  0  0
   18.4222  -24.4246  -16.0159 C   0  0  0  0  0  0  0  0  0  0  0  0
   19.4046  -24.7221  -15.1672 N   0  0  0  0  0  0  0  0  0  0  0  0
   20.7432  -21.3688  -12.9862 C   0  0  0  0  0  0  0  0  0  0  0  0
   19.8488  -20.5995  -13.6960 O   0  0  0  0  0  0  0  0  0  0  0  0
   20.6777  -21.3841  -11.7679 O   0  0  0  0  0  0  0  0  0  0  0  0
  1  2  1  0
  3  2  1  0
  4  5  1  0
  4  3  1  0
  5  6  1  6
  7  5  1  0
  8  7  2  0
  9 10  1  0
 10 11  2  0
 11 12  1  0
 13 12  2  0
 13 14  1  0
 15 14  1  1
 15 17  1  0
 15 16  1  0
 16  7  1  0
 17 18  2  0
 19 13  1  0
 20 10  1  0
 20 19  2  0
 21 22  1  0
 21 17  1  0
 22 23  1  1
 24 23  1  0
 25 24  2  0
 26 27  1  0
 26 25  1  0
 27 28  2  0
 28 24  1  0
 29 30  1  0
 29 22  1  0
 31 29  2  0
M  END
$$$$
