MYH.pdb
     RDKit          3D

 31 32  0  0  1  0  0  0  0  0999 V2000
   38.4365  -24.0854  -23.9171 C   0  0  0  0  0  0  0  0  0  0  0  0
   37.5295  -25.5029  -23.2840 S   0  0  0  0  0  0  0  0  0  0  0  0
   37.5374  -25.5863  -21.4768 C   0  0  0  0  0  0  0  0  0  0  0  0
   36.9369  -26.8525  -20.9624 C   0  0  0  0  0  0  0  0  0  0  0  0
   36.5636  -26.8362  -19.5158 C   0  0  2  0  0  0  0  0  0  0  0  0
   37.6926  -26.6074  -18.6734 N   0  0  0  0  0  0  0  0  0  0  0  0
   35.7855  -27.9743  -19.0433 C   0  0  0  0  0  0  0  0  0  0  0  0
   36.3943  -28.9943  -18.6323 O   0  0  0  0  0  0  0  0  0  0  0  0
   29.7281  -33.1627  -15.3324 O   0  0  0  0  0  0  0  0  0  0  0  0
   30.4021  -32.0710  -15.8794 C   0  0  0  0  0  0  0  0  0  0  0  0
   29.7507  -30.9917  -16.4084 C   0  0  0  0  0  0  0  0  0  0  0  0
   30.4591  -29.9177  -16.9468 C   0  0  0  0  0  0  0  0  0  0  0  0
   31.8264  -29.9240  -16.9561 C   0  0  0  0  0  0  0  0  0  0  0  0
   32.6124  -28.8247  -17.5116 C   0  0  0  0  0  0  0  0  0  0  0  0
   33.6776  -29.2418  -18.5045 C   0  0  2  0  0  0  0  0  0  0  0  0
   34.3610  -28.0352  -19.0040 N   0  0  0  0  0  0  0  0  0  0  0  0
   33.0413  -29.9729  -19.6348 C   0  0  0  0  0  0  0  0  0  0  0  0
   32.3381  -29.3657  -20.4846 O   0  0  0  0  0  0  0  0  0  0  0  0
   32.4735  -31.0176  -16.4199 C   0  0  0  0  0  0  0  0  0  0  0  0
   31.7766  -32.0891  -15.8827 C   0  0  0  0  0  0  0  0  0  0  0  0
   33.2111  -31.3741  -19.7842 N   0  0  0  0  0  0  0  0  0  0  0  0
   32.5788  -32.0247  -20.9442 C   0  0  1  0  0  0  0  0  0  0  0  0
   33.3262  -33.2424  -21.3408 C   0  0  0  0  0  0  0  0  0  0  0  0
   32.9604  -33.6680  -22.7127 C   0  0  0  0  0  0  0  0  0  0  0  0
   32.2118  -33.0666  -23.6944 C   0  0  0  0  0  0  0  0  0  0  0  0
   32.2293  -33.8073  -24.8138 N   0  0  0  0  0  0  0  0  0  0  0  0
   32.9809  -34.8813  -24.5734 C   0  0  0  0  0  0  0  0  0  0  0  0
   33.4274  -34.8147  -23.3204 N   0  0  0  0  0  0  0  0  0  0  0  0
   31.2219  -32.4613  -20.4464 C   0  0  0  0  0  0  0  0  0  0  0  0
   31.1622  -33.3502  -19.3967 O   0  0  0  0  0  0  0  0  0  0  0  0
   30.1831  -32.0549  -20.9406 O   0  0  0  0  0  0  0  0  0  0  0  0
  1  2  1  0
  3  2  1  0
  4  5  1  0
  4  3  1  0
  5  6  1  1
  7  5  1  0
  8  7  2  0
  9 10  1  0
 10 11  2  0
 11 12  1  0
 13 12  2  0
 13 14  1  0
 15 14  1  1
 15 17  1  0
 15 16  1  0
 16  7  1  0
 17 18  2  0
 19 13  1  0
 20 10  1  0
 20 19  2  0
 21 22  1  0
 21 17  1  0
 22 23  1  1
 24 23  1  0
 25 24  2  0
 26 27  1  0
 26 25  1  0
 27 28  2  0
 28 24  1  0
 29 30  1  0
 29 22  1  0
 31 29  2  0
M  END
$$$$
