MYH.pdb
     RDKit          3D

 31 32  0  0  1  0  0  0  0  0999 V2000
   24.0609   -9.3437    7.2924 C   0  0  0  0  0  0  0  0  0  0  0  0
   22.8476  -10.3028    8.2095 S   0  0  0  0  0  0  0  0  0  0  0  0
   21.2007  -10.2420    7.4633 C   0  0  0  0  0  0  0  0  0  0  0  0
   20.2029  -11.0563    8.2180 C   0  0  0  0  0  0  0  0  0  0  0  0
   18.8074  -11.0019    7.6872 C   0  0  2  0  0  0  0  0  0  0  0  0
   17.8947  -10.4486    8.6345 N   0  0  0  0  0  0  0  0  0  0  0  0
   18.2868  -12.2434    7.1289 C   0  0  0  0  0  0  0  0  0  0  0  0
   17.6004  -12.9966    7.8648 O   0  0  0  0  0  0  0  0  0  0  0  0
   16.5653  -19.0230    1.5545 O   0  0  0  0  0  0  0  0  0  0  0  0
   16.9187  -17.8048    2.1347 C   0  0  0  0  0  0  0  0  0  0  0  0
   16.0123  -16.9962    2.7621 C   0  0  0  0  0  0  0  0  0  0  0  0
   16.4033  -15.7844    3.3312 C   0  0  0  0  0  0  0  0  0  0  0  0
   17.7080  -15.3797    3.2718 C   0  0  0  0  0  0  0  0  0  0  0  0
   18.1652  -14.1179    3.8496 C   0  0  0  0  0  0  0  0  0  0  0  0
   17.9480  -13.9858    5.3429 C   0  0  2  0  0  0  0  0  0  0  0  0
   18.4909  -12.6904    5.7899 N   0  0  0  0  0  0  0  0  0  0  0  0
   18.6432  -15.1000    6.0445 C   0  0  0  0  0  0  0  0  0  0  0  0
   19.8988  -15.1912    6.0296 O   0  0  0  0  0  0  0  0  0  0  0  0
   18.6141  -16.2029    2.6367 C   0  0  0  0  0  0  0  0  0  0  0  0
   18.2336  -17.4090    2.0686 C   0  0  0  0  0  0  0  0  0  0  0  0
   17.9082  -16.0889    6.7491 N   0  0  0  0  0  0  0  0  0  0  0  0
   18.6426  -17.2575    7.2624 C   0  0  1  0  0  0  0  0  0  0  0  0
   18.9771  -17.0844    8.6966 C   0  0  0  0  0  0  0  0  0  0  0  0
   20.4119  -16.7559    8.8724 C   0  0  0  0  0  0  0  0  0  0  0  0
   21.5549  -17.3209    8.3623 C   0  0  0  0  0  0  0  0  0  0  0  0
   22.6328  -16.6177    8.7438 N   0  0  0  0  0  0  0  0  0  0  0  0
   22.2055  -15.6022    9.4937 C   0  0  0  0  0  0  0  0  0  0  0  0
   20.8782  -15.6687    9.5813 N   0  0  0  0  0  0  0  0  0  0  0  0
   17.6646  -18.4027    7.1548 C   0  0  0  0  0  0  0  0  0  0  0  0
   18.0684  -19.6525    7.5675 O   0  0  0  0  0  0  0  0  0  0  0  0
   16.5350  -18.2578    6.7169 O   0  0  0  0  0  0  0  0  0  0  0  0
  1  2  1  0
  3  2  1  0
  4  5  1  0
  4  3  1  0
  5  6  1  1
  7  5  1  0
  8  7  2  0
  9 10  1  0
 10 11  2  0
 11 12  1  0
 13 12  2  0
 13 14  1  0
 15 14  1  6
 15 17  1  0
 15 16  1  0
 16  7  1  0
 17 18  2  0
 19 13  1  0
 20 10  1  0
 20 19  2  0
 21 22  1  0
 21 17  1  0
 22 23  1  1
 24 23  1  0
 25 24  2  0
 26 27  1  0
 26 25  1  0
 27 28  2  0
 28 24  1  0
 29 30  1  0
 29 22  1  0
 31 29  2  0
M  END
$$$$
