MYH.pdb
     RDKit          3D

 31 32  0  0  1  0  0  0  0  0999 V2000
   29.4927  -22.2767  -20.8158 C   0  0  0  0  0  0  0  0  0  0  0  0
   29.4131  -20.4891  -20.9913 S   0  0  0  0  0  0  0  0  0  0  0  0
   30.3494  -19.6193  -19.7108 C   0  0  0  0  0  0  0  0  0  0  0  0
   29.9172  -19.9978  -18.3330 C   0  0  0  0  0  0  0  0  0  0  0  0
   28.4496  -19.8877  -18.0753 C   0  0  2  0  0  0  0  0  0  0  0  0
   27.9681  -18.5595  -18.2771 N   0  0  0  0  0  0  0  0  0  0  0  0
   27.9820  -20.4216  -16.8024 C   0  0  0  0  0  0  0  0  0  0  0  0
   28.3477  -21.5742  -16.4591 O   0  0  0  0  0  0  0  0  0  0  0  0
   23.9434  -21.4857   -8.9472 O   0  0  0  0  0  0  0  0  0  0  0  0
   24.4313  -20.9537  -10.1407 C   0  0  0  0  0  0  0  0  0  0  0  0
   23.6119  -20.4611  -11.1180 C   0  0  0  0  0  0  0  0  0  0  0  0
   24.1367  -19.9365  -12.2990 C   0  0  0  0  0  0  0  0  0  0  0  0
   25.4883  -19.9050  -12.5029 C   0  0  0  0  0  0  0  0  0  0  0  0
   26.0853  -19.3690  -13.7241 C   0  0  0  0  0  0  0  0  0  0  0  0
   26.6346  -20.4120  -14.6753 C   0  0  2  0  0  0  0  0  0  0  0  0
   27.1267  -19.7366  -15.8895 N   0  0  0  0  0  0  0  0  0  0  0  0
   25.5563  -21.3759  -15.0289 C   0  0  0  0  0  0  0  0  0  0  0  0
   24.6782  -21.0810  -15.8817 O   0  0  0  0  0  0  0  0  0  0  0  0
   26.3058  -20.4045  -11.5107 C   0  0  0  0  0  0  0  0  0  0  0  0
   25.7921  -20.9275  -10.3339 C   0  0  0  0  0  0  0  0  0  0  0  0
   25.4900  -22.6534  -14.4137 N   0  0  0  0  0  0  0  0  0  0  0  0
   24.4516  -23.5885  -14.8784 C   0  0  1  0  0  0  0  0  0  0  0  0
   24.8526  -24.9934  -14.6247 C   0  0  0  0  0  0  0  0  0  0  0  0
   23.8161  -25.9377  -15.1058 C   0  0  0  0  0  0  0  0  0  0  0  0
   22.8374  -26.6428  -14.4496 C   0  0  0  0  0  0  0  0  0  0  0  0
   22.0758  -27.3122  -15.3292 N   0  0  0  0  0  0  0  0  0  0  0  0
   22.5453  -27.0501  -16.5487 C   0  0  0  0  0  0  0  0  0  0  0  0
   23.5872  -26.2284  -16.4344 N   0  0  0  0  0  0  0  0  0  0  0  0
   23.2518  -23.2906  -14.0118 C   0  0  0  0  0  0  0  0  0  0  0  0
   22.0017  -23.6216  -14.4843 O   0  0  0  0  0  0  0  0  0  0  0  0
   23.3529  -22.7695  -12.9131 O   0  0  0  0  0  0  0  0  0  0  0  0
  1  2  1  0
  3  2  1  0
  4  5  1  0
  4  3  1  0
  5  6  1  1
  7  5  1  0
  8  7  2  0
  9 10  1  0
 10 11  2  0
 11 12  1  0
 13 12  2  0
 13 14  1  0
 15 14  1  1
 15 17  1  0
 15 16  1  0
 16  7  1  0
 17 18  2  0
 19 13  1  0
 20 10  1  0
 20 19  2  0
 21 22  1  0
 21 17  1  0
 22 23  1  1
 24 23  1  0
 25 24  2  0
 26 27  1  0
 26 25  1  0
 27 28  2  0
 28 24  1  0
 29 30  1  0
 29 22  1  0
 31 29  2  0
M  END
$$$$
