MYH.pdb
     RDKit          3D

 31 32  0  0  1  0  0  0  0  0999 V2000
   23.6879   -5.6429  -21.4331 C   0  0  0  0  0  0  0  0  0  0  0  0
   24.6571   -6.7918  -22.4198 S   0  0  0  0  0  0  0  0  0  0  0  0
   23.8366   -8.3894  -22.6378 C   0  0  0  0  0  0  0  0  0  0  0  0
   22.6859   -8.5708  -21.7044 C   0  0  0  0  0  0  0  0  0  0  0  0
   21.9301   -9.8491  -21.8695 C   0  0  2  0  0  0  0  0  0  0  0  0
   21.3628   -9.9719  -23.1732 N   0  0  0  0  0  0  0  0  0  0  0  0
   20.9389  -10.1431  -20.8423 C   0  0  0  0  0  0  0  0  0  0  0  0
   19.7288   -9.9033  -21.0832 O   0  0  0  0  0  0  0  0  0  0  0  0
   16.0567  -13.8779  -14.6247 O   0  0  0  0  0  0  0  0  0  0  0  0
   17.1217  -13.5203  -15.4515 C   0  0  0  0  0  0  0  0  0  0  0  0
   18.4277  -13.7169  -15.0985 C   0  0  0  0  0  0  0  0  0  0  0  0
   19.4665  -13.3463  -15.9521 C   0  0  0  0  0  0  0  0  0  0  0  0
   19.1967  -12.7759  -17.1652 C   0  0  0  0  0  0  0  0  0  0  0  0
   20.2501  -12.3679  -18.0920 C   0  0  0  0  0  0  0  0  0  0  0  0
   20.1415  -10.9420  -18.5915 C   0  0  2  0  0  0  0  0  0  0  0  0
   21.2262  -10.6924  -19.5577 N   0  0  0  0  0  0  0  0  0  0  0  0
   20.2574  -10.0045  -17.4406 C   0  0  0  0  0  0  0  0  0  0  0  0
   21.3678   -9.7952  -16.8852 O   0  0  0  0  0  0  0  0  0  0  0  0
   17.8758  -12.5822  -17.5114 C   0  0  0  0  0  0  0  0  0  0  0  0
   16.8375  -12.9479  -16.6686 C   0  0  0  0  0  0  0  0  0  0  0  0
   19.1186   -9.3214  -16.9393 N   0  0  0  0  0  0  0  0  0  0  0  0
   19.2889   -8.4891  -15.7364 C   0  0  1  0  0  0  0  0  0  0  0  0
   19.1298   -7.0510  -16.0609 C   0  0  0  0  0  0  0  0  0  0  0  0
   20.2756   -6.2606  -15.5513 C   0  0  0  0  0  0  0  0  0  0  0  0
   21.4244   -6.6242  -14.8926 C   0  0  0  0  0  0  0  0  0  0  0  0
   22.2137   -5.5544  -14.7069 N   0  0  0  0  0  0  0  0  0  0  0  0
   21.5941   -4.5006  -15.2377 C   0  0  0  0  0  0  0  0  0  0  0  0
   20.4323   -4.9046  -15.7484 N   0  0  0  0  0  0  0  0  0  0  0  0
   18.1464   -8.8841  -14.8319 C   0  0  0  0  0  0  0  0  0  0  0  0
   17.2231   -9.7926  -15.2984 O   0  0  0  0  0  0  0  0  0  0  0  0
   18.0153   -8.4276  -13.7080 O   0  0  0  0  0  0  0  0  0  0  0  0
  1  2  1  0
  3  2  1  0
  4  5  1  0
  4  3  1  0
  5  6  1  6
  7  5  1  0
  8  7  2  0
  9 10  1  0
 10 11  2  0
 11 12  1  0
 13 12  2  0
 13 14  1  0
 15 14  1  1
 15 17  1  0
 15 16  1  0
 16  7  1  0
 17 18  2  0
 19 13  1  0
 20 10  1  0
 20 19  2  0
 21 22  1  0
 21 17  1  0
 22 23  1  6
 24 23  1  0
 25 24  2  0
 26 27  1  0
 26 25  1  0
 27 28  2  0
 28 24  1  0
 29 30  1  0
 29 22  1  0
 31 29  2  0
M  END
$$$$
