MYH.pdb
     RDKit          3D

 31 32  0  0  1  0  0  0  0  0999 V2000
   31.4612  -22.4173  -18.3953 C   0  0  0  0  0  0  0  0  0  0  0  0
   30.5503  -23.7706  -19.1515 S   0  0  0  0  0  0  0  0  0  0  0  0
   28.7815  -23.4225  -19.3039 C   0  0  0  0  0  0  0  0  0  0  0  0
   28.0618  -23.5490  -18.0022 C   0  0  0  0  0  0  0  0  0  0  0  0
   27.4438  -22.2874  -17.4934 C   0  0  2  0  0  0  0  0  0  0  0  0
   28.2661  -21.1484  -17.7445 N   0  0  0  0  0  0  0  0  0  0  0  0
   26.9960  -22.3088  -16.1067 C   0  0  0  0  0  0  0  0  0  0  0  0
   26.3598  -23.3104  -15.6919 O   0  0  0  0  0  0  0  0  0  0  0  0
   25.1818  -20.2918   -7.6420 O   0  0  0  0  0  0  0  0  0  0  0  0
   25.7452  -20.4007   -8.9133 C   0  0  0  0  0  0  0  0  0  0  0  0
   26.5297  -21.4571   -9.2843 C   0  0  0  0  0  0  0  0  0  0  0  0
   27.0760  -21.5316  -10.5654 C   0  0  0  0  0  0  0  0  0  0  0  0
   26.8360  -20.5437  -11.4797 C   0  0  0  0  0  0  0  0  0  0  0  0
   27.3884  -20.5752  -12.8321 C   0  0  0  0  0  0  0  0  0  0  0  0
   26.5249  -21.2822  -13.8563 C   0  0  2  0  0  0  0  0  0  0  0  0
   27.2212  -21.2702  -15.1553 N   0  0  0  0  0  0  0  0  0  0  0  0
   25.2176  -20.5788  -13.9714 C   0  0  0  0  0  0  0  0  0  0  0  0
   25.1318  -19.4615  -14.5456 O   0  0  0  0  0  0  0  0  0  0  0  0
   26.0433  -19.4826  -11.0951 C   0  0  0  0  0  0  0  0  0  0  0  0
   25.4965  -19.4011   -9.8237 C   0  0  0  0  0  0  0  0  0  0  0  0
   24.0332  -21.1496  -13.4368 N   0  0  0  0  0  0  0  0  0  0  0  0
   22.7787  -20.3914  -13.5780 C   0  0  1  0  0  0  0  0  0  0  0  0
   22.4424  -20.1858  -15.0074 C   0  0  0  0  0  0  0  0  0  0  0  0
   21.1503  -19.4740  -15.1530 C   0  0  0  0  0  0  0  0  0  0  0  0
   20.8112  -18.1484  -15.0356 C   0  0  0  0  0  0  0  0  0  0  0  0
   19.5168  -17.9694  -15.3429 N   0  0  0  0  0  0  0  0  0  0  0  0
   19.0105  -19.1606  -15.6603 C   0  0  0  0  0  0  0  0  0  0  0  0
   19.9743  -20.0735  -15.5526 N   0  0  0  0  0  0  0  0  0  0  0  0
   21.7198  -21.2876  -12.9821 C   0  0  0  0  0  0  0  0  0  0  0  0
   20.5665  -20.7109  -12.4997 O   0  0  0  0  0  0  0  0  0  0  0  0
   21.8517  -22.4987  -12.9147 O   0  0  0  0  0  0  0  0  0  0  0  0
  1  2  1  0
  3  2  1  0
  4  5  1  0
  4  3  1  0
  5  6  1  1
  7  5  1  0
  8  7  2  0
  9 10  1  0
 10 11  2  0
 11 12  1  0
 13 12  2  0
 13 14  1  0
 15 14  1  1
 15 17  1  0
 15 16  1  0
 16  7  1  0
 17 18  2  0
 19 13  1  0
 20 10  1  0
 20 19  2  0
 21 22  1  0
 21 17  1  0
 22 23  1  6
 24 23  1  0
 25 24  2  0
 26 27  1  0
 26 25  1  0
 27 28  2  0
 28 24  1  0
 29 30  1  0
 29 22  1  0
 31 29  2  0
M  END
$$$$
