MYH.pdb
     RDKit          3D

 31 32  0  0  1  0  0  0  0  0999 V2000
   27.0450  -18.8150   -4.9544 C   0  0  0  0  0  0  0  0  0  0  0  0
   28.2024  -19.8294   -5.8840 S   0  0  0  0  0  0  0  0  0  0  0  0
   27.3949  -20.8024   -7.1779 C   0  0  0  0  0  0  0  0  0  0  0  0
   26.8373  -19.9488   -8.2682 C   0  0  0  0  0  0  0  0  0  0  0  0
   26.2734  -20.6952   -9.4333 C   0  0  2  0  0  0  0  0  0  0  0  0
   27.0476  -21.8498   -9.7557 N   0  0  0  0  0  0  0  0  0  0  0  0
   25.9983  -19.9048  -10.6265 C   0  0  0  0  0  0  0  0  0  0  0  0
   24.9983  -19.1433  -10.6301 O   0  0  0  0  0  0  0  0  0  0  0  0
   26.7905  -15.7267  -18.4610 O   0  0  0  0  0  0  0  0  0  0  0  0
   26.9917  -16.4443  -17.2820 C   0  0  0  0  0  0  0  0  0  0  0  0
   26.8937  -15.8719  -16.0444 C   0  0  0  0  0  0  0  0  0  0  0  0
   27.1018  -16.6220  -14.8871 C   0  0  0  0  0  0  0  0  0  0  0  0
   27.4097  -17.9517  -14.9690 C   0  0  0  0  0  0  0  0  0  0  0  0
   27.6398  -18.7781  -13.7862 C   0  0  0  0  0  0  0  0  0  0  0  0
   26.3990  -19.0866  -12.9738 C   0  0  2  0  0  0  0  0  0  0  0  0
   26.7814  -19.9182  -11.8185 N   0  0  0  0  0  0  0  0  0  0  0  0
   25.4188  -19.8155  -13.8252 C   0  0  0  0  0  0  0  0  0  0  0  0
   25.4554  -21.0700  -13.9258 O   0  0  0  0  0  0  0  0  0  0  0  0
   27.5059  -18.5191  -16.2224 C   0  0  0  0  0  0  0  0  0  0  0  0
   27.3005  -17.7804  -17.3776 C   0  0  0  0  0  0  0  0  0  0  0  0
   24.4167  -19.1148  -14.5459 N   0  0  0  0  0  0  0  0  0  0  0  0
   23.1535  -19.8171  -14.8287 C   0  0  1  0  0  0  0  0  0  0  0  0
   22.2923  -19.8637  -13.6225 C   0  0  0  0  0  0  0  0  0  0  0  0
   20.9664  -20.4467  -13.9377 C   0  0  0  0  0  0  0  0  0  0  0  0
   20.4391  -20.9619  -15.0963 C   0  0  0  0  0  0  0  0  0  0  0  0
   19.2111  -21.4549  -14.8708 N   0  0  0  0  0  0  0  0  0  0  0  0
   18.9338  -21.2687  -13.5806 C   0  0  0  0  0  0  0  0  0  0  0  0
   19.9736  -20.6667  -13.0059 N   0  0  0  0  0  0  0  0  0  0  0  0
   22.4579  -18.9563  -15.8557 C   0  0  0  0  0  0  0  0  0  0  0  0
   22.2668  -17.6223  -15.5740 O   0  0  0  0  0  0  0  0  0  0  0  0
   22.0621  -19.4013  -16.9206 O   0  0  0  0  0  0  0  0  0  0  0  0
  1  2  1  0
  3  2  1  0
  4  5  1  0
  4  3  1  0
  5  6  1  6
  7  5  1  0
  8  7  2  0
  9 10  1  0
 10 11  2  0
 11 12  1  0
 13 12  2  0
 13 14  1  0
 15 14  1  6
 15 17  1  0
 15 16  1  0
 16  7  1  0
 17 18  2  0
 19 13  1  0
 20 10  1  0
 20 19  2  0
 21 22  1  0
 21 17  1  0
 22 23  1  1
 24 23  1  0
 25 24  2  0
 26 27  1  0
 26 25  1  0
 27 28  2  0
 28 24  1  0
 29 30  1  0
 29 22  1  0
 31 29  2  0
M  END
$$$$
