MYH.pdb
     RDKit          3D

 31 32  0  0  1  0  0  0  0  0999 V2000
   31.1253  -23.7180  -18.0957 C   0  0  0  0  0  0  0  0  0  0  0  0
   30.6175  -22.6838  -19.4761 S   0  0  0  0  0  0  0  0  0  0  0  0
   28.8234  -22.6603  -19.7080 C   0  0  0  0  0  0  0  0  0  0  0  0
   28.0814  -22.9086  -18.4368 C   0  0  0  0  0  0  0  0  0  0  0  0
   27.4560  -21.6998  -17.8202 C   0  0  2  0  0  0  0  0  0  0  0  0
   28.3362  -20.5766  -17.8306 N   0  0  0  0  0  0  0  0  0  0  0  0
   26.8687  -21.8869  -16.4996 C   0  0  0  0  0  0  0  0  0  0  0  0
   26.1765  -22.9141  -16.2856 O   0  0  0  0  0  0  0  0  0  0  0  0
   24.2182  -20.6795   -8.0772 O   0  0  0  0  0  0  0  0  0  0  0  0
   24.8573  -20.5867   -9.3135 C   0  0  0  0  0  0  0  0  0  0  0  0
   24.5040  -19.6646  -10.2590 C   0  0  0  0  0  0  0  0  0  0  0  0
   25.1667  -19.6019  -11.4846 C   0  0  0  0  0  0  0  0  0  0  0  0
   26.1880  -20.4666  -11.7654 C   0  0  0  0  0  0  0  0  0  0  0  0
   26.9098  -20.4423  -13.0356 C   0  0  0  0  0  0  0  0  0  0  0  0
   26.2277  -21.1793  -14.1697 C   0  0  2  0  0  0  0  0  0  0  0  0
   27.0131  -20.9875  -15.4021 N   0  0  0  0  0  0  0  0  0  0  0  0
   24.8515  -20.6412  -14.3525 C   0  0  0  0  0  0  0  0  0  0  0  0
   24.6634  -19.4979  -14.8453 O   0  0  0  0  0  0  0  0  0  0  0  0
   26.5363  -21.3927  -10.8046 C   0  0  0  0  0  0  0  0  0  0  0  0
   25.8827  -21.4615   -9.5839 C   0  0  0  0  0  0  0  0  0  0  0  0
   23.7149  -21.4034  -13.9761 N   0  0  0  0  0  0  0  0  0  0  0  0
   22.3859  -20.7981  -14.1662 C   0  0  1  0  0  0  0  0  0  0  0  0
   21.9127  -20.9864  -15.5588 C   0  0  0  0  0  0  0  0  0  0  0  0
   20.5621  -20.4045  -15.7451 C   0  0  0  0  0  0  0  0  0  0  0  0
   19.7439  -19.6896  -14.9053 C   0  0  0  0  0  0  0  0  0  0  0  0
   18.6355  -19.2999  -15.5547 N   0  0  0  0  0  0  0  0  0  0  0  0
   18.7233  -19.7504  -16.8059 C   0  0  0  0  0  0  0  0  0  0  0  0
   19.8705  -20.4139  -16.9383 N   0  0  0  0  0  0  0  0  0  0  0  0
   21.4718  -21.5878  -13.2606 C   0  0  0  0  0  0  0  0  0  0  0  0
   20.3921  -20.9466  -12.6961 O   0  0  0  0  0  0  0  0  0  0  0  0
   21.6572  -22.7683  -13.0140 O   0  0  0  0  0  0  0  0  0  0  0  0
  1  2  1  0
  3  2  1  0
  4  5  1  0
  4  3  1  0
  5  6  1  1
  7  5  1  0
  8  7  2  0
  9 10  1  0
 10 11  2  0
 11 12  1  0
 13 12  2  0
 13 14  1  0
 15 14  1  1
 15 17  1  0
 15 16  1  0
 16  7  1  0
 17 18  2  0
 19 13  1  0
 20 10  1  0
 20 19  2  0
 21 22  1  0
 21 17  1  0
 22 23  1  6
 24 23  1  0
 25 24  2  0
 26 27  1  0
 26 25  1  0
 27 28  2  0
 28 24  1  0
 29 30  1  0
 29 22  1  0
 31 29  2  0
M  END
$$$$
