MYH.pdb
     RDKit          3D

 31 32  0  0  1  0  0  0  0  0999 V2000
   29.2209  -19.8162  -21.3427 C   0  0  0  0  0  0  0  0  0  0  0  0
   28.0752  -20.0216  -19.9722 S   0  0  0  0  0  0  0  0  0  0  0  0
   28.0334  -21.7180  -19.3452 C   0  0  0  0  0  0  0  0  0  0  0  0
   27.1013  -21.8755  -18.1899 C   0  0  0  0  0  0  0  0  0  0  0  0
   27.7415  -22.3133  -16.9128 C   0  0  2  0  0  0  0  0  0  0  0  0
   28.4483  -23.5440  -17.0619 N   0  0  0  0  0  0  0  0  0  0  0  0
   26.8735  -22.3515  -15.7427 C   0  0  0  0  0  0  0  0  0  0  0  0
   26.2277  -23.4029  -15.5028 O   0  0  0  0  0  0  0  0  0  0  0  0
   22.5525  -20.4193   -8.2176 O   0  0  0  0  0  0  0  0  0  0  0  0
   23.4395  -20.4272   -9.2941 C   0  0  0  0  0  0  0  0  0  0  0  0
   24.6820  -20.9928   -9.2217 C   0  0  0  0  0  0  0  0  0  0  0  0
   25.5419  -20.9815  -10.3198 C   0  0  0  0  0  0  0  0  0  0  0  0
   25.1562  -20.4009  -11.4962 C   0  0  0  0  0  0  0  0  0  0  0  0
   26.0223  -20.3608  -12.6723 C   0  0  0  0  0  0  0  0  0  0  0  0
   25.6929  -21.3830  -13.7406 C   0  0  2  0  0  0  0  0  0  0  0  0
   26.6875  -21.2771  -14.8232 N   0  0  0  0  0  0  0  0  0  0  0  0
   24.3280  -21.1191  -14.2738 C   0  0  0  0  0  0  0  0  0  0  0  0
   24.0989  -20.1155  -14.9988 O   0  0  0  0  0  0  0  0  0  0  0  0
   23.9008  -19.8333  -11.5583 C   0  0  0  0  0  0  0  0  0  0  0  0
   23.0401  -19.8405  -10.4714 C   0  0  0  0  0  0  0  0  0  0  0  0
   23.2488  -21.9926  -13.9790 N   0  0  0  0  0  0  0  0  0  0  0  0
   21.9250  -21.6636  -14.5340 C   0  0  1  0  0  0  0  0  0  0  0  0
   21.2230  -22.8875  -14.9899 C   0  0  0  0  0  0  0  0  0  0  0  0
   19.9075  -22.5553  -15.5867 C   0  0  0  0  0  0  0  0  0  0  0  0
   19.3317  -21.3591  -15.9382 C   0  0  0  0  0  0  0  0  0  0  0  0
   18.1439  -21.5687  -16.5273 N   0  0  0  0  0  0  0  0  0  0  0  0
   17.9407  -22.8854  -16.5652 C   0  0  0  0  0  0  0  0  0  0  0  0
   18.9866  -23.4921  -16.0068 N   0  0  0  0  0  0  0  0  0  0  0  0
   21.1503  -21.0981  -13.3680 C   0  0  0  0  0  0  0  0  0  0  0  0
   21.1468  -21.7959  -12.1812 O   0  0  0  0  0  0  0  0  0  0  0  0
   20.5311  -20.0494  -13.4425 O   0  0  0  0  0  0  0  0  0  0  0  0
  1  2  1  0
  3  2  1  0
  4  5  1  0
  4  3  1  0
  5  6  1  6
  7  5  1  0
  8  7  2  0
  9 10  1  0
 10 11  2  0
 11 12  1  0
 13 12  2  0
 13 14  1  0
 15 14  1  1
 15 17  1  0
 15 16  1  0
 16  7  1  0
 17 18  2  0
 19 13  1  0
 20 10  1  0
 20 19  2  0
 21 22  1  0
 21 17  1  0
 22 23  1  1
 24 23  1  0
 25 24  2  0
 26 27  1  0
 26 25  1  0
 27 28  2  0
 28 24  1  0
 29 30  1  0
 29 22  1  0
 31 29  2  0
M  END
$$$$
