MYH.pdb
     RDKit          3D

 31 32  0  0  1  0  0  0  0  0999 V2000
   19.7646  -16.4178  -14.4197 C   0  0  0  0  0  0  0  0  0  0  0  0
   19.4427  -14.7537  -15.0196 S   0  0  0  0  0  0  0  0  0  0  0  0
   20.0397  -14.4922  -16.7072 C   0  0  0  0  0  0  0  0  0  0  0  0
   19.8585  -13.0825  -17.1635 C   0  0  0  0  0  0  0  0  0  0  0  0
   18.4590  -12.5650  -17.0858 C   0  0  2  0  0  0  0  0  0  0  0  0
   17.5837  -13.2503  -17.9806 N   0  0  0  0  0  0  0  0  0  0  0  0
   18.3032  -11.1214  -17.2109 C   0  0  0  0  0  0  0  0  0  0  0  0
   18.2780  -10.6132  -18.3603 O   0  0  0  0  0  0  0  0  0  0  0  0
   12.2367   -9.1785  -18.9366 O   0  0  0  0  0  0  0  0  0  0  0  0
   13.3615   -8.9793  -18.1362 C   0  0  0  0  0  0  0  0  0  0  0  0
   13.7243   -9.8477  -17.1446 C   0  0  0  0  0  0  0  0  0  0  0  0
   14.8567   -9.6152  -16.3643 C   0  0  0  0  0  0  0  0  0  0  0  0
   15.6297   -8.5077  -16.5774 C   0  0  0  0  0  0  0  0  0  0  0  0
   16.8226   -8.2191  -15.7845 C   0  0  0  0  0  0  0  0  0  0  0  0
   18.1156   -8.7591  -16.3598 C   0  0  2  0  0  0  0  0  0  0  0  0
   18.1729  -10.2122  -16.1197 N   0  0  0  0  0  0  0  0  0  0  0  0
   19.2692   -8.0870  -15.7006 C   0  0  0  0  0  0  0  0  0  0  0  0
   19.4602   -8.1963  -14.4609 O   0  0  0  0  0  0  0  0  0  0  0  0
   15.2549   -7.6382  -17.5803 C   0  0  0  0  0  0  0  0  0  0  0  0
   14.1308   -7.8623  -18.3604 C   0  0  0  0  0  0  0  0  0  0  0  0
   20.1845   -7.3054  -16.4528 N   0  0  0  0  0  0  0  0  0  0  0  0
   21.3850   -6.7997  -15.7661 C   0  0  1  0  0  0  0  0  0  0  0  0
   22.5381   -6.7330  -16.6960 C   0  0  0  0  0  0  0  0  0  0  0  0
   22.9976   -8.0912  -17.0722 C   0  0  0  0  0  0  0  0  0  0  0  0
   22.6179   -9.3414  -16.6496 C   0  0  0  0  0  0  0  0  0  0  0  0
   23.2678  -10.2865  -17.3469 N   0  0  0  0  0  0  0  0  0  0  0  0
   24.0635   -9.6673  -18.2185 C   0  0  0  0  0  0  0  0  0  0  0  0
   23.9146   -8.3523  -18.0687 N   0  0  0  0  0  0  0  0  0  0  0  0
   21.0332   -5.3859  -15.3699 C   0  0  0  0  0  0  0  0  0  0  0  0
   21.9317   -4.6747  -14.6067 O   0  0  0  0  0  0  0  0  0  0  0  0
   19.9854   -4.8562  -15.7019 O   0  0  0  0  0  0  0  0  0  0  0  0
  1  2  1  0
  3  2  1  0
  4  5  1  0
  4  3  1  0
  5  6  1  6
  7  5  1  0
  8  7  2  0
  9 10  1  0
 10 11  2  0
 11 12  1  0
 13 12  2  0
 13 14  1  0
 15 14  1  1
 15 17  1  0
 15 16  1  0
 16  7  1  0
 17 18  2  0
 19 13  1  0
 20 10  1  0
 20 19  2  0
 21 22  1  0
 21 17  1  0
 22 23  1  6
 24 23  1  0
 25 24  2  0
 26 27  1  0
 26 25  1  0
 27 28  2  0
 28 24  1  0
 29 30  1  0
 29 22  1  0
 31 29  2  0
M  END
$$$$
