MYH.pdb
     RDKit          3D

 31 32  0  0  1  0  0  0  0  0999 V2000
   24.6975  -17.8222  -18.9054 C   0  0  0  0  0  0  0  0  0  0  0  0
   26.0152  -18.9612  -19.3518 S   0  0  0  0  0  0  0  0  0  0  0  0
   25.5185  -20.6948  -19.2069 C   0  0  0  0  0  0  0  0  0  0  0  0
   25.0622  -21.0433  -17.8289 C   0  0  0  0  0  0  0  0  0  0  0  0
   26.0637  -21.7729  -16.9941 C   0  0  2  0  0  0  0  0  0  0  0  0
   26.3848  -23.0525  -17.5382 N   0  0  0  0  0  0  0  0  0  0  0  0
   25.7585  -21.8749  -15.5727 C   0  0  0  0  0  0  0  0  0  0  0  0
   24.9146  -22.7265  -15.1949 O   0  0  0  0  0  0  0  0  0  0  0  0
   25.3342  -20.1942   -6.8126 O   0  0  0  0  0  0  0  0  0  0  0  0
   25.7210  -20.3357   -8.1452 C   0  0  0  0  0  0  0  0  0  0  0  0
   26.0379  -21.5458   -8.6967 C   0  0  0  0  0  0  0  0  0  0  0  0
   26.4206  -21.6481  -10.0340 C   0  0  0  0  0  0  0  0  0  0  0  0
   26.4866  -20.5335  -10.8232 C   0  0  0  0  0  0  0  0  0  0  0  0
   26.8852  -20.5891  -12.2279 C   0  0  0  0  0  0  0  0  0  0  0  0
   25.8278  -21.1287  -13.1688 C   0  0  2  0  0  0  0  0  0  0  0  0
   26.3463  -21.0762  -14.5475 N   0  0  0  0  0  0  0  0  0  0  0  0
   24.5954  -20.3010  -13.0550 C   0  0  0  0  0  0  0  0  0  0  0  0
   24.4252  -19.2894  -13.7851 O   0  0  0  0  0  0  0  0  0  0  0  0
   26.1648  -19.3178  -10.2569 C   0  0  0  0  0  0  0  0  0  0  0  0
   25.7835  -19.2077   -8.9285 C   0  0  0  0  0  0  0  0  0  0  0  0
   23.5795  -20.6308  -12.1203 N   0  0  0  0  0  0  0  0  0  0  0  0
   22.1920  -20.2681  -12.4545 C   0  0  1  0  0  0  0  0  0  0  0  0
   21.7002  -21.0616  -13.6065 C   0  0  0  0  0  0  0  0  0  0  0  0
   20.3020  -20.7016  -13.9425 C   0  0  0  0  0  0  0  0  0  0  0  0
   19.4392  -19.7715  -13.4170 C   0  0  0  0  0  0  0  0  0  0  0  0
   18.2914  -19.7548  -14.1128 N   0  0  0  0  0  0  0  0  0  0  0  0
   18.3973  -20.6604  -15.0848 C   0  0  0  0  0  0  0  0  0  0  0  0
   19.5948  -21.2370  -14.9986 N   0  0  0  0  0  0  0  0  0  0  0  0
   21.3875  -20.6723  -11.2425 C   0  0  0  0  0  0  0  0  0  0  0  0
   20.4951  -19.7665  -10.7145 O   0  0  0  0  0  0  0  0  0  0  0  0
   21.5013  -21.7685  -10.7190 O   0  0  0  0  0  0  0  0  0  0  0  0
  1  2  1  0
  3  2  1  0
  4  5  1  0
  4  3  1  0
  5  6  1  6
  7  5  1  0
  8  7  2  0
  9 10  1  0
 10 11  2  0
 11 12  1  0
 13 12  2  0
 13 14  1  0
 15 14  1  1
 15 17  1  0
 15 16  1  0
 16  7  1  0
 17 18  2  0
 19 13  1  0
 20 10  1  0
 20 19  2  0
 21 22  1  0
 21 17  1  0
 22 23  1  6
 24 23  1  0
 25 24  2  0
 26 27  1  0
 26 25  1  0
 27 28  2  0
 28 24  1  0
 29 30  1  0
 29 22  1  0
 31 29  2  0
M  END
$$$$
