GIL.pdb
     RDKit          3D

 21 20  0  0  1  0  0  0  0  0999 V2000
   10.2034  -16.5193   19.9525 N   0  0  0  0  0  0  0  0  0  0  0  0
    9.2506  -16.7918   20.9800 C   0  0  0  0  0  0  0  0  0  0  0  0
    9.4401  -15.9397   22.1842 C   0  0  0  0  0  0  0  0  0  0  0  0
   10.5432  -15.3639   22.3882 O   0  0  0  0  0  0  0  0  0  0  0  0
    6.3435  -12.6320   26.3492 C   0  0  0  0  0  0  0  0  0  0  0  0
    7.5534  -13.4213   25.9739 C   0  0  0  0  0  0  0  0  0  0  0  0
    7.2817  -14.4211   24.8714 C   0  0  2  0  0  0  0  0  0  0  0  0
    6.3513  -15.5135   25.3058 C   0  0  0  0  0  0  0  0  0  0  0  0
    8.6085  -14.9600   24.3486 C   0  0  2  0  0  0  0  0  0  0  0  0
    8.4044  -15.7426   23.1378 N   0  0  0  0  0  0  0  0  0  0  0  0
    9.1343  -15.8999   25.3824 C   0  0  0  0  0  0  0  0  0  0  0  0
    9.2243  -17.1140   25.0261 O   0  0  0  0  0  0  0  0  0  0  0  0
   10.1413  -13.9400   30.3199 C   0  0  0  0  0  0  0  0  0  0  0  0
   10.1936  -14.4155   28.8786 C   0  0  1  0  0  0  0  0  0  0  0  0
   11.0893  -13.4476   28.0988 C   0  0  0  0  0  0  0  0  0  0  0  0
   10.7034  -15.8193   28.7691 C   0  0  0  0  0  0  0  0  0  0  0  0
   10.4249  -16.3903   27.4209 C   0  0  2  0  0  0  0  0  0  0  0  0
    9.5148  -15.5151   26.6695 N   0  0  0  0  0  0  0  0  0  0  0  0
    9.8199  -17.7269   27.3944 C   0  0  0  0  0  0  0  0  0  0  0  0
   10.4542  -18.7200   27.8056 O   0  0  0  0  0  0  0  0  0  0  0  0
    8.5374  -17.8997   26.9123 O   0  0  0  0  0  0  0  0  0  0  0  0
  1  2  1  0
  2  3  1  0
  3  4  2  0
  3 10  1  0
  6  5  1  0
  7  6  1  0
  7  8  1  1
  9  7  1  0
  9 10  1  6
 11  9  1  0
 11 18  1  0
 12 11  2  0
 14 15  1  6
 14 16  1  0
 14 13  1  0
 17 16  1  1
 17 18  1  0
 19 17  1  0
 20 19  2  0
 21 19  1  0
M  END
$$$$
