GIL.pdb
     RDKit          3D

 21 20  0  0  1  0  0  0  0  0999 V2000
    9.2128  -19.9727   20.5236 N   0  0  0  0  0  0  0  0  0  0  0  0
    8.3181  -19.2508   21.3698 C   0  0  0  0  0  0  0  0  0  0  0  0
    8.7888  -17.8711   21.6648 C   0  0  0  0  0  0  0  0  0  0  0  0
    9.9085  -17.6854   22.2143 O   0  0  0  0  0  0  0  0  0  0  0  0
    8.1736  -12.1162   20.0995 C   0  0  0  0  0  0  0  0  0  0  0  0
    8.1196  -12.9634   21.3271 C   0  0  0  0  0  0  0  0  0  0  0  0
    7.5378  -14.3355   21.0666 C   0  0  2  0  0  0  0  0  0  0  0  0
    6.0981  -14.4335   21.4734 C   0  0  0  0  0  0  0  0  0  0  0  0
    8.4084  -15.3843   21.7495 C   0  0  2  0  0  0  0  0  0  0  0  0
    8.0103  -16.7254   21.3454 N   0  0  0  0  0  0  0  0  0  0  0  0
    8.1438  -15.2825   23.2152 C   0  0  0  0  0  0  0  0  0  0  0  0
    7.0548  -15.7965   23.6138 O   0  0  0  0  0  0  0  0  0  0  0  0
    5.4198  -12.6303   26.1017 C   0  0  0  0  0  0  0  0  0  0  0  0
    6.8402  -12.9185   25.6481 C   0  0  1  0  0  0  0  0  0  0  0  0
    7.7910  -12.1475   26.5694 C   0  0  0  0  0  0  0  0  0  0  0  0
    7.1493  -14.3836   25.6685 C   0  0  0  0  0  0  0  0  0  0  0  0
    8.6142  -14.6272   25.5413 C   0  0  2  0  0  0  0  0  0  0  0  0
    9.0074  -14.6714   24.1262 N   0  0  0  0  0  0  0  0  0  0  0  0
    9.1211  -15.8652   26.1443 C   0  0  0  0  0  0  0  0  0  0  0  0
    9.7171  -15.8406   27.2406 O   0  0  0  0  0  0  0  0  0  0  0  0
    8.9428  -17.0747   25.5021 O   0  0  0  0  0  0  0  0  0  0  0  0
  1  2  1  0
  2  3  1  0
  3  4  2  0
  3 10  1  0
  6  5  1  0
  7  6  1  0
  7  8  1  1
  9  7  1  0
  9 10  1  6
 11  9  1  0
 11 18  1  0
 12 11  2  0
 14 15  1  1
 14 16  1  0
 14 13  1  0
 17 16  1  6
 17 18  1  0
 19 17  1  0
 20 19  2  0
 21 19  1  0
M  END
$$$$
