GIL.pdb
     RDKit          3D

 21 20  0  0  1  0  0  0  0  0999 V2000
    8.6733  -20.2048   20.5614 N   0  0  0  0  0  0  0  0  0  0  0  0
    7.8781  -19.3129   21.3425 C   0  0  0  0  0  0  0  0  0  0  0  0
    8.5291  -17.9924   21.5531 C   0  0  0  0  0  0  0  0  0  0  0  0
    9.7623  -17.9251   21.8077 O   0  0  0  0  0  0  0  0  0  0  0  0
    8.0066  -11.9489   20.4321 C   0  0  0  0  0  0  0  0  0  0  0  0
    8.5656  -13.1035   21.1950 C   0  0  0  0  0  0  0  0  0  0  0  0
    7.7377  -14.3608   21.0444 C   0  0  2  0  0  0  0  0  0  0  0  0
    6.3078  -14.1562   21.4461 C   0  0  0  0  0  0  0  0  0  0  0  0
    8.4037  -15.4925   21.8191 C   0  0  2  0  0  0  0  0  0  0  0  0
    7.8015  -16.7735   21.4775 N   0  0  0  0  0  0  0  0  0  0  0  0
    8.1182  -15.2570   23.2653 C   0  0  0  0  0  0  0  0  0  0  0  0
    6.9829  -15.6502   23.6722 O   0  0  0  0  0  0  0  0  0  0  0  0
    5.5778  -12.5357   26.1457 C   0  0  0  0  0  0  0  0  0  0  0  0
    7.0065  -12.8834   25.7660 C   0  0  1  0  0  0  0  0  0  0  0  0
    7.9399  -12.1449   26.7306 C   0  0  0  0  0  0  0  0  0  0  0  0
    7.2550  -14.3596   25.8090 C   0  0  0  0  0  0  0  0  0  0  0  0
    8.6954  -14.6704   25.5857 C   0  0  2  0  0  0  0  0  0  0  0  0
    9.0100  -14.6485   24.1506 N   0  0  0  0  0  0  0  0  0  0  0  0
    9.1647  -15.9675   26.0863 C   0  0  0  0  0  0  0  0  0  0  0  0
   10.1291  -16.0329   26.8758 O   0  0  0  0  0  0  0  0  0  0  0  0
    8.5412  -17.1333   25.6872 O   0  0  0  0  0  0  0  0  0  0  0  0
  1  2  1  0
  2  3  1  0
  3  4  2  0
  3 10  1  0
  6  5  1  0
  7  6  1  0
  7  8  1  1
  9  7  1  0
  9 10  1  6
 11  9  1  0
 11 18  1  0
 12 11  2  0
 14 15  1  1
 14 16  1  0
 14 13  1  0
 17 16  1  6
 17 18  1  0
 19 17  1  0
 20 19  2  0
 21 19  1  0
M  END
$$$$
