GIL.pdb
     RDKit          3D

 21 20  0  0  1  0  0  0  0  0999 V2000
    4.7299  -19.0002   21.2922 N   0  0  0  0  0  0  0  0  0  0  0  0
    4.8403  -17.6882   21.8438 C   0  0  0  0  0  0  0  0  0  0  0  0
    6.2216  -17.1427   21.7646 C   0  0  0  0  0  0  0  0  0  0  0  0
    7.1892  -17.9008   21.4833 O   0  0  0  0  0  0  0  0  0  0  0  0
    7.1235  -12.3520   19.5759 C   0  0  0  0  0  0  0  0  0  0  0  0
    7.2590  -13.7456   20.0928 C   0  0  0  0  0  0  0  0  0  0  0  0
    7.8687  -13.8004   21.4763 C   0  0  2  0  0  0  0  0  0  0  0  0
    9.2358  -13.1867   21.5242 C   0  0  0  0  0  0  0  0  0  0  0  0
    7.8609  -15.2434   21.9682 C   0  0  2  0  0  0  0  0  0  0  0  0
    6.5034  -15.7691   21.9985 N   0  0  0  0  0  0  0  0  0  0  0  0
    8.3446  -15.2246   23.3804 C   0  0  0  0  0  0  0  0  0  0  0  0
    9.5972  -15.0923   23.5303 O   0  0  0  0  0  0  0  0  0  0  0  0
    6.2916  -12.0798   26.8598 C   0  0  0  0  0  0  0  0  0  0  0  0
    7.3236  -12.9529   26.1677 C   0  0  1  0  0  0  0  0  0  0  0  0
    8.6936  -12.2917   26.3498 C   0  0  0  0  0  0  0  0  0  0  0  0
    7.3297  -14.3496   26.7077 C   0  0  0  0  0  0  0  0  0  0  0  0
    8.1169  -15.2629   25.8315 C   0  0  2  0  0  0  0  0  0  0  0  0
    7.5118  -15.3416   24.4949 N   0  0  0  0  0  0  0  0  0  0  0  0
    8.2582  -16.6472   26.2973 C   0  0  0  0  0  0  0  0  0  0  0  0
    7.6324  -17.5723   25.7403 O   0  0  0  0  0  0  0  0  0  0  0  0
    9.0886  -16.9412   27.3609 O   0  0  0  0  0  0  0  0  0  0  0  0
  1  2  1  0
  2  3  1  0
  3  4  2  0
  3 10  1  0
  6  5  1  0
  7  6  1  0
  7  8  1  6
  9  7  1  0
  9 10  1  1
 11  9  1  0
 11 18  1  0
 12 11  2  0
 14 15  1  1
 14 16  1  0
 14 13  1  0
 17 16  1  1
 17 18  1  0
 19 17  1  0
 20 19  2  0
 21 19  1  0
M  END
$$$$
