GIL.pdb
     RDKit          3D

 21 20  0  0  1  0  0  0  0  0999 V2000
    5.3269  -19.6800   21.8295 N   0  0  0  0  0  0  0  0  0  0  0  0
    5.4082  -18.4449   22.5406 C   0  0  0  0  0  0  0  0  0  0  0  0
    6.7160  -17.7598   22.3608 C   0  0  0  0  0  0  0  0  0  0  0  0
    7.7747  -18.4336   22.2367 O   0  0  0  0  0  0  0  0  0  0  0  0
    7.3603  -12.0037   21.3002 C   0  0  0  0  0  0  0  0  0  0  0  0
    7.4965  -13.2722   22.0750 C   0  0  0  0  0  0  0  0  0  0  0  0
    7.9088  -14.4443   21.2118 C   0  0  2  0  0  0  0  0  0  0  0  0
    6.9503  -14.6909   20.0856 C   0  0  0  0  0  0  0  0  0  0  0  0
    8.0974  -15.6724   22.0951 C   0  0  2  0  0  0  0  0  0  0  0  0
    6.8250  -16.3430   22.3221 N   0  0  0  0  0  0  0  0  0  0  0  0
    8.5674  -15.1840   23.4252 C   0  0  0  0  0  0  0  0  0  0  0  0
    8.8836  -13.9568   23.4794 O   0  0  0  0  0  0  0  0  0  0  0  0
    6.3364  -12.3431   26.1101 C   0  0  0  0  0  0  0  0  0  0  0  0
    7.5755  -13.1452   25.7530 C   0  0  1  0  0  0  0  0  0  0  0  0
    8.7682  -12.5095   26.4745 C   0  0  0  0  0  0  0  0  0  0  0  0
    7.4355  -14.5891   26.1245 C   0  0  0  0  0  0  0  0  0  0  0  0
    8.7028  -15.3341   25.8789 C   0  0  2  0  0  0  0  0  0  0  0  0
    8.6691  -15.9868   24.5629 N   0  0  0  0  0  0  0  0  0  0  0  0
    9.0357  -16.3854   26.8470 C   0  0  0  0  0  0  0  0  0  0  0  0
    9.2479  -16.1030   28.0441 O   0  0  0  0  0  0  0  0  0  0  0  0
    9.1176  -17.7029   26.4415 O   0  0  0  0  0  0  0  0  0  0  0  0
  1  2  1  0
  2  3  1  0
  3  4  2  0
  3 10  1  0
  6  5  1  0
  7  6  1  0
  7  8  1  6
  9  7  1  0
  9 10  1  1
 11  9  1  0
 11 18  1  0
 12 11  2  0
 14 15  1  1
 14 16  1  0
 14 13  1  0
 17 16  1  1
 17 18  1  0
 19 17  1  0
 20 19  2  0
 21 19  1  0
M  END
$$$$
