GIL.pdb
     RDKit          3D

 21 20  0  0  1  0  0  0  0  0999 V2000
    5.8522  -19.3841   23.2086 N   0  0  0  0  0  0  0  0  0  0  0  0
    6.0101  -18.4015   24.2320 C   0  0  0  0  0  0  0  0  0  0  0  0
    7.0389  -17.3805   23.8986 C   0  0  0  0  0  0  0  0  0  0  0  0
    7.8384  -17.5723   22.9425 O   0  0  0  0  0  0  0  0  0  0  0  0
    6.5501  -12.3819   26.3696 C   0  0  0  0  0  0  0  0  0  0  0  0
    7.0328  -13.7382   25.9756 C   0  0  0  0  0  0  0  0  0  0  0  0
    7.6416  -13.7638   24.5908 C   0  0  2  0  0  0  0  0  0  0  0  0
    6.6899  -13.2803   23.5381 C   0  0  0  0  0  0  0  0  0  0  0  0
    8.1657  -15.1660   24.3021 C   0  0  2  0  0  0  0  0  0  0  0  0
    7.1616  -16.1681   24.6307 N   0  0  0  0  0  0  0  0  0  0  0  0
    9.3188  -15.3977   25.2214 C   0  0  0  0  0  0  0  0  0  0  0  0
   10.3513  -14.6963   24.9951 O   0  0  0  0  0  0  0  0  0  0  0  0
   10.0779  -13.6226   28.0029 C   0  0  0  0  0  0  0  0  0  0  0  0
   10.8484  -14.6996   28.7463 C   0  0  1  0  0  0  0  0  0  0  0  0
   10.7919  -14.3680   30.2410 C   0  0  0  0  0  0  0  0  0  0  0  0
   10.2976  -16.0669   28.4823 C   0  0  0  0  0  0  0  0  0  0  0  0
   10.5333  -16.4795   27.0697 C   0  0  2  0  0  0  0  0  0  0  0  0
    9.3089  -16.3144   26.2744 N   0  0  0  0  0  0  0  0  0  0  0  0
   10.9705  -17.8648   26.8624 C   0  0  0  0  0  0  0  0  0  0  0  0
   12.0539  -18.2667   27.3339 O   0  0  0  0  0  0  0  0  0  0  0  0
   10.1841  -18.7411   26.1407 O   0  0  0  0  0  0  0  0  0  0  0  0
  1  2  1  0
  2  3  1  0
  3  4  2  0
  3 10  1  0
  6  5  1  0
  7  6  1  0
  7  8  1  6
  9  7  1  0
  9 10  1  1
 11  9  1  0
 11 18  1  0
 12 11  2  0
 14 15  1  1
 14 16  1  0
 14 13  1  0
 17 16  1  1
 17 18  1  0
 19 17  1  0
 20 19  2  0
 21 19  1  0
M  END
$$$$
