GIL.pdb
     RDKit          3D

 21 20  0  0  1  0  0  0  0  0999 V2000
    5.8184  -19.3566   23.3961 N   0  0  0  0  0  0  0  0  0  0  0  0
    5.8440  -18.3333   24.3911 C   0  0  0  0  0  0  0  0  0  0  0  0
    6.9731  -17.3819   24.2123 C   0  0  0  0  0  0  0  0  0  0  0  0
    7.9748  -17.7075   23.5190 O   0  0  0  0  0  0  0  0  0  0  0  0
    6.2522  -12.2194   26.2808 C   0  0  0  0  0  0  0  0  0  0  0  0
    6.6983  -13.6139   25.9907 C   0  0  0  0  0  0  0  0  0  0  0  0
    7.5522  -13.7086   24.7454 C   0  0  2  0  0  0  0  0  0  0  0  0
    6.8372  -13.2179   23.5224 C   0  0  0  0  0  0  0  0  0  0  0  0
    8.0532  -15.1402   24.5917 C   0  0  2  0  0  0  0  0  0  0  0  0
    6.9701  -16.0898   24.8049 N   0  0  0  0  0  0  0  0  0  0  0  0
    9.0473  -15.3728   25.6809 C   0  0  0  0  0  0  0  0  0  0  0  0
    9.4713  -14.3320   26.2691 O   0  0  0  0  0  0  0  0  0  0  0  0
    9.7512  -13.8529   29.5580 C   0  0  0  0  0  0  0  0  0  0  0  0
   10.0408  -14.5543   28.2427 C   0  0  1  0  0  0  0  0  0  0  0  0
   11.4283  -14.1083   27.7702 C   0  0  0  0  0  0  0  0  0  0  0  0
    9.9765  -16.0445   28.3755 C   0  0  0  0  0  0  0  0  0  0  0  0
   10.4939  -16.7177   27.1505 C   0  0  2  0  0  0  0  0  0  0  0  0
    9.5099  -16.6335   26.0626 N   0  0  0  0  0  0  0  0  0  0  0  0
   10.8326  -18.1391   27.2850 C   0  0  0  0  0  0  0  0  0  0  0  0
   11.7621  -18.5030   28.0342 O   0  0  0  0  0  0  0  0  0  0  0  0
   10.1231  -19.0922   26.5812 O   0  0  0  0  0  0  0  0  0  0  0  0
  1  2  1  0
  2  3  1  0
  3  4  2  0
  3 10  1  0
  6  5  1  0
  7  6  1  0
  7  8  1  6
  9  7  1  0
  9 10  1  1
 11  9  1  0
 11 18  1  0
 12 11  2  0
 14 15  1  1
 14 16  1  0
 14 13  1  0
 17 16  1  1
 17 18  1  0
 19 17  1  0
 20 19  2  0
 21 19  1  0
M  END
$$$$
