GIL.pdb
     RDKit          3D

 21 20  0  0  1  0  0  0  0  0999 V2000
    6.5807  -20.1468   21.5154 N   0  0  0  0  0  0  0  0  0  0  0  0
    6.1838  -18.8158   21.8454 C   0  0  0  0  0  0  0  0  0  0  0  0
    7.2867  -17.8297   21.6932 C   0  0  0  0  0  0  0  0  0  0  0  0
    8.4683  -18.2231   21.4958 O   0  0  0  0  0  0  0  0  0  0  0  0
    8.3443  -11.8806   20.2883 C   0  0  0  0  0  0  0  0  0  0  0  0
    8.7744  -13.2313   20.7554 C   0  0  0  0  0  0  0  0  0  0  0  0
    7.6074  -14.1392   21.0760 C   0  0  2  0  0  0  0  0  0  0  0  0
    6.6205  -13.4967   22.0039 C   0  0  0  0  0  0  0  0  0  0  0  0
    8.1384  -15.4622   21.6162 C   0  0  2  0  0  0  0  0  0  0  0  0
    7.0587  -16.4282   21.7628 N   0  0  0  0  0  0  0  0  0  0  0  0
    8.6619  -15.1936   22.9883 C   0  0  0  0  0  0  0  0  0  0  0  0
    9.8593  -14.7792   23.0479 O   0  0  0  0  0  0  0  0  0  0  0  0
    5.5942  -12.8030   26.5793 C   0  0  0  0  0  0  0  0  0  0  0  0
    6.8433  -13.1942   25.8092 C   0  0  1  0  0  0  0  0  0  0  0  0
    7.8186  -12.0142   25.8692 C   0  0  0  0  0  0  0  0  0  0  0  0
    7.4747  -14.4362   26.3579 C   0  0  0  0  0  0  0  0  0  0  0  0
    8.5204  -14.9621   25.4353 C   0  0  2  0  0  0  0  0  0  0  0  0
    7.9207  -15.3717   24.1579 N   0  0  0  0  0  0  0  0  0  0  0  0
    9.2874  -16.1176   25.9147 C   0  0  0  0  0  0  0  0  0  0  0  0
   10.0400  -16.0143   26.9050 O   0  0  0  0  0  0  0  0  0  0  0  0
    9.1837  -17.3356   25.2722 O   0  0  0  0  0  0  0  0  0  0  0  0
  1  2  1  0
  2  3  1  0
  3  4  2  0
  3 10  1  0
  6  5  1  0
  7  6  1  0
  7  8  1  1
  9  7  1  0
  9 10  1  1
 11  9  1  0
 11 18  1  0
 12 11  2  0
 14 15  1  1
 14 16  1  0
 14 13  1  0
 17 16  1  1
 17 18  1  0
 19 17  1  0
 20 19  2  0
 21 19  1  0
M  END
$$$$
