GIL.pdb
     RDKit          3D

 21 20  0  0  1  0  0  0  0  0999 V2000
   13.1690  -17.0523   20.7311 N   0  0  0  0  0  0  0  0  0  0  0  0
   11.8892  -17.4071   21.2547 C   0  0  0  0  0  0  0  0  0  0  0  0
   11.1743  -16.2537   21.8637 C   0  0  0  0  0  0  0  0  0  0  0  0
   11.8001  -15.4223   22.5759 O   0  0  0  0  0  0  0  0  0  0  0  0
    7.4721  -13.4185   19.1583 C   0  0  0  0  0  0  0  0  0  0  0  0
    8.5206  -13.8665   20.1214 C   0  0  0  0  0  0  0  0  0  0  0  0
    7.9392  -14.4511   21.3900 C   0  0  2  0  0  0  0  0  0  0  0  0
    7.0199  -13.4966   22.0912 C   0  0  0  0  0  0  0  0  0  0  0  0
    9.0764  -14.9285   22.2861 C   0  0  2  0  0  0  0  0  0  0  0  0
    9.7814  -16.0446   21.6716 N   0  0  0  0  0  0  0  0  0  0  0  0
    8.4538  -15.4522   23.5378 C   0  0  0  0  0  0  0  0  0  0  0  0
    8.6835  -16.6726   23.7966 O   0  0  0  0  0  0  0  0  0  0  0  0
    6.0970  -11.8685   26.8681 C   0  0  0  0  0  0  0  0  0  0  0  0
    7.0813  -12.9692   26.5134 C   0  0  1  0  0  0  0  0  0  0  0  0
    8.1989  -12.9530   27.5613 C   0  0  0  0  0  0  0  0  0  0  0  0
    6.4234  -14.3132   26.4564 C   0  0  0  0  0  0  0  0  0  0  0  0
    7.2432  -15.2820   25.6748 C   0  0  2  0  0  0  0  0  0  0  0  0
    7.6634  -14.6880   24.3983 N   0  0  0  0  0  0  0  0  0  0  0  0
    6.5973  -16.5560   25.3388 C   0  0  0  0  0  0  0  0  0  0  0  0
    6.0730  -16.7269   24.2192 O   0  0  0  0  0  0  0  0  0  0  0  0
    6.5633  -17.5827   26.2617 O   0  0  0  0  0  0  0  0  0  0  0  0
  1  2  1  0
  2  3  1  0
  3  4  2  0
  3 10  1  0
  6  5  1  0
  7  6  1  0
  7  8  1  1
  9  7  1  0
  9 10  1  6
 11  9  1  0
 11 18  1  0
 12 11  2  0
 14 15  1  1
 14 16  1  0
 14 13  1  0
 17 16  1  6
 17 18  1  0
 19 17  1  0
 20 19  2  0
 21 19  1  0
M  END
$$$$
