GIL.pdb
     RDKit          3D

 21 20  0  0  1  0  0  0  0  0999 V2000
    5.4780  -19.3547   21.1326 N   0  0  0  0  0  0  0  0  0  0  0  0
    5.4249  -18.0801   21.7733 C   0  0  0  0  0  0  0  0  0  0  0  0
    6.7057  -17.3304   21.6748 C   0  0  0  0  0  0  0  0  0  0  0  0
    7.7620  -17.9206   21.3201 O   0  0  0  0  0  0  0  0  0  0  0  0
    7.0072  -12.4769   19.5039 C   0  0  0  0  0  0  0  0  0  0  0  0
    7.3234  -13.8343   20.0381 C   0  0  0  0  0  0  0  0  0  0  0  0
    7.8582  -13.7968   21.4529 C   0  0  2  0  0  0  0  0  0  0  0  0
    9.1033  -12.9704   21.5726 C   0  0  0  0  0  0  0  0  0  0  0  0
    8.0573  -15.2246   21.9489 C   0  0  2  0  0  0  0  0  0  0  0  0
    6.7907  -15.9426   21.9711 N   0  0  0  0  0  0  0  0  0  0  0  0
    8.5224  -15.1329   23.3645 C   0  0  0  0  0  0  0  0  0  0  0  0
    9.7374  -14.8049   23.5233 O   0  0  0  0  0  0  0  0  0  0  0  0
    5.7625  -12.4225   26.7284 C   0  0  0  0  0  0  0  0  0  0  0  0
    6.9845  -13.0546   26.0853 C   0  0  1  0  0  0  0  0  0  0  0  0
    8.1660  -12.1006   26.2880 C   0  0  0  0  0  0  0  0  0  0  0  0
    7.2851  -14.4049   26.6588 C   0  0  0  0  0  0  0  0  0  0  0  0
    8.2649  -15.1438   25.8129 C   0  0  2  0  0  0  0  0  0  0  0  0
    7.7110  -15.3821   24.4730 N   0  0  0  0  0  0  0  0  0  0  0  0
    8.6974  -16.4533   26.3142 C   0  0  0  0  0  0  0  0  0  0  0  0
    9.2032  -16.5638   27.4499 O   0  0  0  0  0  0  0  0  0  0  0  0
    8.5482  -17.5811   25.5313 O   0  0  0  0  0  0  0  0  0  0  0  0
  1  2  1  0
  2  3  1  0
  3  4  2  0
  3 10  1  0
  6  5  1  0
  7  6  1  0
  7  8  1  6
  9  7  1  0
  9 10  1  1
 11  9  1  0
 11 18  1  0
 12 11  2  0
 14 15  1  1
 14 16  1  0
 14 13  1  0
 17 16  1  1
 17 18  1  0
 19 17  1  0
 20 19  2  0
 21 19  1  0
M  END
$$$$
