GIL.pdb
     RDKit          3D

 21 20  0  0  1  0  0  0  0  0999 V2000
    4.9284  -19.2431   21.6046 N   0  0  0  0  0  0  0  0  0  0  0  0
    5.0561  -17.9795   22.2563 C   0  0  0  0  0  0  0  0  0  0  0  0
    6.3945  -17.3611   22.0602 C   0  0  0  0  0  0  0  0  0  0  0  0
    7.4001  -18.0840   21.8233 O   0  0  0  0  0  0  0  0  0  0  0  0
    6.8349  -12.6919   19.5037 C   0  0  0  0  0  0  0  0  0  0  0  0
    7.1679  -14.0341   20.0654 C   0  0  0  0  0  0  0  0  0  0  0  0
    7.8212  -13.9532   21.4276 C   0  0  2  0  0  0  0  0  0  0  0  0
    9.1503  -13.2607   21.3848 C   0  0  0  0  0  0  0  0  0  0  0  0
    7.9140  -15.3547   22.0204 C   0  0  2  0  0  0  0  0  0  0  0  0
    6.5919  -15.9550   22.1304 N   0  0  0  0  0  0  0  0  0  0  0  0
    8.4336  -15.2053   23.4119 C   0  0  0  0  0  0  0  0  0  0  0  0
    9.6761  -14.9702   23.5120 O   0  0  0  0  0  0  0  0  0  0  0  0
    5.9939  -12.1333   26.6038 C   0  0  0  0  0  0  0  0  0  0  0  0
    7.1793  -12.8741   26.0103 C   0  0  1  0  0  0  0  0  0  0  0  0
    8.4035  -11.9588   26.1159 C   0  0  0  0  0  0  0  0  0  0  0  0
    7.4283  -14.1792   26.7010 C   0  0  0  0  0  0  0  0  0  0  0  0
    8.2736  -15.0786   25.8654 C   0  0  2  0  0  0  0  0  0  0  0  0
    7.6434  -15.3090   24.5582 N   0  0  0  0  0  0  0  0  0  0  0  0
    8.5551  -16.4067   26.4221 C   0  0  0  0  0  0  0  0  0  0  0  0
    9.1680  -16.5261   27.5028 O   0  0  0  0  0  0  0  0  0  0  0  0
    8.1429  -17.5423   25.7531 O   0  0  0  0  0  0  0  0  0  0  0  0
  1  2  1  0
  2  3  1  0
  3  4  2  0
  3 10  1  0
  6  5  1  0
  7  6  1  0
  7  8  1  6
  9  7  1  0
  9 10  1  1
 11  9  1  0
 11 18  1  0
 12 11  2  0
 14 15  1  1
 14 16  1  0
 14 13  1  0
 17 16  1  1
 17 18  1  0
 19 17  1  0
 20 19  2  0
 21 19  1  0
M  END
$$$$
