GIL.pdb
     RDKit          3D

 21 20  0  0  1  0  0  0  0  0999 V2000
    6.1605  -19.4623   23.1910 N   0  0  0  0  0  0  0  0  0  0  0  0
    6.0495  -18.5328   24.2688 C   0  0  0  0  0  0  0  0  0  0  0  0
    6.7721  -17.2589   24.0097 C   0  0  0  0  0  0  0  0  0  0  0  0
    7.5501  -17.1590   23.0224 O   0  0  0  0  0  0  0  0  0  0  0  0
    7.0187  -11.3159   25.8970 C   0  0  0  0  0  0  0  0  0  0  0  0
    7.3874  -12.4331   24.9785 C   0  0  0  0  0  0  0  0  0  0  0  0
    6.6225  -13.7059   25.2680 C   0  0  2  0  0  0  0  0  0  0  0  0
    6.4088  -13.9241   26.7358 C   0  0  0  0  0  0  0  0  0  0  0  0
    7.3348  -14.8782   24.6028 C   0  0  2  0  0  0  0  0  0  0  0  0
    6.6185  -16.1218   24.8490 N   0  0  0  0  0  0  0  0  0  0  0  0
    8.6656  -15.0120   25.2659 C   0  0  0  0  0  0  0  0  0  0  0  0
    9.4733  -14.0527   25.0752 O   0  0  0  0  0  0  0  0  0  0  0  0
    9.8465  -13.5147   28.1452 C   0  0  0  0  0  0  0  0  0  0  0  0
   10.7816  -14.6287   28.5818 C   0  0  1  0  0  0  0  0  0  0  0  0
   10.8925  -14.5749   30.1089 C   0  0  0  0  0  0  0  0  0  0  0  0
   10.3022  -15.9733   28.1292 C   0  0  0  0  0  0  0  0  0  0  0  0
   10.3862  -16.1046   26.6469 C   0  0  2  0  0  0  0  0  0  0  0  0
    9.0422  -16.1018   26.0532 N   0  0  0  0  0  0  0  0  0  0  0  0
   11.0539  -17.3084   26.1388 C   0  0  0  0  0  0  0  0  0  0  0  0
   12.1674  -17.2300   25.5805 O   0  0  0  0  0  0  0  0  0  0  0  0
   10.4544  -18.5452   26.2741 O   0  0  0  0  0  0  0  0  0  0  0  0
  1  2  1  0
  2  3  1  0
  3  4  2  0
  3 10  1  0
  6  5  1  0
  7  6  1  0
  7  8  1  1
  9  7  1  0
  9 10  1  1
 11  9  1  0
 11 18  1  0
 12 11  2  0
 14 15  1  1
 14 16  1  0
 14 13  1  0
 17 16  1  1
 17 18  1  0
 19 17  1  0
 20 19  2  0
 21 19  1  0
M  END
$$$$
