QSG.pdb
     RDKit          3D

 20 19  0  0  1  0  0  0  0  0999 V2000
    9.9155  -10.7020   -8.5285 N   0  0  0  0  0  0  0  0  0  0  0  0
   10.8885   -9.9790   -9.3043 C   0  0  0  0  0  0  0  0  0  0  0  0
   11.3081   -8.8872   -8.8955 O   0  0  0  0  0  0  0  0  0  0  0  0
   11.3458  -10.6141  -10.5983 C   0  0  0  0  0  0  0  0  0  0  0  0
   12.8179  -10.4499  -10.6446 C   0  0  0  0  0  0  0  0  0  0  0  0
   13.5192  -10.8211  -11.8930 C   0  0  2  0  0  0  0  0  0  0  0  0
   13.5964  -12.2997  -11.8970 N   0  0  0  0  0  0  0  0  0  0  0  0
   14.8776  -10.3070  -12.0747 C   0  0  0  0  0  0  0  0  0  0  0  0
   15.8804  -11.0290  -11.7410 O   0  0  0  0  0  0  0  0  0  0  0  0
   15.7284   -7.0627  -14.4038 O   0  0  0  0  0  0  0  0  0  0  0  0
   16.7058   -8.0328  -14.1942 C   0  0  0  0  0  0  0  0  0  0  0  0
   16.5885   -8.5744  -12.7627 C   0  0  2  0  0  0  0  0  0  0  0  0
   15.2342   -9.0383  -12.6060 N   0  0  0  0  0  0  0  0  0  0  0  0
   16.9216   -7.4542  -11.8642 C   0  0  0  0  0  0  0  0  0  0  0  0
   18.0247   -6.8598  -11.8443 O   0  0  0  0  0  0  0  0  0  0  0  0
   15.9211   -7.0169  -10.9562 N   0  0  0  0  0  0  0  0  0  0  0  0
   16.1239   -5.8486  -10.1114 C   0  0  0  0  0  0  0  0  0  0  0  0
   16.6384   -6.2454   -8.7743 C   0  0  0  0  0  0  0  0  0  0  0  0
   16.8190   -7.4747   -8.5775 O   0  0  0  0  0  0  0  0  0  0  0  0
   16.9218   -5.3620   -7.7621 O   0  0  0  0  0  0  0  0  0  0  0  0
  2  1  1  0
  3  2  2  0
  4  2  1  0
  5  4  1  0
  6  7  1  1
  6  5  1  0
  8  9  2  0
  8  6  1  0
 10 11  1  0
 12 11  1  6
 12 13  1  0
 12 14  1  0
 13  8  1  0
 14 15  2  0
 14 16  1  0
 16 17  1  0
 18 17  1  0
 18 20  1  0
 19 18  2  0
M  END
$$$$
