QSG.pdb
     RDKit          3D

 20 19  0  0  1  0  0  0  0  0999 V2000
   15.4658  -13.5810  -10.1136 N   0  0  0  0  0  0  0  0  0  0  0  0
   14.7916  -12.8664  -11.1654 C   0  0  0  0  0  0  0  0  0  0  0  0
   15.2240  -12.9327  -12.3247 O   0  0  0  0  0  0  0  0  0  0  0  0
   13.5708  -12.0626  -10.7777 C   0  0  0  0  0  0  0  0  0  0  0  0
   13.9024  -10.6445  -11.0516 C   0  0  0  0  0  0  0  0  0  0  0  0
   14.2030   -9.7664   -9.8998 C   0  0  2  0  0  0  0  0  0  0  0  0
   12.9036   -9.4817   -9.2498 N   0  0  0  0  0  0  0  0  0  0  0  0
   14.8442   -8.4824  -10.1877 C   0  0  0  0  0  0  0  0  0  0  0  0
   14.1241   -7.4563  -10.4464 O   0  0  0  0  0  0  0  0  0  0  0  0
   16.9963   -6.4067   -8.2935 O   0  0  0  0  0  0  0  0  0  0  0  0
   16.4895   -5.9576   -9.5108 C   0  0  0  0  0  0  0  0  0  0  0  0
   16.8299   -6.9724  -10.6109 C   0  0  2  0  0  0  0  0  0  0  0  0
   16.2414   -8.2253  -10.2138 N   0  0  0  0  0  0  0  0  0  0  0  0
   18.3011   -7.0258  -10.6886 C   0  0  0  0  0  0  0  0  0  0  0  0
   19.0305   -7.7113   -9.9346 O   0  0  0  0  0  0  0  0  0  0  0  0
   18.9376   -6.2447  -11.6892 N   0  0  0  0  0  0  0  0  0  0  0  0
   20.3741   -6.3248  -11.9124 C   0  0  0  0  0  0  0  0  0  0  0  0
   20.8005   -5.3649  -12.9644 C   0  0  0  0  0  0  0  0  0  0  0  0
   22.0388   -5.2131  -13.1261 O   0  0  0  0  0  0  0  0  0  0  0  0
   19.9348   -4.6489  -13.7538 O   0  0  0  0  0  0  0  0  0  0  0  0
  2  1  1  0
  3  2  2  0
  4  2  1  0
  5  4  1  0
  6  7  1  6
  6  5  1  0
  8  9  2  0
  8  6  1  0
 10 11  1  0
 12 11  1  1
 12 13  1  0
 12 14  1  0
 13  8  1  0
 14 15  2  0
 14 16  1  0
 16 17  1  0
 18 17  1  0
 18 20  1  0
 19 18  2  0
M  END
$$$$
