QSG.pdb
     RDKit          3D

 20 19  0  0  1  0  0  0  0  0999 V2000
   16.3717  -13.4951  -12.4542 N   0  0  0  0  0  0  0  0  0  0  0  0
   15.1458  -12.7527  -12.3226 C   0  0  0  0  0  0  0  0  0  0  0  0
   14.4074  -12.6115  -13.3075 O   0  0  0  0  0  0  0  0  0  0  0  0
   14.8318  -12.1800  -10.9587 C   0  0  0  0  0  0  0  0  0  0  0  0
   14.9562  -10.7089  -11.0867 C   0  0  0  0  0  0  0  0  0  0  0  0
   14.7753   -9.8879   -9.8696 C   0  0  2  0  0  0  0  0  0  0  0  0
   13.3894  -10.1337   -9.4101 N   0  0  0  0  0  0  0  0  0  0  0  0
   14.9451   -8.4407  -10.0081 C   0  0  0  0  0  0  0  0  0  0  0  0
   13.9997   -7.6532   -9.6554 O   0  0  0  0  0  0  0  0  0  0  0  0
   16.7567   -4.7259   -8.6805 O   0  0  0  0  0  0  0  0  0  0  0  0
   16.5473   -6.0884   -8.8803 C   0  0  0  0  0  0  0  0  0  0  0  0
   16.3340   -6.3580  -10.3763 C   0  0  2  0  0  0  0  0  0  0  0  0
   16.0930   -7.7713  -10.5113 N   0  0  0  0  0  0  0  0  0  0  0  0
   17.5630   -5.9151  -11.0594 C   0  0  0  0  0  0  0  0  0  0  0  0
   17.9455   -4.7243  -11.1380 O   0  0  0  0  0  0  0  0  0  0  0  0
   18.3717   -6.9086  -11.6723 N   0  0  0  0  0  0  0  0  0  0  0  0
   19.5541   -6.5525  -12.4435 C   0  0  0  0  0  0  0  0  0  0  0  0
   20.1943   -7.7640  -13.0200 C   0  0  0  0  0  0  0  0  0  0  0  0
   19.6395   -8.8674  -12.7811 O   0  0  0  0  0  0  0  0  0  0  0  0
   21.3351   -7.7457  -13.7838 O   0  0  0  0  0  0  0  0  0  0  0  0
  2  1  1  0
  3  2  2  0
  4  2  1  0
  5  4  1  0
  6  7  1  6
  6  5  1  0
  8  9  2  0
  8  6  1  0
 10 11  1  0
 12 11  1  1
 12 13  1  0
 12 14  1  0
 13  8  1  0
 14 15  2  0
 14 16  1  0
 16 17  1  0
 18 17  1  0
 18 20  1  0
 19 18  2  0
M  END
$$$$
