QSG.pdb
     RDKit          3D

 20 19  0  0  1  0  0  0  0  0999 V2000
   13.9625   -8.4760  -14.8131 N   0  0  0  0  0  0  0  0  0  0  0  0
   13.7775   -9.7867  -15.3781 C   0  0  0  0  0  0  0  0  0  0  0  0
   12.6734  -10.1019  -15.8437 O   0  0  0  0  0  0  0  0  0  0  0  0
   14.9710  -10.7153  -15.3662 C   0  0  0  0  0  0  0  0  0  0  0  0
   16.0693   -9.9725  -14.7046 C   0  0  0  0  0  0  0  0  0  0  0  0
   17.2112   -9.5341  -15.5366 C   0  0  2  0  0  0  0  0  0  0  0  0
   17.6057  -10.7098  -16.3455 N   0  0  0  0  0  0  0  0  0  0  0  0
   18.4051   -9.0587  -14.8359 C   0  0  0  0  0  0  0  0  0  0  0  0
   18.3047   -8.6105  -13.6412 O   0  0  0  0  0  0  0  0  0  0  0  0
   23.2565   -8.6009  -14.7020 O   0  0  0  0  0  0  0  0  0  0  0  0
   22.1145   -8.9470  -15.4206 C   0  0  0  0  0  0  0  0  0  0  0  0
   20.8677   -8.5119  -14.6381 C   0  0  2  0  0  0  0  0  0  0  0  0
   19.7300   -9.0357  -15.3488 N   0  0  0  0  0  0  0  0  0  0  0  0
   20.8936   -7.0385  -14.5978 C   0  0  0  0  0  0  0  0  0  0  0  0
   20.4831   -6.2927  -15.5175 O   0  0  0  0  0  0  0  0  0  0  0  0
   21.4212   -6.4195  -13.4337 N   0  0  0  0  0  0  0  0  0  0  0  0
   21.4499   -4.9706  -13.2936 C   0  0  0  0  0  0  0  0  0  0  0  0
   22.4562   -4.3705  -14.2086 C   0  0  0  0  0  0  0  0  0  0  0  0
   22.5107   -3.1143  -14.2468 O   0  0  0  0  0  0  0  0  0  0  0  0
   23.3124   -5.0969  -14.9988 O   0  0  0  0  0  0  0  0  0  0  0  0
  2  1  1  0
  3  2  2  0
  4  2  1  0
  5  4  1  0
  6  7  1  1
  6  5  1  0
  8  9  2  0
  8  6  1  0
 10 11  1  0
 12 11  1  6
 12 13  1  0
 12 14  1  0
 13  8  1  0
 14 15  2  0
 14 16  1  0
 16 17  1  0
 18 17  1  0
 18 20  1  0
 19 18  2  0
M  END
$$$$
