QSG.pdb
     RDKit          3D

 20 19  0  0  1  0  0  0  0  0999 V2000
   18.8602  -10.7595  -20.2237 N   0  0  0  0  0  0  0  0  0  0  0  0
   20.2480  -11.1164  -20.3582 C   0  0  0  0  0  0  0  0  0  0  0  0
   20.6242  -11.7441  -21.3580 O   0  0  0  0  0  0  0  0  0  0  0  0
   21.1782  -10.6919  -19.2440 C   0  0  0  0  0  0  0  0  0  0  0  0
   20.3624   -9.8861  -18.3053 C   0  0  0  0  0  0  0  0  0  0  0  0
   20.6747   -9.9737  -16.8621 C   0  0  2  0  0  0  0  0  0  0  0  0
   19.9864  -11.1868  -16.3654 N   0  0  0  0  0  0  0  0  0  0  0  0
   20.2579   -8.8523  -16.0188 C   0  0  0  0  0  0  0  0  0  0  0  0
   19.0586   -8.4114  -16.0947 O   0  0  0  0  0  0  0  0  0  0  0  0
   19.4115   -8.3401  -12.6258 O   0  0  0  0  0  0  0  0  0  0  0  0
   20.5660   -7.5838  -12.8149 C   0  0  0  0  0  0  0  0  0  0  0  0
   20.6066   -7.0672  -14.2597 C   0  0  2  0  0  0  0  0  0  0  0  0
   21.0659   -8.1605  -15.0768 N   0  0  0  0  0  0  0  0  0  0  0  0
   21.5280   -5.9165  -14.2656 C   0  0  0  0  0  0  0  0  0  0  0  0
   22.7726   -5.9991  -14.1436 O   0  0  0  0  0  0  0  0  0  0  0  0
   20.9657   -4.6218  -14.4206 N   0  0  0  0  0  0  0  0  0  0  0  0
   21.8039   -3.4319  -14.4586 C   0  0  0  0  0  0  0  0  0  0  0  0
   20.9862   -2.2166  -14.7126 C   0  0  0  0  0  0  0  0  0  0  0  0
   21.2551   -1.1978  -14.0254 O   0  0  0  0  0  0  0  0  0  0  0  0
   19.9738   -2.1460  -15.6374 O   0  0  0  0  0  0  0  0  0  0  0  0
  2  1  1  0
  3  2  2  0
  4  2  1  0
  5  4  1  0
  6  7  1  1
  6  5  1  0
  8  9  2  0
  8  6  1  0
 10 11  1  0
 12 11  1  1
 12 13  1  0
 12 14  1  0
 13  8  1  0
 14 15  2  0
 14 16  1  0
 16 17  1  0
 18 17  1  0
 18 20  1  0
 19 18  2  0
M  END
$$$$
