QSG.pdb
     RDKit          3D

 20 19  0  0  1  0  0  0  0  0999 V2000
   24.8513  -21.6020   -8.7463 N   0  0  0  0  0  0  0  0  0  0  0  0
   24.9274  -20.5989   -9.7756 C   0  0  0  0  0  0  0  0  0  0  0  0
   23.8872  -20.1946  -10.3139 O   0  0  0  0  0  0  0  0  0  0  0  0
   26.3044  -20.0919  -10.1412 C   0  0  0  0  0  0  0  0  0  0  0  0
   26.6553  -20.7340  -11.4299 C   0  0  0  0  0  0  0  0  0  0  0  0
   25.6008  -20.8430  -12.4615 C   0  0  2  0  0  0  0  0  0  0  0  0
   25.3335  -22.2901  -12.6248 N   0  0  0  0  0  0  0  0  0  0  0  0
   25.9022  -20.2969  -13.7857 C   0  0  0  0  0  0  0  0  0  0  0  0
   26.6735  -20.9411  -14.5783 O   0  0  0  0  0  0  0  0  0  0  0  0
   25.1470  -16.7988  -17.1183 O   0  0  0  0  0  0  0  0  0  0  0  0
   24.9289  -17.2912  -15.8336 C   0  0  0  0  0  0  0  0  0  0  0  0
   25.7428  -18.5773  -15.6350 C   0  0  2  0  0  0  0  0  0  0  0  0
   25.4147  -19.0758  -14.3244 N   0  0  0  0  0  0  0  0  0  0  0  0
   27.1611  -18.1984  -15.7690 C   0  0  0  0  0  0  0  0  0  0  0  0
   27.8682  -17.7426  -14.8400 O   0  0  0  0  0  0  0  0  0  0  0  0
   27.7701  -18.3612  -17.0414 N   0  0  0  0  0  0  0  0  0  0  0  0
   29.1839  -18.0793  -17.2458 C   0  0  0  0  0  0  0  0  0  0  0  0
   29.5828  -18.3648  -18.6491 C   0  0  0  0  0  0  0  0  0  0  0  0
   30.7920  -18.1816  -18.9439 O   0  0  0  0  0  0  0  0  0  0  0  0
   28.7218  -18.8088  -19.6221 O   0  0  0  0  0  0  0  0  0  0  0  0
  2  1  1  0
  3  2  2  0
  4  2  1  0
  5  4  1  0
  6  7  1  6
  6  5  1  0
  8  9  2  0
  8  6  1  0
 10 11  1  0
 12 11  1  1
 12 13  1  0
 12 14  1  0
 13  8  1  0
 14 15  2  0
 14 16  1  0
 16 17  1  0
 18 17  1  0
 18 20  1  0
 19 18  2  0
M  END
$$$$
