QSG.pdb
     RDKit          3D

 20 19  0  0  1  0  0  0  0  0999 V2000
   16.1324  -13.3192  -15.8706 N   0  0  0  0  0  0  0  0  0  0  0  0
   17.4277  -13.7169  -15.3852 C   0  0  0  0  0  0  0  0  0  0  0  0
   17.6358  -13.7631  -14.1647 O   0  0  0  0  0  0  0  0  0  0  0  0
   18.4745  -14.0603  -16.4211 C   0  0  0  0  0  0  0  0  0  0  0  0
   19.5738  -13.0831  -16.2413 C   0  0  0  0  0  0  0  0  0  0  0  0
   19.3865  -11.7193  -16.7829 C   0  0  2  0  0  0  0  0  0  0  0  0
   19.2067  -11.8784  -18.2439 N   0  0  0  0  0  0  0  0  0  0  0  0
   20.4733  -10.7616  -16.5728 C   0  0  0  0  0  0  0  0  0  0  0  0
   21.0326  -10.6769  -15.4246 O   0  0  0  0  0  0  0  0  0  0  0  0
   23.3396   -9.5194  -19.2916 O   0  0  0  0  0  0  0  0  0  0  0  0
   22.6045   -8.5069  -18.6794 C   0  0  0  0  0  0  0  0  0  0  0  0
   22.1222   -8.9869  -17.3035 C   0  0  2  0  0  0  0  0  0  0  0  0
   21.0100   -9.8705  -17.5407 N   0  0  0  0  0  0  0  0  0  0  0  0
   21.7468   -7.7781  -16.5479 C   0  0  0  0  0  0  0  0  0  0  0  0
   20.6197   -7.2319  -16.5905 O   0  0  0  0  0  0  0  0  0  0  0  0
   22.7326   -7.1901  -15.7118 N   0  0  0  0  0  0  0  0  0  0  0  0
   22.4719   -5.9542  -14.9876 C   0  0  0  0  0  0  0  0  0  0  0  0
   22.1795   -6.2312  -13.5566 C   0  0  0  0  0  0  0  0  0  0  0  0
   21.9477   -7.4280  -13.2459 O   0  0  0  0  0  0  0  0  0  0  0  0
   22.1492   -5.2721  -12.5745 O   0  0  0  0  0  0  0  0  0  0  0  0
  2  1  1  0
  3  2  2  0
  4  2  1  0
  5  4  1  0
  6  7  1  6
  6  5  1  0
  8  9  2  0
  8  6  1  0
 10 11  1  0
 12 11  1  6
 12 13  1  0
 12 14  1  0
 13  8  1  0
 14 15  2  0
 14 16  1  0
 16 17  1  0
 18 17  1  0
 18 20  1  0
 19 18  2  0
M  END
$$$$
