QSG.pdb
     RDKit          3D

 20 19  0  0  1  0  0  0  0  0999 V2000
   28.9056  -27.3064  -16.3534 N   0  0  0  0  0  0  0  0  0  0  0  0
   28.5436  -26.0927  -17.0370 C   0  0  0  0  0  0  0  0  0  0  0  0
   28.9908  -25.8728  -18.1714 O   0  0  0  0  0  0  0  0  0  0  0  0
   27.6194  -25.1429  -16.3088 C   0  0  0  0  0  0  0  0  0  0  0  0
   27.4097  -23.9896  -17.2155 C   0  0  0  0  0  0  0  0  0  0  0  0
   27.6450  -22.6317  -16.6781 C   0  0  2  0  0  0  0  0  0  0  0  0
   28.8722  -22.7224  -15.8548 N   0  0  0  0  0  0  0  0  0  0  0  0
   26.5930  -22.0524  -15.8414 C   0  0  0  0  0  0  0  0  0  0  0  0
   26.5232  -22.3637  -14.6018 O   0  0  0  0  0  0  0  0  0  0  0  0
   23.5659  -19.8258  -17.4243 O   0  0  0  0  0  0  0  0  0  0  0  0
   23.9494  -19.4073  -16.1522 C   0  0  0  0  0  0  0  0  0  0  0  0
   24.5805  -20.5847  -15.3963 C   0  0  2  0  0  0  0  0  0  0  0  0
   25.5900  -21.1379  -16.2616 N   0  0  0  0  0  0  0  0  0  0  0  0
   23.4867  -21.5303  -15.1088 C   0  0  0  0  0  0  0  0  0  0  0  0
   23.4073  -22.6915  -15.5737 O   0  0  0  0  0  0  0  0  0  0  0  0
   22.4486  -21.0949  -14.2433 N   0  0  0  0  0  0  0  0  0  0  0  0
   21.3389  -21.9696  -13.8920 C   0  0  0  0  0  0  0  0  0  0  0  0
   20.4015  -21.2874  -12.9615 C   0  0  0  0  0  0  0  0  0  0  0  0
   20.7443  -20.1521  -12.5417 O   0  0  0  0  0  0  0  0  0  0  0  0
   19.2059  -21.8172  -12.5431 O   0  0  0  0  0  0  0  0  0  0  0  0
  2  1  1  0
  3  2  2  0
  4  2  1  0
  5  4  1  0
  6  7  1  1
  6  5  1  0
  8  9  2  0
  8  6  1  0
 10 11  1  0
 12 11  1  6
 12 13  1  0
 12 14  1  0
 13  8  1  0
 14 15  2  0
 14 16  1  0
 16 17  1  0
 18 17  1  0
 18 20  1  0
 19 18  2  0
M  END
$$$$
