QSG.pdb
     RDKit          3D

 20 19  0  0  1  0  0  0  0  0999 V2000
   15.3407  -11.1911  -18.4581 N   0  0  0  0  0  0  0  0  0  0  0  0
   16.4446  -11.6589  -19.2542 C   0  0  0  0  0  0  0  0  0  0  0  0
   16.3727  -12.7635  -19.8109 O   0  0  0  0  0  0  0  0  0  0  0  0
   17.6486  -10.7501  -19.3618 C   0  0  0  0  0  0  0  0  0  0  0  0
   18.0213  -10.3876  -17.9741 C   0  0  0  0  0  0  0  0  0  0  0  0
   19.4428  -10.5077  -17.5828 C   0  0  2  0  0  0  0  0  0  0  0  0
   19.6343  -11.9124  -17.1560 N   0  0  0  0  0  0  0  0  0  0  0  0
   19.9117   -9.6473  -16.4954 C   0  0  0  0  0  0  0  0  0  0  0  0
   19.2829   -9.6323  -15.3807 O   0  0  0  0  0  0  0  0  0  0  0  0
   22.8877   -9.4109  -14.2988 O   0  0  0  0  0  0  0  0  0  0  0  0
   22.8770   -8.2688  -15.0962 C   0  0  0  0  0  0  0  0  0  0  0  0
   21.4282   -7.9099  -15.4542 C   0  0  2  0  0  0  0  0  0  0  0  0
   21.0398   -8.7841  -16.5307 N   0  0  0  0  0  0  0  0  0  0  0  0
   21.4340   -6.4874  -15.8407 C   0  0  0  0  0  0  0  0  0  0  0  0
   21.6334   -6.0652  -17.0037 O   0  0  0  0  0  0  0  0  0  0  0  0
   21.1967   -5.5261  -14.8226 N   0  0  0  0  0  0  0  0  0  0  0  0
   21.2155   -4.0989  -15.1097 C   0  0  0  0  0  0  0  0  0  0  0  0
   21.1573   -3.3058  -13.8537 C   0  0  0  0  0  0  0  0  0  0  0  0
   20.0270   -2.8779  -13.5045 O   0  0  0  0  0  0  0  0  0  0  0  0
   22.2472   -3.0200  -13.0692 O   0  0  0  0  0  0  0  0  0  0  0  0
  2  1  1  0
  3  2  2  0
  4  2  1  0
  5  4  1  0
  6  7  1  1
  6  5  1  0
  8  9  2  0
  8  6  1  0
 10 11  1  0
 12 11  1  6
 12 13  1  0
 12 14  1  0
 13  8  1  0
 14 15  2  0
 14 16  1  0
 16 17  1  0
 18 17  1  0
 18 20  1  0
 19 18  2  0
M  END
$$$$
