QSG.pdb
     RDKit          3D

 20 19  0  0  1  0  0  0  0  0999 V2000
   24.9052  -19.6354   -9.7778 N   0  0  0  0  0  0  0  0  0  0  0  0
   24.5381  -21.0269   -9.7889 C   0  0  0  0  0  0  0  0  0  0  0  0
   25.2518  -21.8527   -9.2024 O   0  0  0  0  0  0  0  0  0  0  0  0
   23.2754  -21.3990  -10.5332 C   0  0  0  0  0  0  0  0  0  0  0  0
   23.6262  -21.3994  -11.9729 C   0  0  0  0  0  0  0  0  0  0  0  0
   23.7603  -20.0940  -12.6556 C   0  0  2  0  0  0  0  0  0  0  0  0
   22.4057  -19.7411  -13.1377 N   0  0  0  0  0  0  0  0  0  0  0  0
   24.6684  -20.0293  -13.8018 C   0  0  0  0  0  0  0  0  0  0  0  0
   24.2180  -20.2364  -14.9819 O   0  0  0  0  0  0  0  0  0  0  0  0
   28.8417  -19.7282  -13.4371 O   0  0  0  0  0  0  0  0  0  0  0  0
   28.2286  -19.0978  -14.5174 C   0  0  0  0  0  0  0  0  0  0  0  0
   26.9463  -19.8549  -14.8895 C   0  0  2  0  0  0  0  0  0  0  0  0
   26.0606  -19.7481  -13.7591 N   0  0  0  0  0  0  0  0  0  0  0  0
   27.3500  -21.2435  -15.1761 C   0  0  0  0  0  0  0  0  0  0  0  0
   27.1476  -22.2168  -14.4130 O   0  0  0  0  0  0  0  0  0  0  0  0
   28.0157  -21.4968  -16.4046 N   0  0  0  0  0  0  0  0  0  0  0  0
   28.3049  -22.8547  -16.8431 C   0  0  0  0  0  0  0  0  0  0  0  0
   28.9549  -22.8518  -18.1800 C   0  0  0  0  0  0  0  0  0  0  0  0
   28.9859  -21.7541  -18.7937 O   0  0  0  0  0  0  0  0  0  0  0  0
   29.5123  -23.9590  -18.7705 O   0  0  0  0  0  0  0  0  0  0  0  0
  2  1  1  0
  3  2  2  0
  4  2  1  0
  5  4  1  0
  6  7  1  6
  6  5  1  0
  8  9  2  0
  8  6  1  0
 10 11  1  0
 12 11  1  1
 12 13  1  0
 12 14  1  0
 13  8  1  0
 14 15  2  0
 14 16  1  0
 16 17  1  0
 18 17  1  0
 18 20  1  0
 19 18  2  0
M  END
$$$$
