QSG.pdb
     RDKit          3D

 20 19  0  0  1  0  0  0  0  0999 V2000
   17.7975  -14.2007  -17.5113 N   0  0  0  0  0  0  0  0  0  0  0  0
   17.9733  -12.9239  -18.1518 C   0  0  0  0  0  0  0  0  0  0  0  0
   17.0411  -12.4330  -18.8038 O   0  0  0  0  0  0  0  0  0  0  0  0
   19.3161  -12.2491  -17.9831 C   0  0  0  0  0  0  0  0  0  0  0  0
   19.1000  -11.1211  -17.0468 C   0  0  0  0  0  0  0  0  0  0  0  0
   20.2322  -10.2042  -16.7908 C   0  0  2  0  0  0  0  0  0  0  0  0
   21.2450  -10.9965  -16.0569 N   0  0  0  0  0  0  0  0  0  0  0  0
   19.9542   -9.0028  -16.0022 C   0  0  0  0  0  0  0  0  0  0  0  0
   19.1957   -8.0897  -16.4810 O   0  0  0  0  0  0  0  0  0  0  0  0
   18.9232   -8.8009  -12.2819 O   0  0  0  0  0  0  0  0  0  0  0  0
   20.0318   -7.9788  -12.4698 C   0  0  0  0  0  0  0  0  0  0  0  0
   20.1011   -7.5437  -13.9402 C   0  0  2  0  0  0  0  0  0  0  0  0
   20.4495   -8.7151  -14.7018 N   0  0  0  0  0  0  0  0  0  0  0  0
   21.1227   -6.4835  -14.0139 C   0  0  0  0  0  0  0  0  0  0  0  0
   22.3540   -6.6686  -13.8716 O   0  0  0  0  0  0  0  0  0  0  0  0
   20.6805   -5.1574  -14.2640 N   0  0  0  0  0  0  0  0  0  0  0  0
   21.6259   -4.0773  -14.5076 C   0  0  0  0  0  0  0  0  0  0  0  0
   21.0922   -2.7837  -14.0058 C   0  0  0  0  0  0  0  0  0  0  0  0
   19.9289   -2.7972  -13.5271 O   0  0  0  0  0  0  0  0  0  0  0  0
   21.7847   -1.5986  -14.0353 O   0  0  0  0  0  0  0  0  0  0  0  0
  2  1  1  0
  3  2  2  0
  4  2  1  0
  5  4  1  0
  6  7  1  1
  6  5  1  0
  8  9  2  0
  8  6  1  0
 10 11  1  0
 12 11  1  1
 12 13  1  0
 12 14  1  0
 13  8  1  0
 14 15  2  0
 14 16  1  0
 16 17  1  0
 18 17  1  0
 18 20  1  0
 19 18  2  0
M  END
$$$$
