QSG.pdb
     RDKit          3D

 20 19  0  0  1  0  0  0  0  0999 V2000
   20.5061  -21.7424  -11.1230 N   0  0  0  0  0  0  0  0  0  0  0  0
   19.3646  -22.0087  -11.9581 C   0  0  0  0  0  0  0  0  0  0  0  0
   18.5304  -22.8532  -11.6029 O   0  0  0  0  0  0  0  0  0  0  0  0
   19.2554  -21.2218  -13.2448 C   0  0  0  0  0  0  0  0  0  0  0  0
   20.4179  -20.3032  -13.2705 C   0  0  0  0  0  0  0  0  0  0  0  0
   21.6793  -20.7956  -13.8661 C   0  0  2  0  0  0  0  0  0  0  0  0
   21.7179  -22.2518  -13.6015 N   0  0  0  0  0  0  0  0  0  0  0  0
   22.9266  -20.2210  -13.3596 C   0  0  0  0  0  0  0  0  0  0  0  0
   23.1548  -18.9698  -13.5044 O   0  0  0  0  0  0  0  0  0  0  0  0
   25.5698  -22.3941  -11.1719 O   0  0  0  0  0  0  0  0  0  0  0  0
   25.7432  -21.0139  -11.0992 C   0  0  0  0  0  0  0  0  0  0  0  0
   25.2666  -20.3700  -12.4086 C   0  0  2  0  0  0  0  0  0  0  0  0
   23.9665  -20.9212  -12.6909 N   0  0  0  0  0  0  0  0  0  0  0  0
   26.2718  -20.7115  -13.4314 C   0  0  0  0  0  0  0  0  0  0  0  0
   26.3128  -21.7970  -14.0564 O   0  0  0  0  0  0  0  0  0  0  0  0
   27.2648  -19.7413  -13.7302 N   0  0  0  0  0  0  0  0  0  0  0  0
   28.2671  -19.9762  -14.7598 C   0  0  0  0  0  0  0  0  0  0  0  0
   27.8382  -19.3934  -16.0584 C   0  0  0  0  0  0  0  0  0  0  0  0
   26.7490  -19.8061  -16.5337 O   0  0  0  0  0  0  0  0  0  0  0  0
   28.5510  -18.4484  -16.7542 O   0  0  0  0  0  0  0  0  0  0  0  0
  2  1  1  0
  3  2  2  0
  4  2  1  0
  5  4  1  0
  6  7  1  1
  6  5  1  0
  8  9  2  0
  8  6  1  0
 10 11  1  0
 12 11  1  1
 12 13  1  0
 12 14  1  0
 13  8  1  0
 14 15  2  0
 14 16  1  0
 16 17  1  0
 18 17  1  0
 18 20  1  0
 19 18  2  0
M  END
$$$$
