QSG.pdb
     RDKit          3D

 20 19  0  0  1  0  0  0  0  0999 V2000
   14.6393  -11.4360  -13.4319 N   0  0  0  0  0  0  0  0  0  0  0  0
   14.0961  -11.5986  -14.7547 C   0  0  0  0  0  0  0  0  0  0  0  0
   12.8723  -11.7246  -14.9024 O   0  0  0  0  0  0  0  0  0  0  0  0
   15.0776  -11.6052  -15.9051 C   0  0  0  0  0  0  0  0  0  0  0  0
   16.4170  -11.3859  -15.3102 C   0  0  0  0  0  0  0  0  0  0  0  0
   17.5894  -11.4058  -16.2120 C   0  0  2  0  0  0  0  0  0  0  0  0
   17.9409  -12.8320  -16.3978 N   0  0  0  0  0  0  0  0  0  0  0  0
   18.7939  -10.7090  -15.7580 C   0  0  0  0  0  0  0  0  0  0  0  0
   19.5677  -11.2675  -14.9049 O   0  0  0  0  0  0  0  0  0  0  0  0
   20.9664   -8.5319  -17.9769 O   0  0  0  0  0  0  0  0  0  0  0  0
   21.4891   -8.8972  -16.7384 C   0  0  0  0  0  0  0  0  0  0  0  0
   20.4016   -8.7574  -15.6642 C   0  0  2  0  0  0  0  0  0  0  0  0
   19.2300   -9.4221  -16.1734 N   0  0  0  0  0  0  0  0  0  0  0  0
   20.2008   -7.3115  -15.4595 C   0  0  0  0  0  0  0  0  0  0  0  0
   19.3683   -6.6120  -16.0828 O   0  0  0  0  0  0  0  0  0  0  0  0
   21.0079   -6.6644  -14.4867 N   0  0  0  0  0  0  0  0  0  0  0  0
   20.8316   -5.2535  -14.1737 C   0  0  0  0  0  0  0  0  0  0  0  0
   21.8803   -4.7860  -13.2294 C   0  0  0  0  0  0  0  0  0  0  0  0
   22.6460   -5.6626  -12.7522 O   0  0  0  0  0  0  0  0  0  0  0  0
   22.0560   -3.4762  -12.8566 O   0  0  0  0  0  0  0  0  0  0  0  0
  2  1  1  0
  3  2  2  0
  4  2  1  0
  5  4  1  0
  6  7  1  1
  6  5  1  0
  8  9  2  0
  8  6  1  0
 10 11  1  0
 12 11  1  6
 12 13  1  0
 12 14  1  0
 13  8  1  0
 14 15  2  0
 14 16  1  0
 16 17  1  0
 18 17  1  0
 18 20  1  0
 19 18  2  0
M  END
$$$$
