LNL.pdb
     RDKit          3D

 25 24  0  0  1  0  0  0  0  0999 V2000
    9.0920  -12.5272   18.1697 C   0  0  0  0  0  0  0  0  0  0  0  0
    7.9506  -13.4968   17.9577 C   0  0  2  0  0  0  0  0  0  0  0  0
    6.8098  -12.7813   17.2708 C   0  0  0  0  0  0  0  0  0  0  0  0
    7.5341  -14.1439   19.2501 C   0  0  0  0  0  0  0  0  0  0  0  0
    8.7628  -14.6787   19.9376 C   0  0  2  0  0  0  0  0  0  0  0  0
    9.4946  -15.6484   19.1544 N   0  0  0  0  0  0  0  0  0  0  0  0
    8.4014  -15.2428   21.2868 C   0  0  0  0  0  0  0  0  0  0  0  0
    7.6039  -14.6291   22.0340 O   0  0  0  0  0  0  0  0  0  0  0  0
    8.1932  -20.0539   21.1485 N   0  0  0  0  0  0  0  0  0  0  0  0
    9.2797  -19.2394   21.5608 C   0  0  0  0  0  0  0  0  0  0  0  0
   10.2064  -19.0887   20.6980 O   0  0  0  0  0  0  0  0  0  0  0  0
    9.3215  -18.6102   22.9114 C   0  0  0  0  0  0  0  0  0  0  0  0
    8.7970  -17.1883   22.9144 C   0  0  2  0  0  0  0  0  0  0  0  0
    8.9600  -16.4546   21.7012 N   0  0  0  0  0  0  0  0  0  0  0  0
    9.0191  -16.4512   24.1519 C   0  0  0  0  0  0  0  0  0  0  0  0
   10.1965  -16.2003   24.6003 O   0  0  0  0  0  0  0  0  0  0  0  0
    5.8123  -12.2386   26.9144 C   0  0  0  0  0  0  0  0  0  0  0  0
    7.0230  -13.0882   26.9658 C   0  0  2  0  0  0  0  0  0  0  0  0
    8.1828  -12.3073   26.3079 C   0  0  0  0  0  0  0  0  0  0  0  0
    6.8924  -14.4311   26.3905 C   0  0  0  0  0  0  0  0  0  0  0  0
    8.1162  -15.2442   26.1980 C   0  0  2  0  0  0  0  0  0  0  0  0
    7.9194  -15.9922   24.8911 N   0  0  0  0  0  0  0  0  0  0  0  0
    8.3392  -16.2930   27.1750 C   0  0  0  0  0  0  0  0  0  0  0  0
    7.7954  -17.4223   27.2532 O   0  0  0  0  0  0  0  0  0  0  0  0
    9.2908  -16.0764   28.2096 O   0  0  0  0  0  0  0  0  0  0  0  0
  2  1  1  1
  2  3  1  0
  4  5  1  0
  4  2  1  0
  5  6  1  6
  7  5  1  0
  7  8  2  0
 10 12  1  0
 10  9  1  0
 11 10  2  0
 13 12  1  6
 14 13  1  0
 14  7  1  0
 15 13  1  0
 16 15  2  0
 18 17  1  6
 18 19  1  0
 18 20  1  0
 21 20  1  1
 21 22  1  0
 21 23  1  0
 22 15  1  0
 23 25  1  0
 24 23  2  0
M  END
$$$$
