LNL.pdb
     RDKit          3D

 25 24  0  0  1  0  0  0  0  0999 V2000
    9.4764  -13.5842   18.4535 C   0  0  0  0  0  0  0  0  0  0  0  0
    8.0050  -13.5216   18.7988 C   0  0  2  0  0  0  0  0  0  0  0  0
    7.5667  -12.0759   18.8526 C   0  0  0  0  0  0  0  0  0  0  0  0
    7.7092  -14.2645   20.0728 C   0  0  0  0  0  0  0  0  0  0  0  0
    8.2177  -15.6755   19.9355 C   0  0  2  0  0  0  0  0  0  0  0  0
    7.4205  -16.5004   19.0562 N   0  0  0  0  0  0  0  0  0  0  0  0
    8.3537  -16.3150   21.2926 C   0  0  0  0  0  0  0  0  0  0  0  0
    7.3332  -16.6725   21.9266 O   0  0  0  0  0  0  0  0  0  0  0  0
   11.3551  -19.4350   25.2415 N   0  0  0  0  0  0  0  0  0  0  0  0
   11.5605  -18.1516   24.6717 C   0  0  0  0  0  0  0  0  0  0  0  0
   12.0875  -17.2883   25.4481 O   0  0  0  0  0  0  0  0  0  0  0  0
   11.1817  -17.8481   23.2624 C   0  0  0  0  0  0  0  0  0  0  0  0
   10.0219  -16.8779   23.1610 C   0  0  2  0  0  0  0  0  0  0  0  0
    9.6241  -16.5079   21.8413 N   0  0  0  0  0  0  0  0  0  0  0  0
   10.0152  -15.8174   24.1607 C   0  0  0  0  0  0  0  0  0  0  0  0
   10.8202  -14.8178   24.1073 O   0  0  0  0  0  0  0  0  0  0  0  0
    5.8328  -12.5889   26.7319 C   0  0  0  0  0  0  0  0  0  0  0  0
    7.2466  -13.0089   26.8546 C   0  0  2  0  0  0  0  0  0  0  0  0
    8.1353  -11.7637   26.6370 C   0  0  0  0  0  0  0  0  0  0  0  0
    7.6659  -14.1189   25.9924 C   0  0  0  0  0  0  0  0  0  0  0  0
    8.9950  -14.7334   26.2205 C   0  0  2  0  0  0  0  0  0  0  0  0
    9.1036  -15.8749   25.2248 N   0  0  0  0  0  0  0  0  0  0  0  0
    9.1847  -15.3703   27.5099 C   0  0  0  0  0  0  0  0  0  0  0  0
    9.6820  -14.8893   28.5581 O   0  0  0  0  0  0  0  0  0  0  0  0
    8.7713  -16.7210   27.6759 O   0  0  0  0  0  0  0  0  0  0  0  0
  2  1  1  1
  2  3  1  0
  4  5  1  0
  4  2  1  0
  5  6  1  6
  7  5  1  0
  7  8  2  0
 10 12  1  0
 10  9  1  0
 11 10  2  0
 13 12  1  6
 14 13  1  0
 14  7  1  0
 15 13  1  0
 16 15  2  0
 18 17  1  6
 18 19  1  0
 18 20  1  0
 21 20  1  1
 21 22  1  0
 21 23  1  0
 22 15  1  0
 23 25  1  0
 24 23  2  0
M  END
$$$$
