LNL.pdb
     RDKit          3D

 25 24  0  0  1  0  0  0  0  0999 V2000
    7.1313  -13.1280   20.6923 C   0  0  0  0  0  0  0  0  0  0  0  0
    7.9943  -14.1317   19.9604 C   0  0  2  0  0  0  0  0  0  0  0  0
    7.5689  -14.1919   18.5111 C   0  0  0  0  0  0  0  0  0  0  0  0
    7.9581  -15.4776   20.6311 C   0  0  0  0  0  0  0  0  0  0  0  0
    8.2804  -15.2957   22.0911 C   0  0  2  0  0  0  0  0  0  0  0  0
    8.7825  -13.9806   22.4188 N   0  0  0  0  0  0  0  0  0  0  0  0
    9.2375  -16.3643   22.5507 C   0  0  0  0  0  0  0  0  0  0  0  0
    8.9193  -17.5739   22.4687 O   0  0  0  0  0  0  0  0  0  0  0  0
   12.6750  -18.1969   21.0519 N   0  0  0  0  0  0  0  0  0  0  0  0
   12.9007  -16.9088   21.6032 C   0  0  0  0  0  0  0  0  0  0  0  0
   13.1115  -15.9814   20.7539 O   0  0  0  0  0  0  0  0  0  0  0  0
   12.8893  -16.6712   23.0747 C   0  0  0  0  0  0  0  0  0  0  0  0
   11.5043  -16.7883   23.6788 C   0  0  2  0  0  0  0  0  0  0  0  0
   10.4828  -15.9999   23.0690 N   0  0  0  0  0  0  0  0  0  0  0  0
   11.4710  -16.8792   25.1330 C   0  0  0  0  0  0  0  0  0  0  0  0
   12.4209  -17.4176   25.8096 O   0  0  0  0  0  0  0  0  0  0  0  0
   11.0450  -13.5373   28.5608 C   0  0  0  0  0  0  0  0  0  0  0  0
    9.9769  -13.9411   27.6195 C   0  0  2  0  0  0  0  0  0  0  0  0
    8.8417  -12.8966   27.7087 C   0  0  0  0  0  0  0  0  0  0  0  0
    9.4591  -15.3042   27.7789 C   0  0  0  0  0  0  0  0  0  0  0  0
   10.3065  -16.4414   27.3490 C   0  0  2  0  0  0  0  0  0  0  0  0
   10.3703  -16.3652   25.8337 N   0  0  0  0  0  0  0  0  0  0  0  0
    9.7726  -17.7638   27.6139 C   0  0  0  0  0  0  0  0  0  0  0  0
    9.8431  -18.4428   28.6681 O   0  0  0  0  0  0  0  0  0  0  0  0
    9.0614  -18.4364   26.5820 O   0  0  0  0  0  0  0  0  0  0  0  0
  2  1  1  1
  2  3  1  0
  4  5  1  0
  4  2  1  0
  5  6  1  6
  7  5  1  0
  7  8  2  0
 10 12  1  0
 10  9  1  0
 11 10  2  0
 13 12  1  1
 14 13  1  0
 14  7  1  0
 15 13  1  0
 16 15  2  0
 18 17  1  1
 18 19  1  0
 18 20  1  0
 21 20  1  6
 21 22  1  0
 21 23  1  0
 22 15  1  0
 23 25  1  0
 24 23  2  0
M  END
$$$$
