LNL.pdb
     RDKit          3D

 25 24  0  0  1  0  0  0  0  0999 V2000
    9.1994  -12.5221   18.8982 C   0  0  0  0  0  0  0  0  0  0  0  0
    7.8252  -13.1538   18.8721 C   0  0  2  0  0  0  0  0  0  0  0  0
    6.7987  -12.0998   18.5250 C   0  0  0  0  0  0  0  0  0  0  0  0
    7.5200  -13.8555   20.1671 C   0  0  0  0  0  0  0  0  0  0  0  0
    8.7345  -14.6421   20.5852 C   0  0  2  0  0  0  0  0  0  0  0  0
    9.1071  -15.6809   19.6519 N   0  0  0  0  0  0  0  0  0  0  0  0
    8.5381  -15.2089   21.9670 C   0  0  0  0  0  0  0  0  0  0  0  0
    7.8230  -14.6050   22.8008 O   0  0  0  0  0  0  0  0  0  0  0  0
    8.6810  -18.7550   25.8159 N   0  0  0  0  0  0  0  0  0  0  0  0
    9.4195  -19.3156   24.7414 C   0  0  0  0  0  0  0  0  0  0  0  0
    9.8281  -20.5094   24.9249 O   0  0  0  0  0  0  0  0  0  0  0  0
    9.6912  -18.5504   23.4915 C   0  0  0  0  0  0  0  0  0  0  0  0
    9.1775  -17.1258   23.5505 C   0  0  2  0  0  0  0  0  0  0  0  0
    9.1574  -16.4121   22.3147 N   0  0  0  0  0  0  0  0  0  0  0  0
    9.5863  -16.3706   24.7280 C   0  0  0  0  0  0  0  0  0  0  0  0
   10.8144  -16.0771   24.9637 O   0  0  0  0  0  0  0  0  0  0  0  0
    8.6206  -12.1035   26.3171 C   0  0  0  0  0  0  0  0  0  0  0  0
    7.5516  -13.1250   26.3790 C   0  0  2  0  0  0  0  0  0  0  0  0
    6.2476  -12.4254   26.8235 C   0  0  0  0  0  0  0  0  0  0  0  0
    7.8327  -14.3022   27.2076 C   0  0  0  0  0  0  0  0  0  0  0  0
    9.0085  -15.1409   26.8758 C   0  0  2  0  0  0  0  0  0  0  0  0
    8.6169  -15.9411   25.6459 N   0  0  0  0  0  0  0  0  0  0  0  0
    9.3626  -16.1502   27.8556 C   0  0  0  0  0  0  0  0  0  0  0  0
    9.1416  -17.3861   27.8255 O   0  0  0  0  0  0  0  0  0  0  0  0
   10.0563  -15.7518   29.0316 O   0  0  0  0  0  0  0  0  0  0  0  0
  2  1  1  1
  2  3  1  0
  4  5  1  0
  4  2  1  0
  5  6  1  6
  7  5  1  0
  7  8  2  0
 10 12  1  0
 10  9  1  0
 11 10  2  0
 13 12  1  6
 14 13  1  0
 14  7  1  0
 15 13  1  0
 16 15  2  0
 18 17  1  1
 18 19  1  0
 18 20  1  0
 21 20  1  1
 21 22  1  0
 21 23  1  0
 22 15  1  0
 23 25  1  0
 24 23  2  0
M  END
$$$$
