LNL.pdb
     RDKit          3D

 25 24  0  0  1  0  0  0  0  0999 V2000
    7.4180  -13.6969   20.9486 C   0  0  0  0  0  0  0  0  0  0  0  0
    8.2826  -13.5452   19.7167 C   0  0  2  0  0  0  0  0  0  0  0  0
    8.0000  -12.2078   19.0711 C   0  0  0  0  0  0  0  0  0  0  0  0
    8.0928  -14.6976   18.7688 C   0  0  0  0  0  0  0  0  0  0  0  0
    8.6014  -15.9520   19.4295 C   0  0  2  0  0  0  0  0  0  0  0  0
    8.6932  -17.0856   18.5377 N   0  0  0  0  0  0  0  0  0  0  0  0
    7.7599  -16.2847   20.6339 C   0  0  0  0  0  0  0  0  0  0  0  0
    6.6473  -16.8441   20.4910 O   0  0  0  0  0  0  0  0  0  0  0  0
    5.9248  -18.4804   25.0282 N   0  0  0  0  0  0  0  0  0  0  0  0
    7.2737  -18.4955   24.5874 C   0  0  0  0  0  0  0  0  0  0  0  0
    8.1173  -18.9498   25.4289 O   0  0  0  0  0  0  0  0  0  0  0  0
    7.6629  -18.0110   23.2326 C   0  0  0  0  0  0  0  0  0  0  0  0
    7.8941  -16.5139   23.1873 C   0  0  2  0  0  0  0  0  0  0  0  0
    8.2263  -15.9664   21.9119 N   0  0  0  0  0  0  0  0  0  0  0  0
    8.6071  -15.9646   24.3336 C   0  0  0  0  0  0  0  0  0  0  0  0
    9.8803  -16.0712   24.4662 O   0  0  0  0  0  0  0  0  0  0  0  0
    8.0829  -11.5476   25.4534 C   0  0  0  0  0  0  0  0  0  0  0  0
    7.0967  -12.5010   26.0088 C   0  0  2  0  0  0  0  0  0  0  0  0
    5.9657  -11.6850   26.6741 C   0  0  0  0  0  0  0  0  0  0  0  0
    7.6277  -13.5175   26.9232 C   0  0  0  0  0  0  0  0  0  0  0  0
    8.6160  -14.4928   26.4055 C   0  0  2  0  0  0  0  0  0  0  0  0
    7.8928  -15.2924   25.3360 N   0  0  0  0  0  0  0  0  0  0  0  0
    9.0697  -15.4959   27.3500 C   0  0  0  0  0  0  0  0  0  0  0  0
    9.9800  -15.4096   28.2109 O   0  0  0  0  0  0  0  0  0  0  0  0
    8.4385  -16.7705   27.3540 O   0  0  0  0  0  0  0  0  0  0  0  0
  2  1  1  1
  2  3  1  0
  4  5  1  0
  4  2  1  0
  5  6  1  6
  7  5  1  0
  7  8  2  0
 10 12  1  0
 10  9  1  0
 11 10  2  0
 13 12  1  6
 14 13  1  0
 14  7  1  0
 15 13  1  0
 16 15  2  0
 18 17  1  1
 18 19  1  0
 18 20  1  0
 21 20  1  1
 21 22  1  0
 21 23  1  0
 22 15  1  0
 23 25  1  0
 24 23  2  0
M  END
$$$$
