LNL.pdb
     RDKit          3D

 25 24  0  0  1  0  0  0  0  0999 V2000
    9.3600  -12.6452   18.4743 C   0  0  0  0  0  0  0  0  0  0  0  0
    8.0370  -13.3631   18.3254 C   0  0  2  0  0  0  0  0  0  0  0  0
    7.0192  -12.4148   17.7338 C   0  0  0  0  0  0  0  0  0  0  0  0
    7.5853  -13.9562   19.6318 C   0  0  0  0  0  0  0  0  0  0  0  0
    8.7203  -14.7572   20.2139 C   0  0  2  0  0  0  0  0  0  0  0  0
    9.1548  -15.8500   19.3736 N   0  0  0  0  0  0  0  0  0  0  0  0
    8.3579  -15.2509   21.5901 C   0  0  0  0  0  0  0  0  0  0  0  0
    7.6903  -14.5262   22.3648 O   0  0  0  0  0  0  0  0  0  0  0  0
    7.3692  -19.9364   24.8802 N   0  0  0  0  0  0  0  0  0  0  0  0
    8.6122  -19.3340   24.5542 C   0  0  0  0  0  0  0  0  0  0  0  0
    9.4977  -19.3807   25.4704 O   0  0  0  0  0  0  0  0  0  0  0  0
    8.8517  -18.6949   23.2291 C   0  0  0  0  0  0  0  0  0  0  0  0
    8.6000  -17.2005   23.2428 C   0  0  2  0  0  0  0  0  0  0  0  0
    8.7698  -16.5220   21.9988 N   0  0  0  0  0  0  0  0  0  0  0  0
    9.0789  -16.5048   24.4306 C   0  0  0  0  0  0  0  0  0  0  0  0
   10.3130  -16.1858   24.5892 O   0  0  0  0  0  0  0  0  0  0  0  0
    8.2263  -12.1709   26.4802 C   0  0  0  0  0  0  0  0  0  0  0  0
    7.1660  -13.1867   26.2956 C   0  0  2  0  0  0  0  0  0  0  0  0
    5.8226  -12.5593   26.7308 C   0  0  0  0  0  0  0  0  0  0  0  0
    7.3886  -14.4775   26.9556 C   0  0  0  0  0  0  0  0  0  0  0  0
    8.5921  -15.2628   26.5938 C   0  0  2  0  0  0  0  0  0  0  0  0
    8.1731  -16.1640   25.4456 N   0  0  0  0  0  0  0  0  0  0  0  0
    9.0755  -16.1824   27.6061 C   0  0  0  0  0  0  0  0  0  0  0  0
   10.0191  -16.0290   28.4206 O   0  0  0  0  0  0  0  0  0  0  0  0
    8.4366  -17.4452   27.7479 O   0  0  0  0  0  0  0  0  0  0  0  0
  2  1  1  1
  2  3  1  0
  4  5  1  0
  4  2  1  0
  5  6  1  6
  7  5  1  0
  7  8  2  0
 10 12  1  0
 10  9  1  0
 11 10  2  0
 13 12  1  6
 14 13  1  0
 14  7  1  0
 15 13  1  0
 16 15  2  0
 18 17  1  1
 18 19  1  0
 18 20  1  0
 21 20  1  1
 21 22  1  0
 21 23  1  0
 22 15  1  0
 23 25  1  0
 24 23  2  0
M  END
$$$$
