LNL.pdb
     RDKit          3D

 25 24  0  0  1  0  0  0  0  0999 V2000
    9.3636  -13.7303   20.2126 C   0  0  0  0  0  0  0  0  0  0  0  0
    8.3177  -13.6440   19.1233 C   0  0  2  0  0  0  0  0  0  0  0  0
    7.6551  -12.2863   19.1748 C   0  0  0  0  0  0  0  0  0  0  0  0
    7.3302  -14.7745   19.2212 C   0  0  0  0  0  0  0  0  0  0  0  0
    8.0262  -15.9703   19.8162 C   0  0  2  0  0  0  0  0  0  0  0  0
    7.9255  -17.1656   19.0099 N   0  0  0  0  0  0  0  0  0  0  0  0
    7.5247  -16.2233   21.2140 C   0  0  0  0  0  0  0  0  0  0  0  0
    6.3025  -16.4079   21.4219 O   0  0  0  0  0  0  0  0  0  0  0  0
    6.0249  -18.9649   24.1041 N   0  0  0  0  0  0  0  0  0  0  0  0
    7.2918  -18.9045   23.4675 C   0  0  0  0  0  0  0  0  0  0  0  0
    7.4090  -19.6183   22.4174 O   0  0  0  0  0  0  0  0  0  0  0  0
    8.3992  -18.0610   24.0004 C   0  0  0  0  0  0  0  0  0  0  0  0
    8.2424  -16.5947   23.6507 C   0  0  2  0  0  0  0  0  0  0  0  0
    8.4296  -16.2513   22.2782 N   0  0  0  0  0  0  0  0  0  0  0  0
    8.7879  -15.6647   24.6313 C   0  0  0  0  0  0  0  0  0  0  0  0
   10.0166  -15.2905   24.6140 O   0  0  0  0  0  0  0  0  0  0  0  0
    6.0295  -11.3753   27.4288 C   0  0  0  0  0  0  0  0  0  0  0  0
    7.3058  -12.0361   27.0760 C   0  0  2  0  0  0  0  0  0  0  0  0
    7.6649  -11.6384   25.6267 C   0  0  0  0  0  0  0  0  0  0  0  0
    7.3484  -13.4914   27.2542 C   0  0  0  0  0  0  0  0  0  0  0  0
    8.5093  -14.2397   26.7171 C   0  0  2  0  0  0  0  0  0  0  0  0
    7.9551  -15.1504   25.6355 N   0  0  0  0  0  0  0  0  0  0  0  0
    9.1606  -15.1469   27.6429 C   0  0  0  0  0  0  0  0  0  0  0  0
    9.9967  -14.8846   28.5426 O   0  0  0  0  0  0  0  0  0  0  0  0
    8.8532  -16.5339   27.5757 O   0  0  0  0  0  0  0  0  0  0  0  0
  2  1  1  1
  2  3  1  0
  4  5  1  0
  4  2  1  0
  5  6  1  6
  7  5  1  0
  7  8  2  0
 10 12  1  0
 10  9  1  0
 11 10  2  0
 13 12  1  6
 14 13  1  0
 14  7  1  0
 15 13  1  0
 16 15  2  0
 18 17  1  6
 18 19  1  0
 18 20  1  0
 21 20  1  1
 21 22  1  0
 21 23  1  0
 22 15  1  0
 23 25  1  0
 24 23  2  0
M  END
$$$$
