LNL.pdb
     RDKit          3D

 25 24  0  0  1  0  0  0  0  0999 V2000
    9.4325  -12.9620   18.5859 C   0  0  0  0  0  0  0  0  0  0  0  0
    8.0899  -13.5402   18.9748 C   0  0  2  0  0  0  0  0  0  0  0  0
    7.1750  -12.4215   19.4183 C   0  0  0  0  0  0  0  0  0  0  0  0
    8.2373  -14.6153   20.0163 C   0  0  0  0  0  0  0  0  0  0  0  0
    9.1313  -15.6963   19.4679 C   0  0  2  0  0  0  0  0  0  0  0  0
    8.6723  -16.2544   18.2161 N   0  0  0  0  0  0  0  0  0  0  0  0
    9.3309  -16.7791   20.4959 C   0  0  0  0  0  0  0  0  0  0  0  0
    9.4704  -17.9719   20.1368 O   0  0  0  0  0  0  0  0  0  0  0  0
   11.5250  -19.4175   22.0895 N   0  0  0  0  0  0  0  0  0  0  0  0
   11.9780  -18.1560   21.6232 C   0  0  0  0  0  0  0  0  0  0  0  0
   12.5840  -18.1748   20.5015 O   0  0  0  0  0  0  0  0  0  0  0  0
   11.7541  -16.9044   22.4010 C   0  0  0  0  0  0  0  0  0  0  0  0
   10.3198  -16.7487   22.8649 C   0  0  2  0  0  0  0  0  0  0  0  0
    9.3600  -16.4468   21.8527 N   0  0  0  0  0  0  0  0  0  0  0  0
   10.1545  -16.0620   24.1397 C   0  0  0  0  0  0  0  0  0  0  0  0
   11.0169  -16.1552   25.0871 O   0  0  0  0  0  0  0  0  0  0  0  0
    5.7198  -12.4516   26.5014 C   0  0  0  0  0  0  0  0  0  0  0  0
    7.1194  -12.9161   26.6269 C   0  0  2  0  0  0  0  0  0  0  0  0
    7.9959  -11.6976   26.9937 C   0  0  0  0  0  0  0  0  0  0  0  0
    7.6654  -13.6353   25.4711 C   0  0  0  0  0  0  0  0  0  0  0  0
    8.8050  -14.5589   25.6819 C   0  0  2  0  0  0  0  0  0  0  0  0
    9.0196  -15.2670   24.3558 N   0  0  0  0  0  0  0  0  0  0  0  0
    8.5794  -15.6372   26.6255 C   0  0  0  0  0  0  0  0  0  0  0  0
    7.8506  -16.6522   26.4990 O   0  0  0  0  0  0  0  0  0  0  0  0
    9.2447  -15.6004   27.8821 O   0  0  0  0  0  0  0  0  0  0  0  0
  2  1  1  1
  2  3  1  0
  4  5  1  0
  4  2  1  0
  5  6  1  6
  7  5  1  0
  7  8  2  0
 10 12  1  0
 10  9  1  0
 11 10  2  0
 13 12  1  6
 14 13  1  0
 14  7  1  0
 15 13  1  0
 16 15  2  0
 18 17  1  6
 18 19  1  0
 18 20  1  0
 21 20  1  6
 21 22  1  0
 21 23  1  0
 22 15  1  0
 23 25  1  0
 24 23  2  0
M  END
$$$$
