LNL.pdb
     RDKit          3D

 25 24  0  0  1  0  0  0  0  0999 V2000
    9.2766  -12.3557   19.4667 C   0  0  0  0  0  0  0  0  0  0  0  0
    8.2029  -13.4078   19.2992 C   0  0  2  0  0  0  0  0  0  0  0  0
    6.8648  -12.7293   19.1139 C   0  0  0  0  0  0  0  0  0  0  0  0
    8.2052  -14.3806   20.4465 C   0  0  0  0  0  0  0  0  0  0  0  0
    9.6259  -14.8012   20.7169 C   0  0  2  0  0  0  0  0  0  0  0  0
   10.2509  -15.4918   19.6117 N   0  0  0  0  0  0  0  0  0  0  0  0
    9.6942  -15.6293   21.9734 C   0  0  0  0  0  0  0  0  0  0  0  0
    8.9311  -15.3793   22.9359 O   0  0  0  0  0  0  0  0  0  0  0  0
   10.1283  -19.2843   21.1405 N   0  0  0  0  0  0  0  0  0  0  0  0
   11.4016  -19.5035   21.7276 C   0  0  0  0  0  0  0  0  0  0  0  0
   12.0772  -20.4601   21.2234 O   0  0  0  0  0  0  0  0  0  0  0  0
   11.9015  -18.6660   22.8547 C   0  0  0  0  0  0  0  0  0  0  0  0
   10.9902  -17.4961   23.1676 C   0  0  2  0  0  0  0  0  0  0  0  0
   10.6130  -16.6783   22.0605 N   0  0  0  0  0  0  0  0  0  0  0  0
   11.2830  -16.8022   24.4153 C   0  0  0  0  0  0  0  0  0  0  0  0
   12.2457  -15.9586   24.5228 O   0  0  0  0  0  0  0  0  0  0  0  0
    8.2073  -13.6135   28.1473 C   0  0  0  0  0  0  0  0  0  0  0  0
    9.4157  -14.4658   28.0899 C   0  0  2  0  0  0  0  0  0  0  0  0
   10.6521  -13.5530   28.2503 C   0  0  0  0  0  0  0  0  0  0  0  0
    9.5406  -15.3276   26.9095 C   0  0  0  0  0  0  0  0  0  0  0  0
   10.6923  -16.2566   26.8261 C   0  0  2  0  0  0  0  0  0  0  0  0
   10.4949  -17.0526   25.5480 N   0  0  0  0  0  0  0  0  0  0  0  0
   10.7662  -17.2674   27.8638 C   0  0  0  0  0  0  0  0  0  0  0  0
   11.4529  -17.2651   28.9153 O   0  0  0  0  0  0  0  0  0  0  0  0
    9.9780  -18.4441   27.7334 O   0  0  0  0  0  0  0  0  0  0  0  0
  2  1  1  1
  2  3  1  0
  4  5  1  0
  4  2  1  0
  5  6  1  6
  7  5  1  0
  7  8  2  0
 10 12  1  0
 10  9  1  0
 11 10  2  0
 13 12  1  6
 14 13  1  0
 14  7  1  0
 15 13  1  0
 16 15  2  0
 18 17  1  6
 18 19  1  0
 18 20  1  0
 21 20  1  1
 21 22  1  0
 21 23  1  0
 22 15  1  0
 23 25  1  0
 24 23  2  0
M  END
$$$$
