LNL.pdb
     RDKit          3D

 25 24  0  0  1  0  0  0  0  0999 V2000
    9.4226  -12.9419   19.8102 C   0  0  0  0  0  0  0  0  0  0  0  0
    8.1287  -13.3610   19.1484 C   0  0  2  0  0  0  0  0  0  0  0  0
    7.4161  -12.1345   18.6257 C   0  0  0  0  0  0  0  0  0  0  0  0
    7.2740  -14.1737   20.0819 C   0  0  0  0  0  0  0  0  0  0  0  0
    8.1754  -14.9730   20.9857 C   0  0  2  0  0  0  0  0  0  0  0  0
    8.7689  -16.1259   20.3472 N   0  0  0  0  0  0  0  0  0  0  0  0
    7.4372  -15.3740   22.2361 C   0  0  0  0  0  0  0  0  0  0  0  0
    6.4859  -14.6756   22.6584 O   0  0  0  0  0  0  0  0  0  0  0  0
    5.0475  -18.3588   22.8818 N   0  0  0  0  0  0  0  0  0  0  0  0
    6.0424  -19.1989   23.4462 C   0  0  0  0  0  0  0  0  0  0  0  0
    5.8300  -20.4506   23.3284 O   0  0  0  0  0  0  0  0  0  0  0  0
    7.2464  -18.6429   24.1264 C   0  0  0  0  0  0  0  0  0  0  0  0
    7.2874  -17.1280   24.1047 C   0  0  2  0  0  0  0  0  0  0  0  0
    7.8185  -16.5294   22.9230 N   0  0  0  0  0  0  0  0  0  0  0  0
    7.6544  -16.5024   25.3688 C   0  0  0  0  0  0  0  0  0  0  0  0
    7.0448  -16.7660   26.4684 O   0  0  0  0  0  0  0  0  0  0  0  0
    8.2513  -11.9784   25.5948 C   0  0  0  0  0  0  0  0  0  0  0  0
    7.2924  -13.0395   25.9757 C   0  0  2  0  0  0  0  0  0  0  0  0
    5.9895  -12.3578   26.4503 C   0  0  0  0  0  0  0  0  0  0  0  0
    7.7704  -14.0165   26.9597 C   0  0  0  0  0  0  0  0  0  0  0  0
    9.0046  -14.7805   26.6614 C   0  0  2  0  0  0  0  0  0  0  0  0
    8.7084  -15.5779   25.4034 N   0  0  0  0  0  0  0  0  0  0  0  0
    9.3775  -15.7867   27.6375 C   0  0  0  0  0  0  0  0  0  0  0  0
    9.9364  -15.6314   28.7514 O   0  0  0  0  0  0  0  0  0  0  0  0
    9.0987  -17.1527   27.3563 O   0  0  0  0  0  0  0  0  0  0  0  0
  2  1  1  1
  2  3  1  0
  4  5  1  0
  4  2  1  0
  5  6  1  6
  7  5  1  0
  7  8  2  0
 10 12  1  0
 10  9  1  0
 11 10  2  0
 13 12  1  1
 14 13  1  0
 14  7  1  0
 15 13  1  0
 16 15  2  0
 18 17  1  1
 18 19  1  0
 18 20  1  0
 21 20  1  1
 21 22  1  0
 21 23  1  0
 22 15  1  0
 23 25  1  0
 24 23  2  0
M  END
$$$$
