LNL.pdb
     RDKit          3D

 25 24  0  0  1  0  0  0  0  0999 V2000
    8.9602  -12.9347   17.8000 C   0  0  0  0  0  0  0  0  0  0  0  0
    7.7388  -13.5407   18.4549 C   0  0  2  0  0  0  0  0  0  0  0  0
    6.7926  -12.4352   18.8644 C   0  0  0  0  0  0  0  0  0  0  0  0
    8.1194  -14.4329   19.6046 C   0  0  0  0  0  0  0  0  0  0  0  0
    8.9234  -15.5889   19.0700 C   0  0  2  0  0  0  0  0  0  0  0  0
    8.3443  -16.2121   17.9016 N   0  0  0  0  0  0  0  0  0  0  0  0
    9.1615  -16.6048   20.1564 C   0  0  0  0  0  0  0  0  0  0  0  0
    9.3019  -17.8164   19.8673 O   0  0  0  0  0  0  0  0  0  0  0  0
   10.3929  -20.5682   22.3172 N   0  0  0  0  0  0  0  0  0  0  0  0
   10.0333  -19.3525   22.9550 C   0  0  0  0  0  0  0  0  0  0  0  0
    9.2273  -19.4692   23.9361 O   0  0  0  0  0  0  0  0  0  0  0  0
   10.5682  -18.0381   22.4991 C   0  0  0  0  0  0  0  0  0  0  0  0
    9.5748  -16.9068   22.6721 C   0  0  2  0  0  0  0  0  0  0  0  0
    9.2252  -16.1894   21.4889 N   0  0  0  0  0  0  0  0  0  0  0  0
    9.7468  -16.1142   23.8831 C   0  0  0  0  0  0  0  0  0  0  0  0
   10.8824  -15.6218   24.2264 O   0  0  0  0  0  0  0  0  0  0  0  0
    5.9075  -12.5643   27.0083 C   0  0  0  0  0  0  0  0  0  0  0  0
    7.2880  -13.0828   26.8836 C   0  0  2  0  0  0  0  0  0  0  0  0
    8.2382  -11.8758   26.7164 C   0  0  0  0  0  0  0  0  0  0  0  0
    7.5081  -14.0825   25.8330 C   0  0  0  0  0  0  0  0  0  0  0  0
    8.7430  -14.9005   25.8776 C   0  0  2  0  0  0  0  0  0  0  0  0
    8.6433  -15.8708   24.7136 N   0  0  0  0  0  0  0  0  0  0  0  0
    8.8934  -15.7564   27.0389 C   0  0  0  0  0  0  0  0  0  0  0  0
    8.2791  -16.8154   27.3192 O   0  0  0  0  0  0  0  0  0  0  0  0
    9.8501  -15.4056   28.0311 O   0  0  0  0  0  0  0  0  0  0  0  0
  2  1  1  1
  2  3  1  0
  4  5  1  0
  4  2  1  0
  5  6  1  6
  7  5  1  0
  7  8  2  0
 10 12  1  0
 10  9  1  0
 11 10  2  0
 13 12  1  6
 14 13  1  0
 14  7  1  0
 15 13  1  0
 16 15  2  0
 18 17  1  6
 18 19  1  0
 18 20  1  0
 21 20  1  1
 21 22  1  0
 21 23  1  0
 22 15  1  0
 23 25  1  0
 24 23  2  0
M  END
$$$$
