LNL.pdb
     RDKit          3D

 25 24  0  0  1  0  0  0  0  0999 V2000
    8.9152  -12.5407   18.6893 C   0  0  0  0  0  0  0  0  0  0  0  0
    7.6675  -13.3885   18.5777 C   0  0  2  0  0  0  0  0  0  0  0  0
    6.4871  -12.4989   18.2607 C   0  0  0  0  0  0  0  0  0  0  0  0
    7.4540  -14.2149   19.8163 C   0  0  0  0  0  0  0  0  0  0  0  0
    8.7686  -14.8331   20.2140 C   0  0  2  0  0  0  0  0  0  0  0  0
    9.3096  -15.7400   19.2272 N   0  0  0  0  0  0  0  0  0  0  0  0
    8.6415  -15.5120   21.5527 C   0  0  0  0  0  0  0  0  0  0  0  0
    7.9042  -15.0229   22.4406 O   0  0  0  0  0  0  0  0  0  0  0  0
   11.7570  -19.3147   20.7371 N   0  0  0  0  0  0  0  0  0  0  0  0
   10.8356  -19.1973   21.8100 C   0  0  0  0  0  0  0  0  0  0  0  0
    9.8512  -20.0070   21.7745 O   0  0  0  0  0  0  0  0  0  0  0  0
   11.0184  -18.1929   22.8960 C   0  0  0  0  0  0  0  0  0  0  0  0
    9.8460  -17.2405   23.0198 C   0  0  2  0  0  0  0  0  0  0  0  0
    9.3501  -16.6906   21.7998 N   0  0  0  0  0  0  0  0  0  0  0  0
    9.9031  -16.3366   24.1616 C   0  0  0  0  0  0  0  0  0  0  0  0
   10.9880  -16.1232   24.8154 O   0  0  0  0  0  0  0  0  0  0  0  0
    5.8339  -12.4451   26.7893 C   0  0  0  0  0  0  0  0  0  0  0  0
    7.1875  -13.0428   26.8112 C   0  0  2  0  0  0  0  0  0  0  0  0
    8.2161  -11.8928   26.8949 C   0  0  0  0  0  0  0  0  0  0  0  0
    7.5042  -13.9606   25.7118 C   0  0  0  0  0  0  0  0  0  0  0  0
    8.7597  -14.7450   25.7798 C   0  0  2  0  0  0  0  0  0  0  0  0
    8.7414  -15.6678   24.5738 N   0  0  0  0  0  0  0  0  0  0  0  0
    8.8832  -15.6447   26.9109 C   0  0  0  0  0  0  0  0  0  0  0  0
    9.6078  -15.5302   27.9303 O   0  0  0  0  0  0  0  0  0  0  0  0
    8.1044  -16.8346   26.9300 O   0  0  0  0  0  0  0  0  0  0  0  0
  2  1  1  1
  2  3  1  0
  4  5  1  0
  4  2  1  0
  5  6  1  6
  7  5  1  0
  7  8  2  0
 10 12  1  0
 10  9  1  0
 11 10  2  0
 13 12  1  6
 14 13  1  0
 14  7  1  0
 15 13  1  0
 16 15  2  0
 18 17  1  6
 18 19  1  0
 18 20  1  0
 21 20  1  1
 21 22  1  0
 21 23  1  0
 22 15  1  0
 23 25  1  0
 24 23  2  0
M  END
$$$$
