LNL.pdb
     RDKit          3D

 25 24  0  0  1  0  0  0  0  0999 V2000
    8.2217  -12.1282   18.0128 C   0  0  0  0  0  0  0  0  0  0  0  0
    8.1235  -13.5335   18.5635 C   0  0  2  0  0  0  0  0  0  0  0  0
    6.8643  -14.1868   18.0413 C   0  0  0  0  0  0  0  0  0  0  0  0
    8.1992  -13.5398   20.0658 C   0  0  0  0  0  0  0  0  0  0  0  0
    9.2749  -14.5054   20.4888 C   0  0  2  0  0  0  0  0  0  0  0  0
    9.5617  -15.5267   19.5071 N   0  0  0  0  0  0  0  0  0  0  0  0
    8.9277  -15.1228   21.8183 C   0  0  0  0  0  0  0  0  0  0  0  0
    7.9336  -14.7143   22.4632 O   0  0  0  0  0  0  0  0  0  0  0  0
   10.7783  -19.3840   21.4649 N   0  0  0  0  0  0  0  0  0  0  0  0
    9.9358  -19.0855   22.5672 C   0  0  0  0  0  0  0  0  0  0  0  0
    8.7954  -19.6557   22.5520 O   0  0  0  0  0  0  0  0  0  0  0  0
   10.3669  -18.1674   23.6595 C   0  0  0  0  0  0  0  0  0  0  0  0
    9.6867  -16.8147   23.5937 C   0  0  2  0  0  0  0  0  0  0  0  0
    9.7200  -16.1541   22.3291 N   0  0  0  0  0  0  0  0  0  0  0  0
    9.8716  -15.9732   24.7691 C   0  0  0  0  0  0  0  0  0  0  0  0
   11.0061  -15.4500   25.0679 O   0  0  0  0  0  0  0  0  0  0  0  0
    8.0277  -11.9506   26.2135 C   0  0  0  0  0  0  0  0  0  0  0  0
    7.1722  -13.1579   26.2376 C   0  0  2  0  0  0  0  0  0  0  0  0
    5.7332  -12.7167   26.5873 C   0  0  0  0  0  0  0  0  0  0  0  0
    7.6210  -14.2481   27.1103 C   0  0  0  0  0  0  0  0  0  0  0  0
    8.9468  -14.8604   26.8584 C   0  0  2  0  0  0  0  0  0  0  0  0
    8.7824  -15.7152   25.6140 N   0  0  0  0  0  0  0  0  0  0  0  0
    9.4156  -15.7916   27.8670 C   0  0  0  0  0  0  0  0  0  0  0  0
    9.2755  -17.0389   27.9104 O   0  0  0  0  0  0  0  0  0  0  0  0
   10.1396  -15.2880   28.9828 O   0  0  0  0  0  0  0  0  0  0  0  0
  2  1  1  1
  2  3  1  0
  4  5  1  0
  4  2  1  0
  5  6  1  6
  7  5  1  0
  7  8  2  0
 10 12  1  0
 10  9  1  0
 11 10  2  0
 13 12  1  6
 14 13  1  0
 14  7  1  0
 15 13  1  0
 16 15  2  0
 18 17  1  1
 18 19  1  0
 18 20  1  0
 21 20  1  1
 21 22  1  0
 21 23  1  0
 22 15  1  0
 23 25  1  0
 24 23  2  0
M  END
$$$$
