LNL.pdb
     RDKit          3D

 25 24  0  0  1  0  0  0  0  0999 V2000
    9.0692  -12.7123   18.7075 C   0  0  0  0  0  0  0  0  0  0  0  0
    8.1273  -13.7055   18.0639 C   0  0  2  0  0  0  0  0  0  0  0  0
    7.0594  -12.9566   17.2998 C   0  0  0  0  0  0  0  0  0  0  0  0
    7.5543  -14.6551   19.0800 C   0  0  0  0  0  0  0  0  0  0  0  0
    8.2928  -14.4709   20.3798 C   0  0  2  0  0  0  0  0  0  0  0  0
    9.7178  -14.6896   20.2777 N   0  0  0  0  0  0  0  0  0  0  0  0
    7.6918  -15.3453   21.4491 C   0  0  0  0  0  0  0  0  0  0  0  0
    6.6820  -16.0443   21.1987 O   0  0  0  0  0  0  0  0  0  0  0  0
   10.1622  -19.7955   23.1283 N   0  0  0  0  0  0  0  0  0  0  0  0
   10.4524  -18.4231   23.3429 C   0  0  0  0  0  0  0  0  0  0  0  0
   11.3137  -18.1835   24.2521 O   0  0  0  0  0  0  0  0  0  0  0  0
    9.7890  -17.3471   22.5531 C   0  0  0  0  0  0  0  0  0  0  0  0
    8.9539  -16.4176   23.4108 C   0  0  2  0  0  0  0  0  0  0  0  0
    8.2665  -15.3734   22.7224 N   0  0  0  0  0  0  0  0  0  0  0  0
    9.5446  -16.0667   24.6961 C   0  0  0  0  0  0  0  0  0  0  0  0
   10.7891  -15.7753   24.8236 O   0  0  0  0  0  0  0  0  0  0  0  0
    8.4465  -12.1876   26.2649 C   0  0  0  0  0  0  0  0  0  0  0  0
    7.4996  -13.3150   26.4146 C   0  0  2  0  0  0  0  0  0  0  0  0
    6.1186  -12.7321   26.7900 C   0  0  0  0  0  0  0  0  0  0  0  0
    7.9010  -14.3739   27.3467 C   0  0  0  0  0  0  0  0  0  0  0  0
    9.1084  -15.1748   27.0355 C   0  0  2  0  0  0  0  0  0  0  0  0
    8.7394  -16.0410   25.8440 N   0  0  0  0  0  0  0  0  0  0  0  0
    9.5154  -16.1268   28.0515 C   0  0  0  0  0  0  0  0  0  0  0  0
    9.3267  -17.3680   28.0857 O   0  0  0  0  0  0  0  0  0  0  0  0
   10.2294  -15.6552   29.1876 O   0  0  0  0  0  0  0  0  0  0  0  0
  2  1  1  1
  2  3  1  0
  4  5  1  0
  4  2  1  0
  5  6  1  6
  7  5  1  0
  7  8  2  0
 10 12  1  0
 10  9  1  0
 11 10  2  0
 13 12  1  6
 14 13  1  0
 14  7  1  0
 15 13  1  0
 16 15  2  0
 18 17  1  1
 18 19  1  0
 18 20  1  0
 21 20  1  1
 21 22  1  0
 21 23  1  0
 22 15  1  0
 23 25  1  0
 24 23  2  0
M  END
$$$$
