LNL.pdb
     RDKit          3D

 25 24  0  0  1  0  0  0  0  0999 V2000
    9.0829  -12.2248   19.4760 C   0  0  0  0  0  0  0  0  0  0  0  0
    8.3183  -13.3684   18.8471 C   0  0  2  0  0  0  0  0  0  0  0  0
    7.2967  -12.8134   17.8810 C   0  0  0  0  0  0  0  0  0  0  0  0
    7.7033  -14.2571   19.8933 C   0  0  0  0  0  0  0  0  0  0  0  0
    8.3532  -15.6135   19.8140 C   0  0  2  0  0  0  0  0  0  0  0  0
    7.6566  -16.5456   18.9567 N   0  0  0  0  0  0  0  0  0  0  0  0
    8.5322  -16.1873   21.1953 C   0  0  0  0  0  0  0  0  0  0  0  0
    7.5333  -16.4212   21.9156 O   0  0  0  0  0  0  0  0  0  0  0  0
   12.1355  -19.2236   20.9418 N   0  0  0  0  0  0  0  0  0  0  0  0
   11.3335  -19.0118   22.0932 C   0  0  0  0  0  0  0  0  0  0  0  0
   10.4774  -19.9248   22.3370 O   0  0  0  0  0  0  0  0  0  0  0  0
   11.4916  -17.8016   22.9488 C   0  0  0  0  0  0  0  0  0  0  0  0
   10.2625  -16.9150   22.9467 C   0  0  2  0  0  0  0  0  0  0  0  0
    9.8182  -16.4578   21.6698 N   0  0  0  0  0  0  0  0  0  0  0  0
   10.1938  -15.9526   24.0391 C   0  0  0  0  0  0  0  0  0  0  0  0
   11.1220  -15.0914   24.2554 O   0  0  0  0  0  0  0  0  0  0  0  0
    5.9576  -12.7635   26.8421 C   0  0  0  0  0  0  0  0  0  0  0  0
    7.3658  -13.2178   26.8672 C   0  0  2  0  0  0  0  0  0  0  0  0
    8.2719  -11.9712   26.7547 C   0  0  0  0  0  0  0  0  0  0  0  0
    7.7327  -14.2334   25.8745 C   0  0  0  0  0  0  0  0  0  0  0  0
    8.9953  -14.9864   26.0611 C   0  0  2  0  0  0  0  0  0  0  0  0
    9.0815  -15.9532   24.8932 N   0  0  0  0  0  0  0  0  0  0  0  0
    9.0553  -15.8409   27.2318 C   0  0  0  0  0  0  0  0  0  0  0  0
    8.5171  -16.9606   27.4155 O   0  0  0  0  0  0  0  0  0  0  0  0
    9.8103  -15.4108   28.3578 O   0  0  0  0  0  0  0  0  0  0  0  0
  2  1  1  1
  2  3  1  0
  4  5  1  0
  4  2  1  0
  5  6  1  6
  7  5  1  0
  7  8  2  0
 10 12  1  0
 10  9  1  0
 11 10  2  0
 13 12  1  6
 14 13  1  0
 14  7  1  0
 15 13  1  0
 16 15  2  0
 18 17  1  6
 18 19  1  0
 18 20  1  0
 21 20  1  6
 21 22  1  0
 21 23  1  0
 22 15  1  0
 23 25  1  0
 24 23  2  0
M  END
$$$$
