LNL.pdb
     RDKit          3D

 25 24  0  0  1  0  0  0  0  0999 V2000
    9.0867  -12.5484   18.6616 C   0  0  0  0  0  0  0  0  0  0  0  0
    7.8664  -13.4285   18.5053 C   0  0  2  0  0  0  0  0  0  0  0  0
    6.7116  -12.5943   17.9997 C   0  0  0  0  0  0  0  0  0  0  0  0
    7.5434  -14.1496   19.7853 C   0  0  0  0  0  0  0  0  0  0  0  0
    8.8152  -14.7335   20.3420 C   0  0  2  0  0  0  0  0  0  0  0  0
    9.4024  -15.7568   19.5071 N   0  0  0  0  0  0  0  0  0  0  0  0
    8.5846  -15.2488   21.7386 C   0  0  0  0  0  0  0  0  0  0  0  0
    7.8853  -14.5925   22.5457 O   0  0  0  0  0  0  0  0  0  0  0  0
    7.9953  -19.3556   21.6978 N   0  0  0  0  0  0  0  0  0  0  0  0
    9.3290  -19.3099   22.1807 C   0  0  0  0  0  0  0  0  0  0  0  0
   10.1798  -19.9678   21.4956 O   0  0  0  0  0  0  0  0  0  0  0  0
    9.6953  -18.5425   23.4048 C   0  0  0  0  0  0  0  0  0  0  0  0
    9.1572  -17.1258   23.3939 C   0  0  2  0  0  0  0  0  0  0  0  0
    9.1545  -16.4630   22.1300 N   0  0  0  0  0  0  0  0  0  0  0  0
    9.5257  -16.3167   24.5487 C   0  0  0  0  0  0  0  0  0  0  0  0
   10.7162  -15.8658   24.7200 O   0  0  0  0  0  0  0  0  0  0  0  0
    8.5544  -12.1388   26.1618 C   0  0  0  0  0  0  0  0  0  0  0  0
    7.4899  -13.1669   26.1701 C   0  0  2  0  0  0  0  0  0  0  0  0
    6.1589  -12.4733   26.5376 C   0  0  0  0  0  0  0  0  0  0  0  0
    7.7318  -14.3377   27.0199 C   0  0  0  0  0  0  0  0  0  0  0  0
    8.9143  -15.1863   26.7413 C   0  0  2  0  0  0  0  0  0  0  0  0
    8.5579  -16.0100   25.5163 N   0  0  0  0  0  0  0  0  0  0  0  0
    9.2347  -16.1765   27.7517 C   0  0  0  0  0  0  0  0  0  0  0  0
    8.9362  -17.3961   27.7789 O   0  0  0  0  0  0  0  0  0  0  0  0
    9.9878  -15.7769   28.8901 O   0  0  0  0  0  0  0  0  0  0  0  0
  2  1  1  1
  2  3  1  0
  4  5  1  0
  4  2  1  0
  5  6  1  6
  7  5  1  0
  7  8  2  0
 10 12  1  0
 10  9  1  0
 11 10  2  0
 13 12  1  6
 14 13  1  0
 14  7  1  0
 15 13  1  0
 16 15  2  0
 18 17  1  1
 18 19  1  0
 18 20  1  0
 21 20  1  1
 21 22  1  0
 21 23  1  0
 22 15  1  0
 23 25  1  0
 24 23  2  0
M  END
$$$$
