REG.pdb
     RDKit          3D

 25 24  0  0  1  0  0  0  0  0999 V2000
   29.9381  -23.9930  -16.3009 N   0  0  0  0  0  0  0  0  0  0  0  0
   29.3683  -24.1614  -17.6033 C   0  0  0  0  0  0  0  0  0  0  0  0
   30.1193  -24.3478  -18.6352 N   0  0  0  0  0  0  0  0  0  0  0  0
   27.9635  -24.1290  -17.8047 N   0  0  0  0  0  0  0  0  0  0  0  0
   27.0687  -24.0434  -16.6941 C   0  0  0  0  0  0  0  0  0  0  0  0
   25.6166  -24.0059  -17.0388 C   0  0  0  0  0  0  0  0  0  0  0  0
   24.8429  -23.9499  -15.7159 C   0  0  0  0  0  0  0  0  0  0  0  0
   23.5599  -24.7408  -15.8523 C   0  0  2  0  0  0  0  0  0  0  0  0
   23.4861  -25.4111  -17.1292 N   0  0  0  0  0  0  0  0  0  0  0  0
   22.4059  -23.7921  -15.6911 C   0  0  0  0  0  0  0  0  0  0  0  0
   22.0089  -23.0878  -16.6646 O   0  0  0  0  0  0  0  0  0  0  0  0
   29.7601  -24.5513  -19.5813 N   0  0  0  0  0  0  0  0  0  0  0  0
   21.7256  -23.6459  -14.4690 C   0  0  1  0  0  0  0  0  0  0  0  0
   20.5618  -22.7323  -14.3443 C   0  0  0  0  0  0  0  0  0  0  0  0
   19.7074  -23.2445  -13.2101 C   0  0  0  0  0  0  0  0  0  0  0  0
   18.4728  -22.4661  -12.9271 C   0  0  0  0  0  0  0  0  0  0  0  0
   17.7449  -23.1200  -11.7972 O   0  0  0  0  0  0  0  0  0  0  0  0
   17.3553  -24.2944  -11.9388 C   0  0  0  0  0  0  0  0  0  0  0  0
   21.0991  -21.3766  -14.1196 O   0  0  0  0  0  0  0  0  0  0  0  0
   22.1523  -21.1990  -13.4152 O   0  0  0  0  0  0  0  0  0  0  0  0
   17.4974  -22.4621  -10.6162 N   0  0  0  0  0  0  0  0  0  0  0  0
   20.5390  -20.1737  -14.6366 C   0  0  0  0  0  0  0  0  0  0  0  0
   21.1243  -18.8745  -14.3712 C   0  0  0  0  0  0  0  0  0  0  0  0
   21.7346  -18.2765  -15.5752 O   0  0  0  0  0  0  0  0  0  0  0  0
   21.8426  -19.0139  -16.5892 O   0  0  0  0  0  0  0  0  0  0  0  0
  2  3  2  0
  2  1  1  0
  4  2  1  0
  5  4  1  0
  6  5  1  0
  7  6  1  0
  8 10  1  0
  8  7  1  0
  8  9  1  6
 10 12  1  0
 11 10  2  0
 12 13  1  0
 13 14  1  6
 14 15  1  0
 16 17  2  0
 16 15  1  0
 18 13  1  0
 19 18  2  0
 20 16  1  0
 21 18  1  0
 22 21  1  0
 23 22  1  0
 24 23  2  0
 25 23  1  0
M  END
$$$$
