REG.pdb
     RDKit          3D

 25 24  0  0  1  0  0  0  0  0999 V2000
   28.9064  -22.5336  -11.0801 N   0  0  0  0  0  0  0  0  0  0  0  0
   29.0533  -21.2308  -10.5055 C   0  0  0  0  0  0  0  0  0  0  0  0
   30.1576  -20.5753  -10.6250 N   0  0  0  0  0  0  0  0  0  0  0  0
   27.9941  -20.6169   -9.7868 N   0  0  0  0  0  0  0  0  0  0  0  0
   26.6319  -20.8749  -10.1322 C   0  0  0  0  0  0  0  0  0  0  0  0
   26.4072  -21.4151  -11.5057 C   0  0  0  0  0  0  0  0  0  0  0  0
   24.8924  -21.5772  -11.6817 C   0  0  0  0  0  0  0  0  0  0  0  0
   24.2141  -20.2480  -11.4304 C   0  0  2  0  0  0  0  0  0  0  0  0
   23.6036  -20.2056  -10.1225 N   0  0  0  0  0  0  0  0  0  0  0  0
   23.1781  -20.0419  -12.4991 C   0  0  0  0  0  0  0  0  0  0  0  0
   21.9504  -19.9669  -12.2015 O   0  0  0  0  0  0  0  0  0  0  0  0
   30.3533  -19.6820  -10.1464 N   0  0  0  0  0  0  0  0  0  0  0  0
   23.5211  -19.9257  -13.8579 C   0  0  2  0  0  0  0  0  0  0  0  0
   22.4913  -19.6285  -14.8855 C   0  0  0  0  0  0  0  0  0  0  0  0
   23.1959  -18.9854  -16.0556 C   0  0  0  0  0  0  0  0  0  0  0  0
   22.3366  -18.6415  -17.2190 C   0  0  0  0  0  0  0  0  0  0  0  0
   21.9051  -17.2164  -17.0886 O   0  0  0  0  0  0  0  0  0  0  0  0
   21.1459  -16.9063  -16.1513 C   0  0  0  0  0  0  0  0  0  0  0  0
   21.8310  -20.9056  -15.2172 O   0  0  0  0  0  0  0  0  0  0  0  0
   22.4336  -22.0197  -15.0365 O   0  0  0  0  0  0  0  0  0  0  0  0
   22.3224  -16.2484  -17.9706 N   0  0  0  0  0  0  0  0  0  0  0  0
   20.5150  -21.0384  -15.7450 C   0  0  0  0  0  0  0  0  0  0  0  0
   19.3379  -20.6742  -14.9816 C   0  0  0  0  0  0  0  0  0  0  0  0
   18.9567  -21.7148  -14.0061 O   0  0  0  0  0  0  0  0  0  0  0  0
   19.8813  -22.2246  -13.3215 O   0  0  0  0  0  0  0  0  0  0  0  0
  2  3  2  0
  2  1  1  0
  4  2  1  0
  5  4  1  0
  6  5  1  0
  7  6  1  0
  8 10  1  0
  8  7  1  0
  8  9  1  1
 10 12  1  0
 11 10  2  0
 12 13  1  0
 13 14  1  1
 14 15  1  0
 16 17  2  0
 16 15  1  0
 18 13  1  0
 19 18  2  0
 20 16  1  0
 21 18  1  0
 22 21  1  0
 23 22  1  0
 24 23  2  0
 25 23  1  0
M  END
$$$$
