REG.pdb
     RDKit          3D

 25 24  0  0  1  0  0  0  0  0999 V2000
   26.4311  -19.6781   -9.0684 N   0  0  0  0  0  0  0  0  0  0  0  0
   25.5805  -20.7465   -9.4971 C   0  0  0  0  0  0  0  0  0  0  0  0
   24.3749  -20.8525   -9.0508 N   0  0  0  0  0  0  0  0  0  0  0  0
   26.0310  -21.7229  -10.4238 N   0  0  0  0  0  0  0  0  0  0  0  0
   27.0092  -21.3947  -11.4121 C   0  0  0  0  0  0  0  0  0  0  0  0
   26.4710  -21.0541  -12.7624 C   0  0  0  0  0  0  0  0  0  0  0  0
   27.3955  -19.9848  -13.3571 C   0  0  0  0  0  0  0  0  0  0  0  0
   26.6429  -18.6763  -13.4655 C   0  0  2  0  0  0  0  0  0  0  0  0
   25.2505  -18.8377  -13.1186 N   0  0  0  0  0  0  0  0  0  0  0  0
   26.7768  -18.1750  -14.8757 C   0  0  0  0  0  0  0  0  0  0  0  0
   27.9010  -17.8080  -15.3259 O   0  0  0  0  0  0  0  0  0  0  0  0
   23.7440  -21.6384   -9.2738 N   0  0  0  0  0  0  0  0  0  0  0  0
   25.6749  -18.0917  -15.7455 C   0  0  2  0  0  0  0  0  0  0  0  0
   25.7762  -17.3801  -17.0448 C   0  0  0  0  0  0  0  0  0  0  0  0
   25.6761  -18.4189  -18.1355 C   0  0  0  0  0  0  0  0  0  0  0  0
   26.6484  -19.5404  -18.0524 C   0  0  0  0  0  0  0  0  0  0  0  0
   27.7793  -19.2619  -18.9892 O   0  0  0  0  0  0  0  0  0  0  0  0
   27.6085  -18.4295  -19.8997 C   0  0  0  0  0  0  0  0  0  0  0  0
   24.6924  -16.3794  -17.0747 O   0  0  0  0  0  0  0  0  0  0  0  0
   23.6553  -16.5162  -16.3379 O   0  0  0  0  0  0  0  0  0  0  0  0
   28.9925  -19.8969  -18.8710 N   0  0  0  0  0  0  0  0  0  0  0  0
   24.6784  -15.2060  -17.8815 C   0  0  0  0  0  0  0  0  0  0  0  0
   23.6342  -14.2067  -17.7708 C   0  0  0  0  0  0  0  0  0  0  0  0
   22.3832  -14.6254  -18.4338 O   0  0  0  0  0  0  0  0  0  0  0  0
   22.4559  -15.5918  -19.2365 O   0  0  0  0  0  0  0  0  0  0  0  0
  2  3  2  0
  2  1  1  0
  4  2  1  0
  5  4  1  0
  6  5  1  0
  7  6  1  0
  8 10  1  0
  8  7  1  0
  8  9  1  6
 10 12  1  0
 11 10  2  0
 12 13  1  0
 13 14  1  1
 14 15  1  0
 16 17  2  0
 16 15  1  0
 18 13  1  0
 19 18  2  0
 20 16  1  0
 21 18  1  0
 22 21  1  0
 23 22  1  0
 24 23  2  0
 25 23  1  0
M  END
$$$$
