REG.pdb
     RDKit          3D

 25 24  0  0  1  0  0  0  0  0999 V2000
   24.3329  -21.1024   -8.0810 N   0  0  0  0  0  0  0  0  0  0  0  0
   23.5753  -20.9506   -9.2860 C   0  0  0  0  0  0  0  0  0  0  0  0
   22.2862  -20.9185   -9.2578 N   0  0  0  0  0  0  0  0  0  0  0  0
   24.2124  -20.8309  -10.5489 N   0  0  0  0  0  0  0  0  0  0  0  0
   25.6376  -20.8241  -10.6497 C   0  0  0  0  0  0  0  0  0  0  0  0
   26.1853  -20.5696  -12.0150 C   0  0  0  0  0  0  0  0  0  0  0  0
   26.0572  -21.8801  -12.8012 C   0  0  0  0  0  0  0  0  0  0  0  0
   26.5751  -21.6727  -14.2079 C   0  0  2  0  0  0  0  0  0  0  0  0
   27.9281  -21.1683  -14.2034 N   0  0  0  0  0  0  0  0  0  0  0  0
   25.6587  -20.7084  -14.9065 C   0  0  0  0  0  0  0  0  0  0  0  0
   25.7072  -19.4704  -14.6488 O   0  0  0  0  0  0  0  0  0  0  0  0
   21.6924  -20.8342  -10.0979 N   0  0  0  0  0  0  0  0  0  0  0  0
   24.7194  -21.1321  -15.8635 C   0  0  1  0  0  0  0  0  0  0  0  0
   23.8442  -20.1571  -16.5622 C   0  0  0  0  0  0  0  0  0  0  0  0
   23.8744  -20.4985  -18.0324 C   0  0  0  0  0  0  0  0  0  0  0  0
   25.1955  -20.3646  -18.7009 C   0  0  0  0  0  0  0  0  0  0  0  0
   25.5518  -18.9145  -18.7671 O   0  0  0  0  0  0  0  0  0  0  0  0
   26.6516  -18.5490  -18.3111 C   0  0  0  0  0  0  0  0  0  0  0  0
   22.5045  -20.2657  -15.9534 O   0  0  0  0  0  0  0  0  0  0  0  0
   22.1247  -21.3541  -15.3984 O   0  0  0  0  0  0  0  0  0  0  0  0
   24.7023  -17.9829  -19.3144 N   0  0  0  0  0  0  0  0  0  0  0  0
   21.5329  -19.2254  -15.9123 C   0  0  0  0  0  0  0  0  0  0  0  0
   20.2578  -19.3875  -15.2423 C   0  0  0  0  0  0  0  0  0  0  0  0
   19.3997  -18.1930  -15.3708 O   0  0  0  0  0  0  0  0  0  0  0  0
   19.8966  -17.1896  -15.9452 O   0  0  0  0  0  0  0  0  0  0  0  0
  2  3  2  0
  2  1  1  0
  4  2  1  0
  5  4  1  0
  6  5  1  0
  7  6  1  0
  8 10  1  0
  8  7  1  0
  8  9  1  1
 10 12  1  0
 11 10  2  0
 12 13  1  0
 13 14  1  6
 14 15  1  0
 16 17  2  0
 16 15  1  0
 18 13  1  0
 19 18  2  0
 20 16  1  0
 21 18  1  0
 22 21  1  0
 23 22  1  0
 24 23  2  0
 25 23  1  0
M  END
$$$$
