REG.pdb
     RDKit          3D

 25 24  0  0  1  0  0  0  0  0999 V2000
   27.4744  -23.5040  -16.2622 N   0  0  0  0  0  0  0  0  0  0  0  0
   26.9820  -23.1270  -17.5523 C   0  0  0  0  0  0  0  0  0  0  0  0
   27.3928  -23.7255  -18.6184 N   0  0  0  0  0  0  0  0  0  0  0  0
   26.0289  -22.0860  -17.7039 N   0  0  0  0  0  0  0  0  0  0  0  0
   25.6237  -21.2984  -16.5827 C   0  0  0  0  0  0  0  0  0  0  0  0
   25.0801  -22.0632  -15.4215 C   0  0  0  0  0  0  0  0  0  0  0  0
   23.5512  -21.9800  -15.5057 C   0  0  0  0  0  0  0  0  0  0  0  0
   23.1071  -20.5724  -15.1714 C   0  0  2  0  0  0  0  0  0  0  0  0
   24.2337  -19.7211  -14.8693 N   0  0  0  0  0  0  0  0  0  0  0  0
   22.1737  -20.6430  -13.9961 C   0  0  0  0  0  0  0  0  0  0  0  0
   22.1193  -19.6967  -13.1577 O   0  0  0  0  0  0  0  0  0  0  0  0
   27.0999  -23.4682  -19.5741 N   0  0  0  0  0  0  0  0  0  0  0  0
   21.3314  -21.7478  -13.7778 C   0  0  2  0  0  0  0  0  0  0  0  0
   20.2202  -21.6820  -12.7951 C   0  0  0  0  0  0  0  0  0  0  0  0
   19.0669  -20.9766  -13.4667 C   0  0  0  0  0  0  0  0  0  0  0  0
   17.8451  -20.8006  -12.6383 C   0  0  0  0  0  0  0  0  0  0  0  0
   16.7761  -20.1925  -13.4879 O   0  0  0  0  0  0  0  0  0  0  0  0
   16.8227  -20.3662  -14.7203 C   0  0  0  0  0  0  0  0  0  0  0  0
   19.9169  -23.0688  -12.3928 O   0  0  0  0  0  0  0  0  0  0  0  0
   19.9681  -24.0227  -13.2439 O   0  0  0  0  0  0  0  0  0  0  0  0
   15.7521  -19.4528  -12.9465 N   0  0  0  0  0  0  0  0  0  0  0  0
   19.5550  -23.4838  -11.0794 C   0  0  0  0  0  0  0  0  0  0  0  0
   19.2710  -24.8687  -10.7594 C   0  0  0  0  0  0  0  0  0  0  0  0
   18.7629  -25.0346   -9.3832 O   0  0  0  0  0  0  0  0  0  0  0  0
   18.8686  -24.0471   -8.6105 O   0  0  0  0  0  0  0  0  0  0  0  0
  2  3  2  0
  2  1  1  0
  4  2  1  0
  5  4  1  0
  6  5  1  0
  7  6  1  0
  8 10  1  0
  8  7  1  0
  8  9  1  1
 10 12  1  0
 11 10  2  0
 12 13  1  0
 13 14  1  1
 14 15  1  0
 16 17  2  0
 16 15  1  0
 18 13  1  0
 19 18  2  0
 20 16  1  0
 21 18  1  0
 22 21  1  0
 23 22  1  0
 24 23  2  0
 25 23  1  0
M  END
$$$$
