REG.pdb
     RDKit          3D

 25 24  0  0  1  0  0  0  0  0999 V2000
   21.7089  -12.4611    7.9566 N   0  0  0  0  0  0  0  0  0  0  0  0
   21.4720  -11.0506    7.8972 C   0  0  0  0  0  0  0  0  0  0  0  0
   22.2572  -10.2217    8.4972 N   0  0  0  0  0  0  0  0  0  0  0  0
   20.3699  -10.5164    7.1796 N   0  0  0  0  0  0  0  0  0  0  0  0
   19.1689  -11.2732    7.0168 C   0  0  0  0  0  0  0  0  0  0  0  0
   19.1617  -12.2306    5.8713 C   0  0  0  0  0  0  0  0  0  0  0  0
   17.7944  -12.9251    5.8759 C   0  0  0  0  0  0  0  0  0  0  0  0
   17.7335  -13.9184    4.7357 C   0  0  2  0  0  0  0  0  0  0  0  0
   16.4260  -13.9400    4.1235 N   0  0  0  0  0  0  0  0  0  0  0  0
   18.0803  -15.2758    5.2787 C   0  0  0  0  0  0  0  0  0  0  0  0
   17.6296  -16.3240    4.7314 O   0  0  0  0  0  0  0  0  0  0  0  0
   22.1128   -9.1999    8.5153 N   0  0  0  0  0  0  0  0  0  0  0  0
   18.9085  -15.4400    6.4033 C   0  0  2  0  0  0  0  0  0  0  0  0
   19.2523  -16.7924    6.9111 C   0  0  0  0  0  0  0  0  0  0  0  0
   20.2447  -16.6123    8.0343 C   0  0  0  0  0  0  0  0  0  0  0  0
   20.7257  -17.8623    8.6794 C   0  0  0  0  0  0  0  0  0  0  0  0
   22.2046  -17.7613    8.8719 O   0  0  0  0  0  0  0  0  0  0  0  0
   22.9121  -17.4389    7.8991 C   0  0  0  0  0  0  0  0  0  0  0  0
   17.9894  -17.4305    7.3293 O   0  0  0  0  0  0  0  0  0  0  0  0
   17.0982  -16.7648    7.9614 O   0  0  0  0  0  0  0  0  0  0  0  0
   22.7970  -18.0134   10.0862 N   0  0  0  0  0  0  0  0  0  0  0  0
   17.6341  -18.7881    7.0869 C   0  0  0  0  0  0  0  0  0  0  0  0
   16.3863  -19.3545    7.5593 C   0  0  0  0  0  0  0  0  0  0  0  0
   16.4680  -19.8007    8.9642 O   0  0  0  0  0  0  0  0  0  0  0  0
   16.6246  -18.9106    9.8399 O   0  0  0  0  0  0  0  0  0  0  0  0
  2  3  2  0
  2  1  1  0
  4  2  1  0
  5  4  1  0
  6  5  1  0
  7  6  1  0
  8 10  1  0
  8  7  1  0
  8  9  1  1
 10 12  1  0
 11 10  2  0
 12 13  1  0
 13 14  1  6
 14 15  1  0
 16 17  2  0
 16 15  1  0
 18 13  1  0
 19 18  2  0
 20 16  1  0
 21 18  1  0
 22 21  1  0
 23 22  1  0
 24 23  2  0
 25 23  1  0
M  END
$$$$
