REG.pdb
     RDKit          3D

 25 24  0  0  1  0  0  0  0  0999 V2000
   30.2744  -21.4139   -9.4701 N   0  0  0  0  0  0  0  0  0  0  0  0
   30.6619  -22.0651  -10.6845 C   0  0  0  0  0  0  0  0  0  0  0  0
   31.7184  -22.8035  -10.7316 N   0  0  0  0  0  0  0  0  0  0  0  0
   29.9013  -21.9220  -11.8745 N   0  0  0  0  0  0  0  0  0  0  0  0
   28.6914  -21.1620  -11.8805 C   0  0  0  0  0  0  0  0  0  0  0  0
   27.6551  -21.5936  -10.8963 C   0  0  0  0  0  0  0  0  0  0  0  0
   26.3921  -20.7735  -11.1861 C   0  0  0  0  0  0  0  0  0  0  0  0
   25.3701  -21.6538  -11.8723 C   0  0  2  0  0  0  0  0  0  0  0  0
   25.9084  -22.2519  -13.0713 N   0  0  0  0  0  0  0  0  0  0  0  0
   24.1709  -20.8100  -12.2006 C   0  0  0  0  0  0  0  0  0  0  0  0
   23.7186  -19.9775  -11.3617 O   0  0  0  0  0  0  0  0  0  0  0  0
   32.0540  -23.2770  -11.5852 N   0  0  0  0  0  0  0  0  0  0  0  0
   23.5066  -20.9066  -13.4364 C   0  0  1  0  0  0  0  0  0  0  0  0
   22.4112  -19.9698  -13.7929 C   0  0  0  0  0  0  0  0  0  0  0  0
   22.6101  -19.5733  -15.2358 C   0  0  0  0  0  0  0  0  0  0  0  0
   23.8211  -18.7601  -15.5225 C   0  0  0  0  0  0  0  0  0  0  0  0
   23.8673  -18.4736  -16.9888 O   0  0  0  0  0  0  0  0  0  0  0  0
   23.4247  -17.3838  -17.3979 C   0  0  0  0  0  0  0  0  0  0  0  0
   21.1402  -20.6751  -13.5392 O   0  0  0  0  0  0  0  0  0  0  0  0
   21.0249  -21.9248  -13.7876 O   0  0  0  0  0  0  0  0  0  0  0  0
   24.3820  -19.3762  -17.8885 N   0  0  0  0  0  0  0  0  0  0  0  0
   19.9592  -20.0782  -13.0129 C   0  0  0  0  0  0  0  0  0  0  0  0
   18.9078  -19.5649  -13.8685 C   0  0  0  0  0  0  0  0  0  0  0  0
   18.1249  -20.6428  -14.5050 O   0  0  0  0  0  0  0  0  0  0  0  0
   17.0487  -20.3135  -15.0679 O   0  0  0  0  0  0  0  0  0  0  0  0
  2  3  2  0
  2  1  1  0
  4  2  1  0
  5  4  1  0
  6  5  1  0
  7  6  1  0
  8 10  1  0
  8  7  1  0
  8  9  1  6
 10 12  1  0
 11 10  2  0
 12 13  1  0
 13 14  1  1
 14 15  1  0
 16 17  2  0
 16 15  1  0
 18 13  1  0
 19 18  2  0
 20 16  1  0
 21 18  1  0
 22 21  1  0
 23 22  1  0
 24 23  2  0
 25 23  1  0
M  END
$$$$
