REG.pdb
     RDKit          3D

 25 24  0  0  1  0  0  0  0  0999 V2000
   25.0161  -20.9286  -17.8130 N   0  0  0  0  0  0  0  0  0  0  0  0
   25.3797  -20.5799  -19.1529 C   0  0  0  0  0  0  0  0  0  0  0  0
   25.3145  -21.4488  -20.1038 N   0  0  0  0  0  0  0  0  0  0  0  0
   25.8229  -19.2719  -19.4813 N   0  0  0  0  0  0  0  0  0  0  0  0
   26.0749  -18.3080  -18.4572 C   0  0  0  0  0  0  0  0  0  0  0  0
   27.3585  -18.4785  -17.7143 C   0  0  0  0  0  0  0  0  0  0  0  0
   27.0157  -18.4746  -16.2195 C   0  0  0  0  0  0  0  0  0  0  0  0
   27.8150  -19.5524  -15.5197 C   0  0  2  0  0  0  0  0  0  0  0  0
   28.5383  -20.3707  -16.4643 N   0  0  0  0  0  0  0  0  0  0  0  0
   26.8633  -20.3945  -14.7179 C   0  0  0  0  0  0  0  0  0  0  0  0
   26.4574  -21.5084  -15.1607 O   0  0  0  0  0  0  0  0  0  0  0  0
   25.6134  -21.2655  -21.0746 N   0  0  0  0  0  0  0  0  0  0  0  0
   26.3873  -19.9885  -13.4585 C   0  0  1  0  0  0  0  0  0  0  0  0
   25.4757  -20.8540  -12.6682 C   0  0  0  0  0  0  0  0  0  0  0  0
   25.7957  -20.6313  -11.2099 C   0  0  0  0  0  0  0  0  0  0  0  0
   24.9593  -21.3874  -10.2409 C   0  0  0  0  0  0  0  0  0  0  0  0
   25.3878  -21.0243   -8.8557 O   0  0  0  0  0  0  0  0  0  0  0  0
   26.1951  -20.0877   -8.7073 C   0  0  0  0  0  0  0  0  0  0  0  0
   24.0970  -20.4809  -13.0388 O   0  0  0  0  0  0  0  0  0  0  0  0
   23.7484  -19.2519  -13.1085 O   0  0  0  0  0  0  0  0  0  0  0  0
   24.9163  -21.6934   -7.7517 N   0  0  0  0  0  0  0  0  0  0  0  0
   23.0520  -21.3974  -13.3488 C   0  0  0  0  0  0  0  0  0  0  0  0
   21.7243  -20.9540  -13.7250 C   0  0  0  0  0  0  0  0  0  0  0  0
   20.7057  -21.3134  -12.7185 O   0  0  0  0  0  0  0  0  0  0  0  0
   21.0969  -21.9623  -11.7138 O   0  0  0  0  0  0  0  0  0  0  0  0
  2  3  2  0
  2  1  1  0
  4  2  1  0
  5  4  1  0
  6  5  1  0
  7  6  1  0
  8 10  1  0
  8  7  1  0
  8  9  1  6
 10 12  1  0
 11 10  2  0
 12 13  1  0
 13 14  1  6
 14 15  1  0
 16 17  2  0
 16 15  1  0
 18 13  1  0
 19 18  2  0
 20 16  1  0
 21 18  1  0
 22 21  1  0
 23 22  1  0
 24 23  2  0
 25 23  1  0
M  END
$$$$
