REG.pdb
     RDKit          3D

 25 24  0  0  1  0  0  0  0  0999 V2000
   31.1067  -22.7641  -11.1655 N   0  0  0  0  0  0  0  0  0  0  0  0
   31.3233  -22.1815   -9.8760 C   0  0  0  0  0  0  0  0  0  0  0  0
   32.4946  -22.1863   -9.3358 N   0  0  0  0  0  0  0  0  0  0  0  0
   30.2621  -21.5810   -9.1491 N   0  0  0  0  0  0  0  0  0  0  0  0
   28.9198  -21.6392   -9.6353 C   0  0  0  0  0  0  0  0  0  0  0  0
   28.6779  -20.9570  -10.9410 C   0  0  0  0  0  0  0  0  0  0  0  0
   27.2911  -20.3075  -10.8575 C   0  0  0  0  0  0  0  0  0  0  0  0
   26.2329  -21.3457  -11.1615 C   0  0  2  0  0  0  0  0  0  0  0  0
   26.6710  -22.2611  -12.1888 N   0  0  0  0  0  0  0  0  0  0  0  0
   24.9854  -20.6293  -11.5954 C   0  0  0  0  0  0  0  0  0  0  0  0
   24.5581  -19.6288  -10.9489 O   0  0  0  0  0  0  0  0  0  0  0  0
   32.7091  -21.7629   -8.4192 N   0  0  0  0  0  0  0  0  0  0  0  0
   24.2471  -21.0328  -12.7222 C   0  0  1  0  0  0  0  0  0  0  0  0
   23.0158  -20.3104  -13.1306 C   0  0  0  0  0  0  0  0  0  0  0  0
   23.0251  -20.2219  -14.6376 C   0  0  0  0  0  0  0  0  0  0  0  0
   24.1275  -19.4209  -15.2320 C   0  0  0  0  0  0  0  0  0  0  0  0
   23.9740  -19.4277  -16.7189 O   0  0  0  0  0  0  0  0  0  0  0  0
   23.3790  -18.4777  -17.2615 C   0  0  0  0  0  0  0  0  0  0  0  0
   21.8713  -21.0656  -12.5858 O   0  0  0  0  0  0  0  0  0  0  0  0
   21.9438  -22.3318  -12.4175 O   0  0  0  0  0  0  0  0  0  0  0  0
   24.4694  -20.4483  -17.4947 N   0  0  0  0  0  0  0  0  0  0  0  0
   20.6216  -20.5013  -12.2014 C   0  0  0  0  0  0  0  0  0  0  0  0
   19.5347  -21.3120  -11.6890 C   0  0  0  0  0  0  0  0  0  0  0  0
   19.0458  -22.2888  -12.6823 O   0  0  0  0  0  0  0  0  0  0  0  0
   18.9358  -21.8909  -13.8710 O   0  0  0  0  0  0  0  0  0  0  0  0
  2  3  2  0
  2  1  1  0
  4  2  1  0
  5  4  1  0
  6  5  1  0
  7  6  1  0
  8 10  1  0
  8  7  1  0
  8  9  1  6
 10 12  1  0
 11 10  2  0
 12 13  1  0
 13 14  1  1
 14 15  1  0
 16 17  2  0
 16 15  1  0
 18 13  1  0
 19 18  2  0
 20 16  1  0
 21 18  1  0
 22 21  1  0
 23 22  1  0
 24 23  2  0
 25 23  1  0
M  END
$$$$
