REG.pdb
     RDKit          3D

 25 24  0  0  1  0  0  0  0  0999 V2000
   10.9702  -11.8089  -12.2882 N   0  0  0  0  0  0  0  0  0  0  0  0
   11.8028  -12.9451  -12.0335 C   0  0  0  0  0  0  0  0  0  0  0  0
   11.3108  -14.0276  -11.5340 N   0  0  0  0  0  0  0  0  0  0  0  0
   13.1930  -12.9210  -12.3199 N   0  0  0  0  0  0  0  0  0  0  0  0
   13.8323  -11.7118  -12.7328 C   0  0  0  0  0  0  0  0  0  0  0  0
   15.2431  -11.8563  -13.1994 C   0  0  0  0  0  0  0  0  0  0  0  0
   15.6977  -10.4754  -13.6877 C   0  0  0  0  0  0  0  0  0  0  0  0
   17.0900  -10.5839  -14.2707 C   0  0  2  0  0  0  0  0  0  0  0  0
   17.5073  -11.9613  -14.3883 N   0  0  0  0  0  0  0  0  0  0  0  0
   18.0314   -9.8256  -13.3782 C   0  0  0  0  0  0  0  0  0  0  0  0
   18.5636  -10.3868  -12.3767 O   0  0  0  0  0  0  0  0  0  0  0  0
   11.8670  -14.8717  -11.3251 N   0  0  0  0  0  0  0  0  0  0  0  0
   18.3580   -8.4779  -13.6120 C   0  0  1  0  0  0  0  0  0  0  0  0
   19.3351   -7.7655  -12.7503 C   0  0  0  0  0  0  0  0  0  0  0  0
   20.2384   -6.9675  -13.6591 C   0  0  0  0  0  0  0  0  0  0  0  0
   21.2852   -6.1574  -12.9824 C   0  0  0  0  0  0  0  0  0  0  0  0
   22.0380   -5.3881  -14.0195 O   0  0  0  0  0  0  0  0  0  0  0  0
   22.5727   -6.0130  -14.9546 C   0  0  0  0  0  0  0  0  0  0  0  0
   18.5572   -6.9381  -11.8083 O   0  0  0  0  0  0  0  0  0  0  0  0
   19.1431   -6.1169  -11.0214 O   0  0  0  0  0  0  0  0  0  0  0  0
   22.1530   -4.0195  -13.9664 N   0  0  0  0  0  0  0  0  0  0  0  0
   17.1393   -6.9548  -11.6762 C   0  0  0  0  0  0  0  0  0  0  0  0
   16.4398   -6.0721  -10.7637 C   0  0  0  0  0  0  0  0  0  0  0  0
   16.7122   -6.3958   -9.3492 O   0  0  0  0  0  0  0  0  0  0  0  0
   17.5575   -7.2996   -9.1208 O   0  0  0  0  0  0  0  0  0  0  0  0
  2  3  2  0
  2  1  1  0
  4  2  1  0
  5  4  1  0
  6  5  1  0
  7  6  1  0
  8 10  1  0
  8  7  1  0
  8  9  1  1
 10 12  1  0
 11 10  2  0
 12 13  1  0
 13 14  1  1
 14 15  1  0
 16 17  2  0
 16 15  1  0
 18 13  1  0
 19 18  2  0
 20 16  1  0
 21 18  1  0
 22 21  1  0
 23 22  1  0
 24 23  2  0
 25 23  1  0
M  END
$$$$
