REG.pdb
     RDKit          3D

 25 24  0  0  1  0  0  0  0  0999 V2000
   25.8053  -21.0084  -10.9155 N   0  0  0  0  0  0  0  0  0  0  0  0
   25.9274  -21.6934  -12.1665 C   0  0  0  0  0  0  0  0  0  0  0  0
   25.0170  -22.5174  -12.5614 N   0  0  0  0  0  0  0  0  0  0  0  0
   27.0491  -21.4917  -13.0127 N   0  0  0  0  0  0  0  0  0  0  0  0
   27.7437  -20.2432  -13.0187 C   0  0  0  0  0  0  0  0  0  0  0  0
   26.8842  -19.0288  -13.1419 C   0  0  0  0  0  0  0  0  0  0  0  0
   27.3637  -18.2636  -14.3815 C   0  0  0  0  0  0  0  0  0  0  0  0
   26.9407  -19.0124  -15.6267 C   0  0  2  0  0  0  0  0  0  0  0  0
   27.8571  -18.7814  -16.7185 N   0  0  0  0  0  0  0  0  0  0  0  0
   25.5575  -18.5582  -15.9986 C   0  0  0  0  0  0  0  0  0  0  0  0
   25.3340  -17.3490  -16.2972 O   0  0  0  0  0  0  0  0  0  0  0  0
   25.0833  -23.0808  -13.4237 N   0  0  0  0  0  0  0  0  0  0  0  0
   24.4651  -19.4433  -16.0302 C   0  0  2  0  0  0  0  0  0  0  0  0
   23.0894  -18.9534  -16.2988 C   0  0  0  0  0  0  0  0  0  0  0  0
   22.7268  -19.3772  -17.7015 C   0  0  0  0  0  0  0  0  0  0  0  0
   23.5306  -18.7635  -18.7912 C   0  0  0  0  0  0  0  0  0  0  0  0
   22.8877  -19.0902  -20.1004 O   0  0  0  0  0  0  0  0  0  0  0  0
   22.5283  -18.1537  -20.8387 C   0  0  0  0  0  0  0  0  0  0  0  0
   22.2154  -19.5287  -15.2585 O   0  0  0  0  0  0  0  0  0  0  0  0
   22.4172  -20.7120  -14.8158 O   0  0  0  0  0  0  0  0  0  0  0  0
   22.6853  -20.3878  -20.5055 N   0  0  0  0  0  0  0  0  0  0  0  0
   21.1074  -18.8668  -14.6566 C   0  0  0  0  0  0  0  0  0  0  0  0
   20.2552  -19.5201  -13.6830 C   0  0  0  0  0  0  0  0  0  0  0  0
   19.3859  -20.5447  -14.2949 O   0  0  0  0  0  0  0  0  0  0  0  0
   19.5350  -20.7619  -15.5254 O   0  0  0  0  0  0  0  0  0  0  0  0
  2  3  2  0
  2  1  1  0
  4  2  1  0
  5  4  1  0
  6  5  1  0
  7  6  1  0
  8 10  1  0
  8  7  1  0
  8  9  1  6
 10 12  1  0
 11 10  2  0
 12 13  1  0
 13 14  1  6
 14 15  1  0
 16 17  2  0
 16 15  1  0
 18 13  1  0
 19 18  2  0
 20 16  1  0
 21 18  1  0
 22 21  1  0
 23 22  1  0
 24 23  2  0
 25 23  1  0
M  END
$$$$
