NNI.pdb
     RDKit          3D

 25 24  0  0  1  0  0  0  0  0999 V2000
   20.2327  -15.1264  -21.4470 N   0  0  0  0  0  0  0  0  0  0  0  0
   21.3913  -14.4709  -20.9707 C   0  0  0  0  0  0  0  0  0  0  0  0
   22.3927  -14.3852  -21.7090 O   0  0  0  0  0  0  0  0  0  0  0  0
   21.4253  -13.8938  -19.6222 C   0  0  0  0  0  0  0  0  0  0  0  0
   22.6919  -14.3693  -18.9196 C   0  0  2  0  0  0  0  0  0  0  0  0
   22.5081  -15.7451  -18.5321 N   0  0  0  0  0  0  0  0  0  0  0  0
   22.9521  -13.4745  -17.7907 C   0  0  0  0  0  0  0  0  0  0  0  0
   22.3576  -13.6449  -16.6956 O   0  0  0  0  0  0  0  0  0  0  0  0
   26.7708  -10.4318  -14.6555 N   0  0  0  0  0  0  0  0  0  0  0  0
   26.0350  -10.1503  -15.8116 C   0  0  0  0  0  0  0  0  0  0  0  0
   25.6841   -8.9507  -16.0036 O   0  0  0  0  0  0  0  0  0  0  0  0
   25.6205  -11.1221  -16.8447 C   0  0  0  0  0  0  0  0  0  0  0  0
   24.1793  -11.5491  -16.7244 C   0  0  2  0  0  0  0  0  0  0  0  0
   23.8657  -12.3884  -17.8597 N   0  0  0  0  0  0  0  0  0  0  0  0
   23.3311  -10.3228  -16.8140 C   0  0  0  0  0  0  0  0  0  0  0  0
   23.3125   -9.6647  -17.8687 O   0  0  0  0  0  0  0  0  0  0  0  0
   17.9209   -8.4028  -16.1107 C   0  0  0  0  0  0  0  0  0  0  0  0
   19.3446   -7.9316  -16.0246 C   0  0  0  0  0  0  0  0  0  0  0  0
   20.2837   -9.1028  -15.9314 C   0  0  2  0  0  0  0  0  0  0  0  0
   19.9080   -9.9710  -14.7676 C   0  0  0  0  0  0  0  0  0  0  0  0
   21.7369   -8.6813  -15.8861 C   0  0  2  0  0  0  0  0  0  0  0  0
   22.5354   -9.8726  -15.7305 N   0  0  0  0  0  0  0  0  0  0  0  0
   22.0224   -7.7485  -14.7864 C   0  0  0  0  0  0  0  0  0  0  0  0
   21.5830   -6.5740  -14.8552 O   0  0  0  0  0  0  0  0  0  0  0  0
   22.7552   -8.0695  -13.6529 O   0  0  0  0  0  0  0  0  0  0  0  0
  2  3  2  0
  2  1  1  0
  4  2  1  0
  5  4  1  0
  5  6  1  1
  7  5  1  0
  8  7  2  0
  9 10  1  0
 10 12  1  0
 11 10  2  0
 13 12  1  6
 13 14  1  0
 14  7  1  0
 15 22  1  0
 15 13  1  0
 16 15  2  0
 18 17  1  0
 19 21  1  0
 19 18  1  0
 19 20  1  1
 21 23  1  0
 21 22  1  1
 23 25  1  0
 24 23  2  0
M  END
$$$$
