NNI.pdb
     RDKit          3D

 25 24  0  0  1  0  0  0  0  0999 V2000
   15.6925  -15.0941  -17.2681 N   0  0  0  0  0  0  0  0  0  0  0  0
   16.7997  -15.6436  -16.5816 C   0  0  0  0  0  0  0  0  0  0  0  0
   16.7223  -16.8006  -16.1228 O   0  0  0  0  0  0  0  0  0  0  0  0
   18.0327  -14.8679  -16.4054 C   0  0  0  0  0  0  0  0  0  0  0  0
   17.8049  -13.4603  -16.9446 C   0  0  2  0  0  0  0  0  0  0  0  0
   17.6208  -13.5438  -18.3714 N   0  0  0  0  0  0  0  0  0  0  0  0
   18.9442  -12.6298  -16.5506 C   0  0  0  0  0  0  0  0  0  0  0  0
   19.2421  -12.4959  -15.3360 O   0  0  0  0  0  0  0  0  0  0  0  0
   23.1582   -9.2999  -16.8597 N   0  0  0  0  0  0  0  0  0  0  0  0
   22.8659   -9.9532  -18.0617 C   0  0  0  0  0  0  0  0  0  0  0  0
   23.6607   -9.7795  -19.0298 O   0  0  0  0  0  0  0  0  0  0  0  0
   21.7098  -10.8365  -18.3202 C   0  0  0  0  0  0  0  0  0  0  0  0
   20.8629  -11.0909  -17.0986 C   0  0  2  0  0  0  0  0  0  0  0  0
   19.7608  -11.9425  -17.4885 N   0  0  0  0  0  0  0  0  0  0  0  0
   20.2953   -9.7819  -16.6563 C   0  0  0  0  0  0  0  0  0  0  0  0
   19.5009   -9.1756  -17.3960 O   0  0  0  0  0  0  0  0  0  0  0  0
   17.2606   -6.7356  -13.8739 C   0  0  0  0  0  0  0  0  0  0  0  0
   18.6159   -6.8928  -13.2457 C   0  0  0  0  0  0  0  0  0  0  0  0
   19.2842   -8.1470  -13.7386 C   0  0  2  0  0  0  0  0  0  0  0  0
   20.1619   -8.7173  -12.6645 C   0  0  0  0  0  0  0  0  0  0  0  0
   20.0319   -7.9359  -15.0377 C   0  0  2  0  0  0  0  0  0  0  0  0
   20.6299   -9.1948  -15.4100 N   0  0  0  0  0  0  0  0  0  0  0  0
   21.0756   -6.9062  -14.9300 C   0  0  0  0  0  0  0  0  0  0  0  0
   20.7427   -5.6959  -14.9694 O   0  0  0  0  0  0  0  0  0  0  0  0
   22.4297   -7.1710  -14.7851 O   0  0  0  0  0  0  0  0  0  0  0  0
  2  3  2  0
  2  1  1  0
  4  2  1  0
  5  4  1  0
  5  6  1  6
  7  5  1  0
  8  7  2  0
  9 10  1  0
 10 12  1  0
 11 10  2  0
 13 12  1  6
 13 14  1  0
 14  7  1  0
 15 22  1  0
 15 13  1  0
 16 15  2  0
 18 17  1  0
 19 21  1  0
 19 18  1  0
 19 20  1  1
 21 23  1  0
 21 22  1  1
 23 25  1  0
 24 23  2  0
M  END
$$$$
