NNI.pdb
     RDKit          3D

 25 24  0  0  1  0  0  0  0  0999 V2000
   13.1596  -13.0066  -15.6147 N   0  0  0  0  0  0  0  0  0  0  0  0
   13.1697  -12.8807  -14.2065 C   0  0  0  0  0  0  0  0  0  0  0  0
   12.2074  -13.3199  -13.5461 O   0  0  0  0  0  0  0  0  0  0  0  0
   14.2970  -12.2407  -13.5192 C   0  0  0  0  0  0  0  0  0  0  0  0
   15.2726  -11.7156  -14.5665 C   0  0  2  0  0  0  0  0  0  0  0  0
   15.8908  -12.8426  -15.2180 N   0  0  0  0  0  0  0  0  0  0  0  0
   16.2284  -10.8310  -13.8982 C   0  0  0  0  0  0  0  0  0  0  0  0
   17.4622  -11.0675  -13.9593 O   0  0  0  0  0  0  0  0  0  0  0  0
   18.6458   -6.4735  -12.3043 N   0  0  0  0  0  0  0  0  0  0  0  0
   18.4634   -7.0656  -13.5586 C   0  0  0  0  0  0  0  0  0  0  0  0
   19.2052   -6.6721  -14.5042 O   0  0  0  0  0  0  0  0  0  0  0  0
   17.4813   -8.1166  -13.8970 C   0  0  0  0  0  0  0  0  0  0  0  0
   16.7707   -8.6846  -12.6943 C   0  0  2  0  0  0  0  0  0  0  0  0
   15.8335   -9.6832  -13.1596 N   0  0  0  0  0  0  0  0  0  0  0  0
   15.9869   -7.5804  -12.0638 C   0  0  0  0  0  0  0  0  0  0  0  0
   15.1496   -6.9578  -12.7399 O   0  0  0  0  0  0  0  0  0  0  0  0
   13.2827   -8.4323   -7.7397 C   0  0  0  0  0  0  0  0  0  0  0  0
   13.7407   -7.8651   -9.0530 C   0  0  0  0  0  0  0  0  0  0  0  0
   14.7480   -6.7699   -8.8326 C   0  0  2  0  0  0  0  0  0  0  0  0
   14.1628   -5.7027   -7.9563 C   0  0  0  0  0  0  0  0  0  0  0  0
   15.2932   -6.2112  -10.1295 C   0  0  2  0  0  0  0  0  0  0  0  0
   16.1613   -7.2083  -10.7069 N   0  0  0  0  0  0  0  0  0  0  0  0
   16.0387   -4.9587   -9.9381 C   0  0  0  0  0  0  0  0  0  0  0  0
   17.2478   -5.0154   -9.6034 O   0  0  0  0  0  0  0  0  0  0  0  0
   15.5007   -3.6904  -10.1013 O   0  0  0  0  0  0  0  0  0  0  0  0
  2  3  2  0
  2  1  1  0
  4  2  1  0
  5  4  1  0
  5  6  1  1
  7  5  1  0
  8  7  2  0
  9 10  1  0
 10 12  1  0
 11 10  2  0
 13 12  1  6
 13 14  1  0
 14  7  1  0
 15 22  1  0
 15 13  1  0
 16 15  2  0
 18 17  1  0
 19 21  1  0
 19 18  1  0
 19 20  1  6
 21 23  1  0
 21 22  1  1
 23 25  1  0
 24 23  2  0
M  END
$$$$
