NNI.pdb
     RDKit          3D

 25 24  0  0  1  0  0  0  0  0999 V2000
   15.7790  -22.0936  -15.6583 N   0  0  0  0  0  0  0  0  0  0  0  0
   17.0069  -22.1250  -14.9582 C   0  0  0  0  0  0  0  0  0  0  0  0
   17.0164  -22.4487  -13.7539 O   0  0  0  0  0  0  0  0  0  0  0  0
   18.2636  -21.7815  -15.6331 C   0  0  0  0  0  0  0  0  0  0  0  0
   19.2225  -21.1887  -14.6068 C   0  0  2  0  0  0  0  0  0  0  0  0
   18.7272  -19.8930  -14.2164 N   0  0  0  0  0  0  0  0  0  0  0  0
   20.5599  -21.1479  -15.2006 C   0  0  0  0  0  0  0  0  0  0  0  0
   21.1055  -22.2049  -15.6091 O   0  0  0  0  0  0  0  0  0  0  0  0
   20.6583  -18.4434  -18.7301 N   0  0  0  0  0  0  0  0  0  0  0  0
   21.7338  -19.1760  -18.2166 C   0  0  0  0  0  0  0  0  0  0  0  0
   22.0426  -20.2517  -18.8053 O   0  0  0  0  0  0  0  0  0  0  0  0
   22.5566  -18.8182  -17.0425 C   0  0  0  0  0  0  0  0  0  0  0  0
   22.5999  -19.8955  -15.9882 C   0  0  2  0  0  0  0  0  0  0  0  0
   21.3039  -19.9464  -15.3480 N   0  0  0  0  0  0  0  0  0  0  0  0
   23.6026  -19.4869  -14.9592 C   0  0  0  0  0  0  0  0  0  0  0  0
   23.3809  -18.4927  -14.2463 O   0  0  0  0  0  0  0  0  0  0  0  0
   27.2941  -21.5697  -10.8506 C   0  0  0  0  0  0  0  0  0  0  0  0
   26.7230  -20.3641  -11.5410 C   0  0  0  0  0  0  0  0  0  0  0  0
   25.8338  -20.7801  -12.6806 C   0  0  2  0  0  0  0  0  0  0  0  0
   26.2689  -22.1137  -13.2111 C   0  0  0  0  0  0  0  0  0  0  0  0
   25.7517  -19.7300  -13.7679 C   0  0  2  0  0  0  0  0  0  0  0  0
   24.8135  -20.1966  -14.7594 N   0  0  0  0  0  0  0  0  0  0  0  0
   27.0517  -19.4686  -14.4026 C   0  0  0  0  0  0  0  0  0  0  0  0
   27.3627  -20.1075  -15.4381 O   0  0  0  0  0  0  0  0  0  0  0  0
   27.9834  -18.5515  -13.9383 O   0  0  0  0  0  0  0  0  0  0  0  0
  2  3  2  0
  2  1  1  0
  4  2  1  0
  5  4  1  0
  5  6  1  6
  7  5  1  0
  8  7  2  0
  9 10  1  0
 10 12  1  0
 11 10  2  0
 13 12  1  6
 13 14  1  0
 14  7  1  0
 15 22  1  0
 15 13  1  0
 16 15  2  0
 18 17  1  0
 19 21  1  0
 19 18  1  0
 19 20  1  6
 21 23  1  0
 21 22  1  6
 23 25  1  0
 24 23  2  0
M  END
$$$$
