NNI.pdb
     RDKit          3D

 25 24  0  0  1  0  0  0  0  0999 V2000
   31.3766  -21.6663  -19.7347 N   0  0  0  0  0  0  0  0  0  0  0  0
   30.3062  -22.2334  -19.0054 C   0  0  0  0  0  0  0  0  0  0  0  0
   29.6921  -23.2095  -19.4800 O   0  0  0  0  0  0  0  0  0  0  0  0
   29.9140  -21.6859  -17.7019 C   0  0  0  0  0  0  0  0  0  0  0  0
   28.5933  -22.3219  -17.2830 C   0  0  2  0  0  0  0  0  0  0  0  0
   27.9298  -22.8130  -18.4642 N   0  0  0  0  0  0  0  0  0  0  0  0
   27.8160  -21.3210  -16.5501 C   0  0  0  0  0  0  0  0  0  0  0  0
   28.3479  -20.6588  -15.6225 O   0  0  0  0  0  0  0  0  0  0  0  0
   22.2618  -18.6120  -16.4186 N   0  0  0  0  0  0  0  0  0  0  0  0
   23.6562  -18.6285  -16.3063 C   0  0  0  0  0  0  0  0  0  0  0  0
   24.1927  -17.7619  -15.5578 O   0  0  0  0  0  0  0  0  0  0  0  0
   24.5784  -19.5658  -16.9805 C   0  0  0  0  0  0  0  0  0  0  0  0
   25.6696  -20.0874  -16.0797 C   0  0  2  0  0  0  0  0  0  0  0  0
   26.4514  -21.0435  -16.8324 N   0  0  0  0  0  0  0  0  0  0  0  0
   25.0191  -20.8168  -14.9501 C   0  0  0  0  0  0  0  0  0  0  0  0
   24.4476  -21.8996  -15.1662 O   0  0  0  0  0  0  0  0  0  0  0  0
   27.2262  -21.0125  -10.0320 C   0  0  0  0  0  0  0  0  0  0  0  0
   26.5115  -21.3500  -11.3093 C   0  0  0  0  0  0  0  0  0  0  0  0
   25.1079  -20.8096  -11.2877 C   0  0  2  0  0  0  0  0  0  0  0  0
   24.3707  -21.3426  -10.0954 C   0  0  0  0  0  0  0  0  0  0  0  0
   24.3658  -21.0658  -12.5819 C   0  0  2  0  0  0  0  0  0  0  0  0
   25.0271  -20.3177  -13.6231 N   0  0  0  0  0  0  0  0  0  0  0  0
   22.9516  -20.6705  -12.5121 C   0  0  0  0  0  0  0  0  0  0  0  0
   22.6557  -19.4525  -12.5894 O   0  0  0  0  0  0  0  0  0  0  0  0
   21.8938  -21.5560  -12.3642 O   0  0  0  0  0  0  0  0  0  0  0  0
  2  3  2  0
  2  1  1  0
  4  2  1  0
  5  4  1  0
  5  6  1  6
  7  5  1  0
  8  7  2  0
  9 10  1  0
 10 12  1  0
 11 10  2  0
 13 12  1  6
 13 14  1  0
 14  7  1  0
 15 22  1  0
 15 13  1  0
 16 15  2  0
 18 17  1  0
 19 21  1  0
 19 18  1  0
 19 20  1  1
 21 23  1  0
 21 22  1  6
 23 25  1  0
 24 23  2  0
M  END
$$$$
