NNI.pdb
     RDKit          3D

 25 24  0  0  1  0  0  0  0  0999 V2000
   27.4140  -15.8173  -19.0797 N   0  0  0  0  0  0  0  0  0  0  0  0
   27.6379  -17.2121  -19.0216 C   0  0  0  0  0  0  0  0  0  0  0  0
   28.6310  -17.6968  -19.5997 O   0  0  0  0  0  0  0  0  0  0  0  0
   26.7165  -18.0896  -18.2910 C   0  0  0  0  0  0  0  0  0  0  0  0
   27.4293  -18.6238  -17.0538 C   0  0  2  0  0  0  0  0  0  0  0  0
   28.1861  -19.7901  -17.4326 N   0  0  0  0  0  0  0  0  0  0  0  0
   26.4223  -18.8900  -16.0252 C   0  0  0  0  0  0  0  0  0  0  0  0
   25.5990  -17.9976  -15.6969 O   0  0  0  0  0  0  0  0  0  0  0  0
   22.8956  -23.3046  -13.8371 N   0  0  0  0  0  0  0  0  0  0  0  0
   23.4013  -22.0062  -13.9613 C   0  0  0  0  0  0  0  0  0  0  0  0
   22.9250  -21.1178  -13.1978 O   0  0  0  0  0  0  0  0  0  0  0  0
   24.4478  -21.5599  -14.9043 C   0  0  0  0  0  0  0  0  0  0  0  0
   25.2846  -20.4210  -14.3784 C   0  0  2  0  0  0  0  0  0  0  0  0
   26.3153  -20.1369  -15.3524 N   0  0  0  0  0  0  0  0  0  0  0  0
   25.9539  -20.8865  -13.1267 C   0  0  0  0  0  0  0  0  0  0  0  0
   26.7839  -21.8106  -13.1813 O   0  0  0  0  0  0  0  0  0  0  0  0
   27.8309  -19.2719   -7.6856 C   0  0  0  0  0  0  0  0  0  0  0  0
   27.5565  -20.4133   -8.6228 C   0  0  0  0  0  0  0  0  0  0  0  0
   27.0309  -19.9031   -9.9366 C   0  0  2  0  0  0  0  0  0  0  0  0
   26.2875  -18.6174   -9.7279 C   0  0  0  0  0  0  0  0  0  0  0  0
   26.1992  -20.9334  -10.6702 C   0  0  2  0  0  0  0  0  0  0  0  0
   25.6774  -20.3094  -11.8616 N   0  0  0  0  0  0  0  0  0  0  0  0
   25.0889  -21.4491   -9.8563 C   0  0  0  0  0  0  0  0  0  0  0  0
   23.9359  -20.9851  -10.0362 O   0  0  0  0  0  0  0  0  0  0  0  0
   25.2163  -22.4299   -8.8833 O   0  0  0  0  0  0  0  0  0  0  0  0
  2  3  2  0
  2  1  1  0
  4  2  1  0
  5  4  1  0
  5  6  1  6
  7  5  1  0
  8  7  2  0
  9 10  1  0
 10 12  1  0
 11 10  2  0
 13 12  1  6
 13 14  1  0
 14  7  1  0
 15 22  1  0
 15 13  1  0
 16 15  2  0
 18 17  1  0
 19 21  1  0
 19 18  1  0
 19 20  1  1
 21 23  1  0
 21 22  1  6
 23 25  1  0
 24 23  2  0
M  END
$$$$
