NNI.pdb
     RDKit          3D

 25 24  0  0  1  0  0  0  0  0999 V2000
   29.3754  -20.2699  -17.1303 N   0  0  0  0  0  0  0  0  0  0  0  0
   28.6397  -19.0629  -17.1619 C   0  0  0  0  0  0  0  0  0  0  0  0
   28.5830  -18.4086  -18.2221 O   0  0  0  0  0  0  0  0  0  0  0  0
   27.9463  -18.5760  -15.9641 C   0  0  0  0  0  0  0  0  0  0  0  0
   28.2619  -19.5122  -14.8031 C   0  0  2  0  0  0  0  0  0  0  0  0
   28.3403  -20.8580  -15.3122 N   0  0  0  0  0  0  0  0  0  0  0  0
   27.2310  -19.3345  -13.7791 C   0  0  0  0  0  0  0  0  0  0  0  0
   26.9880  -18.1911  -13.3148 O   0  0  0  0  0  0  0  0  0  0  0  0
   22.9739  -20.1762  -10.6723 N   0  0  0  0  0  0  0  0  0  0  0  0
   23.0353  -20.8999  -11.8680 C   0  0  0  0  0  0  0  0  0  0  0  0
   22.0126  -21.5642  -12.2025 O   0  0  0  0  0  0  0  0  0  0  0  0
   24.1863  -20.9691  -12.7921 C   0  0  0  0  0  0  0  0  0  0  0  0
   25.4022  -20.2292  -12.2940 C   0  0  2  0  0  0  0  0  0  0  0  0
   26.4630  -20.4114  -13.2602 N   0  0  0  0  0  0  0  0  0  0  0  0
   25.8336  -20.8691  -11.0151 C   0  0  0  0  0  0  0  0  0  0  0  0
   26.4063  -21.9723  -11.0428 O   0  0  0  0  0  0  0  0  0  0  0  0
   28.2762  -19.7728   -5.7214 C   0  0  0  0  0  0  0  0  0  0  0  0
   27.3942  -20.7155   -6.4893 C   0  0  0  0  0  0  0  0  0  0  0  0
   26.8628  -20.0498   -7.7291 C   0  0  2  0  0  0  0  0  0  0  0  0
   26.1648  -18.7726   -7.3672 C   0  0  0  0  0  0  0  0  0  0  0  0
   25.9858  -20.9686   -8.5525 C   0  0  2  0  0  0  0  0  0  0  0  0
   25.6136  -20.2611   -9.7533 N   0  0  0  0  0  0  0  0  0  0  0  0
   24.7754  -21.3915   -7.8334 C   0  0  0  0  0  0  0  0  0  0  0  0
   24.8938  -22.1298   -6.8244 O   0  0  0  0  0  0  0  0  0  0  0  0
   23.4834  -21.0317   -8.1887 O   0  0  0  0  0  0  0  0  0  0  0  0
  2  3  2  0
  2  1  1  0
  4  2  1  0
  5  4  1  0
  5  6  1  6
  7  5  1  0
  8  7  2  0
  9 10  1  0
 10 12  1  0
 11 10  2  0
 13 12  1  6
 13 14  1  0
 14  7  1  0
 15 22  1  0
 15 13  1  0
 16 15  2  0
 18 17  1  0
 19 21  1  0
 19 18  1  0
 19 20  1  1
 21 23  1  0
 21 22  1  6
 23 25  1  0
 24 23  2  0
M  END
$$$$
