NNI.pdb
     RDKit          3D

 25 24  0  0  1  0  0  0  0  0999 V2000
   17.8923  -15.7185  -17.7528 N   0  0  0  0  0  0  0  0  0  0  0  0
   18.0790  -14.4524  -17.1519 C   0  0  0  0  0  0  0  0  0  0  0  0
   18.0632  -14.3569  -15.9086 O   0  0  0  0  0  0  0  0  0  0  0  0
   18.2899  -13.2559  -17.9746 C   0  0  0  0  0  0  0  0  0  0  0  0
   19.5203  -12.5190  -17.4576 C   0  0  2  0  0  0  0  0  0  0  0  0
   20.1044  -13.2979  -16.3953 N   0  0  0  0  0  0  0  0  0  0  0  0
   19.1080  -11.1780  -17.0397 C   0  0  0  0  0  0  0  0  0  0  0  0
   18.6614  -10.3594  -17.8837 O   0  0  0  0  0  0  0  0  0  0  0  0
   17.9064   -6.9390  -13.9907 N   0  0  0  0  0  0  0  0  0  0  0  0
   17.5088   -8.1973  -13.5260 C   0  0  0  0  0  0  0  0  0  0  0  0
   16.7370   -8.2337  -12.5249 O   0  0  0  0  0  0  0  0  0  0  0  0
   17.9024   -9.5046  -14.0914 C   0  0  0  0  0  0  0  0  0  0  0  0
   18.8160   -9.3923  -15.2858 C   0  0  2  0  0  0  0  0  0  0  0  0
   19.1849  -10.7300  -15.6935 N   0  0  0  0  0  0  0  0  0  0  0  0
   20.0583   -8.6894  -14.8454 C   0  0  0  0  0  0  0  0  0  0  0  0
   20.7957   -9.2195  -13.9962 O   0  0  0  0  0  0  0  0  0  0  0  0
   24.7751   -6.3180  -17.2460 C   0  0  0  0  0  0  0  0  0  0  0  0
   23.9629   -6.3208  -15.9824 C   0  0  0  0  0  0  0  0  0  0  0  0
   22.5946   -6.8918  -16.2355 C   0  0  2  0  0  0  0  0  0  0  0  0
   21.9562   -6.1978  -17.4018 C   0  0  0  0  0  0  0  0  0  0  0  0
   21.7163   -6.8664  -15.0028 C   0  0  2  0  0  0  0  0  0  0  0  0
   20.4362   -7.4251  -15.3638 N   0  0  0  0  0  0  0  0  0  0  0  0
   21.5298   -5.5100  -14.4677 C   0  0  0  0  0  0  0  0  0  0  0  0
   22.4671   -4.9749  -13.8257 O   0  0  0  0  0  0  0  0  0  0  0  0
   20.3745   -4.7568  -14.6189 O   0  0  0  0  0  0  0  0  0  0  0  0
  2  3  2  0
  2  1  1  0
  4  2  1  0
  5  4  1  0
  5  6  1  1
  7  5  1  0
  8  7  2  0
  9 10  1  0
 10 12  1  0
 11 10  2  0
 13 12  1  1
 13 14  1  0
 14  7  1  0
 15 22  1  0
 15 13  1  0
 16 15  2  0
 18 17  1  0
 19 21  1  0
 19 18  1  0
 19 20  1  6
 21 23  1  0
 21 22  1  6
 23 25  1  0
 24 23  2  0
M  END
$$$$
