NNI.pdb
     RDKit          3D

 25 24  0  0  1  0  0  0  0  0999 V2000
   29.5705  -17.5338  -16.6623 N   0  0  0  0  0  0  0  0  0  0  0  0
   28.2940  -18.1408  -16.6984 C   0  0  0  0  0  0  0  0  0  0  0  0
   27.9976  -18.8854  -17.6538 O   0  0  0  0  0  0  0  0  0  0  0  0
   27.3203  -17.9031  -15.6269 C   0  0  0  0  0  0  0  0  0  0  0  0
   26.6519  -19.2267  -15.2726 C   0  0  2  0  0  0  0  0  0  0  0  0
   25.8095  -19.6201  -16.3736 N   0  0  0  0  0  0  0  0  0  0  0  0
   25.9240  -19.0491  -14.0150 C   0  0  0  0  0  0  0  0  0  0  0  0
   25.3664  -17.9524  -13.7538 O   0  0  0  0  0  0  0  0  0  0  0  0
   22.9263  -19.8877   -9.7844 N   0  0  0  0  0  0  0  0  0  0  0  0
   22.7590  -20.6320  -10.9571 C   0  0  0  0  0  0  0  0  0  0  0  0
   21.6980  -21.3104  -11.0725 O   0  0  0  0  0  0  0  0  0  0  0  0
   23.7057  -20.7082  -12.0891 C   0  0  0  0  0  0  0  0  0  0  0  0
   24.9850  -19.9450  -11.8549 C   0  0  2  0  0  0  0  0  0  0  0  0
   25.8058  -20.0747  -13.0387 N   0  0  0  0  0  0  0  0  0  0  0  0
   25.7071  -20.6009  -10.7237 C   0  0  0  0  0  0  0  0  0  0  0  0
   26.0128  -21.8033  -10.8049 O   0  0  0  0  0  0  0  0  0  0  0  0
   29.1219  -19.4114   -5.8024 C   0  0  0  0  0  0  0  0  0  0  0  0
   28.2170  -20.3747   -6.5162 C   0  0  0  0  0  0  0  0  0  0  0  0
   27.5592  -19.7080   -7.6932 C   0  0  2  0  0  0  0  0  0  0  0  0
   26.9010  -18.4323   -7.2590 C   0  0  0  0  0  0  0  0  0  0  0  0
   26.6026  -20.6269   -8.4227 C   0  0  2  0  0  0  0  0  0  0  0  0
   26.0632  -19.8983   -9.5448 N   0  0  0  0  0  0  0  0  0  0  0  0
   25.5047  -21.0977   -7.5660 C   0  0  0  0  0  0  0  0  0  0  0  0
   24.4386  -20.4353   -7.5240 O   0  0  0  0  0  0  0  0  0  0  0  0
   25.5536  -22.2416   -6.7824 O   0  0  0  0  0  0  0  0  0  0  0  0
  2  3  2  0
  2  1  1  0
  4  2  1  0
  5  4  1  0
  5  6  1  6
  7  5  1  0
  8  7  2  0
  9 10  1  0
 10 12  1  0
 11 10  2  0
 13 12  1  6
 13 14  1  0
 14  7  1  0
 15 22  1  0
 15 13  1  0
 16 15  2  0
 18 17  1  0
 19 21  1  0
 19 18  1  0
 19 20  1  1
 21 23  1  0
 21 22  1  6
 23 25  1  0
 24 23  2  0
M  END
$$$$
