NNI.pdb
     RDKit          3D

 25 24  0  0  1  0  0  0  0  0999 V2000
   13.9865  -11.9471   -9.4516 N   0  0  0  0  0  0  0  0  0  0  0  0
   14.7171  -11.8884  -10.6607 C   0  0  0  0  0  0  0  0  0  0  0  0
   14.9617  -12.9432  -11.2794 O   0  0  0  0  0  0  0  0  0  0  0  0
   15.1876  -10.6038  -11.1907 C   0  0  0  0  0  0  0  0  0  0  0  0
   14.8380   -9.5063  -10.1919 C   0  0  2  0  0  0  0  0  0  0  0  0
   13.4030   -9.3953  -10.1216 N   0  0  0  0  0  0  0  0  0  0  0  0
   15.4990   -8.2720  -10.6189 C   0  0  0  0  0  0  0  0  0  0  0  0
   15.3106   -7.8189  -11.7769 O   0  0  0  0  0  0  0  0  0  0  0  0
   14.3730   -4.9062   -9.5231 N   0  0  0  0  0  0  0  0  0  0  0  0
   15.4890   -4.7691   -8.6906 C   0  0  0  0  0  0  0  0  0  0  0  0
   15.3504   -4.0872   -7.6347 O   0  0  0  0  0  0  0  0  0  0  0  0
   16.8298   -5.3462   -8.9206 C   0  0  0  0  0  0  0  0  0  0  0  0
   16.9012   -6.2342  -10.1373 C   0  0  2  0  0  0  0  0  0  0  0  0
   16.3701   -7.5302   -9.7763 N   0  0  0  0  0  0  0  0  0  0  0  0
   18.3421   -6.4121  -10.4884 C   0  0  0  0  0  0  0  0  0  0  0  0
   19.1159   -6.9289   -9.6639 O   0  0  0  0  0  0  0  0  0  0  0  0
   22.1849   -8.9978  -13.2328 C   0  0  0  0  0  0  0  0  0  0  0  0
   21.7515   -7.5917  -13.5349 C   0  0  0  0  0  0  0  0  0  0  0  0
   20.3478   -7.3558  -13.0485 C   0  0  2  0  0  0  0  0  0  0  0  0
   19.4320   -7.1270  -14.2140 C   0  0  0  0  0  0  0  0  0  0  0  0
   20.2654   -6.2412  -12.0276 C   0  0  2  0  0  0  0  0  0  0  0  0
   18.8705   -6.0101  -11.7411 N   0  0  0  0  0  0  0  0  0  0  0  0
   20.8859   -4.9944  -12.4983 C   0  0  0  0  0  0  0  0  0  0  0  0
   22.1386   -4.9113  -12.5269 O   0  0  0  0  0  0  0  0  0  0  0  0
   20.1818   -3.8770  -12.9232 O   0  0  0  0  0  0  0  0  0  0  0  0
  2  3  2  0
  2  1  1  0
  4  2  1  0
  5  4  1  0
  5  6  1  6
  7  5  1  0
  8  7  2  0
  9 10  1  0
 10 12  1  0
 11 10  2  0
 13 12  1  1
 13 14  1  0
 14  7  1  0
 15 22  1  0
 15 13  1  0
 16 15  2  0
 18 17  1  0
 19 21  1  0
 19 18  1  0
 19 20  1  6
 21 23  1  0
 21 22  1  6
 23 25  1  0
 24 23  2  0
M  END
$$$$
