YLE.pdb
     RDKit          3D

 30 30  0  0  1  0  0  0  0  0999 V2000
    8.6487  -22.3832   12.1352 O   0  0  0  0  0  0  0  0  0  0  0  0
    8.9205  -21.6290   13.2840 C   0  0  0  0  0  0  0  0  0  0  0  0
   10.1912  -21.5816   13.8030 C   0  0  0  0  0  0  0  0  0  0  0  0
   10.4729  -20.8252   14.9564 C   0  0  0  0  0  0  0  0  0  0  0  0
    9.4916  -20.1092   15.6013 C   0  0  0  0  0  0  0  0  0  0  0  0
    9.7408  -19.2878   16.8164 C   0  0  0  0  0  0  0  0  0  0  0  0
   10.1797  -17.8791   16.5014 C   0  0  2  0  0  0  0  0  0  0  0  0
   11.3789  -17.8343   15.7160 N   0  0  0  0  0  0  0  0  0  0  0  0
   10.3352  -17.1359   17.8237 C   0  0  0  0  0  0  0  0  0  0  0  0
   11.3388  -17.3879   18.5152 O   0  0  0  0  0  0  0  0  0  0  0  0
    8.2050  -20.1778   15.0474 C   0  0  0  0  0  0  0  0  0  0  0  0
    7.9263  -20.9187   13.9188 C   0  0  0  0  0  0  0  0  0  0  0  0
    8.0600  -13.9190   21.7434 C   0  0  0  0  0  0  0  0  0  0  0  0
    8.1787  -13.2892   20.4026 C   0  0  2  0  0  0  0  0  0  0  0  0
    7.1322  -12.2039   20.2055 C   0  0  0  0  0  0  0  0  0  0  0  0
    8.2922  -14.2031   19.2363 C   0  0  0  0  0  0  0  0  0  0  0  0
    9.2145  -15.3479   19.2954 C   0  0  2  0  0  0  0  0  0  0  0  0
    9.3525  -16.2060   18.2044 N   0  0  0  0  0  0  0  0  0  0  0  0
    9.2778  -15.8999   20.6747 C   0  0  0  0  0  0  0  0  0  0  0  0
    8.3428  -16.5240   21.2089 O   0  0  0  0  0  0  0  0  0  0  0  0
   10.4552  -15.7344   21.4761 N   0  0  0  0  0  0  0  0  0  0  0  0
   10.6332  -16.4147   22.7443 C   0  0  1  0  0  0  0  0  0  0  0  0
   12.0391  -16.6431   23.1456 C   0  0  0  0  0  0  0  0  0  0  0  0
   13.0661  -15.6801   22.6404 C   0  0  0  0  0  0  0  0  0  0  0  0
   14.4327  -16.0414   23.0489 C   0  0  0  0  0  0  0  0  0  0  0  0
   14.7232  -17.0395   23.7500 O   0  0  0  0  0  0  0  0  0  0  0  0
    9.8785  -15.7143   23.7955 C   0  0  0  0  0  0  0  0  0  0  0  0
    9.7629  -16.2901   25.0727 O   0  0  0  0  0  0  0  0  0  0  0  0
   15.5157  -15.2410   22.6456 O   0  0  0  0  0  0  0  0  0  0  0  0
    9.3263  -14.6070   23.6082 O   0  0  0  0  0  0  0  0  0  0  0  0
  2  1  1  0
  3  2  2  0
  4  3  1  0
  5  4  2  0
  5 11  1  0
  6  5  1  0
  7  8  1  1
  7  6  1  0
  9 10  2  0
  9  7  1  0
 11 12  2  0
 12  2  1  0
 14 16  1  0
 14 13  1  1
 15 14  1  0
 17 16  1  6
 17 19  1  0
 17 18  1  0
 18  9  1  0
 19 21  1  0
 20 19  2  0
 21 22  1  0
 22 27  1  0
 23 24  1  0
 22 23  1  1
 24 25  1  0
 25 26  2  0
 27 30  2  0
 27 28  1  0
 29 25  1  0
M  END
$$$$
