YLE.pdb
     RDKit          3D

 30 30  0  0  1  0  0  0  0  0999 V2000
   11.4099  -15.4168   31.0725 O   0  0  0  0  0  0  0  0  0  0  0  0
   10.6525  -15.3908   29.8943 C   0  0  0  0  0  0  0  0  0  0  0  0
   10.3255  -16.5585   29.2494 C   0  0  0  0  0  0  0  0  0  0  0  0
    9.5637  -16.5411   28.0655 C   0  0  0  0  0  0  0  0  0  0  0  0
    9.1208  -15.3610   27.5154 C   0  0  0  0  0  0  0  0  0  0  0  0
    8.3057  -15.2910   26.2729 C   0  0  0  0  0  0  0  0  0  0  0  0
    9.0688  -15.7013   25.0379 C   0  0  2  0  0  0  0  0  0  0  0  0
   10.3144  -15.0043   24.8983 N   0  0  0  0  0  0  0  0  0  0  0  0
    8.1556  -15.4848   23.8361 C   0  0  0  0  0  0  0  0  0  0  0  0
    7.1691  -16.2341   23.7158 O   0  0  0  0  0  0  0  0  0  0  0  0
    9.4710  -14.1864   28.1971 C   0  0  0  0  0  0  0  0  0  0  0  0
   10.2177  -14.2006   29.3557 C   0  0  0  0  0  0  0  0  0  0  0  0
    7.9443  -11.6187   18.9112 C   0  0  0  0  0  0  0  0  0  0  0  0
    7.8400  -12.9397   19.5839 C   0  0  2  0  0  0  0  0  0  0  0  0
    6.3899  -13.3721   19.7341 C   0  0  0  0  0  0  0  0  0  0  0  0
    8.6322  -13.1275   20.8270 C   0  0  0  0  0  0  0  0  0  0  0  0
    8.5816  -14.4163   21.5348 C   0  0  2  0  0  0  0  0  0  0  0  0
    8.4587  -14.4597   22.9236 N   0  0  0  0  0  0  0  0  0  0  0  0
    9.4212  -15.4289   20.8414 C   0  0  0  0  0  0  0  0  0  0  0  0
    9.0547  -16.0455   19.8241 O   0  0  0  0  0  0  0  0  0  0  0  0
   10.7315  -15.7502   21.3270 N   0  0  0  0  0  0  0  0  0  0  0  0
   11.5840  -16.7251   20.6746 C   0  0  1  0  0  0  0  0  0  0  0  0
   12.7513  -16.1637   19.9591 C   0  0  0  0  0  0  0  0  0  0  0  0
   12.4846  -15.1494   18.8927 C   0  0  0  0  0  0  0  0  0  0  0  0
   13.7155  -14.6695   18.2451 C   0  0  0  0  0  0  0  0  0  0  0  0
   14.7089  -14.2133   18.8591 O   0  0  0  0  0  0  0  0  0  0  0  0
   11.9885  -17.7587   21.6406 C   0  0  0  0  0  0  0  0  0  0  0  0
   12.7819  -18.8385   21.2156 O   0  0  0  0  0  0  0  0  0  0  0  0
   13.8277  -14.7093   16.8443 O   0  0  0  0  0  0  0  0  0  0  0  0
   11.6590  -17.7228   22.8473 O   0  0  0  0  0  0  0  0  0  0  0  0
  2  1  1  0
  3  2  2  0
  4  3  1  0
  5  4  2  0
  5 11  1  0
  6  5  1  0
  7  8  1  6
  7  6  1  0
  9 10  2  0
  9  7  1  0
 11 12  2  0
 12  2  1  0
 14 16  1  0
 14 13  1  1
 15 14  1  0
 17 16  1  1
 17 19  1  0
 17 18  1  0
 18  9  1  0
 19 21  1  0
 20 19  2  0
 21 22  1  0
 22 27  1  0
 23 24  1  0
 22 23  1  1
 24 25  1  0
 25 26  2  0
 27 30  2  0
 27 28  1  0
 29 25  1  0
M  END
$$$$
