YLE.pdb
     RDKit          3D

 30 30  0  0  1  0  0  0  0  0999 V2000
   10.1183  -12.4960   28.5286 O   0  0  0  0  0  0  0  0  0  0  0  0
    9.6106  -13.6734   27.9643 C   0  0  0  0  0  0  0  0  0  0  0  0
    8.4483  -13.6518   27.2329 C   0  0  0  0  0  0  0  0  0  0  0  0
    7.9321  -14.8304   26.6616 C   0  0  0  0  0  0  0  0  0  0  0  0
    8.5698  -16.0394   26.8131 C   0  0  0  0  0  0  0  0  0  0  0  0
    8.0701  -17.3095   26.2213 C   0  0  0  0  0  0  0  0  0  0  0  0
    6.8368  -17.1244   25.3722 C   0  0  2  0  0  0  0  0  0  0  0  0
    5.9192  -18.2213   25.4802 N   0  0  0  0  0  0  0  0  0  0  0  0
    7.2936  -16.9016   23.9346 C   0  0  0  0  0  0  0  0  0  0  0  0
    7.6320  -17.9001   23.2731 O   0  0  0  0  0  0  0  0  0  0  0  0
    9.7537  -16.0287   27.5649 C   0  0  0  0  0  0  0  0  0  0  0  0
   10.2607  -14.8763   28.1264 C   0  0  0  0  0  0  0  0  0  0  0  0
    7.2178  -13.9580   19.4236 C   0  0  0  0  0  0  0  0  0  0  0  0
    7.6838  -13.0933   20.5388 C   0  0  2  0  0  0  0  0  0  0  0  0
    9.0874  -12.5673   20.2828 C   0  0  0  0  0  0  0  0  0  0  0  0
    7.5039  -13.6165   21.9179 C   0  0  0  0  0  0  0  0  0  0  0  0
    7.6408  -15.0590   22.1730 C   0  0  2  0  0  0  0  0  0  0  0  0
    7.3128  -15.5944   23.4185 N   0  0  0  0  0  0  0  0  0  0  0  0
    8.7904  -15.6192   21.4141 C   0  0  0  0  0  0  0  0  0  0  0  0
    8.8363  -15.6658   20.1712 O   0  0  0  0  0  0  0  0  0  0  0  0
    9.9337  -16.1461   22.1005 N   0  0  0  0  0  0  0  0  0  0  0  0
   11.0721  -16.7051   21.3974 C   0  0  1  0  0  0  0  0  0  0  0  0
   11.6914  -15.8143   20.3911 C   0  0  0  0  0  0  0  0  0  0  0  0
   12.9105  -15.0514   20.8020 C   0  0  0  0  0  0  0  0  0  0  0  0
   13.6863  -14.5591   19.6527 C   0  0  0  0  0  0  0  0  0  0  0  0
   13.4438  -14.8478   18.4569 O   0  0  0  0  0  0  0  0  0  0  0  0
   12.0639  -17.1967   22.3668 C   0  0  0  0  0  0  0  0  0  0  0  0
   13.1604  -17.9542   21.9198 O   0  0  0  0  0  0  0  0  0  0  0  0
   14.7808  -13.7029   19.8654 O   0  0  0  0  0  0  0  0  0  0  0  0
   11.9819  -16.9666   23.5942 O   0  0  0  0  0  0  0  0  0  0  0  0
  2  1  1  0
  3  2  2  0
  4  3  1  0
  5  4  2  0
  5 11  1  0
  6  5  1  0
  7  8  1  6
  7  6  1  0
  9 10  2  0
  9  7  1  0
 11 12  2  0
 12  2  1  0
 14 16  1  0
 14 13  1  6
 15 14  1  0
 17 16  1  1
 17 19  1  0
 17 18  1  0
 18  9  1  0
 19 21  1  0
 20 19  2  0
 21 22  1  0
 22 27  1  0
 23 24  1  0
 22 23  1  1
 24 25  1  0
 25 26  2  0
 27 30  2  0
 27 28  1  0
 29 25  1  0
M  END
$$$$
