YLE.pdb
     RDKit          3D

 30 30  0  0  1  0  0  0  0  0999 V2000
    6.1170  -18.7684   16.6180 O   0  0  0  0  0  0  0  0  0  0  0  0
    6.6785  -18.3557   17.8334 C   0  0  0  0  0  0  0  0  0  0  0  0
    7.9902  -17.9533   17.8949 C   0  0  0  0  0  0  0  0  0  0  0  0
    8.5616  -17.5361   19.1120 C   0  0  0  0  0  0  0  0  0  0  0  0
    7.8311  -17.5154   20.2770 C   0  0  0  0  0  0  0  0  0  0  0  0
    8.3862  -17.0741   21.5848 C   0  0  0  0  0  0  0  0  0  0  0  0
    8.5775  -15.5803   21.6753 C   0  0  2  0  0  0  0  0  0  0  0  0
    9.4418  -15.0687   20.6516 N   0  0  0  0  0  0  0  0  0  0  0  0
    9.0984  -15.2641   23.0730 C   0  0  0  0  0  0  0  0  0  0  0  0
   10.3268  -15.3305   23.2620 O   0  0  0  0  0  0  0  0  0  0  0  0
    6.4953  -17.9319   20.1816 C   0  0  0  0  0  0  0  0  0  0  0  0
    5.9337  -18.3420   18.9913 C   0  0  0  0  0  0  0  0  0  0  0  0
    8.0157  -11.7244   25.9147 C   0  0  0  0  0  0  0  0  0  0  0  0
    6.9267  -12.7337   25.8528 C   0  0  2  0  0  0  0  0  0  0  0  0
    5.6573  -12.2205   26.5140 C   0  0  0  0  0  0  0  0  0  0  0  0
    7.2703  -14.1216   26.2576 C   0  0  0  0  0  0  0  0  0  0  0  0
    8.2518  -14.8870   25.4730 C   0  0  2  0  0  0  0  0  0  0  0  0
    8.1831  -14.9128   24.0801 N   0  0  0  0  0  0  0  0  0  0  0  0
    8.6739  -16.1083   26.2088 C   0  0  0  0  0  0  0  0  0  0  0  0
    7.8750  -16.9480   26.6626 O   0  0  0  0  0  0  0  0  0  0  0  0
   10.0628  -16.3834   26.4349 N   0  0  0  0  0  0  0  0  0  0  0  0
   10.5248  -17.6388   26.9946 C   0  0  1  0  0  0  0  0  0  0  0  0
   11.6072  -18.3064   26.2380 C   0  0  0  0  0  0  0  0  0  0  0  0
   12.6243  -17.4339   25.5737 C   0  0  0  0  0  0  0  0  0  0  0  0
   13.6484  -18.2047   24.8511 C   0  0  0  0  0  0  0  0  0  0  0  0
   13.6377  -19.4517   24.7213 O   0  0  0  0  0  0  0  0  0  0  0  0
   10.8904  -17.4498   28.4073 C   0  0  0  0  0  0  0  0  0  0  0  0
   10.8203  -16.1681   28.9806 O   0  0  0  0  0  0  0  0  0  0  0  0
   14.7285  -17.5362   24.2487 O   0  0  0  0  0  0  0  0  0  0  0  0
   11.2643  -18.3919   29.1412 O   0  0  0  0  0  0  0  0  0  0  0  0
  2  1  1  0
  3  2  2  0
  4  3  1  0
  5  4  2  0
  5 11  1  0
  6  5  1  0
  7  8  1  6
  7  6  1  0
  9 10  2  0
  9  7  1  0
 11 12  2  0
 12  2  1  0
 14 16  1  0
 14 13  1  1
 15 14  1  0
 17 16  1  1
 17 19  1  0
 17 18  1  0
 18  9  1  0
 19 21  1  0
 20 19  2  0
 21 22  1  0
 22 27  1  0
 23 24  1  0
 22 23  1  6
 24 25  1  0
 25 26  2  0
 27 30  2  0
 27 28  1  0
 29 25  1  0
M  END
$$$$
