YLE.pdb
     RDKit          3D

 30 30  0  0  1  0  0  0  0  0999 V2000
   10.8570  -14.5839   31.2067 O   0  0  0  0  0  0  0  0  0  0  0  0
   10.5969  -14.7629   29.8419 C   0  0  0  0  0  0  0  0  0  0  0  0
   10.0444  -13.7490   29.0982 C   0  0  0  0  0  0  0  0  0  0  0  0
    9.7809  -13.9204   27.7259 C   0  0  0  0  0  0  0  0  0  0  0  0
   10.0666  -15.1023   27.0834 C   0  0  0  0  0  0  0  0  0  0  0  0
    9.8160  -15.3288   25.6345 C   0  0  0  0  0  0  0  0  0  0  0  0
    8.3981  -15.7483   25.3353 C   0  0  2  0  0  0  0  0  0  0  0  0
    7.9877  -16.8957   26.0915 N   0  0  0  0  0  0  0  0  0  0  0  0
    8.2931  -15.9873   23.8331 C   0  0  0  0  0  0  0  0  0  0  0  0
    8.3587  -17.1621   23.4275 O   0  0  0  0  0  0  0  0  0  0  0  0
   10.6297  -16.1179   27.8696 C   0  0  0  0  0  0  0  0  0  0  0  0
   10.8876  -15.9531   29.2137 C   0  0  0  0  0  0  0  0  0  0  0  0
    8.4298  -11.7678   19.0502 C   0  0  0  0  0  0  0  0  0  0  0  0
    8.2783  -13.1511   19.5717 C   0  0  2  0  0  0  0  0  0  0  0  0
    7.0921  -13.8570   18.9339 C   0  0  0  0  0  0  0  0  0  0  0  0
    8.3312  -13.3250   21.0465 C   0  0  0  0  0  0  0  0  0  0  0  0
    8.3746  -14.6797   21.6188 C   0  0  2  0  0  0  0  0  0  0  0  0
    8.1268  -14.8859   22.9760 N   0  0  0  0  0  0  0  0  0  0  0  0
    9.3958  -15.5095   20.9260 C   0  0  0  0  0  0  0  0  0  0  0  0
    9.1505  -16.2074   19.9250 O   0  0  0  0  0  0  0  0  0  0  0  0
   10.7510  -15.5436   21.3930 N   0  0  0  0  0  0  0  0  0  0  0  0
   11.7446  -16.4363   20.8287 C   0  0  1  0  0  0  0  0  0  0  0  0
   12.4056  -15.9475   19.5983 C   0  0  0  0  0  0  0  0  0  0  0  0
   13.3585  -14.8027   19.7352 C   0  0  0  0  0  0  0  0  0  0  0  0
   14.1942  -14.6137   18.5390 C   0  0  0  0  0  0  0  0  0  0  0  0
   15.1645  -15.3445   18.2286 O   0  0  0  0  0  0  0  0  0  0  0  0
   12.7274  -16.8036   21.8603 C   0  0  0  0  0  0  0  0  0  0  0  0
   13.6847  -17.7969   21.5898 O   0  0  0  0  0  0  0  0  0  0  0  0
   13.9190  -13.5546   17.6563 O   0  0  0  0  0  0  0  0  0  0  0  0
   12.7581  -16.2628   22.9884 O   0  0  0  0  0  0  0  0  0  0  0  0
  2  1  1  0
  3  2  2  0
  4  3  1  0
  5  4  2  0
  5 11  1  0
  6  5  1  0
  7  8  1  1
  7  6  1  0
  9 10  2  0
  9  7  1  0
 11 12  2  0
 12  2  1  0
 14 16  1  0
 14 13  1  1
 15 14  1  0
 17 16  1  1
 17 19  1  0
 17 18  1  0
 18  9  1  0
 19 21  1  0
 20 19  2  0
 21 22  1  0
 22 27  1  0
 23 24  1  0
 22 23  1  6
 24 25  1  0
 25 26  2  0
 27 30  2  0
 27 28  1  0
 29 25  1  0
M  END
$$$$
