YLE.pdb
     RDKit          3D

 30 30  0  0  1  0  0  0  0  0999 V2000
   10.2968  -14.4536   31.3553 O   0  0  0  0  0  0  0  0  0  0  0  0
   10.0825  -14.7035   29.9936 C   0  0  0  0  0  0  0  0  0  0  0  0
    9.5288  -13.7402   29.1863 C   0  0  0  0  0  0  0  0  0  0  0  0
    9.3112  -13.9829   27.8167 C   0  0  0  0  0  0  0  0  0  0  0  0
    9.6444  -15.1862   27.2402 C   0  0  0  0  0  0  0  0  0  0  0  0
    9.4435  -15.4872   25.7972 C   0  0  0  0  0  0  0  0  0  0  0  0
    8.1413  -16.1943   25.5136 C   0  0  2  0  0  0  0  0  0  0  0  0
    8.0140  -17.4305   26.2296 N   0  0  0  0  0  0  0  0  0  0  0  0
    8.0425  -16.3954   24.0054 C   0  0  0  0  0  0  0  0  0  0  0  0
    8.2309  -17.5424   23.5604 O   0  0  0  0  0  0  0  0  0  0  0  0
   10.2076  -16.1489   28.0904 C   0  0  0  0  0  0  0  0  0  0  0  0
   10.4206  -15.9143   29.4320 C   0  0  0  0  0  0  0  0  0  0  0  0
    8.7680  -13.7740   19.0717 C   0  0  0  0  0  0  0  0  0  0  0  0
    7.4486  -13.6579   19.7455 C   0  0  2  0  0  0  0  0  0  0  0  0
    6.6789  -12.4433   19.2511 C   0  0  0  0  0  0  0  0  0  0  0  0
    7.4337  -13.7900   21.2256 C   0  0  0  0  0  0  0  0  0  0  0  0
    8.0234  -14.9814   21.8561 C   0  0  2  0  0  0  0  0  0  0  0  0
    7.7447  -15.2922   23.1871 N   0  0  0  0  0  0  0  0  0  0  0  0
    9.3811  -15.2461   21.3104 C   0  0  0  0  0  0  0  0  0  0  0  0
   10.2205  -14.3533   21.0927 O   0  0  0  0  0  0  0  0  0  0  0  0
    9.7983  -16.5827   21.0018 N   0  0  0  0  0  0  0  0  0  0  0  0
   11.1531  -16.8984   20.5924 C   0  0  1  0  0  0  0  0  0  0  0  0
   11.9409  -17.6820   21.5697 C   0  0  0  0  0  0  0  0  0  0  0  0
   11.5561  -19.1124   21.7778 C   0  0  0  0  0  0  0  0  0  0  0  0
   12.4528  -19.8113   22.7118 C   0  0  0  0  0  0  0  0  0  0  0  0
   13.7027  -19.8318   22.6143 O   0  0  0  0  0  0  0  0  0  0  0  0
   11.1362  -17.5441   19.2704 C   0  0  0  0  0  0  0  0  0  0  0  0
   12.3462  -17.7887   18.5979 O   0  0  0  0  0  0  0  0  0  0  0  0
   11.9127  -20.5146   23.8027 O   0  0  0  0  0  0  0  0  0  0  0  0
   10.0780  -17.8980   18.7038 O   0  0  0  0  0  0  0  0  0  0  0  0
  2  1  1  0
  3  2  2  0
  4  3  1  0
  5  4  2  0
  5 11  1  0
  6  5  1  0
  7  8  1  1
  7  6  1  0
  9 10  2  0
  9  7  1  0
 11 12  2  0
 12  2  1  0
 14 16  1  0
 14 13  1  1
 15 14  1  0
 17 16  1  1
 17 19  1  0
 17 18  1  0
 18  9  1  0
 19 21  1  0
 20 19  2  0
 21 22  1  0
 22 27  1  0
 23 24  1  0
 22 23  1  1
 24 25  1  0
 25 26  2  0
 27 30  2  0
 27 28  1  0
 29 25  1  0
M  END
$$$$
