YLE.pdb
     RDKit          3D

 30 30  0  0  1  0  0  0  0  0999 V2000
    3.2063  -23.9393   23.0349 O   0  0  0  0  0  0  0  0  0  0  0  0
    4.0100  -22.8408   23.3666 C   0  0  0  0  0  0  0  0  0  0  0  0
    5.3443  -23.0111   23.6437 C   0  0  0  0  0  0  0  0  0  0  0  0
    6.1591  -21.9124   23.9767 C   0  0  0  0  0  0  0  0  0  0  0  0
    5.6517  -20.6355   24.0353 C   0  0  0  0  0  0  0  0  0  0  0  0
    6.4730  -19.4418   24.3725 C   0  0  0  0  0  0  0  0  0  0  0  0
    6.4889  -18.4032   23.2783 C   0  0  2  0  0  0  0  0  0  0  0  0
    6.9268  -18.9311   22.0187 N   0  0  0  0  0  0  0  0  0  0  0  0
    7.3658  -17.2480   23.7490 C   0  0  0  0  0  0  0  0  0  0  0  0
    8.5825  -17.3029   23.4931 O   0  0  0  0  0  0  0  0  0  0  0  0
    4.2864  -20.4944   23.7473 C   0  0  0  0  0  0  0  0  0  0  0  0
    3.4861  -21.5687   23.4221 C   0  0  0  0  0  0  0  0  0  0  0  0
    5.9946  -12.1250   27.3025 C   0  0  0  0  0  0  0  0  0  0  0  0
    6.9573  -13.0108   26.5976 C   0  0  2  0  0  0  0  0  0  0  0  0
    7.9920  -12.2042   25.8289 C   0  0  0  0  0  0  0  0  0  0  0  0
    6.3867  -14.1288   25.8022 C   0  0  0  0  0  0  0  0  0  0  0  0
    7.2811  -15.1516   25.2379 C   0  0  2  0  0  0  0  0  0  0  0  0
    6.7732  -16.1792   24.4431 N   0  0  0  0  0  0  0  0  0  0  0  0
    8.4090  -15.4318   26.1656 C   0  0  0  0  0  0  0  0  0  0  0  0
    8.2827  -16.0653   27.2295 O   0  0  0  0  0  0  0  0  0  0  0  0
    9.7339  -14.9719   25.8672 N   0  0  0  0  0  0  0  0  0  0  0  0
   10.9183  -15.6187   26.3978 C   0  0  1  0  0  0  0  0  0  0  0  0
   12.1681  -15.3578   25.6497 C   0  0  0  0  0  0  0  0  0  0  0  0
   13.4196  -16.0072   26.1490 C   0  0  0  0  0  0  0  0  0  0  0  0
   14.3907  -16.2689   25.0751 C   0  0  0  0  0  0  0  0  0  0  0  0
   15.5087  -16.8101   25.2458 O   0  0  0  0  0  0  0  0  0  0  0  0
   11.0656  -15.2946   27.8255 C   0  0  0  0  0  0  0  0  0  0  0  0
   10.5630  -14.0785   28.3202 O   0  0  0  0  0  0  0  0  0  0  0  0
   14.0829  -15.9049   23.7525 O   0  0  0  0  0  0  0  0  0  0  0  0
   11.6234  -16.0639   28.6398 O   0  0  0  0  0  0  0  0  0  0  0  0
  2  1  1  0
  3  2  2  0
  4  3  1  0
  5  4  2  0
  5 11  1  0
  6  5  1  0
  7  8  1  6
  7  6  1  0
  9 10  2  0
  9  7  1  0
 11 12  2  0
 12  2  1  0
 14 16  1  0
 14 13  1  6
 15 14  1  0
 17 16  1  1
 17 19  1  0
 17 18  1  0
 18  9  1  0
 19 21  1  0
 20 19  2  0
 21 22  1  0
 22 27  1  0
 23 24  1  0
 22 23  1  6
 24 25  1  0
 25 26  2  0
 27 30  2  0
 27 28  1  0
 29 25  1  0
M  END
$$$$
