YLE.pdb
     RDKit          3D

 30 30  0  0  1  0  0  0  0  0999 V2000
   10.7045  -13.8781   30.4998 O   0  0  0  0  0  0  0  0  0  0  0  0
   10.3494  -14.3322   29.2230 C   0  0  0  0  0  0  0  0  0  0  0  0
   10.5748  -15.6372   28.8591 C   0  0  0  0  0  0  0  0  0  0  0  0
   10.2199  -16.1018   27.5784 C   0  0  0  0  0  0  0  0  0  0  0  0
    9.6368  -15.2707   26.6506 C   0  0  0  0  0  0  0  0  0  0  0  0
    9.2351  -15.7161   25.2892 C   0  0  0  0  0  0  0  0  0  0  0  0
    7.8122  -16.2130   25.2225 C   0  0  2  0  0  0  0  0  0  0  0  0
    7.5721  -17.3268   26.0936 N   0  0  0  0  0  0  0  0  0  0  0  0
    7.5073  -16.5505   23.7671 C   0  0  0  0  0  0  0  0  0  0  0  0
    7.5304  -17.7493   23.4334 O   0  0  0  0  0  0  0  0  0  0  0  0
    9.4199  -13.9446   27.0521 C   0  0  0  0  0  0  0  0  0  0  0  0
    9.7675  -13.4869   28.3050 C   0  0  0  0  0  0  0  0  0  0  0  0
    8.5031  -13.8460   18.8814 C   0  0  0  0  0  0  0  0  0  0  0  0
    7.7512  -13.1783   19.9757 C   0  0  2  0  0  0  0  0  0  0  0  0
    7.8562  -11.6646   19.8768 C   0  0  0  0  0  0  0  0  0  0  0  0
    7.9749  -13.6856   21.3544 C   0  0  0  0  0  0  0  0  0  0  0  0
    7.7585  -15.1106   21.6499 C   0  0  2  0  0  0  0  0  0  0  0  0
    7.2140  -15.5081   22.8710 N   0  0  0  0  0  0  0  0  0  0  0  0
    8.8103  -15.9447   21.0101 C   0  0  0  0  0  0  0  0  0  0  0  0
    8.6385  -16.5735   19.9498 O   0  0  0  0  0  0  0  0  0  0  0  0
   10.1103  -16.0653   21.6029 N   0  0  0  0  0  0  0  0  0  0  0  0
   11.1374  -16.9287   21.0532 C   0  0  1  0  0  0  0  0  0  0  0  0
   12.4371  -16.2729   20.7880 C   0  0  0  0  0  0  0  0  0  0  0  0
   12.4633  -15.1809   19.7662 C   0  0  0  0  0  0  0  0  0  0  0  0
   13.8163  -14.6503   19.5369 C   0  0  0  0  0  0  0  0  0  0  0  0
   14.5794  -14.2371   20.4419 O   0  0  0  0  0  0  0  0  0  0  0  0
   11.2963  -18.1182   21.9045 C   0  0  0  0  0  0  0  0  0  0  0  0
   12.2120  -19.1204   21.5392 O   0  0  0  0  0  0  0  0  0  0  0  0
   14.3280  -14.5865   18.2290 O   0  0  0  0  0  0  0  0  0  0  0  0
   10.6477  -18.2851   22.9616 O   0  0  0  0  0  0  0  0  0  0  0  0
  2  1  1  0
  3  2  2  0
  4  3  1  0
  5  4  2  0
  5 11  1  0
  6  5  1  0
  7  8  1  1
  7  6  1  0
  9 10  2  0
  9  7  1  0
 11 12  2  0
 12  2  1  0
 14 16  1  0
 14 13  1  6
 15 14  1  0
 17 16  1  1
 17 19  1  0
 17 18  1  0
 18  9  1  0
 19 21  1  0
 20 19  2  0
 21 22  1  0
 22 27  1  0
 23 24  1  0
 22 23  1  1
 24 25  1  0
 25 26  2  0
 27 30  2  0
 27 28  1  0
 29 25  1  0
M  END
$$$$
