YLE.pdb
     RDKit          3D

 30 30  0  0  1  0  0  0  0  0999 V2000
    7.4613  -13.5195   15.7385 O   0  0  0  0  0  0  0  0  0  0  0  0
    7.9696  -13.6318   17.0391 C   0  0  0  0  0  0  0  0  0  0  0  0
    8.8651  -14.6241   17.3549 C   0  0  0  0  0  0  0  0  0  0  0  0
    9.3814  -14.7431   18.6592 C   0  0  0  0  0  0  0  0  0  0  0  0
    9.0109  -13.8742   19.6588 C   0  0  0  0  0  0  0  0  0  0  0  0
    9.5354  -13.9524   21.0488 C   0  0  0  0  0  0  0  0  0  0  0  0
    9.0749  -15.1837   21.7891 C   0  0  2  0  0  0  0  0  0  0  0  0
    7.6760  -15.4462   21.6129 N   0  0  0  0  0  0  0  0  0  0  0  0
    9.4416  -15.0049   23.2582 C   0  0  0  0  0  0  0  0  0  0  0  0
   10.6486  -15.0283   23.5609 O   0  0  0  0  0  0  0  0  0  0  0  0
    8.0954  -12.8724   19.3051 C   0  0  0  0  0  0  0  0  0  0  0  0
    7.5874  -12.7544   18.0291 C   0  0  0  0  0  0  0  0  0  0  0  0
    8.1732  -11.6585   26.1854 C   0  0  0  0  0  0  0  0  0  0  0  0
    7.0513  -12.6106   25.9769 C   0  0  2  0  0  0  0  0  0  0  0  0
    5.7628  -12.0929   26.5963 C   0  0  0  0  0  0  0  0  0  0  0  0
    7.3123  -14.0392   26.2920 C   0  0  0  0  0  0  0  0  0  0  0  0
    8.3932  -14.7530   25.5941 C   0  0  2  0  0  0  0  0  0  0  0  0
    8.4156  -14.8213   24.2011 N   0  0  0  0  0  0  0  0  0  0  0  0
    8.8519  -15.9205   26.3927 C   0  0  0  0  0  0  0  0  0  0  0  0
    8.8945  -15.9284   27.6366 O   0  0  0  0  0  0  0  0  0  0  0  0
    9.2779  -17.1275   25.7466 N   0  0  0  0  0  0  0  0  0  0  0  0
    9.8057  -18.2587   26.4845 C   0  0  1  0  0  0  0  0  0  0  0  0
    9.9820  -19.4989   25.6967 C   0  0  0  0  0  0  0  0  0  0  0  0
   11.1041  -19.5349   24.7084 C   0  0  0  0  0  0  0  0  0  0  0  0
   11.1831  -20.8141   23.9856 C   0  0  0  0  0  0  0  0  0  0  0  0
   10.4165  -21.7872   24.1794 O   0  0  0  0  0  0  0  0  0  0  0  0
   11.0501  -17.8712   27.1673 C   0  0  0  0  0  0  0  0  0  0  0  0
   11.8136  -16.8000   26.6714 O   0  0  0  0  0  0  0  0  0  0  0  0
   12.1693  -20.9990   23.0010 O   0  0  0  0  0  0  0  0  0  0  0  0
   11.4704  -18.4557   28.1910 O   0  0  0  0  0  0  0  0  0  0  0  0
  2  1  1  0
  3  2  2  0
  4  3  1  0
  5  4  2  0
  5 11  1  0
  6  5  1  0
  7  8  1  1
  7  6  1  0
  9 10  2  0
  9  7  1  0
 11 12  2  0
 12  2  1  0
 14 16  1  0
 14 13  1  1
 15 14  1  0
 17 16  1  1
 17 19  1  0
 17 18  1  0
 18  9  1  0
 19 21  1  0
 20 19  2  0
 21 22  1  0
 22 27  1  0
 23 24  1  0
 22 23  1  6
 24 25  1  0
 25 26  2  0
 27 30  2  0
 27 28  1  0
 29 25  1  0
M  END
$$$$
