YLE.pdb
     RDKit          3D

 30 30  0  0  1  0  0  0  0  0999 V2000
   18.4879  -14.2598   16.5147 O   0  0  0  0  0  0  0  0  0  0  0  0
   17.3419  -14.1744   17.3158 C   0  0  0  0  0  0  0  0  0  0  0  0
   16.1669  -13.6823   16.8023 C   0  0  0  0  0  0  0  0  0  0  0  0
   15.0105  -13.5942   17.6003 C   0  0  0  0  0  0  0  0  0  0  0  0
   15.0148  -13.9965   18.9154 C   0  0  0  0  0  0  0  0  0  0  0  0
   13.8174  -13.9326   19.7959 C   0  0  0  0  0  0  0  0  0  0  0  0
   13.1733  -15.2781   20.0214 C   0  0  2  0  0  0  0  0  0  0  0  0
   12.6347  -15.8439   18.8186 N   0  0  0  0  0  0  0  0  0  0  0  0
   12.1078  -15.1067   21.0986 C   0  0  0  0  0  0  0  0  0  0  0  0
   12.4715  -14.6825   22.2108 O   0  0  0  0  0  0  0  0  0  0  0  0
   16.2290  -14.4942   19.4101 C   0  0  0  0  0  0  0  0  0  0  0  0
   17.3631  -14.5803   18.6313 C   0  0  0  0  0  0  0  0  0  0  0  0
    8.9660  -12.5677   20.4345 C   0  0  0  0  0  0  0  0  0  0  0  0
    8.3317  -13.8287   19.9696 C   0  0  2  0  0  0  0  0  0  0  0  0
    6.9671  -13.5677   19.3519 C   0  0  0  0  0  0  0  0  0  0  0  0
    8.3286  -14.9716   20.9194 C   0  0  0  0  0  0  0  0  0  0  0  0
    9.5907  -15.4089   21.5364 C   0  0  2  0  0  0  0  0  0  0  0  0
   10.7733  -15.4288   20.7971 N   0  0  0  0  0  0  0  0  0  0  0  0
    9.3402  -16.4704   22.5471 C   0  0  0  0  0  0  0  0  0  0  0  0
    8.2662  -17.0929   22.6386 O   0  0  0  0  0  0  0  0  0  0  0  0
   10.3557  -16.8373   23.4905 N   0  0  0  0  0  0  0  0  0  0  0  0
   10.1777  -17.9162   24.4429 C   0  0  1  0  0  0  0  0  0  0  0  0
   11.3124  -18.8605   24.5455 C   0  0  0  0  0  0  0  0  0  0  0  0
   11.8205  -19.4692   23.2772 C   0  0  0  0  0  0  0  0  0  0  0  0
   13.0739  -20.2158   23.4682 C   0  0  0  0  0  0  0  0  0  0  0  0
   13.9362  -19.9444   24.3370 O   0  0  0  0  0  0  0  0  0  0  0  0
    9.8131  -17.3651   25.7575 C   0  0  0  0  0  0  0  0  0  0  0  0
   10.7443  -16.5919   26.4725 O   0  0  0  0  0  0  0  0  0  0  0  0
   13.3625  -21.3167   22.6429 O   0  0  0  0  0  0  0  0  0  0  0  0
    8.6914  -17.5496   26.2809 O   0  0  0  0  0  0  0  0  0  0  0  0
  2  1  1  0
  3  2  2  0
  4  3  1  0
  5  4  2  0
  5 11  1  0
  6  5  1  0
  7  8  1  6
  7  6  1  0
  9 10  2  0
  9  7  1  0
 11 12  2  0
 12  2  1  0
 14 16  1  0
 14 13  1  1
 15 14  1  0
 17 16  1  6
 17 19  1  0
 17 18  1  0
 18  9  1  0
 19 21  1  0
 20 19  2  0
 21 22  1  0
 22 27  1  0
 23 24  1  0
 22 23  1  1
 24 25  1  0
 25 26  2  0
 27 30  2  0
 27 28  1  0
 29 25  1  0
M  END
$$$$
