YLE.pdb
     RDKit          3D

 30 30  0  0  1  0  0  0  0  0999 V2000
    9.8748  -14.2744   31.6740 O   0  0  0  0  0  0  0  0  0  0  0  0
    9.7551  -15.0463   30.5111 C   0  0  0  0  0  0  0  0  0  0  0  0
    9.9874  -16.3996   30.5451 C   0  0  0  0  0  0  0  0  0  0  0  0
    9.8682  -17.1826   29.3812 C   0  0  0  0  0  0  0  0  0  0  0  0
    9.5157  -16.6243   28.1748 C   0  0  0  0  0  0  0  0  0  0  0  0
    9.3672  -17.4101   26.9203 C   0  0  0  0  0  0  0  0  0  0  0  0
    7.9394  -17.8011   26.6297 C   0  0  2  0  0  0  0  0  0  0  0  0
    7.7346  -19.2202   26.6651 N   0  0  0  0  0  0  0  0  0  0  0  0
    7.5614  -17.2034   25.2788 C   0  0  0  0  0  0  0  0  0  0  0  0
    7.5731  -17.9569   24.2883 O   0  0  0  0  0  0  0  0  0  0  0  0
    9.2853  -15.2410   28.1726 C   0  0  0  0  0  0  0  0  0  0  0  0
    9.4025  -14.4718   29.3105 C   0  0  0  0  0  0  0  0  0  0  0  0
    5.5965  -13.2900   26.2696 C   0  0  0  0  0  0  0  0  0  0  0  0
    7.0516  -13.0436   26.0948 C   0  0  2  0  0  0  0  0  0  0  0  0
    7.4318  -11.6375   26.5311 C   0  0  0  0  0  0  0  0  0  0  0  0
    7.6478  -13.4259   24.7885 C   0  0  0  0  0  0  0  0  0  0  0  0
    7.5429  -14.8164   24.3193 C   0  0  2  0  0  0  0  0  0  0  0  0
    7.2172  -15.8426   25.2060 N   0  0  0  0  0  0  0  0  0  0  0  0
    8.5146  -15.0751   23.2238 C   0  0  0  0  0  0  0  0  0  0  0  0
    8.3589  -14.6706   22.0571 O   0  0  0  0  0  0  0  0  0  0  0  0
    9.7123  -15.8243   23.4693 N   0  0  0  0  0  0  0  0  0  0  0  0
   10.7320  -16.0127   22.4557 C   0  0  1  0  0  0  0  0  0  0  0  0
   12.1248  -15.8285   22.9203 C   0  0  0  0  0  0  0  0  0  0  0  0
   13.2213  -16.1136   21.9438 C   0  0  0  0  0  0  0  0  0  0  0  0
   14.5591  -15.8673   22.5047 C   0  0  0  0  0  0  0  0  0  0  0  0
   14.7740  -15.3865   23.6425 O   0  0  0  0  0  0  0  0  0  0  0  0
   10.5489  -17.3180   21.8017 C   0  0  0  0  0  0  0  0  0  0  0  0
   11.2214  -17.5961   20.5989 O   0  0  0  0  0  0  0  0  0  0  0  0
   15.7013  -16.1800   21.7471 O   0  0  0  0  0  0  0  0  0  0  0  0
    9.8132  -18.2137   22.2734 O   0  0  0  0  0  0  0  0  0  0  0  0
  2  1  1  0
  3  2  2  0
  4  3  1  0
  5  4  2  0
  5 11  1  0
  6  5  1  0
  7  8  1  6
  7  6  1  0
  9 10  2  0
  9  7  1  0
 11 12  2  0
 12  2  1  0
 14 16  1  0
 14 13  1  6
 15 14  1  0
 17 16  1  1
 17 19  1  0
 17 18  1  0
 18  9  1  0
 19 21  1  0
 20 19  2  0
 21 22  1  0
 22 27  1  0
 23 24  1  0
 22 23  1  1
 24 25  1  0
 25 26  2  0
 27 30  2  0
 27 28  1  0
 29 25  1  0
M  END
$$$$
