YLE.pdb
     RDKit          3D

 30 30  0  0  1  0  0  0  0  0999 V2000
    5.7354  -21.9484   18.9736 O   0  0  0  0  0  0  0  0  0  0  0  0
    6.3605  -20.9171   19.6865 C   0  0  0  0  0  0  0  0  0  0  0  0
    7.3149  -20.1329   19.0861 C   0  0  0  0  0  0  0  0  0  0  0  0
    7.9470  -19.0938   19.7951 C   0  0  0  0  0  0  0  0  0  0  0  0
    7.6328  -18.8268   21.1071 C   0  0  0  0  0  0  0  0  0  0  0  0
    8.2649  -17.7349   21.8954 C   0  0  0  0  0  0  0  0  0  0  0  0
    7.5440  -16.4158   21.7673 C   0  0  2  0  0  0  0  0  0  0  0  0
    7.4422  -15.9689   20.4083 N   0  0  0  0  0  0  0  0  0  0  0  0
    8.2693  -15.4043   22.6481 C   0  0  0  0  0  0  0  0  0  0  0  0
    9.3371  -14.9267   22.2230 O   0  0  0  0  0  0  0  0  0  0  0  0
    6.6549  -19.6446   21.6918 C   0  0  0  0  0  0  0  0  0  0  0  0
    6.0354  -20.6635   21.0002 C   0  0  0  0  0  0  0  0  0  0  0  0
    7.4419  -11.3418   25.2691 C   0  0  0  0  0  0  0  0  0  0  0  0
    6.5830  -12.4935   25.6490 C   0  0  2  0  0  0  0  0  0  0  0  0
    5.5490  -12.0940   26.6899 C   0  0  0  0  0  0  0  0  0  0  0  0
    7.2716  -13.7689   25.9764 C   0  0  0  0  0  0  0  0  0  0  0  0
    8.1968  -14.3678   25.0017 C   0  0  2  0  0  0  0  0  0  0  0  0
    7.7101  -15.0540   23.8891 N   0  0  0  0  0  0  0  0  0  0  0  0
    9.4314  -14.8484   25.6770 C   0  0  0  0  0  0  0  0  0  0  0  0
    9.9725  -14.2518   26.6259 O   0  0  0  0  0  0  0  0  0  0  0  0
   10.0736  -16.0585   25.2537 N   0  0  0  0  0  0  0  0  0  0  0  0
   11.3618  -16.4763   25.7722 C   0  0  1  0  0  0  0  0  0  0  0  0
   11.3622  -17.7676   26.4947 C   0  0  0  0  0  0  0  0  0  0  0  0
   10.3768  -17.9360   27.6073 C   0  0  0  0  0  0  0  0  0  0  0  0
   10.4306  -19.2747   28.2156 C   0  0  0  0  0  0  0  0  0  0  0  0
   11.2363  -19.6138   29.1144 O   0  0  0  0  0  0  0  0  0  0  0  0
   12.3618  -16.4610   24.6929 C   0  0  0  0  0  0  0  0  0  0  0  0
   11.9595  -16.1930   23.3728 O   0  0  0  0  0  0  0  0  0  0  0  0
    9.5340  -20.2705   27.7903 O   0  0  0  0  0  0  0  0  0  0  0  0
   13.5782  -16.6746   24.8947 O   0  0  0  0  0  0  0  0  0  0  0  0
  2  1  1  0
  3  2  2  0
  4  3  1  0
  5  4  2  0
  5 11  1  0
  6  5  1  0
  7  8  1  6
  7  6  1  0
  9 10  2  0
  9  7  1  0
 11 12  2  0
 12  2  1  0
 14 16  1  0
 14 13  1  1
 15 14  1  0
 17 16  1  1
 17 19  1  0
 17 18  1  0
 18  9  1  0
 19 21  1  0
 20 19  2  0
 21 22  1  0
 22 27  1  0
 23 24  1  0
 22 23  1  6
 24 25  1  0
 25 26  2  0
 27 30  2  0
 27 28  1  0
 29 25  1  0
M  END
$$$$
