SVW.pdb
     RDKit          3D

 28 29  0  0  1  0  0  0  0  0999 V2000
   11.0546  -13.4686   19.2223 O   0  0  0  0  0  0  0  0  0  0  0  0
    9.7886  -12.8650   19.0974 C   0  0  0  0  0  0  0  0  0  0  0  0
    8.8755  -13.8626   18.4233 C   0  0  2  0  0  0  0  0  0  0  0  0
    7.9858  -13.1344   17.5767 N   0  0  0  0  0  0  0  0  0  0  0  0
    8.1385  -14.6259   19.4991 C   0  0  0  0  0  0  0  0  0  0  0  0
    6.8970  -14.6793   19.4012 O   0  0  0  0  0  0  0  0  0  0  0  0
    6.7643  -17.2291   19.8086 C   0  0  0  0  0  0  0  0  0  0  0  0
    7.9774  -17.5649   20.6818 C   0  0  2  0  0  0  0  0  0  0  0  0
    7.6158  -18.7348   21.5262 C   0  0  0  0  0  0  0  0  0  0  0  0
    8.4377  -16.3387   21.4050 C   0  0  2  0  0  0  0  0  0  0  0  0
    8.8229  -15.2393   20.5487 N   0  0  0  0  0  0  0  0  0  0  0  0
    9.3675  -16.5241   22.5170 C   0  0  0  0  0  0  0  0  0  0  0  0
   10.5112  -17.0925   22.3098 O   0  0  0  0  0  0  0  0  0  0  0  0
    9.1278  -16.1217   23.8296 N   0  0  0  0  0  0  0  0  0  0  0  0
   10.1695  -16.0974   24.8663 C   0  0  1  0  0  0  0  0  0  0  0  0
    9.7791  -14.9247   25.7333 C   0  0  0  0  0  0  0  0  0  0  0  0
    8.3505  -14.7043   25.9208 C   0  0  0  0  0  0  0  0  0  0  0  0
    7.3523  -15.6889   25.8095 C   0  0  0  0  0  0  0  0  0  0  0  0
    6.1532  -15.1235   26.0102 N   0  0  0  0  0  0  0  0  0  0  0  0
    6.2883  -13.8047   26.2529 C   0  0  0  0  0  0  0  0  0  0  0  0
    5.3368  -12.8467   26.5280 C   0  0  0  0  0  0  0  0  0  0  0  0
    5.7678  -11.5597   26.7622 C   0  0  0  0  0  0  0  0  0  0  0  0
    7.1370  -11.2741   26.7137 C   0  0  0  0  0  0  0  0  0  0  0  0
    8.0542  -12.2558   26.4357 C   0  0  0  0  0  0  0  0  0  0  0  0
    7.6540  -13.5475   26.1971 C   0  0  0  0  0  0  0  0  0  0  0  0
   10.1086  -17.3378   25.6206 C   0  0  0  0  0  0  0  0  0  0  0  0
    9.1186  -18.2689   25.3574 O   0  0  0  0  0  0  0  0  0  0  0  0
   10.9187  -17.6551   26.5401 O   0  0  0  0  0  0  0  0  0  0  0  0
  2  1  1  0
  3  4  1  6
  3  2  1  0
  5  3  1  0
  6  5  2  0
  8  7  1  1
  8  9  1  0
 10  8  1  0
 10 11  1  6
 11  5  1  0
 12 10  1  0
 13 12  2  0
 14 12  1  0
 15 14  1  0
 15 16  1  1
 16 17  1  0
 17 25  1  0
 18 17  2  0
 18 19  1  0
 19 20  1  0
 20 21  1  0
 21 22  2  0
 23 22  1  0
 24 23  2  0
 25 20  2  0
 25 24  1  0
 26 15  1  0
 26 27  1  0
 28 26  2  0
M  END
$$$$
