SVW.pdb
     RDKit          3D

 28 29  0  0  1  0  0  0  0  0999 V2000
   12.2623  -17.9632   19.7277 O   0  0  0  0  0  0  0  0  0  0  0  0
   12.3842  -17.0898   18.6300 C   0  0  0  0  0  0  0  0  0  0  0  0
   11.0113  -16.5268   18.3444 C   0  0  2  0  0  0  0  0  0  0  0  0
   11.1227  -15.6629   17.2131 N   0  0  0  0  0  0  0  0  0  0  0  0
   10.5401  -15.7906   19.5769 C   0  0  0  0  0  0  0  0  0  0  0  0
   11.1355  -14.7335   19.8631 O   0  0  0  0  0  0  0  0  0  0  0  0
    6.6992  -16.9339   21.2485 C   0  0  0  0  0  0  0  0  0  0  0  0
    7.3573  -15.5581   21.3936 C   0  0  2  0  0  0  0  0  0  0  0  0
    6.8717  -14.7054   20.2758 C   0  0  0  0  0  0  0  0  0  0  0  0
    8.8401  -15.7148   21.5159 C   0  0  2  0  0  0  0  0  0  0  0  0
    9.4876  -16.2777   20.3523 N   0  0  0  0  0  0  0  0  0  0  0  0
    9.3553  -16.2794   22.7614 C   0  0  0  0  0  0  0  0  0  0  0  0
    9.9210  -17.4429   22.7535 O   0  0  0  0  0  0  0  0  0  0  0  0
    9.2971  -15.6503   24.0037 N   0  0  0  0  0  0  0  0  0  0  0  0
    9.8078  -16.2611   25.2393 C   0  0  1  0  0  0  0  0  0  0  0  0
    9.5417  -15.2102   26.2901 C   0  0  0  0  0  0  0  0  0  0  0  0
    8.1906  -14.6650   26.3342 C   0  0  0  0  0  0  0  0  0  0  0  0
    7.0054  -15.4127   26.2130 C   0  0  0  0  0  0  0  0  0  0  0  0
    5.9545  -14.5815   26.2634 N   0  0  0  0  0  0  0  0  0  0  0  0
    6.3677  -13.3075   26.4136 C   0  0  0  0  0  0  0  0  0  0  0  0
    5.6411  -12.1424   26.5289 C   0  0  0  0  0  0  0  0  0  0  0  0
    6.3351  -10.9649   26.6991 C   0  0  0  0  0  0  0  0  0  0  0  0
    7.7334  -10.9926   26.7484 C   0  0  0  0  0  0  0  0  0  0  0  0
    8.4216  -12.1735   26.6289 C   0  0  0  0  0  0  0  0  0  0  0  0
    7.7567  -13.3627   26.4576 C   0  0  0  0  0  0  0  0  0  0  0  0
    9.0468  -17.4680   25.5142 C   0  0  0  0  0  0  0  0  0  0  0  0
    9.5179  -18.4007   26.4222 O   0  0  0  0  0  0  0  0  0  0  0  0
    7.9404  -17.7543   24.9699 O   0  0  0  0  0  0  0  0  0  0  0  0
  2  1  1  0
  3  4  1  6
  3  2  1  0
  5  3  1  0
  6  5  2  0
  8  7  1  6
  8  9  1  0
 10  8  1  0
 10 11  1  6
 11  5  1  0
 12 10  1  0
 13 12  2  0
 14 12  1  0
 15 14  1  0
 15 16  1  1
 16 17  1  0
 17 25  1  0
 18 17  2  0
 18 19  1  0
 19 20  1  0
 20 21  1  0
 21 22  2  0
 23 22  1  0
 24 23  2  0
 25 20  2  0
 25 24  1  0
 26 15  1  0
 26 27  1  0
 28 26  2  0
M  END
$$$$
