SVW.pdb
     RDKit          3D

 28 29  0  0  1  0  0  0  0  0999 V2000
    7.2324  -12.8548   16.9380 O   0  0  0  0  0  0  0  0  0  0  0  0
    8.4494  -13.2381   17.5333 C   0  0  0  0  0  0  0  0  0  0  0  0
    8.8905  -14.5247   16.8750 C   0  0  2  0  0  0  0  0  0  0  0  0
    8.0221  -14.7662   15.7676 N   0  0  0  0  0  0  0  0  0  0  0  0
    8.8178  -15.6280   17.9049 C   0  0  0  0  0  0  0  0  0  0  0  0
    7.7769  -16.3135   17.9227 O   0  0  0  0  0  0  0  0  0  0  0  0
   11.2255  -18.7409   20.8652 C   0  0  0  0  0  0  0  0  0  0  0  0
   11.0626  -17.8717   19.6143 C   0  0  2  0  0  0  0  0  0  0  0  0
   12.4103  -17.3691   19.2353 C   0  0  0  0  0  0  0  0  0  0  0  0
   10.0078  -16.8369   19.8486 C   0  0  2  0  0  0  0  0  0  0  0  0
    9.8704  -15.8617   18.7901 N   0  0  0  0  0  0  0  0  0  0  0  0
    9.9506  -16.2244   21.1741 C   0  0  0  0  0  0  0  0  0  0  0  0
   10.8308  -15.3377   21.5104 O   0  0  0  0  0  0  0  0  0  0  0  0
    8.9922  -16.5144   22.1434 N   0  0  0  0  0  0  0  0  0  0  0  0
    8.9610  -15.8670   23.4627 C   0  0  1  0  0  0  0  0  0  0  0  0
    7.5088  -15.4943   23.6402 C   0  0  0  0  0  0  0  0  0  0  0  0
    7.1376  -14.9290   24.9313 C   0  0  0  0  0  0  0  0  0  0  0  0
    6.5989  -15.6498   26.0124 C   0  0  0  0  0  0  0  0  0  0  0  0
    6.3460  -14.8042   27.0218 N   0  0  0  0  0  0  0  0  0  0  0  0
    6.6871  -13.5461   26.6797 C   0  0  0  0  0  0  0  0  0  0  0  0
    6.6182  -12.3756   27.4036 C   0  0  0  0  0  0  0  0  0  0  0  0
    7.0648  -11.2196   26.8027 C   0  0  0  0  0  0  0  0  0  0  0  0
    7.5658  -11.2733   25.4970 C   0  0  0  0  0  0  0  0  0  0  0  0
    7.6175  -12.4587   24.8081 C   0  0  0  0  0  0  0  0  0  0  0  0
    7.1787  -13.6269   25.3811 C   0  0  0  0  0  0  0  0  0  0  0  0
    9.3710  -16.8327   24.4680 C   0  0  0  0  0  0  0  0  0  0  0  0
   10.0965  -16.4257   25.5746 O   0  0  0  0  0  0  0  0  0  0  0  0
    9.1115  -18.0706   24.4172 O   0  0  0  0  0  0  0  0  0  0  0  0
  2  1  1  0
  3  4  1  6
  3  2  1  0
  5  3  1  0
  6  5  2  0
  8  7  1  1
  8  9  1  0
 10  8  1  0
 10 11  1  6
 11  5  1  0
 12 10  1  0
 13 12  2  0
 14 12  1  0
 15 14  1  0
 15 16  1  1
 16 17  1  0
 17 25  1  0
 18 17  2  0
 18 19  1  0
 19 20  1  0
 20 21  1  0
 21 22  2  0
 23 22  1  0
 24 23  2  0
 25 20  2  0
 25 24  1  0
 26 15  1  0
 26 27  1  0
 28 26  2  0
M  END
$$$$
