SVW.pdb
     RDKit          3D

 28 29  0  0  1  0  0  0  0  0999 V2000
    8.8607  -11.8074   19.0019 O   0  0  0  0  0  0  0  0  0  0  0  0
    8.2674  -12.6996   19.9154 C   0  0  0  0  0  0  0  0  0  0  0  0
    8.2664  -14.0687   19.2759 C   0  0  2  0  0  0  0  0  0  0  0  0
    7.1949  -14.1071   18.3330 N   0  0  0  0  0  0  0  0  0  0  0  0
    8.0975  -15.0975   20.3696 C   0  0  0  0  0  0  0  0  0  0  0  0
    6.9298  -15.3740   20.7068 O   0  0  0  0  0  0  0  0  0  0  0  0
   11.2593  -17.9318   21.0714 C   0  0  0  0  0  0  0  0  0  0  0  0
    9.7834  -18.0626   21.4608 C   0  0  2  0  0  0  0  0  0  0  0  0
    9.0615  -18.6528   20.3019 C   0  0  0  0  0  0  0  0  0  0  0  0
    9.2728  -16.7497   21.9648 C   0  0  2  0  0  0  0  0  0  0  0  0
    9.2017  -15.7047   20.9683 N   0  0  0  0  0  0  0  0  0  0  0  0
    9.8064  -16.2649   23.2359 C   0  0  0  0  0  0  0  0  0  0  0  0
   10.7523  -15.3821   23.2404 O   0  0  0  0  0  0  0  0  0  0  0  0
    9.3663  -16.6775   24.4922 N   0  0  0  0  0  0  0  0  0  0  0  0
    9.9360  -16.1728   25.7497 C   0  0  1  0  0  0  0  0  0  0  0  0
    8.7507  -16.1308   26.6839 C   0  0  0  0  0  0  0  0  0  0  0  0
    7.6284  -15.2977   26.2703 C   0  0  0  0  0  0  0  0  0  0  0  0
    6.4279  -15.7678   25.7080 C   0  0  0  0  0  0  0  0  0  0  0  0
    5.6398  -14.7225   25.4179 N   0  0  0  0  0  0  0  0  0  0  0  0
    6.2454  -13.5671   25.7561 C   0  0  0  0  0  0  0  0  0  0  0  0
    5.8034  -12.2658   25.6548 C   0  0  0  0  0  0  0  0  0  0  0  0
    6.6357  -11.2660   26.1069 C   0  0  0  0  0  0  0  0  0  0  0  0
    7.8831  -11.6016   26.6456 C   0  0  0  0  0  0  0  0  0  0  0  0
    8.2881  -12.9098   26.7288 C   0  0  0  0  0  0  0  0  0  0  0  0
    7.4800  -13.9276   26.2855 C   0  0  0  0  0  0  0  0  0  0  0  0
   10.9324  -17.1176   26.2249 C   0  0  0  0  0  0  0  0  0  0  0  0
   11.1074  -18.3319   25.5835 O   0  0  0  0  0  0  0  0  0  0  0  0
   11.6884  -16.9182   27.2205 O   0  0  0  0  0  0  0  0  0  0  0  0
  2  1  1  0
  3  4  1  6
  3  2  1  0
  5  3  1  0
  6  5  2  0
  8  7  1  6
  8  9  1  0
 10  8  1  0
 10 11  1  6
 11  5  1  0
 12 10  1  0
 13 12  2  0
 14 12  1  0
 15 14  1  0
 15 16  1  1
 16 17  1  0
 17 25  1  0
 18 17  2  0
 18 19  1  0
 19 20  1  0
 20 21  1  0
 21 22  2  0
 23 22  1  0
 24 23  2  0
 25 20  2  0
 25 24  1  0
 26 15  1  0
 26 27  1  0
 28 26  2  0
M  END
$$$$
