SVW.pdb
     RDKit          3D

 28 29  0  0  1  0  0  0  0  0999 V2000
    6.3823  -20.4002   21.6677 O   0  0  0  0  0  0  0  0  0  0  0  0
    7.3970  -19.4257   21.6105 C   0  0  0  0  0  0  0  0  0  0  0  0
    7.2907  -18.7390   20.2687 C   0  0  2  0  0  0  0  0  0  0  0  0
    7.6892  -19.6764   19.2681 N   0  0  0  0  0  0  0  0  0  0  0  0
    8.1837  -17.5204   20.2931 C   0  0  0  0  0  0  0  0  0  0  0  0
    9.3766  -17.6902   19.9739 O   0  0  0  0  0  0  0  0  0  0  0  0
    8.3394  -12.5230   20.7484 C   0  0  0  0  0  0  0  0  0  0  0  0
    7.5039  -13.7975   20.5921 C   0  0  2  0  0  0  0  0  0  0  0  0
    6.3114  -13.6661   21.4714 C   0  0  0  0  0  0  0  0  0  0  0  0
    8.3656  -15.0002   20.8142 C   0  0  2  0  0  0  0  0  0  0  0  0
    7.6884  -16.2678   20.6567 N   0  0  0  0  0  0  0  0  0  0  0  0
    9.2492  -14.9875   21.9779 C   0  0  0  0  0  0  0  0  0  0  0  0
   10.2287  -14.1438   22.0315 O   0  0  0  0  0  0  0  0  0  0  0  0
    9.1229  -15.8292   23.0816 N   0  0  0  0  0  0  0  0  0  0  0  0
    9.9716  -15.7211   24.2768 C   0  0  1  0  0  0  0  0  0  0  0  0
    9.0545  -16.1379   25.4013 C   0  0  0  0  0  0  0  0  0  0  0  0
    7.8616  -15.3244   25.6004 C   0  0  0  0  0  0  0  0  0  0  0  0
    6.5357  -15.7810   25.4900 C   0  0  0  0  0  0  0  0  0  0  0  0
    5.6987  -14.7553   25.7028 N   0  0  0  0  0  0  0  0  0  0  0  0
    6.3906  -13.6261   25.9527 C   0  0  0  0  0  0  0  0  0  0  0  0
    5.9466  -12.3537   26.2404 C   0  0  0  0  0  0  0  0  0  0  0  0
    6.8915  -11.3807   26.4796 C   0  0  0  0  0  0  0  0  0  0  0  0
    8.2498  -11.7134   26.4231 C   0  0  0  0  0  0  0  0  0  0  0  0
    8.6526  -12.9923   26.1324 C   0  0  0  0  0  0  0  0  0  0  0  0
    7.7334  -13.9828   25.8887 C   0  0  0  0  0  0  0  0  0  0  0  0
   11.0824  -16.6489   24.1479 C   0  0  0  0  0  0  0  0  0  0  0  0
   12.1181  -16.6326   25.0663 O   0  0  0  0  0  0  0  0  0  0  0  0
   11.1908  -17.5097   23.2261 O   0  0  0  0  0  0  0  0  0  0  0  0
  2  1  1  0
  3  4  1  6
  3  2  1  0
  5  3  1  0
  6  5  2  0
  8  7  1  1
  8  9  1  0
 10  8  1  0
 10 11  1  1
 11  5  1  0
 12 10  1  0
 13 12  2  0
 14 12  1  0
 15 14  1  0
 15 16  1  1
 16 17  1  0
 17 25  1  0
 18 17  2  0
 18 19  1  0
 19 20  1  0
 20 21  1  0
 21 22  2  0
 23 22  1  0
 24 23  2  0
 25 20  2  0
 25 24  1  0
 26 15  1  0
 26 27  1  0
 28 26  2  0
M  END
$$$$
