SVW.pdb
     RDKit          3D

 28 29  0  0  1  0  0  0  0  0999 V2000
   10.5379  -13.5972   18.3244 O   0  0  0  0  0  0  0  0  0  0  0  0
    9.6295  -14.3058   17.5149 C   0  0  0  0  0  0  0  0  0  0  0  0
    8.2359  -13.9368   17.9676 C   0  0  2  0  0  0  0  0  0  0  0  0
    8.0988  -12.5211   17.8422 N   0  0  0  0  0  0  0  0  0  0  0  0
    8.0687  -14.3992   19.3964 C   0  0  0  0  0  0  0  0  0  0  0  0
    8.2131  -13.5389   20.2869 O   0  0  0  0  0  0  0  0  0  0  0  0
    5.2911  -17.2869   20.1965 C   0  0  0  0  0  0  0  0  0  0  0  0
    6.6374  -17.6047   20.8548 C   0  0  2  0  0  0  0  0  0  0  0  0
    6.3592  -18.3235   22.1270 C   0  0  0  0  0  0  0  0  0  0  0  0
    7.4581  -16.3582   20.9601 C   0  0  2  0  0  0  0  0  0  0  0  0
    7.7668  -15.7278   19.6961 N   0  0  0  0  0  0  0  0  0  0  0  0
    8.6102  -16.3866   21.8585 C   0  0  0  0  0  0  0  0  0  0  0  0
    9.7400  -16.8580   21.4394 O   0  0  0  0  0  0  0  0  0  0  0  0
    8.6042  -15.9271   23.1742 N   0  0  0  0  0  0  0  0  0  0  0  0
    9.7899  -15.9580   24.0424 C   0  0  1  0  0  0  0  0  0  0  0  0
    9.6100  -14.7505   24.9307 C   0  0  0  0  0  0  0  0  0  0  0  0
    8.2554  -14.4864   25.3993 C   0  0  0  0  0  0  0  0  0  0  0  0
    7.2576  -15.4578   25.5979 C   0  0  0  0  0  0  0  0  0  0  0  0
    6.1294  -14.8533   25.9977 N   0  0  0  0  0  0  0  0  0  0  0  0
    6.3125  -13.5207   26.0810 C   0  0  0  0  0  0  0  0  0  0  0  0
    5.4417  -12.5234   26.4631 C   0  0  0  0  0  0  0  0  0  0  0  0
    5.9118  -11.2289   26.4777 C   0  0  0  0  0  0  0  0  0  0  0  0
    7.2380  -10.9753   26.1095 C   0  0  0  0  0  0  0  0  0  0  0  0
    8.0746  -11.9958   25.7341 C   0  0  0  0  0  0  0  0  0  0  0  0
    7.6337  -13.2960   25.7092 C   0  0  0  0  0  0  0  0  0  0  0  0
    9.7650  -17.1815   24.8258 C   0  0  0  0  0  0  0  0  0  0  0  0
    8.6681  -18.0242   24.7726 O   0  0  0  0  0  0  0  0  0  0  0  0
   10.7016  -17.5606   25.5883 O   0  0  0  0  0  0  0  0  0  0  0  0
  2  1  1  0
  3  4  1  1
  3  2  1  0
  5  3  1  0
  6  5  2  0
  8  7  1  1
  8  9  1  0
 10  8  1  0
 10 11  1  6
 11  5  1  0
 12 10  1  0
 13 12  2  0
 14 12  1  0
 15 14  1  0
 15 16  1  1
 16 17  1  0
 17 25  1  0
 18 17  2  0
 18 19  1  0
 19 20  1  0
 20 21  1  0
 21 22  2  0
 23 22  1  0
 24 23  2  0
 25 20  2  0
 25 24  1  0
 26 15  1  0
 26 27  1  0
 28 26  2  0
M  END
$$$$
