SVW.pdb
     RDKit          3D

 28 29  0  0  1  0  0  0  0  0999 V2000
    7.2785  -19.1392   23.3559 O   0  0  0  0  0  0  0  0  0  0  0  0
    7.0418  -19.8962   22.1925 C   0  0  0  0  0  0  0  0  0  0  0  0
    6.5582  -18.9443   21.1232 C   0  0  2  0  0  0  0  0  0  0  0  0
    6.3751  -19.6957   19.9230 N   0  0  0  0  0  0  0  0  0  0  0  0
    7.5942  -17.8565   20.9597 C   0  0  0  0  0  0  0  0  0  0  0  0
    8.6293  -18.1548   20.3326 O   0  0  0  0  0  0  0  0  0  0  0  0
    6.6632  -14.1675   20.0126 C   0  0  0  0  0  0  0  0  0  0  0  0
    7.5158  -14.1147   21.2843 C   0  0  2  0  0  0  0  0  0  0  0  0
    8.3563  -12.8895   21.2136 C   0  0  0  0  0  0  0  0  0  0  0  0
    8.2417  -15.4106   21.4634 C   0  0  2  0  0  0  0  0  0  0  0  0
    7.3936  -16.5812   21.4885 N   0  0  0  0  0  0  0  0  0  0  0  0
    9.2827  -15.4612   22.4877 C   0  0  0  0  0  0  0  0  0  0  0  0
   10.4093  -14.8569   22.2889 O   0  0  0  0  0  0  0  0  0  0  0  0
    9.1643  -16.1204   23.7099 N   0  0  0  0  0  0  0  0  0  0  0  0
   10.2498  -16.1816   24.6992 C   0  0  1  0  0  0  0  0  0  0  0  0
    9.8629  -15.1337   25.7148 C   0  0  0  0  0  0  0  0  0  0  0  0
    8.4406  -14.8360   25.8296 C   0  0  0  0  0  0  0  0  0  0  0  0
    7.4000  -15.7766   25.7260 C   0  0  0  0  0  0  0  0  0  0  0  0
    6.2233  -15.1449   25.8462 N   0  0  0  0  0  0  0  0  0  0  0  0
    6.4140  -13.8231   26.0270 C   0  0  0  0  0  0  0  0  0  0  0  0
    5.5010  -12.8077   26.2120 C   0  0  0  0  0  0  0  0  0  0  0  0
    5.9856  -11.5321   26.3986 C   0  0  0  0  0  0  0  0  0  0  0  0
    7.3682  -11.3149   26.3942 C   0  0  0  0  0  0  0  0  0  0  0  0
    8.2460  -12.3524   26.2060 C   0  0  0  0  0  0  0  0  0  0  0  0
    7.7920  -13.6345   26.0166 C   0  0  0  0  0  0  0  0  0  0  0  0
   10.2599  -17.5037   25.3021 C   0  0  0  0  0  0  0  0  0  0  0  0
   11.2422  -17.8492   26.2143 O   0  0  0  0  0  0  0  0  0  0  0  0
    9.4103  -18.4085   25.0536 O   0  0  0  0  0  0  0  0  0  0  0  0
  2  1  1  0
  3  4  1  6
  3  2  1  0
  5  3  1  0
  6  5  2  0
  8  7  1  6
  8  9  1  0
 10  8  1  0
 10 11  1  1
 11  5  1  0
 12 10  1  0
 13 12  2  0
 14 12  1  0
 15 14  1  0
 15 16  1  1
 16 17  1  0
 17 25  1  0
 18 17  2  0
 18 19  1  0
 19 20  1  0
 20 21  1  0
 21 22  2  0
 23 22  1  0
 24 23  2  0
 25 20  2  0
 25 24  1  0
 26 15  1  0
 26 27  1  0
 28 26  2  0
M  END
$$$$
