SVW.pdb
     RDKit          3D

 28 29  0  0  1  0  0  0  0  0999 V2000
   11.7393  -13.3506   18.5092 O   0  0  0  0  0  0  0  0  0  0  0  0
   10.7024  -13.1288   19.4356 C   0  0  0  0  0  0  0  0  0  0  0  0
    9.4578  -13.7893   18.8894 C   0  0  2  0  0  0  0  0  0  0  0  0
    8.6548  -12.7732   18.2883 N   0  0  0  0  0  0  0  0  0  0  0  0
    8.7470  -14.4712   20.0353 C   0  0  0  0  0  0  0  0  0  0  0  0
    8.0061  -13.7596   20.7413 O   0  0  0  0  0  0  0  0  0  0  0  0
    6.6762  -17.7621   19.9903 C   0  0  0  0  0  0  0  0  0  0  0  0
    7.8637  -17.9803   20.9332 C   0  0  2  0  0  0  0  0  0  0  0  0
    7.4162  -18.8935   22.0187 C   0  0  0  0  0  0  0  0  0  0  0  0
    8.4214  -16.6597   21.3618 C   0  0  2  0  0  0  0  0  0  0  0  0
    8.9172  -15.8333   20.2841 N   0  0  0  0  0  0  0  0  0  0  0  0
    9.3135  -16.6513   22.5191 C   0  0  0  0  0  0  0  0  0  0  0  0
   10.5795  -16.8620   22.3557 O   0  0  0  0  0  0  0  0  0  0  0  0
    8.9096  -16.4200   23.8328 N   0  0  0  0  0  0  0  0  0  0  0  0
    9.8371  -16.4308   24.9731 C   0  0  1  0  0  0  0  0  0  0  0  0
    9.6368  -15.0745   25.6054 C   0  0  0  0  0  0  0  0  0  0  0  0
    8.2779  -14.7454   26.0172 C   0  0  0  0  0  0  0  0  0  0  0  0
    7.2088  -15.6556   26.1020 C   0  0  0  0  0  0  0  0  0  0  0  0
    6.1018  -14.9992   26.4783 N   0  0  0  0  0  0  0  0  0  0  0  0
    6.3669  -13.6895   26.6538 C   0  0  0  0  0  0  0  0  0  0  0  0
    5.5431  -12.6585   27.0505 C   0  0  0  0  0  0  0  0  0  0  0  0
    6.0956  -11.4026   27.1703 C   0  0  0  0  0  0  0  0  0  0  0  0
    7.4544  -11.2200   26.8892 C   0  0  0  0  0  0  0  0  0  0  0  0
    8.2423  -12.2721   26.4959 C   0  0  0  0  0  0  0  0  0  0  0  0
    7.7191  -13.5352   26.3671 C   0  0  0  0  0  0  0  0  0  0  0  0
    9.4422  -17.4884   25.8879 C   0  0  0  0  0  0  0  0  0  0  0  0
   10.2542  -17.8292   26.9560 O   0  0  0  0  0  0  0  0  0  0  0  0
    8.3716  -18.1565   25.7879 O   0  0  0  0  0  0  0  0  0  0  0  0
  2  1  1  0
  3  4  1  1
  3  2  1  0
  5  3  1  0
  6  5  2  0
  8  7  1  6
  8  9  1  0
 10  8  1  0
 10 11  1  6
 11  5  1  0
 12 10  1  0
 13 12  2  0
 14 12  1  0
 15 14  1  0
 15 16  1  1
 16 17  1  0
 17 25  1  0
 18 17  2  0
 18 19  1  0
 19 20  1  0
 20 21  1  0
 21 22  2  0
 23 22  1  0
 24 23  2  0
 25 20  2  0
 25 24  1  0
 26 15  1  0
 26 27  1  0
 28 26  2  0
M  END
$$$$
