SVW.pdb
     RDKit          3D

 28 29  0  0  1  0  0  0  0  0999 V2000
    7.4133  -20.6827   21.5076 O   0  0  0  0  0  0  0  0  0  0  0  0
    8.4755  -19.7759   21.3287 C   0  0  0  0  0  0  0  0  0  0  0  0
    8.1521  -18.9326   20.1172 C   0  0  2  0  0  0  0  0  0  0  0  0
    8.7352  -19.5664   18.9784 N   0  0  0  0  0  0  0  0  0  0  0  0
    8.7126  -17.5482   20.3458 C   0  0  0  0  0  0  0  0  0  0  0  0
    9.9297  -17.3907   20.1273 O   0  0  0  0  0  0  0  0  0  0  0  0
    7.6530  -12.7153   20.9746 C   0  0  0  0  0  0  0  0  0  0  0  0
    7.1378  -14.1433   20.7689 C   0  0  2  0  0  0  0  0  0  0  0  0
    5.8750  -14.2832   21.5422 C   0  0  0  0  0  0  0  0  0  0  0  0
    8.2227  -15.1247   21.0822 C   0  0  2  0  0  0  0  0  0  0  0  0
    7.8995  -16.5013   20.7806 N   0  0  0  0  0  0  0  0  0  0  0  0
    8.9024  -14.9865   22.3683 C   0  0  0  0  0  0  0  0  0  0  0  0
    9.2144  -13.8098   22.8067 O   0  0  0  0  0  0  0  0  0  0  0  0
    9.2515  -16.0478   23.2015 N   0  0  0  0  0  0  0  0  0  0  0  0
   10.0025  -15.8745   24.4530 C   0  0  1  0  0  0  0  0  0  0  0  0
    9.0094  -16.2689   25.5196 C   0  0  0  0  0  0  0  0  0  0  0  0
    7.8529  -15.3970   25.6829 C   0  0  0  0  0  0  0  0  0  0  0  0
    6.5118  -15.7786   25.4979 C   0  0  0  0  0  0  0  0  0  0  0  0
    5.7207  -14.7145   25.6973 N   0  0  0  0  0  0  0  0  0  0  0  0
    6.4583  -13.6304   26.0091 C   0  0  0  0  0  0  0  0  0  0  0  0
    6.0686  -12.3430   26.3084 C   0  0  0  0  0  0  0  0  0  0  0  0
    7.0509  -11.4284   26.6175 C   0  0  0  0  0  0  0  0  0  0  0  0
    8.3908  -11.8325   26.6169 C   0  0  0  0  0  0  0  0  0  0  0  0
    8.7392  -13.1242   26.3125 C   0  0  0  0  0  0  0  0  0  0  0  0
    7.7819  -14.0576   25.9997 C   0  0  0  0  0  0  0  0  0  0  0  0
   11.1383  -16.7808   24.4469 C   0  0  0  0  0  0  0  0  0  0  0  0
   12.0985  -16.7061   25.4413 O   0  0  0  0  0  0  0  0  0  0  0  0
   11.3356  -17.6728   23.5708 O   0  0  0  0  0  0  0  0  0  0  0  0
  2  1  1  0
  3  4  1  6
  3  2  1  0
  5  3  1  0
  6  5  2  0
  8  7  1  1
  8  9  1  0
 10  8  1  0
 10 11  1  1
 11  5  1  0
 12 10  1  0
 13 12  2  0
 14 12  1  0
 15 14  1  0
 15 16  1  1
 16 17  1  0
 17 25  1  0
 18 17  2  0
 18 19  1  0
 19 20  1  0
 20 21  1  0
 21 22  2  0
 23 22  1  0
 24 23  2  0
 25 20  2  0
 25 24  1  0
 26 15  1  0
 26 27  1  0
 28 26  2  0
M  END
$$$$
