SVW.pdb
     RDKit          3D

 28 29  0  0  1  0  0  0  0  0999 V2000
    7.7379  -18.8059   21.8402 O   0  0  0  0  0  0  0  0  0  0  0  0
    7.7259  -19.2880   20.5173 C   0  0  0  0  0  0  0  0  0  0  0  0
    7.3529  -18.1329   19.6174 C   0  0  2  0  0  0  0  0  0  0  0  0
    7.3936  -18.6017   18.2693 N   0  0  0  0  0  0  0  0  0  0  0  0
    8.3376  -17.0126   19.8590 C   0  0  0  0  0  0  0  0  0  0  0  0
    9.4826  -17.1585   19.3884 O   0  0  0  0  0  0  0  0  0  0  0  0
    7.0147  -13.1605   21.8101 C   0  0  0  0  0  0  0  0  0  0  0  0
    8.0467  -13.3985   20.7032 C   0  0  2  0  0  0  0  0  0  0  0  0
    7.3526  -13.2393   19.3973 C   0  0  0  0  0  0  0  0  0  0  0  0
    8.7450  -14.7019   20.9314 C   0  0  2  0  0  0  0  0  0  0  0  0
    7.9743  -15.8722   20.5758 N   0  0  0  0  0  0  0  0  0  0  0  0
    9.4531  -14.8714   22.1984 C   0  0  0  0  0  0  0  0  0  0  0  0
   10.3442  -14.0047   22.5571 O   0  0  0  0  0  0  0  0  0  0  0  0
    9.2417  -15.9184   23.0937 N   0  0  0  0  0  0  0  0  0  0  0  0
    9.9429  -16.0303   24.3806 C   0  0  1  0  0  0  0  0  0  0  0  0
    8.8612  -16.4734   25.3361 C   0  0  0  0  0  0  0  0  0  0  0  0
    7.7245  -15.5742   25.4906 C   0  0  0  0  0  0  0  0  0  0  0  0
    6.3823  -15.9049   25.2305 C   0  0  0  0  0  0  0  0  0  0  0  0
    5.6146  -14.8268   25.4458 N   0  0  0  0  0  0  0  0  0  0  0  0
    6.3689  -13.7818   25.8398 C   0  0  0  0  0  0  0  0  0  0  0  0
    6.0042  -12.4979   26.1826 C   0  0  0  0  0  0  0  0  0  0  0  0
    6.9980  -11.6296   26.5762 C   0  0  0  0  0  0  0  0  0  0  0  0
    8.3243  -12.0748   26.6139 C   0  0  0  0  0  0  0  0  0  0  0  0
    8.6480  -13.3614   26.2642 C   0  0  0  0  0  0  0  0  0  0  0  0
    7.6786  -14.2492   25.8670 C   0  0  0  0  0  0  0  0  0  0  0  0
   10.9751  -17.0464   24.2648 C   0  0  0  0  0  0  0  0  0  0  0  0
   11.9320  -17.1880   25.2550 O   0  0  0  0  0  0  0  0  0  0  0  0
   11.0807  -17.8495   23.2920 O   0  0  0  0  0  0  0  0  0  0  0  0
  2  1  1  0
  3  4  1  6
  3  2  1  0
  5  3  1  0
  6  5  2  0
  8  7  1  1
  8  9  1  0
 10  8  1  0
 10 11  1  1
 11  5  1  0
 12 10  1  0
 13 12  2  0
 14 12  1  0
 15 14  1  0
 15 16  1  1
 16 17  1  0
 17 25  1  0
 18 17  2  0
 18 19  1  0
 19 20  1  0
 20 21  1  0
 21 22  2  0
 23 22  1  0
 24 23  2  0
 25 20  2  0
 25 24  1  0
 26 15  1  0
 26 27  1  0
 28 26  2  0
M  END
$$$$
