SVW.pdb
     RDKit          3D

 28 29  0  0  1  0  0  0  0  0999 V2000
    7.0108  -14.1228   21.1520 O   0  0  0  0  0  0  0  0  0  0  0  0
    7.7644  -13.7441   20.0246 C   0  0  0  0  0  0  0  0  0  0  0  0
    8.4253  -14.9899   19.4819 C   0  0  2  0  0  0  0  0  0  0  0  0
    7.6756  -15.4196   18.3453 N   0  0  0  0  0  0  0  0  0  0  0  0
    8.4399  -16.0292   20.5786 C   0  0  0  0  0  0  0  0  0  0  0  0
    7.4366  -16.7629   20.6721 O   0  0  0  0  0  0  0  0  0  0  0  0
   12.1136  -17.7455   21.7701 C   0  0  0  0  0  0  0  0  0  0  0  0
   10.6937  -18.2657   22.0155 C   0  0  2  0  0  0  0  0  0  0  0  0
   10.2657  -19.0018   20.7959 C   0  0  0  0  0  0  0  0  0  0  0  0
    9.8108  -17.1424   22.4593 C   0  0  2  0  0  0  0  0  0  0  0  0
    9.5289  -16.1552   21.4414 N   0  0  0  0  0  0  0  0  0  0  0  0
   10.1009  -16.5319   23.7549 C   0  0  0  0  0  0  0  0  0  0  0  0
   10.8295  -15.4643   23.8131 O   0  0  0  0  0  0  0  0  0  0  0  0
    9.6396  -17.0096   24.9802 N   0  0  0  0  0  0  0  0  0  0  0  0
    9.9942  -16.3958   26.2679 C   0  0  1  0  0  0  0  0  0  0  0  0
    8.6816  -16.3516   27.0126 C   0  0  0  0  0  0  0  0  0  0  0  0
    7.6506  -15.4831   26.4584 C   0  0  0  0  0  0  0  0  0  0  0  0
    6.4834  -15.9177   25.8049 C   0  0  0  0  0  0  0  0  0  0  0  0
    5.7848  -14.8487   25.3962 N   0  0  0  0  0  0  0  0  0  0  0  0
    6.4194  -13.7108   25.7406 C   0  0  0  0  0  0  0  0  0  0  0  0
    6.0615  -12.3950   25.5417 C   0  0  0  0  0  0  0  0  0  0  0  0
    6.9023  -11.4185   26.0277 C   0  0  0  0  0  0  0  0  0  0  0  0
    8.0736  -11.7910   26.6970 C   0  0  0  0  0  0  0  0  0  0  0  0
    8.3961  -13.1127   26.8746 C   0  0  0  0  0  0  0  0  0  0  0  0
    7.5776  -14.1080   26.4004 C   0  0  0  0  0  0  0  0  0  0  0  0
   10.9448  -17.2566   26.9510 C   0  0  0  0  0  0  0  0  0  0  0  0
   11.5997  -16.8130   28.0871 O   0  0  0  0  0  0  0  0  0  0  0  0
   11.2403  -18.4303   26.5801 O   0  0  0  0  0  0  0  0  0  0  0  0
  2  1  1  0
  3  4  1  6
  3  2  1  0
  5  3  1  0
  6  5  2  0
  8  7  1  6
  8  9  1  0
 10  8  1  0
 10 11  1  6
 11  5  1  0
 12 10  1  0
 13 12  2  0
 14 12  1  0
 15 14  1  0
 15 16  1  1
 16 17  1  0
 17 25  1  0
 18 17  2  0
 18 19  1  0
 19 20  1  0
 20 21  1  0
 21 22  2  0
 23 22  1  0
 24 23  2  0
 25 20  2  0
 25 24  1  0
 26 15  1  0
 26 27  1  0
 28 26  2  0
M  END
$$$$
