SVW.pdb
     RDKit          3D

 28 29  0  0  1  0  0  0  0  0999 V2000
   10.3936  -12.7135   18.0987 O   0  0  0  0  0  0  0  0  0  0  0  0
    9.3552  -12.7050   19.0496 C   0  0  0  0  0  0  0  0  0  0  0  0
    8.3963  -13.8139   18.6834 C   0  0  2  0  0  0  0  0  0  0  0  0
    7.1958  -13.2090   18.2022 N   0  0  0  0  0  0  0  0  0  0  0  0
    8.1548  -14.6522   19.9172 C   0  0  0  0  0  0  0  0  0  0  0  0
    7.2739  -14.2544   20.7042 O   0  0  0  0  0  0  0  0  0  0  0  0
    8.7277  -19.1419   21.9879 C   0  0  0  0  0  0  0  0  0  0  0  0
    8.7331  -18.2105   20.7716 C   0  0  2  0  0  0  0  0  0  0  0  0
    9.8237  -18.6587   19.8648 C   0  0  0  0  0  0  0  0  0  0  0  0
    8.7865  -16.7853   21.2235 C   0  0  2  0  0  0  0  0  0  0  0  0
    8.8874  -15.8151   20.1564 N   0  0  0  0  0  0  0  0  0  0  0  0
    9.6706  -16.4684   22.3429 C   0  0  0  0  0  0  0  0  0  0  0  0
   10.9292  -16.2591   22.1281 O   0  0  0  0  0  0  0  0  0  0  0  0
    9.2637  -16.3593   23.6714 N   0  0  0  0  0  0  0  0  0  0  0  0
   10.1981  -16.1293   24.7825 C   0  0  1  0  0  0  0  0  0  0  0  0
    9.8024  -14.7681   25.3021 C   0  0  0  0  0  0  0  0  0  0  0  0
    8.4041  -14.5986   25.6770 C   0  0  0  0  0  0  0  0  0  0  0  0
    7.4242  -15.6072   25.6476 C   0  0  0  0  0  0  0  0  0  0  0  0
    6.2467  -15.0868   26.0223 N   0  0  0  0  0  0  0  0  0  0  0  0
    6.3792  -13.7758   26.3053 C   0  0  0  0  0  0  0  0  0  0  0  0
    5.4469  -12.8590   26.7404 C   0  0  0  0  0  0  0  0  0  0  0  0
    5.8725  -11.5705   26.9764 C   0  0  0  0  0  0  0  0  0  0  0  0
    7.2171  -11.2422   26.7694 C   0  0  0  0  0  0  0  0  0  0  0  0
    8.1155  -12.1836   26.3346 C   0  0  0  0  0  0  0  0  0  0  0  0
    7.7201  -13.4757   26.0903 C   0  0  0  0  0  0  0  0  0  0  0  0
    9.9822  -17.1491   25.7947 C   0  0  0  0  0  0  0  0  0  0  0  0
   10.8237  -17.2368   26.8905 O   0  0  0  0  0  0  0  0  0  0  0  0
    9.0495  -18.0042   25.7596 O   0  0  0  0  0  0  0  0  0  0  0  0
  2  1  1  0
  3  4  1  1
  3  2  1  0
  5  3  1  0
  6  5  2  0
  8  7  1  1
  8  9  1  0
 10  8  1  0
 10 11  1  6
 11  5  1  0
 12 10  1  0
 13 12  2  0
 14 12  1  0
 15 14  1  0
 15 16  1  1
 16 17  1  0
 17 25  1  0
 18 17  2  0
 18 19  1  0
 19 20  1  0
 20 21  1  0
 21 22  2  0
 23 22  1  0
 24 23  2  0
 25 20  2  0
 25 24  1  0
 26 15  1  0
 26 27  1  0
 28 26  2  0
M  END
$$$$
