DGP.pdb
     RDKit          3D

 20 20  0  0  1  0  0  0  0  0999 V2000
   19.0513  -23.8708   -6.6303 N   0  0  0  0  0  0  0  0  0  0  0  0
   18.5750  -24.7223   -7.6715 C   0  0  1  0  0  0  0  0  0  0  0  0
   17.0832  -24.8952   -7.6174 C   0  0  0  0  0  0  0  0  0  0  0  0
   16.6171  -25.4541   -6.3360 C   0  0  0  0  0  0  0  0  0  0  0  0
   15.9964  -26.5476   -6.3705 O   0  0  0  0  0  0  0  0  0  0  0  0
   19.0478  -24.3183   -9.0178 C   0  0  0  0  0  0  0  0  0  0  0  0
   18.6120  -24.9268  -10.0265 O   0  0  0  0  0  0  0  0  0  0  0  0
   16.8110  -24.8671   -5.1026 O   0  0  0  0  0  0  0  0  0  0  0  0
   19.9800  -23.2636   -9.2126 N   0  0  0  0  0  0  0  0  0  0  0  0
   20.4492  -22.8370  -10.4945 C   0  0  0  0  0  0  0  0  0  0  0  0
   19.5923  -21.7819  -11.1073 C   0  0  0  0  0  0  0  0  0  0  0  0
   18.3735  -21.8580  -10.8061 O   0  0  0  0  0  0  0  0  0  0  0  0
   20.1391  -20.7965  -11.9499 N   0  0  0  0  0  0  0  0  0  0  0  0
   21.5998  -20.5980  -12.0908 C   0  0  0  0  0  0  0  0  0  0  0  0
   21.7279  -20.5010  -13.6068 C   0  0  0  0  0  0  0  0  0  0  0  0
   20.3425  -20.1621  -14.1279 C   0  0  0  0  0  0  0  0  0  0  0  0
   19.6394  -19.8047  -12.8222 C   0  0  1  0  0  0  0  0  0  0  0  0
   18.2398  -19.5549  -12.9454 C   0  0  0  0  0  0  0  0  0  0  0  0
   17.4506  -20.6202  -13.4421 O   0  0  0  0  0  0  0  0  0  0  0  0
   17.5701  -18.5310  -12.6840 O   0  0  0  0  0  0  0  0  0  0  0  0
  2  1  1  1
  3  4  1  0
  3  2  1  0
  4  5  2  0
  6  7  2  0
  6  2  1  0
  8  4  1  0
  9  6  1  0
 10  9  1  0
 11 10  1  0
 12 11  2  0
 13 11  1  0
 13 17  1  0
 14 13  1  0
 14 15  1  0
 15 16  1  0
 17 16  1  0
 18 19  1  0
 17 18  1  6
 20 18  2  0
M  END
$$$$
