DGP.pdb
     RDKit          3D

 20 20  0  0  1  0  0  0  0  0999 V2000
   21.8185  -19.8552  -13.1416 N   0  0  0  0  0  0  0  0  0  0  0  0
   21.7824  -21.1721  -13.6899 C   0  0  1  0  0  0  0  0  0  0  0  0
   20.4687  -21.4668  -14.3573 C   0  0  0  0  0  0  0  0  0  0  0  0
   19.3120  -21.2321  -13.4750 C   0  0  0  0  0  0  0  0  0  0  0  0
   18.3487  -20.5724  -13.9429 O   0  0  0  0  0  0  0  0  0  0  0  0
   22.9405  -21.4711  -14.5665 C   0  0  0  0  0  0  0  0  0  0  0  0
   22.9286  -21.0638  -15.7547 O   0  0  0  0  0  0  0  0  0  0  0  0
   19.2078  -21.6822  -12.1750 O   0  0  0  0  0  0  0  0  0  0  0  0
   24.0698  -22.2046  -14.1126 N   0  0  0  0  0  0  0  0  0  0  0  0
   25.2484  -22.4229  -14.8927 C   0  0  0  0  0  0  0  0  0  0  0  0
   25.9328  -21.1565  -15.2816 C   0  0  0  0  0  0  0  0  0  0  0  0
   25.2315  -20.1211  -15.1483 O   0  0  0  0  0  0  0  0  0  0  0  0
   27.2577  -21.1593  -15.7554 N   0  0  0  0  0  0  0  0  0  0  0  0
   28.2627  -22.1415  -15.2885 C   0  0  0  0  0  0  0  0  0  0  0  0
   28.8763  -22.5725  -16.6158 C   0  0  0  0  0  0  0  0  0  0  0  0
   28.5329  -21.4817  -17.6148 C   0  0  0  0  0  0  0  0  0  0  0  0
   28.0179  -20.3994  -16.6712 C   0  0  1  0  0  0  0  0  0  0  0  0
   27.4750  -19.2497  -17.3193 C   0  0  0  0  0  0  0  0  0  0  0  0
   27.9147  -17.9911  -16.8427 O   0  0  0  0  0  0  0  0  0  0  0  0
   26.6561  -19.1571  -18.2606 O   0  0  0  0  0  0  0  0  0  0  0  0
  2  1  1  6
  3  4  1  0
  3  2  1  0
  4  5  2  0
  6  7  2  0
  6  2  1  0
  8  4  1  0
  9  6  1  0
 10  9  1  0
 11 10  1  0
 12 11  2  0
 13 11  1  0
 13 17  1  0
 14 13  1  0
 14 15  1  0
 15 16  1  0
 17 16  1  0
 18 19  1  0
 17 18  1  6
 20 18  2  0
M  END
$$$$
