DGP.pdb
     RDKit          3D

 20 20  0  0  1  0  0  0  0  0999 V2000
   24.6701  -18.1585  -19.2100 N   0  0  0  0  0  0  0  0  0  0  0  0
   24.0346  -17.9709  -17.9463 C   0  0  1  0  0  0  0  0  0  0  0  0
   22.5563  -18.2309  -18.0169 C   0  0  0  0  0  0  0  0  0  0  0  0
   21.7957  -17.0793  -18.5334 C   0  0  0  0  0  0  0  0  0  0  0  0
   21.3841  -17.1401  -19.7205 O   0  0  0  0  0  0  0  0  0  0  0  0
   24.6879  -18.7225  -16.8475 C   0  0  0  0  0  0  0  0  0  0  0  0
   24.7712  -19.9732  -16.9278 O   0  0  0  0  0  0  0  0  0  0  0  0
   21.5021  -15.9406  -17.8119 O   0  0  0  0  0  0  0  0  0  0  0  0
   25.2266  -18.0795  -15.7003 N   0  0  0  0  0  0  0  0  0  0  0  0
   25.8423  -18.7713  -14.6105 C   0  0  0  0  0  0  0  0  0  0  0  0
   24.8785  -19.5908  -13.8214 C   0  0  0  0  0  0  0  0  0  0  0  0
   23.6716  -19.2736  -13.9782 O   0  0  0  0  0  0  0  0  0  0  0  0
   25.3212  -20.6276  -12.9794 N   0  0  0  0  0  0  0  0  0  0  0  0
   26.6777  -21.2114  -13.0895 C   0  0  0  0  0  0  0  0  0  0  0  0
   27.0965  -21.2341  -11.6239 C   0  0  0  0  0  0  0  0  0  0  0  0
   25.8144  -21.1401  -10.8157 C   0  0  0  0  0  0  0  0  0  0  0  0
   24.7819  -21.3795  -11.9127 C   0  0  1  0  0  0  0  0  0  0  0  0
   23.4245  -21.2240  -11.5008 C   0  0  0  0  0  0  0  0  0  0  0  0
   23.0076  -19.9077  -11.1877 O   0  0  0  0  0  0  0  0  0  0  0  0
   22.5136  -22.0707  -11.3642 O   0  0  0  0  0  0  0  0  0  0  0  0
  2  1  1  6
  3  4  1  0
  3  2  1  0
  4  5  2  0
  6  7  2  0
  6  2  1  0
  8  4  1  0
  9  6  1  0
 10  9  1  0
 11 10  1  0
 12 11  2  0
 13 11  1  0
 13 17  1  0
 14 13  1  0
 14 15  1  0
 15 16  1  0
 17 16  1  0
 18 19  1  0
 17 18  1  1
 20 18  2  0
M  END
$$$$
