DGP.pdb
     RDKit          3D

 20 20  0  0  1  0  0  0  0  0999 V2000
   25.6710  -17.7670  -17.2543 N   0  0  0  0  0  0  0  0  0  0  0  0
   26.5979  -18.8499  -17.3217 C   0  0  1  0  0  0  0  0  0  0  0  0
   27.8169  -18.4965  -18.1261 C   0  0  0  0  0  0  0  0  0  0  0  0
   27.4883  -17.9151  -19.4397 C   0  0  0  0  0  0  0  0  0  0  0  0
   26.9243  -18.6614  -20.2806 O   0  0  0  0  0  0  0  0  0  0  0  0
   26.9417  -19.4073  -15.9912 C   0  0  0  0  0  0  0  0  0  0  0  0
   27.6718  -20.4273  -15.9261 O   0  0  0  0  0  0  0  0  0  0  0  0
   27.7532  -16.6142  -19.8148 O   0  0  0  0  0  0  0  0  0  0  0  0
   26.4749  -18.8294  -14.7797 N   0  0  0  0  0  0  0  0  0  0  0  0
   26.7855  -19.3370  -13.4793 C   0  0  0  0  0  0  0  0  0  0  0  0
   25.6270  -20.0088  -12.8238 C   0  0  0  0  0  0  0  0  0  0  0  0
   24.5497  -19.9413  -13.4694 O   0  0  0  0  0  0  0  0  0  0  0  0
   25.7661  -20.6563  -11.5823 N   0  0  0  0  0  0  0  0  0  0  0  0
   27.0371  -21.2859  -11.1566 C   0  0  0  0  0  0  0  0  0  0  0  0
   27.1522  -20.7571   -9.7315 C   0  0  0  0  0  0  0  0  0  0  0  0
   25.7566  -20.3127   -9.3308 C   0  0  0  0  0  0  0  0  0  0  0  0
   24.9400  -20.9190  -10.4676 C   0  0  1  0  0  0  0  0  0  0  0  0
   23.5568  -20.5679  -10.4639 C   0  0  0  0  0  0  0  0  0  0  0  0
   22.6845  -21.4494   -9.7811 O   0  0  0  0  0  0  0  0  0  0  0  0
   22.9643  -19.5904  -10.9726 O   0  0  0  0  0  0  0  0  0  0  0  0
  2  1  1  1
  3  4  1  0
  3  2  1  0
  4  5  2  0
  6  7  2  0
  6  2  1  0
  8  4  1  0
  9  6  1  0
 10  9  1  0
 11 10  1  0
 12 11  2  0
 13 11  1  0
 13 17  1  0
 14 13  1  0
 14 15  1  0
 15 16  1  0
 17 16  1  0
 18 19  1  0
 17 18  1  6
 20 18  2  0
M  END
$$$$
