DGP.pdb
     RDKit          3D

 20 20  0  0  1  0  0  0  0  0999 V2000
   18.6731   -8.4612  -14.9124 N   0  0  0  0  0  0  0  0  0  0  0  0
   19.8308   -7.7565  -15.3589 C   0  0  1  0  0  0  0  0  0  0  0  0
   19.7586   -6.2921  -15.0299 C   0  0  0  0  0  0  0  0  0  0  0  0
   18.4655   -5.6859  -15.3934 C   0  0  0  0  0  0  0  0  0  0  0  0
   17.9999   -5.9494  -16.5318 O   0  0  0  0  0  0  0  0  0  0  0  0
   21.1006   -8.3746  -14.9067 C   0  0  0  0  0  0  0  0  0  0  0  0
   21.0941   -9.1078  -13.8868 O   0  0  0  0  0  0  0  0  0  0  0  0
   17.7287   -4.8517  -14.5782 O   0  0  0  0  0  0  0  0  0  0  0  0
   22.3318   -8.1689  -15.5858 N   0  0  0  0  0  0  0  0  0  0  0  0
   23.5523   -8.8339  -15.2489 C   0  0  0  0  0  0  0  0  0  0  0  0
   23.9566   -9.8561  -16.2563 C   0  0  0  0  0  0  0  0  0  0  0  0
   23.0022  -10.3579  -16.9038 O   0  0  0  0  0  0  0  0  0  0  0  0
   25.3073  -10.2051  -16.4397 N   0  0  0  0  0  0  0  0  0  0  0  0
   26.4158   -9.3976  -15.8811 C   0  0  0  0  0  0  0  0  0  0  0  0
   27.2842  -10.4917  -15.2707 C   0  0  0  0  0  0  0  0  0  0  0  0
   26.8693  -11.7872  -15.9453 C   0  0  0  0  0  0  0  0  0  0  0  0
   26.0173  -11.2403  -17.0864 C   0  0  1  0  0  0  0  0  0  0  0  0
   25.3479  -12.2335  -17.8622 C   0  0  0  0  0  0  0  0  0  0  0  0
   24.4575  -13.0846  -17.1641 O   0  0  0  0  0  0  0  0  0  0  0  0
   25.4121  -12.4905  -19.0850 O   0  0  0  0  0  0  0  0  0  0  0  0
  2  1  1  1
  3  4  1  0
  3  2  1  0
  4  5  2  0
  6  7  2  0
  6  2  1  0
  8  4  1  0
  9  6  1  0
 10  9  1  0
 11 10  1  0
 12 11  2  0
 13 11  1  0
 13 17  1  0
 14 13  1  0
 14 15  1  0
 15 16  1  0
 17 16  1  0
 18 19  1  0
 17 18  1  1
 20 18  2  0
M  END
$$$$
