DGP.pdb
     RDKit          3D

 20 20  0  0  1  0  0  0  0  0999 V2000
   21.1178   -6.6750  -15.8141 N   0  0  0  0  0  0  0  0  0  0  0  0
   22.5113   -6.4861  -15.5718 C   0  0  1  0  0  0  0  0  0  0  0  0
   22.7598   -5.5427  -14.4288 C   0  0  0  0  0  0  0  0  0  0  0  0
   22.0472   -4.2614  -14.5777 C   0  0  0  0  0  0  0  0  0  0  0  0
   21.9277   -3.7947  -15.7396 O   0  0  0  0  0  0  0  0  0  0  0  0
   23.2558   -7.7600  -15.4243 C   0  0  0  0  0  0  0  0  0  0  0  0
   24.4585   -7.7266  -15.0636 O   0  0  0  0  0  0  0  0  0  0  0  0
   21.5022   -3.5368  -13.5379 O   0  0  0  0  0  0  0  0  0  0  0  0
   22.6585   -9.0246  -15.6764 N   0  0  0  0  0  0  0  0  0  0  0  0
   23.3163  -10.2767  -15.4642 C   0  0  0  0  0  0  0  0  0  0  0  0
   22.4543  -11.4499  -15.7863 C   0  0  0  0  0  0  0  0  0  0  0  0
   21.2528  -11.1656  -16.0262 O   0  0  0  0  0  0  0  0  0  0  0  0
   22.9785  -12.7555  -15.8102 N   0  0  0  0  0  0  0  0  0  0  0  0
   24.4267  -13.0291  -15.6662 C   0  0  0  0  0  0  0  0  0  0  0  0
   24.4012  -14.1632  -14.6479 C   0  0  0  0  0  0  0  0  0  0  0  0
   22.9965  -14.7383  -14.6898 C   0  0  0  0  0  0  0  0  0  0  0  0
   22.4621  -14.0625  -15.9486 C   0  0  1  0  0  0  0  0  0  0  0  0
   21.0788  -14.2950  -16.2110 C   0  0  0  0  0  0  0  0  0  0  0  0
   20.7563  -14.7954  -17.4955 O   0  0  0  0  0  0  0  0  0  0  0  0
   20.0739  -14.1293  -15.4844 O   0  0  0  0  0  0  0  0  0  0  0  0
  2  1  1  1
  3  4  1  0
  3  2  1  0
  4  5  2  0
  6  7  2  0
  6  2  1  0
  8  4  1  0
  9  6  1  0
 10  9  1  0
 11 10  1  0
 12 11  2  0
 13 11  1  0
 13 17  1  0
 14 13  1  0
 14 15  1  0
 15 16  1  0
 17 16  1  0
 18 19  1  0
 17 18  1  1
 20 18  2  0
M  END
$$$$
