DGP.pdb
     RDKit          3D

 20 20  0  0  1  0  0  0  0  0999 V2000
   21.4912  -21.1387  -14.6244 N   0  0  0  0  0  0  0  0  0  0  0  0
   21.5898  -21.1207  -13.2010 C   0  0  1  0  0  0  0  0  0  0  0  0
   20.4161  -21.7947  -12.5481 C   0  0  0  0  0  0  0  0  0  0  0  0
   19.1222  -21.2352  -12.9771 C   0  0  0  0  0  0  0  0  0  0  0  0
   19.0210  -19.9827  -13.0342 O   0  0  0  0  0  0  0  0  0  0  0  0
   22.8870  -21.6355  -12.6995 C   0  0  0  0  0  0  0  0  0  0  0  0
   23.1518  -22.8563  -12.8309 O   0  0  0  0  0  0  0  0  0  0  0  0
   18.0147  -21.9829  -13.3204 O   0  0  0  0  0  0  0  0  0  0  0  0
   23.8479  -20.7971  -12.0725 N   0  0  0  0  0  0  0  0  0  0  0  0
   25.2050  -21.1775  -11.8300 C   0  0  0  0  0  0  0  0  0  0  0  0
   26.1526  -20.6360  -12.8459 C   0  0  0  0  0  0  0  0  0  0  0  0
   25.6419  -20.4215  -13.9751 O   0  0  0  0  0  0  0  0  0  0  0  0
   27.5027  -20.3971  -12.5297 N   0  0  0  0  0  0  0  0  0  0  0  0
   27.9542  -20.1201  -11.1468 C   0  0  0  0  0  0  0  0  0  0  0  0
   29.1643  -21.0425  -11.0534 C   0  0  0  0  0  0  0  0  0  0  0  0
   29.5666  -21.3591  -12.4829 C   0  0  0  0  0  0  0  0  0  0  0  0
   28.7233  -20.3358  -13.2370 C   0  0  1  0  0  0  0  0  0  0  0  0
   28.7695  -20.4536  -14.6584 C   0  0  0  0  0  0  0  0  0  0  0  0
   29.1918  -19.3065  -15.3727 O   0  0  0  0  0  0  0  0  0  0  0  0
   28.4944  -21.4199  -15.4040 O   0  0  0  0  0  0  0  0  0  0  0  0
  2  1  1  6
  3  4  1  0
  3  2  1  0
  4  5  2  0
  6  7  2  0
  6  2  1  0
  8  4  1  0
  9  6  1  0
 10  9  1  0
 11 10  1  0
 12 11  2  0
 13 11  1  0
 13 17  1  0
 14 13  1  0
 14 15  1  0
 15 16  1  0
 17 16  1  0
 18 19  1  0
 17 18  1  6
 20 18  2  0
M  END
$$$$
