DGP.pdb
     RDKit          3D

 20 20  0  0  1  0  0  0  0  0999 V2000
   17.7130  -11.1999  -16.9442 N   0  0  0  0  0  0  0  0  0  0  0  0
   17.8285  -10.2433  -17.9967 C   0  0  1  0  0  0  0  0  0  0  0  0
   16.5136   -9.5832  -18.3024 C   0  0  0  0  0  0  0  0  0  0  0  0
   15.4024  -10.5444  -18.4163 C   0  0  0  0  0  0  0  0  0  0  0  0
   15.4293  -11.3520  -19.3803 O   0  0  0  0  0  0  0  0  0  0  0  0
   18.9156   -9.2595  -17.7742 C   0  0  0  0  0  0  0  0  0  0  0  0
   19.2385   -8.4841  -18.7081 O   0  0  0  0  0  0  0  0  0  0  0  0
   14.3360  -10.6237  -17.5447 O   0  0  0  0  0  0  0  0  0  0  0  0
   19.6106   -9.1590  -16.5388 N   0  0  0  0  0  0  0  0  0  0  0  0
   20.6465   -8.2079  -16.2785 C   0  0  0  0  0  0  0  0  0  0  0  0
   20.1227   -6.8519  -15.9466 C   0  0  0  0  0  0  0  0  0  0  0  0
   19.1309   -6.4925  -16.6314 O   0  0  0  0  0  0  0  0  0  0  0  0
   20.7166   -6.0665  -14.9414 N   0  0  0  0  0  0  0  0  0  0  0  0
   21.7157   -6.6149  -13.9959 C   0  0  0  0  0  0  0  0  0  0  0  0
   22.7786   -5.5231  -14.0415 C   0  0  0  0  0  0  0  0  0  0  0  0
   22.0901   -4.2846  -14.5870 C   0  0  0  0  0  0  0  0  0  0  0  0
   20.6319   -4.7254  -14.5077 C   0  0  1  0  0  0  0  0  0  0  0  0
   19.6987   -3.8119  -15.0832 C   0  0  0  0  0  0  0  0  0  0  0  0
   18.6015   -3.4363  -14.2711 O   0  0  0  0  0  0  0  0  0  0  0  0
   19.6803   -3.2703  -16.2108 O   0  0  0  0  0  0  0  0  0  0  0  0
  2  1  1  1
  3  4  1  0
  3  2  1  0
  4  5  2  0
  6  7  2  0
  6  2  1  0
  8  4  1  0
  9  6  1  0
 10  9  1  0
 11 10  1  0
 12 11  2  0
 13 11  1  0
 13 17  1  0
 14 13  1  0
 14 15  1  0
 15 16  1  0
 17 16  1  0
 18 19  1  0
 17 18  1  6
 20 18  2  0
M  END
$$$$
