DGP.pdb
     RDKit          3D

 20 20  0  0  1  0  0  0  0  0999 V2000
   16.6680  -10.7055  -14.2447 N   0  0  0  0  0  0  0  0  0  0  0  0
   15.7703  -11.3265  -13.3255 C   0  0  1  0  0  0  0  0  0  0  0  0
   15.9893  -12.8108  -13.2424 C   0  0  0  0  0  0  0  0  0  0  0  0
   15.1820  -13.5649  -14.2175 C   0  0  0  0  0  0  0  0  0  0  0  0
   14.4608  -12.9048  -15.0090 O   0  0  0  0  0  0  0  0  0  0  0  0
   15.7638  -10.6813  -11.9903 C   0  0  0  0  0  0  0  0  0  0  0  0
   14.9172  -11.0487  -11.1383 O   0  0  0  0  0  0  0  0  0  0  0  0
   15.1587  -14.9401  -14.3264 O   0  0  0  0  0  0  0  0  0  0  0  0
   16.6831   -9.6576  -11.6348 N   0  0  0  0  0  0  0  0  0  0  0  0
   16.6151   -8.9081  -10.4186 C   0  0  0  0  0  0  0  0  0  0  0  0
   15.9743   -7.5729  -10.5919 C   0  0  0  0  0  0  0  0  0  0  0  0
   16.1483   -7.0525  -11.7236 O   0  0  0  0  0  0  0  0  0  0  0  0
   15.2416   -6.9749   -9.5500 N   0  0  0  0  0  0  0  0  0  0  0  0
   14.7557   -7.7443   -8.3818 C   0  0  0  0  0  0  0  0  0  0  0  0
   15.1632   -6.8174   -7.2422 C   0  0  0  0  0  0  0  0  0  0  0  0
   15.3741   -5.4486   -7.8648 C   0  0  0  0  0  0  0  0  0  0  0  0
   14.7679   -5.6800   -9.2453 C   0  0  1  0  0  0  0  0  0  0  0  0
   14.9247   -4.5937  -10.1572 C   0  0  0  0  0  0  0  0  0  0  0  0
   16.2342   -4.3626  -10.6432 O   0  0  0  0  0  0  0  0  0  0  0  0
   14.0842   -3.7878  -10.6148 O   0  0  0  0  0  0  0  0  0  0  0  0
  2  1  1  6
  3  4  1  0
  3  2  1  0
  4  5  2  0
  6  7  2  0
  6  2  1  0
  8  4  1  0
  9  6  1  0
 10  9  1  0
 11 10  1  0
 12 11  2  0
 13 11  1  0
 13 17  1  0
 14 13  1  0
 14 15  1  0
 15 16  1  0
 17 16  1  0
 18 19  1  0
 17 18  1  6
 20 18  2  0
M  END
$$$$
