DGP.pdb
     RDKit          3D

 20 20  0  0  1  0  0  0  0  0999 V2000
   20.6435   -7.4602  -17.0222 N   0  0  0  0  0  0  0  0  0  0  0  0
   21.1221   -7.0132  -15.7544 C   0  0  1  0  0  0  0  0  0  0  0  0
   20.0149   -6.8976  -14.7450 C   0  0  0  0  0  0  0  0  0  0  0  0
   18.9015   -6.0514  -15.2097 C   0  0  0  0  0  0  0  0  0  0  0  0
   17.8532   -6.6303  -15.5947 O   0  0  0  0  0  0  0  0  0  0  0  0
   22.2660   -7.8098  -15.2486 C   0  0  0  0  0  0  0  0  0  0  0  0
   22.2365   -8.2408  -14.0692 O   0  0  0  0  0  0  0  0  0  0  0  0
   18.9241   -4.6727  -15.2537 O   0  0  0  0  0  0  0  0  0  0  0  0
   23.4010   -8.1067  -16.0506 N   0  0  0  0  0  0  0  0  0  0  0  0
   24.4494   -8.9956  -15.6557 C   0  0  0  0  0  0  0  0  0  0  0  0
   24.9300   -9.8617  -16.7702 C   0  0  0  0  0  0  0  0  0  0  0  0
   24.0945  -10.0368  -17.6938 O   0  0  0  0  0  0  0  0  0  0  0  0
   26.2213  -10.4206  -16.7548 N   0  0  0  0  0  0  0  0  0  0  0  0
   27.3050   -9.8846  -15.8998 C   0  0  0  0  0  0  0  0  0  0  0  0
   27.8577  -11.1732  -15.3014 C   0  0  0  0  0  0  0  0  0  0  0  0
   27.3946  -12.2959  -16.2128 C   0  0  0  0  0  0  0  0  0  0  0  0
   26.8809  -11.4889  -17.4010 C   0  0  1  0  0  0  0  0  0  0  0  0
   26.2375  -12.2603  -18.4146 C   0  0  0  0  0  0  0  0  0  0  0  0
   25.1084  -13.0136  -18.0121 O   0  0  0  0  0  0  0  0  0  0  0  0
   26.5042  -12.3907  -19.6300 O   0  0  0  0  0  0  0  0  0  0  0  0
  2  1  1  6
  3  4  1  0
  3  2  1  0
  4  5  2  0
  6  7  2  0
  6  2  1  0
  8  4  1  0
  9  6  1  0
 10  9  1  0
 11 10  1  0
 12 11  2  0
 13 11  1  0
 13 17  1  0
 14 13  1  0
 14 15  1  0
 15 16  1  0
 17 16  1  0
 18 19  1  0
 17 18  1  1
 20 18  2  0
M  END
$$$$
