DGP.pdb
     RDKit          3D

 20 20  0  0  1  0  0  0  0  0999 V2000
   18.1357  -12.2251  -14.4884 N   0  0  0  0  0  0  0  0  0  0  0  0
   17.8197  -11.8329  -15.8235 C   0  0  1  0  0  0  0  0  0  0  0  0
   16.5203  -12.4258  -16.2905 C   0  0  0  0  0  0  0  0  0  0  0  0
   16.4154  -13.8689  -16.0109 C   0  0  0  0  0  0  0  0  0  0  0  0
   17.2319  -14.6331  -16.5866 O   0  0  0  0  0  0  0  0  0  0  0  0
   17.8767  -10.3654  -16.0294 C   0  0  0  0  0  0  0  0  0  0  0  0
   16.8290   -9.6873  -15.8875 O   0  0  0  0  0  0  0  0  0  0  0  0
   15.4887  -14.4429  -15.1652 O   0  0  0  0  0  0  0  0  0  0  0  0
   19.0773   -9.6922  -16.3830 N   0  0  0  0  0  0  0  0  0  0  0  0
   19.1862   -8.2736  -16.5280 C   0  0  0  0  0  0  0  0  0  0  0  0
   20.2922   -7.6881  -15.7173 C   0  0  0  0  0  0  0  0  0  0  0  0
   20.7041   -8.4253  -14.7853 O   0  0  0  0  0  0  0  0  0  0  0  0
   20.8077   -6.4101  -16.0021 N   0  0  0  0  0  0  0  0  0  0  0  0
   20.6829   -5.7870  -17.3396 C   0  0  0  0  0  0  0  0  0  0  0  0
   20.2197   -4.3858  -16.9576 C   0  0  0  0  0  0  0  0  0  0  0  0
   20.5942   -4.1994  -15.4979 C   0  0  0  0  0  0  0  0  0  0  0  0
   21.5036   -5.4068  -15.2929 C   0  0  1  0  0  0  0  0  0  0  0  0
   21.9378   -5.6073  -13.9484 C   0  0  0  0  0  0  0  0  0  0  0  0
   20.9469   -6.0051  -13.0187 O   0  0  0  0  0  0  0  0  0  0  0  0
   23.0720   -5.4896  -13.4337 O   0  0  0  0  0  0  0  0  0  0  0  0
  2  1  1  1
  3  4  1  0
  3  2  1  0
  4  5  2  0
  6  7  2  0
  6  2  1  0
  8  4  1  0
  9  6  1  0
 10  9  1  0
 11 10  1  0
 12 11  2  0
 13 11  1  0
 13 17  1  0
 14 13  1  0
 14 15  1  0
 15 16  1  0
 17 16  1  0
 18 19  1  0
 17 18  1  1
 20 18  2  0
M  END
$$$$
