DGP.pdb
     RDKit          3D

 20 20  0  0  1  0  0  0  0  0999 V2000
   20.4585  -21.4809  -14.8109 N   0  0  0  0  0  0  0  0  0  0  0  0
   20.3225  -20.9173  -13.5070 C   0  0  1  0  0  0  0  0  0  0  0  0
   19.2848  -21.6346  -12.6905 C   0  0  0  0  0  0  0  0  0  0  0  0
   17.9143  -21.4181  -13.1868 C   0  0  0  0  0  0  0  0  0  0  0  0
   17.2363  -22.4353  -13.4832 O   0  0  0  0  0  0  0  0  0  0  0  0
   21.6140  -20.7871  -12.7901 C   0  0  0  0  0  0  0  0  0  0  0  0
   21.6197  -20.3330  -11.6190 O   0  0  0  0  0  0  0  0  0  0  0  0
   17.3207  -20.1835  -13.3503 O   0  0  0  0  0  0  0  0  0  0  0  0
   22.8528  -21.1581  -13.3794 N   0  0  0  0  0  0  0  0  0  0  0  0
   24.1255  -20.9611  -12.7574 C   0  0  0  0  0  0  0  0  0  0  0  0
   25.1905  -20.5636  -13.7223 C   0  0  0  0  0  0  0  0  0  0  0  0
   24.8121  -20.4959  -14.9198 O   0  0  0  0  0  0  0  0  0  0  0  0
   26.5022  -20.2938  -13.2904 N   0  0  0  0  0  0  0  0  0  0  0  0
   26.8383  -20.0875  -11.8631 C   0  0  0  0  0  0  0  0  0  0  0  0
   28.0766  -20.9672  -11.7333 C   0  0  0  0  0  0  0  0  0  0  0  0
   28.5963  -21.1774  -13.1444 C   0  0  0  0  0  0  0  0  0  0  0  0
   27.7679  -20.1415  -13.8978 C   0  0  1  0  0  0  0  0  0  0  0  0
   27.9236  -20.1676  -15.3161 C   0  0  0  0  0  0  0  0  0  0  0  0
   28.3676  -18.9684  -15.9237 O   0  0  0  0  0  0  0  0  0  0  0  0
   27.7310  -21.0903  -16.1388 O   0  0  0  0  0  0  0  0  0  0  0  0
  2  1  1  6
  3  4  1  0
  3  2  1  0
  4  5  2  0
  6  7  2  0
  6  2  1  0
  8  4  1  0
  9  6  1  0
 10  9  1  0
 11 10  1  0
 12 11  2  0
 13 11  1  0
 13 17  1  0
 14 13  1  0
 14 15  1  0
 15 16  1  0
 17 16  1  0
 18 19  1  0
 17 18  1  6
 20 18  2  0
M  END
$$$$
