DGP.pdb
     RDKit          3D

 20 20  0  0  1  0  0  0  0  0999 V2000
   20.6391  -11.1753  -19.1942 N   0  0  0  0  0  0  0  0  0  0  0  0
   19.7686  -10.9633  -18.0837 C   0  0  1  0  0  0  0  0  0  0  0  0
   19.3812  -12.2543  -17.4193 C   0  0  0  0  0  0  0  0  0  0  0  0
   18.3525  -12.9981  -18.1677 C   0  0  0  0  0  0  0  0  0  0  0  0
   18.7199  -13.6229  -19.1957 O   0  0  0  0  0  0  0  0  0  0  0  0
   20.2875   -9.9650  -17.1177 C   0  0  0  0  0  0  0  0  0  0  0  0
   19.5477   -9.5826  -16.1774 O   0  0  0  0  0  0  0  0  0  0  0  0
   17.0176  -13.0596  -17.8244 O   0  0  0  0  0  0  0  0  0  0  0  0
   21.5967   -9.4208  -17.2146 N   0  0  0  0  0  0  0  0  0  0  0  0
   22.1630   -8.5230  -16.2561 C   0  0  0  0  0  0  0  0  0  0  0  0
   21.6120   -7.1410  -16.3554 C   0  0  0  0  0  0  0  0  0  0  0  0
   21.3144   -6.7795  -17.5227 O   0  0  0  0  0  0  0  0  0  0  0  0
   21.4524   -6.3356  -15.2127 N   0  0  0  0  0  0  0  0  0  0  0  0
   21.4492   -6.8980  -13.8428 C   0  0  0  0  0  0  0  0  0  0  0  0
   22.3855   -5.9254  -13.1347 C   0  0  0  0  0  0  0  0  0  0  0  0
   22.4280   -4.6756  -13.9961 C   0  0  0  0  0  0  0  0  0  0  0  0
   21.2706   -4.9605  -14.9480 C   0  0  1  0  0  0  0  0  0  0  0  0
   21.1155   -4.0112  -16.0022 C   0  0  0  0  0  0  0  0  0  0  0  0
   22.2468   -3.7924  -16.8248 O   0  0  0  0  0  0  0  0  0  0  0  0
   20.1276   -3.3197  -16.3355 O   0  0  0  0  0  0  0  0  0  0  0  0
  2  1  1  6
  3  4  1  0
  3  2  1  0
  4  5  2  0
  6  7  2  0
  6  2  1  0
  8  4  1  0
  9  6  1  0
 10  9  1  0
 11 10  1  0
 12 11  2  0
 13 11  1  0
 13 17  1  0
 14 13  1  0
 14 15  1  0
 15 16  1  0
 17 16  1  0
 18 19  1  0
 17 18  1  6
 20 18  2  0
M  END
$$$$
