DGP.pdb
     RDKit          3D

 20 20  0  0  1  0  0  0  0  0999 V2000
   16.2648   -8.1479  -18.7966 N   0  0  0  0  0  0  0  0  0  0  0  0
   17.2567   -7.8668  -19.7832 C   0  0  1  0  0  0  0  0  0  0  0  0
   16.9983   -6.5629  -20.4838 C   0  0  0  0  0  0  0  0  0  0  0  0
   16.8559   -5.4299  -19.5523 C   0  0  0  0  0  0  0  0  0  0  0  0
   16.8846   -4.2704  -20.0391 O   0  0  0  0  0  0  0  0  0  0  0  0
   18.6417   -7.9626  -19.2619 C   0  0  0  0  0  0  0  0  0  0  0  0
   19.6042   -7.7698  -20.0456 O   0  0  0  0  0  0  0  0  0  0  0  0
   16.6936   -5.5470  -18.1873 O   0  0  0  0  0  0  0  0  0  0  0  0
   18.9244   -8.2658  -17.9026 N   0  0  0  0  0  0  0  0  0  0  0  0
   20.2401   -8.2751  -17.3419 C   0  0  0  0  0  0  0  0  0  0  0  0
   20.4033   -7.3042  -16.2221 C   0  0  0  0  0  0  0  0  0  0  0  0
   20.0734   -6.1232  -16.5019 O   0  0  0  0  0  0  0  0  0  0  0  0
   20.8903   -7.7134  -14.9670 N   0  0  0  0  0  0  0  0  0  0  0  0
   20.7233   -9.0971  -14.4667 C   0  0  0  0  0  0  0  0  0  0  0  0
   22.1308   -9.3863  -13.9574 C   0  0  0  0  0  0  0  0  0  0  0  0
   22.7964   -8.0355  -13.7628 C   0  0  0  0  0  0  0  0  0  0  0  0
   21.5882   -7.1139  -13.8958 C   0  0  1  0  0  0  0  0  0  0  0  0
   21.8955   -5.7204  -13.8915 C   0  0  0  0  0  0  0  0  0  0  0  0
   22.8747   -5.2879  -14.8181 O   0  0  0  0  0  0  0  0  0  0  0  0
   21.4383   -4.7886  -13.1929 O   0  0  0  0  0  0  0  0  0  0  0  0
  2  1  1  1
  3  4  1  0
  3  2  1  0
  4  5  2  0
  6  7  2  0
  6  2  1  0
  8  4  1  0
  9  6  1  0
 10  9  1  0
 11 10  1  0
 12 11  2  0
 13 11  1  0
 13 17  1  0
 14 13  1  0
 14 15  1  0
 15 16  1  0
 17 16  1  0
 18 19  1  0
 17 18  1  6
 20 18  2  0
M  END
$$$$
