PCV.pdb
     RDKit          3D

 21 21  0  0  1  0  0  0  0  0999 V2000
   28.6811  -20.7684  -14.9620 N   0  0  0  0  0  0  0  0  0  0  0  0
   27.9740  -20.1216  -16.0285 C   0  0  0  0  0  0  0  0  0  0  0  0
   27.2342  -18.9419  -15.4343 C   0  0  0  0  0  0  0  0  0  0  0  0
   28.0596  -18.7062  -14.1703 C   0  0  0  0  0  0  0  0  0  0  0  0
   28.2673  -20.1608  -13.7264 C   0  0  1  0  0  0  0  0  0  0  0  0
   26.9802  -20.7335  -13.2926 C   0  0  0  0  0  0  0  0  0  0  0  0
   26.3711  -21.5707  -14.0376 O   0  0  0  0  0  0  0  0  0  0  0  0
   26.3410  -20.4196  -12.0729 N   0  0  0  0  0  0  0  0  0  0  0  0
   25.1067  -21.0145  -11.6366 C   0  0  1  0  0  0  0  0  0  0  0  0
   24.8596  -20.8520  -10.1602 C   0  0  0  0  0  0  0  0  0  0  0  0
   26.3422  -20.3838   -9.2605 S   0  0  0  0  0  0  0  0  0  0  0  0
   23.9734  -20.3866  -12.3638 C   0  0  0  0  0  0  0  0  0  0  0  0
   24.1365  -19.3578  -13.0941 O   0  0  0  0  0  0  0  0  0  0  0  0
   23.3493  -20.6217  -14.9603 C   0  0  0  0  0  0  0  0  0  0  0  0
   22.0149  -21.1646  -14.5519 C   0  0  1  0  0  0  0  0  0  0  0  0
   21.9726  -22.6575  -14.4856 C   0  0  0  0  0  0  0  0  0  0  0  0
   21.6271  -20.5281  -13.2150 C   0  0  2  0  0  0  0  0  0  0  0  0
   22.6476  -20.9256  -12.2646 N   0  0  0  0  0  0  0  0  0  0  0  0
   20.3183  -21.1158  -12.8425 C   0  0  0  0  0  0  0  0  0  0  0  0
   20.3063  -22.2370  -12.0309 O   0  0  0  0  0  0  0  0  0  0  0  0
   19.2139  -20.6559  -13.2203 O   0  0  0  0  0  0  0  0  0  0  0  0
  1  2  1  0
  3  2  1  0
  4  5  1  0
  4  3  1  0
  5  1  1  0
  5  6  1  6
  6  8  1  0
  7  6  2  0
  9 10  1  1
  9  8  1  0
  9 12  1  0
 11 10  1  0
 12 18  1  0
 13 12  2  0
 15 14  1  1
 15 16  1  0
 17 15  1  0
 17 18  1  1
 19 17  1  0
 19 20  1  0
 21 19  2  0
M  END
$$$$
