PCV.pdb
     RDKit          3D

 21 21  0  0  1  0  0  0  0  0999 V2000
   28.7241  -20.9338  -15.4252 N   0  0  0  0  0  0  0  0  0  0  0  0
   27.8478  -20.4182  -16.4362 C   0  0  0  0  0  0  0  0  0  0  0  0
   27.1605  -19.1971  -15.8631 C   0  0  0  0  0  0  0  0  0  0  0  0
   28.1510  -18.8120  -14.7654 C   0  0  0  0  0  0  0  0  0  0  0  0
   28.4720  -20.2067  -14.2107 C   0  0  1  0  0  0  0  0  0  0  0  0
   27.2822  -20.7557  -13.5356 C   0  0  0  0  0  0  0  0  0  0  0  0
   26.4517  -21.4709  -14.1881 O   0  0  0  0  0  0  0  0  0  0  0  0
   26.9739  -20.5471  -12.1732 N   0  0  0  0  0  0  0  0  0  0  0  0
   25.8077  -21.0806  -11.5229 C   0  0  1  0  0  0  0  0  0  0  0  0
   25.8948  -21.0374  -10.0203 C   0  0  0  0  0  0  0  0  0  0  0  0
   24.8530  -19.7602   -9.3059 S   0  0  0  0  0  0  0  0  0  0  0  0
   24.6130  -20.3001  -11.9363 C   0  0  0  0  0  0  0  0  0  0  0  0
   24.7174  -19.1393  -12.4462 O   0  0  0  0  0  0  0  0  0  0  0  0
   23.5687  -19.9506  -14.4201 C   0  0  0  0  0  0  0  0  0  0  0  0
   22.2860  -20.5339  -13.9135 C   0  0  1  0  0  0  0  0  0  0  0  0
   22.1577  -22.0021  -14.1639 C   0  0  0  0  0  0  0  0  0  0  0  0
   22.1632  -20.2014  -12.4246 C   0  0  2  0  0  0  0  0  0  0  0  0
   23.2922  -20.8356  -11.7721 N   0  0  0  0  0  0  0  0  0  0  0  0
   20.8929  -20.8141  -11.9684 C   0  0  0  0  0  0  0  0  0  0  0  0
   19.7055  -20.1677  -12.2650 O   0  0  0  0  0  0  0  0  0  0  0  0
   20.8281  -21.8897  -11.3258 O   0  0  0  0  0  0  0  0  0  0  0  0
  1  2  1  0
  3  2  1  0
  4  5  1  0
  4  3  1  0
  5  1  1  0
  5  6  1  6
  6  8  1  0
  7  6  2  0
  9 10  1  1
  9  8  1  0
  9 12  1  0
 11 10  1  0
 12 18  1  0
 13 12  2  0
 15 14  1  1
 15 16  1  0
 17 15  1  0
 17 18  1  1
 19 17  1  0
 19 20  1  0
 21 19  2  0
M  END
$$$$
