PCV.pdb
     RDKit          3D

 21 21  0  0  1  0  0  0  0  0999 V2000
   23.5943  -21.6188  -13.9812 N   0  0  0  0  0  0  0  0  0  0  0  0
   22.5943  -22.3740  -13.2844 C   0  0  0  0  0  0  0  0  0  0  0  0
   22.2512  -21.6165  -12.0193 C   0  0  0  0  0  0  0  0  0  0  0  0
   22.6924  -20.2075  -12.4125 C   0  0  0  0  0  0  0  0  0  0  0  0
   24.0107  -20.5422  -13.1239 C   0  0  1  0  0  0  0  0  0  0  0  0
   24.9915  -21.0355  -12.1402 C   0  0  0  0  0  0  0  0  0  0  0  0
   24.7160  -22.0505  -11.4187 O   0  0  0  0  0  0  0  0  0  0  0  0
   26.2602  -20.4543  -11.9225 N   0  0  0  0  0  0  0  0  0  0  0  0
   27.1903  -20.9074  -10.9238 C   0  0  1  0  0  0  0  0  0  0  0  0
   28.6285  -20.6744  -11.3040 C   0  0  0  0  0  0  0  0  0  0  0  0
   29.7780  -21.3590  -10.1052 S   0  0  0  0  0  0  0  0  0  0  0  0
   26.9307  -20.1914   -9.6482 C   0  0  0  0  0  0  0  0  0  0  0  0
   26.4610  -19.0093   -9.6296 O   0  0  0  0  0  0  0  0  0  0  0  0
   26.6978  -20.3888   -4.7567 C   0  0  0  0  0  0  0  0  0  0  0  0
   26.5455  -21.0262   -6.1030 C   0  0  1  0  0  0  0  0  0  0  0  0
   25.1447  -21.4497   -6.4081 C   0  0  0  0  0  0  0  0  0  0  0  0
   27.0850  -20.0560   -7.1566 C   0  0  2  0  0  0  0  0  0  0  0  0
   27.2039  -20.8160   -8.3859 N   0  0  0  0  0  0  0  0  0  0  0  0
   28.4233  -19.6324   -6.6807 C   0  0  0  0  0  0  0  0  0  0  0  0
   28.5052  -18.5510   -5.8206 O   0  0  0  0  0  0  0  0  0  0  0  0
   29.4932  -20.1978   -7.0121 O   0  0  0  0  0  0  0  0  0  0  0  0
  1  2  1  0
  3  2  1  0
  4  5  1  0
  4  3  1  0
  5  1  1  0
  5  6  1  1
  6  8  1  0
  7  6  2  0
  9 10  1  6
  9  8  1  0
  9 12  1  0
 11 10  1  0
 12 18  1  0
 13 12  2  0
 15 14  1  1
 15 16  1  0
 17 15  1  0
 17 18  1  6
 19 17  1  0
 19 20  1  0
 21 19  2  0
M  END
$$$$
