PCV.pdb
     RDKit          3D

 21 21  0  0  1  0  0  0  0  0999 V2000
   16.0171  -14.9972  -16.9774 N   0  0  0  0  0  0  0  0  0  0  0  0
   17.1373  -15.8916  -16.9487 C   0  0  0  0  0  0  0  0  0  0  0  0
   18.0118  -15.4885  -15.7805 C   0  0  0  0  0  0  0  0  0  0  0  0
   16.9934  -14.7470  -14.9158 C   0  0  0  0  0  0  0  0  0  0  0  0
   16.2547  -13.9618  -16.0084 C   0  0  1  0  0  0  0  0  0  0  0  0
   17.1534  -12.9406  -16.5762 C   0  0  0  0  0  0  0  0  0  0  0  0
   17.2561  -12.8135  -17.8412 O   0  0  0  0  0  0  0  0  0  0  0  0
   17.9407  -12.0572  -15.8052 N   0  0  0  0  0  0  0  0  0  0  0  0
   18.3868  -10.7697  -16.2648 C   0  0  1  0  0  0  0  0  0  0  0  0
   17.2585   -9.8698  -16.6939 C   0  0  0  0  0  0  0  0  0  0  0  0
   17.8079   -8.1968  -17.0488 S   0  0  0  0  0  0  0  0  0  0  0  0
   19.1289  -10.0873  -15.1735 C   0  0  0  0  0  0  0  0  0  0  0  0
   18.6112   -9.9062  -14.0256 O   0  0  0  0  0  0  0  0  0  0  0  0
   22.6775  -10.9232  -14.0890 C   0  0  0  0  0  0  0  0  0  0  0  0
   22.6395   -9.4617  -14.4130 C   0  0  1  0  0  0  0  0  0  0  0  0
   23.2223   -9.1311  -15.7494 C   0  0  0  0  0  0  0  0  0  0  0  0
   21.1911   -8.9817  -14.2934 C   0  0  2  0  0  0  0  0  0  0  0  0
   20.4646   -9.6069  -15.3815 N   0  0  0  0  0  0  0  0  0  0  0  0
   21.2275   -7.5111  -14.4754 C   0  0  0  0  0  0  0  0  0  0  0  0
   21.6058   -6.7233  -13.4020 O   0  0  0  0  0  0  0  0  0  0  0  0
   20.9345   -6.9333  -15.5498 O   0  0  0  0  0  0  0  0  0  0  0  0
  1  2  1  0
  3  2  1  0
  4  5  1  0
  4  3  1  0
  5  1  1  0
  5  6  1  6
  6  8  1  0
  7  6  2  0
  9 10  1  1
  9  8  1  0
  9 12  1  0
 11 10  1  0
 12 18  1  0
 13 12  2  0
 15 14  1  6
 15 16  1  0
 17 15  1  0
 17 18  1  6
 19 17  1  0
 19 20  1  0
 21 19  2  0
M  END
$$$$
