PCV.pdb
     RDKit          3D

 21 21  0  0  1  0  0  0  0  0999 V2000
   16.9636  -11.9912  -16.1148 N   0  0  0  0  0  0  0  0  0  0  0  0
   17.4848  -11.8259  -17.4402 C   0  0  0  0  0  0  0  0  0  0  0  0
   18.9239  -11.3742  -17.3103 C   0  0  0  0  0  0  0  0  0  0  0  0
   19.2458  -11.8778  -15.9042 C   0  0  0  0  0  0  0  0  0  0  0  0
   17.9438  -11.4899  -15.1899 C   0  0  1  0  0  0  0  0  0  0  0  0
   17.8464  -10.0216  -15.1033 C   0  0  0  0  0  0  0  0  0  0  0  0
   16.8340   -9.4195  -15.5927 O   0  0  0  0  0  0  0  0  0  0  0  0
   18.8191   -9.1945  -14.4997 N   0  0  0  0  0  0  0  0  0  0  0  0
   18.5839   -7.8302  -14.1108 C   0  0  1  0  0  0  0  0  0  0  0  0
   17.5244   -7.6904  -13.0500 C   0  0  0  0  0  0  0  0  0  0  0  0
   17.9209   -8.6042  -11.5551 S   0  0  0  0  0  0  0  0  0  0  0  0
   19.8430   -7.2448  -13.5823 C   0  0  0  0  0  0  0  0  0  0  0  0
   20.5650   -7.8649  -12.7383 O   0  0  0  0  0  0  0  0  0  0  0  0
   22.6619   -7.1089  -15.1229 C   0  0  0  0  0  0  0  0  0  0  0  0
   22.4931   -5.6432  -14.8674 C   0  0  1  0  0  0  0  0  0  0  0  0
   21.9588   -4.8898  -16.0429 C   0  0  0  0  0  0  0  0  0  0  0  0
   21.6038   -5.4708  -13.6337 C   0  0  2  0  0  0  0  0  0  0  0  0
   20.2882   -5.9501  -14.0110 N   0  0  0  0  0  0  0  0  0  0  0  0
   21.5622   -4.0157  -13.3550 C   0  0  0  0  0  0  0  0  0  0  0  0
   20.4313   -3.3065  -13.7212 O   0  0  0  0  0  0  0  0  0  0  0  0
   22.4955   -3.3836  -12.8040 O   0  0  0  0  0  0  0  0  0  0  0  0
  1  2  1  0
  3  2  1  0
  4  5  1  0
  4  3  1  0
  5  1  1  0
  5  6  1  6
  6  8  1  0
  7  6  2  0
  9 10  1  1
  9  8  1  0
  9 12  1  0
 11 10  1  0
 12 18  1  0
 13 12  2  0
 15 14  1  6
 15 16  1  0
 17 15  1  0
 17 18  1  6
 19 17  1  0
 19 20  1  0
 21 19  2  0
M  END
$$$$
