PCV.pdb
     RDKit          3D

 21 21  0  0  1  0  0  0  0  0999 V2000
   27.8630  -20.0525  -17.4904 N   0  0  0  0  0  0  0  0  0  0  0  0
   26.5611  -19.4543  -17.4347 C   0  0  0  0  0  0  0  0  0  0  0  0
   26.6027  -18.3715  -16.3775 C   0  0  0  0  0  0  0  0  0  0  0  0
   28.1028  -18.0848  -16.3342 C   0  0  0  0  0  0  0  0  0  0  0  0
   28.6390  -19.5214  -16.4028 C   0  0  1  0  0  0  0  0  0  0  0  0
   28.3063  -20.2330  -15.1554 C   0  0  0  0  0  0  0  0  0  0  0  0
   27.3173  -21.0378  -15.1245 O   0  0  0  0  0  0  0  0  0  0  0  0
   29.0200  -20.0916  -13.9448 N   0  0  0  0  0  0  0  0  0  0  0  0
   28.7353  -20.8431  -12.7523 C   0  0  1  0  0  0  0  0  0  0  0  0
   29.8711  -20.8392  -11.7638 C   0  0  0  0  0  0  0  0  0  0  0  0
   29.4383  -21.6361  -10.2133 S   0  0  0  0  0  0  0  0  0  0  0  0
   27.5407  -20.2682  -12.0815 C   0  0  0  0  0  0  0  0  0  0  0  0
   27.3993  -19.0131  -11.9300 O   0  0  0  0  0  0  0  0  0  0  0  0
   22.9124  -20.5919  -10.8305 C   0  0  0  0  0  0  0  0  0  0  0  0
   24.1150  -21.1359  -11.5375 C   0  0  1  0  0  0  0  0  0  0  0  0
   24.0996  -20.8958  -13.0130 C   0  0  0  0  0  0  0  0  0  0  0  0
   25.3651  -20.5447  -10.8815 C   0  0  2  0  0  0  0  0  0  0  0  0
   26.4998  -21.1180  -11.5790 N   0  0  0  0  0  0  0  0  0  0  0  0
   25.3443  -20.9981   -9.4705 C   0  0  0  0  0  0  0  0  0  0  0  0
   24.5704  -20.2949   -8.5636 O   0  0  0  0  0  0  0  0  0  0  0  0
   25.9894  -21.9867   -9.0455 O   0  0  0  0  0  0  0  0  0  0  0  0
  1  2  1  0
  3  2  1  0
  4  5  1  0
  4  3  1  0
  5  1  1  0
  5  6  1  1
  6  8  1  0
  7  6  2  0
  9 10  1  1
  9  8  1  0
  9 12  1  0
 11 10  1  0
 12 18  1  0
 13 12  2  0
 15 14  1  1
 15 16  1  0
 17 15  1  0
 17 18  1  6
 19 17  1  0
 19 20  1  0
 21 19  2  0
M  END
$$$$
