PCV.pdb
     RDKit          3D

 21 21  0  0  1  0  0  0  0  0999 V2000
   26.2301  -20.0916  -11.7850 N   0  0  0  0  0  0  0  0  0  0  0  0
   26.5977  -21.4775  -11.7913 C   0  0  0  0  0  0  0  0  0  0  0  0
   27.1794  -21.7878  -13.1541 C   0  0  0  0  0  0  0  0  0  0  0  0
   27.6048  -20.3891  -13.5982 C   0  0  0  0  0  0  0  0  0  0  0  0
   26.3845  -19.5885  -13.1230 C   0  0  1  0  0  0  0  0  0  0  0  0
   25.2085  -19.9524  -13.9341 C   0  0  0  0  0  0  0  0  0  0  0  0
   25.2782  -19.9235  -15.2074 O   0  0  0  0  0  0  0  0  0  0  0  0
   23.9630  -20.3455  -13.3969 N   0  0  0  0  0  0  0  0  0  0  0  0
   22.8377  -20.7542  -14.1935 C   0  0  1  0  0  0  0  0  0  0  0  0
   22.0961  -21.9291  -13.6132 C   0  0  0  0  0  0  0  0  0  0  0  0
   21.8215  -21.7663  -11.8455 S   0  0  0  0  0  0  0  0  0  0  0  0
   21.8828  -19.6224  -14.3141 C   0  0  0  0  0  0  0  0  0  0  0  0
   21.6626  -18.8283  -13.3449 O   0  0  0  0  0  0  0  0  0  0  0  0
   21.7803  -16.7113  -16.5653 C   0  0  0  0  0  0  0  0  0  0  0  0
   20.5453  -17.5045  -16.8615 C   0  0  1  0  0  0  0  0  0  0  0  0
   20.6677  -18.3692  -18.0749 C   0  0  0  0  0  0  0  0  0  0  0  0
   20.1911  -18.3227  -15.6175 C   0  0  2  0  0  0  0  0  0  0  0  0
   21.1727  -19.3872  -15.5383 N   0  0  0  0  0  0  0  0  0  0  0  0
   18.8411  -18.8833  -15.8629 C   0  0  0  0  0  0  0  0  0  0  0  0
   17.7453  -18.0499  -15.7193 O   0  0  0  0  0  0  0  0  0  0  0  0
   18.6298  -20.0746  -16.1948 O   0  0  0  0  0  0  0  0  0  0  0  0
  1  2  1  0
  3  2  1  0
  4  5  1  0
  4  3  1  0
  5  1  1  0
  5  6  1  6
  6  8  1  0
  7  6  2  0
  9 10  1  1
  9  8  1  0
  9 12  1  0
 11 10  1  0
 12 18  1  0
 13 12  2  0
 15 14  1  1
 15 16  1  0
 17 15  1  0
 17 18  1  6
 19 17  1  0
 19 20  1  0
 21 19  2  0
M  END
$$$$
