PCV.pdb
     RDKit          3D

 21 21  0  0  1  0  0  0  0  0999 V2000
   20.1587  -13.8650  -17.2609 N   0  0  0  0  0  0  0  0  0  0  0  0
   20.0753  -13.6799  -18.6803 C   0  0  0  0  0  0  0  0  0  0  0  0
   21.1387  -12.6759  -19.0716 C   0  0  0  0  0  0  0  0  0  0  0  0
   22.1008  -12.8187  -17.8932 C   0  0  0  0  0  0  0  0  0  0  0  0
   21.0865  -12.8959  -16.7438 C   0  0  1  0  0  0  0  0  0  0  0  0
   20.4154  -11.5926  -16.5887 C   0  0  0  0  0  0  0  0  0  0  0  0
   19.5193  -11.2333  -17.4223 O   0  0  0  0  0  0  0  0  0  0  0  0
   20.6936  -10.6733  -15.5532 N   0  0  0  0  0  0  0  0  0  0  0  0
   19.9676   -9.4488  -15.3498 C   0  0  1  0  0  0  0  0  0  0  0  0
   18.8840   -9.5676  -14.3112 C   0  0  0  0  0  0  0  0  0  0  0  0
   18.0586   -8.0040  -13.9941 S   0  0  0  0  0  0  0  0  0  0  0  0
   20.9085   -8.3854  -14.9124 C   0  0  0  0  0  0  0  0  0  0  0  0
   21.8439   -8.6212  -14.0830 O   0  0  0  0  0  0  0  0  0  0  0  0
   23.0106   -4.1402  -15.9640 C   0  0  0  0  0  0  0  0  0  0  0  0
   22.1368   -5.3010  -16.3260 C   0  0  1  0  0  0  0  0  0  0  0  0
   22.7521   -6.2209  -17.3311 C   0  0  0  0  0  0  0  0  0  0  0  0
   21.7625   -6.0392  -15.0386 C   0  0  2  0  0  0  0  0  0  0  0  0
   20.7908   -7.0472  -15.4160 N   0  0  0  0  0  0  0  0  0  0  0  0
   21.1396   -5.0295  -14.1501 C   0  0  0  0  0  0  0  0  0  0  0  0
   21.8909   -4.5164  -13.1069 O   0  0  0  0  0  0  0  0  0  0  0  0
   19.9656   -4.6089  -14.2869 O   0  0  0  0  0  0  0  0  0  0  0  0
  1  2  1  0
  3  2  1  0
  4  5  1  0
  4  3  1  0
  5  1  1  0
  5  6  1  6
  6  8  1  0
  7  6  2  0
  9 10  1  1
  9  8  1  0
  9 12  1  0
 11 10  1  0
 12 18  1  0
 13 12  2  0
 15 14  1  1
 15 16  1  0
 17 15  1  0
 17 18  1  6
 19 17  1  0
 19 20  1  0
 21 19  2  0
M  END
$$$$
