PCV.pdb
     RDKit          3D

 21 21  0  0  1  0  0  0  0  0999 V2000
   28.5549  -19.5985  -15.5430 N   0  0  0  0  0  0  0  0  0  0  0  0
   27.6418  -19.0830  -16.5209 C   0  0  0  0  0  0  0  0  0  0  0  0
   26.7494  -18.0775  -15.8249 C   0  0  0  0  0  0  0  0  0  0  0  0
   27.6283  -17.7075  -14.6311 C   0  0  0  0  0  0  0  0  0  0  0  0
   28.1493  -19.1017  -14.2561 C   0  0  1  0  0  0  0  0  0  0  0  0
   27.0405  -19.9184  -13.7303 C   0  0  0  0  0  0  0  0  0  0  0  0
   26.4908  -20.7999  -14.4703 O   0  0  0  0  0  0  0  0  0  0  0  0
   26.5164  -19.8008  -12.4241 N   0  0  0  0  0  0  0  0  0  0  0  0
   25.4478  -20.6150  -11.9112 C   0  0  1  0  0  0  0  0  0  0  0  0
   25.3445  -20.5805  -10.4094 C   0  0  0  0  0  0  0  0  0  0  0  0
   23.8528  -21.3763   -9.8026 S   0  0  0  0  0  0  0  0  0  0  0  0
   24.1557  -20.1417  -12.4714 C   0  0  0  0  0  0  0  0  0  0  0  0
   23.8562  -18.9058  -12.5075 O   0  0  0  0  0  0  0  0  0  0  0  0
   20.2985  -20.8457  -15.2853 C   0  0  0  0  0  0  0  0  0  0  0  0
   21.6700  -21.2264  -14.8203 C   0  0  1  0  0  0  0  0  0  0  0  0
   22.7519  -20.8506  -15.7811 C   0  0  0  0  0  0  0  0  0  0  0  0
   21.8982  -20.6048  -13.4404 C   0  0  2  0  0  0  0  0  0  0  0  0
   23.1965  -21.0717  -12.9942 N   0  0  0  0  0  0  0  0  0  0  0  0
   20.8287  -21.1400  -12.5648 C   0  0  0  0  0  0  0  0  0  0  0  0
   19.7129  -20.3547  -12.3321 O   0  0  0  0  0  0  0  0  0  0  0  0
   20.8735  -22.2684  -12.0183 O   0  0  0  0  0  0  0  0  0  0  0  0
  1  2  1  0
  3  2  1  0
  4  5  1  0
  4  3  1  0
  5  1  1  0
  5  6  1  6
  6  8  1  0
  7  6  2  0
  9 10  1  1
  9  8  1  0
  9 12  1  0
 11 10  1  0
 12 18  1  0
 13 12  2  0
 15 14  1  6
 15 16  1  0
 17 15  1  0
 17 18  1  1
 19 17  1  0
 19 20  1  0
 21 19  2  0
M  END
$$$$
