PCV.pdb
     RDKit          3D

 21 21  0  0  1  0  0  0  0  0999 V2000
   21.9296  -13.5884  -18.5819 N   0  0  0  0  0  0  0  0  0  0  0  0
   22.3494  -13.2542  -19.9115 C   0  0  0  0  0  0  0  0  0  0  0  0
   23.3578  -12.1303  -19.8014 C   0  0  0  0  0  0  0  0  0  0  0  0
   23.8327  -12.3249  -18.3623 C   0  0  0  0  0  0  0  0  0  0  0  0
   22.4850  -12.6110  -17.6855 C   0  0  1  0  0  0  0  0  0  0  0  0
   21.6571  -11.3914  -17.6983 C   0  0  0  0  0  0  0  0  0  0  0  0
   20.6899  -11.2857  -18.5231 O   0  0  0  0  0  0  0  0  0  0  0  0
   21.8540  -10.2877  -16.8394 N   0  0  0  0  0  0  0  0  0  0  0  0
   20.8104   -9.3800  -16.4460 C   0  0  1  0  0  0  0  0  0  0  0  0
   19.6577  -10.0636  -15.7595 C   0  0  0  0  0  0  0  0  0  0  0  0
   18.4953   -8.8987  -15.0395 S   0  0  0  0  0  0  0  0  0  0  0  0
   21.3655   -8.3666  -15.5120 C   0  0  0  0  0  0  0  0  0  0  0  0
   21.9419   -8.7017  -14.4286 O   0  0  0  0  0  0  0  0  0  0  0  0
   21.7566   -4.6524  -17.0429 C   0  0  0  0  0  0  0  0  0  0  0  0
   22.7365   -5.0960  -16.0012 C   0  0  1  0  0  0  0  0  0  0  0  0
   23.4263   -3.9642  -15.3098 C   0  0  0  0  0  0  0  0  0  0  0  0
   22.0039   -6.0024  -15.0090 C   0  0  2  0  0  0  0  0  0  0  0  0
   21.2683   -6.9656  -15.8052 N   0  0  0  0  0  0  0  0  0  0  0  0
   21.0681   -5.1272  -14.2639 C   0  0  0  0  0  0  0  0  0  0  0  0
   19.7363   -5.1142  -14.6406 O   0  0  0  0  0  0  0  0  0  0  0  0
   21.4118   -4.3927  -13.3065 O   0  0  0  0  0  0  0  0  0  0  0  0
  1  2  1  0
  3  2  1  0
  4  5  1  0
  4  3  1  0
  5  1  1  0
  5  6  1  6
  6  8  1  0
  7  6  2  0
  9 10  1  1
  9  8  1  0
  9 12  1  0
 11 10  1  0
 12 18  1  0
 13 12  2  0
 15 14  1  6
 15 16  1  0
 17 15  1  0
 17 18  1  6
 19 17  1  0
 19 20  1  0
 21 19  2  0
M  END
$$$$
