PCV.pdb
     RDKit          3D

 21 21  0  0  1  0  0  0  0  0999 V2000
   28.6535  -20.5471  -15.6936 N   0  0  0  0  0  0  0  0  0  0  0  0
   27.7589  -20.0185  -16.6816 C   0  0  0  0  0  0  0  0  0  0  0  0
   27.0410  -18.8390  -16.0609 C   0  0  0  0  0  0  0  0  0  0  0  0
   28.0255  -18.4680  -14.9529 C   0  0  0  0  0  0  0  0  0  0  0  0
   28.3870  -19.8730  -14.4519 C   0  0  1  0  0  0  0  0  0  0  0  0
   27.2156  -20.4794  -13.7937 C   0  0  0  0  0  0  0  0  0  0  0  0
   26.5438  -21.3828  -14.3932 O   0  0  0  0  0  0  0  0  0  0  0  0
   26.7582  -20.1290  -12.5043 N   0  0  0  0  0  0  0  0  0  0  0  0
   25.6992  -20.8144  -11.8141 C   0  0  1  0  0  0  0  0  0  0  0  0
   25.6838  -20.5431  -10.3331 C   0  0  0  0  0  0  0  0  0  0  0  0
   24.1610  -21.0841   -9.5489 S   0  0  0  0  0  0  0  0  0  0  0  0
   24.3903  -20.3877  -12.3728 C   0  0  0  0  0  0  0  0  0  0  0  0
   24.1096  -19.1601  -12.5532 O   0  0  0  0  0  0  0  0  0  0  0  0
   20.6188  -21.4323  -15.1796 C   0  0  0  0  0  0  0  0  0  0  0  0
   21.9323  -21.8004  -14.5620 C   0  0  1  0  0  0  0  0  0  0  0  0
   23.0854  -21.7027  -15.5084 C   0  0  0  0  0  0  0  0  0  0  0  0
   22.1417  -20.9257  -13.3236 C   0  0  2  0  0  0  0  0  0  0  0  0
   23.3929  -21.3552  -12.7296 N   0  0  0  0  0  0  0  0  0  0  0  0
   21.0101  -21.2218  -12.4131 C   0  0  0  0  0  0  0  0  0  0  0  0
   20.0674  -20.2332  -12.1903 O   0  0  0  0  0  0  0  0  0  0  0  0
   20.8538  -22.3208  -11.8285 O   0  0  0  0  0  0  0  0  0  0  0  0
  1  2  1  0
  3  2  1  0
  4  5  1  0
  4  3  1  0
  5  1  1  0
  5  6  1  6
  6  8  1  0
  7  6  2  0
  9 10  1  1
  9  8  1  0
  9 12  1  0
 11 10  1  0
 12 18  1  0
 13 12  2  0
 15 14  1  6
 15 16  1  0
 17 15  1  0
 17 18  1  1
 19 17  1  0
 19 20  1  0
 21 19  2  0
M  END
$$$$
