STA.pdb
     RDKit          3D

 19 18  0  0  1  0  0  0  0  0999 V2000
    8.8151  -16.5564   12.1712 O   0  0  0  0  0  0  0  0  0  0  0  0
    9.3230  -15.9989   13.3322 C   0  0  0  0  0  0  0  0  0  0  0  0
    8.2703  -15.1473   14.0013 C   0  0  2  0  0  0  0  0  0  0  0  0
    7.8523  -14.1434   13.0418 N   0  0  0  0  0  0  0  0  0  0  0  0
    8.7835  -14.4330   15.1947 C   0  0  0  0  0  0  0  0  0  0  0  0
    8.5054  -13.2191   15.3816 O   0  0  0  0  0  0  0  0  0  0  0  0
    7.7071  -13.3513   17.4758 C   0  0  0  0  0  0  0  0  0  0  0  0
    8.7162  -14.1716   18.2442 C   0  0  1  0  0  0  0  0  0  0  0  0
    8.0830  -15.4123   18.4631 O   0  0  0  0  0  0  0  0  0  0  0  0
    9.9982  -14.4066   17.4292 C   0  0  2  0  0  0  0  0  0  0  0  0
    9.5989  -15.0591   16.1740 N   0  0  0  0  0  0  0  0  0  0  0  0
   10.9420  -15.2764   18.1599 C   0  0  0  0  0  0  0  0  0  0  0  0
   11.4326  -16.2947   17.5685 O   0  0  0  0  0  0  0  0  0  0  0  0
   13.6961  -14.5899   19.2429 C   0  0  0  0  0  0  0  0  0  0  0  0
   12.6871  -15.4702   19.9610 C   0  0  2  0  0  0  0  0  0  0  0  0
   11.3696  -15.0842   19.4872 N   0  0  0  0  0  0  0  0  0  0  0  0
   12.8050  -15.2246   21.4279 C   0  0  0  0  0  0  0  0  0  0  0  0
   13.8580  -15.5428   22.0221 O   0  0  0  0  0  0  0  0  0  0  0  0
   11.7871  -14.6539   22.1635 O   0  0  0  0  0  0  0  0  0  0  0  0
  1  2  1  0
  2  3  1  0
  3  4  1  6
  5  3  1  0
  6  5  2  0
  8  7  1  6
  8  9  1  0
  8 10  1  0
 10 11  1  6
 11  5  1  0
 12 10  1  0
 12 16  1  0
 13 12  2  0
 15 16  1  0
 15 14  1  6
 15 17  1  0
 17 18  2  0
 17 19  1  0
M  END
$$$$
