STA.pdb
     RDKit          3D

 19 18  0  0  1  0  0  0  0  0999 V2000
    2.0822  -22.8431   23.4848 O   0  0  0  0  0  0  0  0  0  0  0  0
    1.9799  -21.5717   22.9465 C   0  0  0  0  0  0  0  0  0  0  0  0
    2.9714  -21.4051   21.8195 C   0  0  2  0  0  0  0  0  0  0  0  0
    2.6643  -22.4115   20.8214 N   0  0  0  0  0  0  0  0  0  0  0  0
    4.3728  -21.6227   22.2515 C   0  0  0  0  0  0  0  0  0  0  0  0
    4.9482  -22.7198   22.0253 O   0  0  0  0  0  0  0  0  0  0  0  0
    7.2456  -19.6378   21.1413 C   0  0  0  0  0  0  0  0  0  0  0  0
    7.3065  -19.6108   22.6503 C   0  0  1  0  0  0  0  0  0  0  0  0
    6.6567  -18.4146   23.0177 O   0  0  0  0  0  0  0  0  0  0  0  0
    6.5510  -20.7964   23.2721 C   0  0  2  0  0  0  0  0  0  0  0  0
    5.1312  -20.6319   22.9290 N   0  0  0  0  0  0  0  0  0  0  0  0
    6.7056  -20.8154   24.7407 C   0  0  0  0  0  0  0  0  0  0  0  0
    6.0958  -19.9401   25.4403 O   0  0  0  0  0  0  0  0  0  0  0  0
    7.5461  -23.1218   27.4159 C   0  0  0  0  0  0  0  0  0  0  0  0
    7.6235  -21.6900   26.9131 C   0  0  2  0  0  0  0  0  0  0  0  0
    7.4827  -21.7363   25.4684 N   0  0  0  0  0  0  0  0  0  0  0  0
    8.9539  -21.1285   27.2884 C   0  0  0  0  0  0  0  0  0  0  0  0
    9.7651  -20.8156   26.3899 O   0  0  0  0  0  0  0  0  0  0  0  0
    9.3293  -20.9384   28.6021 O   0  0  0  0  0  0  0  0  0  0  0  0
  1  2  1  0
  2  3  1  0
  3  4  1  6
  5  3  1  0
  6  5  2  0
  8  7  1  6
  8  9  1  0
  8 10  1  0
 10 11  1  1
 11  5  1  0
 12 10  1  0
 12 16  1  0
 13 12  2  0
 15 16  1  0
 15 14  1  6
 15 17  1  0
 17 18  2  0
 17 19  1  0
M  END
$$$$
