STA.pdb
     RDKit          3D

 19 18  0  0  1  0  0  0  0  0999 V2000
   -4.0631  -21.3514   26.2798 O   0  0  0  0  0  0  0  0  0  0  0  0
   -4.9803  -22.3352   26.6076 C   0  0  0  0  0  0  0  0  0  0  0  0
   -4.2865  -23.4752   27.3148 C   0  0  2  0  0  0  0  0  0  0  0  0
   -3.4706  -24.1613   26.3314 N   0  0  0  0  0  0  0  0  0  0  0  0
   -5.2364  -24.4675   27.8724 C   0  0  0  0  0  0  0  0  0  0  0  0
   -5.4915  -25.5298   27.2463 O   0  0  0  0  0  0  0  0  0  0  0  0
   -6.8683  -26.7239   31.8314 C   0  0  0  0  0  0  0  0  0  0  0  0
   -6.0474  -25.7219   31.0547 C   0  0  1  0  0  0  0  0  0  0  0  0
   -4.8481  -26.3967   30.7474 O   0  0  0  0  0  0  0  0  0  0  0  0
   -6.7373  -25.3151   29.7426 C   0  0  2  0  0  0  0  0  0  0  0  0
   -5.8985  -24.2840   29.1148 N   0  0  0  0  0  0  0  0  0  0  0  0
   -8.0854  -24.7683   29.9969 C   0  0  0  0  0  0  0  0  0  0  0  0
   -8.1990  -23.6657   30.6285 O   0  0  0  0  0  0  0  0  0  0  0  0
  -11.6397  -25.6972   29.2554 C   0  0  0  0  0  0  0  0  0  0  0  0
  -10.5941  -24.7473   29.8149 C   0  0  2  0  0  0  0  0  0  0  0  0
   -9.2968  -25.3620   29.5949 N   0  0  0  0  0  0  0  0  0  0  0  0
  -10.8465  -24.5734   31.2752 C   0  0  0  0  0  0  0  0  0  0  0  0
  -10.4057  -25.4219   32.0808 O   0  0  0  0  0  0  0  0  0  0  0  0
  -11.5549  -23.5019   31.7779 O   0  0  0  0  0  0  0  0  0  0  0  0
  1  2  1  0
  2  3  1  0
  3  4  1  6
  5  3  1  0
  6  5  2  0
  8  7  1  6
  8  9  1  0
  8 10  1  0
 10 11  1  1
 11  5  1  0
 12 10  1  0
 12 16  1  0
 13 12  2  0
 15 16  1  0
 15 14  1  1
 15 17  1  0
 17 18  2  0
 17 19  1  0
M  END
$$$$
