STA.pdb
     RDKit          3D

 19 18  0  0  1  0  0  0  0  0999 V2000
   -7.2316  -25.3629   22.8732 O   0  0  0  0  0  0  0  0  0  0  0  0
   -6.8246  -25.2984   24.1949 C   0  0  0  0  0  0  0  0  0  0  0  0
   -5.5091  -24.5634   24.2965 C   0  0  2  0  0  0  0  0  0  0  0  0
   -4.5438  -25.2925   23.4965 N   0  0  0  0  0  0  0  0  0  0  0  0
   -4.9865  -24.5114   25.6829 C   0  0  0  0  0  0  0  0  0  0  0  0
   -4.4683  -25.5313   26.2091 O   0  0  0  0  0  0  0  0  0  0  0  0
   -2.2690  -22.6774   27.2346 C   0  0  0  0  0  0  0  0  0  0  0  0
   -3.4994  -22.2593   28.0045 C   0  0  1  0  0  0  0  0  0  0  0  0
   -3.9232  -21.0638   27.3886 O   0  0  0  0  0  0  0  0  0  0  0  0
   -4.6240  -23.3011   27.8903 C   0  0  2  0  0  0  0  0  0  0  0  0
   -5.0376  -23.3378   26.4802 N   0  0  0  0  0  0  0  0  0  0  0  0
   -5.7785  -22.9334   28.7346 C   0  0  0  0  0  0  0  0  0  0  0  0
   -5.6258  -22.8651   29.9994 O   0  0  0  0  0  0  0  0  0  0  0  0
   -9.3386  -21.8758   28.2549 C   0  0  0  0  0  0  0  0  0  0  0  0
   -8.1718  -22.2756   29.1424 C   0  0  2  0  0  0  0  0  0  0  0  0
   -7.0725  -22.6382   28.2655 N   0  0  0  0  0  0  0  0  0  0  0  0
   -8.5862  -23.4467   29.9689 C   0  0  0  0  0  0  0  0  0  0  0  0
   -8.3374  -24.6034   29.5648 O   0  0  0  0  0  0  0  0  0  0  0  0
   -9.2403  -23.3029   31.1748 O   0  0  0  0  0  0  0  0  0  0  0  0
  1  2  1  0
  2  3  1  0
  3  4  1  6
  5  3  1  0
  6  5  2  0
  8  7  1  6
  8  9  1  0
  8 10  1  0
 10 11  1  6
 11  5  1  0
 12 10  1  0
 12 16  1  0
 13 12  2  0
 15 16  1  0
 15 14  1  6
 15 17  1  0
 17 18  2  0
 17 19  1  0
M  END
$$$$
