STA.pdb
     RDKit          3D

 19 18  0  0  1  0  0  0  0  0999 V2000
   12.0996  -14.3010   19.1443 O   0  0  0  0  0  0  0  0  0  0  0  0
   11.2941  -13.7049   20.0996 C   0  0  0  0  0  0  0  0  0  0  0  0
    9.8854  -14.2395   19.9958 C   0  0  2  0  0  0  0  0  0  0  0  0
    9.2134  -13.4876   18.9535 N   0  0  0  0  0  0  0  0  0  0  0  0
    9.1087  -14.0561   21.2452 C   0  0  0  0  0  0  0  0  0  0  0  0
    8.4860  -12.9826   21.4588 O   0  0  0  0  0  0  0  0  0  0  0  0
    6.1961  -15.8387   22.3550 C   0  0  0  0  0  0  0  0  0  0  0  0
    7.1741  -15.9967   23.4951 C   0  0  1  0  0  0  0  0  0  0  0  0
    7.8018  -17.2381   23.2644 O   0  0  0  0  0  0  0  0  0  0  0  0
    8.2429  -14.8918   23.4859 C   0  0  2  0  0  0  0  0  0  0  0  0
    9.0225  -15.0550   22.2505 N   0  0  0  0  0  0  0  0  0  0  0  0
    9.1386  -15.0074   24.6545 C   0  0  0  0  0  0  0  0  0  0  0  0
   10.2540  -15.6126   24.5241 O   0  0  0  0  0  0  0  0  0  0  0  0
    9.3132  -13.6596   28.1359 C   0  0  0  0  0  0  0  0  0  0  0  0
    9.8249  -14.5737   27.0352 C   0  0  2  0  0  0  0  0  0  0  0  0
    8.8752  -14.4960   25.9393 N   0  0  0  0  0  0  0  0  0  0  0  0
    9.8906  -15.9654   27.5691 C   0  0  0  0  0  0  0  0  0  0  0  0
   10.6648  -16.2250   28.5158 O   0  0  0  0  0  0  0  0  0  0  0  0
    9.1227  -16.9890   27.0541 O   0  0  0  0  0  0  0  0  0  0  0  0
  1  2  1  0
  2  3  1  0
  3  4  1  6
  5  3  1  0
  6  5  2  0
  8  7  1  6
  8  9  1  0
  8 10  1  0
 10 11  1  6
 11  5  1  0
 12 10  1  0
 12 16  1  0
 13 12  2  0
 15 16  1  0
 15 14  1  1
 15 17  1  0
 17 18  2  0
 17 19  1  0
M  END
$$$$
