STA.pdb
     RDKit          3D

 19 18  0  0  1  0  0  0  0  0999 V2000
   10.6341  -13.3069   19.0719 O   0  0  0  0  0  0  0  0  0  0  0  0
    9.6864  -13.0513   20.0482 C   0  0  0  0  0  0  0  0  0  0  0  0
    8.6223  -14.1229   20.0302 C   0  0  2  0  0  0  0  0  0  0  0  0
    7.5986  -13.7001   19.0939 N   0  0  0  0  0  0  0  0  0  0  0  0
    7.9690  -14.3048   21.3486 C   0  0  0  0  0  0  0  0  0  0  0  0
    6.9938  -13.5820   21.6836 O   0  0  0  0  0  0  0  0  0  0  0  0
    6.7558  -17.3012   25.0304 C   0  0  0  0  0  0  0  0  0  0  0  0
    7.4162  -16.9759   23.7115 C   0  0  1  0  0  0  0  0  0  0  0  0
    6.4557  -17.3079   22.7339 O   0  0  0  0  0  0  0  0  0  0  0  0
    7.7462  -15.4792   23.5936 C   0  0  2  0  0  0  0  0  0  0  0  0
    8.3930  -15.2806   22.2886 N   0  0  0  0  0  0  0  0  0  0  0  0
    8.6618  -15.0492   24.6696 C   0  0  0  0  0  0  0  0  0  0  0  0
    9.8721  -15.4523   24.6526 O   0  0  0  0  0  0  0  0  0  0  0  0
    8.7109  -12.6921   27.5524 C   0  0  0  0  0  0  0  0  0  0  0  0
    9.2057  -13.9555   26.8685 C   0  0  2  0  0  0  0  0  0  0  0  0
    8.3201  -14.2084   25.7456 N   0  0  0  0  0  0  0  0  0  0  0  0
    9.1391  -15.0799   27.8471 C   0  0  0  0  0  0  0  0  0  0  0  0
    8.1552  -15.8511   27.8318 O   0  0  0  0  0  0  0  0  0  0  0  0
   10.1309  -15.3051   28.7789 O   0  0  0  0  0  0  0  0  0  0  0  0
  1  2  1  0
  2  3  1  0
  3  4  1  6
  5  3  1  0
  6  5  2  0
  8  7  1  1
  8  9  1  0
  8 10  1  0
 10 11  1  6
 11  5  1  0
 12 10  1  0
 12 16  1  0
 13 12  2  0
 15 16  1  0
 15 14  1  1
 15 17  1  0
 17 18  2  0
 17 19  1  0
M  END
$$$$
