STA.pdb
     RDKit          3D

 19 18  0  0  1  0  0  0  0  0999 V2000
   13.3202  -16.1929   19.5203 O   0  0  0  0  0  0  0  0  0  0  0  0
   12.5734  -15.3867   20.3623 C   0  0  0  0  0  0  0  0  0  0  0  0
   11.1012  -15.5571   20.0712 C   0  0  2  0  0  0  0  0  0  0  0  0
   10.8498  -14.9825   18.7636 N   0  0  0  0  0  0  0  0  0  0  0  0
   10.2379  -14.8430   21.0422 C   0  0  0  0  0  0  0  0  0  0  0  0
    9.9539  -13.6281   20.8719 O   0  0  0  0  0  0  0  0  0  0  0  0
    6.7852  -15.0129   21.7847 C   0  0  0  0  0  0  0  0  0  0  0  0
    7.4521  -15.3530   23.0965 C   0  0  1  0  0  0  0  0  0  0  0  0
    7.5436  -16.7601   23.1023 O   0  0  0  0  0  0  0  0  0  0  0  0
    8.8693  -14.7640   23.1845 C   0  0  2  0  0  0  0  0  0  0  0  0
    9.6933  -15.4706   22.1934 N   0  0  0  0  0  0  0  0  0  0  0  0
    9.4432  -14.9559   24.5317 C   0  0  0  0  0  0  0  0  0  0  0  0
   10.3005  -15.8828   24.7148 O   0  0  0  0  0  0  0  0  0  0  0  0
    9.2384  -13.3045   27.8884 C   0  0  0  0  0  0  0  0  0  0  0  0
    9.7716  -14.3814   26.9584 C   0  0  2  0  0  0  0  0  0  0  0  0
    9.1294  -14.1896   25.6700 N   0  0  0  0  0  0  0  0  0  0  0  0
    9.4138  -15.7146   27.5248 C   0  0  0  0  0  0  0  0  0  0  0  0
    8.4290  -16.3335   27.0661 O   0  0  0  0  0  0  0  0  0  0  0  0
   10.1343  -16.2986   28.5459 O   0  0  0  0  0  0  0  0  0  0  0  0
  1  2  1  0
  2  3  1  0
  3  4  1  6
  5  3  1  0
  6  5  2  0
  8  7  1  6
  8  9  1  0
  8 10  1  0
 10 11  1  6
 11  5  1  0
 12 10  1  0
 12 16  1  0
 13 12  2  0
 15 16  1  0
 15 14  1  1
 15 17  1  0
 17 18  2  0
 17 19  1  0
M  END
$$$$
