STA.pdb
     RDKit          3D

 19 18  0  0  1  0  0  0  0  0999 V2000
   10.6193  -18.4005   15.0623 O   0  0  0  0  0  0  0  0  0  0  0  0
    9.3026  -18.0588   14.8051 C   0  0  0  0  0  0  0  0  0  0  0  0
    9.2128  -16.6038   14.4103 C   0  0  2  0  0  0  0  0  0  0  0  0
   10.0660  -16.4166   13.2526 N   0  0  0  0  0  0  0  0  0  0  0  0
    9.6993  -15.6902   15.4717 C   0  0  0  0  0  0  0  0  0  0  0  0
   10.8708  -15.2301   15.4311 O   0  0  0  0  0  0  0  0  0  0  0  0
    8.3854  -12.5693   19.1351 C   0  0  0  0  0  0  0  0  0  0  0  0
    8.0652  -13.7315   18.2250 C   0  0  1  0  0  0  0  0  0  0  0  0
    7.2505  -13.1847   17.2123 O   0  0  0  0  0  0  0  0  0  0  0  0
    9.3324  -14.3158   17.5800 C   0  0  2  0  0  0  0  0  0  0  0  0
    8.8936  -15.2892   16.5698 N   0  0  0  0  0  0  0  0  0  0  0  0
   10.1777  -14.9926   18.5843 C   0  0  0  0  0  0  0  0  0  0  0  0
    9.8661  -16.1693   18.9662 O   0  0  0  0  0  0  0  0  0  0  0  0
   13.4520  -14.4422   20.2858 C   0  0  0  0  0  0  0  0  0  0  0  0
   12.1113  -15.1503   20.1852 C   0  0  2  0  0  0  0  0  0  0  0  0
   11.3329  -14.4505   19.1785 N   0  0  0  0  0  0  0  0  0  0  0  0
   11.4349  -15.0725   21.5129 C   0  0  0  0  0  0  0  0  0  0  0  0
   10.4664  -14.2968   21.6652 O   0  0  0  0  0  0  0  0  0  0  0  0
   11.8400  -15.8309   22.5916 O   0  0  0  0  0  0  0  0  0  0  0  0
  1  2  1  0
  2  3  1  0
  3  4  1  6
  5  3  1  0
  6  5  2  0
  8  7  1  1
  8  9  1  0
  8 10  1  0
 10 11  1  6
 11  5  1  0
 12 10  1  0
 12 16  1  0
 13 12  2  0
 15 16  1  0
 15 14  1  1
 15 17  1  0
 17 18  2  0
 17 19  1  0
M  END
$$$$
