STA.pdb
     RDKit          3D

 19 18  0  0  1  0  0  0  0  0999 V2000
   10.1993  -18.9304   17.3460 O   0  0  0  0  0  0  0  0  0  0  0  0
    9.4385  -18.8175   18.4971 C   0  0  0  0  0  0  0  0  0  0  0  0
    8.0146  -18.4584   18.1436 C   0  0  2  0  0  0  0  0  0  0  0  0
    8.0685  -17.3839   17.1711 N   0  0  0  0  0  0  0  0  0  0  0  0
    7.2417  -17.9638   19.3081 C   0  0  0  0  0  0  0  0  0  0  0  0
    7.0849  -16.7280   19.4926 O   0  0  0  0  0  0  0  0  0  0  0  0
    3.7159  -18.9450   22.6436 C   0  0  0  0  0  0  0  0  0  0  0  0
    4.6449  -19.3406   21.5203 C   0  0  1  0  0  0  0  0  0  0  0  0
    3.8533  -19.2742   20.3553 O   0  0  0  0  0  0  0  0  0  0  0  0
    5.8184  -18.3578   21.3787 C   0  0  2  0  0  0  0  0  0  0  0  0
    6.6469  -18.8320   20.2609 N   0  0  0  0  0  0  0  0  0  0  0  0
    6.6296  -18.3156   22.6121 C   0  0  0  0  0  0  0  0  0  0  0  0
    7.4634  -19.2541   22.8390 O   0  0  0  0  0  0  0  0  0  0  0  0
    7.0899  -16.0444   25.5561 C   0  0  0  0  0  0  0  0  0  0  0  0
    7.3514  -17.3468   24.8183 C   0  0  2  0  0  0  0  0  0  0  0  0
    6.5737  -17.3070   23.5924 N   0  0  0  0  0  0  0  0  0  0  0  0
    6.9033  -18.4777   25.6822 C   0  0  0  0  0  0  0  0  0  0  0  0
    7.6404  -18.8702   26.6127 O   0  0  0  0  0  0  0  0  0  0  0  0
    5.6946  -19.1150   25.4934 O   0  0  0  0  0  0  0  0  0  0  0  0
  1  2  1  0
  2  3  1  0
  3  4  1  6
  5  3  1  0
  6  5  2  0
  8  7  1  1
  8  9  1  0
  8 10  1  0
 10 11  1  6
 11  5  1  0
 12 10  1  0
 12 16  1  0
 13 12  2  0
 15 16  1  0
 15 14  1  1
 15 17  1  0
 17 18  2  0
 17 19  1  0
M  END
$$$$
