STA.pdb
     RDKit          3D

 19 18  0  0  1  0  0  0  0  0999 V2000
   12.1388  -18.1917   21.5938 O   0  0  0  0  0  0  0  0  0  0  0  0
   10.9174  -18.5395   21.0425 C   0  0  0  0  0  0  0  0  0  0  0  0
   10.4601  -17.4693   20.0800 C   0  0  2  0  0  0  0  0  0  0  0  0
   11.5946  -17.1262   19.2441 N   0  0  0  0  0  0  0  0  0  0  0  0
   10.0240  -16.2293   20.7656 C   0  0  0  0  0  0  0  0  0  0  0  0
   10.6263  -15.1419   20.5640 O   0  0  0  0  0  0  0  0  0  0  0  0
    6.6790  -14.4037   20.8484 C   0  0  0  0  0  0  0  0  0  0  0  0
    7.0345  -14.8100   22.2590 C   0  0  1  0  0  0  0  0  0  0  0  0
    6.3981  -16.0539   22.4489 O   0  0  0  0  0  0  0  0  0  0  0  0
    8.5503  -14.9974   22.4329 C   0  0  2  0  0  0  0  0  0  0  0  0
    8.9284  -16.1943   21.6680 N   0  0  0  0  0  0  0  0  0  0  0  0
    8.9041  -15.1869   23.8542 C   0  0  0  0  0  0  0  0  0  0  0  0
    9.2922  -16.3362   24.2492 O   0  0  0  0  0  0  0  0  0  0  0  0
    9.0191  -13.1295   26.9839 C   0  0  0  0  0  0  0  0  0  0  0  0
    9.0892  -14.4611   26.2554 C   0  0  2  0  0  0  0  0  0  0  0  0
    8.8565  -14.1907   24.8476 N   0  0  0  0  0  0  0  0  0  0  0  0
    8.0228  -15.3530   26.7971 C   0  0  0  0  0  0  0  0  0  0  0  0
    6.8798  -15.3224   26.2913 O   0  0  0  0  0  0  0  0  0  0  0  0
    8.2499  -16.2199   27.8457 O   0  0  0  0  0  0  0  0  0  0  0  0
  1  2  1  0
  2  3  1  0
  3  4  1  6
  5  3  1  0
  6  5  2  0
  8  7  1  6
  8  9  1  0
  8 10  1  0
 10 11  1  6
 11  5  1  0
 12 10  1  0
 12 16  1  0
 13 12  2  0
 15 16  1  0
 15 14  1  1
 15 17  1  0
 17 18  2  0
 17 19  1  0
M  END
$$$$
