STA.pdb
     RDKit          3D

 19 18  0  0  1  0  0  0  0  0999 V2000
   12.2799  -18.8929   20.2035 O   0  0  0  0  0  0  0  0  0  0  0  0
   12.3351  -18.1774   19.0196 C   0  0  0  0  0  0  0  0  0  0  0  0
   10.9615  -18.1008   18.3963 C   0  0  2  0  0  0  0  0  0  0  0  0
   11.0710  -17.2746   17.2094 N   0  0  0  0  0  0  0  0  0  0  0  0
    9.9616  -17.4655   19.2876 C   0  0  0  0  0  0  0  0  0  0  0  0
    9.7711  -16.2213   19.2499 O   0  0  0  0  0  0  0  0  0  0  0  0
    6.0493  -18.1004   22.3277 C   0  0  0  0  0  0  0  0  0  0  0  0
    7.0678  -18.5965   21.3288 C   0  0  1  0  0  0  0  0  0  0  0  0
    6.3541  -18.7313   20.1202 O   0  0  0  0  0  0  0  0  0  0  0  0
    8.2044  -17.5822   21.1226 C   0  0  2  0  0  0  0  0  0  0  0  0
    9.1785  -18.2034   20.2138 N   0  0  0  0  0  0  0  0  0  0  0  0
    8.8630  -17.2527   22.4028 C   0  0  0  0  0  0  0  0  0  0  0  0
    9.7761  -18.0245   22.8477 O   0  0  0  0  0  0  0  0  0  0  0  0
    8.7734  -14.4991   24.9398 C   0  0  0  0  0  0  0  0  0  0  0  0
    9.2513  -15.8596   24.4608 C   0  0  2  0  0  0  0  0  0  0  0  0
    8.5750  -16.1324   23.2049 N   0  0  0  0  0  0  0  0  0  0  0  0
    8.8785  -16.8790   25.4846 C   0  0  0  0  0  0  0  0  0  0  0  0
    7.7312  -17.3754   25.4688 O   0  0  0  0  0  0  0  0  0  0  0  0
    9.7590  -17.3005   26.4591 O   0  0  0  0  0  0  0  0  0  0  0  0
  1  2  1  0
  2  3  1  0
  3  4  1  6
  5  3  1  0
  6  5  2  0
  8  7  1  1
  8  9  1  0
  8 10  1  0
 10 11  1  6
 11  5  1  0
 12 10  1  0
 12 16  1  0
 13 12  2  0
 15 16  1  0
 15 14  1  1
 15 17  1  0
 17 18  2  0
 17 19  1  0
M  END
$$$$
