KDD.pdb
     RDKit          3D

 26 25  0  0  1  0  0  0  0  0999 V2000
   20.1901  -11.1660  -15.8264 N   0  0  0  0  0  0  0  0  0  0  0  0
   19.0714  -10.3718  -16.0419 C   0  0  1  0  0  0  0  0  0  0  0  0
   17.7138  -10.9647  -15.8444 C   0  0  0  0  0  0  0  0  0  0  0  0
   17.4750  -12.3232  -16.3460 C   0  0  0  0  0  0  0  0  0  0  0  0
   17.3160  -13.4561  -15.4465 C   0  0  0  0  0  0  0  0  0  0  0  0
   17.0027  -14.7834  -16.0406 C   0  0  0  0  0  0  0  0  0  0  0  0
   16.8048  -15.7863  -14.9787 N   0  0  0  0  0  0  0  0  0  0  0  0
   19.1620   -9.1027  -15.2777 C   0  0  0  0  0  0  0  0  0  0  0  0
   18.1134   -8.6678  -14.6768 O   0  0  0  0  0  0  0  0  0  0  0  0
   20.3524   -8.3599  -15.1888 N   0  0  0  0  0  0  0  0  0  0  0  0
   20.4416   -7.1506  -14.3468 C   0  0  1  0  0  0  0  0  0  0  0  0
   21.8762   -6.9033  -13.9779 C   0  0  0  0  0  0  0  0  0  0  0  0
   22.0653   -5.6954  -13.1910 C   0  0  0  0  0  0  0  0  0  0  0  0
   21.6433   -5.4911  -12.0343 O   0  0  0  0  0  0  0  0  0  0  0  0
   19.8197   -6.0202  -15.0900 C   0  0  0  0  0  0  0  0  0  0  0  0
   20.1355   -5.6861  -16.2436 O   0  0  0  0  0  0  0  0  0  0  0  0
   22.7928   -4.6178  -13.7488 O   0  0  0  0  0  0  0  0  0  0  0  0
   18.7799   -5.2275  -14.4825 N   0  0  0  0  0  0  0  0  0  0  0  0
   18.1700   -4.1074  -15.1640 C   0  0  1  0  0  0  0  0  0  0  0  0
   16.7370   -3.8824  -14.8258 C   0  0  0  0  0  0  0  0  0  0  0  0
   16.2300   -2.6964  -15.5405 C   0  0  0  0  0  0  0  0  0  0  0  0
   16.2494   -2.6243  -16.8043 O   0  0  0  0  0  0  0  0  0  0  0  0
   18.9867   -2.8702  -14.9969 C   0  0  0  0  0  0  0  0  0  0  0  0
   18.7797   -1.8950  -15.7276 O   0  0  0  0  0  0  0  0  0  0  0  0
   15.7167   -1.6221  -14.8696 O   0  0  0  0  0  0  0  0  0  0  0  0
   19.9555   -2.8526  -14.0239 O   0  0  0  0  0  0  0  0  0  0  0  0
  2  1  1  1
  2  3  1  0
  3  4  1  0
  4  5  1  0
  6  5  1  0
  6  7  1  0
  8  2  1  0
  8  9  2  0
 10  8  1  0
 11 10  1  0
 11 12  1  6
 13 12  1  0
 13 17  1  0
 14 13  2  0
 15 11  1  0
 16 15  2  0
 18 15  1  0
 19 18  1  0
 19 20  1  1
 20 21  1  0
 21 25  1  0
 21 22  2  0
 23 19  1  0
 24 23  2  0
 26 23  1  0
M  END
$$$$
