KDD.pdb
     RDKit          3D

 26 25  0  0  1  0  0  0  0  0999 V2000
   18.8273  -12.7771  -18.1465 N   0  0  0  0  0  0  0  0  0  0  0  0
   18.5565  -12.7658  -16.7845 C   0  0  1  0  0  0  0  0  0  0  0  0
   18.7973  -14.0073  -15.9882 C   0  0  0  0  0  0  0  0  0  0  0  0
   18.4970  -15.2990  -16.6171 C   0  0  0  0  0  0  0  0  0  0  0  0
   18.5945  -16.5512  -15.8820 C   0  0  0  0  0  0  0  0  0  0  0  0
   18.3159  -17.8162  -16.6134 C   0  0  0  0  0  0  0  0  0  0  0  0
   18.5401  -18.9771  -15.7333 N   0  0  0  0  0  0  0  0  0  0  0  0
   19.2277  -11.6232  -16.1159 C   0  0  0  0  0  0  0  0  0  0  0  0
   19.0344  -11.4434  -14.8588 O   0  0  0  0  0  0  0  0  0  0  0  0
   20.0655  -10.7313  -16.8081 N   0  0  0  0  0  0  0  0  0  0  0  0
   20.6535   -9.5542  -16.1390 C   0  0  1  0  0  0  0  0  0  0  0  0
   22.1133   -9.4630  -16.4797 C   0  0  0  0  0  0  0  0  0  0  0  0
   22.7564   -8.2793  -15.9327 C   0  0  0  0  0  0  0  0  0  0  0  0
   23.4677   -7.4667  -16.5584 O   0  0  0  0  0  0  0  0  0  0  0  0
   19.8758   -8.3516  -16.5464 C   0  0  0  0  0  0  0  0  0  0  0  0
   19.6857   -8.0102  -17.7252 O   0  0  0  0  0  0  0  0  0  0  0  0
   22.5885   -7.9769  -14.5608 O   0  0  0  0  0  0  0  0  0  0  0  0
   19.2826   -7.4913  -15.5532 N   0  0  0  0  0  0  0  0  0  0  0  0
   18.5763   -6.2804  -15.9082 C   0  0  1  0  0  0  0  0  0  0  0  0
   17.4275   -5.9502  -15.0195 C   0  0  0  0  0  0  0  0  0  0  0  0
   16.7688   -4.7154  -15.4839 C   0  0  0  0  0  0  0  0  0  0  0  0
   16.4563   -4.5464  -16.6991 O   0  0  0  0  0  0  0  0  0  0  0  0
   19.5196   -5.1340  -16.0547 C   0  0  0  0  0  0  0  0  0  0  0  0
   20.5679   -5.1145  -15.4002 O   0  0  0  0  0  0  0  0  0  0  0  0
   16.4666   -3.6984  -14.6224 O   0  0  0  0  0  0  0  0  0  0  0  0
   19.1901   -4.1230  -16.9235 O   0  0  0  0  0  0  0  0  0  0  0  0
  2  1  1  6
  2  3  1  0
  3  4  1  0
  4  5  1  0
  6  5  1  0
  6  7  1  0
  8  2  1  0
  8  9  2  0
 10  8  1  0
 11 10  1  0
 11 12  1  6
 13 12  1  0
 13 17  1  0
 14 13  2  0
 15 11  1  0
 16 15  2  0
 18 15  1  0
 19 18  1  0
 19 20  1  1
 20 21  1  0
 21 25  1  0
 21 22  2  0
 23 19  1  0
 24 23  2  0
 26 23  1  0
M  END
$$$$
