KDD.pdb
     RDKit          3D

 26 25  0  0  1  0  0  0  0  0999 V2000
   13.4299  -10.6084  -12.5013 N   0  0  0  0  0  0  0  0  0  0  0  0
   14.7014  -10.6497  -11.9445 C   0  0  1  0  0  0  0  0  0  0  0  0
   15.7383  -11.5245  -12.5714 C   0  0  0  0  0  0  0  0  0  0  0  0
   15.4090  -12.9386  -12.7866 C   0  0  0  0  0  0  0  0  0  0  0  0
   16.3436  -13.8558  -13.4215 C   0  0  0  0  0  0  0  0  0  0  0  0
   15.8607  -15.2198  -13.7668 C   0  0  0  0  0  0  0  0  0  0  0  0
   16.9290  -15.9890  -14.4299 N   0  0  0  0  0  0  0  0  0  0  0  0
   15.2563   -9.2831  -11.7782 C   0  0  0  0  0  0  0  0  0  0  0  0
   15.1337   -8.4453  -12.7440 O   0  0  0  0  0  0  0  0  0  0  0  0
   15.9114   -8.8736  -10.6035 N   0  0  0  0  0  0  0  0  0  0  0  0
   16.4827   -7.5185  -10.4757 C   0  0  1  0  0  0  0  0  0  0  0  0
   16.3105   -7.0346   -9.0644 C   0  0  0  0  0  0  0  0  0  0  0  0
   14.9483   -6.6273   -8.7607 C   0  0  0  0  0  0  0  0  0  0  0  0
   14.0027   -6.5411   -9.5708 O   0  0  0  0  0  0  0  0  0  0  0  0
   17.9052   -7.5710  -10.9125 C   0  0  0  0  0  0  0  0  0  0  0  0
   18.7425   -8.3727  -10.4671 O   0  0  0  0  0  0  0  0  0  0  0  0
   14.6131   -6.2852   -7.4294 O   0  0  0  0  0  0  0  0  0  0  0  0
   18.3989   -6.6578  -11.9129 N   0  0  0  0  0  0  0  0  0  0  0  0
   19.7244   -6.7798  -12.4779 C   0  0  1  0  0  0  0  0  0  0  0  0
   20.0694   -8.1467  -12.9585 C   0  0  0  0  0  0  0  0  0  0  0  0
   21.4244   -8.1501  -13.5401 C   0  0  0  0  0  0  0  0  0  0  0  0
   22.4400   -7.8222  -12.8590 O   0  0  0  0  0  0  0  0  0  0  0  0
   19.9579   -5.7420  -13.5238 C   0  0  0  0  0  0  0  0  0  0  0  0
   18.9942   -5.2025  -14.0789 O   0  0  0  0  0  0  0  0  0  0  0  0
   21.6436   -8.5075  -14.8409 O   0  0  0  0  0  0  0  0  0  0  0  0
   21.2528   -5.4137  -13.8415 O   0  0  0  0  0  0  0  0  0  0  0  0
  2  1  1  6
  2  3  1  0
  3  4  1  0
  4  5  1  0
  6  5  1  0
  6  7  1  0
  8  2  1  0
  8  9  2  0
 10  8  1  0
 11 10  1  0
 11 12  1  1
 13 12  1  0
 13 17  1  0
 14 13  2  0
 15 11  1  0
 16 15  2  0
 18 15  1  0
 19 18  1  0
 19 20  1  6
 20 21  1  0
 21 25  1  0
 21 22  2  0
 23 19  1  0
 24 23  2  0
 26 23  1  0
M  END
$$$$
