KDD.pdb
     RDKit          3D

 26 25  0  0  1  0  0  0  0  0999 V2000
   19.1029  -13.0316  -18.1338 N   0  0  0  0  0  0  0  0  0  0  0  0
   19.1357  -13.2631  -16.7649 C   0  0  1  0  0  0  0  0  0  0  0  0
   19.8333  -14.4817  -16.2533 C   0  0  0  0  0  0  0  0  0  0  0  0
   19.6133  -15.7497  -16.9590 C   0  0  0  0  0  0  0  0  0  0  0  0
   18.9678  -16.8840  -16.3151 C   0  0  0  0  0  0  0  0  0  0  0  0
   18.7485  -18.1151  -17.1209 C   0  0  0  0  0  0  0  0  0  0  0  0
   18.1762  -19.1824  -16.2806 N   0  0  0  0  0  0  0  0  0  0  0  0
   19.6390  -12.0735  -16.0338 C   0  0  0  0  0  0  0  0  0  0  0  0
   19.6132  -12.0816  -14.7496 O   0  0  0  0  0  0  0  0  0  0  0  0
   20.1414  -10.9392  -16.6954 N   0  0  0  0  0  0  0  0  0  0  0  0
   20.4492   -9.6960  -15.9615 C   0  0  1  0  0  0  0  0  0  0  0  0
   21.8224   -9.2195  -16.3394 C   0  0  0  0  0  0  0  0  0  0  0  0
   22.2248   -8.0138  -15.6335 C   0  0  0  0  0  0  0  0  0  0  0  0
   22.6046   -6.9438  -16.1519 O   0  0  0  0  0  0  0  0  0  0  0  0
   19.3781   -8.7048  -16.2572 C   0  0  0  0  0  0  0  0  0  0  0  0
   18.9538   -8.4555  -17.3974 O   0  0  0  0  0  0  0  0  0  0  0  0
   22.2000   -8.0040  -14.2190 O   0  0  0  0  0  0  0  0  0  0  0  0
   18.7574   -7.9570  -15.1923 N   0  0  0  0  0  0  0  0  0  0  0  0
   17.7636   -6.9377  -15.4468 C   0  0  1  0  0  0  0  0  0  0  0  0
   16.3746   -7.3185  -15.0672 C   0  0  0  0  0  0  0  0  0  0  0  0
   15.4500   -6.2065  -15.3550 C   0  0  0  0  0  0  0  0  0  0  0  0
   15.1194   -5.9077  -16.5401 O   0  0  0  0  0  0  0  0  0  0  0  0
   18.1705   -5.6327  -14.8494 C   0  0  0  0  0  0  0  0  0  0  0  0
   17.4913   -4.6221  -15.0622 O   0  0  0  0  0  0  0  0  0  0  0  0
   14.9089   -5.4489  -14.3545 O   0  0  0  0  0  0  0  0  0  0  0  0
   19.3014   -5.5939  -14.0715 O   0  0  0  0  0  0  0  0  0  0  0  0
  2  1  1  6
  2  3  1  0
  3  4  1  0
  4  5  1  0
  6  5  1  0
  6  7  1  0
  8  2  1  0
  8  9  2  0
 10  8  1  0
 11 10  1  0
 11 12  1  6
 13 12  1  0
 13 17  1  0
 14 13  2  0
 15 11  1  0
 16 15  2  0
 18 15  1  0
 19 18  1  0
 19 20  1  1
 20 21  1  0
 21 25  1  0
 21 22  2  0
 23 19  1  0
 24 23  2  0
 26 23  1  0
M  END
$$$$
