KDD.pdb
     RDKit          3D

 26 25  0  0  1  0  0  0  0  0999 V2000
   17.9447  -10.9268  -18.1567 N   0  0  0  0  0  0  0  0  0  0  0  0
   16.6351  -10.6056  -17.8250 C   0  0  1  0  0  0  0  0  0  0  0  0
   15.7283  -11.6850  -17.3290 C   0  0  0  0  0  0  0  0  0  0  0  0
   16.1919  -13.0742  -17.4270 C   0  0  0  0  0  0  0  0  0  0  0  0
   15.3693  -14.1903  -16.9848 C   0  0  0  0  0  0  0  0  0  0  0  0
   15.8667  -15.5696  -17.2363 C   0  0  0  0  0  0  0  0  0  0  0  0
   14.8968  -16.5625  -16.7403 N   0  0  0  0  0  0  0  0  0  0  0  0
   16.5885   -9.4615  -16.8806 C   0  0  0  0  0  0  0  0  0  0  0  0
   15.4511   -9.0971  -16.4080 O   0  0  0  0  0  0  0  0  0  0  0  0
   17.7428   -8.7625  -16.4861 N   0  0  0  0  0  0  0  0  0  0  0  0
   17.6645   -7.6025  -15.5765 C   0  0  1  0  0  0  0  0  0  0  0  0
   18.6812   -7.7562  -14.4818 C   0  0  0  0  0  0  0  0  0  0  0  0
   18.2573   -8.6662  -13.4300 C   0  0  0  0  0  0  0  0  0  0  0  0
   18.8199   -9.7302  -13.0998 O   0  0  0  0  0  0  0  0  0  0  0  0
   17.8491   -6.3655  -16.3844 C   0  0  0  0  0  0  0  0  0  0  0  0
   18.6613   -6.2566  -17.3176 O   0  0  0  0  0  0  0  0  0  0  0  0
   17.0985   -8.3579  -12.6792 O   0  0  0  0  0  0  0  0  0  0  0  0
   17.0634   -5.1879  -16.1117 N   0  0  0  0  0  0  0  0  0  0  0  0
   17.2453   -3.9555  -16.8459 C   0  0  1  0  0  0  0  0  0  0  0  0
   16.1532   -2.9591  -16.6639 C   0  0  0  0  0  0  0  0  0  0  0  0
   14.8561   -3.5605  -17.0251 C   0  0  0  0  0  0  0  0  0  0  0  0
   13.8554   -3.4941  -16.2524 O   0  0  0  0  0  0  0  0  0  0  0  0
   18.5906   -3.3679  -16.5803 C   0  0  0  0  0  0  0  0  0  0  0  0
   19.3023   -3.8430  -15.6884 O   0  0  0  0  0  0  0  0  0  0  0  0
   14.6771   -4.2164  -18.2106 O   0  0  0  0  0  0  0  0  0  0  0  0
   19.0019   -2.3040  -17.3447 O   0  0  0  0  0  0  0  0  0  0  0  0
  2  1  1  1
  2  3  1  0
  3  4  1  0
  4  5  1  0
  6  5  1  0
  6  7  1  0
  8  2  1  0
  8  9  2  0
 10  8  1  0
 11 10  1  0
 11 12  1  1
 13 12  1  0
 13 17  1  0
 14 13  2  0
 15 11  1  0
 16 15  2  0
 18 15  1  0
 19 18  1  0
 19 20  1  1
 20 21  1  0
 21 25  1  0
 21 22  2  0
 23 19  1  0
 24 23  2  0
 26 23  1  0
M  END
$$$$
