KDD.pdb
     RDKit          3D

 26 25  0  0  1  0  0  0  0  0999 V2000
   24.3149  -20.2615  -17.1384 N   0  0  0  0  0  0  0  0  0  0  0  0
   23.5388  -19.1476  -17.4308 C   0  0  1  0  0  0  0  0  0  0  0  0
   23.3365  -18.7612  -18.8602 C   0  0  0  0  0  0  0  0  0  0  0  0
   24.5250  -18.4696  -19.6705 C   0  0  0  0  0  0  0  0  0  0  0  0
   25.7789  -19.1824  -19.4773 C   0  0  0  0  0  0  0  0  0  0  0  0
   26.9583  -18.7541  -20.2764 C   0  0  0  0  0  0  0  0  0  0  0  0
   28.1052  -19.6419  -20.0136 N   0  0  0  0  0  0  0  0  0  0  0  0
   22.2180  -19.2253  -16.7581 C   0  0  0  0  0  0  0  0  0  0  0  0
   21.2749  -19.8884  -17.3244 O   0  0  0  0  0  0  0  0  0  0  0  0
   21.9621  -18.5992  -15.5255 N   0  0  0  0  0  0  0  0  0  0  0  0
   20.6705  -18.7699  -14.8314 C   0  0  1  0  0  0  0  0  0  0  0  0
   20.9148  -18.9682  -13.3629 C   0  0  0  0  0  0  0  0  0  0  0  0
   21.2213  -20.3460  -13.0141 C   0  0  0  0  0  0  0  0  0  0  0  0
   21.2865  -21.3125  -13.8012 O   0  0  0  0  0  0  0  0  0  0  0  0
   19.8205  -17.5854  -15.1339 C   0  0  0  0  0  0  0  0  0  0  0  0
   20.2040  -16.4083  -15.0355 O   0  0  0  0  0  0  0  0  0  0  0  0
   21.4781  -20.6726  -11.6617 O   0  0  0  0  0  0  0  0  0  0  0  0
   18.4577  -17.7541  -15.5727 N   0  0  0  0  0  0  0  0  0  0  0  0
   17.6079  -16.6284  -15.8917 C   0  0  1  0  0  0  0  0  0  0  0  0
   16.3285  -16.9890  -16.5637 C   0  0  0  0  0  0  0  0  0  0  0  0
   16.5995  -17.5244  -17.9107 C   0  0  0  0  0  0  0  0  0  0  0  0
   17.7446  -17.4342  -18.4430 O   0  0  0  0  0  0  0  0  0  0  0  0
   17.3888  -15.7669  -14.6936 C   0  0  0  0  0  0  0  0  0  0  0  0
   17.4031  -16.2704  -13.5649 O   0  0  0  0  0  0  0  0  0  0  0  0
   15.6256  -18.1418  -18.6443 O   0  0  0  0  0  0  0  0  0  0  0  0
   17.1755  -14.4239  -14.8842 O   0  0  0  0  0  0  0  0  0  0  0  0
  2  1  1  6
  2  3  1  0
  3  4  1  0
  4  5  1  0
  6  5  1  0
  6  7  1  0
  8  2  1  0
  8  9  2  0
 10  8  1  0
 11 10  1  0
 11 12  1  1
 13 12  1  0
 13 17  1  0
 14 13  2  0
 15 11  1  0
 16 15  2  0
 18 15  1  0
 19 18  1  0
 19 20  1  1
 20 21  1  0
 21 25  1  0
 21 22  2  0
 23 19  1  0
 24 23  2  0
 26 23  1  0
M  END
$$$$
