KDD.pdb
     RDKit          3D

 26 25  0  0  1  0  0  0  0  0999 V2000
   16.7437  -13.3244  -15.9780 N   0  0  0  0  0  0  0  0  0  0  0  0
   16.8657  -11.9502  -16.1372 C   0  0  1  0  0  0  0  0  0  0  0  0
   16.0147  -11.0466  -15.3048 C   0  0  0  0  0  0  0  0  0  0  0  0
   14.6351  -11.4626  -15.0256 C   0  0  0  0  0  0  0  0  0  0  0  0
   13.7192  -10.6228  -14.2681 C   0  0  0  0  0  0  0  0  0  0  0  0
   12.3195  -11.0949  -14.0918 C   0  0  0  0  0  0  0  0  0  0  0  0
   11.5243  -10.0836  -13.3725 N   0  0  0  0  0  0  0  0  0  0  0  0
   18.2825  -11.5229  -16.0228 C   0  0  0  0  0  0  0  0  0  0  0  0
   19.1096  -12.2865  -15.4041 O   0  0  0  0  0  0  0  0  0  0  0  0
   18.7511  -10.3137  -16.5657 N   0  0  0  0  0  0  0  0  0  0  0  0
   20.1646   -9.9094  -16.4332 C   0  0  1  0  0  0  0  0  0  0  0  0
   20.8094   -9.8945  -17.7896 C   0  0  0  0  0  0  0  0  0  0  0  0
   22.1874   -9.4316  -17.7638 C   0  0  0  0  0  0  0  0  0  0  0  0
   22.5741   -8.2498  -17.8720 O   0  0  0  0  0  0  0  0  0  0  0  0
   20.2079   -8.5901  -15.7444 C   0  0  0  0  0  0  0  0  0  0  0  0
   19.5409   -7.6009  -16.0892 O   0  0  0  0  0  0  0  0  0  0  0  0
   23.2277  -10.3767  -17.6024 O   0  0  0  0  0  0  0  0  0  0  0  0
   21.0597   -8.3891  -14.5987 N   0  0  0  0  0  0  0  0  0  0  0  0
   21.1763   -7.1054  -13.9434 C   0  0  1  0  0  0  0  0  0  0  0  0
   22.0770   -6.1386  -14.6309 C   0  0  0  0  0  0  0  0  0  0  0  0
   22.1377   -4.8768  -13.8703 C   0  0  0  0  0  0  0  0  0  0  0  0
   22.5214   -4.8464  -12.6642 O   0  0  0  0  0  0  0  0  0  0  0  0
   19.8315   -6.5209  -13.6682 C   0  0  0  0  0  0  0  0  0  0  0  0
   19.1206   -6.1479  -14.6080 O   0  0  0  0  0  0  0  0  0  0  0  0
   21.7820   -3.6838  -14.4343 O   0  0  0  0  0  0  0  0  0  0  0  0
   19.4197   -6.4141  -12.3626 O   0  0  0  0  0  0  0  0  0  0  0  0
  2  1  1  1
  2  3  1  0
  3  4  1  0
  4  5  1  0
  6  5  1  0
  6  7  1  0
  8  2  1  0
  8  9  2  0
 10  8  1  0
 11 10  1  0
 11 12  1  6
 13 12  1  0
 13 17  1  0
 14 13  2  0
 15 11  1  0
 16 15  2  0
 18 15  1  0
 19 18  1  0
 19 20  1  6
 20 21  1  0
 21 25  1  0
 21 22  2  0
 23 19  1  0
 24 23  2  0
 26 23  1  0
M  END
$$$$
