KDD.pdb
     RDKit          3D

 26 25  0  0  1  0  0  0  0  0999 V2000
   17.6871  -11.3732  -13.9189 N   0  0  0  0  0  0  0  0  0  0  0  0
   16.7154  -10.7126  -14.6590 C   0  0  1  0  0  0  0  0  0  0  0  0
   15.4851  -11.4568  -15.0663 C   0  0  0  0  0  0  0  0  0  0  0  0
   15.6151  -12.8846  -15.3806 C   0  0  0  0  0  0  0  0  0  0  0  0
   15.5196  -13.9084  -14.3509 C   0  0  0  0  0  0  0  0  0  0  0  0
   15.6200  -15.3328  -14.7682 C   0  0  0  0  0  0  0  0  0  0  0  0
   15.6767  -16.2105  -13.5854 N   0  0  0  0  0  0  0  0  0  0  0  0
   16.3184   -9.4408  -14.0049 C   0  0  0  0  0  0  0  0  0  0  0  0
   15.2907   -8.8120  -14.4504 O   0  0  0  0  0  0  0  0  0  0  0  0
   17.0262   -8.8997  -12.9173 N   0  0  0  0  0  0  0  0  0  0  0  0
   16.6347   -7.6121  -12.3106 C   0  0  1  0  0  0  0  0  0  0  0  0
   16.7513   -7.7078  -10.8164 C   0  0  0  0  0  0  0  0  0  0  0  0
   16.5460   -6.4355  -10.1432 C   0  0  0  0  0  0  0  0  0  0  0  0
   15.8005   -5.5089  -10.5218 O   0  0  0  0  0  0  0  0  0  0  0  0
   17.4849   -6.5424  -12.9020 C   0  0  0  0  0  0  0  0  0  0  0  0
   18.6964   -6.4043  -12.6666 O   0  0  0  0  0  0  0  0  0  0  0  0
   17.2376   -6.1762   -8.9365 O   0  0  0  0  0  0  0  0  0  0  0  0
   16.9208   -5.5771  -13.8122 N   0  0  0  0  0  0  0  0  0  0  0  0
   17.7085   -4.5071  -14.3830 C   0  0  1  0  0  0  0  0  0  0  0  0
   18.2275   -4.7823  -15.7517 C   0  0  0  0  0  0  0  0  0  0  0  0
   18.8889   -3.5801  -16.2918 C   0  0  0  0  0  0  0  0  0  0  0  0
   18.2933   -2.7954  -17.0870 O   0  0  0  0  0  0  0  0  0  0  0  0
   16.9786   -3.2080  -14.3106 C   0  0  0  0  0  0  0  0  0  0  0  0
   17.6088   -2.1462  -14.3671 O   0  0  0  0  0  0  0  0  0  0  0  0
   20.1748   -3.2599  -15.9575 O   0  0  0  0  0  0  0  0  0  0  0  0
   15.6117   -3.2323  -14.1821 O   0  0  0  0  0  0  0  0  0  0  0  0
  2  1  1  1
  2  3  1  0
  3  4  1  0
  4  5  1  0
  6  5  1  0
  6  7  1  0
  8  2  1  0
  8  9  2  0
 10  8  1  0
 11 10  1  0
 11 12  1  1
 13 12  1  0
 13 17  1  0
 14 13  2  0
 15 11  1  0
 16 15  2  0
 18 15  1  0
 19 18  1  0
 19 20  1  6
 20 21  1  0
 21 25  1  0
 21 22  2  0
 23 19  1  0
 24 23  2  0
 26 23  1  0
M  END
$$$$
