KDD.pdb
     RDKit          3D

 26 25  0  0  1  0  0  0  0  0999 V2000
   25.4777  -20.7476  -16.1605 N   0  0  0  0  0  0  0  0  0  0  0  0
   25.7799  -19.7279  -15.2674 C   0  0  1  0  0  0  0  0  0  0  0  0
   27.0945  -19.0272  -15.3866 C   0  0  0  0  0  0  0  0  0  0  0  0
   28.2996  -19.8468  -15.5602 C   0  0  0  0  0  0  0  0  0  0  0  0
   28.2420  -21.1841  -16.1311 C   0  0  0  0  0  0  0  0  0  0  0  0
   29.5060  -21.9639  -16.2170 C   0  0  0  0  0  0  0  0  0  0  0  0
   29.2322  -23.3336  -16.6876 N   0  0  0  0  0  0  0  0  0  0  0  0
   24.6939  -18.7171  -15.2235 C   0  0  0  0  0  0  0  0  0  0  0  0
   24.7692  -17.7673  -14.3620 O   0  0  0  0  0  0  0  0  0  0  0  0
   23.5869  -18.7622  -16.0890 N   0  0  0  0  0  0  0  0  0  0  0  0
   22.4703  -17.8056  -15.9576 C   0  0  1  0  0  0  0  0  0  0  0  0
   22.5273  -16.8133  -17.0835 C   0  0  0  0  0  0  0  0  0  0  0  0
   21.4567  -15.8307  -17.0358 C   0  0  0  0  0  0  0  0  0  0  0  0
   21.1985  -15.0619  -16.0872 O   0  0  0  0  0  0  0  0  0  0  0  0
   21.1986  -18.5789  -15.9159 C   0  0  0  0  0  0  0  0  0  0  0  0
   21.0449  -19.6972  -16.4336 O   0  0  0  0  0  0  0  0  0  0  0  0
   20.5964  -15.6960  -18.1509 O   0  0  0  0  0  0  0  0  0  0  0  0
   20.0384  -18.0460  -15.2463 N   0  0  0  0  0  0  0  0  0  0  0  0
   18.8173  -18.8070  -15.1013 C   0  0  1  0  0  0  0  0  0  0  0  0
   18.1501  -18.6612  -13.7777 C   0  0  0  0  0  0  0  0  0  0  0  0
   16.9532  -19.5205  -13.7185 C   0  0  0  0  0  0  0  0  0  0  0  0
   17.0331  -20.7512  -13.4320 O   0  0  0  0  0  0  0  0  0  0  0  0
   17.8828  -18.5399  -16.2331 C   0  0  0  0  0  0  0  0  0  0  0  0
   17.1411  -19.4402  -16.6419 O   0  0  0  0  0  0  0  0  0  0  0  0
   15.7043  -19.0261  -13.9706 O   0  0  0  0  0  0  0  0  0  0  0  0
   17.8752  -17.2860  -16.7928 O   0  0  0  0  0  0  0  0  0  0  0  0
  2  1  1  6
  2  3  1  0
  3  4  1  0
  4  5  1  0
  6  5  1  0
  6  7  1  0
  8  2  1  0
  8  9  2  0
 10  8  1  0
 11 10  1  0
 11 12  1  6
 13 12  1  0
 13 17  1  0
 14 13  2  0
 15 11  1  0
 16 15  2  0
 18 15  1  0
 19 18  1  0
 19 20  1  1
 20 21  1  0
 21 25  1  0
 21 22  2  0
 23 19  1  0
 24 23  2  0
 26 23  1  0
M  END
$$$$
