KDD.pdb
     RDKit          3D

 26 25  0  0  1  0  0  0  0  0999 V2000
   18.5692  -11.1392  -14.3616 N   0  0  0  0  0  0  0  0  0  0  0  0
   18.4579  -10.0301  -15.1898 C   0  0  1  0  0  0  0  0  0  0  0  0
   17.1264   -9.7000  -15.7828 C   0  0  0  0  0  0  0  0  0  0  0  0
   16.4343  -10.7441  -16.5478 C   0  0  0  0  0  0  0  0  0  0  0  0
   15.0969  -10.5425  -17.0847 C   0  0  0  0  0  0  0  0  0  0  0  0
   14.4594  -11.6690  -17.8180 C   0  0  0  0  0  0  0  0  0  0  0  0
   13.5338  -12.3983  -16.9327 N   0  0  0  0  0  0  0  0  0  0  0  0
   19.0114   -8.8178  -14.5363 C   0  0  0  0  0  0  0  0  0  0  0  0
   18.8405   -8.6653  -13.2724 O   0  0  0  0  0  0  0  0  0  0  0  0
   19.7142   -7.8312  -15.2501 N   0  0  0  0  0  0  0  0  0  0  0  0
   20.1934   -6.6010  -14.5899 C   0  0  1  0  0  0  0  0  0  0  0  0
   21.6568   -6.7373  -14.2806 C   0  0  0  0  0  0  0  0  0  0  0  0
   22.2370   -5.5313  -13.7126 C   0  0  0  0  0  0  0  0  0  0  0  0
   23.1150   -4.8145  -14.2353 O   0  0  0  0  0  0  0  0  0  0  0  0
   19.8825   -5.4464  -15.4771 C   0  0  0  0  0  0  0  0  0  0  0  0
   20.3944   -5.2675  -16.5943 O   0  0  0  0  0  0  0  0  0  0  0  0
   21.7951   -5.0865  -12.4443 O   0  0  0  0  0  0  0  0  0  0  0  0
   18.9350   -4.4405  -15.0661 N   0  0  0  0  0  0  0  0  0  0  0  0
   18.6144   -3.3013  -15.8970 C   0  0  1  0  0  0  0  0  0  0  0  0
   17.2067   -2.8282  -15.7831 C   0  0  0  0  0  0  0  0  0  0  0  0
   16.8475   -2.6502  -14.3641 C   0  0  0  0  0  0  0  0  0  0  0  0
   17.5795   -1.9871  -13.5720 O   0  0  0  0  0  0  0  0  0  0  0  0
   19.5958   -2.1964  -15.6922 C   0  0  0  0  0  0  0  0  0  0  0  0
   20.3641   -2.2297  -14.7246 O   0  0  0  0  0  0  0  0  0  0  0  0
   15.7077   -3.1935  -13.8411 O   0  0  0  0  0  0  0  0  0  0  0  0
   19.6155   -1.1634  -16.5967 O   0  0  0  0  0  0  0  0  0  0  0  0
  2  1  1  1
  2  3  1  0
  3  4  1  0
  4  5  1  0
  6  5  1  0
  6  7  1  0
  8  2  1  0
  8  9  2  0
 10  8  1  0
 11 10  1  0
 11 12  1  6
 13 12  1  0
 13 17  1  0
 14 13  2  0
 15 11  1  0
 16 15  2  0
 18 15  1  0
 19 18  1  0
 19 20  1  1
 20 21  1  0
 21 25  1  0
 21 22  2  0
 23 19  1  0
 24 23  2  0
 26 23  1  0
M  END
$$$$
