KDD.pdb
     RDKit          3D

 26 25  0  0  1  0  0  0  0  0999 V2000
   27.6486  -18.9650  -19.0215 N   0  0  0  0  0  0  0  0  0  0  0  0
   26.2745  -19.0475  -19.2046 C   0  0  1  0  0  0  0  0  0  0  0  0
   25.7391  -19.2521  -20.5848 C   0  0  0  0  0  0  0  0  0  0  0  0
   26.1056  -18.2765  -21.6184 C   0  0  0  0  0  0  0  0  0  0  0  0
   27.2826  -17.4301  -21.4913 C   0  0  0  0  0  0  0  0  0  0  0  0
   27.5058  -16.3817  -22.5229 C   0  0  0  0  0  0  0  0  0  0  0  0
   28.7424  -15.6334  -22.2338 N   0  0  0  0  0  0  0  0  0  0  0  0
   25.6743  -20.0571  -18.2972 C   0  0  0  0  0  0  0  0  0  0  0  0
   24.7926  -20.8638  -18.7682 O   0  0  0  0  0  0  0  0  0  0  0  0
   26.0347  -20.1615  -16.9423 N   0  0  0  0  0  0  0  0  0  0  0  0
   25.3958  -21.1506  -16.0520 C   0  0  1  0  0  0  0  0  0  0  0  0
   26.4337  -21.7553  -15.1505 C   0  0  0  0  0  0  0  0  0  0  0  0
   27.4301  -22.5354  -15.8665 C   0  0  0  0  0  0  0  0  0  0  0  0
   28.5723  -22.1550  -16.1957 O   0  0  0  0  0  0  0  0  0  0  0  0
   24.2969  -20.4694  -15.3136 C   0  0  0  0  0  0  0  0  0  0  0  0
   24.3586  -19.3033  -14.8909 O   0  0  0  0  0  0  0  0  0  0  0  0
   27.1206  -23.8618  -16.2492 O   0  0  0  0  0  0  0  0  0  0  0  0
   23.0593  -21.1576  -15.0427 N   0  0  0  0  0  0  0  0  0  0  0  0
   21.9148  -20.4842  -14.4703 C   0  0  1  0  0  0  0  0  0  0  0  0
   21.5462  -19.2080  -15.1440 C   0  0  0  0  0  0  0  0  0  0  0  0
   20.3743  -18.6073  -14.4806 C   0  0  0  0  0  0  0  0  0  0  0  0
   20.4101  -18.2478  -13.2671 O   0  0  0  0  0  0  0  0  0  0  0  0
   20.7524  -21.4117  -14.3515 C   0  0  0  0  0  0  0  0  0  0  0  0
   20.6319  -22.3495  -15.1476 O   0  0  0  0  0  0  0  0  0  0  0  0
   19.1971  -18.4121  -15.1468 O   0  0  0  0  0  0  0  0  0  0  0  0
   19.8406  -21.1923  -13.3485 O   0  0  0  0  0  0  0  0  0  0  0  0
  2  1  1  6
  2  3  1  0
  3  4  1  0
  4  5  1  0
  6  5  1  0
  6  7  1  0
  8  2  1  0
  8  9  2  0
 10  8  1  0
 11 10  1  0
 11 12  1  1
 13 12  1  0
 13 17  1  0
 14 13  2  0
 15 11  1  0
 16 15  2  0
 18 15  1  0
 19 18  1  0
 19 20  1  6
 20 21  1  0
 21 25  1  0
 21 22  2  0
 23 19  1  0
 24 23  2  0
 26 23  1  0
M  END
$$$$
