KDD.pdb
     RDKit          3D

 26 25  0  0  1  0  0  0  0  0999 V2000
   19.1874  -11.2535  -18.0701 N   0  0  0  0  0  0  0  0  0  0  0  0
   18.9387  -11.1512  -16.7077 C   0  0  1  0  0  0  0  0  0  0  0  0
   18.6210  -12.3902  -15.9348 C   0  0  0  0  0  0  0  0  0  0  0  0
   17.8517  -13.4442  -16.6070 C   0  0  0  0  0  0  0  0  0  0  0  0
   17.5898  -14.7267  -15.9713 C   0  0  0  0  0  0  0  0  0  0  0  0
   16.9369  -15.7897  -16.7818 C   0  0  0  0  0  0  0  0  0  0  0  0
   16.8585  -17.0449  -16.0131 N   0  0  0  0  0  0  0  0  0  0  0  0
   20.0294  -10.4168  -16.0192 C   0  0  0  0  0  0  0  0  0  0  0  0
   19.9131  -10.1740  -14.7632 O   0  0  0  0  0  0  0  0  0  0  0  0
   21.1832   -9.9770  -16.6915 N   0  0  0  0  0  0  0  0  0  0  0  0
   22.2863   -9.3130  -15.9694 C   0  0  1  0  0  0  0  0  0  0  0  0
   23.5993   -9.7432  -16.5580 C   0  0  0  0  0  0  0  0  0  0  0  0
   23.9651  -11.1060  -16.2078 C   0  0  0  0  0  0  0  0  0  0  0  0
   23.2407  -12.1172  -16.3109 O   0  0  0  0  0  0  0  0  0  0  0  0
   22.0642   -7.8421  -16.0332 C   0  0  0  0  0  0  0  0  0  0  0  0
   21.7205   -7.2324  -17.0591 O   0  0  0  0  0  0  0  0  0  0  0  0
   25.2588  -11.3611  -15.6953 O   0  0  0  0  0  0  0  0  0  0  0  0
   22.2445   -7.0221  -14.8612 N   0  0  0  0  0  0  0  0  0  0  0  0
   21.9371   -5.6091  -14.8570 C   0  0  1  0  0  0  0  0  0  0  0  0
   20.5592   -5.2737  -15.3125 C   0  0  0  0  0  0  0  0  0  0  0  0
   20.3607   -3.8128  -15.2863 C   0  0  0  0  0  0  0  0  0  0  0  0
   20.8894   -3.0553  -16.1521 O   0  0  0  0  0  0  0  0  0  0  0  0
   22.2556   -4.9961  -13.5348 C   0  0  0  0  0  0  0  0  0  0  0  0
   22.3604   -5.7147  -12.5346 O   0  0  0  0  0  0  0  0  0  0  0  0
   19.5968   -3.2117  -14.3255 O   0  0  0  0  0  0  0  0  0  0  0  0
   22.4248   -3.6350  -13.4688 O   0  0  0  0  0  0  0  0  0  0  0  0
  2  1  1  6
  2  3  1  0
  3  4  1  0
  4  5  1  0
  6  5  1  0
  6  7  1  0
  8  2  1  0
  8  9  2  0
 10  8  1  0
 11 10  1  0
 11 12  1  6
 13 12  1  0
 13 17  1  0
 14 13  2  0
 15 11  1  0
 16 15  2  0
 18 15  1  0
 19 18  1  0
 19 20  1  1
 20 21  1  0
 21 25  1  0
 21 22  2  0
 23 19  1  0
 24 23  2  0
 26 23  1  0
M  END
$$$$
