EMT.pdb
     RDKit          3D

 25 24  0  0  1  0  0  0  0  0999 V2000
    7.5142  -16.9015   20.1871 N   0  0  0  0  0  0  0  0  0  0  0  0
    8.9244  -16.9532   20.5621 C   0  0  1  0  0  0  0  0  0  0  0  0
    9.7713  -16.3076   19.5145 C   0  0  0  0  0  0  0  0  0  0  0  0
    9.2382  -16.3926   18.1238 C   0  0  0  0  0  0  0  0  0  0  0  0
   10.2279  -16.7303   17.0947 C   0  0  0  0  0  0  0  0  0  0  0  0
   11.4125  -17.0829   17.2975 O   0  0  0  0  0  0  0  0  0  0  0  0
    9.1053  -16.2701   21.8700 C   0  0  0  0  0  0  0  0  0  0  0  0
   10.2132  -16.0228   22.4016 O   0  0  0  0  0  0  0  0  0  0  0  0
    9.8129  -16.6522   15.7680 O   0  0  0  0  0  0  0  0  0  0  0  0
    7.7653  -11.5488   27.3352 C   0  0  0  0  0  0  0  0  0  0  0  0
    7.7964  -12.3133   25.6980 S   0  0  0  0  0  0  0  0  0  0  0  0
    6.9189  -13.8919   25.6917 C   0  0  0  0  0  0  0  0  0  0  0  0
    6.8451  -14.4385   24.3034 C   0  0  0  0  0  0  0  0  0  0  0  0
    8.0795  -15.2308   23.9256 C   0  0  2  0  0  0  0  0  0  0  0  0
    7.9540  -15.8380   22.6265 N   0  0  0  0  0  0  0  0  0  0  0  0
    8.3974  -16.2665   24.9408 C   0  0  0  0  0  0  0  0  0  0  0  0
    7.5108  -17.1095   25.2706 O   0  0  0  0  0  0  0  0  0  0  0  0
   10.6757  -19.0720   24.6431 C   0  0  0  0  0  0  0  0  0  0  0  0
   11.0701  -18.3563   25.9056 C   0  0  1  0  0  0  0  0  0  0  0  0
   12.2990  -17.7086   25.7981 O   0  0  0  0  0  0  0  0  0  0  0  0
    9.9998  -17.4628   26.4527 C   0  0  2  0  0  0  0  0  0  0  0  0
    9.6505  -16.3776   25.5786 N   0  0  0  0  0  0  0  0  0  0  0  0
   10.3473  -17.0207   27.8147 C   0  0  0  0  0  0  0  0  0  0  0  0
   10.4725  -15.8124   28.1004 O   0  0  0  0  0  0  0  0  0  0  0  0
   10.5389  -17.9716   28.7991 O   0  0  0  0  0  0  0  0  0  0  0  0
  2  1  1  6
  2  7  1  0
  3  2  1  0
  3  4  1  0
  5  4  1  0
  6  5  2  0
  7  8  2  0
  9  5  1  0
 10 11  1  0
 11 12  1  0
 13 12  1  0
 14 13  1  1
 14 16  1  0
 15  7  1  0
 15 14  1  0
 16 17  2  0
 19 18  1  6
 19 21  1  0
 20 19  1  0
 21 23  1  0
 22 16  1  0
 21 22  1  6
 23 24  2  0
 23 25  1  0
M  END
$$$$
