EMT.pdb
     RDKit          3D

 25 24  0  0  1  0  0  0  0  0999 V2000
    7.4972  -17.9536   21.3338 N   0  0  0  0  0  0  0  0  0  0  0  0
    8.9464  -17.7764   21.3150 C   0  0  1  0  0  0  0  0  0  0  0  0
    9.4078  -17.3600   19.9566 C   0  0  0  0  0  0  0  0  0  0  0  0
    8.4349  -16.5404   19.1775 C   0  0  0  0  0  0  0  0  0  0  0  0
    8.9216  -16.0584   17.8801 C   0  0  0  0  0  0  0  0  0  0  0  0
    8.2671  -15.3874   17.0493 O   0  0  0  0  0  0  0  0  0  0  0  0
    9.3249  -16.7559   22.3276 C   0  0  0  0  0  0  0  0  0  0  0  0
   10.4907  -16.3388   22.5228 O   0  0  0  0  0  0  0  0  0  0  0  0
   10.2336  -16.3756   17.5391 O   0  0  0  0  0  0  0  0  0  0  0  0
    6.9152  -11.2899   27.5574 C   0  0  0  0  0  0  0  0  0  0  0  0
    6.4729  -12.4539   26.2477 S   0  0  0  0  0  0  0  0  0  0  0  0
    7.8283  -13.5942   25.8948 C   0  0  0  0  0  0  0  0  0  0  0  0
    7.5272  -14.3940   24.6696 C   0  0  0  0  0  0  0  0  0  0  0  0
    8.6541  -15.3366   24.3008 C   0  0  2  0  0  0  0  0  0  0  0  0
    8.3151  -16.1683   23.1759 N   0  0  0  0  0  0  0  0  0  0  0  0
    9.0602  -16.1815   25.4520 C   0  0  0  0  0  0  0  0  0  0  0  0
    8.2330  -17.0062   25.9431 O   0  0  0  0  0  0  0  0  0  0  0  0
   13.1913  -16.4111   26.6067 C   0  0  0  0  0  0  0  0  0  0  0  0
   12.2128  -17.5417   26.7670 C   0  0  1  0  0  0  0  0  0  0  0  0
   12.6318  -18.4912   27.6965 O   0  0  0  0  0  0  0  0  0  0  0  0
   10.8042  -17.0919   27.0058 C   0  0  2  0  0  0  0  0  0  0  0  0
   10.3362  -16.1265   26.0505 N   0  0  0  0  0  0  0  0  0  0  0  0
   10.6356  -16.6536   28.4025 C   0  0  0  0  0  0  0  0  0  0  0  0
   10.2671  -15.4958   28.6869 O   0  0  0  0  0  0  0  0  0  0  0  0
   10.8930  -17.5508   29.4218 O   0  0  0  0  0  0  0  0  0  0  0  0
  2  1  1  6
  2  7  1  0
  3  2  1  0
  3  4  1  0
  5  4  1  0
  6  5  2  0
  7  8  2  0
  9  5  1  0
 10 11  1  0
 11 12  1  0
 13 12  1  0
 14 13  1  1
 14 16  1  0
 15  7  1  0
 15 14  1  0
 16 17  2  0
 19 18  1  1
 19 21  1  0
 20 19  1  0
 21 23  1  0
 22 16  1  0
 21 22  1  6
 23 24  2  0
 23 25  1  0
M  END
$$$$
