EMT.pdb
     RDKit          3D

 25 24  0  0  1  0  0  0  0  0999 V2000
    8.5305  -14.8391   19.3029 N   0  0  0  0  0  0  0  0  0  0  0  0
    7.5685  -15.1719   20.3496 C   0  0  1  0  0  0  0  0  0  0  0  0
    7.1048  -16.5848   20.2080 C   0  0  0  0  0  0  0  0  0  0  0  0
    7.8064  -17.3828   19.1609 C   0  0  0  0  0  0  0  0  0  0  0  0
    7.3081  -18.7508   18.9792 C   0  0  0  0  0  0  0  0  0  0  0  0
    6.4801  -19.1263   18.1178 O   0  0  0  0  0  0  0  0  0  0  0  0
    8.2033  -14.9642   21.6778 C   0  0  0  0  0  0  0  0  0  0  0  0
    9.4166  -15.1535   21.9290 O   0  0  0  0  0  0  0  0  0  0  0  0
    7.8010  -19.7237   19.8446 O   0  0  0  0  0  0  0  0  0  0  0  0
    6.5929  -10.4290   26.5975 C   0  0  0  0  0  0  0  0  0  0  0  0
    6.6021  -12.0998   27.2861 S   0  0  0  0  0  0  0  0  0  0  0  0
    7.6672  -13.2006   26.3290 C   0  0  0  0  0  0  0  0  0  0  0  0
    7.0989  -13.4141   24.9640 C   0  0  0  0  0  0  0  0  0  0  0  0
    7.9866  -14.2809   24.0952 C   0  0  2  0  0  0  0  0  0  0  0  0
    7.4106  -14.5114   22.7963 N   0  0  0  0  0  0  0  0  0  0  0  0
    8.2961  -15.5770   24.7499 C   0  0  0  0  0  0  0  0  0  0  0  0
    7.3569  -16.3908   24.9974 O   0  0  0  0  0  0  0  0  0  0  0  0
   12.2444  -17.1264   24.8227 C   0  0  0  0  0  0  0  0  0  0  0  0
   11.0214  -17.9736   25.0421 C   0  0  1  0  0  0  0  0  0  0  0  0
   11.3101  -19.1906   25.6557 O   0  0  0  0  0  0  0  0  0  0  0  0
    9.8968  -17.2478   25.7145 C   0  0  2  0  0  0  0  0  0  0  0  0
    9.5971  -15.9730   25.1241 N   0  0  0  0  0  0  0  0  0  0  0  0
   10.1310  -17.1726   27.1673 C   0  0  0  0  0  0  0  0  0  0  0  0
   10.1776  -16.0803   27.7688 O   0  0  0  0  0  0  0  0  0  0  0  0
   10.3031  -18.3445   27.8796 O   0  0  0  0  0  0  0  0  0  0  0  0
  2  1  1  6
  2  7  1  0
  3  2  1  0
  3  4  1  0
  5  4  1  0
  6  5  2  0
  7  8  2  0
  9  5  1  0
 10 11  1  0
 11 12  1  0
 13 12  1  0
 14 13  1  1
 14 16  1  0
 15  7  1  0
 15 14  1  0
 16 17  2  0
 19 18  1  1
 19 21  1  0
 20 19  1  0
 21 23  1  0
 22 16  1  0
 21 22  1  6
 23 24  2  0
 23 25  1  0
M  END
$$$$
