EMT.pdb
     RDKit          3D

 25 24  0  0  1  0  0  0  0  0999 V2000
    8.2964  -14.3633   19.6089 N   0  0  0  0  0  0  0  0  0  0  0  0
    7.4250  -14.9081   20.6461 C   0  0  1  0  0  0  0  0  0  0  0  0
    7.0454  -16.3173   20.3276 C   0  0  0  0  0  0  0  0  0  0  0  0
    8.1762  -17.2900   20.2990 C   0  0  0  0  0  0  0  0  0  0  0  0
    7.7876  -18.6955   20.1374 C   0  0  0  0  0  0  0  0  0  0  0  0
    6.6212  -19.1260   19.9857 O   0  0  0  0  0  0  0  0  0  0  0  0
    8.1267  -14.8424   21.9551 C   0  0  0  0  0  0  0  0  0  0  0  0
    9.3714  -14.8143   22.0996 O   0  0  0  0  0  0  0  0  0  0  0  0
    8.8100  -19.6404   20.1539 O   0  0  0  0  0  0  0  0  0  0  0  0
    7.3022  -11.4663   27.9299 C   0  0  0  0  0  0  0  0  0  0  0  0
    6.1210  -11.7332   26.5886 S   0  0  0  0  0  0  0  0  0  0  0  0
    6.8969  -12.5596   25.1825 C   0  0  0  0  0  0  0  0  0  0  0  0
    7.1072  -14.0075   25.4837 C   0  0  0  0  0  0  0  0  0  0  0  0
    8.0031  -14.6870   24.4687 C   0  0  2  0  0  0  0  0  0  0  0  0
    7.3675  -14.8059   23.1826 N   0  0  0  0  0  0  0  0  0  0  0  0
    8.4492  -16.0226   24.9393 C   0  0  0  0  0  0  0  0  0  0  0  0
    7.6296  -16.9889   24.9418 O   0  0  0  0  0  0  0  0  0  0  0  0
   11.0092  -18.2850   23.4568 C   0  0  0  0  0  0  0  0  0  0  0  0
   11.3584  -18.0923   24.9068 C   0  0  1  0  0  0  0  0  0  0  0  0
   12.5085  -17.3272   25.0885 O   0  0  0  0  0  0  0  0  0  0  0  0
   10.2140  -17.6105   25.7445 C   0  0  2  0  0  0  0  0  0  0  0  0
    9.7560  -16.2945   25.3950 N   0  0  0  0  0  0  0  0  0  0  0  0
   10.5313  -17.7521   27.1764 C   0  0  0  0  0  0  0  0  0  0  0  0
   10.4890  -16.7796   27.9572 O   0  0  0  0  0  0  0  0  0  0  0  0
   10.8847  -18.9960   27.6644 O   0  0  0  0  0  0  0  0  0  0  0  0
  2  1  1  6
  2  7  1  0
  3  2  1  0
  3  4  1  0
  5  4  1  0
  6  5  2  0
  7  8  2  0
  9  5  1  0
 10 11  1  0
 11 12  1  0
 13 12  1  0
 14 13  1  1
 14 16  1  0
 15  7  1  0
 15 14  1  0
 16 17  2  0
 19 18  1  6
 19 21  1  0
 20 19  1  0
 21 23  1  0
 22 16  1  0
 21 22  1  1
 23 24  2  0
 23 25  1  0
M  END
$$$$
