EMT.pdb
     RDKit          3D

 25 24  0  0  1  0  0  0  0  0999 V2000
    8.9270  -15.1495   19.3231 N   0  0  0  0  0  0  0  0  0  0  0  0
    7.8446  -15.1933   20.3021 C   0  0  1  0  0  0  0  0  0  0  0  0
    7.0680  -16.4626   20.1711 C   0  0  0  0  0  0  0  0  0  0  0  0
    7.8494  -17.7130   20.3976 C   0  0  0  0  0  0  0  0  0  0  0  0
    7.1038  -18.8116   21.0219 C   0  0  0  0  0  0  0  0  0  0  0  0
    5.9728  -19.2253   20.6774 O   0  0  0  0  0  0  0  0  0  0  0  0
    8.4190  -15.0743   21.6681 C   0  0  0  0  0  0  0  0  0  0  0  0
    9.6286  -15.2373   21.9529 O   0  0  0  0  0  0  0  0  0  0  0  0
    7.7087  -19.4556   22.0979 O   0  0  0  0  0  0  0  0  0  0  0  0
    6.0699  -10.7374   26.0660 C   0  0  0  0  0  0  0  0  0  0  0  0
    6.6612  -12.0865   27.1128 S   0  0  0  0  0  0  0  0  0  0  0  0
    7.7861  -13.1748   26.2115 C   0  0  0  0  0  0  0  0  0  0  0  0
    7.2002  -13.5445   24.8880 C   0  0  0  0  0  0  0  0  0  0  0  0
    8.0971  -14.4729   24.0956 C   0  0  2  0  0  0  0  0  0  0  0  0
    7.5658  -14.7487   22.7864 N   0  0  0  0  0  0  0  0  0  0  0  0
    8.3456  -15.7447   24.8202 C   0  0  0  0  0  0  0  0  0  0  0  0
    7.3723  -16.5104   25.0882 O   0  0  0  0  0  0  0  0  0  0  0  0
   10.7087  -18.6371   23.7994 C   0  0  0  0  0  0  0  0  0  0  0  0
   10.9942  -18.2073   25.2120 C   0  0  1  0  0  0  0  0  0  0  0  0
   12.2196  -17.5572   25.3418 O   0  0  0  0  0  0  0  0  0  0  0  0
    9.8733  -17.4451   25.8494 C   0  0  2  0  0  0  0  0  0  0  0  0
    9.6236  -16.1680   25.2408 N   0  0  0  0  0  0  0  0  0  0  0  0
   10.0725  -17.3631   27.3070 C   0  0  0  0  0  0  0  0  0  0  0  0
   10.2017  -16.2680   27.8910 O   0  0  0  0  0  0  0  0  0  0  0  0
   10.1171  -18.5316   28.0438 O   0  0  0  0  0  0  0  0  0  0  0  0
  2  1  1  6
  2  7  1  0
  3  2  1  0
  3  4  1  0
  5  4  1  0
  6  5  2  0
  7  8  2  0
  9  5  1  0
 10 11  1  0
 11 12  1  0
 13 12  1  0
 14 13  1  1
 14 16  1  0
 15  7  1  0
 15 14  1  0
 16 17  2  0
 19 18  1  6
 19 21  1  0
 20 19  1  0
 21 23  1  0
 22 16  1  0
 21 22  1  6
 23 24  2  0
 23 25  1  0
M  END
$$$$
