EMT.pdb
     RDKit          3D

 25 24  0  0  1  0  0  0  0  0999 V2000
    7.9231  -17.2227   20.8599 N   0  0  0  0  0  0  0  0  0  0  0  0
    9.3588  -17.1909   21.1237 C   0  0  1  0  0  0  0  0  0  0  0  0
   10.0770  -16.4575   20.0385 C   0  0  0  0  0  0  0  0  0  0  0  0
   10.2875  -17.2300   18.7798 C   0  0  0  0  0  0  0  0  0  0  0  0
   11.0726  -16.5426   17.7485 C   0  0  0  0  0  0  0  0  0  0  0  0
   12.1806  -16.9118   17.2960 O   0  0  0  0  0  0  0  0  0  0  0  0
    9.5976  -16.5382   22.4379 C   0  0  0  0  0  0  0  0  0  0  0  0
   10.7180  -16.4257   22.9885 O   0  0  0  0  0  0  0  0  0  0  0  0
   10.5371  -15.3700   17.2224 O   0  0  0  0  0  0  0  0  0  0  0  0
    6.9805  -11.1146   26.3321 C   0  0  0  0  0  0  0  0  0  0  0  0
    6.3402  -12.7811   26.6124 S   0  0  0  0  0  0  0  0  0  0  0  0
    7.6003  -14.0338   26.2883 C   0  0  0  0  0  0  0  0  0  0  0  0
    7.5173  -14.4978   24.8707 C   0  0  0  0  0  0  0  0  0  0  0  0
    8.6641  -15.4118   24.4916 C   0  0  2  0  0  0  0  0  0  0  0  0
    8.4932  -15.9749   23.1779 N   0  0  0  0  0  0  0  0  0  0  0  0
    8.8521  -16.4966   25.4877 C   0  0  0  0  0  0  0  0  0  0  0  0
    7.9002  -17.2991   25.7232 O   0  0  0  0  0  0  0  0  0  0  0  0
   10.9101  -19.4876   25.3330 C   0  0  0  0  0  0  0  0  0  0  0  0
   11.2953  -18.7787   26.6021 C   0  0  1  0  0  0  0  0  0  0  0  0
   12.5663  -18.2117   26.5399 O   0  0  0  0  0  0  0  0  0  0  0  0
   10.2617  -17.8110   27.0907 C   0  0  2  0  0  0  0  0  0  0  0  0
   10.0483  -16.6986   26.2071 N   0  0  0  0  0  0  0  0  0  0  0  0
   10.5555  -17.4026   28.4757 C   0  0  0  0  0  0  0  0  0  0  0  0
   10.7689  -16.2106   28.7770 O   0  0  0  0  0  0  0  0  0  0  0  0
   10.5951  -18.3675   29.4645 O   0  0  0  0  0  0  0  0  0  0  0  0
  2  1  1  6
  2  7  1  0
  3  2  1  0
  3  4  1  0
  5  4  1  0
  6  5  2  0
  7  8  2  0
  9  5  1  0
 10 11  1  0
 11 12  1  0
 13 12  1  0
 14 13  1  1
 14 16  1  0
 15  7  1  0
 15 14  1  0
 16 17  2  0
 19 18  1  6
 19 21  1  0
 20 19  1  0
 21 23  1  0
 22 16  1  0
 21 22  1  6
 23 24  2  0
 23 25  1  0
M  END
$$$$
