EMT.pdb
     RDKit          3D

 25 24  0  0  1  0  0  0  0  0999 V2000
    9.1282  -15.3948   19.3489 N   0  0  0  0  0  0  0  0  0  0  0  0
    8.0108  -15.5018   20.2827 C   0  0  1  0  0  0  0  0  0  0  0  0
    7.4048  -16.8659   20.2236 C   0  0  0  0  0  0  0  0  0  0  0  0
    8.3529  -17.9940   20.4557 C   0  0  0  0  0  0  0  0  0  0  0  0
    7.7662  -19.3348   20.3519 C   0  0  0  0  0  0  0  0  0  0  0  0
    6.5751  -19.5993   20.0690 O   0  0  0  0  0  0  0  0  0  0  0  0
    8.4955  -15.2078   21.6570 C   0  0  0  0  0  0  0  0  0  0  0  0
    9.6919  -15.2761   22.0242 O   0  0  0  0  0  0  0  0  0  0  0  0
    8.6115  -20.4153   20.5898 O   0  0  0  0  0  0  0  0  0  0  0  0
    6.9521  -11.3976   28.4127 C   0  0  0  0  0  0  0  0  0  0  0  0
    6.3681  -11.9544   26.7957 S   0  0  0  0  0  0  0  0  0  0  0  0
    7.4345  -13.2457   26.1193 C   0  0  0  0  0  0  0  0  0  0  0  0
    6.9772  -13.6313   24.7505 C   0  0  0  0  0  0  0  0  0  0  0  0
    7.9907  -14.4880   24.0203 C   0  0  2  0  0  0  0  0  0  0  0  0
    7.5623  -14.8096   22.6842 N   0  0  0  0  0  0  0  0  0  0  0  0
    8.2956  -15.7335   24.7686 C   0  0  0  0  0  0  0  0  0  0  0  0
    7.4239  -16.6508   24.8346 O   0  0  0  0  0  0  0  0  0  0  0  0
   10.6224  -18.3936   23.9817 C   0  0  0  0  0  0  0  0  0  0  0  0
   10.9532  -17.9656   25.3849 C   0  0  1  0  0  0  0  0  0  0  0  0
   12.1766  -17.3051   25.4742 O   0  0  0  0  0  0  0  0  0  0  0  0
    9.8485  -17.2154   26.0635 C   0  0  2  0  0  0  0  0  0  0  0  0
    9.5201  -15.9700   25.4273 N   0  0  0  0  0  0  0  0  0  0  0  0
   10.1333  -17.0735   27.5022 C   0  0  0  0  0  0  0  0  0  0  0  0
   10.2089  -15.9543   28.0488 O   0  0  0  0  0  0  0  0  0  0  0  0
   10.3212  -18.2117   28.2634 O   0  0  0  0  0  0  0  0  0  0  0  0
  2  1  1  6
  2  7  1  0
  3  2  1  0
  3  4  1  0
  5  4  1  0
  6  5  2  0
  7  8  2  0
  9  5  1  0
 10 11  1  0
 11 12  1  0
 13 12  1  0
 14 13  1  1
 14 16  1  0
 15  7  1  0
 15 14  1  0
 16 17  2  0
 19 18  1  6
 19 21  1  0
 20 19  1  0
 21 23  1  0
 22 16  1  0
 21 22  1  6
 23 24  2  0
 23 25  1  0
M  END
$$$$
