EMT.pdb
     RDKit          3D

 25 24  0  0  1  0  0  0  0  0999 V2000
    8.2023  -17.3303   20.5643 N   0  0  0  0  0  0  0  0  0  0  0  0
    9.3601  -17.8892   21.2563 C   0  0  1  0  0  0  0  0  0  0  0  0
   10.5759  -17.8155   20.3916 C   0  0  0  0  0  0  0  0  0  0  0  0
   10.6109  -16.6675   19.4395 C   0  0  0  0  0  0  0  0  0  0  0  0
   11.8335  -16.5593   18.6357 C   0  0  0  0  0  0  0  0  0  0  0  0
   12.8159  -15.8224   18.8820 O   0  0  0  0  0  0  0  0  0  0  0  0
    9.5774  -17.1418   22.5229 C   0  0  0  0  0  0  0  0  0  0  0  0
   10.6196  -17.1967   23.2170 O   0  0  0  0  0  0  0  0  0  0  0  0
   11.9105  -17.3492   17.4917 O   0  0  0  0  0  0  0  0  0  0  0  0
    6.6736  -11.5375   27.4093 C   0  0  0  0  0  0  0  0  0  0  0  0
    6.4900  -12.4941   25.8871 S   0  0  0  0  0  0  0  0  0  0  0  0
    7.7552  -13.7766   25.7587 C   0  0  0  0  0  0  0  0  0  0  0  0
    7.6291  -14.5007   24.4582 C   0  0  0  0  0  0  0  0  0  0  0  0
    8.6982  -15.5585   24.2773 C   0  0  2  0  0  0  0  0  0  0  0  0
    8.5448  -16.2737   23.0375 N   0  0  0  0  0  0  0  0  0  0  0  0
    8.7218  -16.5133   25.4140 C   0  0  0  0  0  0  0  0  0  0  0  0
    7.6761  -17.1697   25.6990 O   0  0  0  0  0  0  0  0  0  0  0  0
   10.1807  -19.7519   25.7393 C   0  0  0  0  0  0  0  0  0  0  0  0
   10.7476  -18.9395   26.8707 C   0  0  1  0  0  0  0  0  0  0  0  0
   12.0870  -18.6071   26.6793 O   0  0  0  0  0  0  0  0  0  0  0  0
    9.9119  -17.7524   27.2395 C   0  0  2  0  0  0  0  0  0  0  0  0
    9.8576  -16.7442   26.2176 N   0  0  0  0  0  0  0  0  0  0  0  0
   10.3219  -17.2246   28.5527 C   0  0  0  0  0  0  0  0  0  0  0  0
   10.6934  -16.0422   28.6978 O   0  0  0  0  0  0  0  0  0  0  0  0
   10.2931  -18.0638   29.6506 O   0  0  0  0  0  0  0  0  0  0  0  0
  2  1  1  6
  2  7  1  0
  3  2  1  0
  3  4  1  0
  5  4  1  0
  6  5  2  0
  7  8  2  0
  9  5  1  0
 10 11  1  0
 11 12  1  0
 13 12  1  0
 14 13  1  1
 14 16  1  0
 15  7  1  0
 15 14  1  0
 16 17  2  0
 19 18  1  6
 19 21  1  0
 20 19  1  0
 21 23  1  0
 22 16  1  0
 21 22  1  6
 23 24  2  0
 23 25  1  0
M  END
$$$$
