EMT.pdb
     RDKit          3D

 25 24  0  0  1  0  0  0  0  0999 V2000
    6.7058  -17.6919   20.7725 N   0  0  0  0  0  0  0  0  0  0  0  0
    8.1659  -17.7024   20.7745 C   0  0  1  0  0  0  0  0  0  0  0  0
    8.6974  -17.1815   19.4794 C   0  0  0  0  0  0  0  0  0  0  0  0
    7.8416  -16.1633   18.8037 C   0  0  0  0  0  0  0  0  0  0  0  0
    8.3862  -15.6185   17.5550 C   0  0  0  0  0  0  0  0  0  0  0  0
    8.2209  -14.4542   17.1238 O   0  0  0  0  0  0  0  0  0  0  0  0
    8.6568  -16.8750   21.9079 C   0  0  0  0  0  0  0  0  0  0  0  0
    9.8635  -16.6453   22.1568 O   0  0  0  0  0  0  0  0  0  0  0  0
    9.1594  -16.4745   16.7754 O   0  0  0  0  0  0  0  0  0  0  0  0
    7.3161  -11.0013   26.0075 C   0  0  0  0  0  0  0  0  0  0  0  0
    6.4475  -12.5755   26.1900 S   0  0  0  0  0  0  0  0  0  0  0  0
    7.5293  -13.9719   25.8134 C   0  0  0  0  0  0  0  0  0  0  0  0
    7.1323  -14.6004   24.5176 C   0  0  0  0  0  0  0  0  0  0  0  0
    8.1436  -15.6186   24.0330 C   0  0  2  0  0  0  0  0  0  0  0  0
    7.7175  -16.2668   22.8204 N   0  0  0  0  0  0  0  0  0  0  0  0
    8.4397  -16.6348   25.0741 C   0  0  0  0  0  0  0  0  0  0  0  0
    7.4978  -17.3421   25.5411 O   0  0  0  0  0  0  0  0  0  0  0  0
   10.5803  -19.5823   24.5167 C   0  0  0  0  0  0  0  0  0  0  0  0
   11.0639  -18.9265   25.7806 C   0  0  1  0  0  0  0  0  0  0  0  0
   12.3135  -18.3280   25.6348 O   0  0  0  0  0  0  0  0  0  0  0  0
   10.0602  -18.0074   26.4062 C   0  0  2  0  0  0  0  0  0  0  0  0
    9.7305  -16.8713   25.5911 N   0  0  0  0  0  0  0  0  0  0  0  0
   10.4813  -17.6395   27.7694 C   0  0  0  0  0  0  0  0  0  0  0  0
   10.5971  -18.4924   28.6729 O   0  0  0  0  0  0  0  0  0  0  0  0
   10.7544  -16.3144   28.0515 O   0  0  0  0  0  0  0  0  0  0  0  0
  2  1  1  6
  2  7  1  0
  3  2  1  0
  3  4  1  0
  5  4  1  0
  6  5  2  0
  7  8  2  0
  9  5  1  0
 10 11  1  0
 11 12  1  0
 13 12  1  0
 14 13  1  1
 14 16  1  0
 15  7  1  0
 15 14  1  0
 16 17  2  0
 19 18  1  6
 19 21  1  0
 20 19  1  0
 21 23  1  0
 22 16  1  0
 21 22  1  6
 23 24  2  0
 23 25  1  0
M  END
$$$$
