EMT.pdb
     RDKit          3D

 25 24  0  0  1  0  0  0  0  0999 V2000
    7.9018  -17.4769   20.7341 N   0  0  0  0  0  0  0  0  0  0  0  0
    9.3277  -17.4631   21.0485 C   0  0  1  0  0  0  0  0  0  0  0  0
   10.1270  -17.0700   19.8494 C   0  0  0  0  0  0  0  0  0  0  0  0
    9.3419  -16.4779   18.7275 C   0  0  0  0  0  0  0  0  0  0  0  0
   10.1143  -16.1697   17.5187 C   0  0  0  0  0  0  0  0  0  0  0  0
   11.3552  -16.2784   17.3881 O   0  0  0  0  0  0  0  0  0  0  0  0
    9.5698  -16.5150   22.1677 C   0  0  0  0  0  0  0  0  0  0  0  0
   10.7008  -16.1395   22.5560 O   0  0  0  0  0  0  0  0  0  0  0  0
    9.4025  -15.7136   16.4124 O   0  0  0  0  0  0  0  0  0  0  0  0
    7.3539  -11.1514   27.0000 C   0  0  0  0  0  0  0  0  0  0  0  0
    6.4828  -12.5036   26.1763 S   0  0  0  0  0  0  0  0  0  0  0  0
    7.5545  -13.9409   25.9579 C   0  0  0  0  0  0  0  0  0  0  0  0
    7.4809  -14.4332   24.5494 C   0  0  0  0  0  0  0  0  0  0  0  0
    8.6141  -15.3774   24.2050 C   0  0  2  0  0  0  0  0  0  0  0  0
    8.4560  -15.9547   22.8958 N   0  0  0  0  0  0  0  0  0  0  0  0
    8.7589  -16.4521   25.2190 C   0  0  0  0  0  0  0  0  0  0  0  0
    7.7621  -17.1816   25.5014 O   0  0  0  0  0  0  0  0  0  0  0  0
   10.7883  -19.4949   24.8881 C   0  0  0  0  0  0  0  0  0  0  0  0
   11.1926  -18.8311   26.1755 C   0  0  1  0  0  0  0  0  0  0  0  0
   12.4587  -18.2533   26.1112 O   0  0  0  0  0  0  0  0  0  0  0  0
   10.1622  -17.8893   26.7188 C   0  0  2  0  0  0  0  0  0  0  0  0
    9.9607  -16.7221   25.9060 N   0  0  0  0  0  0  0  0  0  0  0  0
   10.4507  -17.5710   28.1282 C   0  0  0  0  0  0  0  0  0  0  0  0
   10.4923  -18.4572   29.0058 O   0  0  0  0  0  0  0  0  0  0  0  0
   10.6808  -16.2556   28.4844 O   0  0  0  0  0  0  0  0  0  0  0  0
  2  1  1  6
  2  7  1  0
  3  2  1  0
  3  4  1  0
  5  4  1  0
  6  5  2  0
  7  8  2  0
  9  5  1  0
 10 11  1  0
 11 12  1  0
 13 12  1  0
 14 13  1  1
 14 16  1  0
 15  7  1  0
 15 14  1  0
 16 17  2  0
 19 18  1  6
 19 21  1  0
 20 19  1  0
 21 23  1  0
 22 16  1  0
 21 22  1  6
 23 24  2  0
 23 25  1  0
M  END
$$$$
