EMT.pdb
     RDKit          3D

 25 24  0  0  1  0  0  0  0  0999 V2000
    8.0488  -14.5829   19.3693 N   0  0  0  0  0  0  0  0  0  0  0  0
    7.6523  -15.6557   20.2770 C   0  0  1  0  0  0  0  0  0  0  0  0
    8.0778  -16.9831   19.7401 C   0  0  0  0  0  0  0  0  0  0  0  0
    9.2240  -16.9458   18.7859 C   0  0  0  0  0  0  0  0  0  0  0  0
    9.3119  -18.0884   17.8697 C   0  0  0  0  0  0  0  0  0  0  0  0
    8.5145  -19.0527   17.8140 O   0  0  0  0  0  0  0  0  0  0  0  0
    8.2628  -15.4149   21.6109 C   0  0  0  0  0  0  0  0  0  0  0  0
    9.4737  -15.5860   21.8856 O   0  0  0  0  0  0  0  0  0  0  0  0
   10.3810  -18.1034   16.9780 O   0  0  0  0  0  0  0  0  0  0  0  0
    7.3091  -11.3835   28.3929 C   0  0  0  0  0  0  0  0  0  0  0  0
    6.6006  -11.9798   26.8410 S   0  0  0  0  0  0  0  0  0  0  0  0
    7.7307  -13.1023   25.9896 C   0  0  0  0  0  0  0  0  0  0  0  0
    7.1461  -13.5354   24.6849 C   0  0  0  0  0  0  0  0  0  0  0  0
    8.0189  -14.5415   23.9637 C   0  0  2  0  0  0  0  0  0  0  0  0
    7.4469  -14.9489   22.7071 N   0  0  0  0  0  0  0  0  0  0  0  0
    8.2922  -15.7329   24.8064 C   0  0  0  0  0  0  0  0  0  0  0  0
    7.3525  -16.5423   25.0659 O   0  0  0  0  0  0  0  0  0  0  0  0
   10.4286  -18.6138   23.9888 C   0  0  0  0  0  0  0  0  0  0  0  0
   10.8795  -18.1034   25.3295 C   0  0  1  0  0  0  0  0  0  0  0  0
   12.1298  -17.4905   25.2818 O   0  0  0  0  0  0  0  0  0  0  0  0
    9.8576  -17.2616   26.0300 C   0  0  2  0  0  0  0  0  0  0  0  0
    9.5586  -16.0315   25.3509 N   0  0  0  0  0  0  0  0  0  0  0  0
   10.2332  -17.0676   27.4415 C   0  0  0  0  0  0  0  0  0  0  0  0
   10.4003  -18.0327   28.2147 O   0  0  0  0  0  0  0  0  0  0  0  0
   10.4041  -15.7817   27.9185 O   0  0  0  0  0  0  0  0  0  0  0  0
  2  1  1  6
  2  7  1  0
  3  2  1  0
  3  4  1  0
  5  4  1  0
  6  5  2  0
  7  8  2  0
  9  5  1  0
 10 11  1  0
 11 12  1  0
 13 12  1  0
 14 13  1  1
 14 16  1  0
 15  7  1  0
 15 14  1  0
 16 17  2  0
 19 18  1  6
 19 21  1  0
 20 19  1  0
 21 23  1  0
 22 16  1  0
 21 22  1  6
 23 24  2  0
 23 25  1  0
M  END
$$$$
