NVA.pdb
     RDKit          3D

 21 20  0  0  1  0  0  0  0  0999 V2000
   16.9502  -13.3348  -18.4140 N   0  0  0  0  0  0  0  0  0  0  0  0
   17.2368  -13.8066  -17.1133 C   0  0  0  0  0  0  0  0  0  0  0  0
   16.6752  -14.8437  -16.7054 O   0  0  0  0  0  0  0  0  0  0  0  0
   18.1882  -13.0802  -16.2510 C   0  0  0  0  0  0  0  0  0  0  0  0
   18.7322  -11.8394  -16.9256 C   0  0  2  0  0  0  0  0  0  0  0  0
   19.4744  -12.1880  -18.0985 N   0  0  0  0  0  0  0  0  0  0  0  0
   19.5271  -11.0956  -15.9283 C   0  0  0  0  0  0  0  0  0  0  0  0
   18.9609  -10.8041  -14.8407 O   0  0  0  0  0  0  0  0  0  0  0  0
   23.6605  -10.5444  -16.1154 C   0  0  0  0  0  0  0  0  0  0  0  0
   22.9347  -10.5002  -14.7946 C   0  0  1  0  0  0  0  0  0  0  0  0
   23.7138   -9.6490  -13.8319 C   0  0  0  0  0  0  0  0  0  0  0  0
   21.5421   -9.9508  -15.0513 C   0  0  2  0  0  0  0  0  0  0  0  0
   20.8625  -10.6884  -16.0971 N   0  0  0  0  0  0  0  0  0  0  0  0
   21.7048   -8.5309  -15.4722 C   0  0  0  0  0  0  0  0  0  0  0  0
   22.2891   -8.2487  -16.5354 O   0  0  0  0  0  0  0  0  0  0  0  0
   19.9965   -5.5056  -15.3437 C   0  0  0  0  0  0  0  0  0  0  0  0
   21.3875   -6.0611  -15.0670 C   0  0  2  0  0  0  0  0  0  0  0  0
   21.2026   -7.4533  -14.6811 N   0  0  0  0  0  0  0  0  0  0  0  0
   22.0471   -5.3722  -13.9428 C   0  0  0  0  0  0  0  0  0  0  0  0
   22.0261   -5.8342  -12.7527 O   0  0  0  0  0  0  0  0  0  0  0  0
   22.7402   -4.1701  -14.0934 O   0  0  0  0  0  0  0  0  0  0  0  0
  2  1  1  0
  3  2  2  0
  4  2  1  0
  5  4  1  0
  5  6  1  6
  7  8  2  0
  7  5  1  0
 10  9  1  6
 10 12  1  0
 11 10  1  0
 12 13  1  6
 12 14  1  0
 13  7  1  0
 14 18  1  0
 15 14  2  0
 17 19  1  0
 17 16  1  1
 18 17  1  0
 19 20  2  0
 19 21  1  0
M  END
$$$$
