NVA.pdb
     RDKit          3D

 21 20  0  0  1  0  0  0  0  0999 V2000
   12.0530   -9.1366   -7.9656 N   0  0  0  0  0  0  0  0  0  0  0  0
   12.6363   -9.2098   -9.2505 C   0  0  0  0  0  0  0  0  0  0  0  0
   12.0490   -9.8458  -10.1494 O   0  0  0  0  0  0  0  0  0  0  0  0
   13.9232   -8.5418   -9.5227 C   0  0  0  0  0  0  0  0  0  0  0  0
   14.8573   -9.4171  -10.3302 C   0  0  2  0  0  0  0  0  0  0  0  0
   15.3085  -10.5278   -9.5485 N   0  0  0  0  0  0  0  0  0  0  0  0
   15.9558   -8.5655  -10.8278 C   0  0  0  0  0  0  0  0  0  0  0  0
   16.7978   -8.1582   -9.9830 O   0  0  0  0  0  0  0  0  0  0  0  0
   18.9638   -9.1249  -12.5167 C   0  0  0  0  0  0  0  0  0  0  0  0
   18.2524   -8.1391  -13.4085 C   0  0  1  0  0  0  0  0  0  0  0  0
   17.5672   -8.8841  -14.5194 C   0  0  0  0  0  0  0  0  0  0  0  0
   17.2723   -7.3614  -12.5474 C   0  0  2  0  0  0  0  0  0  0  0  0
   16.1352   -8.1748  -12.1668 N   0  0  0  0  0  0  0  0  0  0  0  0
   16.8034   -6.2032  -13.3588 C   0  0  0  0  0  0  0  0  0  0  0  0
   15.9338   -6.3564  -14.2373 O   0  0  0  0  0  0  0  0  0  0  0  0
   16.5754   -2.6277  -13.0903 C   0  0  0  0  0  0  0  0  0  0  0  0
   16.9555   -3.7732  -14.0197 C   0  0  2  0  0  0  0  0  0  0  0  0
   17.3278   -4.8896  -13.1615 N   0  0  0  0  0  0  0  0  0  0  0  0
   18.1252   -3.4456  -14.8551 C   0  0  0  0  0  0  0  0  0  0  0  0
   19.3048   -3.8356  -14.5605 O   0  0  0  0  0  0  0  0  0  0  0  0
   18.0323   -2.6890  -16.0243 O   0  0  0  0  0  0  0  0  0  0  0  0
  2  1  1  0
  3  2  2  0
  4  2  1  0
  5  4  1  0
  5  6  1  1
  7  8  2  0
  7  5  1  0
 10  9  1  1
 10 12  1  0
 11 10  1  0
 12 13  1  6
 12 14  1  0
 13  7  1  0
 14 18  1  0
 15 14  2  0
 17 19  1  0
 17 16  1  1
 18 17  1  0
 19 20  2  0
 19 21  1  0
M  END
$$$$
