NVA.pdb
     RDKit          3D

 21 20  0  0  1  0  0  0  0  0999 V2000
   22.3481  -11.0812  -20.8467 N   0  0  0  0  0  0  0  0  0  0  0  0
   21.2427  -10.2018  -20.8817 C   0  0  0  0  0  0  0  0  0  0  0  0
   20.9241   -9.6685  -21.9640 O   0  0  0  0  0  0  0  0  0  0  0  0
   20.4771   -9.9196  -19.6526 C   0  0  0  0  0  0  0  0  0  0  0  0
   21.0411  -10.6493  -18.4526 C   0  0  2  0  0  0  0  0  0  0  0  0
   20.5620  -11.9973  -18.4117 N   0  0  0  0  0  0  0  0  0  0  0  0
   20.6980   -9.8684  -17.2476 C   0  0  0  0  0  0  0  0  0  0  0  0
   19.5040   -9.9203  -16.8473 O   0  0  0  0  0  0  0  0  0  0  0  0
   21.4034  -10.3325  -13.8606 C   0  0  0  0  0  0  0  0  0  0  0  0
   21.8632   -8.9134  -14.0792 C   0  0  1  0  0  0  0  0  0  0  0  0
   23.3589   -8.8964  -14.2248 C   0  0  0  0  0  0  0  0  0  0  0  0
   21.1587   -8.3852  -15.3168 C   0  0  2  0  0  0  0  0  0  0  0  0
   21.5969   -9.0735  -16.5141 N   0  0  0  0  0  0  0  0  0  0  0  0
   21.4959   -6.9381  -15.4258 C   0  0  0  0  0  0  0  0  0  0  0  0
   22.5848   -6.5766  -15.9107 O   0  0  0  0  0  0  0  0  0  0  0  0
   19.6186   -3.7474  -14.9565 C   0  0  0  0  0  0  0  0  0  0  0  0
   20.9352   -4.5089  -15.0392 C   0  0  2  0  0  0  0  0  0  0  0  0
   20.5934   -5.9237  -14.9833 N   0  0  0  0  0  0  0  0  0  0  0  0
   21.8172   -4.2192  -13.8940 C   0  0  0  0  0  0  0  0  0  0  0  0
   21.8183   -4.9338  -12.8359 O   0  0  0  0  0  0  0  0  0  0  0  0
   22.7124   -3.1485  -13.8798 O   0  0  0  0  0  0  0  0  0  0  0  0
  2  1  1  0
  3  2  2  0
  4  2  1  0
  5  4  1  0
  5  6  1  1
  7  8  2  0
  7  5  1  0
 10  9  1  6
 10 12  1  0
 11 10  1  0
 12 13  1  6
 12 14  1  0
 13  7  1  0
 14 18  1  0
 15 14  2  0
 17 19  1  0
 17 16  1  1
 18 17  1  0
 19 20  2  0
 19 21  1  0
M  END
$$$$
