NVA.pdb
     RDKit          3D

 21 20  0  0  1  0  0  0  0  0999 V2000
   36.8574   -5.7472  -12.4925 N   0  0  0  0  0  0  0  0  0  0  0  0
   36.2031   -4.9638  -13.4696 C   0  0  0  0  0  0  0  0  0  0  0  0
   36.0104   -3.7511  -13.2474 O   0  0  0  0  0  0  0  0  0  0  0  0
   35.7548   -5.5748  -14.7354 C   0  0  0  0  0  0  0  0  0  0  0  0
   35.9656   -7.0735  -14.7480 C   0  0  2  0  0  0  0  0  0  0  0  0
   37.3613   -7.3864  -14.6998 N   0  0  0  0  0  0  0  0  0  0  0  0
   35.2842   -7.6147  -15.9407 C   0  0  0  0  0  0  0  0  0  0  0  0
   35.9663   -7.7235  -16.9949 O   0  0  0  0  0  0  0  0  0  0  0  0
   31.8301  -10.1049  -18.2800 C   0  0  0  0  0  0  0  0  0  0  0  0
   32.4568   -9.7156  -16.9651 C   0  0  1  0  0  0  0  0  0  0  0  0
   33.1980  -10.8960  -16.4033 C   0  0  0  0  0  0  0  0  0  0  0  0
   33.3719   -8.5311  -17.2226 C   0  0  2  0  0  0  0  0  0  0  0  0
   33.9376   -8.0170  -15.9918 N   0  0  0  0  0  0  0  0  0  0  0  0
   32.5442   -7.4732  -17.8672 C   0  0  0  0  0  0  0  0  0  0  0  0
   31.5941   -6.9513  -17.2538 O   0  0  0  0  0  0  0  0  0  0  0  0
   32.7326   -5.6331  -21.1330 C   0  0  0  0  0  0  0  0  0  0  0  0
   32.0393   -5.9507  -19.8145 C   0  0  2  0  0  0  0  0  0  0  0  0
   32.8066   -7.0238  -19.1971 N   0  0  0  0  0  0  0  0  0  0  0  0
   30.6650   -6.4454  -20.0148 C   0  0  0  0  0  0  0  0  0  0  0  0
   30.4096   -7.6746  -20.2477 O   0  0  0  0  0  0  0  0  0  0  0  0
   29.5460   -5.6128  -19.9652 O   0  0  0  0  0  0  0  0  0  0  0  0
  2  1  1  0
  3  2  2  0
  4  2  1  0
  5  4  1  0
  5  6  1  6
  7  8  2  0
  7  5  1  0
 10  9  1  6
 10 12  1  0
 11 10  1  0
 12 13  1  1
 12 14  1  0
 13  7  1  0
 14 18  1  0
 15 14  2  0
 17 19  1  0
 17 16  1  6
 18 17  1  0
 19 20  2  0
 19 21  1  0
M  END
$$$$
