NVA.pdb
     RDKit          3D

 21 20  0  0  1  0  0  0  0  0999 V2000
   35.0440  -25.5064  -20.8135 N   0  0  0  0  0  0  0  0  0  0  0  0
   34.1980  -26.6308  -20.9421 C   0  0  0  0  0  0  0  0  0  0  0  0
   34.1484  -27.2327  -22.0341 O   0  0  0  0  0  0  0  0  0  0  0  0
   33.3849  -27.0850  -19.7979 C   0  0  0  0  0  0  0  0  0  0  0  0
   33.5844  -26.2118  -18.5778 C   0  0  2  0  0  0  0  0  0  0  0  0
   34.8374  -26.5020  -17.9501 N   0  0  0  0  0  0  0  0  0  0  0  0
   32.4232  -26.4085  -17.6877 C   0  0  0  0  0  0  0  0  0  0  0  0
   32.5513  -27.2379  -16.7474 O   0  0  0  0  0  0  0  0  0  0  0  0
   31.0454  -24.2049  -15.3238 C   0  0  0  0  0  0  0  0  0  0  0  0
   29.8238  -24.6296  -16.0988 C   0  0  1  0  0  0  0  0  0  0  0  0
   29.4453  -23.5382  -17.0600 C   0  0  0  0  0  0  0  0  0  0  0  0
   30.1564  -25.9309  -16.8080 C   0  0  2  0  0  0  0  0  0  0  0  0
   31.1892  -25.7446  -17.8071 N   0  0  0  0  0  0  0  0  0  0  0  0
   28.9059  -26.3985  -17.4693 C   0  0  0  0  0  0  0  0  0  0  0  0
   28.6258  -26.0306  -18.6259 O   0  0  0  0  0  0  0  0  0  0  0  0
   26.3359  -28.9869  -16.6901 C   0  0  0  0  0  0  0  0  0  0  0  0
   26.7685  -27.7385  -17.4482 C   0  0  2  0  0  0  0  0  0  0  0  0
   27.9928  -27.2757  -16.8091 N   0  0  0  0  0  0  0  0  0  0  0  0
   25.7755  -26.6538  -17.3444 C   0  0  0  0  0  0  0  0  0  0  0  0
   25.8329  -25.7614  -16.4330 O   0  0  0  0  0  0  0  0  0  0  0  0
   24.7041  -26.5211  -18.2290 O   0  0  0  0  0  0  0  0  0  0  0  0
  2  1  1  0
  3  2  2  0
  4  2  1  0
  5  4  1  0
  5  6  1  1
  7  8  2  0
  7  5  1  0
 10  9  1  6
 10 12  1  0
 11 10  1  0
 12 13  1  6
 12 14  1  0
 13  7  1  0
 14 18  1  0
 15 14  2  0
 17 19  1  0
 17 16  1  1
 18 17  1  0
 19 20  2  0
 19 21  1  0
M  END
$$$$
