NVA.pdb
     RDKit          3D

 21 20  0  0  1  0  0  0  0  0999 V2000
   26.1627  -12.2936  -19.1580 N   0  0  0  0  0  0  0  0  0  0  0  0
   26.3587  -10.8967  -19.2409 C   0  0  0  0  0  0  0  0  0  0  0  0
   27.4571  -10.4596  -19.6404 O   0  0  0  0  0  0  0  0  0  0  0  0
   25.2764   -9.9695  -18.8594 C   0  0  0  0  0  0  0  0  0  0  0  0
   24.0052  -10.7027  -18.4891 C   0  0  2  0  0  0  0  0  0  0  0  0
   23.4828  -11.4079  -19.6196 N   0  0  0  0  0  0  0  0  0  0  0  0
   23.0625   -9.7153  -17.9272 C   0  0  0  0  0  0  0  0  0  0  0  0
   22.3559   -9.0637  -18.7424 O   0  0  0  0  0  0  0  0  0  0  0  0
   20.1844  -10.3031  -15.8687 C   0  0  0  0  0  0  0  0  0  0  0  0
   20.9091   -9.2061  -15.1306 C   0  0  1  0  0  0  0  0  0  0  0  0
   21.6336   -9.7981  -13.9545 C   0  0  0  0  0  0  0  0  0  0  0  0
   21.8557   -8.5368  -16.1119 C   0  0  2  0  0  0  0  0  0  0  0  0
   22.8922   -9.4461  -16.5574 N   0  0  0  0  0  0  0  0  0  0  0  0
   22.4788   -7.3859  -15.4000 C   0  0  0  0  0  0  0  0  0  0  0  0
   23.4675   -7.5581  -14.6622 O   0  0  0  0  0  0  0  0  0  0  0  0
   22.0034   -3.6736  -15.5024 C   0  0  0  0  0  0  0  0  0  0  0  0
   22.5832   -4.9247  -14.8554 C   0  0  2  0  0  0  0  0  0  0  0  0
   21.9714   -6.0580  -15.5357 N   0  0  0  0  0  0  0  0  0  0  0  0
   22.2346   -5.0233  -13.4263 C   0  0  0  0  0  0  0  0  0  0  0  0
   21.2059   -5.6596  -13.0174 O   0  0  0  0  0  0  0  0  0  0  0  0
   22.9979   -4.4321  -12.4184 O   0  0  0  0  0  0  0  0  0  0  0  0
  2  1  1  0
  3  2  2  0
  4  2  1  0
  5  4  1  0
  5  6  1  6
  7  8  2  0
  7  5  1  0
 10  9  1  6
 10 12  1  0
 11 10  1  0
 12 13  1  1
 12 14  1  0
 13  7  1  0
 14 18  1  0
 15 14  2  0
 17 19  1  0
 17 16  1  6
 18 17  1  0
 19 20  2  0
 19 21  1  0
M  END
$$$$
