NVA.pdb
     RDKit          3D

 21 20  0  0  1  0  0  0  0  0999 V2000
   18.1336  -16.9928  -15.8270 N   0  0  0  0  0  0  0  0  0  0  0  0
   18.0130  -15.6374  -16.2078 C   0  0  0  0  0  0  0  0  0  0  0  0
   16.8802  -15.1153  -16.2467 O   0  0  0  0  0  0  0  0  0  0  0  0
   19.2130  -14.8523  -16.5543 C   0  0  0  0  0  0  0  0  0  0  0  0
   19.1950  -13.4784  -15.9195 C   0  0  2  0  0  0  0  0  0  0  0  0
   18.0394  -12.7452  -16.3379 N   0  0  0  0  0  0  0  0  0  0  0  0
   20.4674  -12.8095  -16.2560 C   0  0  0  0  0  0  0  0  0  0  0  0
   21.5300  -13.4566  -16.0548 O   0  0  0  0  0  0  0  0  0  0  0  0
   23.0208   -9.8498  -18.9827 C   0  0  0  0  0  0  0  0  0  0  0  0
   22.1084  -10.9996  -18.6381 C   0  0  1  0  0  0  0  0  0  0  0  0
   22.7363  -12.2838  -19.1019 C   0  0  0  0  0  0  0  0  0  0  0  0
   21.8856  -10.9779  -17.1358 C   0  0  2  0  0  0  0  0  0  0  0  0
   20.5854  -11.5106  -16.7820 N   0  0  0  0  0  0  0  0  0  0  0  0
   21.9725   -9.5549  -16.7031 C   0  0  0  0  0  0  0  0  0  0  0  0
   23.0427   -8.9260  -16.8065 O   0  0  0  0  0  0  0  0  0  0  0  0
   19.7286   -6.7608  -16.2230 C   0  0  0  0  0  0  0  0  0  0  0  0
   20.9387   -7.5001  -15.6670 C   0  0  2  0  0  0  0  0  0  0  0  0
   20.8448   -8.8673  -16.1601 N   0  0  0  0  0  0  0  0  0  0  0  0
   20.9259   -7.5571  -14.1939 C   0  0  0  0  0  0  0  0  0  0  0  0
   20.6276   -8.6216  -13.5549 O   0  0  0  0  0  0  0  0  0  0  0  0
   21.2371   -6.4586  -13.3910 O   0  0  0  0  0  0  0  0  0  0  0  0
  2  1  1  0
  3  2  2  0
  4  2  1  0
  5  4  1  0
  5  6  1  6
  7  8  2  0
  7  5  1  0
 10  9  1  1
 10 12  1  0
 11 10  1  0
 12 13  1  6
 12 14  1  0
 13  7  1  0
 14 18  1  0
 15 14  2  0
 17 19  1  0
 17 16  1  6
 18 17  1  0
 19 20  2  0
 19 21  1  0
M  END
$$$$
