NVA.pdb
     RDKit          3D

 21 20  0  0  1  0  0  0  0  0999 V2000
   20.5687  -11.0248  -21.5641 N   0  0  0  0  0  0  0  0  0  0  0  0
   19.9255   -9.8166  -21.2132 C   0  0  0  0  0  0  0  0  0  0  0  0
   19.6111   -9.0116  -22.1134 O   0  0  0  0  0  0  0  0  0  0  0  0
   19.6307   -9.5138  -19.7998 C   0  0  0  0  0  0  0  0  0  0  0  0
   20.1008  -10.6147  -18.8736 C   0  0  2  0  0  0  0  0  0  0  0  0
   19.2124  -11.7352  -18.9313 N   0  0  0  0  0  0  0  0  0  0  0  0
   20.2322  -10.0398  -17.5201 C   0  0  0  0  0  0  0  0  0  0  0  0
   19.1777   -9.9161  -16.8411 O   0  0  0  0  0  0  0  0  0  0  0  0
   22.2131  -11.4068  -14.8210 C   0  0  0  0  0  0  0  0  0  0  0  0
   22.5363   -9.9355  -14.7585 C   0  0  1  0  0  0  0  0  0  0  0  0
   23.9147   -9.7092  -15.3129 C   0  0  0  0  0  0  0  0  0  0  0  0
   21.4703   -9.1947  -15.5470 C   0  0  2  0  0  0  0  0  0  0  0  0
   21.4388   -9.6209  -16.9315 N   0  0  0  0  0  0  0  0  0  0  0  0
   21.8091   -7.7453  -15.4824 C   0  0  0  0  0  0  0  0  0  0  0  0
   22.7657   -7.2890  -16.1367 O   0  0  0  0  0  0  0  0  0  0  0  0
   19.9651   -4.7164  -14.6860 C   0  0  0  0  0  0  0  0  0  0  0  0
   21.3242   -5.4041  -14.6772 C   0  0  2  0  0  0  0  0  0  0  0  0
   21.0580   -6.8361  -14.6771 N   0  0  0  0  0  0  0  0  0  0  0  0
   22.0950   -5.0953  -13.4590 C   0  0  0  0  0  0  0  0  0  0  0  0
   22.1498   -5.8952  -12.4653 O   0  0  0  0  0  0  0  0  0  0  0  0
   22.8187   -3.9124  -13.3006 O   0  0  0  0  0  0  0  0  0  0  0  0
  2  1  1  0
  3  2  2  0
  4  2  1  0
  5  4  1  0
  5  6  1  1
  7  8  2  0
  7  5  1  0
 10  9  1  6
 10 12  1  0
 11 10  1  0
 12 13  1  6
 12 14  1  0
 13  7  1  0
 14 18  1  0
 15 14  2  0
 17 19  1  0
 17 16  1  1
 18 17  1  0
 19 20  2  0
 19 21  1  0
M  END
$$$$
