NVA.pdb
     RDKit          3D

 21 20  0  0  1  0  0  0  0  0999 V2000
   16.0200  -12.7170  -15.6861 N   0  0  0  0  0  0  0  0  0  0  0  0
   16.7969  -12.0976  -14.6814 C   0  0  0  0  0  0  0  0  0  0  0  0
   16.4917  -12.2704  -13.4838 O   0  0  0  0  0  0  0  0  0  0  0  0
   17.9534  -11.2577  -15.0469 C   0  0  0  0  0  0  0  0  0  0  0  0
   18.0803  -11.0878  -16.5455 C   0  0  2  0  0  0  0  0  0  0  0  0
   18.4667  -12.3206  -17.1614 N   0  0  0  0  0  0  0  0  0  0  0  0
   19.0292   -9.9848  -16.7956 C   0  0  0  0  0  0  0  0  0  0  0  0
   20.2287  -10.2966  -17.0244 O   0  0  0  0  0  0  0  0  0  0  0  0
   19.5307   -7.7572  -19.4866 C   0  0  0  0  0  0  0  0  0  0  0  0
   19.4143   -6.8209  -18.3105 C   0  0  1  0  0  0  0  0  0  0  0  0
   18.0344   -6.2262  -18.2882 C   0  0  0  0  0  0  0  0  0  0  0  0
   19.7174   -7.6184  -17.0539 C   0  0  2  0  0  0  0  0  0  0  0  0
   18.6997   -8.6176  -16.7982 N   0  0  0  0  0  0  0  0  0  0  0  0
   19.7563   -6.6501  -15.9223 C   0  0  0  0  0  0  0  0  0  0  0  0
   18.7114   -6.3367  -15.3211 O   0  0  0  0  0  0  0  0  0  0  0  0
   22.4777   -5.1478  -13.8704 C   0  0  0  0  0  0  0  0  0  0  0  0
   21.0337   -5.1411  -14.3551 C   0  0  2  0  0  0  0  0  0  0  0  0
   20.9790   -6.0523  -15.4900 N   0  0  0  0  0  0  0  0  0  0  0  0
   20.6144   -3.8109  -14.8326 C   0  0  0  0  0  0  0  0  0  0  0  0
   20.6863   -3.4734  -16.0619 O   0  0  0  0  0  0  0  0  0  0  0  0
   20.1101   -2.8257  -13.9822 O   0  0  0  0  0  0  0  0  0  0  0  0
  2  1  1  0
  3  2  2  0
  4  2  1  0
  5  4  1  0
  5  6  1  6
  7  8  2  0
  7  5  1  0
 10  9  1  6
 10 12  1  0
 11 10  1  0
 12 13  1  1
 12 14  1  0
 13  7  1  0
 14 18  1  0
 15 14  2  0
 17 19  1  0
 17 16  1  6
 18 17  1  0
 19 20  2  0
 19 21  1  0
M  END
$$$$
