NVA.pdb
     RDKit          3D

 21 20  0  0  1  0  0  0  0  0999 V2000
   22.9540  -13.8021  -19.2802 N   0  0  0  0  0  0  0  0  0  0  0  0
   21.6056  -13.4373  -19.4934 C   0  0  0  0  0  0  0  0  0  0  0  0
   20.8910  -14.1518  -20.2256 O   0  0  0  0  0  0  0  0  0  0  0  0
   21.0528  -12.2265  -18.8572 C   0  0  0  0  0  0  0  0  0  0  0  0
   22.0973  -11.4785  -18.0571 C   0  0  2  0  0  0  0  0  0  0  0  0
   22.4826  -12.2319  -16.9029 N   0  0  0  0  0  0  0  0  0  0  0  0
   21.5483  -10.1472  -17.7319 C   0  0  0  0  0  0  0  0  0  0  0  0
   21.2753   -9.3844  -18.6973 O   0  0  0  0  0  0  0  0  0  0  0  0
   18.4035   -9.3285  -16.2649 C   0  0  0  0  0  0  0  0  0  0  0  0
   19.3745   -8.5282  -15.4342 C   0  0  1  0  0  0  0  0  0  0  0  0
   19.5957   -9.2285  -14.1230 C   0  0  0  0  0  0  0  0  0  0  0  0
   20.6578   -8.3856  -16.2339 C   0  0  2  0  0  0  0  0  0  0  0  0
   21.3071   -9.6656  -16.4328 N   0  0  0  0  0  0  0  0  0  0  0  0
   21.5583   -7.4890  -15.4561 C   0  0  0  0  0  0  0  0  0  0  0  0
   22.3024   -7.9521  -14.5710 O   0  0  0  0  0  0  0  0  0  0  0  0
   22.5119   -3.8781  -15.7470 C   0  0  0  0  0  0  0  0  0  0  0  0
   22.5510   -5.2123  -15.0131 C   0  0  2  0  0  0  0  0  0  0  0  0
   21.6011   -6.0816  -15.6940 N   0  0  0  0  0  0  0  0  0  0  0  0
   22.1133   -5.0878  -13.6108 C   0  0  0  0  0  0  0  0  0  0  0  0
   22.9151   -4.7617  -12.6722 O   0  0  0  0  0  0  0  0  0  0  0  0
   20.7972   -5.3155  -13.2055 O   0  0  0  0  0  0  0  0  0  0  0  0
  2  1  1  0
  3  2  2  0
  4  2  1  0
  5  4  1  0
  5  6  1  1
  7  8  2  0
  7  5  1  0
 10  9  1  6
 10 12  1  0
 11 10  1  0
 12 13  1  1
 12 14  1  0
 13  7  1  0
 14 18  1  0
 15 14  2  0
 17 19  1  0
 17 16  1  6
 18 17  1  0
 19 20  2  0
 19 21  1  0
M  END
$$$$
