NVA.pdb
     RDKit          3D

 21 20  0  0  1  0  0  0  0  0999 V2000
   14.8249   -9.6566  -17.7372 N   0  0  0  0  0  0  0  0  0  0  0  0
   14.7601   -8.8219  -16.5989 C   0  0  0  0  0  0  0  0  0  0  0  0
   13.8092   -8.0219  -16.4851 O   0  0  0  0  0  0  0  0  0  0  0  0
   15.8049   -8.8977  -15.5601 C   0  0  0  0  0  0  0  0  0  0  0  0
   16.8128   -9.9896  -15.8475 C   0  0  2  0  0  0  0  0  0  0  0  0
   16.3135  -11.2611  -15.4206 N   0  0  0  0  0  0  0  0  0  0  0  0
   18.0844   -9.6115  -15.1997 C   0  0  0  0  0  0  0  0  0  0  0  0
   18.1558   -9.7437  -13.9484 O   0  0  0  0  0  0  0  0  0  0  0  0
   21.7597   -9.1507  -17.1321 C   0  0  0  0  0  0  0  0  0  0  0  0
   21.6357   -9.4955  -15.6696 C   0  0  1  0  0  0  0  0  0  0  0  0
   22.8976   -9.0936  -14.9593 C   0  0  0  0  0  0  0  0  0  0  0  0
   20.4149   -8.7729  -15.1269 C   0  0  2  0  0  0  0  0  0  0  0  0
   19.2185   -9.1169  -15.8682 N   0  0  0  0  0  0  0  0  0  0  0  0
   20.6780   -7.3125  -15.2608 C   0  0  0  0  0  0  0  0  0  0  0  0
   20.5279   -6.7401  -16.3568 O   0  0  0  0  0  0  0  0  0  0  0  0
   21.5629   -4.5869  -12.8361 C   0  0  0  0  0  0  0  0  0  0  0  0
   21.2797   -5.0813  -14.2487 C   0  0  2  0  0  0  0  0  0  0  0  0
   21.1070   -6.5241  -14.1500 N   0  0  0  0  0  0  0  0  0  0  0  0
   22.4096   -4.8304  -15.1619 C   0  0  0  0  0  0  0  0  0  0  0  0
   22.5017   -3.7626  -15.8559 O   0  0  0  0  0  0  0  0  0  0  0  0
   23.4577   -5.7355  -15.3358 O   0  0  0  0  0  0  0  0  0  0  0  0
  2  1  1  0
  3  2  2  0
  4  2  1  0
  5  4  1  0
  5  6  1  1
  7  8  2  0
  7  5  1  0
 10  9  1  6
 10 12  1  0
 11 10  1  0
 12 13  1  6
 12 14  1  0
 13  7  1  0
 14 18  1  0
 15 14  2  0
 17 19  1  0
 17 16  1  1
 18 17  1  0
 19 20  2  0
 19 21  1  0
M  END
$$$$
