NVA.pdb
     RDKit          3D

 21 20  0  0  1  0  0  0  0  0999 V2000
   17.4590  -27.6851   -7.8793 N   0  0  0  0  0  0  0  0  0  0  0  0
   18.5631  -26.8424   -8.1392 C   0  0  0  0  0  0  0  0  0  0  0  0
   19.7134  -27.2495   -7.8777 O   0  0  0  0  0  0  0  0  0  0  0  0
   18.3553  -25.4990   -8.7124 C   0  0  0  0  0  0  0  0  0  0  0  0
   18.9554  -24.4131   -7.8457 C   0  0  2  0  0  0  0  0  0  0  0  0
   18.2222  -24.2811   -6.6237 N   0  0  0  0  0  0  0  0  0  0  0  0
   18.9958  -23.1709   -8.6424 C   0  0  0  0  0  0  0  0  0  0  0  0
   17.9027  -22.5744   -8.8364 O   0  0  0  0  0  0  0  0  0  0  0  0
   22.5222  -21.4253  -10.0909 C   0  0  0  0  0  0  0  0  0  0  0  0
   21.3608  -20.5326   -9.7337 C   0  0  1  0  0  0  0  0  0  0  0  0
   21.3865  -19.3142  -10.6130 C   0  0  0  0  0  0  0  0  0  0  0  0
   20.0867  -21.3409   -9.9077 C   0  0  2  0  0  0  0  0  0  0  0  0
   20.1554  -22.6034   -9.2001 N   0  0  0  0  0  0  0  0  0  0  0  0
   19.9304  -21.5987  -11.3668 C   0  0  0  0  0  0  0  0  0  0  0  0
   20.5793  -22.5050  -11.9226 O   0  0  0  0  0  0  0  0  0  0  0  0
   17.4604  -20.5809  -13.9419 C   0  0  0  0  0  0  0  0  0  0  0  0
   18.8496  -21.0976  -13.5907 C   0  0  2  0  0  0  0  0  0  0  0  0
   19.0409  -20.8251  -12.1727 N   0  0  0  0  0  0  0  0  0  0  0  0
   19.9096  -20.3852  -14.3270 C   0  0  0  0  0  0  0  0  0  0  0  0
   20.4723  -19.3353  -13.8672 O   0  0  0  0  0  0  0  0  0  0  0  0
   20.3755  -20.8018  -15.5750 O   0  0  0  0  0  0  0  0  0  0  0  0
  2  1  1  0
  3  2  2  0
  4  2  1  0
  5  4  1  0
  5  6  1  1
  7  8  2  0
  7  5  1  0
 10  9  1  6
 10 12  1  0
 11 10  1  0
 12 13  1  1
 12 14  1  0
 13  7  1  0
 14 18  1  0
 15 14  2  0
 17 19  1  0
 17 16  1  6
 18 17  1  0
 19 20  2  0
 19 21  1  0
M  END
$$$$
