IAC.pdb
     RDKit          3D

 20 19  0  0  1  0  0  0  0  0999 V2000
   31.8635  -23.7924  -19.6470 C   0  0  0  0  0  0  0  0  0  0  0  0
   31.2356  -23.7284  -18.2906 C   0  0  0  0  0  0  0  0  0  0  0  0
   30.2742  -24.8462  -18.0306 C   0  0  2  0  0  0  0  0  0  0  0  0
   29.1335  -24.7321  -19.0068 C   0  0  0  0  0  0  0  0  0  0  0  0
   29.7893  -24.7637  -16.6053 C   0  0  2  0  0  0  0  0  0  0  0  0
   30.8780  -24.8489  -15.6854 N   0  0  0  0  0  0  0  0  0  0  0  0
   28.7846  -25.8029  -16.2909 C   0  0  0  0  0  0  0  0  0  0  0  0
   29.1732  -26.9897  -16.0547 O   0  0  0  0  0  0  0  0  0  0  0  0
   25.0204  -25.9619  -15.8748 C   0  0  0  0  0  0  0  0  0  0  0  0
   26.3962  -26.5924  -16.0433 C   0  0  2  0  0  0  0  0  0  0  0  0
   27.3940  -25.5566  -16.2352 N   0  0  0  0  0  0  0  0  0  0  0  0
   26.3901  -27.5775  -17.1357 C   0  0  0  0  0  0  0  0  0  0  0  0
   26.6027  -27.1570  -18.3018 O   0  0  0  0  0  0  0  0  0  0  0  0
   26.1622  -28.9668  -16.9724 N   0  0  0  0  0  0  0  0  0  0  0  0
   26.1163  -29.9114  -18.0681 C   0  0  1  0  0  0  0  0  0  0  0  0
   26.3475  -31.2925  -17.4386 C   0  0  0  0  0  0  0  0  0  0  0  0
   26.8474  -32.4802  -18.6949 S   0  0  0  0  0  0  0  0  0  0  0  0
   24.7333  -29.9342  -18.6008 C   0  0  0  0  0  0  0  0  0  0  0  0
   23.7339  -29.6080  -17.9029 O   0  0  0  0  0  0  0  0  0  0  0  0
   24.4982  -30.3192  -19.8953 O   0  0  0  0  0  0  0  0  0  0  0  0
  2  1  1  0
  3  2  1  0
  3  5  1  0
  3  4  1  6
  5  7  1  0
  5  6  1  1
  7 11  1  0
  7  8  2  0
 10  9  1  6
 10 12  1  0
 11 10  1  0
 12 14  1  0
 13 12  2  0
 14 15  1  0
 15 18  1  0
 15 16  1  1
 16 17  1  0
 18 20  1  0
 19 18  2  0
M  END
$$$$
