IAC.pdb
     RDKit          3D

 20 19  0  0  1  0  0  0  0  0999 V2000
   15.5951  -15.1795  -17.3852 C   0  0  0  0  0  0  0  0  0  0  0  0
   17.0890  -15.2427  -17.3376 C   0  0  0  0  0  0  0  0  0  0  0  0
   17.7247  -13.9385  -16.9689 C   0  0  2  0  0  0  0  0  0  0  0  0
   17.3857  -12.9249  -18.0295 C   0  0  0  0  0  0  0  0  0  0  0  0
   19.2154  -14.1289  -16.8460 C   0  0  2  0  0  0  0  0  0  0  0  0
   19.5255  -15.2072  -15.9629 N   0  0  0  0  0  0  0  0  0  0  0  0
   19.9055  -12.8995  -16.3980 C   0  0  0  0  0  0  0  0  0  0  0  0
   19.5789  -12.3749  -15.2874 O   0  0  0  0  0  0  0  0  0  0  0  0
   22.6989  -10.6828  -17.6820 C   0  0  0  0  0  0  0  0  0  0  0  0
   21.5310  -10.9974  -16.7569 C   0  0  2  0  0  0  0  0  0  0  0  0
   20.9238  -12.2585  -17.1394 N   0  0  0  0  0  0  0  0  0  0  0  0
   20.5638   -9.8892  -16.7398 C   0  0  0  0  0  0  0  0  0  0  0  0
   19.6789   -9.8732  -17.6334 O   0  0  0  0  0  0  0  0  0  0  0  0
   20.5543   -8.8369  -15.7905 N   0  0  0  0  0  0  0  0  0  0  0  0
   19.6874   -7.6810  -15.8756 C   0  0  1  0  0  0  0  0  0  0  0  0
   18.6155   -7.8826  -14.7950 C   0  0  0  0  0  0  0  0  0  0  0  0
   17.6378   -6.3854  -14.5924 S   0  0  0  0  0  0  0  0  0  0  0  0
   20.4643   -6.4892  -15.4596 C   0  0  0  0  0  0  0  0  0  0  0  0
   21.4520   -6.5643  -14.6779 O   0  0  0  0  0  0  0  0  0  0  0  0
   20.1223   -5.2455  -15.9238 O   0  0  0  0  0  0  0  0  0  0  0  0
  2  1  1  0
  3  2  1  0
  3  5  1  0
  3  4  1  6
  5  7  1  0
  5  6  1  1
  7 11  1  0
  7  8  2  0
 10  9  1  6
 10 12  1  0
 11 10  1  0
 12 14  1  0
 13 12  2  0
 14 15  1  0
 15 18  1  0
 15 16  1  1
 16 17  1  0
 18 20  1  0
 19 18  2  0
M  END
$$$$
