IAC.pdb
     RDKit          3D

 20 19  0  0  1  0  0  0  0  0999 V2000
   30.7470  -28.9033  -19.5435 C   0  0  0  0  0  0  0  0  0  0  0  0
   30.8384  -28.2019  -18.2253 C   0  0  0  0  0  0  0  0  0  0  0  0
   29.7472  -27.1994  -18.0119 C   0  0  2  0  0  0  0  0  0  0  0  0
   29.8636  -26.1339  -19.0694 C   0  0  0  0  0  0  0  0  0  0  0  0
   29.8714  -26.6162  -16.6270 C   0  0  2  0  0  0  0  0  0  0  0  0
   29.7945  -27.6358  -15.6303 N   0  0  0  0  0  0  0  0  0  0  0  0
   28.8539  -25.5763  -16.3601 C   0  0  0  0  0  0  0  0  0  0  0  0
   27.6465  -25.9245  -16.1700 O   0  0  0  0  0  0  0  0  0  0  0  0
   28.7963  -21.7992  -16.0325 C   0  0  0  0  0  0  0  0  0  0  0  0
   28.1314  -23.1600  -16.1912 C   0  0  2  0  0  0  0  0  0  0  0  0
   29.1431  -24.1941  -16.3018 N   0  0  0  0  0  0  0  0  0  0  0  0
   27.2013  -23.1582  -17.3308 C   0  0  0  0  0  0  0  0  0  0  0  0
   27.6728  -23.4104  -18.4692 O   0  0  0  0  0  0  0  0  0  0  0  0
   25.8118  -22.8933  -17.2419 N   0  0  0  0  0  0  0  0  0  0  0  0
   24.9072  -22.9415  -18.3708 C   0  0  1  0  0  0  0  0  0  0  0  0
   23.6093  -23.5660  -17.8392 C   0  0  0  0  0  0  0  0  0  0  0  0
   22.3433  -23.5689  -19.1183 S   0  0  0  0  0  0  0  0  0  0  0  0
   24.5637  -21.5497  -18.7474 C   0  0  0  0  0  0  0  0  0  0  0  0
   24.6782  -20.5834  -17.9440 O   0  0  0  0  0  0  0  0  0  0  0  0
   24.1019  -21.2693  -20.0072 O   0  0  0  0  0  0  0  0  0  0  0  0
  2  1  1  0
  3  2  1  0
  3  5  1  0
  3  4  1  6
  5  7  1  0
  5  6  1  1
  7 11  1  0
  7  8  2  0
 10  9  1  6
 10 12  1  0
 11 10  1  0
 12 14  1  0
 13 12  2  0
 14 15  1  0
 15 18  1  0
 15 16  1  1
 16 17  1  0
 18 20  1  0
 19 18  2  0
M  END
$$$$
