IAC.pdb
     RDKit          3D

 20 19  0  0  1  0  0  0  0  0999 V2000
   16.5893  -13.2107  -19.2484 C   0  0  0  0  0  0  0  0  0  0  0  0
   17.7809  -13.1881  -18.3441 C   0  0  0  0  0  0  0  0  0  0  0  0
   17.9353  -11.8973  -17.6016 C   0  0  2  0  0  0  0  0  0  0  0  0
   18.0969  -10.7856  -18.6042 C   0  0  0  0  0  0  0  0  0  0  0  0
   19.1295  -11.9903  -16.6857 C   0  0  2  0  0  0  0  0  0  0  0  0
   19.0479  -13.1445  -15.8491 N   0  0  0  0  0  0  0  0  0  0  0  0
   19.2972  -10.7787  -15.8538 C   0  0  0  0  0  0  0  0  0  0  0  0
   18.3234  -10.3741  -15.1443 O   0  0  0  0  0  0  0  0  0  0  0  0
   22.1160   -8.5827  -14.6974 C   0  0  0  0  0  0  0  0  0  0  0  0
   20.6459   -8.8085  -15.0242 C   0  0  2  0  0  0  0  0  0  0  0  0
   20.4930  -10.0276  -15.7959 N   0  0  0  0  0  0  0  0  0  0  0  0
   20.0752   -7.6360  -15.7050 C   0  0  0  0  0  0  0  0  0  0  0  0
   20.2644   -7.5313  -16.9440 O   0  0  0  0  0  0  0  0  0  0  0  0
   19.3271   -6.6143  -15.0686 N   0  0  0  0  0  0  0  0  0  0  0  0
   18.7229   -5.5009  -15.7689 C   0  0  1  0  0  0  0  0  0  0  0  0
   17.5411   -5.0517  -14.8980 C   0  0  0  0  0  0  0  0  0  0  0  0
   16.2377   -6.2925  -14.9186 S   0  0  0  0  0  0  0  0  0  0  0  0
   19.6849   -4.3733  -15.7611 C   0  0  0  0  0  0  0  0  0  0  0  0
   20.8071   -4.4452  -15.1885 O   0  0  0  0  0  0  0  0  0  0  0  0
   19.3736   -3.1958  -16.3901 O   0  0  0  0  0  0  0  0  0  0  0  0
  2  1  1  0
  3  2  1  0
  3  5  1  0
  3  4  1  6
  5  7  1  0
  5  6  1  1
  7 11  1  0
  7  8  2  0
 10  9  1  6
 10 12  1  0
 11 10  1  0
 12 14  1  0
 13 12  2  0
 14 15  1  0
 15 18  1  0
 15 16  1  1
 16 17  1  0
 18 20  1  0
 19 18  2  0
M  END
$$$$
