IAC.pdb
     RDKit          3D

 20 19  0  0  1  0  0  0  0  0999 V2000
   19.0444  -13.8673  -15.8303 C   0  0  0  0  0  0  0  0  0  0  0  0
   18.1470  -12.8427  -16.4490 C   0  0  0  0  0  0  0  0  0  0  0  0
   18.5960  -11.4362  -16.2010 C   0  0  2  0  0  0  0  0  0  0  0  0
   18.6072  -11.1931  -14.7151 C   0  0  0  0  0  0  0  0  0  0  0  0
   17.6638  -10.4847  -16.9074 C   0  0  2  0  0  0  0  0  0  0  0  0
   17.4797  -10.8625  -18.2721 N   0  0  0  0  0  0  0  0  0  0  0  0
   18.1282   -9.0821  -16.8337 C   0  0  0  0  0  0  0  0  0  0  0  0
   19.2617   -8.7778  -17.3214 O   0  0  0  0  0  0  0  0  0  0  0  0
   16.6171   -5.7522  -15.8980 C   0  0  0  0  0  0  0  0  0  0  0  0
   17.8027   -6.6514  -16.2215 C   0  0  2  0  0  0  0  0  0  0  0  0
   17.3785   -8.0388  -16.2447 N   0  0  0  0  0  0  0  0  0  0  0  0
   18.9094   -6.4168  -15.2812 C   0  0  0  0  0  0  0  0  0  0  0  0
   18.8482   -6.9767  -14.1567 O   0  0  0  0  0  0  0  0  0  0  0  0
   20.0408   -5.6059  -15.5479 N   0  0  0  0  0  0  0  0  0  0  0  0
   21.1093   -5.3743  -14.5995 C   0  0  1  0  0  0  0  0  0  0  0  0
   22.4080   -5.4078  -15.4175 C   0  0  0  0  0  0  0  0  0  0  0  0
   23.8020   -4.8871  -14.4054 S   0  0  0  0  0  0  0  0  0  0  0  0
   20.9844   -3.9872  -14.0924 C   0  0  0  0  0  0  0  0  0  0  0  0
   21.5067   -3.6143  -13.0059 O   0  0  0  0  0  0  0  0  0  0  0  0
   20.2821   -3.0515  -14.8068 O   0  0  0  0  0  0  0  0  0  0  0  0
  2  1  1  0
  3  2  1  0
  3  5  1  0
  3  4  1  1
  5  7  1  0
  5  6  1  6
  7 11  1  0
  7  8  2  0
 10  9  1  1
 10 12  1  0
 11 10  1  0
 12 14  1  0
 13 12  2  0
 14 15  1  0
 15 18  1  0
 15 16  1  6
 16 17  1  0
 18 20  1  0
 19 18  2  0
M  END
$$$$
