IAC.pdb
     RDKit          3D

 20 19  0  0  1  0  0  0  0  0999 V2000
   16.4382  -13.2118  -13.3434 C   0  0  0  0  0  0  0  0  0  0  0  0
   16.4454  -12.6304  -14.7217 C   0  0  0  0  0  0  0  0  0  0  0  0
   17.1598  -11.3174  -14.8060 C   0  0  2  0  0  0  0  0  0  0  0  0
   16.5132  -10.3588  -13.8415 C   0  0  0  0  0  0  0  0  0  0  0  0
   17.0909  -10.8037  -16.2219 C   0  0  2  0  0  0  0  0  0  0  0  0
   17.5548  -11.7857  -17.1489 N   0  0  0  0  0  0  0  0  0  0  0  0
   17.8485   -9.5460  -16.4025 C   0  0  0  0  0  0  0  0  0  0  0  0
   19.1140   -9.5625  -16.2866 O   0  0  0  0  0  0  0  0  0  0  0  0
   17.0862   -5.9915  -17.4474 C   0  0  0  0  0  0  0  0  0  0  0  0
   17.9760   -7.0565  -16.8204 C   0  0  2  0  0  0  0  0  0  0  0  0
   17.2443   -8.3038  -16.7013 N   0  0  0  0  0  0  0  0  0  0  0  0
   18.5157   -6.5952  -15.5321 C   0  0  0  0  0  0  0  0  0  0  0  0
   17.7766   -6.6973  -14.5196 O   0  0  0  0  0  0  0  0  0  0  0  0
   19.8079   -6.0436  -15.3461 N   0  0  0  0  0  0  0  0  0  0  0  0
   20.3152   -5.5890  -14.0690 C   0  0  1  0  0  0  0  0  0  0  0  0
   21.8209   -5.8884  -14.0874 C   0  0  0  0  0  0  0  0  0  0  0  0
   22.6091   -5.2386  -12.6058 S   0  0  0  0  0  0  0  0  0  0  0  0
   20.1953   -4.1123  -14.0235 C   0  0  0  0  0  0  0  0  0  0  0  0
   20.2608   -3.3958  -15.0601 O   0  0  0  0  0  0  0  0  0  0  0  0
   20.0058   -3.4716  -12.8265 O   0  0  0  0  0  0  0  0  0  0  0  0
  2  1  1  0
  3  2  1  0
  3  5  1  0
  3  4  1  1
  5  7  1  0
  5  6  1  6
  7 11  1  0
  7  8  2  0
 10  9  1  1
 10 12  1  0
 11 10  1  0
 12 14  1  0
 13 12  2  0
 14 15  1  0
 15 18  1  0
 15 16  1  6
 16 17  1  0
 18 20  1  0
 19 18  2  0
M  END
$$$$
