IAC.pdb
     RDKit          3D

 20 19  0  0  1  0  0  0  0  0999 V2000
   26.0116  -17.1719  -16.2005 C   0  0  0  0  0  0  0  0  0  0  0  0
   24.7396  -16.5827  -15.6781 C   0  0  0  0  0  0  0  0  0  0  0  0
   24.5393  -15.1553  -16.0826 C   0  0  2  0  0  0  0  0  0  0  0  0
   25.6446  -14.3285  -15.4811 C   0  0  0  0  0  0  0  0  0  0  0  0
   23.1849  -14.6901  -15.6108 C   0  0  2  0  0  0  0  0  0  0  0  0
   22.1674  -15.6286  -15.9611 N   0  0  0  0  0  0  0  0  0  0  0  0
   22.8347  -13.3518  -16.1348 C   0  0  0  0  0  0  0  0  0  0  0  0
   23.5379  -12.3493  -15.7947 O   0  0  0  0  0  0  0  0  0  0  0  0
   20.1922  -11.9051  -18.4385 C   0  0  0  0  0  0  0  0  0  0  0  0
   21.3384  -11.7898  -17.4426 C   0  0  2  0  0  0  0  0  0  0  0  0
   21.7479  -13.1115  -17.0058 N   0  0  0  0  0  0  0  0  0  0  0  0
   20.9694  -10.9149  -16.3191 C   0  0  0  0  0  0  0  0  0  0  0  0
   20.2545  -11.4053  -15.4080 O   0  0  0  0  0  0  0  0  0  0  0  0
   21.3597   -9.5589  -16.1864 N   0  0  0  0  0  0  0  0  0  0  0  0
   20.9779   -8.7143  -15.0747 C   0  0  1  0  0  0  0  0  0  0  0  0
   22.2923   -8.2677  -14.4190 C   0  0  0  0  0  0  0  0  0  0  0  0
   22.7050   -9.3473  -13.0395 S   0  0  0  0  0  0  0  0  0  0  0  0
   20.3580   -7.4837  -15.6210 C   0  0  0  0  0  0  0  0  0  0  0  0
   20.3499   -7.2206  -16.8551 O   0  0  0  0  0  0  0  0  0  0  0  0
   19.7636   -6.5784  -14.7806 O   0  0  0  0  0  0  0  0  0  0  0  0
  2  1  1  0
  3  2  1  0
  3  5  1  0
  3  4  1  1
  5  7  1  0
  5  6  1  6
  7 11  1  0
  7  8  2  0
 10  9  1  6
 10 12  1  0
 11 10  1  0
 12 14  1  0
 13 12  2  0
 14 15  1  0
 15 18  1  0
 15 16  1  6
 16 17  1  0
 18 20  1  0
 19 18  2  0
M  END
$$$$
