IAC.pdb
     RDKit          3D

 20 19  0  0  1  0  0  0  0  0999 V2000
   25.0651  -14.9964  -14.8795 C   0  0  0  0  0  0  0  0  0  0  0  0
   23.9696  -14.9634  -15.8977 C   0  0  0  0  0  0  0  0  0  0  0  0
   23.3377  -13.6141  -16.0430 C   0  0  2  0  0  0  0  0  0  0  0  0
   22.6999  -13.2413  -14.7309 C   0  0  0  0  0  0  0  0  0  0  0  0
   22.3214  -13.6580  -17.1560 C   0  0  2  0  0  0  0  0  0  0  0  0
   22.8795  -14.2279  -18.3403 N   0  0  0  0  0  0  0  0  0  0  0  0
   21.7589  -12.3237  -17.4585 C   0  0  0  0  0  0  0  0  0  0  0  0
   22.5316  -11.4055  -17.8771 O   0  0  0  0  0  0  0  0  0  0  0  0
   18.4013  -10.7566  -17.9614 C   0  0  0  0  0  0  0  0  0  0  0  0
   19.8517  -10.6657  -17.5064 C   0  0  2  0  0  0  0  0  0  0  0  0
   20.3918  -11.9979  -17.3092 N   0  0  0  0  0  0  0  0  0  0  0  0
   19.9714   -9.8261  -16.3045 C   0  0  0  0  0  0  0  0  0  0  0  0
   19.6251  -10.3286  -15.2048 O   0  0  0  0  0  0  0  0  0  0  0  0
   20.4483   -8.4915  -16.2930 N   0  0  0  0  0  0  0  0  0  0  0  0
   20.5535   -7.6823  -15.0975 C   0  0  1  0  0  0  0  0  0  0  0  0
   21.8566   -6.8844  -15.2468 C   0  0  0  0  0  0  0  0  0  0  0  0
   23.2811   -7.9756  -15.1086 S   0  0  0  0  0  0  0  0  0  0  0  0
   19.4600   -6.6820  -15.1191 C   0  0  0  0  0  0  0  0  0  0  0  0
   18.7180   -6.5121  -16.1255 O   0  0  0  0  0  0  0  0  0  0  0  0
   19.2205   -5.8970  -14.0211 O   0  0  0  0  0  0  0  0  0  0  0  0
  2  1  1  0
  3  2  1  0
  3  5  1  0
  3  4  1  1
  5  7  1  0
  5  6  1  6
  7 11  1  0
  7  8  2  0
 10  9  1  1
 10 12  1  0
 11 10  1  0
 12 14  1  0
 13 12  2  0
 14 15  1  0
 15 18  1  0
 15 16  1  6
 16 17  1  0
 18 20  1  0
 19 18  2  0
M  END
$$$$
