IAC.pdb
     RDKit          3D

 20 19  0  0  1  0  0  0  0  0999 V2000
   25.3209  -15.7938  -16.0896 C   0  0  0  0  0  0  0  0  0  0  0  0
   24.1810  -14.9897  -15.5492 C   0  0  0  0  0  0  0  0  0  0  0  0
   24.1854  -13.5680  -16.0182 C   0  0  2  0  0  0  0  0  0  0  0  0
   25.4560  -12.9128  -15.5455 C   0  0  0  0  0  0  0  0  0  0  0  0
   22.9678  -12.8620  -15.4773 C   0  0  2  0  0  0  0  0  0  0  0  0
   21.7769  -13.5944  -15.7674 N   0  0  0  0  0  0  0  0  0  0  0  0
   22.8439  -11.4798  -15.9896 C   0  0  0  0  0  0  0  0  0  0  0  0
   23.7725  -10.6451  -15.7524 O   0  0  0  0  0  0  0  0  0  0  0  0
   20.3130   -9.5061  -18.0081 C   0  0  0  0  0  0  0  0  0  0  0  0
   21.5250   -9.6280  -17.0943 C   0  0  2  0  0  0  0  0  0  0  0  0
   21.7386  -11.0187  -16.7400 N   0  0  0  0  0  0  0  0  0  0  0  0
   21.3796   -8.7623  -15.9140 C   0  0  0  0  0  0  0  0  0  0  0  0
   20.7936   -9.2398  -14.9088 O   0  0  0  0  0  0  0  0  0  0  0  0
   21.8511   -7.4287  -15.8245 N   0  0  0  0  0  0  0  0  0  0  0  0
   21.6563   -6.5797  -14.6685 C   0  0  1  0  0  0  0  0  0  0  0  0
   22.7313   -5.4880  -14.7665 C   0  0  0  0  0  0  0  0  0  0  0  0
   22.6129   -4.3619  -13.3678 S   0  0  0  0  0  0  0  0  0  0  0  0
   20.3562   -5.8842  -14.8199 C   0  0  0  0  0  0  0  0  0  0  0  0
   19.6211   -5.6016  -13.8340 O   0  0  0  0  0  0  0  0  0  0  0  0
   19.9080   -5.5213  -16.0635 O   0  0  0  0  0  0  0  0  0  0  0  0
  2  1  1  0
  3  2  1  0
  3  5  1  0
  3  4  1  1
  5  7  1  0
  5  6  1  6
  7 11  1  0
  7  8  2  0
 10  9  1  6
 10 12  1  0
 11 10  1  0
 12 14  1  0
 13 12  2  0
 14 15  1  0
 15 18  1  0
 15 16  1  6
 16 17  1  0
 18 20  1  0
 19 18  2  0
M  END
$$$$
