IAC.pdb
     RDKit          3D

 20 19  0  0  1  0  0  0  0  0999 V2000
   24.9539  -13.4224  -15.1456 C   0  0  0  0  0  0  0  0  0  0  0  0
   24.0926  -13.0950  -16.3242 C   0  0  0  0  0  0  0  0  0  0  0  0
   23.3776  -11.7867  -16.1889 C   0  0  2  0  0  0  0  0  0  0  0  0
   22.3877  -11.8977  -15.0598 C   0  0  0  0  0  0  0  0  0  0  0  0
   22.6924  -11.4574  -17.4911 C   0  0  2  0  0  0  0  0  0  0  0  0
   23.6026  -11.5441  -18.5879 N   0  0  0  0  0  0  0  0  0  0  0  0
   22.0567  -10.1219  -17.4713 C   0  0  0  0  0  0  0  0  0  0  0  0
   22.7870   -9.0861  -17.5665 O   0  0  0  0  0  0  0  0  0  0  0  0
   18.5364   -8.7509  -17.5510 C   0  0  0  0  0  0  0  0  0  0  0  0
   20.0353   -8.6117  -17.3212 C   0  0  2  0  0  0  0  0  0  0  0  0
   20.6631   -9.9195  -17.3511 N   0  0  0  0  0  0  0  0  0  0  0  0
   20.3079   -7.8848  -16.0718 C   0  0  0  0  0  0  0  0  0  0  0  0
   20.3236   -8.5473  -15.0028 O   0  0  0  0  0  0  0  0  0  0  0  0
   20.5546   -6.4921  -15.9822 N   0  0  0  0  0  0  0  0  0  0  0  0
   20.8696   -5.8060  -14.7473 C   0  0  1  0  0  0  0  0  0  0  0  0
   22.3945   -5.6282  -14.7458 C   0  0  0  0  0  0  0  0  0  0  0  0
   22.9071   -4.6079  -13.3548 S   0  0  0  0  0  0  0  0  0  0  0  0
   20.3014   -4.4390  -14.8202 C   0  0  0  0  0  0  0  0  0  0  0  0
   19.7382   -3.8868  -13.8352 O   0  0  0  0  0  0  0  0  0  0  0  0
   20.3745   -3.7222  -15.9864 O   0  0  0  0  0  0  0  0  0  0  0  0
  2  1  1  0
  3  2  1  0
  3  5  1  0
  3  4  1  1
  5  7  1  0
  5  6  1  6
  7 11  1  0
  7  8  2  0
 10  9  1  1
 10 12  1  0
 11 10  1  0
 12 14  1  0
 13 12  2  0
 14 15  1  0
 15 18  1  0
 15 16  1  6
 16 17  1  0
 18 20  1  0
 19 18  2  0
M  END
$$$$
