IAC.pdb
     RDKit          3D

 20 19  0  0  1  0  0  0  0  0999 V2000
   16.6795  -16.8569  -13.5037 C   0  0  0  0  0  0  0  0  0  0  0  0
   15.8944  -15.6336  -13.8573 C   0  0  0  0  0  0  0  0  0  0  0  0
   16.4891  -14.3717  -13.3139 C   0  0  2  0  0  0  0  0  0  0  0  0
   16.5339  -14.4724  -11.8123 C   0  0  0  0  0  0  0  0  0  0  0  0
   15.6574  -13.1966  -13.7621 C   0  0  2  0  0  0  0  0  0  0  0  0
   15.3709  -13.2717  -15.1590 N   0  0  0  0  0  0  0  0  0  0  0  0
   16.2991  -11.9006  -13.4508 C   0  0  0  0  0  0  0  0  0  0  0  0
   16.7112  -11.6810  -12.2688 O   0  0  0  0  0  0  0  0  0  0  0  0
   17.2778   -8.7838  -15.3731 C   0  0  0  0  0  0  0  0  0  0  0  0
   17.0843   -9.5855  -14.0929 C   0  0  2  0  0  0  0  0  0  0  0  0
   16.4870  -10.8714  -14.4010 N   0  0  0  0  0  0  0  0  0  0  0  0
   16.3001   -8.8214  -13.1105 C   0  0  0  0  0  0  0  0  0  0  0  0
   15.0465   -8.8921  -13.1825 O   0  0  0  0  0  0  0  0  0  0  0  0
   16.8522   -8.0104  -12.0877 N   0  0  0  0  0  0  0  0  0  0  0  0
   16.0606   -7.2270  -11.1633 C   0  0  1  0  0  0  0  0  0  0  0  0
   16.9216   -7.0749   -9.9013 C   0  0  0  0  0  0  0  0  0  0  0  0
   16.8902   -8.5913   -8.9325 S   0  0  0  0  0  0  0  0  0  0  0  0
   15.9144   -5.8619  -11.7220 C   0  0  0  0  0  0  0  0  0  0  0  0
   16.5721   -5.4667  -12.7238 O   0  0  0  0  0  0  0  0  0  0  0  0
   15.0408   -4.9725  -11.1521 O   0  0  0  0  0  0  0  0  0  0  0  0
  2  1  1  0
  3  2  1  0
  3  5  1  0
  3  4  1  1
  5  7  1  0
  5  6  1  6
  7 11  1  0
  7  8  2  0
 10  9  1  6
 10 12  1  0
 11 10  1  0
 12 14  1  0
 13 12  2  0
 14 15  1  0
 15 18  1  0
 15 16  1  1
 16 17  1  0
 18 20  1  0
 19 18  2  0
M  END
$$$$
