IAC.pdb
     RDKit          3D

 20 19  0  0  1  0  0  0  0  0999 V2000
   24.6982  -18.0792  -16.2588 C   0  0  0  0  0  0  0  0  0  0  0  0
   23.5164  -17.3950  -15.6480 C   0  0  0  0  0  0  0  0  0  0  0  0
   23.3989  -15.9550  -16.0401 C   0  0  2  0  0  0  0  0  0  0  0  0
   24.6450  -15.2357  -15.5962 C   0  0  0  0  0  0  0  0  0  0  0  0
   22.1663  -15.3650  -15.4027 C   0  0  2  0  0  0  0  0  0  0  0  0
   21.0285  -16.2022  -15.6105 N   0  0  0  0  0  0  0  0  0  0  0  0
   21.8791  -13.9983  -15.8904 C   0  0  0  0  0  0  0  0  0  0  0  0
   22.7635  -13.0949  -15.7604 O   0  0  0  0  0  0  0  0  0  0  0  0
   19.0120  -12.2581  -17.6604 C   0  0  0  0  0  0  0  0  0  0  0  0
   20.3679  -12.2822  -16.9676 C   0  0  2  0  0  0  0  0  0  0  0  0
   20.6614  -13.6251  -16.5033 N   0  0  0  0  0  0  0  0  0  0  0  0
   20.4198  -11.2882  -15.8845 C   0  0  0  0  0  0  0  0  0  0  0  0
   20.0286  -11.6467  -14.7442 O   0  0  0  0  0  0  0  0  0  0  0  0
   20.8783   -9.9550  -16.0299 N   0  0  0  0  0  0  0  0  0  0  0  0
   20.9505   -9.0032  -14.9419 C   0  0  1  0  0  0  0  0  0  0  0  0
   22.0450   -8.0013  -15.3356 C   0  0  0  0  0  0  0  0  0  0  0  0
   22.2036   -6.7190  -14.0829 S   0  0  0  0  0  0  0  0  0  0  0  0
   19.6845   -8.2328  -14.9172 C   0  0  0  0  0  0  0  0  0  0  0  0
   19.0448   -7.9483  -15.9671 O   0  0  0  0  0  0  0  0  0  0  0  0
   19.1632   -7.7991  -13.7258 O   0  0  0  0  0  0  0  0  0  0  0  0
  2  1  1  0
  3  2  1  0
  3  5  1  0
  3  4  1  1
  5  7  1  0
  5  6  1  6
  7 11  1  0
  7  8  2  0
 10  9  1  1
 10 12  1  0
 11 10  1  0
 12 14  1  0
 13 12  2  0
 14 15  1  0
 15 18  1  0
 15 16  1  6
 16 17  1  0
 18 20  1  0
 19 18  2  0
M  END
$$$$
