IAC.pdb
     RDKit          3D

 20 19  0  0  1  0  0  0  0  0999 V2000
   16.7628  -13.4253  -13.9832 C   0  0  0  0  0  0  0  0  0  0  0  0
   17.1310  -12.9358  -15.3481 C   0  0  0  0  0  0  0  0  0  0  0  0
   17.7729  -11.5834  -15.3381 C   0  0  2  0  0  0  0  0  0  0  0  0
   16.7991  -10.5965  -14.7508 C   0  0  0  0  0  0  0  0  0  0  0  0
   18.1579  -11.2052  -16.7460 C   0  0  2  0  0  0  0  0  0  0  0  0
   18.9135  -12.2439  -17.3697 N   0  0  0  0  0  0  0  0  0  0  0  0
   18.9121   -9.9338  -16.8017 C   0  0  0  0  0  0  0  0  0  0  0  0
   20.0968   -9.8951  -16.3431 O   0  0  0  0  0  0  0  0  0  0  0  0
   18.3855   -6.4909  -18.2828 C   0  0  0  0  0  0  0  0  0  0  0  0
   19.1272   -7.4882  -17.4030 C   0  0  2  0  0  0  0  0  0  0  0  0
   18.3905   -8.7367  -17.3423 N   0  0  0  0  0  0  0  0  0  0  0  0
   19.3840   -6.9207  -16.0704 C   0  0  0  0  0  0  0  0  0  0  0  0
   18.4683   -7.0082  -15.2126 O   0  0  0  0  0  0  0  0  0  0  0  0
   20.5873   -6.2817  -15.6802 N   0  0  0  0  0  0  0  0  0  0  0  0
   20.8073   -5.7055  -14.3707 C   0  0  1  0  0  0  0  0  0  0  0  0
   22.3199   -5.7958  -14.1237 C   0  0  0  0  0  0  0  0  0  0  0  0
   22.7542   -4.9811  -12.5789 S   0  0  0  0  0  0  0  0  0  0  0  0
   20.4933   -4.2588  -14.4438 C   0  0  0  0  0  0  0  0  0  0  0  0
   20.0069   -3.6219  -13.4691 O   0  0  0  0  0  0  0  0  0  0  0  0
   20.7285   -3.5587  -15.5987 O   0  0  0  0  0  0  0  0  0  0  0  0
  2  1  1  0
  3  2  1  0
  3  5  1  0
  3  4  1  6
  5  7  1  0
  5  6  1  1
  7 11  1  0
  7  8  2  0
 10  9  1  6
 10 12  1  0
 11 10  1  0
 12 14  1  0
 13 12  2  0
 14 15  1  0
 15 18  1  0
 15 16  1  6
 16 17  1  0
 18 20  1  0
 19 18  2  0
M  END
$$$$
