IAC.pdb
     RDKit          3D

 20 19  0  0  1  0  0  0  0  0999 V2000
   24.2790  -20.6311   -8.6699 C   0  0  0  0  0  0  0  0  0  0  0  0
   25.3757  -21.2360   -9.4879 C   0  0  0  0  0  0  0  0  0  0  0  0
   25.5832  -20.5470  -10.8008 C   0  0  2  0  0  0  0  0  0  0  0  0
   24.3000  -20.6175  -11.5854 C   0  0  0  0  0  0  0  0  0  0  0  0
   26.7167  -21.2135  -11.5386 C   0  0  2  0  0  0  0  0  0  0  0  0
   27.8742  -21.3267  -10.7101 N   0  0  0  0  0  0  0  0  0  0  0  0
   27.0642  -20.5094  -12.7923 C   0  0  0  0  0  0  0  0  0  0  0  0
   27.6689  -19.3933  -12.7294 O   0  0  0  0  0  0  0  0  0  0  0  0
   27.1954  -21.3381  -16.4528 C   0  0  0  0  0  0  0  0  0  0  0  0
   27.1190  -20.3312  -15.3130 C   0  0  2  0  0  0  0  0  0  0  0  0
   26.7615  -21.0072  -14.0799 N   0  0  0  0  0  0  0  0  0  0  0  0
   26.1939  -19.2362  -15.6433 C   0  0  0  0  0  0  0  0  0  0  0  0
   24.9631  -19.4470  -15.4936 O   0  0  0  0  0  0  0  0  0  0  0  0
   26.5863  -17.9598  -16.1182 N   0  0  0  0  0  0  0  0  0  0  0  0
   25.6555  -16.9111  -16.4772 C   0  0  1  0  0  0  0  0  0  0  0  0
   26.4037  -15.5910  -16.2440 C   0  0  0  0  0  0  0  0  0  0  0  0
   26.7569  -15.3693  -14.4933 S   0  0  0  0  0  0  0  0  0  0  0  0
   25.4133  -16.9883  -17.9374 C   0  0  0  0  0  0  0  0  0  0  0  0
   26.0639  -17.7634  -18.6912 O   0  0  0  0  0  0  0  0  0  0  0  0
   24.4542  -16.2015  -18.5208 O   0  0  0  0  0  0  0  0  0  0  0  0
  2  1  1  0
  3  2  1  0
  3  5  1  0
  3  4  1  6
  5  7  1  0
  5  6  1  1
  7 11  1  0
  7  8  2  0
 10  9  1  6
 10 12  1  0
 11 10  1  0
 12 14  1  0
 13 12  2  0
 14 15  1  0
 15 18  1  0
 15 16  1  6
 16 17  1  0
 18 20  1  0
 19 18  2  0
M  END
$$$$
