IAC.pdb
     RDKit          3D

 20 19  0  0  1  0  0  0  0  0999 V2000
   28.3225  -20.1826  -12.0250 C   0  0  0  0  0  0  0  0  0  0  0  0
   27.2578  -20.9287  -12.7650 C   0  0  0  0  0  0  0  0  0  0  0  0
   25.9891  -21.0781  -11.9845 C   0  0  2  0  0  0  0  0  0  0  0  0
   26.2776  -21.9002  -10.7564 C   0  0  0  0  0  0  0  0  0  0  0  0
   24.9452  -21.7337  -12.8528 C   0  0  2  0  0  0  0  0  0  0  0  0
   25.4286  -22.9599  -13.4020 N   0  0  0  0  0  0  0  0  0  0  0  0
   24.4789  -20.8463  -13.9406 C   0  0  0  0  0  0  0  0  0  0  0  0
   25.2406  -20.6315  -14.9350 O   0  0  0  0  0  0  0  0  0  0  0  0
   21.2414  -19.3387  -15.0710 C   0  0  0  0  0  0  0  0  0  0  0  0
   22.7625  -19.3232  -15.0003 C   0  0  2  0  0  0  0  0  0  0  0  0
   23.2169  -20.2099  -13.9456 N   0  0  0  0  0  0  0  0  0  0  0  0
   23.2648  -17.9503  -14.8368 C   0  0  0  0  0  0  0  0  0  0  0  0
   22.9868  -17.3508  -13.7667 O   0  0  0  0  0  0  0  0  0  0  0  0
   24.0394  -17.2515  -15.7962 N   0  0  0  0  0  0  0  0  0  0  0  0
   24.4213  -15.8614  -15.6676 C   0  0  1  0  0  0  0  0  0  0  0  0
   25.9408  -15.8645  -15.4479 C   0  0  0  0  0  0  0  0  0  0  0  0
   26.5853  -14.1847  -15.4887 S   0  0  0  0  0  0  0  0  0  0  0  0
   24.2013  -15.1989  -16.9751 C   0  0  0  0  0  0  0  0  0  0  0  0
   23.7429  -14.0272  -17.0714 O   0  0  0  0  0  0  0  0  0  0  0  0
   24.4968  -15.8568  -18.1409 O   0  0  0  0  0  0  0  0  0  0  0  0
  2  1  1  0
  3  2  1  0
  3  5  1  0
  3  4  1  1
  5  7  1  0
  5  6  1  6
  7 11  1  0
  7  8  2  0
 10  9  1  1
 10 12  1  0
 11 10  1  0
 12 14  1  0
 13 12  2  0
 14 15  1  0
 15 18  1  0
 15 16  1  6
 16 17  1  0
 18 20  1  0
 19 18  2  0
M  END
$$$$
