LDE.pdb
     RDKit          3D

 26 25  0  0  1  0  0  0  0  0999 V2000
    6.6005  -12.3338   27.1459 C   0  0  0  0  0  0  0  0  0  0  0  0
    6.3086  -13.2312   25.9759 C   0  0  1  0  0  0  0  0  0  0  0  0
    6.8556  -12.5638   24.7345 C   0  0  0  0  0  0  0  0  0  0  0  0
    6.8369  -14.6256   26.1317 C   0  0  0  0  0  0  0  0  0  0  0  0
    6.5687  -15.4582   24.9209 C   0  0  2  0  0  0  0  0  0  0  0  0
    5.7568  -16.6005   25.3154 N   0  0  0  0  0  0  0  0  0  0  0  0
    7.8165  -15.9953   24.3392 C   0  0  0  0  0  0  0  0  0  0  0  0
    8.4470  -16.9436   24.8852 O   0  0  0  0  0  0  0  0  0  0  0  0
    8.3899  -15.4796   23.1258 N   0  0  0  0  0  0  0  0  0  0  0  0
    9.5981  -16.0375   22.5839 C   0  0  1  0  0  0  0  0  0  0  0  0
    9.7737  -15.7497   21.1247 C   0  0  0  0  0  0  0  0  0  0  0  0
    9.0250  -16.6590   20.2337 C   0  0  0  0  0  0  0  0  0  0  0  0
    7.9124  -16.3252   19.7598 O   0  0  0  0  0  0  0  0  0  0  0  0
   10.7935  -15.5488   23.3197 C   0  0  0  0  0  0  0  0  0  0  0  0
   10.6896  -14.5223   24.0352 O   0  0  0  0  0  0  0  0  0  0  0  0
    9.5254  -17.9053   19.8937 O   0  0  0  0  0  0  0  0  0  0  0  0
   12.0326  -16.1992   23.2387 N   0  0  0  0  0  0  0  0  0  0  0  0
   12.8972  -16.4375   24.4147 C   0  0  1  0  0  0  0  0  0  0  0  0
   12.1331  -17.1213   25.4974 C   0  0  0  0  0  0  0  0  0  0  0  0
   12.1236  -16.3938   26.7850 C   0  0  0  0  0  0  0  0  0  0  0  0
   11.9643  -17.2381   27.9690 C   0  0  0  0  0  0  0  0  0  0  0  0
   11.7819  -18.4759   27.8860 O   0  0  0  0  0  0  0  0  0  0  0  0
   14.0535  -17.2162   23.9487 C   0  0  0  0  0  0  0  0  0  0  0  0
   15.3386  -16.8354   24.2879 O   0  0  0  0  0  0  0  0  0  0  0  0
   12.0106  -16.6879   29.2518 O   0  0  0  0  0  0  0  0  0  0  0  0
   13.9448  -18.2456   23.2341 O   0  0  0  0  0  0  0  0  0  0  0  0
  2  4  1  0
  2  1  1  1
  3  2  1  0
  4  5  1  0
  5  7  1  0
  5  6  1  1
  7  8  2  0
  9 10  1  0
  9  7  1  0
 11 12  1  0
 10 11  1  6
 12 16  1  0
 13 12  2  0
 14 10  1  0
 14 15  2  0
 17 14  1  0
 18 17  1  0
 18 23  1  0
 18 19  1  1
 20 19  1  0
 21 22  2  0
 21 20  1  0
 23 26  2  0
 23 24  1  0
 25 21  1  0
M  END
$$$$
