LDE.pdb
     RDKit          3D

 26 25  0  0  1  0  0  0  0  0999 V2000
    6.7697  -11.8827   27.0595 C   0  0  0  0  0  0  0  0  0  0  0  0
    6.3524  -12.9088   26.0433 C   0  0  1  0  0  0  0  0  0  0  0  0
    6.0587  -12.1841   24.7494 C   0  0  0  0  0  0  0  0  0  0  0  0
    7.3503  -14.0101   25.8453 C   0  0  0  0  0  0  0  0  0  0  0  0
    6.9067  -14.9779   24.7977 C   0  0  2  0  0  0  0  0  0  0  0  0
    5.8934  -15.8507   25.3731 N   0  0  0  0  0  0  0  0  0  0  0  0
    8.0168  -15.8431   24.3472 C   0  0  0  0  0  0  0  0  0  0  0  0
    8.3643  -16.8675   24.9988 O   0  0  0  0  0  0  0  0  0  0  0  0
    8.7674  -15.5791   23.1498 N   0  0  0  0  0  0  0  0  0  0  0  0
    9.8090  -16.4703   22.7187 C   0  0  1  0  0  0  0  0  0  0  0  0
   10.3901  -16.0940   21.3907 C   0  0  0  0  0  0  0  0  0  0  0  0
   11.4070  -17.0382   20.8850 C   0  0  0  0  0  0  0  0  0  0  0  0
   11.0702  -18.1148   20.3361 O   0  0  0  0  0  0  0  0  0  0  0  0
   10.9035  -16.5435   23.7215 C   0  0  0  0  0  0  0  0  0  0  0  0
   11.4093  -15.4767   24.1487 O   0  0  0  0  0  0  0  0  0  0  0  0
   12.7605  -16.7663   21.0002 O   0  0  0  0  0  0  0  0  0  0  0  0
   11.3878  -17.7672   24.2042 N   0  0  0  0  0  0  0  0  0  0  0  0
   12.2553  -17.8777   25.3969 C   0  0  1  0  0  0  0  0  0  0  0  0
   11.5617  -18.6291   26.4821 C   0  0  0  0  0  0  0  0  0  0  0  0
   12.3813  -18.8360   27.6957 C   0  0  0  0  0  0  0  0  0  0  0  0
   11.7148  -19.5684   28.7724 C   0  0  0  0  0  0  0  0  0  0  0  0
   10.5232  -19.3452   29.0929 O   0  0  0  0  0  0  0  0  0  0  0  0
   13.5048  -18.5190   24.9630 C   0  0  0  0  0  0  0  0  0  0  0  0
   13.5244  -19.3338   23.8463 O   0  0  0  0  0  0  0  0  0  0  0  0
   12.3913  -20.5561   29.4917 O   0  0  0  0  0  0  0  0  0  0  0  0
   14.5987  -18.3684   25.5655 O   0  0  0  0  0  0  0  0  0  0  0  0
  2  4  1  0
  2  1  1  1
  3  2  1  0
  4  5  1  0
  5  7  1  0
  5  6  1  1
  7  8  2  0
  9 10  1  0
  9  7  1  0
 11 12  1  0
 10 11  1  6
 12 16  1  0
 13 12  2  0
 14 10  1  0
 14 15  2  0
 17 14  1  0
 18 17  1  0
 18 23  1  0
 18 19  1  1
 20 19  1  0
 21 22  2  0
 21 20  1  0
 23 26  2  0
 23 24  1  0
 25 21  1  0
M  END
$$$$
