LDE.pdb
     RDKit          3D

 26 25  0  0  1  0  0  0  0  0999 V2000
    7.1918  -12.4485   20.8299 C   0  0  0  0  0  0  0  0  0  0  0  0
    7.7851  -13.1575   19.6446 C   0  0  1  0  0  0  0  0  0  0  0  0
    7.9442  -12.1450   18.5332 C   0  0  0  0  0  0  0  0  0  0  0  0
    9.0757  -13.8612   19.9396 C   0  0  0  0  0  0  0  0  0  0  0  0
    9.5353  -14.6843   18.7811 C   0  0  2  0  0  0  0  0  0  0  0  0
    8.5734  -15.7554   18.5639 N   0  0  0  0  0  0  0  0  0  0  0  0
   10.8407  -15.3236   19.0481 C   0  0  0  0  0  0  0  0  0  0  0  0
   10.9411  -16.3377   19.7940 O   0  0  0  0  0  0  0  0  0  0  0  0
   12.0703  -14.8387   18.4827 N   0  0  0  0  0  0  0  0  0  0  0  0
   13.3305  -15.4329   18.8344 C   0  0  1  0  0  0  0  0  0  0  0  0
   14.3784  -15.2524   17.7797 C   0  0  0  0  0  0  0  0  0  0  0  0
   14.1332  -16.0233   16.5441 C   0  0  0  0  0  0  0  0  0  0  0  0
   14.1373  -17.2778   16.5557 O   0  0  0  0  0  0  0  0  0  0  0  0
   13.8411  -14.8899   20.1203 C   0  0  0  0  0  0  0  0  0  0  0  0
   13.8993  -13.6453   20.2745 O   0  0  0  0  0  0  0  0  0  0  0  0
   13.8915  -15.3882   15.3368 O   0  0  0  0  0  0  0  0  0  0  0  0
   14.2594  -15.7253   21.1653 N   0  0  0  0  0  0  0  0  0  0  0  0
   14.7818  -15.2109   22.4498 C   0  0  1  0  0  0  0  0  0  0  0  0
   13.8018  -15.4499   23.5479 C   0  0  0  0  0  0  0  0  0  0  0  0
   13.3324  -16.8488   23.6478 C   0  0  0  0  0  0  0  0  0  0  0  0
   12.4186  -17.1147   24.7586 C   0  0  0  0  0  0  0  0  0  0  0  0
   12.7826  -17.7290   25.7895 O   0  0  0  0  0  0  0  0  0  0  0  0
   16.0760  -15.8676   22.6827 C   0  0  0  0  0  0  0  0  0  0  0  0
   16.5429  -16.8291   21.8057 O   0  0  0  0  0  0  0  0  0  0  0  0
   11.0896  -16.6881   24.7100 O   0  0  0  0  0  0  0  0  0  0  0  0
   16.8139  -15.6010   23.6659 O   0  0  0  0  0  0  0  0  0  0  0  0
  2  4  1  0
  2  1  1  1
  3  2  1  0
  4  5  1  0
  5  7  1  0
  5  6  1  1
  7  8  2  0
  9 10  1  0
  9  7  1  0
 11 12  1  0
 10 11  1  6
 12 16  1  0
 13 12  2  0
 14 10  1  0
 14 15  2  0
 17 14  1  0
 18 17  1  0
 18 23  1  0
 18 19  1  1
 20 19  1  0
 21 22  2  0
 21 20  1  0
 23 26  2  0
 23 24  1  0
 25 21  1  0
M  END
$$$$
