LDE.pdb
     RDKit          3D

 26 25  0  0  1  0  0  0  0  0999 V2000
    7.1600  -12.5477   20.3449 C   0  0  0  0  0  0  0  0  0  0  0  0
    7.9891  -13.7611   20.0290 C   0  0  1  0  0  0  0  0  0  0  0  0
    8.5742  -13.5735   18.6476 C   0  0  0  0  0  0  0  0  0  0  0  0
    9.0530  -14.0526   21.0444 C   0  0  0  0  0  0  0  0  0  0  0  0
    9.8018  -15.3033   20.7188 C   0  0  2  0  0  0  0  0  0  0  0  0
    8.8411  -16.3776   20.5126 N   0  0  0  0  0  0  0  0  0  0  0  0
   10.6823  -15.7186   21.8306 C   0  0  0  0  0  0  0  0  0  0  0  0
   11.4699  -14.9056   22.3907 O   0  0  0  0  0  0  0  0  0  0  0  0
   10.7010  -17.0616   22.3434 N   0  0  0  0  0  0  0  0  0  0  0  0
   11.5806  -17.4303   23.4182 C   0  0  1  0  0  0  0  0  0  0  0  0
   11.0570  -18.5673   24.2404 C   0  0  0  0  0  0  0  0  0  0  0  0
    9.9304  -18.2069   25.1248 C   0  0  0  0  0  0  0  0  0  0  0  0
    8.7477  -18.4747   24.8033 O   0  0  0  0  0  0  0  0  0  0  0  0
   12.9319  -17.7838   22.9102 C   0  0  0  0  0  0  0  0  0  0  0  0
   13.0276  -18.4754   21.8667 O   0  0  0  0  0  0  0  0  0  0  0  0
   10.1427  -17.5638   26.3333 O   0  0  0  0  0  0  0  0  0  0  0  0
   14.1019  -17.3685   23.5609 N   0  0  0  0  0  0  0  0  0  0  0  0
   15.4537  -17.5653   22.9940 C   0  0  1  0  0  0  0  0  0  0  0  0
   15.9681  -16.2931   22.4106 C   0  0  0  0  0  0  0  0  0  0  0  0
   17.3141  -16.4032   21.8078 C   0  0  0  0  0  0  0  0  0  0  0  0
   17.8430  -15.1591   21.2488 C   0  0  0  0  0  0  0  0  0  0  0  0
   17.9544  -14.1145   21.9335 O   0  0  0  0  0  0  0  0  0  0  0  0
   16.3029  -18.0854   24.0752 C   0  0  0  0  0  0  0  0  0  0  0  0
   17.4273  -18.8358   23.7852 O   0  0  0  0  0  0  0  0  0  0  0  0
   18.2483  -15.0896   19.9141 O   0  0  0  0  0  0  0  0  0  0  0  0
   16.0632  -17.8839   25.2935 O   0  0  0  0  0  0  0  0  0  0  0  0
  2  4  1  0
  2  1  1  1
  3  2  1  0
  4  5  1  0
  5  7  1  0
  5  6  1  1
  7  8  2  0
  9 10  1  0
  9  7  1  0
 11 12  1  0
 10 11  1  6
 12 16  1  0
 13 12  2  0
 14 10  1  0
 14 15  2  0
 17 14  1  0
 18 17  1  0
 18 23  1  0
 18 19  1  1
 20 19  1  0
 21 22  2  0
 21 20  1  0
 23 26  2  0
 23 24  1  0
 25 21  1  0
M  END
$$$$
