LDE.pdb
     RDKit          3D

 26 25  0  0  1  0  0  0  0  0999 V2000
    6.8350  -12.5156   19.1979 C   0  0  0  0  0  0  0  0  0  0  0  0
    8.2157  -13.0913   19.3458 C   0  0  1  0  0  0  0  0  0  0  0  0
    9.1913  -11.9386   19.4165 C   0  0  0  0  0  0  0  0  0  0  0  0
    8.3675  -14.0160   20.5162 C   0  0  0  0  0  0  0  0  0  0  0  0
    9.7742  -14.4957   20.6645 C   0  0  2  0  0  0  0  0  0  0  0  0
   10.2868  -14.8408   19.3462 N   0  0  0  0  0  0  0  0  0  0  0  0
    9.8507  -15.7181   21.4914 C   0  0  0  0  0  0  0  0  0  0  0  0
    9.1342  -15.8673   22.5206 O   0  0  0  0  0  0  0  0  0  0  0  0
   10.7367  -16.8075   21.1828 N   0  0  0  0  0  0  0  0  0  0  0  0
   10.9064  -17.9037   22.0963 C   0  0  1  0  0  0  0  0  0  0  0  0
   11.6235  -19.0688   21.4869 C   0  0  0  0  0  0  0  0  0  0  0  0
   11.7853  -20.2225   22.3947 C   0  0  0  0  0  0  0  0  0  0  0  0
   11.0238  -21.2164   22.3156 O   0  0  0  0  0  0  0  0  0  0  0  0
   11.6327  -17.4763   23.3206 C   0  0  0  0  0  0  0  0  0  0  0  0
   12.5653  -16.6424   23.2145 O   0  0  0  0  0  0  0  0  0  0  0  0
   12.7796  -20.2444   23.3591 O   0  0  0  0  0  0  0  0  0  0  0  0
   11.3078  -17.9760   24.5892 N   0  0  0  0  0  0  0  0  0  0  0  0
   11.6021  -17.2483   25.8427 C   0  0  1  0  0  0  0  0  0  0  0  0
   10.5630  -16.2111   26.1033 C   0  0  0  0  0  0  0  0  0  0  0  0
   10.7575  -15.4612   27.3631 C   0  0  0  0  0  0  0  0  0  0  0  0
    9.8228  -14.3557   27.5732 C   0  0  0  0  0  0  0  0  0  0  0  0
    8.8487  -14.1516   26.8103 O   0  0  0  0  0  0  0  0  0  0  0  0
   11.6920  -18.2520   26.9128 C   0  0  0  0  0  0  0  0  0  0  0  0
   12.2947  -17.9412   28.1176 O   0  0  0  0  0  0  0  0  0  0  0  0
    9.9841  -13.4760   28.6459 O   0  0  0  0  0  0  0  0  0  0  0  0
   11.2386  -19.4198   26.7984 O   0  0  0  0  0  0  0  0  0  0  0  0
  2  4  1  0
  2  1  1  1
  3  2  1  0
  4  5  1  0
  5  7  1  0
  5  6  1  6
  7  8  2  0
  9 10  1  0
  9  7  1  0
 11 12  1  0
 10 11  1  6
 12 16  1  0
 13 12  2  0
 14 10  1  0
 14 15  2  0
 17 14  1  0
 18 17  1  0
 18 23  1  0
 18 19  1  1
 20 19  1  0
 21 22  2  0
 21 20  1  0
 23 26  2  0
 23 24  1  0
 25 21  1  0
M  END
$$$$
