LDE.pdb
     RDKit          3D

 26 25  0  0  1  0  0  0  0  0999 V2000
    6.5971  -12.5407   19.7809 C   0  0  0  0  0  0  0  0  0  0  0  0
    7.7657  -13.4496   19.5203 C   0  0  1  0  0  0  0  0  0  0  0  0
    8.7109  -12.7298   18.5854 C   0  0  0  0  0  0  0  0  0  0  0  0
    8.4647  -13.9137   20.7629 C   0  0  0  0  0  0  0  0  0  0  0  0
    9.6768  -14.7269   20.4457 C   0  0  2  0  0  0  0  0  0  0  0  0
    9.3111  -15.7400   19.4662 N   0  0  0  0  0  0  0  0  0  0  0  0
   10.1835  -15.4404   21.6366 C   0  0  0  0  0  0  0  0  0  0  0  0
   10.4719  -14.8277   22.7026 O   0  0  0  0  0  0  0  0  0  0  0  0
   10.3800  -16.8643   21.6607 N   0  0  0  0  0  0  0  0  0  0  0  0
   10.9281  -17.5154   22.8186 C   0  0  1  0  0  0  0  0  0  0  0  0
   10.5598  -18.9644   22.9057 C   0  0  0  0  0  0  0  0  0  0  0  0
   11.1151  -19.6608   24.0838 C   0  0  0  0  0  0  0  0  0  0  0  0
   10.6925  -19.4110   25.2383 O   0  0  0  0  0  0  0  0  0  0  0  0
   12.4086  -17.3903   22.8557 C   0  0  0  0  0  0  0  0  0  0  0  0
   13.0398  -17.9164   23.8051 O   0  0  0  0  0  0  0  0  0  0  0  0
   12.1167  -20.6087   23.9524 O   0  0  0  0  0  0  0  0  0  0  0  0
   13.1209  -16.7029   21.8633 N   0  0  0  0  0  0  0  0  0  0  0  0
   14.5983  -16.6475   21.8223 C   0  0  1  0  0  0  0  0  0  0  0  0
   15.0697  -16.2126   20.4762 C   0  0  0  0  0  0  0  0  0  0  0  0
   14.5837  -14.8774   20.0659 C   0  0  0  0  0  0  0  0  0  0  0  0
   14.9846  -14.4615   18.7219 C   0  0  0  0  0  0  0  0  0  0  0  0
   15.5771  -15.2356   17.9330 O   0  0  0  0  0  0  0  0  0  0  0  0
   15.0256  -15.7435   22.8997 C   0  0  0  0  0  0  0  0  0  0  0  0
   14.0899  -15.0931   23.6825 O   0  0  0  0  0  0  0  0  0  0  0  0
   14.7181  -13.1696   18.2631 O   0  0  0  0  0  0  0  0  0  0  0  0
   16.2337  -15.5149   23.1651 O   0  0  0  0  0  0  0  0  0  0  0  0
  2  4  1  0
  2  1  1  1
  3  2  1  0
  4  5  1  0
  5  7  1  0
  5  6  1  6
  7  8  2  0
  9 10  1  0
  9  7  1  0
 11 12  1  0
 10 11  1  6
 12 16  1  0
 13 12  2  0
 14 10  1  0
 14 15  2  0
 17 14  1  0
 18 17  1  0
 18 23  1  0
 18 19  1  6
 20 19  1  0
 21 22  2  0
 21 20  1  0
 23 26  2  0
 23 24  1  0
 25 21  1  0
M  END
$$$$
