LDE.pdb
     RDKit          3D

 26 25  0  0  1  0  0  0  0  0999 V2000
    6.9033  -12.0585   27.1317 C   0  0  0  0  0  0  0  0  0  0  0  0
    6.6642  -13.0096   25.9924 C   0  0  1  0  0  0  0  0  0  0  0  0
    6.6088  -12.1985   24.7179 C   0  0  0  0  0  0  0  0  0  0  0  0
    7.6731  -14.1149   25.9004 C   0  0  0  0  0  0  0  0  0  0  0  0
    7.4409  -14.9786   24.7042 C   0  0  2  0  0  0  0  0  0  0  0  0
    6.2092  -15.7282   24.9066 N   0  0  0  0  0  0  0  0  0  0  0  0
    8.5241  -15.9678   24.5253 C   0  0  0  0  0  0  0  0  0  0  0  0
    8.8335  -16.7833   25.4387 O   0  0  0  0  0  0  0  0  0  0  0  0
    9.2899  -16.0668   23.3126 N   0  0  0  0  0  0  0  0  0  0  0  0
   10.3669  -17.0106   23.1934 C   0  0  1  0  0  0  0  0  0  0  0  0
   10.9488  -17.0649   21.8146 C   0  0  0  0  0  0  0  0  0  0  0  0
   12.0120  -18.0760   21.6452 C   0  0  0  0  0  0  0  0  0  0  0  0
   13.1130  -17.7726   21.1260 O   0  0  0  0  0  0  0  0  0  0  0  0
   11.4523  -16.7135   24.1644 C   0  0  0  0  0  0  0  0  0  0  0  0
   12.0504  -15.6121   24.0897 O   0  0  0  0  0  0  0  0  0  0  0  0
   11.8283  -19.3872   22.0528 O   0  0  0  0  0  0  0  0  0  0  0  0
   11.8280  -17.6257   25.1601 N   0  0  0  0  0  0  0  0  0  0  0  0
   12.9160  -17.3622   26.1268 C   0  0  1  0  0  0  0  0  0  0  0  0
   12.3561  -17.0049   27.4619 C   0  0  0  0  0  0  0  0  0  0  0  0
   11.6802  -18.1231   28.1548 C   0  0  0  0  0  0  0  0  0  0  0  0
   11.0635  -17.7731   29.4342 C   0  0  0  0  0  0  0  0  0  0  0  0
   11.1795  -16.6317   29.9406 O   0  0  0  0  0  0  0  0  0  0  0  0
   13.7615  -18.5641   26.1622 C   0  0  0  0  0  0  0  0  0  0  0  0
   14.9261  -18.5811   26.9071 O   0  0  0  0  0  0  0  0  0  0  0  0
   10.3131  -18.7105   30.1473 O   0  0  0  0  0  0  0  0  0  0  0  0
   13.4830  -19.6179   25.5344 O   0  0  0  0  0  0  0  0  0  0  0  0
  2  4  1  0
  2  1  1  1
  3  2  1  0
  4  5  1  0
  5  7  1  0
  5  6  1  1
  7  8  2  0
  9 10  1  0
  9  7  1  0
 11 12  1  0
 10 11  1  6
 12 16  1  0
 13 12  2  0
 14 10  1  0
 14 15  2  0
 17 14  1  0
 18 17  1  0
 18 23  1  0
 18 19  1  1
 20 19  1  0
 21 22  2  0
 21 20  1  0
 23 26  2  0
 23 24  1  0
 25 21  1  0
M  END
$$$$
