LDE.pdb
     RDKit          3D

 26 25  0  0  1  0  0  0  0  0999 V2000
    8.0401  -12.5361   26.9414 C   0  0  0  0  0  0  0  0  0  0  0  0
    6.8965  -13.3412   26.3904 C   0  0  1  0  0  0  0  0  0  0  0  0
    5.6110  -12.6817   26.8355 C   0  0  0  0  0  0  0  0  0  0  0  0
    6.9392  -13.5199   24.9024 C   0  0  0  0  0  0  0  0  0  0  0  0
    6.5155  -14.8936   24.4970 C   0  0  2  0  0  0  0  0  0  0  0  0
    6.0263  -15.5938   25.6760 N   0  0  0  0  0  0  0  0  0  0  0  0
    7.6479  -15.6807   23.9659 C   0  0  0  0  0  0  0  0  0  0  0  0
    8.0161  -16.7601   24.5083 O   0  0  0  0  0  0  0  0  0  0  0  0
    8.3979  -15.2746   22.8086 N   0  0  0  0  0  0  0  0  0  0  0  0
    9.4629  -16.0907   22.2942 C   0  0  1  0  0  0  0  0  0  0  0  0
    9.9493  -15.6413   20.9508 C   0  0  0  0  0  0  0  0  0  0  0  0
   10.8317  -16.6109   20.2708 C   0  0  0  0  0  0  0  0  0  0  0  0
   12.0456  -16.7007   20.5746 O   0  0  0  0  0  0  0  0  0  0  0  0
   10.6125  -16.1309   23.2353 C   0  0  0  0  0  0  0  0  0  0  0  0
   10.8129  -15.1500   23.9930 O   0  0  0  0  0  0  0  0  0  0  0  0
   10.3492  -17.4492   19.2790 O   0  0  0  0  0  0  0  0  0  0  0  0
   11.4793  -17.2305   23.3022 N   0  0  0  0  0  0  0  0  0  0  0  0
   12.5084  -17.3839   24.3534 C   0  0  1  0  0  0  0  0  0  0  0  0
   12.0472  -18.3366   25.4037 C   0  0  0  0  0  0  0  0  0  0  0  0
   11.6929  -17.6968   26.6891 C   0  0  0  0  0  0  0  0  0  0  0  0
   11.3079  -18.6234   27.7536 C   0  0  0  0  0  0  0  0  0  0  0  0
   10.8648  -18.2248   28.8570 O   0  0  0  0  0  0  0  0  0  0  0  0
   13.7439  -17.8190   23.6866 C   0  0  0  0  0  0  0  0  0  0  0  0
   14.9791  -17.4804   24.2074 O   0  0  0  0  0  0  0  0  0  0  0  0
   11.4217  -20.0040   27.5766 O   0  0  0  0  0  0  0  0  0  0  0  0
   13.7499  -18.5055   22.6326 O   0  0  0  0  0  0  0  0  0  0  0  0
  2  4  1  0
  2  1  1  6
  3  2  1  0
  4  5  1  0
  5  7  1  0
  5  6  1  1
  7  8  2  0
  9 10  1  0
  9  7  1  0
 11 12  1  0
 10 11  1  6
 12 16  1  0
 13 12  2  0
 14 10  1  0
 14 15  2  0
 17 14  1  0
 18 17  1  0
 18 23  1  0
 18 19  1  1
 20 19  1  0
 21 22  2  0
 21 20  1  0
 23 26  2  0
 23 24  1  0
 25 21  1  0
M  END
$$$$
