LDE.pdb
     RDKit          3D

 26 25  0  0  1  0  0  0  0  0999 V2000
    6.5486  -12.0027   27.0256 C   0  0  0  0  0  0  0  0  0  0  0  0
    6.2178  -13.0505   25.9998 C   0  0  1  0  0  0  0  0  0  0  0  0
    5.7550  -12.3407   24.7477 C   0  0  0  0  0  0  0  0  0  0  0  0
    7.3434  -13.9985   25.7133 C   0  0  0  0  0  0  0  0  0  0  0  0
    6.9578  -15.0265   24.7007 C   0  0  2  0  0  0  0  0  0  0  0  0
    5.9333  -15.8842   25.2790 N   0  0  0  0  0  0  0  0  0  0  0  0
    8.0978  -15.8961   24.3427 C   0  0  0  0  0  0  0  0  0  0  0  0
    8.3773  -16.9302   25.0116 O   0  0  0  0  0  0  0  0  0  0  0  0
    8.9556  -15.6258   23.2211 N   0  0  0  0  0  0  0  0  0  0  0  0
   10.0361  -16.5120   22.8865 C   0  0  1  0  0  0  0  0  0  0  0  0
   10.7270  -16.1386   21.6113 C   0  0  0  0  0  0  0  0  0  0  0  0
   11.6832  -17.1519   21.1213 C   0  0  0  0  0  0  0  0  0  0  0  0
   11.9264  -18.1850   21.7902 O   0  0  0  0  0  0  0  0  0  0  0  0
   11.0408  -16.5722   23.9802 C   0  0  0  0  0  0  0  0  0  0  0  0
   11.7797  -15.5776   24.1828 O   0  0  0  0  0  0  0  0  0  0  0  0
   12.3400  -16.9947   19.9117 O   0  0  0  0  0  0  0  0  0  0  0  0
   11.1879  -17.7057   24.7917 N   0  0  0  0  0  0  0  0  0  0  0  0
   11.8421  -17.6693   26.1177 C   0  0  1  0  0  0  0  0  0  0  0  0
   11.1856  -16.6614   26.9989 C   0  0  0  0  0  0  0  0  0  0  0  0
   11.7040  -16.6378   28.3838 C   0  0  0  0  0  0  0  0  0  0  0  0
   11.0996  -15.6267   29.2512 C   0  0  0  0  0  0  0  0  0  0  0  0
   10.1750  -14.8765   28.8577 O   0  0  0  0  0  0  0  0  0  0  0  0
   11.7853  -19.0327   26.6638 C   0  0  0  0  0  0  0  0  0  0  0  0
   10.8633  -19.9436   26.1825 O   0  0  0  0  0  0  0  0  0  0  0  0
   11.5367  -15.4587   30.5670 O   0  0  0  0  0  0  0  0  0  0  0  0
   12.5505  -19.4393   27.5756 O   0  0  0  0  0  0  0  0  0  0  0  0
  2  4  1  0
  2  1  1  1
  3  2  1  0
  4  5  1  0
  5  7  1  0
  5  6  1  1
  7  8  2  0
  9 10  1  0
  9  7  1  0
 11 12  1  0
 10 11  1  6
 12 16  1  0
 13 12  2  0
 14 10  1  0
 14 15  2  0
 17 14  1  0
 18 17  1  0
 18 23  1  0
 18 19  1  1
 20 19  1  0
 21 22  2  0
 21 20  1  0
 23 26  2  0
 23 24  1  0
 25 21  1  0
M  END
$$$$
