LDE.pdb
     RDKit          3D

 26 25  0  0  1  0  0  0  0  0999 V2000
    7.0493  -12.3191   20.2363 C   0  0  0  0  0  0  0  0  0  0  0  0
    8.0678  -13.4129   20.0758 C   0  0  1  0  0  0  0  0  0  0  0  0
    9.3601  -12.7766   19.6168 C   0  0  0  0  0  0  0  0  0  0  0  0
    8.2682  -14.2436   21.3078 C   0  0  0  0  0  0  0  0  0  0  0  0
    9.3972  -15.2084   21.1479 C   0  0  2  0  0  0  0  0  0  0  0  0
    9.0497  -16.1577   20.1001 N   0  0  0  0  0  0  0  0  0  0  0  0
    9.6270  -15.9904   22.3806 C   0  0  0  0  0  0  0  0  0  0  0  0
    8.7243  -16.1329   23.2522 O   0  0  0  0  0  0  0  0  0  0  0  0
   10.8801  -16.6342   22.6668 N   0  0  0  0  0  0  0  0  0  0  0  0
   11.0823  -17.3429   23.9004 C   0  0  1  0  0  0  0  0  0  0  0  0
   12.2023  -18.3347   23.8299 C   0  0  0  0  0  0  0  0  0  0  0  0
   12.4252  -19.0865   25.0814 C   0  0  0  0  0  0  0  0  0  0  0  0
   11.4747  -19.6580   25.6679 O   0  0  0  0  0  0  0  0  0  0  0  0
   11.3384  -16.4044   25.0241 C   0  0  0  0  0  0  0  0  0  0  0  0
   12.2887  -15.5892   24.9311 O   0  0  0  0  0  0  0  0  0  0  0  0
   13.6865  -19.1845   25.6461 O   0  0  0  0  0  0  0  0  0  0  0  0
   10.5512  -16.4024   26.1839 N   0  0  0  0  0  0  0  0  0  0  0  0
   10.8032  -15.5003   27.3286 C   0  0  1  0  0  0  0  0  0  0  0  0
    9.6769  -14.5374   27.4953 C   0  0  0  0  0  0  0  0  0  0  0  0
    9.0417  -14.1218   26.2261 C   0  0  0  0  0  0  0  0  0  0  0  0
    7.8576  -13.2762   26.3771 C   0  0  0  0  0  0  0  0  0  0  0  0
    6.7548  -13.7347   26.7593 O   0  0  0  0  0  0  0  0  0  0  0  0
   11.0110  -16.3503   28.5096 C   0  0  0  0  0  0  0  0  0  0  0  0
   10.8649  -17.7223   28.4212 O   0  0  0  0  0  0  0  0  0  0  0  0
    7.9140  -11.9091   26.0971 O   0  0  0  0  0  0  0  0  0  0  0  0
   11.3250  -15.8923   29.6382 O   0  0  0  0  0  0  0  0  0  0  0  0
  2  4  1  0
  2  1  1  1
  3  2  1  0
  4  5  1  0
  5  7  1  0
  5  6  1  6
  7  8  2  0
  9 10  1  0
  9  7  1  0
 11 12  1  0
 10 11  1  6
 12 16  1  0
 13 12  2  0
 14 10  1  0
 14 15  2  0
 17 14  1  0
 18 17  1  0
 18 23  1  0
 18 19  1  1
 20 19  1  0
 21 22  2  0
 21 20  1  0
 23 26  2  0
 23 24  1  0
 25 21  1  0
M  END
$$$$
