LDE.pdb
     RDKit          3D

 26 25  0  0  1  0  0  0  0  0999 V2000
    6.6111  -12.1640   27.2702 C   0  0  0  0  0  0  0  0  0  0  0  0
    6.5169  -13.0818   26.0835 C   0  0  1  0  0  0  0  0  0  0  0  0
    6.4855  -12.2248   24.8385 C   0  0  0  0  0  0  0  0  0  0  0  0
    7.6077  -14.1084   26.0200 C   0  0  0  0  0  0  0  0  0  0  0  0
    7.4283  -15.0365   24.8636 C   0  0  2  0  0  0  0  0  0  0  0  0
    6.2095  -15.8051   25.0717 N   0  0  0  0  0  0  0  0  0  0  0  0
    8.5388  -16.0064   24.7633 C   0  0  0  0  0  0  0  0  0  0  0  0
    8.6381  -16.9837   25.5570 O   0  0  0  0  0  0  0  0  0  0  0  0
    9.5694  -15.9032   23.7663 N   0  0  0  0  0  0  0  0  0  0  0  0
   10.6178  -16.8823   23.6827 C   0  0  1  0  0  0  0  0  0  0  0  0
   11.4154  -16.7808   22.4191 C   0  0  0  0  0  0  0  0  0  0  0  0
   10.6014  -16.7882   21.1868 C   0  0  0  0  0  0  0  0  0  0  0  0
    9.8112  -17.7315   20.9422 O   0  0  0  0  0  0  0  0  0  0  0  0
   11.5393  -16.7842   24.8447 C   0  0  0  0  0  0  0  0  0  0  0  0
   12.2709  -15.7700   24.9568 O   0  0  0  0  0  0  0  0  0  0  0  0
   10.6839  -15.7577   20.2647 O   0  0  0  0  0  0  0  0  0  0  0  0
   11.6161  -17.7896   25.8184 N   0  0  0  0  0  0  0  0  0  0  0  0
   12.6586  -17.8192   26.8671 C   0  0  1  0  0  0  0  0  0  0  0  0
   12.0939  -17.3946   28.1802 C   0  0  0  0  0  0  0  0  0  0  0  0
   11.7712  -15.9538   28.2639 C   0  0  0  0  0  0  0  0  0  0  0  0
   11.2003  -15.5229   29.5400 C   0  0  0  0  0  0  0  0  0  0  0  0
   10.4892  -14.4948   29.6395 O   0  0  0  0  0  0  0  0  0  0  0  0
   13.2062  -19.1830   26.8920 C   0  0  0  0  0  0  0  0  0  0  0  0
   12.6263  -20.1860   26.1376 O   0  0  0  0  0  0  0  0  0  0  0  0
   11.4301  -16.2512   30.7093 O   0  0  0  0  0  0  0  0  0  0  0  0
   14.2064  -19.5086   27.5819 O   0  0  0  0  0  0  0  0  0  0  0  0
  2  4  1  0
  2  1  1  1
  3  2  1  0
  4  5  1  0
  5  7  1  0
  5  6  1  1
  7  8  2  0
  9 10  1  0
  9  7  1  0
 11 12  1  0
 10 11  1  6
 12 16  1  0
 13 12  2  0
 14 10  1  0
 14 15  2  0
 17 14  1  0
 18 17  1  0
 18 23  1  0
 18 19  1  1
 20 19  1  0
 21 22  2  0
 21 20  1  0
 23 26  2  0
 23 24  1  0
 25 21  1  0
M  END
$$$$
