LDE.pdb
     RDKit          3D

 26 25  0  0  1  0  0  0  0  0999 V2000
    7.4974  -12.2359   27.1696 C   0  0  0  0  0  0  0  0  0  0  0  0
    6.8333  -13.2585   26.2905 C   0  0  1  0  0  0  0  0  0  0  0  0
    6.5320  -12.6004   24.9633 C   0  0  0  0  0  0  0  0  0  0  0  0
    7.6276  -14.5180   26.1148 C   0  0  0  0  0  0  0  0  0  0  0  0
    6.9847  -15.4465   25.1374 C   0  0  2  0  0  0  0  0  0  0  0  0
    6.2646  -16.4723   25.8783 N   0  0  0  0  0  0  0  0  0  0  0  0
    7.9868  -16.1404   24.3017 C   0  0  0  0  0  0  0  0  0  0  0  0
    8.4042  -17.2966   24.5913 O   0  0  0  0  0  0  0  0  0  0  0  0
    8.5475  -15.5517   23.1160 N   0  0  0  0  0  0  0  0  0  0  0  0
    9.3113  -16.3408   22.1892 C   0  0  1  0  0  0  0  0  0  0  0  0
    9.0071  -16.0216   20.7579 C   0  0  0  0  0  0  0  0  0  0  0  0
    9.8208  -16.7757   19.7831 C   0  0  0  0  0  0  0  0  0  0  0  0
    9.8359  -18.0302   19.7898 O   0  0  0  0  0  0  0  0  0  0  0  0
   10.7706  -16.1793   22.4204 C   0  0  0  0  0  0  0  0  0  0  0  0
   11.5761  -16.7384   21.6361 O   0  0  0  0  0  0  0  0  0  0  0  0
   10.5909  -16.1245   18.8332 O   0  0  0  0  0  0  0  0  0  0  0  0
   11.2741  -15.4221   23.4870 N   0  0  0  0  0  0  0  0  0  0  0  0
   12.3941  -15.8752   24.3402 C   0  0  1  0  0  0  0  0  0  0  0  0
   11.9633  -17.0022   25.2164 C   0  0  0  0  0  0  0  0  0  0  0  0
   13.0376  -17.5487   26.0733 C   0  0  0  0  0  0  0  0  0  0  0  0
   12.6523  -18.7042   26.8835 C   0  0  0  0  0  0  0  0  0  0  0  0
   12.8229  -18.7348   28.1255 O   0  0  0  0  0  0  0  0  0  0  0  0
   13.5007  -16.2366   23.4428 C   0  0  0  0  0  0  0  0  0  0  0  0
   13.3098  -17.1566   22.4286 O   0  0  0  0  0  0  0  0  0  0  0  0
   12.0728  -19.8301   26.2945 O   0  0  0  0  0  0  0  0  0  0  0  0
   14.6538  -15.7440   23.5421 O   0  0  0  0  0  0  0  0  0  0  0  0
  2  4  1  0
  2  1  1  1
  3  2  1  0
  4  5  1  0
  5  7  1  0
  5  6  1  1
  7  8  2  0
  9 10  1  0
  9  7  1  0
 11 12  1  0
 10 11  1  6
 12 16  1  0
 13 12  2  0
 14 10  1  0
 14 15  2  0
 17 14  1  0
 18 17  1  0
 18 23  1  0
 18 19  1  6
 20 19  1  0
 21 22  2  0
 21 20  1  0
 23 26  2  0
 23 24  1  0
 25 21  1  0
M  END
$$$$
