SDC.pdb
     RDKit          3D

 21 20  0  0  1  0  0  0  0  0999 V2000
   11.8504  -12.8536  -11.8475 O   0  0  0  0  0  0  0  0  0  0  0  0
   12.8705  -11.9467  -11.4765 C   0  0  0  0  0  0  0  0  0  0  0  0
   14.1314  -12.2925  -12.2573 C   0  0  2  0  0  0  0  0  0  0  0  0
   14.4867  -13.6830  -12.0734 N   0  0  0  0  0  0  0  0  0  0  0  0
   15.2327  -11.4005  -11.8185 C   0  0  0  0  0  0  0  0  0  0  0  0
   16.0937  -11.8032  -10.9982 O   0  0  0  0  0  0  0  0  0  0  0  0
   15.3328  -10.0912  -12.3120 N   0  0  0  0  0  0  0  0  0  0  0  0
   16.5005   -9.2295  -11.8980 C   0  0  1  0  0  0  0  0  0  0  0  0
   17.2122   -8.9521  -13.1917 C   0  0  0  0  0  0  0  0  0  0  0  0
   18.3159   -8.0330  -13.2011 C   0  0  0  0  0  0  0  0  0  0  0  0
   18.2780   -6.8647  -13.5720 O   0  0  0  0  0  0  0  0  0  0  0  0
   15.9217   -8.0338  -11.2442 C   0  0  0  0  0  0  0  0  0  0  0  0
   14.9308   -7.4727  -11.8291 O   0  0  0  0  0  0  0  0  0  0  0  0
   19.5648   -8.5009  -12.7448 O   0  0  0  0  0  0  0  0  0  0  0  0
   16.3017   -7.4155  -10.0542 N   0  0  0  0  0  0  0  0  0  0  0  0
   15.7280   -6.2033   -9.5300 C   0  0  1  0  0  0  0  0  0  0  0  0
   15.6651   -6.1202   -8.0498 C   0  0  0  0  0  0  0  0  0  0  0  0
   14.6784   -7.4094   -7.2869 S   0  0  0  0  0  0  0  0  0  0  0  0
   16.4070   -5.0026  -10.0671 C   0  0  0  0  0  0  0  0  0  0  0  0
   15.8173   -3.7670   -9.8423 O   0  0  0  0  0  0  0  0  0  0  0  0
   17.4781   -5.0571  -10.7077 O   0  0  0  0  0  0  0  0  0  0  0  0
  2  1  1  0
  3  5  1  0
  3  2  1  0
  3  4  1  1
  5  6  2  0
  7  5  1  0
  7  8  1  0
  8  9  1  6
  9 10  1  0
 10 14  1  0
 11 10  2  0
 12 15  1  0
 12  8  1  0
 13 12  2  0
 16 17  1  1
 16 19  1  0
 16 15  1  0
 18 17  1  0
 19 20  1  0
 21 19  2  0
M  END
$$$$
