SDC.pdb
     RDKit          3D

 21 20  0  0  1  0  0  0  0  0999 V2000
   14.9518  -10.7238  -16.9120 O   0  0  0  0  0  0  0  0  0  0  0  0
   15.4913  -10.7193  -15.6045 C   0  0  0  0  0  0  0  0  0  0  0  0
   17.0088  -10.7917  -15.7081 C   0  0  2  0  0  0  0  0  0  0  0  0
   17.4436  -12.1462  -15.9727 N   0  0  0  0  0  0  0  0  0  0  0  0
   17.6052  -10.2789  -14.4502 C   0  0  0  0  0  0  0  0  0  0  0  0
   17.8136  -11.0489  -13.4806 O   0  0  0  0  0  0  0  0  0  0  0  0
   17.9476   -8.9247  -14.3206 N   0  0  0  0  0  0  0  0  0  0  0  0
   18.6218   -8.4473  -13.0577 C   0  0  1  0  0  0  0  0  0  0  0  0
   19.6178   -7.4354  -13.5487 C   0  0  0  0  0  0  0  0  0  0  0  0
   20.4445   -6.7471  -12.5969 C   0  0  0  0  0  0  0  0  0  0  0  0
   20.4317   -6.9083  -11.3813 O   0  0  0  0  0  0  0  0  0  0  0  0
   17.5500   -7.8918  -12.2005 C   0  0  0  0  0  0  0  0  0  0  0  0
   16.7224   -7.0858  -12.7521 O   0  0  0  0  0  0  0  0  0  0  0  0
   21.3605   -5.7954  -13.0889 O   0  0  0  0  0  0  0  0  0  0  0  0
   17.2990   -8.1252  -10.8495 N   0  0  0  0  0  0  0  0  0  0  0  0
   16.2910   -7.4589  -10.0664 C   0  0  1  0  0  0  0  0  0  0  0  0
   15.4505   -8.3478   -9.2266 C   0  0  0  0  0  0  0  0  0  0  0  0
   14.3045   -7.4743   -8.1581 S   0  0  0  0  0  0  0  0  0  0  0  0
   16.8728   -6.3867   -9.2280 C   0  0  0  0  0  0  0  0  0  0  0  0
   16.0446   -5.3438   -8.8390 O   0  0  0  0  0  0  0  0  0  0  0  0
   18.0669   -6.3836   -8.8609 O   0  0  0  0  0  0  0  0  0  0  0  0
  2  1  1  0
  3  5  1  0
  3  2  1  0
  3  4  1  1
  5  6  2  0
  7  5  1  0
  7  8  1  0
  8  9  1  6
  9 10  1  0
 10 14  1  0
 11 10  2  0
 12 15  1  0
 12  8  1  0
 13 12  2  0
 16 17  1  1
 16 19  1  0
 16 15  1  0
 18 17  1  0
 19 20  1  0
 21 19  2  0
M  END
$$$$
