SDC.pdb
     RDKit          3D

 21 20  0  0  1  0  0  0  0  0999 V2000
   12.7999   -9.3885   -8.4142 O   0  0  0  0  0  0  0  0  0  0  0  0
   13.8002   -9.7665   -9.3399 C   0  0  0  0  0  0  0  0  0  0  0  0
   14.8691   -8.6822   -9.3655 C   0  0  2  0  0  0  0  0  0  0  0  0
   14.2787   -7.3814   -9.5954 N   0  0  0  0  0  0  0  0  0  0  0  0
   15.8637   -9.0072  -10.4172 C   0  0  0  0  0  0  0  0  0  0  0  0
   16.5468  -10.0585  -10.3486 O   0  0  0  0  0  0  0  0  0  0  0  0
   16.0594   -8.1468  -11.5076 N   0  0  0  0  0  0  0  0  0  0  0  0
   17.0380   -8.5313  -12.5901 C   0  0  1  0  0  0  0  0  0  0  0  0
   16.1865   -8.6117  -13.8252 C   0  0  0  0  0  0  0  0  0  0  0  0
   16.6008   -9.4599  -14.9078 C   0  0  0  0  0  0  0  0  0  0  0  0
   17.6775   -9.4084  -15.4926 O   0  0  0  0  0  0  0  0  0  0  0  0
   18.0651   -7.4652  -12.6177 C   0  0  0  0  0  0  0  0  0  0  0  0
   17.7153   -6.3087  -12.1946 O   0  0  0  0  0  0  0  0  0  0  0  0
   15.6985  -10.4480  -15.3509 O   0  0  0  0  0  0  0  0  0  0  0  0
   19.3908   -7.5364  -13.0422 N   0  0  0  0  0  0  0  0  0  0  0  0
   20.3229   -6.4389  -13.0369 C   0  0  1  0  0  0  0  0  0  0  0  0
   21.6816   -6.7637  -12.5366 C   0  0  0  0  0  0  0  0  0  0  0  0
   22.8418   -5.3991  -12.6343 S   0  0  0  0  0  0  0  0  0  0  0  0
   20.4227   -5.8024  -14.3696 C   0  0  0  0  0  0  0  0  0  0  0  0
   20.5383   -4.4209  -14.4232 O   0  0  0  0  0  0  0  0  0  0  0  0
   20.4070   -6.4526  -15.4361 O   0  0  0  0  0  0  0  0  0  0  0  0
  2  1  1  0
  3  5  1  0
  3  2  1  0
  3  4  1  6
  5  6  2  0
  7  5  1  0
  7  8  1  0
  8  9  1  6
  9 10  1  0
 10 14  1  0
 11 10  2  0
 12 15  1  0
 12  8  1  0
 13 12  2  0
 16 17  1  6
 16 19  1  0
 16 15  1  0
 18 17  1  0
 19 20  1  0
 21 19  2  0
M  END
$$$$
