SDC.pdb
     RDKit          3D

 21 20  0  0  1  0  0  0  0  0999 V2000
   24.1212  -14.2887  -19.6876 O   0  0  0  0  0  0  0  0  0  0  0  0
   23.4903  -13.4915  -18.7042 C   0  0  0  0  0  0  0  0  0  0  0  0
   23.3982  -12.0639  -19.2260 C   0  0  2  0  0  0  0  0  0  0  0  0
   24.7162  -11.5105  -19.4496 N   0  0  0  0  0  0  0  0  0  0  0  0
   22.6347  -11.2417  -18.2554 C   0  0  0  0  0  0  0  0  0  0  0  0
   23.2024  -10.7458  -17.2513 O   0  0  0  0  0  0  0  0  0  0  0  0
   21.2650  -11.0027  -18.4413 N   0  0  0  0  0  0  0  0  0  0  0  0
   20.5125  -10.1732  -17.4299 C   0  0  1  0  0  0  0  0  0  0  0  0
   20.2097   -8.9013  -18.1699 C   0  0  0  0  0  0  0  0  0  0  0  0
   19.4162   -7.8899  -17.5292 C   0  0  0  0  0  0  0  0  0  0  0  0
   18.7565   -7.0249  -18.0955 O   0  0  0  0  0  0  0  0  0  0  0  0
   19.3200  -10.9644  -17.0503 C   0  0  0  0  0  0  0  0  0  0  0  0
   18.6622  -11.5177  -17.9990 O   0  0  0  0  0  0  0  0  0  0  0  0
   19.3814   -7.8764  -16.1202 O   0  0  0  0  0  0  0  0  0  0  0  0
   18.7965  -11.2063  -15.7813 N   0  0  0  0  0  0  0  0  0  0  0  0
   17.6007  -11.9605  -15.5080 C   0  0  1  0  0  0  0  0  0  0  0  0
   17.4544  -12.4313  -14.1084 C   0  0  0  0  0  0  0  0  0  0  0  0
   18.6969  -13.6230  -13.6047 S   0  0  0  0  0  0  0  0  0  0  0  0
   16.3849  -11.2197  -15.9131 C   0  0  0  0  0  0  0  0  0  0  0  0
   15.1817  -11.9098  -15.9393 O   0  0  0  0  0  0  0  0  0  0  0  0
   16.3992  -10.0111  -16.2289 O   0  0  0  0  0  0  0  0  0  0  0  0
  2  1  1  0
  3  5  1  0
  3  2  1  0
  3  4  1  1
  5  6  2  0
  7  5  1  0
  7  8  1  0
  8  9  1  6
  9 10  1  0
 10 14  1  0
 11 10  2  0
 12 15  1  0
 12  8  1  0
 13 12  2  0
 16 17  1  1
 16 19  1  0
 16 15  1  0
 18 17  1  0
 19 20  1  0
 21 19  2  0
M  END
$$$$
