SDC.pdb
     RDKit          3D

 21 20  0  0  1  0  0  0  0  0999 V2000
   15.8450  -13.0320  -13.5930 O   0  0  0  0  0  0  0  0  0  0  0  0
   16.8268  -12.1538  -14.1082 C   0  0  0  0  0  0  0  0  0  0  0  0
   16.5488  -11.9342  -15.5892 C   0  0  2  0  0  0  0  0  0  0  0  0
   16.7398  -13.1581  -16.3368 N   0  0  0  0  0  0  0  0  0  0  0  0
   17.4375  -10.8590  -16.0946 C   0  0  0  0  0  0  0  0  0  0  0  0
   18.5534  -11.1359  -16.5991 O   0  0  0  0  0  0  0  0  0  0  0  0
   17.0477   -9.5137  -16.0187 N   0  0  0  0  0  0  0  0  0  0  0  0
   17.8711   -8.4618  -16.7208 C   0  0  1  0  0  0  0  0  0  0  0  0
   16.8567   -7.4307  -17.1270 C   0  0  0  0  0  0  0  0  0  0  0  0
   17.3051   -6.2054  -17.7275 C   0  0  0  0  0  0  0  0  0  0  0  0
   18.0615   -6.1078  -18.6879 O   0  0  0  0  0  0  0  0  0  0  0  0
   18.8688   -7.9898  -15.7339 C   0  0  0  0  0  0  0  0  0  0  0  0
   18.4518   -7.7709  -14.5435 O   0  0  0  0  0  0  0  0  0  0  0  0
   16.8421   -4.9944  -17.1743 O   0  0  0  0  0  0  0  0  0  0  0  0
   20.2297   -7.7466  -15.9114 N   0  0  0  0  0  0  0  0  0  0  0  0
   21.1297   -7.2843  -14.8869 C   0  0  1  0  0  0  0  0  0  0  0  0
   22.5208   -7.7903  -14.9898 C   0  0  0  0  0  0  0  0  0  0  0  0
   22.6709   -9.5646  -14.7729 S   0  0  0  0  0  0  0  0  0  0  0  0
   21.1431   -5.8067  -14.7998 C   0  0  0  0  0  0  0  0  0  0  0  0
   20.4816   -5.0912  -15.7873 O   0  0  0  0  0  0  0  0  0  0  0  0
   21.7202   -5.1853  -13.8825 O   0  0  0  0  0  0  0  0  0  0  0  0
  2  1  1  0
  3  5  1  0
  3  2  1  0
  3  4  1  6
  5  6  2  0
  7  5  1  0
  7  8  1  0
  8  9  1  1
  9 10  1  0
 10 14  1  0
 11 10  2  0
 12 15  1  0
 12  8  1  0
 13 12  2  0
 16 17  1  6
 16 19  1  0
 16 15  1  0
 18 17  1  0
 19 20  1  0
 21 19  2  0
M  END
$$$$
