SDC.pdb
     RDKit          3D

 21 20  0  0  1  0  0  0  0  0999 V2000
   21.7017  -12.8504  -18.9693 O   0  0  0  0  0  0  0  0  0  0  0  0
   20.9221  -11.7160  -18.6439 C   0  0  0  0  0  0  0  0  0  0  0  0
   20.1740  -11.9996  -17.3483 C   0  0  2  0  0  0  0  0  0  0  0  0
   19.1495  -13.0006  -17.5528 N   0  0  0  0  0  0  0  0  0  0  0  0
   19.5870  -10.7350  -16.8411 C   0  0  0  0  0  0  0  0  0  0  0  0
   18.8921  -10.0064  -17.5911 O   0  0  0  0  0  0  0  0  0  0  0  0
   19.7971  -10.3300  -15.5146 N   0  0  0  0  0  0  0  0  0  0  0  0
   19.2729   -8.9914  -15.0556 C   0  0  1  0  0  0  0  0  0  0  0  0
   18.5641   -9.3104  -13.7699 C   0  0  0  0  0  0  0  0  0  0  0  0
   18.0062   -8.2389  -12.9929 C   0  0  0  0  0  0  0  0  0  0  0  0
   17.9010   -7.0698  -13.3480 O   0  0  0  0  0  0  0  0  0  0  0  0
   20.4552   -8.1127  -14.9061 C   0  0  0  0  0  0  0  0  0  0  0  0
   21.4954   -8.6238  -14.3625 O   0  0  0  0  0  0  0  0  0  0  0  0
   17.5310   -8.5421  -11.7010 O   0  0  0  0  0  0  0  0  0  0  0  0
   20.6095   -6.7797  -15.2830 N   0  0  0  0  0  0  0  0  0  0  0  0
   21.7635   -5.9664  -14.9995 C   0  0  1  0  0  0  0  0  0  0  0  0
   22.4192   -5.3612  -16.1852 C   0  0  0  0  0  0  0  0  0  0  0  0
   23.7228   -4.1962  -15.7840 S   0  0  0  0  0  0  0  0  0  0  0  0
   21.4559   -4.9108  -14.0084 C   0  0  0  0  0  0  0  0  0  0  0  0
   22.3934   -4.6558  -13.0181 O   0  0  0  0  0  0  0  0  0  0  0  0
   20.3973   -4.2479  -14.0282 O   0  0  0  0  0  0  0  0  0  0  0  0
  2  1  1  0
  3  5  1  0
  3  2  1  0
  3  4  1  6
  5  6  2  0
  7  5  1  0
  7  8  1  0
  8  9  1  1
  9 10  1  0
 10 14  1  0
 11 10  2  0
 12 15  1  0
 12  8  1  0
 13 12  2  0
 16 17  1  6
 16 19  1  0
 16 15  1  0
 18 17  1  0
 19 20  1  0
 21 19  2  0
M  END
$$$$
