SDC.pdb
     RDKit          3D

 21 20  0  0  1  0  0  0  0  0999 V2000
   17.2624  -10.6934  -13.4704 O   0  0  0  0  0  0  0  0  0  0  0  0
   16.0436  -10.0180  -13.7134 C   0  0  0  0  0  0  0  0  0  0  0  0
   15.9647   -9.6830  -15.1967 C   0  0  2  0  0  0  0  0  0  0  0  0
   16.3656  -10.8154  -16.0033 N   0  0  0  0  0  0  0  0  0  0  0  0
   16.8218   -8.5041  -15.4733 C   0  0  0  0  0  0  0  0  0  0  0  0
   17.8377   -8.6091  -16.2038 O   0  0  0  0  0  0  0  0  0  0  0  0
   16.5134   -7.2505  -14.9246 N   0  0  0  0  0  0  0  0  0  0  0  0
   17.2598   -6.0282  -15.4003 C   0  0  1  0  0  0  0  0  0  0  0  0
   16.3899   -4.8867  -14.9560 C   0  0  0  0  0  0  0  0  0  0  0  0
   15.2044   -4.5764  -15.7053 C   0  0  0  0  0  0  0  0  0  0  0  0
   14.1029   -4.3126  -15.2352 O   0  0  0  0  0  0  0  0  0  0  0  0
   18.5905   -6.0774  -14.7531 C   0  0  0  0  0  0  0  0  0  0  0  0
   18.6240   -6.4000  -13.5147 O   0  0  0  0  0  0  0  0  0  0  0  0
   15.2987   -4.5699  -17.1117 O   0  0  0  0  0  0  0  0  0  0  0  0
   19.8441   -5.8230  -15.3066 N   0  0  0  0  0  0  0  0  0  0  0  0
   21.0981   -5.9433  -14.6092 C   0  0  1  0  0  0  0  0  0  0  0  0
   22.1194   -6.7840  -15.2818 C   0  0  0  0  0  0  0  0  0  0  0  0
   23.7073   -6.8118  -14.4480 S   0  0  0  0  0  0  0  0  0  0  0  0
   21.6752   -4.6173  -14.2932 C   0  0  0  0  0  0  0  0  0  0  0  0
   22.2289   -4.4325  -13.0347 O   0  0  0  0  0  0  0  0  0  0  0  0
   21.6833   -3.6686  -15.1059 O   0  0  0  0  0  0  0  0  0  0  0  0
  2  1  1  0
  3  5  1  0
  3  2  1  0
  3  4  1  6
  5  6  2  0
  7  5  1  0
  7  8  1  0
  8  9  1  1
  9 10  1  0
 10 14  1  0
 11 10  2  0
 12 15  1  0
 12  8  1  0
 13 12  2  0
 16 17  1  6
 16 19  1  0
 16 15  1  0
 18 17  1  0
 19 20  1  0
 21 19  2  0
M  END
$$$$
