SDC.pdb
     RDKit          3D

 21 20  0  0  1  0  0  0  0  0999 V2000
   24.5000  -11.6032  -15.2979 O   0  0  0  0  0  0  0  0  0  0  0  0
   23.3450  -12.2073  -14.7488 C   0  0  0  0  0  0  0  0  0  0  0  0
   22.3880  -12.5411  -15.8853 C   0  0  2  0  0  0  0  0  0  0  0  0
   23.0501  -13.3290  -16.9023 N   0  0  0  0  0  0  0  0  0  0  0  0
   21.8538  -11.2797  -16.4549 C   0  0  0  0  0  0  0  0  0  0  0  0
   22.2345  -10.8746  -17.5807 O   0  0  0  0  0  0  0  0  0  0  0  0
   20.9136  -10.5164  -15.7470 N   0  0  0  0  0  0  0  0  0  0  0  0
   20.3883   -9.2379  -16.3526 C   0  0  1  0  0  0  0  0  0  0  0  0
   18.9075   -9.3136  -16.1106 C   0  0  0  0  0  0  0  0  0  0  0  0
   18.0789   -8.2013  -16.4839 C   0  0  0  0  0  0  0  0  0  0  0  0
   17.5868   -7.3798  -15.7177 O   0  0  0  0  0  0  0  0  0  0  0  0
   21.0730   -8.1324  -15.6446 C   0  0  0  0  0  0  0  0  0  0  0  0
   21.5212   -8.3814  -14.4716 O   0  0  0  0  0  0  0  0  0  0  0  0
   17.7957   -8.0231  -17.8531 O   0  0  0  0  0  0  0  0  0  0  0  0
   21.3122   -6.8294  -16.0780 N   0  0  0  0  0  0  0  0  0  0  0  0
   21.9987   -5.8163  -15.3192 C   0  0  1  0  0  0  0  0  0  0  0  0
   23.2711   -5.3342  -15.9113 C   0  0  0  0  0  0  0  0  0  0  0  0
   24.0743   -4.0408  -14.9629 S   0  0  0  0  0  0  0  0  0  0  0  0
   21.1175   -4.6632  -15.0277 C   0  0  0  0  0  0  0  0  0  0  0  0
   21.2515   -4.0375  -13.7968 O   0  0  0  0  0  0  0  0  0  0  0  0
   20.2673   -4.2360  -15.8372 O   0  0  0  0  0  0  0  0  0  0  0  0
  2  1  1  0
  3  5  1  0
  3  2  1  0
  3  4  1  6
  5  6  2  0
  7  5  1  0
  7  8  1  0
  8  9  1  1
  9 10  1  0
 10 14  1  0
 11 10  2  0
 12 15  1  0
 12  8  1  0
 13 12  2  0
 16 17  1  6
 16 19  1  0
 16 15  1  0
 18 17  1  0
 19 20  1  0
 21 19  2  0
M  END
$$$$
