SDC.pdb
     RDKit          3D

 21 20  0  0  1  0  0  0  0  0999 V2000
   12.8974  -10.7619   -9.2313 O   0  0  0  0  0  0  0  0  0  0  0  0
   13.2929   -9.7472  -10.1338 C   0  0  0  0  0  0  0  0  0  0  0  0
   14.8135   -9.6655  -10.1325 C   0  0  2  0  0  0  0  0  0  0  0  0
   15.3114   -9.3424   -8.8129 N   0  0  0  0  0  0  0  0  0  0  0  0
   15.2450   -8.6516  -11.1259 C   0  0  0  0  0  0  0  0  0  0  0  0
   14.9385   -8.7723  -12.3374 O   0  0  0  0  0  0  0  0  0  0  0  0
   16.0029   -7.5395  -10.7303 N   0  0  0  0  0  0  0  0  0  0  0  0
   16.5375   -6.5950  -11.7788 C   0  0  1  0  0  0  0  0  0  0  0  0
   16.1189   -5.2404  -11.2819 C   0  0  0  0  0  0  0  0  0  0  0  0
   16.6263   -4.0665  -11.9359 C   0  0  0  0  0  0  0  0  0  0  0  0
   17.5595   -3.3717  -11.5481 O   0  0  0  0  0  0  0  0  0  0  0  0
   18.0018   -6.8102  -11.8222 C   0  0  0  0  0  0  0  0  0  0  0  0
   18.5471   -7.3159  -10.7802 O   0  0  0  0  0  0  0  0  0  0  0  0
   16.0060   -3.6625  -13.1354 O   0  0  0  0  0  0  0  0  0  0  0  0
   18.8966   -6.5418  -12.8566 N   0  0  0  0  0  0  0  0  0  0  0  0
   20.3177   -6.7677  -12.8028 C   0  0  1  0  0  0  0  0  0  0  0  0
   20.7617   -8.1171  -13.2317 C   0  0  0  0  0  0  0  0  0  0  0  0
   22.5430   -8.3272  -13.2542 S   0  0  0  0  0  0  0  0  0  0  0  0
   21.0624   -5.7356  -13.5587 C   0  0  0  0  0  0  0  0  0  0  0  0
   22.3719   -5.4732  -13.1834 O   0  0  0  0  0  0  0  0  0  0  0  0
   20.5639   -5.0985  -14.5106 O   0  0  0  0  0  0  0  0  0  0  0  0
  2  1  1  0
  3  5  1  0
  3  2  1  0
  3  4  1  1
  5  6  2  0
  7  5  1  0
  7  8  1  0
  8  9  1  1
  9 10  1  0
 10 14  1  0
 11 10  2  0
 12 15  1  0
 12  8  1  0
 13 12  2  0
 16 17  1  6
 16 19  1  0
 16 15  1  0
 18 17  1  0
 19 20  1  0
 21 19  2  0
M  END
$$$$
