SDC.pdb
     RDKit          3D

 21 20  0  0  1  0  0  0  0  0999 V2000
   26.7255  -20.3340  -15.7010 O   0  0  0  0  0  0  0  0  0  0  0  0
   25.3183  -20.2430  -15.8108 C   0  0  0  0  0  0  0  0  0  0  0  0
   24.6977  -21.3935  -15.0297 C   0  0  2  0  0  0  0  0  0  0  0  0
   25.0155  -22.6645  -15.6438 N   0  0  0  0  0  0  0  0  0  0  0  0
   23.2297  -21.1922  -14.9553 C   0  0  0  0  0  0  0  0  0  0  0  0
   22.4610  -21.7909  -15.7472 O   0  0  0  0  0  0  0  0  0  0  0  0
   22.6732  -20.3298  -13.9990 N   0  0  0  0  0  0  0  0  0  0  0  0
   21.1908  -20.0487  -14.0266 C   0  0  1  0  0  0  0  0  0  0  0  0
   20.8419  -19.8446  -12.5797 C   0  0  0  0  0  0  0  0  0  0  0  0
   19.8314  -20.6702  -11.9794 C   0  0  0  0  0  0  0  0  0  0  0  0
   19.1173  -21.4766  -12.5657 O   0  0  0  0  0  0  0  0  0  0  0  0
   21.0121  -18.8511  -14.8787 C   0  0  0  0  0  0  0  0  0  0  0  0
   22.0379  -18.1069  -15.0595 O   0  0  0  0  0  0  0  0  0  0  0  0
   19.6292  -20.5554  -10.5892 O   0  0  0  0  0  0  0  0  0  0  0  0
   19.8655  -18.4048  -15.5336 N   0  0  0  0  0  0  0  0  0  0  0  0
   19.8217  -17.3250  -16.4851 C   0  0  1  0  0  0  0  0  0  0  0  0
   20.6655  -17.5088  -17.6918 C   0  0  0  0  0  0  0  0  0  0  0  0
   20.5623  -16.1585  -18.8682 S   0  0  0  0  0  0  0  0  0  0  0  0
   18.4330  -17.0136  -16.8922 C   0  0  0  0  0  0  0  0  0  0  0  0
   18.1287  -15.6983  -17.2119 O   0  0  0  0  0  0  0  0  0  0  0  0
   17.5341  -17.8785  -16.9584 O   0  0  0  0  0  0  0  0  0  0  0  0
  2  1  1  0
  3  5  1  0
  3  2  1  0
  3  4  1  6
  5  6  2  0
  7  5  1  0
  7  8  1  0
  8  9  1  1
  9 10  1  0
 10 14  1  0
 11 10  2  0
 12 15  1  0
 12  8  1  0
 13 12  2  0
 16 17  1  6
 16 19  1  0
 16 15  1  0
 18 17  1  0
 19 20  1  0
 21 19  2  0
M  END
$$$$
