SDC.pdb
     RDKit          3D

 21 20  0  0  1  0  0  0  0  0999 V2000
   24.6502  -14.0948  -15.1410 O   0  0  0  0  0  0  0  0  0  0  0  0
   26.0459  -14.3041  -15.2358 C   0  0  0  0  0  0  0  0  0  0  0  0
   26.3037  -15.3685  -16.2938 C   0  0  2  0  0  0  0  0  0  0  0  0
   25.8215  -14.9368  -17.5879 N   0  0  0  0  0  0  0  0  0  0  0  0
   25.6489  -16.6333  -15.8781 C   0  0  0  0  0  0  0  0  0  0  0  0
   24.4556  -16.8683  -16.1899 O   0  0  0  0  0  0  0  0  0  0  0  0
   26.3505  -17.5899  -15.1296 N   0  0  0  0  0  0  0  0  0  0  0  0
   25.7016  -18.9188  -14.8291 C   0  0  1  0  0  0  0  0  0  0  0  0
   26.2236  -19.8207  -15.9113 C   0  0  0  0  0  0  0  0  0  0  0  0
   25.6259  -21.1138  -16.0946 C   0  0  0  0  0  0  0  0  0  0  0  0
   25.9748  -21.9602  -16.9107 O   0  0  0  0  0  0  0  0  0  0  0  0
   26.1280  -19.2878  -13.4601 C   0  0  0  0  0  0  0  0  0  0  0  0
   27.3610  -19.1089  -13.1662 O   0  0  0  0  0  0  0  0  0  0  0  0
   24.5370  -21.4576  -15.2682 O   0  0  0  0  0  0  0  0  0  0  0  0
   25.3664  -19.8098  -12.4159 N   0  0  0  0  0  0  0  0  0  0  0  0
   25.8853  -20.2251  -11.1386 C   0  0  1  0  0  0  0  0  0  0  0  0
   24.9152  -20.1836  -10.0164 C   0  0  0  0  0  0  0  0  0  0  0  0
   25.5163  -20.9356   -8.5028 S   0  0  0  0  0  0  0  0  0  0  0  0
   26.5032  -21.5682  -11.2122 C   0  0  0  0  0  0  0  0  0  0  0  0
   27.7158  -21.7623  -10.5666 O   0  0  0  0  0  0  0  0  0  0  0  0
   25.9820  -22.5233  -11.8259 O   0  0  0  0  0  0  0  0  0  0  0  0
  2  1  1  0
  3  5  1  0
  3  2  1  0
  3  4  1  6
  5  6  2  0
  7  5  1  0
  7  8  1  0
  8  9  1  6
  9 10  1  0
 10 14  1  0
 11 10  2  0
 12 15  1  0
 12  8  1  0
 13 12  2  0
 16 17  1  1
 16 19  1  0
 16 15  1  0
 18 17  1  0
 19 20  1  0
 21 19  2  0
M  END
$$$$
