SDC.pdb
     RDKit          3D

 21 20  0  0  1  0  0  0  0  0999 V2000
   14.6448   -5.8552   -7.2357 O   0  0  0  0  0  0  0  0  0  0  0  0
   15.3714   -6.5121   -8.2561 C   0  0  0  0  0  0  0  0  0  0  0  0
   14.4053   -7.3718   -9.0600 C   0  0  2  0  0  0  0  0  0  0  0  0
   13.7479   -8.3411   -8.2104 N   0  0  0  0  0  0  0  0  0  0  0  0
   15.1493   -8.0427  -10.1542 C   0  0  0  0  0  0  0  0  0  0  0  0
   15.4484   -9.2594  -10.0720 O   0  0  0  0  0  0  0  0  0  0  0  0
   15.5321   -7.3309  -11.3008 N   0  0  0  0  0  0  0  0  0  0  0  0
   16.1297   -8.0739  -12.4704 C   0  0  1  0  0  0  0  0  0  0  0  0
   15.1666   -7.8036  -13.5913 C   0  0  0  0  0  0  0  0  0  0  0  0
   15.4870   -8.2587  -14.9154 C   0  0  0  0  0  0  0  0  0  0  0  0
   16.1399   -9.2582  -15.1959 O   0  0  0  0  0  0  0  0  0  0  0  0
   17.4837   -7.5096  -12.6715 C   0  0  0  0  0  0  0  0  0  0  0  0
   17.6395   -6.2649  -12.4162 O   0  0  0  0  0  0  0  0  0  0  0  0
   15.0150   -7.4978  -16.0040 O   0  0  0  0  0  0  0  0  0  0  0  0
   18.6443   -8.1491  -13.1038 N   0  0  0  0  0  0  0  0  0  0  0  0
   19.9178   -7.5082  -13.3056 C   0  0  1  0  0  0  0  0  0  0  0  0
   21.1044   -8.3650  -13.0611 C   0  0  0  0  0  0  0  0  0  0  0  0
   22.6692   -7.5674  -13.4259 S   0  0  0  0  0  0  0  0  0  0  0  0
   20.0136   -6.8982  -14.6509 C   0  0  0  0  0  0  0  0  0  0  0  0
   20.5749   -5.6336  -14.7529 O   0  0  0  0  0  0  0  0  0  0  0  0
   19.6134   -7.4706  -15.6866 O   0  0  0  0  0  0  0  0  0  0  0  0
  2  1  1  0
  3  5  1  0
  3  2  1  0
  3  4  1  1
  5  6  2  0
  7  5  1  0
  7  8  1  0
  8  9  1  6
  9 10  1  0
 10 14  1  0
 11 10  2  0
 12 15  1  0
 12  8  1  0
 13 12  2  0
 16 17  1  6
 16 19  1  0
 16 15  1  0
 18 17  1  0
 19 20  1  0
 21 19  2  0
M  END
$$$$
