FPG.pdb
     RDKit          3D

 23 24  0  0  1  0  0  0  0  0999 V2000
   24.4986  -20.6370   -8.3683 N   0  0  0  0  0  0  0  0  0  0  0  0
   25.6134  -20.1692   -9.1926 C   0  0  1  0  0  0  0  0  0  0  0  0
   26.8977  -20.8228   -8.7091 C   0  0  0  0  0  0  0  0  0  0  0  0
   27.2824  -20.3707   -7.3695 C   0  0  0  0  0  0  0  0  0  0  0  0
   27.0582  -19.0589   -7.0088 C   0  0  0  0  0  0  0  0  0  0  0  0
   27.3855  -18.5418   -5.7725 C   0  0  0  0  0  0  0  0  0  0  0  0
   27.9712  -19.4180   -4.8664 C   0  0  0  0  0  0  0  0  0  0  0  0
   28.1968  -20.7326   -5.2257 C   0  0  0  0  0  0  0  0  0  0  0  0
   27.8670  -21.2418   -6.4625 C   0  0  0  0  0  0  0  0  0  0  0  0
   25.3295  -20.4353  -10.6168 C   0  0  0  0  0  0  0  0  0  0  0  0
   24.2136  -21.0114  -10.8540 O   0  0  0  0  0  0  0  0  0  0  0  0
   26.1680  -20.1111  -11.7079 N   0  0  0  0  0  0  0  0  0  0  0  0
   27.4916  -19.4920  -11.4923 C   0  0  0  0  0  0  0  0  0  0  0  0
   28.1044  -19.2603  -12.8223 C   0  0  0  0  0  0  0  0  0  0  0  0
   27.0039  -19.4472  -13.8086 C   0  0  0  0  0  0  0  0  0  0  0  0
   25.9641  -20.3090  -13.1134 C   0  0  1  0  0  0  0  0  0  0  0  0
   26.0839  -21.7309  -13.5155 C   0  0  0  0  0  0  0  0  0  0  0  0
   27.2172  -22.2720  -13.5040 O   0  0  0  0  0  0  0  0  0  0  0  0
   24.9769  -22.5163  -13.9148 N   0  0  0  0  0  0  0  0  0  0  0  0
   25.0510  -23.9442  -14.1240 C   0  0  0  0  0  0  0  0  0  0  0  0
   25.4085  -24.2021  -15.5306 C   0  0  0  0  0  0  0  0  0  0  0  0
   26.6095  -24.7930  -15.8746 O   0  0  0  0  0  0  0  0  0  0  0  0
   24.6079  -23.8795  -16.4350 O   0  0  0  0  0  0  0  0  0  0  0  0
  2 10  1  0
  2  1  1  1
  3  2  1  0
  4  3  1  0
  5  4  2  0
  6  5  1  0
  7  6  2  0
  7  8  1  0
  8  9  2  0
  9  4  1  0
 10 12  1  0
 11 10  2  0
 12 13  1  0
 12 16  1  0
 13 14  1  0
 14 15  1  0
 16 15  1  0
 16 17  1  1
 17 19  1  0
 18 17  2  0
 20 19  1  0
 21 20  1  0
 22 21  1  0
 23 21  2  0
M  END
$$$$
