FPG.pdb
     RDKit          3D

 23 24  0  0  1  0  0  0  0  0999 V2000
   26.7549  -19.3622   -8.9387 N   0  0  0  0  0  0  0  0  0  0  0  0
   27.5618  -19.4035   -7.7187 C   0  0  1  0  0  0  0  0  0  0  0  0
   27.0220  -18.3823   -6.7308 C   0  0  0  0  0  0  0  0  0  0  0  0
   27.8184  -18.3209   -5.5024 C   0  0  0  0  0  0  0  0  0  0  0  0
   29.0303  -17.6634   -5.5152 C   0  0  0  0  0  0  0  0  0  0  0  0
   29.8491  -17.5527   -4.4105 C   0  0  0  0  0  0  0  0  0  0  0  0
   29.3971  -18.1477   -3.2384 C   0  0  0  0  0  0  0  0  0  0  0  0
   28.1832  -18.8069   -3.2235 C   0  0  0  0  0  0  0  0  0  0  0  0
   27.3710  -18.9131   -4.3310 C   0  0  0  0  0  0  0  0  0  0  0  0
   27.5819  -20.7771   -7.1778 C   0  0  0  0  0  0  0  0  0  0  0  0
   26.4839  -21.4228   -7.2830 O   0  0  0  0  0  0  0  0  0  0  0  0
   28.6872  -21.4177   -6.5724 N   0  0  0  0  0  0  0  0  0  0  0  0
   29.9719  -20.7110   -6.3940 C   0  0  0  0  0  0  0  0  0  0  0  0
   30.9219  -21.6540   -5.7563 C   0  0  0  0  0  0  0  0  0  0  0  0
   30.2859  -22.9967   -5.8627 C   0  0  0  0  0  0  0  0  0  0  0  0
   28.7980  -22.7403   -6.0295 C   0  0  1  0  0  0  0  0  0  0  0  0
   28.0754  -22.8948   -4.7443 C   0  0  0  0  0  0  0  0  0  0  0  0
   28.1485  -21.9754   -3.8918 O   0  0  0  0  0  0  0  0  0  0  0  0
   27.3005  -24.0352   -4.4264 N   0  0  0  0  0  0  0  0  0  0  0  0
   27.6434  -25.3722   -4.8543 C   0  0  0  0  0  0  0  0  0  0  0  0
   26.4031  -26.1480   -5.0342 C   0  0  0  0  0  0  0  0  0  0  0  0
   25.3931  -25.7129   -5.8711 O   0  0  0  0  0  0  0  0  0  0  0  0
   26.2594  -27.2252   -4.4162 O   0  0  0  0  0  0  0  0  0  0  0  0
  2 10  1  0
  2  1  1  6
  3  2  1  0
  4  3  1  0
  5  4  2  0
  6  5  1  0
  7  6  2  0
  7  8  1  0
  8  9  2  0
  9  4  1  0
 10 12  1  0
 11 10  2  0
 12 13  1  0
 12 16  1  0
 13 14  1  0
 14 15  1  0
 16 15  1  0
 16 17  1  1
 17 19  1  0
 18 17  2  0
 20 19  1  0
 21 20  1  0
 22 21  1  0
 23 21  2  0
M  END
$$$$
