FPG.pdb
     RDKit          3D

 23 24  0  0  1  0  0  0  0  0999 V2000
   16.7896  -20.5831    2.1887 N   0  0  0  0  0  0  0  0  0  0  0  0
   17.5166  -19.5592    2.9397 C   0  0  1  0  0  0  0  0  0  0  0  0
   16.7432  -18.2522    2.8753 C   0  0  0  0  0  0  0  0  0  0  0  0
   17.6218  -17.0937    2.6940 C   0  0  0  0  0  0  0  0  0  0  0  0
   17.3243  -15.9125    3.3400 C   0  0  0  0  0  0  0  0  0  0  0  0
   18.0902  -14.7704    3.2311 C   0  0  0  0  0  0  0  0  0  0  0  0
   19.2150  -14.8502    2.4185 C   0  0  0  0  0  0  0  0  0  0  0  0
   19.5149  -16.0327    1.7704 C   0  0  0  0  0  0  0  0  0  0  0  0
   18.7450  -17.1693    1.8841 C   0  0  0  0  0  0  0  0  0  0  0  0
   17.7527  -20.0241    4.3210 C   0  0  0  0  0  0  0  0  0  0  0  0
   16.7799  -20.6537    4.8603 O   0  0  0  0  0  0  0  0  0  0  0  0
   18.9354  -19.8362    5.0724 N   0  0  0  0  0  0  0  0  0  0  0  0
   20.1176  -19.1795    4.4784 C   0  0  0  0  0  0  0  0  0  0  0  0
   21.1859  -19.1562    5.5062 C   0  0  0  0  0  0  0  0  0  0  0  0
   20.7303  -20.0840    6.5788 C   0  0  0  0  0  0  0  0  0  0  0  0
   19.2209  -20.1759    6.4359 C   0  0  1  0  0  0  0  0  0  0  0  0
   18.5312  -19.2898    7.4040 C   0  0  0  0  0  0  0  0  0  0  0  0
   18.0949  -18.1806    7.0082 O   0  0  0  0  0  0  0  0  0  0  0  0
   18.3377  -19.6332    8.7629 N   0  0  0  0  0  0  0  0  0  0  0  0
   17.0365  -19.8762    9.3426 C   0  0  0  0  0  0  0  0  0  0  0  0
   16.3781  -18.5819    9.5958 C   0  0  0  0  0  0  0  0  0  0  0  0
   15.3727  -18.1092    8.7738 O   0  0  0  0  0  0  0  0  0  0  0  0
   16.7361  -17.8943   10.5766 O   0  0  0  0  0  0  0  0  0  0  0  0
  2 10  1  0
  2  1  1  6
  3  2  1  0
  4  3  1  0
  5  4  2  0
  6  5  1  0
  7  6  2  0
  7  8  1  0
  8  9  2  0
  9  4  1  0
 10 12  1  0
 11 10  2  0
 12 13  1  0
 12 16  1  0
 13 14  1  0
 14 15  1  0
 16 15  1  0
 16 17  1  1
 17 19  1  0
 18 17  2  0
 20 19  1  0
 21 20  1  0
 22 21  1  0
 23 21  2  0
M  END
$$$$
