FPG.pdb
     RDKit          3D

 23 24  0  0  1  0  0  0  0  0999 V2000
   15.4310  -27.5493   -3.6349 N   0  0  0  0  0  0  0  0  0  0  0  0
   16.7697  -27.9753   -3.2257 C   0  0  1  0  0  0  0  0  0  0  0  0
   17.6324  -26.7461   -2.9906 C   0  0  0  0  0  0  0  0  0  0  0  0
   17.8461  -25.9731   -4.2168 C   0  0  0  0  0  0  0  0  0  0  0  0
   16.9764  -24.9503   -4.5310 C   0  0  0  0  0  0  0  0  0  0  0  0
   17.0959  -24.1684   -5.6612 C   0  0  0  0  0  0  0  0  0  0  0  0
   18.1615  -24.4545   -6.5064 C   0  0  0  0  0  0  0  0  0  0  0  0
   19.0340  -25.4788   -6.1936 C   0  0  0  0  0  0  0  0  0  0  0  0
   18.9081  -26.2554   -5.0628 C   0  0  0  0  0  0  0  0  0  0  0  0
   16.6764  -28.8516   -2.0412 C   0  0  0  0  0  0  0  0  0  0  0  0
   16.0582  -28.3538   -1.0395 O   0  0  0  0  0  0  0  0  0  0  0  0
   17.1989  -30.1606   -1.9303 N   0  0  0  0  0  0  0  0  0  0  0  0
   17.9667  -30.7692   -3.0356 C   0  0  0  0  0  0  0  0  0  0  0  0
   18.3510  -32.1391   -2.6185 C   0  0  0  0  0  0  0  0  0  0  0  0
   17.5320  -32.4345   -1.4099 C   0  0  0  0  0  0  0  0  0  0  0  0
   17.1354  -31.0852   -0.8361 C   0  0  1  0  0  0  0  0  0  0  0  0
   18.0147  -30.6982    0.2931 C   0  0  0  0  0  0  0  0  0  0  0  0
   18.9935  -29.9436    0.0699 O   0  0  0  0  0  0  0  0  0  0  0  0
   17.8054  -31.1396    1.6210 N   0  0  0  0  0  0  0  0  0  0  0  0
   18.6326  -30.7305    2.7330 C   0  0  0  0  0  0  0  0  0  0  0  0
   18.1389  -31.3823    3.9595 C   0  0  0  0  0  0  0  0  0  0  0  0
   16.9639  -32.1097    3.9689 O   0  0  0  0  0  0  0  0  0  0  0  0
   18.7971  -31.2758    5.0170 O   0  0  0  0  0  0  0  0  0  0  0  0
  2 10  1  0
  2  1  1  1
  3  2  1  0
  4  3  1  0
  5  4  2  0
  6  5  1  0
  7  6  2  0
  7  8  1  0
  8  9  2  0
  9  4  1  0
 10 12  1  0
 11 10  2  0
 12 13  1  0
 12 16  1  0
 13 14  1  0
 14 15  1  0
 16 15  1  0
 16 17  1  1
 17 19  1  0
 18 17  2  0
 20 19  1  0
 21 20  1  0
 22 21  1  0
 23 21  2  0
M  END
$$$$
