FPG.pdb
     RDKit          3D

 23 24  0  0  1  0  0  0  0  0999 V2000
   24.7943  -11.1826  -17.9501 N   0  0  0  0  0  0  0  0  0  0  0  0
   24.6282  -10.2974  -16.7968 C   0  0  1  0  0  0  0  0  0  0  0  0
   25.7605   -9.2834  -16.7812 C   0  0  0  0  0  0  0  0  0  0  0  0
   27.0778   -9.9184  -16.8723 C   0  0  0  0  0  0  0  0  0  0  0  0
   27.4390  -10.8626  -15.9347 C   0  0  0  0  0  0  0  0  0  0  0  0
   28.6553  -11.5136  -15.9381 C   0  0  0  0  0  0  0  0  0  0  0  0
   29.5398  -11.1752  -16.9553 C   0  0  0  0  0  0  0  0  0  0  0  0
   29.1800  -10.2294  -17.8957 C   0  0  0  0  0  0  0  0  0  0  0  0
   27.9633   -9.5834  -17.8857 C   0  0  0  0  0  0  0  0  0  0  0  0
   23.2916   -9.6715  -16.8342 C   0  0  0  0  0  0  0  0  0  0  0  0
   22.8225   -9.4521  -18.0027 O   0  0  0  0  0  0  0  0  0  0  0  0
   22.5105   -9.3081  -15.7133 N   0  0  0  0  0  0  0  0  0  0  0  0
   23.0200   -9.4926  -14.3392 C   0  0  0  0  0  0  0  0  0  0  0  0
   21.9647   -9.0398  -13.4012 C   0  0  0  0  0  0  0  0  0  0  0  0
   20.7310   -8.8988  -14.2239 C   0  0  0  0  0  0  0  0  0  0  0  0
   21.2042   -8.7194  -15.6560 C   0  0  1  0  0  0  0  0  0  0  0  0
   21.2014   -7.2906  -16.0515 C   0  0  0  0  0  0  0  0  0  0  0  0
   22.1854   -6.5733  -15.7441 O   0  0  0  0  0  0  0  0  0  0  0  0
   20.1374   -6.6887  -16.7640 N   0  0  0  0  0  0  0  0  0  0  0  0
   20.1993   -5.3483  -17.3002 C   0  0  0  0  0  0  0  0  0  0  0  0
   19.2813   -4.4857  -16.5347 C   0  0  0  0  0  0  0  0  0  0  0  0
   19.7270   -3.3462  -15.8921 O   0  0  0  0  0  0  0  0  0  0  0  0
   18.0709   -4.7903  -16.4639 O   0  0  0  0  0  0  0  0  0  0  0  0
  2 10  1  0
  2  1  1  6
  3  2  1  0
  4  3  1  0
  5  4  2  0
  6  5  1  0
  7  6  2  0
  7  8  1  0
  8  9  2  0
  9  4  1  0
 10 12  1  0
 11 10  2  0
 12 13  1  0
 12 16  1  0
 13 14  1  0
 14 15  1  0
 16 15  1  0
 16 17  1  1
 17 19  1  0
 18 17  2  0
 20 19  1  0
 21 20  1  0
 22 21  1  0
 23 21  2  0
M  END
$$$$
