FPG.pdb
     RDKit          3D

 23 24  0  0  1  0  0  0  0  0999 V2000
   22.4266  -34.4328  -12.6055 N   0  0  0  0  0  0  0  0  0  0  0  0
   23.5172  -33.5636  -12.1627 C   0  0  1  0  0  0  0  0  0  0  0  0
   23.1932  -32.1275  -12.5408 C   0  0  0  0  0  0  0  0  0  0  0  0
   23.1473  -31.9306  -13.9920 C   0  0  0  0  0  0  0  0  0  0  0  0
   21.9276  -31.7631  -14.6128 C   0  0  0  0  0  0  0  0  0  0  0  0
   21.7838  -31.5717  -15.9714 C   0  0  0  0  0  0  0  0  0  0  0  0
   22.9519  -31.5520  -16.7244 C   0  0  0  0  0  0  0  0  0  0  0  0
   24.1749  -31.7196  -16.1044 C   0  0  0  0  0  0  0  0  0  0  0  0
   24.3104  -31.9103  -14.7469 C   0  0  0  0  0  0  0  0  0  0  0  0
   23.7447  -33.7434  -10.7150 C   0  0  0  0  0  0  0  0  0  0  0  0
   22.7141  -33.5873   -9.9755 O   0  0  0  0  0  0  0  0  0  0  0  0
   24.9754  -34.0675  -10.0993 N   0  0  0  0  0  0  0  0  0  0  0  0
   26.2242  -34.1358  -10.8850 C   0  0  0  0  0  0  0  0  0  0  0  0
   27.3194  -34.5164   -9.9609 C   0  0  0  0  0  0  0  0  0  0  0  0
   26.6489  -34.9808   -8.7146 C   0  0  0  0  0  0  0  0  0  0  0  0
   25.2686  -34.3469   -8.7238 C   0  0  1  0  0  0  0  0  0  0  0  0
   25.2243  -33.1353   -7.8706 C   0  0  0  0  0  0  0  0  0  0  0  0
   25.2104  -32.0058   -8.4196 O   0  0  0  0  0  0  0  0  0  0  0  0
   25.1965  -33.1870   -6.4569 N   0  0  0  0  0  0  0  0  0  0  0  0
   25.1154  -32.0110   -5.6211 C   0  0  0  0  0  0  0  0  0  0  0  0
   25.0934  -32.4309   -4.2083 C   0  0  0  0  0  0  0  0  0  0  0  0
   26.1232  -32.1127   -3.3434 O   0  0  0  0  0  0  0  0  0  0  0  0
   24.1212  -33.0902   -3.7804 O   0  0  0  0  0  0  0  0  0  0  0  0
  2 10  1  0
  2  1  1  1
  3  2  1  0
  4  3  1  0
  5  4  2  0
  6  5  1  0
  7  6  2  0
  7  8  1  0
  8  9  2  0
  9  4  1  0
 10 12  1  0
 11 10  2  0
 12 13  1  0
 12 16  1  0
 13 14  1  0
 14 15  1  0
 16 15  1  0
 16 17  1  1
 17 19  1  0
 18 17  2  0
 20 19  1  0
 21 20  1  0
 22 21  1  0
 23 21  2  0
M  END
$$$$
