FPG.pdb
     RDKit          3D

 23 24  0  0  1  0  0  0  0  0999 V2000
   26.7538  -20.8037  -17.2877 N   0  0  0  0  0  0  0  0  0  0  0  0
   26.8537  -20.0943  -16.0119 C   0  0  1  0  0  0  0  0  0  0  0  0
   26.3887  -18.6598  -16.2029 C   0  0  0  0  0  0  0  0  0  0  0  0
   27.2669  -17.9047  -17.1004 C   0  0  0  0  0  0  0  0  0  0  0  0
   26.7534  -17.3879  -18.2710 C   0  0  0  0  0  0  0  0  0  0  0  0
   27.5007  -16.6646  -19.1773 C   0  0  0  0  0  0  0  0  0  0  0  0
   28.8396  -16.4651  -18.8616 C   0  0  0  0  0  0  0  0  0  0  0  0
   29.3561  -16.9820  -17.6894 C   0  0  0  0  0  0  0  0  0  0  0  0
   28.6033  -17.7034  -16.7891 C   0  0  0  0  0  0  0  0  0  0  0  0
   26.0895  -20.8170  -14.9757 C   0  0  0  0  0  0  0  0  0  0  0  0
   24.9997  -21.3531  -15.3737 O   0  0  0  0  0  0  0  0  0  0  0  0
   26.4573  -20.9613  -13.6183 N   0  0  0  0  0  0  0  0  0  0  0  0
   27.7754  -20.5026  -13.1346 C   0  0  0  0  0  0  0  0  0  0  0  0
   27.8590  -20.8135  -11.6873 C   0  0  0  0  0  0  0  0  0  0  0  0
   26.7249  -21.7385  -11.4100 C   0  0  0  0  0  0  0  0  0  0  0  0
   25.7130  -21.4998  -12.5174 C   0  0  1  0  0  0  0  0  0  0  0  0
   24.6223  -20.6014  -12.0687 C   0  0  0  0  0  0  0  0  0  0  0  0
   24.7933  -19.3589  -12.1336 O   0  0  0  0  0  0  0  0  0  0  0  0
   23.3877  -21.0767  -11.5669 N   0  0  0  0  0  0  0  0  0  0  0  0
   22.5036  -21.9372  -12.3193 C   0  0  0  0  0  0  0  0  0  0  0  0
   21.5657  -21.1006  -13.0895 C   0  0  0  0  0  0  0  0  0  0  0  0
   21.0752  -19.9114  -12.5843 O   0  0  0  0  0  0  0  0  0  0  0  0
   21.2043  -21.4737  -14.2267 O   0  0  0  0  0  0  0  0  0  0  0  0
  2 10  1  0
  2  1  1  6
  3  2  1  0
  4  3  1  0
  5  4  2  0
  6  5  1  0
  7  6  2  0
  7  8  1  0
  8  9  2  0
  9  4  1  0
 10 12  1  0
 11 10  2  0
 12 13  1  0
 12 16  1  0
 13 14  1  0
 14 15  1  0
 16 15  1  0
 16 17  1  1
 17 19  1  0
 18 17  2  0
 20 19  1  0
 21 20  1  0
 22 21  1  0
 23 21  2  0
M  END
$$$$
