FPG.pdb
     RDKit          3D

 23 24  0  0  1  0  0  0  0  0999 V2000
   23.2539  -20.5029  -13.1618 N   0  0  0  0  0  0  0  0  0  0  0  0
   24.7104  -20.5426  -13.0272 C   0  0  1  0  0  0  0  0  0  0  0  0
   25.0908  -21.6585  -12.0678 C   0  0  0  0  0  0  0  0  0  0  0  0
   24.9963  -21.2436  -10.6657 C   0  0  0  0  0  0  0  0  0  0  0  0
   26.1202  -20.7668  -10.0249 C   0  0  0  0  0  0  0  0  0  0  0  0
   26.1295  -20.3531   -8.7090 C   0  0  0  0  0  0  0  0  0  0  0  0
   24.9240  -20.4350   -8.0221 C   0  0  0  0  0  0  0  0  0  0  0  0
   23.7967  -20.9124   -8.6621 C   0  0  0  0  0  0  0  0  0  0  0  0
   23.7953  -21.3237   -9.9768 C   0  0  0  0  0  0  0  0  0  0  0  0
   25.3327  -20.6870  -14.3582 C   0  0  0  0  0  0  0  0  0  0  0  0
   24.6286  -21.3054  -15.2273 O   0  0  0  0  0  0  0  0  0  0  0  0
   26.6072  -20.2076  -14.7382 N   0  0  0  0  0  0  0  0  0  0  0  0
   27.4691  -19.4926  -13.7750 C   0  0  0  0  0  0  0  0  0  0  0  0
   28.7139  -19.1068  -14.4821 C   0  0  0  0  0  0  0  0  0  0  0  0
   28.4329  -19.3139  -15.9301 C   0  0  0  0  0  0  0  0  0  0  0  0
   27.2920  -20.3146  -15.9935 C   0  0  1  0  0  0  0  0  0  0  0  0
   27.7894  -21.6855  -16.2602 C   0  0  0  0  0  0  0  0  0  0  0  0
   28.1688  -22.3927  -15.2942 O   0  0  0  0  0  0  0  0  0  0  0  0
   27.8589  -22.2427  -17.5590 N   0  0  0  0  0  0  0  0  0  0  0  0
   27.8469  -23.6649  -17.8141 C   0  0  0  0  0  0  0  0  0  0  0  0
   26.4998  -24.0567  -18.2665 C   0  0  0  0  0  0  0  0  0  0  0  0
   25.6766  -24.8468  -17.4867 O   0  0  0  0  0  0  0  0  0  0  0  0
   26.0904  -23.6661  -19.3813 O   0  0  0  0  0  0  0  0  0  0  0  0
  2 10  1  0
  2  1  1  6
  3  2  1  0
  4  3  1  0
  5  4  2  0
  6  5  1  0
  7  6  2  0
  7  8  1  0
  8  9  2  0
  9  4  1  0
 10 12  1  0
 11 10  2  0
 12 13  1  0
 12 16  1  0
 13 14  1  0
 14 15  1  0
 16 15  1  0
 16 17  1  1
 17 19  1  0
 18 17  2  0
 20 19  1  0
 21 20  1  0
 22 21  1  0
 23 21  2  0
M  END
$$$$
