FPG.pdb
     RDKit          3D

 23 24  0  0  1  0  0  0  0  0999 V2000
   28.9727  -27.5736  -16.0677 N   0  0  0  0  0  0  0  0  0  0  0  0
   28.1947  -26.9770  -17.1539 C   0  0  1  0  0  0  0  0  0  0  0  0
   26.7140  -27.1634  -16.8655 C   0  0  0  0  0  0  0  0  0  0  0  0
   26.2457  -28.5095  -17.2057 C   0  0  0  0  0  0  0  0  0  0  0  0
   26.3801  -29.5250  -16.2828 C   0  0  0  0  0  0  0  0  0  0  0  0
   25.9697  -30.8220  -16.5114 C   0  0  0  0  0  0  0  0  0  0  0  0
   25.3941  -31.0838  -17.7492 C   0  0  0  0  0  0  0  0  0  0  0  0
   25.2586  -30.0679  -18.6754 C   0  0  0  0  0  0  0  0  0  0  0  0
   25.6709  -28.7749  -18.4396 C   0  0  0  0  0  0  0  0  0  0  0  0
   28.5769  -25.5612  -17.3247 C   0  0  0  0  0  0  0  0  0  0  0  0
   28.7680  -24.9113  -16.2409 O   0  0  0  0  0  0  0  0  0  0  0  0
   28.7460  -24.8868  -18.5557 N   0  0  0  0  0  0  0  0  0  0  0  0
   28.5597  -25.5911  -19.8406 C   0  0  0  0  0  0  0  0  0  0  0  0
   28.8279  -24.6221  -20.9303 C   0  0  0  0  0  0  0  0  0  0  0  0
   29.4806  -23.4539  -20.2760 C   0  0  0  0  0  0  0  0  0  0  0  0
   29.0736  -23.5149  -18.8139 C   0  0  1  0  0  0  0  0  0  0  0  0
   27.9486  -22.5930  -18.5269 C   0  0  0  0  0  0  0  0  0  0  0  0
   26.8153  -23.0755  -18.2815 O   0  0  0  0  0  0  0  0  0  0  0  0
   28.0878  -21.1850  -18.5151 N   0  0  0  0  0  0  0  0  0  0  0  0
   28.2875  -20.4173  -17.3073 C   0  0  0  0  0  0  0  0  0  0  0  0
   28.2922  -18.9834  -17.6491 C   0  0  0  0  0  0  0  0  0  0  0  0
   27.1432  -18.2190  -17.5756 O   0  0  0  0  0  0  0  0  0  0  0  0
   29.3594  -18.4443  -18.0141 O   0  0  0  0  0  0  0  0  0  0  0  0
  2 10  1  0
  2  1  1  1
  3  2  1  0
  4  3  1  0
  5  4  2  0
  6  5  1  0
  7  6  2  0
  7  8  1  0
  8  9  2  0
  9  4  1  0
 10 12  1  0
 11 10  2  0
 12 13  1  0
 12 16  1  0
 13 14  1  0
 14 15  1  0
 16 15  1  0
 16 17  1  6
 17 19  1  0
 18 17  2  0
 20 19  1  0
 21 20  1  0
 22 21  1  0
 23 21  2  0
M  END
$$$$
