FPG.pdb
     RDKit          3D

 23 24  0  0  1  0  0  0  0  0999 V2000
   25.2174  -19.2766   -8.3077 N   0  0  0  0  0  0  0  0  0  0  0  0
   26.3637  -19.7946   -9.0551 C   0  0  1  0  0  0  0  0  0  0  0  0
   26.9499  -20.9809   -8.3071 C   0  0  0  0  0  0  0  0  0  0  0  0
   27.5657  -20.5890   -7.0366 C   0  0  0  0  0  0  0  0  0  0  0  0
   28.8570  -20.1058   -7.0323 C   0  0  0  0  0  0  0  0  0  0  0  0
   29.5198  -19.7123   -5.8882 C   0  0  0  0  0  0  0  0  0  0  0  0
   28.8182  -19.8221   -4.6934 C   0  0  0  0  0  0  0  0  0  0  0  0
   27.5244  -20.3059   -4.6954 C   0  0  0  0  0  0  0  0  0  0  0  0
   26.8691  -20.6970   -5.8423 C   0  0  0  0  0  0  0  0  0  0  0  0
   25.9542  -20.1255  -10.4344 C   0  0  0  0  0  0  0  0  0  0  0  0
   24.7107  -20.3760  -10.5909 O   0  0  0  0  0  0  0  0  0  0  0  0
   26.8026  -20.1834  -11.5639 N   0  0  0  0  0  0  0  0  0  0  0  0
   28.2717  -20.1579  -11.4137 C   0  0  0  0  0  0  0  0  0  0  0  0
   28.8658  -20.2103  -12.7711 C   0  0  0  0  0  0  0  0  0  0  0  0
   27.7423  -19.9403  -13.7110 C   0  0  0  0  0  0  0  0  0  0  0  0
   26.4733  -20.2944  -12.9551 C   0  0  1  0  0  0  0  0  0  0  0  0
   25.9841  -21.6448  -13.3225 C   0  0  0  0  0  0  0  0  0  0  0  0
   26.3398  -22.6294  -12.6286 O   0  0  0  0  0  0  0  0  0  0  0  0
   25.1292  -21.8830  -14.4245 N   0  0  0  0  0  0  0  0  0  0  0  0
   24.0484  -20.9989  -14.7962 C   0  0  0  0  0  0  0  0  0  0  0  0
   22.7952  -21.5043  -14.2072 C   0  0  0  0  0  0  0  0  0  0  0  0
   22.7984  -22.3265  -13.0964 O   0  0  0  0  0  0  0  0  0  0  0  0
   21.7027  -21.1827  -14.7231 O   0  0  0  0  0  0  0  0  0  0  0  0
  2 10  1  0
  2  1  1  1
  3  2  1  0
  4  3  1  0
  5  4  2  0
  6  5  1  0
  7  6  2  0
  7  8  1  0
  8  9  2  0
  9  4  1  0
 10 12  1  0
 11 10  2  0
 12 13  1  0
 12 16  1  0
 13 14  1  0
 14 15  1  0
 16 15  1  0
 16 17  1  1
 17 19  1  0
 18 17  2  0
 20 19  1  0
 21 20  1  0
 22 21  1  0
 23 21  2  0
M  END
$$$$
