FPG.pdb
     RDKit          3D

 23 24  0  0  1  0  0  0  0  0999 V2000
   26.1413  -20.4338  -16.2458 N   0  0  0  0  0  0  0  0  0  0  0  0
   26.5551  -19.9541  -14.9268 C   0  0  1  0  0  0  0  0  0  0  0  0
   26.4448  -18.4385  -14.8920 C   0  0  0  0  0  0  0  0  0  0  0  0
   27.3765  -17.7910  -15.8192 C   0  0  0  0  0  0  0  0  0  0  0  0
   26.8791  -17.0150  -16.8447 C   0  0  0  0  0  0  0  0  0  0  0  0
   27.6760  -16.3668  -17.7654 C   0  0  0  0  0  0  0  0  0  0  0  0
   29.0493  -16.5263  -17.6220 C   0  0  0  0  0  0  0  0  0  0  0  0
   29.5497  -17.3033  -16.5953 C   0  0  0  0  0  0  0  0  0  0  0  0
   28.7473  -17.9476  -15.6795 C   0  0  0  0  0  0  0  0  0  0  0  0
   25.7536  -20.6166  -13.8788 C   0  0  0  0  0  0  0  0  0  0  0  0
   24.5773  -20.9709  -14.2313 O   0  0  0  0  0  0  0  0  0  0  0  0
   26.1719  -20.8849  -12.5552 N   0  0  0  0  0  0  0  0  0  0  0  0
   27.5815  -20.7059  -12.1521 C   0  0  0  0  0  0  0  0  0  0  0  0
   27.6951  -21.0872  -10.7238 C   0  0  0  0  0  0  0  0  0  0  0  0
   26.4239  -21.7904  -10.3945 C   0  0  0  0  0  0  0  0  0  0  0  0
   25.4089  -21.3174  -11.4208 C   0  0  1  0  0  0  0  0  0  0  0  0
   24.5424  -20.2475  -10.8710 C   0  0  0  0  0  0  0  0  0  0  0  0
   24.9282  -19.0547  -10.9460 O   0  0  0  0  0  0  0  0  0  0  0  0
   23.2918  -20.5041  -10.2609 N   0  0  0  0  0  0  0  0  0  0  0  0
   22.3077  -21.4049  -10.8160 C   0  0  0  0  0  0  0  0  0  0  0  0
   21.4037  -20.6407  -11.6945 C   0  0  0  0  0  0  0  0  0  0  0  0
   21.8403  -20.1060  -12.8917 O   0  0  0  0  0  0  0  0  0  0  0  0
   20.2139  -20.4714  -11.3503 O   0  0  0  0  0  0  0  0  0  0  0  0
  2 10  1  0
  2  1  1  6
  3  2  1  0
  4  3  1  0
  5  4  2  0
  6  5  1  0
  7  6  2  0
  7  8  1  0
  8  9  2  0
  9  4  1  0
 10 12  1  0
 11 10  2  0
 12 13  1  0
 12 16  1  0
 13 14  1  0
 14 15  1  0
 16 15  1  0
 16 17  1  1
 17 19  1  0
 18 17  2  0
 20 19  1  0
 21 20  1  0
 22 21  1  0
 23 21  2  0
M  END
$$$$
