FPG.pdb
     RDKit          3D

 23 24  0  0  1  0  0  0  0  0999 V2000
   25.4574  -18.8491   -8.2120 N   0  0  0  0  0  0  0  0  0  0  0  0
   26.5363  -19.6305   -8.8174 C   0  0  1  0  0  0  0  0  0  0  0  0
   26.8669  -20.8062   -7.9126 C   0  0  0  0  0  0  0  0  0  0  0  0
   27.5528  -20.3896   -6.6867 C   0  0  0  0  0  0  0  0  0  0  0  0
   26.8318  -20.2647   -5.5181 C   0  0  0  0  0  0  0  0  0  0  0  0
   27.3887  -19.8794   -4.3163 C   0  0  0  0  0  0  0  0  0  0  0  0
   28.7524  -19.6104   -4.3198 C   0  0  0  0  0  0  0  0  0  0  0  0
   29.4767  -19.7349   -5.4895 C   0  0  0  0  0  0  0  0  0  0  0  0
   28.9133  -20.1204   -6.6860 C   0  0  0  0  0  0  0  0  0  0  0  0
   26.1522  -20.0413  -10.1825 C   0  0  0  0  0  0  0  0  0  0  0  0
   24.8965  -20.1727  -10.3815 O   0  0  0  0  0  0  0  0  0  0  0  0
   27.0364  -20.2914  -11.2569 N   0  0  0  0  0  0  0  0  0  0  0  0
   28.4918  -20.4070  -11.0330 C   0  0  0  0  0  0  0  0  0  0  0  0
   29.1339  -20.6458  -12.3478 C   0  0  0  0  0  0  0  0  0  0  0  0
   28.0877  -20.3462  -13.3650 C   0  0  0  0  0  0  0  0  0  0  0  0
   26.7565  -20.4941  -12.6485 C   0  0  1  0  0  0  0  0  0  0  0  0
   26.1385  -21.8134  -12.9228 C   0  0  0  0  0  0  0  0  0  0  0  0
   26.4244  -22.7846  -12.1796 O   0  0  0  0  0  0  0  0  0  0  0  0
   25.2348  -22.0362  -13.9885 N   0  0  0  0  0  0  0  0  0  0  0  0
   24.2005  -21.0983  -14.3613 C   0  0  0  0  0  0  0  0  0  0  0  0
   22.9039  -21.5984  -13.8700 C   0  0  0  0  0  0  0  0  0  0  0  0
   22.2484  -22.6429  -14.4940 O   0  0  0  0  0  0  0  0  0  0  0  0
   22.3832  -21.0667  -12.8655 O   0  0  0  0  0  0  0  0  0  0  0  0
  2 10  1  0
  2  1  1  1
  3  2  1  0
  4  3  1  0
  5  4  2  0
  6  5  1  0
  7  6  2  0
  7  8  1  0
  8  9  2  0
  9  4  1  0
 10 12  1  0
 11 10  2  0
 12 13  1  0
 12 16  1  0
 13 14  1  0
 14 15  1  0
 16 15  1  0
 16 17  1  1
 17 19  1  0
 18 17  2  0
 20 19  1  0
 21 20  1  0
 22 21  1  0
 23 21  2  0
M  END
$$$$
