FPG.pdb
     RDKit          3D

 23 24  0  0  1  0  0  0  0  0999 V2000
   26.7952  -18.0262   -7.8855 N   0  0  0  0  0  0  0  0  0  0  0  0
   27.2696  -19.3461   -8.3026 C   0  0  1  0  0  0  0  0  0  0  0  0
   27.0041  -20.3448   -7.1880 C   0  0  0  0  0  0  0  0  0  0  0  0
   27.8796  -20.1348   -6.0320 C   0  0  0  0  0  0  0  0  0  0  0  0
   27.8057  -21.0015   -4.9621 C   0  0  0  0  0  0  0  0  0  0  0  0
   28.5876  -20.8853   -3.8317 C   0  0  0  0  0  0  0  0  0  0  0  0
   29.4874  -19.8263   -3.8032 C   0  0  0  0  0  0  0  0  0  0  0  0
   29.5631  -18.9568   -4.8739 C   0  0  0  0  0  0  0  0  0  0  0  0
   28.7786  -19.0794   -5.9996 C   0  0  0  0  0  0  0  0  0  0  0  0
   26.6366  -19.7248   -9.5815 C   0  0  0  0  0  0  0  0  0  0  0  0
   25.4207  -19.3565   -9.7205 O   0  0  0  0  0  0  0  0  0  0  0  0
   27.2509  -20.4395  -10.6353 N   0  0  0  0  0  0  0  0  0  0  0  0
   28.5765  -21.0663  -10.4579 C   0  0  0  0  0  0  0  0  0  0  0  0
   28.9463  -21.7124  -11.7401 C   0  0  0  0  0  0  0  0  0  0  0  0
   27.9846  -21.1837  -12.7473 C   0  0  0  0  0  0  0  0  0  0  0  0
   26.7740  -20.7134  -11.9596 C   0  0  1  0  0  0  0  0  0  0  0  0
   25.6892  -21.7238  -11.9808 C   0  0  0  0  0  0  0  0  0  0  0  0
   25.7528  -22.6999  -11.1932 O   0  0  0  0  0  0  0  0  0  0  0  0
   24.5762  -21.6435  -12.8507 N   0  0  0  0  0  0  0  0  0  0  0  0
   23.3214  -22.3140  -12.5978 C   0  0  0  0  0  0  0  0  0  0  0  0
   22.2388  -21.5658  -13.2619 C   0  0  0  0  0  0  0  0  0  0  0  0
   21.7653  -20.3725  -12.7502 O   0  0  0  0  0  0  0  0  0  0  0  0
   21.7359  -22.0194  -14.3127 O   0  0  0  0  0  0  0  0  0  0  0  0
  2 10  1  0
  2  1  1  1
  3  2  1  0
  4  3  1  0
  5  4  2  0
  6  5  1  0
  7  6  2  0
  7  8  1  0
  8  9  2  0
  9  4  1  0
 10 12  1  0
 11 10  2  0
 12 13  1  0
 12 16  1  0
 13 14  1  0
 14 15  1  0
 16 15  1  0
 16 17  1  1
 17 19  1  0
 18 17  2  0
 20 19  1  0
 21 20  1  0
 22 21  1  0
 23 21  2  0
M  END
$$$$
