FRY.pdb
     RDKit          3D

 35 36  0  0  1  0  0  0  0  0999 V2000
    6.2891  -16.8284   26.3109 N   0  0  0  0  0  0  0  0  0  0  0  0
    6.4332  -16.5611   24.9032 C   0  0  1  0  0  0  0  0  0  0  0  0
    5.9256  -15.1967   24.5230 C   0  0  0  0  0  0  0  0  0  0  0  0
    6.6001  -14.1736   25.3619 C   0  0  0  0  0  0  0  0  0  0  0  0
    6.0357  -13.8149   26.5700 C   0  0  0  0  0  0  0  0  0  0  0  0
    6.6142  -12.8682   27.3938 C   0  0  0  0  0  0  0  0  0  0  0  0
    7.7851  -12.2444   27.0337 C   0  0  0  0  0  0  0  0  0  0  0  0
    8.3660  -12.5958   25.8176 C   0  0  0  0  0  0  0  0  0  0  0  0
    7.7750  -13.5449   25.0046 C   0  0  0  0  0  0  0  0  0  0  0  0
    7.8128  -16.8198   24.4912 C   0  0  0  0  0  0  0  0  0  0  0  0
    8.6723  -17.1265   25.3544 O   0  0  0  0  0  0  0  0  0  0  0  0
   13.9571  -17.3311   20.6314 N   0  0  0  0  0  0  0  0  0  0  0  0
   13.5350  -18.1699   19.5731 C   0  0  0  0  0  0  0  0  0  0  0  0
   14.1611  -18.0670   18.4417 N   0  0  0  0  0  0  0  0  0  0  0  0
   12.4631  -19.0986   19.7274 N   0  0  0  0  0  0  0  0  0  0  0  0
   11.1700  -18.7008   20.1959 C   0  0  0  0  0  0  0  0  0  0  0  0
   11.1361  -17.2966   20.7263 C   0  0  0  0  0  0  0  0  0  0  0  0
    9.7568  -16.9110   21.1825 C   0  0  0  0  0  0  0  0  0  0  0  0
    9.5677  -17.0765   22.6719 C   0  0  2  0  0  0  0  0  0  0  0  0
    8.2565  -16.7442   23.1340 N   0  0  0  0  0  0  0  0  0  0  0  0
   10.6151  -16.2050   23.3125 C   0  0  0  0  0  0  0  0  0  0  0  0
   10.5139  -14.9723   23.1099 O   0  0  0  0  0  0  0  0  0  0  0  0
   13.8417  -18.5700   17.6029 O   0  0  0  0  0  0  0  0  0  0  0  0
    9.9847  -16.7798   30.3532 C   0  0  0  0  0  0  0  0  0  0  0  0
   10.5066  -16.2836   29.1587 C   0  0  0  0  0  0  0  0  0  0  0  0
   11.8013  -16.5509   28.7878 C   0  0  0  0  0  0  0  0  0  0  0  0
   12.3325  -16.0702   27.6145 C   0  0  0  0  0  0  0  0  0  0  0  0
   11.5443  -15.3048   26.7980 C   0  0  0  0  0  0  0  0  0  0  0  0
   12.0914  -14.7701   25.5413 C   0  0  1  0  0  0  0  0  0  0  0  0
   12.7029  -15.8467   24.6993 N   0  0  0  0  0  0  0  0  0  0  0  0
   11.6607  -16.6926   24.0970 C   0  0  0  0  0  0  0  0  0  0  0  0
   13.7209  -16.6633   25.3719 O   0  0  0  0  0  0  0  0  0  0  0  0
   13.5503  -18.0630   25.3654 C   0  0  0  0  0  0  0  0  0  0  0  0
   10.2388  -15.0243   27.1524 C   0  0  0  0  0  0  0  0  0  0  0  0
    9.7221  -15.5102   28.3252 O   0  0  0  0  0  0  0  0  0  0  0  0
  2  1  1  1
  2  3  1  0
  3  4  1  0
  4  5  2  0
  5  6  1  0
  7  6  2  0
  8  7  1  0
  9  4  1  0
  9  8  2  0
 10  2  1  0
 11 10  2  0
 13 12  1  0
 14 13  2  0
 15 13  1  0
 16 17  1  0
 16 15  1  0
 17 18  1  0
 19 18  1  6
 19 20  1  0
 19 21  1  0
 20 10  1  0
 21 30  1  0
 22 21  2  0
 23 24  1  0
 24 25  2  0
 24 34  1  0
 25 26  1  0
 26 27  2  0
 27 28  1  0
 29 28  1  6
 29 31  1  0
 30 29  1  0
 31 35  2  0
 31 32  1  0
 33 27  1  0
 34 33  2  0
M  END
$$$$
