FRY.pdb
     RDKit          3D

 35 36  0  0  1  0  0  0  0  0999 V2000
    7.3068  -17.0952   17.5327 N   0  0  0  0  0  0  0  0  0  0  0  0
    7.7222  -16.1575   18.5437 C   0  0  1  0  0  0  0  0  0  0  0  0
    6.6130  -15.2278   18.9550 C   0  0  0  0  0  0  0  0  0  0  0  0
    7.1081  -14.3176   20.0189 C   0  0  0  0  0  0  0  0  0  0  0  0
    6.8646  -14.6322   21.3411 C   0  0  0  0  0  0  0  0  0  0  0  0
    7.2976  -13.8246   22.3755 C   0  0  0  0  0  0  0  0  0  0  0  0
    7.9937  -12.6672   22.1195 C   0  0  0  0  0  0  0  0  0  0  0  0
    8.2467  -12.3366   20.7904 C   0  0  0  0  0  0  0  0  0  0  0  0
    7.8069  -13.1550   19.7667 C   0  0  0  0  0  0  0  0  0  0  0  0
    8.3414  -16.8759   19.6575 C   0  0  0  0  0  0  0  0  0  0  0  0
    7.6741  -17.7273   20.2959 O   0  0  0  0  0  0  0  0  0  0  0  0
   14.0830  -19.9925   17.5788 N   0  0  0  0  0  0  0  0  0  0  0  0
   12.8111  -20.6038   17.4765 C   0  0  0  0  0  0  0  0  0  0  0  0
   12.3607  -20.8529   16.2859 N   0  0  0  0  0  0  0  0  0  0  0  0
   12.0401  -20.9395   18.6290 N   0  0  0  0  0  0  0  0  0  0  0  0
   12.0318  -20.1243   19.8059 C   0  0  0  0  0  0  0  0  0  0  0  0
   11.7492  -18.6769   19.5242 C   0  0  0  0  0  0  0  0  0  0  0  0
   11.7300  -17.8613   20.7866 C   0  0  0  0  0  0  0  0  0  0  0  0
   10.3482  -17.3626   21.1378 C   0  0  2  0  0  0  0  0  0  0  0  0
    9.6923  -16.6655   20.0761 N   0  0  0  0  0  0  0  0  0  0  0  0
   10.5301  -16.4822   22.3455 C   0  0  0  0  0  0  0  0  0  0  0  0
   11.1693  -15.4188   22.1683 O   0  0  0  0  0  0  0  0  0  0  0  0
   11.4119  -21.2213   16.1363 O   0  0  0  0  0  0  0  0  0  0  0  0
   10.5024  -13.7785   30.7558 C   0  0  0  0  0  0  0  0  0  0  0  0
   10.1751  -14.2993   29.5041 C   0  0  0  0  0  0  0  0  0  0  0  0
    9.9013  -13.4716   28.4434 C   0  0  0  0  0  0  0  0  0  0  0  0
    9.5768  -13.9671   27.2029 C   0  0  0  0  0  0  0  0  0  0  0  0
    9.5267  -15.3236   27.0265 C   0  0  0  0  0  0  0  0  0  0  0  0
    9.1725  -15.8798   25.7113 C   0  0  1  0  0  0  0  0  0  0  0  0
   10.3751  -16.0387   24.8334 N   0  0  0  0  0  0  0  0  0  0  0  0
   10.0346  -16.7873   23.6135 C   0  0  0  0  0  0  0  0  0  0  0  0
   11.5567  -16.6110   25.4905 O   0  0  0  0  0  0  0  0  0  0  0  0
   11.6581  -18.0160   25.5528 C   0  0  0  0  0  0  0  0  0  0  0  0
    9.7989  -16.1742   28.0805 C   0  0  0  0  0  0  0  0  0  0  0  0
   10.1212  -15.6664   29.3122 O   0  0  0  0  0  0  0  0  0  0  0  0
  2  1  1  6
  2  3  1  0
  3  4  1  0
  4  5  2  0
  5  6  1  0
  7  6  2  0
  8  7  1  0
  9  4  1  0
  9  8  2  0
 10  2  1  0
 11 10  2  0
 13 12  1  0
 14 13  2  0
 15 13  1  0
 16 17  1  0
 16 15  1  0
 17 18  1  0
 19 18  1  6
 19 20  1  0
 19 21  1  0
 20 10  1  0
 21 30  1  0
 22 21  2  0
 23 24  1  0
 24 25  2  0
 24 34  1  0
 25 26  1  0
 26 27  2  0
 27 28  1  0
 29 28  1  6
 29 31  1  0
 30 29  1  0
 31 35  2  0
 31 32  1  0
 33 27  1  0
 34 33  2  0
M  END
$$$$
