FRY.pdb
     RDKit          3D

 35 36  0  0  1  0  0  0  0  0999 V2000
    6.6849  -14.2130   23.8480 N   0  0  0  0  0  0  0  0  0  0  0  0
    7.6149  -14.7041   24.8319 C   0  0  1  0  0  0  0  0  0  0  0  0
    6.9972  -14.8181   26.1991 C   0  0  0  0  0  0  0  0  0  0  0  0
    6.6142  -13.4649   26.6761 C   0  0  0  0  0  0  0  0  0  0  0  0
    5.3722  -12.9607   26.3445 C   0  0  0  0  0  0  0  0  0  0  0  0
    4.9590  -11.7080   26.7565 C   0  0  0  0  0  0  0  0  0  0  0  0
    5.7804  -10.9125   27.5193 C   0  0  0  0  0  0  0  0  0  0  0  0
    7.0365  -11.4076   27.8615 C   0  0  0  0  0  0  0  0  0  0  0  0
    7.4352  -12.6629   27.4417 C   0  0  0  0  0  0  0  0  0  0  0  0
    8.2328  -15.9401   24.3521 C   0  0  0  0  0  0  0  0  0  0  0  0
    8.2054  -16.9691   25.0720 O   0  0  0  0  0  0  0  0  0  0  0  0
   10.3943  -13.8333   18.6862 N   0  0  0  0  0  0  0  0  0  0  0  0
    9.0518  -14.1353   18.3574 C   0  0  0  0  0  0  0  0  0  0  0  0
    8.3078  -13.1638   17.9272 N   0  0  0  0  0  0  0  0  0  0  0  0
    8.5205  -15.4529   18.4888 N   0  0  0  0  0  0  0  0  0  0  0  0
    8.6133  -16.1951   19.7095 C   0  0  0  0  0  0  0  0  0  0  0  0
    9.7707  -15.7798   20.5711 C   0  0  0  0  0  0  0  0  0  0  0  0
   10.3532  -16.9483   21.3156 C   0  0  0  0  0  0  0  0  0  0  0  0
    9.7692  -17.1079   22.6994 C   0  0  2  0  0  0  0  0  0  0  0  0
    8.8825  -16.0546   23.0834 N   0  0  0  0  0  0  0  0  0  0  0  0
   10.9499  -17.2008   23.6291 C   0  0  0  0  0  0  0  0  0  0  0  0
   11.4640  -16.1150   23.9865 O   0  0  0  0  0  0  0  0  0  0  0  0
    7.3452  -13.3270   17.6026 O   0  0  0  0  0  0  0  0  0  0  0  0
   10.5757  -13.4236   28.6148 C   0  0  0  0  0  0  0  0  0  0  0  0
   10.8065  -14.6994   28.1009 C   0  0  0  0  0  0  0  0  0  0  0  0
   12.0476  -15.0617   27.6386 C   0  0  0  0  0  0  0  0  0  0  0  0
   12.2933  -16.3144   27.1287 C   0  0  0  0  0  0  0  0  0  0  0  0
   11.2688  -17.2210   27.0832 C   0  0  0  0  0  0  0  0  0  0  0  0
   11.5028  -18.5655   26.5334 C   0  0  2  0  0  0  0  0  0  0  0  0
   12.3341  -18.5195   25.2889 N   0  0  0  0  0  0  0  0  0  0  0  0
   11.4808  -18.4034   24.0960 C   0  0  0  0  0  0  0  0  0  0  0  0
   13.2993  -19.6160   25.1418 O   0  0  0  0  0  0  0  0  0  0  0  0
   13.0089  -20.6254   24.2010 C   0  0  0  0  0  0  0  0  0  0  0  0
   10.0125  -16.8770   27.5435 C   0  0  0  0  0  0  0  0  0  0  0  0
    9.7816  -15.6243   28.0495 O   0  0  0  0  0  0  0  0  0  0  0  0
  2  1  1  6
  2  3  1  0
  3  4  1  0
  4  5  2  0
  5  6  1  0
  7  6  2  0
  8  7  1  0
  9  4  1  0
  9  8  2  0
 10  2  1  0
 11 10  2  0
 13 12  1  0
 14 13  2  0
 15 13  1  0
 16 17  1  0
 16 15  1  0
 17 18  1  0
 19 18  1  6
 19 20  1  0
 19 21  1  0
 20 10  1  0
 21 30  1  0
 22 21  2  0
 23 24  1  0
 24 25  2  0
 24 34  1  0
 25 26  1  0
 26 27  2  0
 27 28  1  0
 29 28  1  1
 29 31  1  0
 30 29  1  0
 31 35  2  0
 31 32  1  0
 33 27  1  0
 34 33  2  0
M  END
$$$$
