FRY.pdb
     RDKit          3D

 35 36  0  0  1  0  0  0  0  0999 V2000
    6.9604  -17.5563   19.4086 N   0  0  0  0  0  0  0  0  0  0  0  0
    7.8768  -16.8015   20.2238 C   0  0  1  0  0  0  0  0  0  0  0  0
    7.1711  -15.8389   21.1400 C   0  0  0  0  0  0  0  0  0  0  0  0
    7.3160  -14.4609   20.6055 C   0  0  0  0  0  0  0  0  0  0  0  0
    8.2707  -13.6248   21.1495 C   0  0  0  0  0  0  0  0  0  0  0  0
    8.4523  -12.3318   20.6968 C   0  0  0  0  0  0  0  0  0  0  0  0
    7.6791  -11.8288   19.6775 C   0  0  0  0  0  0  0  0  0  0  0  0
    6.7117  -12.6607   19.1190 C   0  0  0  0  0  0  0  0  0  0  0  0
    6.5423  -13.9518   19.5829 C   0  0  0  0  0  0  0  0  0  0  0  0
    8.7929  -17.7133   20.9088 C   0  0  0  0  0  0  0  0  0  0  0  0
    8.3343  -18.6999   21.5366 O   0  0  0  0  0  0  0  0  0  0  0  0
   12.9868  -20.8771   17.7744 N   0  0  0  0  0  0  0  0  0  0  0  0
   13.6292  -19.7779   17.1573 C   0  0  0  0  0  0  0  0  0  0  0  0
   13.7827  -19.8198   15.8700 N   0  0  0  0  0  0  0  0  0  0  0  0
   14.0967  -18.6582   17.9078 N   0  0  0  0  0  0  0  0  0  0  0  0
   13.9927  -18.5984   19.3344 C   0  0  0  0  0  0  0  0  0  0  0  0
   12.5865  -18.3951   19.8197 C   0  0  0  0  0  0  0  0  0  0  0  0
   12.5269  -18.3018   21.3187 C   0  0  0  0  0  0  0  0  0  0  0  0
   11.1164  -18.1526   21.8382 C   0  0  2  0  0  0  0  0  0  0  0  0
   10.2133  -17.5490   20.9090 N   0  0  0  0  0  0  0  0  0  0  0  0
   11.2333  -17.3400   23.1002 C   0  0  0  0  0  0  0  0  0  0  0  0
   11.5814  -16.1439   22.9622 O   0  0  0  0  0  0  0  0  0  0  0  0
   14.2594  -19.0637   15.3606 O   0  0  0  0  0  0  0  0  0  0  0  0
   11.0218  -14.3252   31.2957 C   0  0  0  0  0  0  0  0  0  0  0  0
   10.7677  -14.9052   30.0530 C   0  0  0  0  0  0  0  0  0  0  0  0
   10.5399  -16.2541   29.9356 C   0  0  0  0  0  0  0  0  0  0  0  0
   10.2880  -16.8429   28.7193 C   0  0  0  0  0  0  0  0  0  0  0  0
   10.2649  -16.0578   27.5981 C   0  0  0  0  0  0  0  0  0  0  0  0
   10.0071  -16.6646   26.2829 C   0  0  1  0  0  0  0  0  0  0  0  0
   11.2725  -17.1161   25.6219 N   0  0  0  0  0  0  0  0  0  0  0  0
   10.9796  -17.8428   24.3766 C   0  0  0  0  0  0  0  0  0  0  0  0
   12.1848  -17.8842   26.4782 O   0  0  0  0  0  0  0  0  0  0  0  0
   13.1793  -17.1744   27.1821 C   0  0  0  0  0  0  0  0  0  0  0  0
   10.4913  -14.6984   27.6942 C   0  0  0  0  0  0  0  0  0  0  0  0
   10.7412  -14.1245   28.9136 O   0  0  0  0  0  0  0  0  0  0  0  0
  2  1  1  1
  2  3  1  0
  3  4  1  0
  4  5  2  0
  5  6  1  0
  7  6  2  0
  8  7  1  0
  9  4  1  0
  9  8  2  0
 10  2  1  0
 11 10  2  0
 13 12  1  0
 14 13  2  0
 15 13  1  0
 16 17  1  0
 16 15  1  0
 17 18  1  0
 19 18  1  6
 19 20  1  0
 19 21  1  0
 20 10  1  0
 21 30  1  0
 22 21  2  0
 23 24  1  0
 24 25  2  0
 24 34  1  0
 25 26  1  0
 26 27  2  0
 27 28  1  0
 29 28  1  6
 29 31  1  0
 30 29  1  0
 31 35  2  0
 31 32  1  0
 33 27  1  0
 34 33  2  0
M  END
$$$$
