FRY.pdb
     RDKit          3D

 35 36  0  0  1  0  0  0  0  0999 V2000
    5.8328  -16.5288   25.7528 N   0  0  0  0  0  0  0  0  0  0  0  0
    6.8137  -15.6588   25.1572 C   0  0  1  0  0  0  0  0  0  0  0  0
    7.4067  -14.6968   26.1506 C   0  0  0  0  0  0  0  0  0  0  0  0
    6.7887  -13.3594   25.9638 C   0  0  0  0  0  0  0  0  0  0  0  0
    7.3817  -12.4582   25.1019 C   0  0  0  0  0  0  0  0  0  0  0  0
    6.8559  -11.1983   24.8877 C   0  0  0  0  0  0  0  0  0  0  0  0
    5.7111  -10.7954   25.5333 C   0  0  0  0  0  0  0  0  0  0  0  0
    5.1019  -11.6937   26.4060 C   0  0  0  0  0  0  0  0  0  0  0  0
    5.6402  -12.9506   26.6096 C   0  0  0  0  0  0  0  0  0  0  0  0
    7.8050  -16.4556   24.4344 C   0  0  0  0  0  0  0  0  0  0  0  0
    8.2760  -17.4922   24.9649 O   0  0  0  0  0  0  0  0  0  0  0  0
   11.4687  -17.9676   17.3034 N   0  0  0  0  0  0  0  0  0  0  0  0
   11.7418  -19.1173   18.0814 C   0  0  0  0  0  0  0  0  0  0  0  0
   12.1479  -20.1796   17.4576 N   0  0  0  0  0  0  0  0  0  0  0  0
   11.5814  -19.1250   19.4990 N   0  0  0  0  0  0  0  0  0  0  0  0
   10.4949  -18.4557   20.1479 C   0  0  0  0  0  0  0  0  0  0  0  0
   10.7527  -16.9956   20.3848 C   0  0  0  0  0  0  0  0  0  0  0  0
    9.5765  -16.3252   21.0377 C   0  0  0  0  0  0  0  0  0  0  0  0
    9.4264  -16.6988   22.4935 C   0  0  2  0  0  0  0  0  0  0  0  0
    8.2839  -16.1213   23.1292 N   0  0  0  0  0  0  0  0  0  0  0  0
   10.7056  -16.2630   23.1575 C   0  0  0  0  0  0  0  0  0  0  0  0
   11.0224  -15.0583   23.0190 O   0  0  0  0  0  0  0  0  0  0  0  0
   12.3190  -21.0632   17.9559 O   0  0  0  0  0  0  0  0  0  0  0  0
    9.3913  -15.1686   29.5497 C   0  0  0  0  0  0  0  0  0  0  0  0
   10.2897  -15.6975   28.6232 C   0  0  0  0  0  0  0  0  0  0  0  0
   10.1300  -16.9687   28.1296 C   0  0  0  0  0  0  0  0  0  0  0  0
   11.0055  -17.5064   27.2163 C   0  0  0  0  0  0  0  0  0  0  0  0
   12.0635  -16.7489   26.7912 C   0  0  0  0  0  0  0  0  0  0  0  0
   13.0205  -17.3041   25.8214 C   0  0  2  0  0  0  0  0  0  0  0  0
   12.8305  -16.7189   24.4563 N   0  0  0  0  0  0  0  0  0  0  0  0
   11.5283  -17.1133   23.8967 C   0  0  0  0  0  0  0  0  0  0  0  0
   13.9161  -16.9874   23.5051 O   0  0  0  0  0  0  0  0  0  0  0  0
   15.2268  -16.6344   23.8870 C   0  0  0  0  0  0  0  0  0  0  0  0
   12.2424  -15.4674   27.2751 C   0  0  0  0  0  0  0  0  0  0  0  0
   11.3615  -14.9438   28.1855 O   0  0  0  0  0  0  0  0  0  0  0  0
  2  1  1  1
  2  3  1  0
  3  4  1  0
  4  5  2  0
  5  6  1  0
  7  6  2  0
  8  7  1  0
  9  4  1  0
  9  8  2  0
 10  2  1  0
 11 10  2  0
 13 12  1  0
 14 13  2  0
 15 13  1  0
 16 17  1  0
 16 15  1  0
 17 18  1  0
 19 18  1  6
 19 20  1  0
 19 21  1  0
 20 10  1  0
 21 30  1  0
 22 21  2  0
 23 24  1  0
 24 25  2  0
 24 34  1  0
 25 26  1  0
 26 27  2  0
 27 28  1  0
 29 28  1  1
 29 31  1  0
 30 29  1  0
 31 35  2  0
 31 32  1  0
 33 27  1  0
 34 33  2  0
M  END
$$$$
