FRY.pdb
     RDKit          3D

 35 36  0  0  1  0  0  0  0  0999 V2000
    7.5109  -16.4868   27.1527 N   0  0  0  0  0  0  0  0  0  0  0  0
    6.6650  -16.9966   26.1045 C   0  0  1  0  0  0  0  0  0  0  0  0
    5.4114  -16.1827   25.9315 C   0  0  0  0  0  0  0  0  0  0  0  0
    5.7508  -14.7394   26.0170 C   0  0  0  0  0  0  0  0  0  0  0  0
    5.1195  -13.8482   25.1722 C   0  0  0  0  0  0  0  0  0  0  0  0
    5.3938  -12.4941   25.2023 C   0  0  0  0  0  0  0  0  0  0  0  0
    6.3154  -11.9831   26.0850 C   0  0  0  0  0  0  0  0  0  0  0  0
    6.9605  -12.8702   26.9434 C   0  0  0  0  0  0  0  0  0  0  0  0
    6.6750  -14.2221   26.9011 C   0  0  0  0  0  0  0  0  0  0  0  0
    7.4444  -17.1588   24.8773 C   0  0  0  0  0  0  0  0  0  0  0  0
    8.0150  -18.2531   24.6432 O   0  0  0  0  0  0  0  0  0  0  0  0
    8.3088  -12.8480   16.1980 N   0  0  0  0  0  0  0  0  0  0  0  0
    8.6542  -12.9094   17.5687 C   0  0  0  0  0  0  0  0  0  0  0  0
    8.7671  -11.7866   18.2083 N   0  0  0  0  0  0  0  0  0  0  0  0
    8.8740  -14.1505   18.2369 N   0  0  0  0  0  0  0  0  0  0  0  0
    7.9656  -14.6598   19.2193 C   0  0  0  0  0  0  0  0  0  0  0  0
    8.6474  -15.4099   20.3269 C   0  0  0  0  0  0  0  0  0  0  0  0
    7.9607  -15.1928   21.6462 C   0  0  0  0  0  0  0  0  0  0  0  0
    8.3048  -16.2542   22.6644 C   0  0  2  0  0  0  0  0  0  0  0  0
    7.6021  -16.1247   23.9024 N   0  0  0  0  0  0  0  0  0  0  0  0
    9.7940  -16.1571   22.8633 C   0  0  0  0  0  0  0  0  0  0  0  0
   10.4511  -15.6626   21.9174 O   0  0  0  0  0  0  0  0  0  0  0  0
    8.9731  -11.7603   19.2160 O   0  0  0  0  0  0  0  0  0  0  0  0
   10.1642  -16.1444   30.2941 C   0  0  0  0  0  0  0  0  0  0  0  0
   10.6782  -15.9387   29.0139 C   0  0  0  0  0  0  0  0  0  0  0  0
   10.3200  -14.8372   28.2767 C   0  0  0  0  0  0  0  0  0  0  0  0
   10.8164  -14.6183   27.0136 C   0  0  0  0  0  0  0  0  0  0  0  0
   11.6911  -15.5269   26.4817 C   0  0  0  0  0  0  0  0  0  0  0  0
   12.2295  -15.3212   25.1280 C   0  0  1  0  0  0  0  0  0  0  0  0
   11.9076  -16.4689   24.2219 N   0  0  0  0  0  0  0  0  0  0  0  0
   10.4550  -16.5797   24.0169 C   0  0  0  0  0  0  0  0  0  0  0  0
   12.4837  -17.7594   24.6197 O   0  0  0  0  0  0  0  0  0  0  0  0
   13.8860  -17.8437   24.7410 C   0  0  0  0  0  0  0  0  0  0  0  0
   12.0647  -16.6419   27.2066 C   0  0  0  0  0  0  0  0  0  0  0  0
   11.5621  -16.8476   28.4651 O   0  0  0  0  0  0  0  0  0  0  0  0
  2  1  1  1
  2  3  1  0
  3  4  1  0
  4  5  2  0
  5  6  1  0
  7  6  2  0
  8  7  1  0
  9  4  1  0
  9  8  2  0
 10  2  1  0
 11 10  2  0
 13 12  1  0
 14 13  2  0
 15 13  1  0
 16 17  1  0
 16 15  1  0
 17 18  1  0
 19 18  1  6
 19 20  1  0
 19 21  1  0
 20 10  1  0
 21 30  1  0
 22 21  2  0
 23 24  1  0
 24 25  2  0
 24 34  1  0
 25 26  1  0
 26 27  2  0
 27 28  1  0
 29 28  1  6
 29 31  1  0
 30 29  1  0
 31 35  2  0
 31 32  1  0
 33 27  1  0
 34 33  2  0
M  END
$$$$
