FRY.pdb
     RDKit          3D

 35 36  0  0  1  0  0  0  0  0999 V2000
    6.0116  -18.1220   24.8512 N   0  0  0  0  0  0  0  0  0  0  0  0
    6.4237  -16.7439   24.7792 C   0  0  1  0  0  0  0  0  0  0  0  0
    6.8203  -16.1924   26.1217 C   0  0  0  0  0  0  0  0  0  0  0  0
    6.6863  -14.7135   26.1008 C   0  0  0  0  0  0  0  0  0  0  0  0
    7.8101  -13.9386   25.8928 C   0  0  0  0  0  0  0  0  0  0  0  0
    7.7502  -12.5582   25.8647 C   0  0  0  0  0  0  0  0  0  0  0  0
    6.5555  -11.9027   26.0450 C   0  0  0  0  0  0  0  0  0  0  0  0
    5.4133  -12.6712   26.2562 C   0  0  0  0  0  0  0  0  0  0  0  0
    5.4896  -14.0513   26.2815 C   0  0  0  0  0  0  0  0  0  0  0  0
    7.4470  -16.5890   23.7453 C   0  0  0  0  0  0  0  0  0  0  0  0
    8.3059  -17.4906   23.5807 O   0  0  0  0  0  0  0  0  0  0  0  0
    7.5412  -12.6301   15.8747 N   0  0  0  0  0  0  0  0  0  0  0  0
    7.7596  -13.9829   16.2269 C   0  0  0  0  0  0  0  0  0  0  0  0
    7.4653  -14.8864   15.3440 N   0  0  0  0  0  0  0  0  0  0  0  0
    8.2825  -14.3563   17.5007 N   0  0  0  0  0  0  0  0  0  0  0  0
    8.5381  -13.3967   18.5320 C   0  0  0  0  0  0  0  0  0  0  0  0
    9.1369  -13.9997   19.7698 C   0  0  0  0  0  0  0  0  0  0  0  0
    8.1075  -14.1817   20.8499 C   0  0  0  0  0  0  0  0  0  0  0  0
    8.4648  -15.2867   21.8157 C   0  0  2  0  0  0  0  0  0  0  0  0
    7.5337  -15.4478   22.8882 N   0  0  0  0  0  0  0  0  0  0  0  0
    9.8405  -14.9494   22.3262 C   0  0  0  0  0  0  0  0  0  0  0  0
   10.1559  -13.7364   22.3171 O   0  0  0  0  0  0  0  0  0  0  0  0
    7.6902  -15.8789   15.4949 O   0  0  0  0  0  0  0  0  0  0  0  0
   12.1346  -15.3126   30.4084 C   0  0  0  0  0  0  0  0  0  0  0  0
   11.6431  -15.4269   29.1082 C   0  0  0  0  0  0  0  0  0  0  0  0
   11.3610  -16.6557   28.5644 C   0  0  0  0  0  0  0  0  0  0  0  0
   10.8762  -16.7874   27.2848 C   0  0  0  0  0  0  0  0  0  0  0  0
   10.6711  -15.6592   26.5373 C   0  0  0  0  0  0  0  0  0  0  0  0
   10.1620  -15.7731   25.1617 C   0  0  2  0  0  0  0  0  0  0  0  0
   11.2726  -15.9297   24.1697 N   0  0  0  0  0  0  0  0  0  0  0  0
   10.7515  -15.8967   22.7942 C   0  0  0  0  0  0  0  0  0  0  0  0
   12.1361  -17.0986   24.3782 O   0  0  0  0  0  0  0  0  0  0  0  0
   13.3632  -16.8989   25.0435 C   0  0  0  0  0  0  0  0  0  0  0  0
   10.9483  -14.4131   27.0655 C   0  0  0  0  0  0  0  0  0  0  0  0
   11.4313  -14.2964   28.3429 O   0  0  0  0  0  0  0  0  0  0  0  0
  2  1  1  1
  2  3  1  0
  3  4  1  0
  4  5  2  0
  5  6  1  0
  7  6  2  0
  8  7  1  0
  9  4  1  0
  9  8  2  0
 10  2  1  0
 11 10  2  0
 13 12  1  0
 14 13  2  0
 15 13  1  0
 16 17  1  0
 16 15  1  0
 17 18  1  0
 19 18  1  6
 19 20  1  0
 19 21  1  0
 20 10  1  0
 21 30  1  0
 22 21  2  0
 23 24  1  0
 24 25  2  0
 24 34  1  0
 25 26  1  0
 26 27  2  0
 27 28  1  0
 29 28  1  6
 29 31  1  0
 30 29  1  0
 31 35  2  0
 31 32  1  0
 33 27  1  0
 34 33  2  0
M  END
$$$$
