FRY.pdb
     RDKit          3D

 35 36  0  0  1  0  0  0  0  0999 V2000
    6.9096  -17.4763   27.0412 N   0  0  0  0  0  0  0  0  0  0  0  0
    7.2237  -16.3552   26.1935 C   0  0  1  0  0  0  0  0  0  0  0  0
    8.2193  -15.4198   26.8242 C   0  0  0  0  0  0  0  0  0  0  0  0
    7.6456  -14.0505   26.8635 C   0  0  0  0  0  0  0  0  0  0  0  0
    6.3440  -13.8537   26.4468 C   0  0  0  0  0  0  0  0  0  0  0  0
    5.7549  -12.6037   26.4578 C   0  0  0  0  0  0  0  0  0  0  0  0
    6.4535  -11.5012   26.8892 C   0  0  0  0  0  0  0  0  0  0  0  0
    7.7678  -11.6843   27.3125 C   0  0  0  0  0  0  0  0  0  0  0  0
    8.3429  -12.9412   27.2955 C   0  0  0  0  0  0  0  0  0  0  0  0
    7.6132  -16.8342   24.8673 C   0  0  0  0  0  0  0  0  0  0  0  0
    8.1082  -17.9818   24.7413 O   0  0  0  0  0  0  0  0  0  0  0  0
    9.6280  -12.1540   17.9455 N   0  0  0  0  0  0  0  0  0  0  0  0
    9.1808  -13.4899   18.0758 C   0  0  0  0  0  0  0  0  0  0  0  0
    9.9493  -14.4264   17.6122 N   0  0  0  0  0  0  0  0  0  0  0  0
    7.9343  -13.8121   18.6906 N   0  0  0  0  0  0  0  0  0  0  0  0
    7.4707  -15.1609   18.8151 C   0  0  0  0  0  0  0  0  0  0  0  0
    8.1194  -15.9106   19.9426 C   0  0  0  0  0  0  0  0  0  0  0  0
    7.5648  -15.4931   21.2757 C   0  0  0  0  0  0  0  0  0  0  0  0
    8.0511  -16.3655   22.4088 C   0  0  2  0  0  0  0  0  0  0  0  0
    7.4622  -16.0596   23.6748 N   0  0  0  0  0  0  0  0  0  0  0  0
    9.5464  -16.1923   22.4403 C   0  0  0  0  0  0  0  0  0  0  0  0
    9.9684  -15.0457   22.7198 O   0  0  0  0  0  0  0  0  0  0  0  0
    9.6615  -15.4140   17.6261 O   0  0  0  0  0  0  0  0  0  0  0  0
   13.3791  -13.4063   17.5968 C   0  0  0  0  0  0  0  0  0  0  0  0
   13.1221  -13.9834   18.8402 C   0  0  0  0  0  0  0  0  0  0  0  0
   11.9980  -14.7439   19.0480 C   0  0  0  0  0  0  0  0  0  0  0  0
   11.7285  -15.3201   20.2666 C   0  0  0  0  0  0  0  0  0  0  0  0
   12.6084  -15.1268   21.2972 C   0  0  0  0  0  0  0  0  0  0  0  0
   12.3385  -15.7245   22.6141 C   0  0  2  0  0  0  0  0  0  0  0  0
   11.8902  -17.1483   22.4964 N   0  0  0  0  0  0  0  0  0  0  0  0
   10.4550  -17.2186   22.1804 C   0  0  0  0  0  0  0  0  0  0  0  0
   12.2198  -18.0037   23.6432 O   0  0  0  0  0  0  0  0  0  0  0  0
   11.1543  -18.4875   24.4300 C   0  0  0  0  0  0  0  0  0  0  0  0
   13.7455  -14.3652   21.1093 C   0  0  0  0  0  0  0  0  0  0  0  0
   14.0019  -13.7965   19.8888 O   0  0  0  0  0  0  0  0  0  0  0  0
  2  1  1  1
  2  3  1  0
  3  4  1  0
  4  5  2  0
  5  6  1  0
  7  6  2  0
  8  7  1  0
  9  4  1  0
  9  8  2  0
 10  2  1  0
 11 10  2  0
 13 12  1  0
 14 13  2  0
 15 13  1  0
 16 17  1  0
 16 15  1  0
 17 18  1  0
 19 18  1  6
 19 20  1  0
 19 21  1  0
 20 10  1  0
 21 30  1  0
 22 21  2  0
 23 24  1  0
 24 25  2  0
 24 34  1  0
 25 26  1  0
 26 27  2  0
 27 28  1  0
 29 28  1  6
 29 31  1  0
 30 29  1  0
 31 35  2  0
 31 32  1  0
 33 27  1  0
 34 33  2  0
M  END
$$$$
