FRY.pdb
     RDKit          3D

 35 36  0  0  1  0  0  0  0  0999 V2000
    6.4120  -21.0456   23.6098 N   0  0  0  0  0  0  0  0  0  0  0  0
    6.7796  -19.9044   24.4076 C   0  0  1  0  0  0  0  0  0  0  0  0
    6.9099  -20.2427   25.8679 C   0  0  0  0  0  0  0  0  0  0  0  0
    7.1522  -18.9962   26.6381 C   0  0  0  0  0  0  0  0  0  0  0  0
    6.5312  -17.8285   26.2417 C   0  0  0  0  0  0  0  0  0  0  0  0
    6.7184  -16.6367   26.9158 C   0  0  0  0  0  0  0  0  0  0  0  0
    7.5390  -16.5733   28.0168 C   0  0  0  0  0  0  0  0  0  0  0  0
    8.1726  -17.7435   28.4283 C   0  0  0  0  0  0  0  0  0  0  0  0
    7.9750  -18.9278   27.7434 C   0  0  0  0  0  0  0  0  0  0  0  0
    7.9645  -19.2647   23.8360 C   0  0  0  0  0  0  0  0  0  0  0  0
    9.0330  -19.9165   23.7305 O   0  0  0  0  0  0  0  0  0  0  0  0
    7.6193  -13.1587   18.0018 N   0  0  0  0  0  0  0  0  0  0  0  0
    7.7360  -12.9262   19.3925 C   0  0  0  0  0  0  0  0  0  0  0  0
    7.7724  -11.6928   19.7923 N   0  0  0  0  0  0  0  0  0  0  0  0
    7.8123  -13.9964   20.3329 N   0  0  0  0  0  0  0  0  0  0  0  0
    7.5347  -15.3531   19.9696 C   0  0  0  0  0  0  0  0  0  0  0  0
    7.6015  -16.3044   21.1292 C   0  0  0  0  0  0  0  0  0  0  0  0
    8.8175  -16.0578   21.9775 C   0  0  0  0  0  0  0  0  0  0  0  0
    9.1360  -17.2176   22.8914 C   0  0  2  0  0  0  0  0  0  0  0  0
    7.9842  -17.9103   23.3780 N   0  0  0  0  0  0  0  0  0  0  0  0
    9.9455  -16.6343   24.0190 C   0  0  0  0  0  0  0  0  0  0  0  0
   11.0560  -16.1418   23.7105 O   0  0  0  0  0  0  0  0  0  0  0  0
    7.9255  -11.4524   20.7808 O   0  0  0  0  0  0  0  0  0  0  0  0
    7.2050  -10.9978   24.4608 C   0  0  0  0  0  0  0  0  0  0  0  0
    7.7864  -12.0451   25.1752 C   0  0  0  0  0  0  0  0  0  0  0  0
    7.0114  -12.9806   25.8149 C   0  0  0  0  0  0  0  0  0  0  0  0
    7.5670  -14.0193   26.5236 C   0  0  0  0  0  0  0  0  0  0  0  0
    8.9306  -14.1182   26.5897 C   0  0  0  0  0  0  0  0  0  0  0  0
    9.5506  -15.2149   27.3497 C   0  0  2  0  0  0  0  0  0  0  0  0
   10.3494  -16.1213   26.4652 N   0  0  0  0  0  0  0  0  0  0  0  0
    9.5282  -16.6180   25.3501 C   0  0  0  0  0  0  0  0  0  0  0  0
   11.0278  -17.2265   27.1533 O   0  0  0  0  0  0  0  0  0  0  0  0
   11.8954  -16.9046   28.2173 C   0  0  0  0  0  0  0  0  0  0  0  0
    9.7288  -13.1876   25.9530 C   0  0  0  0  0  0  0  0  0  0  0  0
    9.1613  -12.1570   25.2498 O   0  0  0  0  0  0  0  0  0  0  0  0
  2  1  1  6
  2  3  1  0
  3  4  1  0
  4  5  2  0
  5  6  1  0
  7  6  2  0
  8  7  1  0
  9  4  1  0
  9  8  2  0
 10  2  1  0
 11 10  2  0
 13 12  1  0
 14 13  2  0
 15 13  1  0
 16 17  1  0
 16 15  1  0
 17 18  1  0
 19 18  1  6
 19 20  1  0
 19 21  1  0
 20 10  1  0
 21 30  1  0
 22 21  2  0
 23 24  1  0
 24 25  2  0
 24 34  1  0
 25 26  1  0
 26 27  2  0
 27 28  1  0
 29 28  1  6
 29 31  1  0
 30 29  1  0
 31 35  2  0
 31 32  1  0
 33 27  1  0
 34 33  2  0
M  END
$$$$
