FRY.pdb
     RDKit          3D

 35 36  0  0  1  0  0  0  0  0999 V2000
    6.0200  -16.9392   25.3048 N   0  0  0  0  0  0  0  0  0  0  0  0
    7.0478  -16.1069   24.7348 C   0  0  1  0  0  0  0  0  0  0  0  0
    7.6761  -15.1930   25.7516 C   0  0  0  0  0  0  0  0  0  0  0  0
    6.9504  -13.8974   25.7579 C   0  0  0  0  0  0  0  0  0  0  0  0
    6.0378  -13.6418   26.7621 C   0  0  0  0  0  0  0  0  0  0  0  0
    5.3300  -12.4564   26.8212 C   0  0  0  0  0  0  0  0  0  0  0  0
    5.5130  -11.4803   25.8708 C   0  0  0  0  0  0  0  0  0  0  0  0
    6.4303  -11.7240   24.8514 C   0  0  0  0  0  0  0  0  0  0  0  0
    7.1307  -12.9150   24.8062 C   0  0  0  0  0  0  0  0  0  0  0  0
    8.0069  -16.9375   24.0066 C   0  0  0  0  0  0  0  0  0  0  0  0
    8.3855  -18.0285   24.5007 O   0  0  0  0  0  0  0  0  0  0  0  0
    7.6761  -12.0678   18.6595 N   0  0  0  0  0  0  0  0  0  0  0  0
    7.8445  -13.4541   18.8865 C   0  0  0  0  0  0  0  0  0  0  0  0
    6.8516  -14.0987   19.4170 N   0  0  0  0  0  0  0  0  0  0  0  0
    9.0538  -14.1325   18.5511 N   0  0  0  0  0  0  0  0  0  0  0  0
    9.2091  -15.5454   18.7220 C   0  0  0  0  0  0  0  0  0  0  0  0
    8.8833  -16.0155   20.1103 C   0  0  0  0  0  0  0  0  0  0  0  0
   10.0994  -16.5516   20.8122 C   0  0  0  0  0  0  0  0  0  0  0  0
    9.7969  -17.0467   22.2068 C   0  0  2  0  0  0  0  0  0  0  0  0
    8.5548  -16.5774   22.7359 N   0  0  0  0  0  0  0  0  0  0  0  0
   10.9596  -16.6040   23.0549 C   0  0  0  0  0  0  0  0  0  0  0  0
   11.3846  -15.4421   22.8543 O   0  0  0  0  0  0  0  0  0  0  0  0
    6.8847  -15.1177   19.5550 O   0  0  0  0  0  0  0  0  0  0  0  0
   10.3690  -16.3059   30.5951 C   0  0  0  0  0  0  0  0  0  0  0  0
   10.9134  -16.1508   29.3204 C   0  0  0  0  0  0  0  0  0  0  0  0
   10.3047  -15.3522   28.3840 C   0  0  0  0  0  0  0  0  0  0  0  0
   10.8267  -15.1878   27.1229 C   0  0  0  0  0  0  0  0  0  0  0  0
   11.9851  -15.8405   26.7979 C   0  0  0  0  0  0  0  0  0  0  0  0
   12.5596  -15.6891   25.4519 C   0  0  1  0  0  0  0  0  0  0  0  0
   12.7641  -17.0131   24.7832 N   0  0  0  0  0  0  0  0  0  0  0  0
   11.5662  -17.4039   24.0236 C   0  0  0  0  0  0  0  0  0  0  0  0
   13.2043  -18.0985   25.6683 O   0  0  0  0  0  0  0  0  0  0  0  0
   14.4525  -17.9584   26.3093 C   0  0  0  0  0  0  0  0  0  0  0  0
   12.6138  -16.6485   27.7254 C   0  0  0  0  0  0  0  0  0  0  0  0
   12.0822  -16.8035   28.9793 O   0  0  0  0  0  0  0  0  0  0  0  0
  2  1  1  1
  2  3  1  0
  3  4  1  0
  4  5  2  0
  5  6  1  0
  7  6  2  0
  8  7  1  0
  9  4  1  0
  9  8  2  0
 10  2  1  0
 11 10  2  0
 13 12  1  0
 14 13  2  0
 15 13  1  0
 16 17  1  0
 16 15  1  0
 17 18  1  0
 19 18  1  6
 19 20  1  0
 19 21  1  0
 20 10  1  0
 21 30  1  0
 22 21  2  0
 23 24  1  0
 24 25  2  0
 24 34  1  0
 25 26  1  0
 26 27  2  0
 27 28  1  0
 29 28  1  6
 29 31  1  0
 30 29  1  0
 31 35  2  0
 31 32  1  0
 33 27  1  0
 34 33  2  0
M  END
$$$$
