FRY.pdb
     RDKit          3D

 35 36  0  0  1  0  0  0  0  0999 V2000
    6.1352  -16.7057   25.3346 N   0  0  0  0  0  0  0  0  0  0  0  0
    7.2613  -15.9005   24.9376 C   0  0  1  0  0  0  0  0  0  0  0  0
    7.7493  -15.0090   26.0471 C   0  0  0  0  0  0  0  0  0  0  0  0
    7.0536  -13.6997   25.9632 C   0  0  0  0  0  0  0  0  0  0  0  0
    7.5376  -12.7340   25.1031 C   0  0  0  0  0  0  0  0  0  0  0  0
    6.9355  -11.4961   24.9820 C   0  0  0  0  0  0  0  0  0  0  0  0
    5.8212  -11.1809   25.7228 C   0  0  0  0  0  0  0  0  0  0  0  0
    5.3217  -12.1450   26.5950 C   0  0  0  0  0  0  0  0  0  0  0  0
    5.9353  -13.3789   26.7047 C   0  0  0  0  0  0  0  0  0  0  0  0
    8.2985  -16.7548   24.3594 C   0  0  0  0  0  0  0  0  0  0  0  0
    8.9920  -17.4852   25.1100 O   0  0  0  0  0  0  0  0  0  0  0  0
    9.2974  -13.1137   19.1664 N   0  0  0  0  0  0  0  0  0  0  0  0
    8.2238  -13.6760   18.4365 C   0  0  0  0  0  0  0  0  0  0  0  0
    7.3960  -12.8580   17.8636 N   0  0  0  0  0  0  0  0  0  0  0  0
    8.0436  -15.0869   18.3253 N   0  0  0  0  0  0  0  0  0  0  0  0
    8.9836  -16.0214   18.8664 C   0  0  0  0  0  0  0  0  0  0  0  0
    8.8878  -16.1647   20.3579 C   0  0  0  0  0  0  0  0  0  0  0  0
    9.8459  -17.2001   20.8766 C   0  0  0  0  0  0  0  0  0  0  0  0
    9.7530  -17.3828   22.3732 C   0  0  2  0  0  0  0  0  0  0  0  0
    8.5802  -16.8130   22.9588 N   0  0  0  0  0  0  0  0  0  0  0  0
   11.0056  -16.7648   22.9352 C   0  0  0  0  0  0  0  0  0  0  0  0
   11.6955  -16.0837   22.1408 O   0  0  0  0  0  0  0  0  0  0  0  0
    6.5953  -13.1998   17.3154 O   0  0  0  0  0  0  0  0  0  0  0  0
    9.8709  -16.6548   30.4682 C   0  0  0  0  0  0  0  0  0  0  0  0
   10.4924  -16.2802   29.2771 C   0  0  0  0  0  0  0  0  0  0  0  0
    9.8568  -15.4643   28.3741 C   0  0  0  0  0  0  0  0  0  0  0  0
   10.4537  -15.0850   27.1953 C   0  0  0  0  0  0  0  0  0  0  0  0
   11.7164  -15.5363   26.9199 C   0  0  0  0  0  0  0  0  0  0  0  0
   12.3740  -15.1528   25.6609 C   0  0  1  0  0  0  0  0  0  0  0  0
   12.6646  -16.3437   24.8010 N   0  0  0  0  0  0  0  0  0  0  0  0
   11.4202  -16.9116   24.2592 C   0  0  0  0  0  0  0  0  0  0  0  0
   13.4877  -17.3833   25.4312 O   0  0  0  0  0  0  0  0  0  0  0  0
   14.7932  -17.0338   25.8335 C   0  0  0  0  0  0  0  0  0  0  0  0
   12.3738  -16.3579   27.8150 C   0  0  0  0  0  0  0  0  0  0  0  0
   11.7666  -16.7282   28.9867 O   0  0  0  0  0  0  0  0  0  0  0  0
  2  1  1  1
  2  3  1  0
  3  4  1  0
  4  5  2  0
  5  6  1  0
  7  6  2  0
  8  7  1  0
  9  4  1  0
  9  8  2  0
 10  2  1  0
 11 10  2  0
 13 12  1  0
 14 13  2  0
 15 13  1  0
 16 17  1  0
 16 15  1  0
 17 18  1  0
 19 18  1  6
 19 20  1  0
 19 21  1  0
 20 10  1  0
 21 30  1  0
 22 21  2  0
 23 24  1  0
 24 25  2  0
 24 34  1  0
 25 26  1  0
 26 27  2  0
 27 28  1  0
 29 28  1  6
 29 31  1  0
 30 29  1  0
 31 35  2  0
 31 32  1  0
 33 27  1  0
 34 33  2  0
M  END
$$$$
