FRY.pdb
     RDKit          3D

 35 36  0  0  1  0  0  0  0  0999 V2000
    6.5415  -15.8621   25.5569 N   0  0  0  0  0  0  0  0  0  0  0  0
    7.1552  -15.0830   24.5128 C   0  0  1  0  0  0  0  0  0  0  0  0
    7.8920  -13.8852   25.0478 C   0  0  0  0  0  0  0  0  0  0  0  0
    6.9139  -12.9274   25.6234 C   0  0  0  0  0  0  0  0  0  0  0  0
    6.9373  -12.6754   26.9807 C   0  0  0  0  0  0  0  0  0  0  0  0
    6.0521  -11.7966   27.5756 C   0  0  0  0  0  0  0  0  0  0  0  0
    5.1073  -11.1360   26.8268 C   0  0  0  0  0  0  0  0  0  0  0  0
    5.0715  -11.3804   25.4561 C   0  0  0  0  0  0  0  0  0  0  0  0
    5.9639  -12.2623   24.8759 C   0  0  0  0  0  0  0  0  0  0  0  0
    7.9686  -15.9523   23.6627 C   0  0  0  0  0  0  0  0  0  0  0  0
    8.1008  -17.1655   23.9599 O   0  0  0  0  0  0  0  0  0  0  0  0
    8.1863  -15.0309   15.6300 N   0  0  0  0  0  0  0  0  0  0  0  0
    8.0267  -14.1536   16.7286 C   0  0  0  0  0  0  0  0  0  0  0  0
    8.2159  -12.8880   16.5164 N   0  0  0  0  0  0  0  0  0  0  0  0
    7.6718  -14.6267   18.0269 N   0  0  0  0  0  0  0  0  0  0  0  0
    8.5591  -15.4254   18.8172 C   0  0  0  0  0  0  0  0  0  0  0  0
    9.3730  -14.6230   19.7909 C   0  0  0  0  0  0  0  0  0  0  0  0
   10.2615  -15.5024   20.6255 C   0  0  0  0  0  0  0  0  0  0  0  0
    9.4946  -16.2921   21.6599 C   0  0  2  0  0  0  0  0  0  0  0  0
    8.6397  -15.4973   22.4848 N   0  0  0  0  0  0  0  0  0  0  0  0
   10.5367  -17.0096   22.4761 C   0  0  0  0  0  0  0  0  0  0  0  0
   10.3856  -18.2467   22.6087 O   0  0  0  0  0  0  0  0  0  0  0  0
    8.1688  -12.2018   17.2815 O   0  0  0  0  0  0  0  0  0  0  0  0
   11.0410  -16.0127   30.8167 C   0  0  0  0  0  0  0  0  0  0  0  0
   10.9052  -16.0613   29.4294 C   0  0  0  0  0  0  0  0  0  0  0  0
   10.9642  -14.9172   28.6727 C   0  0  0  0  0  0  0  0  0  0  0  0
   10.8322  -14.9461   27.3047 C   0  0  0  0  0  0  0  0  0  0  0  0
   10.6368  -16.1513   26.6858 C   0  0  0  0  0  0  0  0  0  0  0  0
   10.4830  -16.2087   25.2237 C   0  0  1  0  0  0  0  0  0  0  0  0
   11.8078  -16.2419   24.5268 N   0  0  0  0  0  0  0  0  0  0  0  0
   11.6287  -16.3790   23.0729 C   0  0  0  0  0  0  0  0  0  0  0  0
   12.7572  -17.2386   25.0372 O   0  0  0  0  0  0  0  0  0  0  0  0
   12.4410  -18.6007   24.8559 C   0  0  0  0  0  0  0  0  0  0  0  0
   10.5746  -17.3144   27.4285 C   0  0  0  0  0  0  0  0  0  0  0  0
   10.7078  -17.2709   28.7920 O   0  0  0  0  0  0  0  0  0  0  0  0
  2  1  1  1
  2  3  1  0
  3  4  1  0
  4  5  2  0
  5  6  1  0
  7  6  2  0
  8  7  1  0
  9  4  1  0
  9  8  2  0
 10  2  1  0
 11 10  2  0
 13 12  1  0
 14 13  2  0
 15 13  1  0
 16 17  1  0
 16 15  1  0
 17 18  1  0
 19 18  1  6
 19 20  1  0
 19 21  1  0
 20 10  1  0
 21 30  1  0
 22 21  2  0
 23 24  1  0
 24 25  2  0
 24 34  1  0
 25 26  1  0
 26 27  2  0
 27 28  1  0
 29 28  1  6
 29 31  1  0
 30 29  1  0
 31 35  2  0
 31 32  1  0
 33 27  1  0
 34 33  2  0
M  END
$$$$
