FRY.pdb
     RDKit          3D

 35 36  0  0  1  0  0  0  0  0999 V2000
    7.2857  -16.2636   17.8400 N   0  0  0  0  0  0  0  0  0  0  0  0
    7.7155  -15.5792   19.0321 C   0  0  1  0  0  0  0  0  0  0  0  0
    6.7818  -14.4662   19.4233 C   0  0  0  0  0  0  0  0  0  0  0  0
    7.2394  -13.8732   20.7057 C   0  0  0  0  0  0  0  0  0  0  0  0
    8.1238  -12.8132   20.6796 C   0  0  0  0  0  0  0  0  0  0  0  0
    8.5875  -12.2204   21.8386 C   0  0  0  0  0  0  0  0  0  0  0  0
    8.1788  -12.6716   23.0710 C   0  0  0  0  0  0  0  0  0  0  0  0
    7.2868  -13.7405   23.1131 C   0  0  0  0  0  0  0  0  0  0  0  0
    6.8320  -14.3228   21.9448 C   0  0  0  0  0  0  0  0  0  0  0  0
    7.9627  -16.5517   20.0965 C   0  0  0  0  0  0  0  0  0  0  0  0
    7.0829  -17.4032   20.3773 O   0  0  0  0  0  0  0  0  0  0  0  0
    9.6564  -20.8060   18.0529 N   0  0  0  0  0  0  0  0  0  0  0  0
   10.7115  -20.0447   17.4971 C   0  0  0  0  0  0  0  0  0  0  0  0
   10.6931  -19.8421   16.2160 N   0  0  0  0  0  0  0  0  0  0  0  0
   11.7635  -19.5131   18.3008 N   0  0  0  0  0  0  0  0  0  0  0  0
   11.7896  -19.6677   19.7238 C   0  0  0  0  0  0  0  0  0  0  0  0
   10.4882  -19.3143   20.3840 C   0  0  0  0  0  0  0  0  0  0  0  0
   10.6952  -18.4047   21.5626 C   0  0  0  0  0  0  0  0  0  0  0  0
    9.4810  -17.5593   21.8671 C   0  0  2  0  0  0  0  0  0  0  0  0
    9.1727  -16.5960   20.8570 N   0  0  0  0  0  0  0  0  0  0  0  0
    9.7685  -16.8988   23.1891 C   0  0  0  0  0  0  0  0  0  0  0  0
   10.8090  -16.2025   23.2492 O   0  0  0  0  0  0  0  0  0  0  0  0
   11.4456  -19.3242   15.7428 O   0  0  0  0  0  0  0  0  0  0  0  0
    6.0287  -21.6838   27.2697 C   0  0  0  0  0  0  0  0  0  0  0  0
    6.5469  -20.4015   27.0899 C   0  0  0  0  0  0  0  0  0  0  0  0
    7.4626  -19.8791   27.9694 C   0  0  0  0  0  0  0  0  0  0  0  0
    7.9837  -18.6173   27.8081 C   0  0  0  0  0  0  0  0  0  0  0  0
    7.5747  -17.8660   26.7394 C   0  0  0  0  0  0  0  0  0  0  0  0
    8.1099  -16.5089   26.5491 C   0  0  1  0  0  0  0  0  0  0  0  0
    9.3048  -16.5046   25.6468 N   0  0  0  0  0  0  0  0  0  0  0  0
    8.9544  -17.0230   24.3152 C   0  0  0  0  0  0  0  0  0  0  0  0
   10.4928  -17.1823   26.1804 O   0  0  0  0  0  0  0  0  0  0  0  0
   10.9784  -18.3059   25.4804 C   0  0  0  0  0  0  0  0  0  0  0  0
    6.6544  -18.3728   25.8425 C   0  0  0  0  0  0  0  0  0  0  0  0
    6.1429  -19.6327   26.0155 O   0  0  0  0  0  0  0  0  0  0  0  0
  2  1  1  6
  2  3  1  0
  3  4  1  0
  4  5  2  0
  5  6  1  0
  7  6  2  0
  8  7  1  0
  9  4  1  0
  9  8  2  0
 10  2  1  0
 11 10  2  0
 13 12  1  0
 14 13  2  0
 15 13  1  0
 16 17  1  0
 16 15  1  0
 17 18  1  0
 19 18  1  6
 19 20  1  0
 19 21  1  0
 20 10  1  0
 21 30  1  0
 22 21  2  0
 23 24  1  0
 24 25  2  0
 24 34  1  0
 25 26  1  0
 26 27  2  0
 27 28  1  0
 29 28  1  6
 29 31  1  0
 30 29  1  0
 31 35  2  0
 31 32  1  0
 33 27  1  0
 34 33  2  0
M  END
$$$$
