FRY.pdb
     RDKit          3D

 35 36  0  0  1  0  0  0  0  0999 V2000
    6.1249  -16.7838   25.2788 N   0  0  0  0  0  0  0  0  0  0  0  0
    7.0510  -15.8830   24.6426 C   0  0  1  0  0  0  0  0  0  0  0  0
    7.7558  -14.9927   25.6297 C   0  0  0  0  0  0  0  0  0  0  0  0
    7.0261  -13.7033   25.7320 C   0  0  0  0  0  0  0  0  0  0  0  0
    7.4858  -12.6114   25.0227 C   0  0  0  0  0  0  0  0  0  0  0  0
    6.8516  -11.3849   25.0784 C   0  0  0  0  0  0  0  0  0  0  0  0
    5.7283  -11.2088   25.8510 C   0  0  0  0  0  0  0  0  0  0  0  0
    5.2530  -12.3013   26.5723 C   0  0  0  0  0  0  0  0  0  0  0  0
    5.8986  -13.5219   26.5061 C   0  0  0  0  0  0  0  0  0  0  0  0
    7.9519  -16.6370   23.7710 C   0  0  0  0  0  0  0  0  0  0  0  0
    8.0703  -17.8782   23.9236 O   0  0  0  0  0  0  0  0  0  0  0  0
    7.4504  -13.7472   16.7241 N   0  0  0  0  0  0  0  0  0  0  0  0
    8.3636  -13.6172   17.7969 C   0  0  0  0  0  0  0  0  0  0  0  0
    8.3592  -12.4992   18.4546 N   0  0  0  0  0  0  0  0  0  0  0  0
    9.2623  -14.6659   18.1546 N   0  0  0  0  0  0  0  0  0  0  0  0
    8.8247  -16.0167   18.3377 C   0  0  0  0  0  0  0  0  0  0  0  0
    8.6354  -16.3898   19.7797 C   0  0  0  0  0  0  0  0  0  0  0  0
    9.9025  -16.2107   20.5681 C   0  0  0  0  0  0  0  0  0  0  0  0
    9.7711  -16.6802   21.9978 C   0  0  2  0  0  0  0  0  0  0  0  0
    8.7258  -16.0359   22.7296 N   0  0  0  0  0  0  0  0  0  0  0  0
   11.1162  -16.4376   22.6291 C   0  0  0  0  0  0  0  0  0  0  0  0
   11.7155  -15.3938   22.2792 O   0  0  0  0  0  0  0  0  0  0  0  0
    9.0612  -12.2992   19.1796 O   0  0  0  0  0  0  0  0  0  0  0  0
   10.9788  -15.1499   30.9937 C   0  0  0  0  0  0  0  0  0  0  0  0
   10.8716  -15.4918   29.6458 C   0  0  0  0  0  0  0  0  0  0  0  0
   10.8424  -14.5251   28.6712 C   0  0  0  0  0  0  0  0  0  0  0  0
   10.7370  -14.8436   27.3381 C   0  0  0  0  0  0  0  0  0  0  0  0
   10.6593  -16.1621   26.9787 C   0  0  0  0  0  0  0  0  0  0  0  0
   10.5362  -16.5295   25.5594 C   0  0  2  0  0  0  0  0  0  0  0  0
   11.8415  -16.9928   24.9905 N   0  0  0  0  0  0  0  0  0  0  0  0
   11.7072  -17.2955   23.5570 C   0  0  0  0  0  0  0  0  0  0  0  0
   12.4750  -18.1065   25.7072 O   0  0  0  0  0  0  0  0  0  0  0  0
   13.6968  -17.8548   26.3646 C   0  0  0  0  0  0  0  0  0  0  0  0
   10.6872  -17.1505   27.9434 C   0  0  0  0  0  0  0  0  0  0  0  0
   10.7927  -16.8186   29.2692 O   0  0  0  0  0  0  0  0  0  0  0  0
  2  1  1  1
  2  3  1  0
  3  4  1  0
  4  5  2  0
  5  6  1  0
  7  6  2  0
  8  7  1  0
  9  4  1  0
  9  8  2  0
 10  2  1  0
 11 10  2  0
 13 12  1  0
 14 13  2  0
 15 13  1  0
 16 17  1  0
 16 15  1  0
 17 18  1  0
 19 18  1  6
 19 20  1  0
 19 21  1  0
 20 10  1  0
 21 30  1  0
 22 21  2  0
 23 24  1  0
 24 25  2  0
 24 34  1  0
 25 26  1  0
 26 27  2  0
 27 28  1  0
 29 28  1  6
 29 31  1  0
 30 29  1  0
 31 35  2  0
 31 32  1  0
 33 27  1  0
 34 33  2  0
M  END
$$$$
