FRY.pdb
     RDKit          3D

 35 36  0  0  1  0  0  0  0  0999 V2000
    6.3327  -19.0527   22.6580 N   0  0  0  0  0  0  0  0  0  0  0  0
    6.6651  -17.7783   23.2407 C   0  0  1  0  0  0  0  0  0  0  0  0
    6.0081  -17.5696   24.5781 C   0  0  0  0  0  0  0  0  0  0  0  0
    6.3589  -16.2201   25.0891 C   0  0  0  0  0  0  0  0  0  0  0  0
    6.7597  -16.0809   26.4031 C   0  0  0  0  0  0  0  0  0  0  0  0
    7.0969  -14.8519   26.9373 C   0  0  0  0  0  0  0  0  0  0  0  0
    7.0439  -13.7131   26.1692 C   0  0  0  0  0  0  0  0  0  0  0  0
    6.6410  -13.8379   24.8418 C   0  0  0  0  0  0  0  0  0  0  0  0
    6.3070  -15.0745   24.3220 C   0  0  0  0  0  0  0  0  0  0  0  0
    8.1179  -17.6080   23.2574 C   0  0  0  0  0  0  0  0  0  0  0  0
    8.8517  -18.5618   23.6175 O   0  0  0  0  0  0  0  0  0  0  0  0
    9.6388  -14.9569   17.9775 N   0  0  0  0  0  0  0  0  0  0  0  0
    9.1545  -13.6347   18.1148 C   0  0  0  0  0  0  0  0  0  0  0  0
    8.4675  -13.1435   17.1302 N   0  0  0  0  0  0  0  0  0  0  0  0
    9.4036  -12.8572   19.2849 N   0  0  0  0  0  0  0  0  0  0  0  0
   10.2639  -13.3123   20.3348 C   0  0  0  0  0  0  0  0  0  0  0  0
    9.6759  -14.4345   21.1406 C   0  0  0  0  0  0  0  0  0  0  0  0
   10.6110  -14.8831   22.2285 C   0  0  0  0  0  0  0  0  0  0  0  0
   10.1870  -16.1877   22.8607 C   0  0  2  0  0  0  0  0  0  0  0  0
    8.7727  -16.3942   22.8799 N   0  0  0  0  0  0  0  0  0  0  0  0
   10.7600  -16.1684   24.2529 C   0  0  0  0  0  0  0  0  0  0  0  0
   11.7026  -15.3676   24.4560 O   0  0  0  0  0  0  0  0  0  0  0  0
    8.0785  -12.1919   17.1682 O   0  0  0  0  0  0  0  0  0  0  0  0
    9.0287  -11.0974   27.2777 C   0  0  0  0  0  0  0  0  0  0  0  0
    9.2885  -12.4639   27.3795 C   0  0  0  0  0  0  0  0  0  0  0  0
    8.3123  -13.3912   27.1110 C   0  0  0  0  0  0  0  0  0  0  0  0
    8.5503  -14.7418   27.2063 C   0  0  0  0  0  0  0  0  0  0  0  0
    9.7966  -15.1675   27.5796 C   0  0  0  0  0  0  0  0  0  0  0  0
   10.0748  -16.6073   27.6984 C   0  0  2  0  0  0  0  0  0  0  0  0
   10.9702  -17.0924   26.6007 N   0  0  0  0  0  0  0  0  0  0  0  0
   10.3034  -16.9765   25.2944 C   0  0  0  0  0  0  0  0  0  0  0  0
   11.5212  -18.4395   26.7935 O   0  0  0  0  0  0  0  0  0  0  0  0
   12.2190  -18.6990   27.9911 C   0  0  0  0  0  0  0  0  0  0  0  0
   10.7932  -14.2511   27.8539 C   0  0  0  0  0  0  0  0  0  0  0  0
   10.5419  -12.9073   27.7548 O   0  0  0  0  0  0  0  0  0  0  0  0
  2  1  1  1
  2  3  1  0
  3  4  1  0
  4  5  2  0
  5  6  1  0
  7  6  2  0
  8  7  1  0
  9  4  1  0
  9  8  2  0
 10  2  1  0
 11 10  2  0
 13 12  1  0
 14 13  2  0
 15 13  1  0
 16 17  1  0
 16 15  1  0
 17 18  1  0
 19 18  1  1
 19 20  1  0
 19 21  1  0
 20 10  1  0
 21 30  1  0
 22 21  2  0
 23 24  1  0
 24 25  2  0
 24 34  1  0
 25 26  1  0
 26 27  2  0
 27 28  1  0
 29 28  1  6
 29 31  1  0
 30 29  1  0
 31 35  2  0
 31 32  1  0
 33 27  1  0
 34 33  2  0
M  END
$$$$
