HIG.pdb
     RDKit          3D

 23 23  0  0  1  0  0  0  0  0999 V2000
   10.0882  -14.9774   21.1962 N   0  0  0  0  0  0  0  0  0  0  0  0
    8.7969  -14.6006   21.7391 C   0  0  1  0  0  0  0  0  0  0  0  0
    7.7416  -15.2323   20.8668 C   0  0  0  0  0  0  0  0  0  0  0  0
    7.7171  -14.4877   19.5871 C   0  0  0  0  0  0  0  0  0  0  0  0
    8.5547  -13.4513   19.2414 C   0  0  0  0  0  0  0  0  0  0  0  0
    8.2305  -13.0180   17.9865 N   0  0  0  0  0  0  0  0  0  0  0  0
    7.2113  -13.7715   17.5626 C   0  0  0  0  0  0  0  0  0  0  0  0
    6.9029  -14.6613   18.5356 N   0  0  0  0  0  0  0  0  0  0  0  0
    8.6643  -14.9247   23.1604 C   0  0  0  0  0  0  0  0  0  0  0  0
    9.5089  -15.6789   23.7104 O   0  0  0  0  0  0  0  0  0  0  0  0
    5.7720  -11.4186   26.2309 C   0  0  0  0  0  0  0  0  0  0  0  0
    6.8273  -12.2875   25.6066 C   0  0  0  0  0  0  0  0  0  0  0  0
    6.6872  -13.6785   26.1369 C   0  0  2  0  0  0  0  0  0  0  0  0
    6.8685  -13.7736   27.6312 C   0  0  0  0  0  0  0  0  0  0  0  0
    7.5558  -14.6852   25.4125 C   0  0  2  0  0  0  0  0  0  0  0  0
    7.6233  -14.4393   23.9960 N   0  0  0  0  0  0  0  0  0  0  0  0
    7.0753  -16.0698   25.6438 C   0  0  0  0  0  0  0  0  0  0  0  0
    5.8423  -16.3018   25.5948 O   0  0  0  0  0  0  0  0  0  0  0  0
    7.9765  -17.1460   25.9205 N   0  0  0  0  0  0  0  0  0  0  0  0
    7.4324  -18.3684   26.4207 C   0  0  0  0  0  0  0  0  0  0  0  0
    8.1265  -18.8344   27.6376 C   0  0  0  0  0  0  0  0  0  0  0  0
    8.2857  -20.1840   27.9022 O   0  0  0  0  0  0  0  0  0  0  0  0
    8.5829  -17.9977   28.4514 O   0  0  0  0  0  0  0  0  0  0  0  0
  2  1  1  6
  3  2  1  0
  4  8  1  0
  4  3  1  0
  5  4  2  0
  6  5  1  0
  6  7  1  0
  7  8  2  0
  9  2  1  0
 10  9  2  0
 11 12  1  0
 13 12  1  0
 13 14  1  1
 15 13  1  0
 15 16  1  6
 16  9  1  0
 17 18  2  0
 17 15  1  0
 19 17  1  0
 20 19  1  0
 21 20  1  0
 22 21  1  0
 23 21  2  0
M  END
$$$$
