HIG.pdb
     RDKit          3D

 23 23  0  0  1  0  0  0  0  0999 V2000
    5.3181  -18.3039   22.7590 N   0  0  0  0  0  0  0  0  0  0  0  0
    6.1300  -18.0260   23.9285 C   0  0  1  0  0  0  0  0  0  0  0  0
    6.8927  -19.2851   24.2550 C   0  0  0  0  0  0  0  0  0  0  0  0
    7.1515  -19.2838   25.7129 C   0  0  0  0  0  0  0  0  0  0  0  0
    7.6227  -18.2188   26.4471 C   0  0  0  0  0  0  0  0  0  0  0  0
    7.7338  -18.5960   27.7558 N   0  0  0  0  0  0  0  0  0  0  0  0
    7.3389  -19.8707   27.8313 C   0  0  0  0  0  0  0  0  0  0  0  0
    6.9867  -20.2840   26.5909 N   0  0  0  0  0  0  0  0  0  0  0  0
    6.9780  -16.8447   23.7607 C   0  0  0  0  0  0  0  0  0  0  0  0
    7.7391  -16.7591   22.7617 O   0  0  0  0  0  0  0  0  0  0  0  0
    7.0019  -12.2963   27.4217 C   0  0  0  0  0  0  0  0  0  0  0  0
    7.4363  -13.5562   26.7271 C   0  0  0  0  0  0  0  0  0  0  0  0
    7.2719  -13.3786   25.2515 C   0  0  2  0  0  0  0  0  0  0  0  0
    5.8693  -13.0028   24.8435 C   0  0  0  0  0  0  0  0  0  0  0  0
    7.7819  -14.5554   24.4469 C   0  0  2  0  0  0  0  0  0  0  0  0
    7.0111  -15.7509   24.6663 N   0  0  0  0  0  0  0  0  0  0  0  0
    9.2075  -14.8328   24.7509 C   0  0  0  0  0  0  0  0  0  0  0  0
   10.0744  -13.9833   24.4297 O   0  0  0  0  0  0  0  0  0  0  0  0
    9.6208  -16.0396   25.3989 N   0  0  0  0  0  0  0  0  0  0  0  0
   11.0137  -16.2221   25.6576 C   0  0  0  0  0  0  0  0  0  0  0  0
   11.2827  -17.4427   26.4435 C   0  0  0  0  0  0  0  0  0  0  0  0
   12.5600  -17.7494   26.8806 O   0  0  0  0  0  0  0  0  0  0  0  0
   10.3413  -18.2210   26.7239 O   0  0  0  0  0  0  0  0  0  0  0  0
  2  1  1  6
  3  2  1  0
  4  8  1  0
  4  3  1  0
  5  4  2  0
  6  5  1  0
  6  7  1  0
  7  8  2  0
  9  2  1  0
 10  9  2  0
 11 12  1  0
 13 12  1  0
 13 14  1  1
 15 13  1  0
 15 16  1  1
 16  9  1  0
 17 18  2  0
 17 15  1  0
 19 17  1  0
 20 19  1  0
 21 20  1  0
 22 21  1  0
 23 21  2  0
M  END
$$$$
