HIG.pdb
     RDKit          3D

 23 23  0  0  1  0  0  0  0  0999 V2000
   10.5175  -16.9618   15.7990 N   0  0  0  0  0  0  0  0  0  0  0  0
    9.6236  -17.2651   16.9004 C   0  0  1  0  0  0  0  0  0  0  0  0
    9.6985  -18.7514   17.1431 C   0  0  0  0  0  0  0  0  0  0  0  0
    9.2590  -19.4283   15.9016 C   0  0  0  0  0  0  0  0  0  0  0  0
    8.3549  -18.9320   14.9896 C   0  0  0  0  0  0  0  0  0  0  0  0
    8.2030  -19.8372   13.9771 N   0  0  0  0  0  0  0  0  0  0  0  0
    8.9979  -20.8747   14.2564 C   0  0  0  0  0  0  0  0  0  0  0  0
    9.6363  -20.6232   15.4237 N   0  0  0  0  0  0  0  0  0  0  0  0
    9.8951  -16.4550   18.0889 C   0  0  0  0  0  0  0  0  0  0  0  0
   11.0847  -16.2023   18.4141 O   0  0  0  0  0  0  0  0  0  0  0  0
    6.6950  -12.2622   19.6101 C   0  0  0  0  0  0  0  0  0  0  0  0
    7.9032  -13.1025   19.3058 C   0  0  0  0  0  0  0  0  0  0  0  0
    8.0793  -14.1120   20.3948 C   0  0  2  0  0  0  0  0  0  0  0  0
    8.2543  -13.4981   21.7614 C   0  0  0  0  0  0  0  0  0  0  0  0
    9.1678  -15.1231   20.1028 C   0  0  2  0  0  0  0  0  0  0  0  0
    8.8888  -15.9134   18.9326 N   0  0  0  0  0  0  0  0  0  0  0  0
    9.3823  -16.0264   21.2602 C   0  0  0  0  0  0  0  0  0  0  0  0
    8.5945  -16.9883   21.4352 O   0  0  0  0  0  0  0  0  0  0  0  0
   10.4603  -15.8321   22.1806 N   0  0  0  0  0  0  0  0  0  0  0  0
   10.7236  -16.8606   23.1363 C   0  0  0  0  0  0  0  0  0  0  0  0
   11.7938  -16.4864   24.0821 C   0  0  0  0  0  0  0  0  0  0  0  0
   11.5547  -16.4070   25.4434 O   0  0  0  0  0  0  0  0  0  0  0  0
   12.9433  -16.2344   23.6513 O   0  0  0  0  0  0  0  0  0  0  0  0
  2  1  1  6
  3  2  1  0
  4  8  1  0
  4  3  1  0
  5  4  2  0
  6  5  1  0
  6  7  1  0
  7  8  2  0
  9  2  1  0
 10  9  2  0
 11 12  1  0
 13 12  1  0
 13 14  1  1
 15 13  1  0
 15 16  1  6
 16  9  1  0
 17 18  2  0
 17 15  1  0
 19 17  1  0
 20 19  1  0
 21 20  1  0
 22 21  1  0
 23 21  2  0
M  END
$$$$
