HIG.pdb
     RDKit          3D

 23 23  0  0  1  0  0  0  0  0999 V2000
    9.9327  -15.1468   21.1232 N   0  0  0  0  0  0  0  0  0  0  0  0
    8.8071  -14.4986   21.7690 C   0  0  1  0  0  0  0  0  0  0  0  0
    7.5608  -14.9305   21.0384 C   0  0  0  0  0  0  0  0  0  0  0  0
    7.6595  -14.4233   19.6507 C   0  0  0  0  0  0  0  0  0  0  0  0
    8.1803  -13.2064   19.2724 C   0  0  0  0  0  0  0  0  0  0  0  0
    8.1014  -13.0929   17.9128 N   0  0  0  0  0  0  0  0  0  0  0  0
    7.5423  -14.2182   17.4573 C   0  0  0  0  0  0  0  0  0  0  0  0
    7.2758  -15.0221   18.5137 N   0  0  0  0  0  0  0  0  0  0  0  0
    8.7647  -14.7435   23.2115 C   0  0  0  0  0  0  0  0  0  0  0  0
    9.7678  -15.2361   23.7911 O   0  0  0  0  0  0  0  0  0  0  0  0
    6.0634  -10.8794   25.9975 C   0  0  0  0  0  0  0  0  0  0  0  0
    7.1362  -11.8294   25.5448 C   0  0  0  0  0  0  0  0  0  0  0  0
    6.7662  -13.2158   25.9655 C   0  0  2  0  0  0  0  0  0  0  0  0
    6.5330  -13.3521   27.4494 C   0  0  0  0  0  0  0  0  0  0  0  0
    7.7280  -14.2708   25.4610 C   0  0  2  0  0  0  0  0  0  0  0  0
    7.6438  -14.4599   24.0366 N   0  0  0  0  0  0  0  0  0  0  0  0
    7.4989  -15.5706   26.1388 C   0  0  0  0  0  0  0  0  0  0  0  0
    7.6597  -15.6451   27.3818 O   0  0  0  0  0  0  0  0  0  0  0  0
    7.1005  -16.7396   25.4164 N   0  0  0  0  0  0  0  0  0  0  0  0
    6.8489  -17.9353   26.1562 C   0  0  0  0  0  0  0  0  0  0  0  0
    8.0941  -18.5904   26.6036 C   0  0  0  0  0  0  0  0  0  0  0  0
    8.0673  -19.7889   27.2961 O   0  0  0  0  0  0  0  0  0  0  0  0
    9.2005  -18.0568   26.3551 O   0  0  0  0  0  0  0  0  0  0  0  0
  2  1  1  6
  3  2  1  0
  4  8  1  0
  4  3  1  0
  5  4  2  0
  6  5  1  0
  6  7  1  0
  7  8  2  0
  9  2  1  0
 10  9  2  0
 11 12  1  0
 13 12  1  0
 13 14  1  1
 15 13  1  0
 15 16  1  6
 16  9  1  0
 17 18  2  0
 17 15  1  0
 19 17  1  0
 20 19  1  0
 21 20  1  0
 22 21  1  0
 23 21  2  0
M  END
$$$$
