HIG.pdb
     RDKit          3D

 23 23  0  0  1  0  0  0  0  0999 V2000
    8.8611  -18.2645   17.1461 N   0  0  0  0  0  0  0  0  0  0  0  0
    8.2688  -17.9019   18.4196 C   0  0  1  0  0  0  0  0  0  0  0  0
    8.0812  -19.1747   19.2060 C   0  0  0  0  0  0  0  0  0  0  0  0
    6.7894  -19.7682   18.7915 C   0  0  0  0  0  0  0  0  0  0  0  0
    5.9430  -19.2650   17.8294 C   0  0  0  0  0  0  0  0  0  0  0  0
    4.8530  -20.0828   17.7251 N   0  0  0  0  0  0  0  0  0  0  0  0
    5.0209  -21.0739   18.6059 C   0  0  0  0  0  0  0  0  0  0  0  0
    6.1958  -20.8797   19.2504 N   0  0  0  0  0  0  0  0  0  0  0  0
    9.0341  -16.8742   19.1273 C   0  0  0  0  0  0  0  0  0  0  0  0
   10.2782  -16.7916   18.9539 O   0  0  0  0  0  0  0  0  0  0  0  0
    6.5957  -12.6620   22.3290 C   0  0  0  0  0  0  0  0  0  0  0  0
    7.3245  -13.9403   22.0241 C   0  0  0  0  0  0  0  0  0  0  0  0
    8.3631  -13.6707   20.9826 C   0  0  2  0  0  0  0  0  0  0  0  0
    7.8086  -13.0413   19.7291 C   0  0  0  0  0  0  0  0  0  0  0  0
    9.2150  -14.8802   20.6601 C   0  0  2  0  0  0  0  0  0  0  0  0
    8.4649  -15.9311   20.0241 N   0  0  0  0  0  0  0  0  0  0  0  0
    9.8651  -15.4167   21.8812 C   0  0  0  0  0  0  0  0  0  0  0  0
   10.6581  -14.6826   22.5206 O   0  0  0  0  0  0  0  0  0  0  0  0
    9.6139  -16.7451   22.3493 N   0  0  0  0  0  0  0  0  0  0  0  0
   10.1307  -17.1177   23.6278 C   0  0  0  0  0  0  0  0  0  0  0  0
   11.4488  -17.7756   23.5296 C   0  0  0  0  0  0  0  0  0  0  0  0
   12.1089  -18.2348   24.6566 O   0  0  0  0  0  0  0  0  0  0  0  0
   11.9866  -17.9247   22.4075 O   0  0  0  0  0  0  0  0  0  0  0  0
  2  1  1  6
  3  2  1  0
  4  8  1  0
  4  3  1  0
  5  4  2  0
  6  5  1  0
  6  7  1  0
  7  8  2  0
  9  2  1  0
 10  9  2  0
 11 12  1  0
 13 12  1  0
 13 14  1  6
 15 13  1  0
 15 16  1  1
 16  9  1  0
 17 18  2  0
 17 15  1  0
 19 17  1  0
 20 19  1  0
 21 20  1  0
 22 21  1  0
 23 21  2  0
M  END
$$$$
