HIG.pdb
     RDKit          3D

 23 23  0  0  1  0  0  0  0  0999 V2000
   10.3638  -15.0190   21.4772 N   0  0  0  0  0  0  0  0  0  0  0  0
    9.0406  -14.6198   21.9174 C   0  0  1  0  0  0  0  0  0  0  0  0
    8.0418  -15.3390   21.0465 C   0  0  0  0  0  0  0  0  0  0  0  0
    7.8821  -14.5479   19.8050 C   0  0  0  0  0  0  0  0  0  0  0  0
    8.6072  -13.4285   19.4637 C   0  0  0  0  0  0  0  0  0  0  0  0
    8.1776  -12.9746   18.2484 N   0  0  0  0  0  0  0  0  0  0  0  0
    7.2048  -13.7972   17.8442 C   0  0  0  0  0  0  0  0  0  0  0  0
    7.0286  -14.7496   18.7904 N   0  0  0  0  0  0  0  0  0  0  0  0
    8.8352  -14.8270   23.3519 C   0  0  0  0  0  0  0  0  0  0  0  0
    9.6666  -15.5051   24.0103 O   0  0  0  0  0  0  0  0  0  0  0  0
    5.8649  -11.1189   26.1656 C   0  0  0  0  0  0  0  0  0  0  0  0
    6.9525  -12.0326   25.6750 C   0  0  0  0  0  0  0  0  0  0  0  0
    6.6417  -13.4311   26.1033 C   0  0  2  0  0  0  0  0  0  0  0  0
    6.5328  -13.5919   27.5991 C   0  0  0  0  0  0  0  0  0  0  0  0
    7.5767  -14.4615   25.5062 C   0  0  2  0  0  0  0  0  0  0  0  0
    7.7352  -14.3059   24.0841 N   0  0  0  0  0  0  0  0  0  0  0  0
    7.1086  -15.8393   25.7959 C   0  0  0  0  0  0  0  0  0  0  0  0
    5.9869  -16.2038   25.3651 O   0  0  0  0  0  0  0  0  0  0  0  0
    7.8986  -16.7625   26.5511 N   0  0  0  0  0  0  0  0  0  0  0  0
    7.4115  -18.0964   26.7061 C   0  0  0  0  0  0  0  0  0  0  0  0
    8.3201  -18.9349   27.5131 C   0  0  0  0  0  0  0  0  0  0  0  0
    7.9718  -20.2229   27.8822 O   0  0  0  0  0  0  0  0  0  0  0  0
    9.4298  -18.4783   27.8744 O   0  0  0  0  0  0  0  0  0  0  0  0
  2  1  1  6
  3  2  1  0
  4  8  1  0
  4  3  1  0
  5  4  2  0
  6  5  1  0
  6  7  1  0
  7  8  2  0
  9  2  1  0
 10  9  2  0
 11 12  1  0
 13 12  1  0
 13 14  1  1
 15 13  1  0
 15 16  1  6
 16  9  1  0
 17 18  2  0
 17 15  1  0
 19 17  1  0
 20 19  1  0
 21 20  1  0
 22 21  1  0
 23 21  2  0
M  END
$$$$
