HIG.pdb
     RDKit          3D

 23 23  0  0  1  0  0  0  0  0999 V2000
   10.8748  -17.8613   17.3612 N   0  0  0  0  0  0  0  0  0  0  0  0
   10.0746  -17.9445   18.5682 C   0  0  1  0  0  0  0  0  0  0  0  0
   10.4486  -19.2271   19.2671 C   0  0  0  0  0  0  0  0  0  0  0  0
   10.1392  -20.3436   18.3449 C   0  0  0  0  0  0  0  0  0  0  0  0
    8.8947  -20.6552   17.8454 C   0  0  0  0  0  0  0  0  0  0  0  0
    9.0040  -21.7465   17.0301 N   0  0  0  0  0  0  0  0  0  0  0  0
   10.2917  -22.1043   17.0245 C   0  0  0  0  0  0  0  0  0  0  0  0
   10.9766  -21.2516   17.8227 N   0  0  0  0  0  0  0  0  0  0  0  0
   10.1947  -16.7529   19.4098 C   0  0  0  0  0  0  0  0  0  0  0  0
   11.3207  -16.2140   19.5725 O   0  0  0  0  0  0  0  0  0  0  0  0
    6.5390  -12.6366   19.3900 C   0  0  0  0  0  0  0  0  0  0  0  0
    7.8338  -13.3990   19.4131 C   0  0  0  0  0  0  0  0  0  0  0  0
    7.9897  -14.0511   20.7497 C   0  0  2  0  0  0  0  0  0  0  0  0
    7.9099  -13.0834   21.9039 C   0  0  0  0  0  0  0  0  0  0  0  0
    9.2222  -14.9248   20.8489 C   0  0  2  0  0  0  0  0  0  0  0  0
    9.1048  -16.1359   20.0800 N   0  0  0  0  0  0  0  0  0  0  0  0
    9.5189  -15.2717   22.2607 C   0  0  0  0  0  0  0  0  0  0  0  0
    9.7960  -14.3508   23.0680 O   0  0  0  0  0  0  0  0  0  0  0  0
    9.4981  -16.6242   22.7268 N   0  0  0  0  0  0  0  0  0  0  0  0
    9.7522  -16.8632   24.1120 C   0  0  0  0  0  0  0  0  0  0  0  0
   11.1382  -17.3075   24.3594 C   0  0  0  0  0  0  0  0  0  0  0  0
   11.5944  -17.5594   25.6420 O   0  0  0  0  0  0  0  0  0  0  0  0
   11.9226  -17.4618   23.3942 O   0  0  0  0  0  0  0  0  0  0  0  0
  2  1  1  6
  3  2  1  0
  4  8  1  0
  4  3  1  0
  5  4  2  0
  6  5  1  0
  6  7  1  0
  7  8  2  0
  9  2  1  0
 10  9  2  0
 11 12  1  0
 13 12  1  0
 13 14  1  1
 15 13  1  0
 15 16  1  6
 16  9  1  0
 17 18  2  0
 17 15  1  0
 19 17  1  0
 20 19  1  0
 21 20  1  0
 22 21  1  0
 23 21  2  0
M  END
$$$$
