HIG.pdb
     RDKit          3D

 23 23  0  0  1  0  0  0  0  0999 V2000
    9.0416  -14.7608   20.3507 N   0  0  0  0  0  0  0  0  0  0  0  0
    8.4002  -15.4355   21.4631 C   0  0  1  0  0  0  0  0  0  0  0  0
    8.5259  -16.9185   21.2214 C   0  0  0  0  0  0  0  0  0  0  0  0
    7.9206  -17.2076   19.9012 C   0  0  0  0  0  0  0  0  0  0  0  0
    6.7082  -16.7369   19.4499 C   0  0  0  0  0  0  0  0  0  0  0  0
    6.4875  -17.2155   18.1890 N   0  0  0  0  0  0  0  0  0  0  0  0
    7.5432  -17.9684   17.8651 C   0  0  0  0  0  0  0  0  0  0  0  0
    8.4098  -17.9612   18.9056 N   0  0  0  0  0  0  0  0  0  0  0  0
    8.9155  -14.9999   22.7621 C   0  0  0  0  0  0  0  0  0  0  0  0
   10.0287  -14.4159   22.8285 O   0  0  0  0  0  0  0  0  0  0  0  0
    6.5891  -11.5306   26.8002 C   0  0  0  0  0  0  0  0  0  0  0  0
    7.7145  -12.5106   26.6234 C   0  0  0  0  0  0  0  0  0  0  0  0
    7.4235  -13.3759   25.4391 C   0  0  2  0  0  0  0  0  0  0  0  0
    6.0519  -14.0025   25.4746 C   0  0  0  0  0  0  0  0  0  0  0  0
    8.4952  -14.4131   25.1782 C   0  0  2  0  0  0  0  0  0  0  0  0
    8.2360  -15.1904   23.9949 N   0  0  0  0  0  0  0  0  0  0  0  0
    8.6477  -15.3270   26.3370 C   0  0  0  0  0  0  0  0  0  0  0  0
    8.8436  -14.8371   27.4764 O   0  0  0  0  0  0  0  0  0  0  0  0
    8.5777  -16.7487   26.1923 N   0  0  0  0  0  0  0  0  0  0  0  0
    8.6747  -17.5511   27.3701 C   0  0  0  0  0  0  0  0  0  0  0  0
   10.0518  -18.0241   27.6145 C   0  0  0  0  0  0  0  0  0  0  0  0
   10.3502  -18.8445   28.6890 O   0  0  0  0  0  0  0  0  0  0  0  0
   10.9736  -17.6803   26.8381 O   0  0  0  0  0  0  0  0  0  0  0  0
  2  1  1  6
  3  2  1  0
  4  8  1  0
  4  3  1  0
  5  4  2  0
  6  5  1  0
  6  7  1  0
  7  8  2  0
  9  2  1  0
 10  9  2  0
 11 12  1  0
 13 12  1  0
 13 14  1  1
 15 13  1  0
 15 16  1  6
 16  9  1  0
 17 18  2  0
 17 15  1  0
 19 17  1  0
 20 19  1  0
 21 20  1  0
 22 21  1  0
 23 21  2  0
M  END
$$$$
