HIG.pdb
     RDKit          3D

 23 23  0  0  1  0  0  0  0  0999 V2000
    8.4203  -16.2594   20.8293 N   0  0  0  0  0  0  0  0  0  0  0  0
    7.5242  -16.3411   21.9671 C   0  0  1  0  0  0  0  0  0  0  0  0
    7.1026  -17.7823   22.1038 C   0  0  0  0  0  0  0  0  0  0  0  0
    6.3690  -18.1507   20.8714 C   0  0  0  0  0  0  0  0  0  0  0  0
    6.7908  -17.9169   19.5819 C   0  0  0  0  0  0  0  0  0  0  0  0
    5.8510  -18.3967   18.7134 N   0  0  0  0  0  0  0  0  0  0  0  0
    4.8655  -18.9177   19.4507 C   0  0  0  0  0  0  0  0  0  0  0  0
    5.1832  -18.7667   20.7583 N   0  0  0  0  0  0  0  0  0  0  0  0
    8.1040  -15.7739   23.1856 C   0  0  0  0  0  0  0  0  0  0  0  0
    9.3412  -15.8757   23.3947 O   0  0  0  0  0  0  0  0  0  0  0  0
    5.8429  -11.5687   25.7142 C   0  0  0  0  0  0  0  0  0  0  0  0
    6.9161  -12.4601   25.1559 C   0  0  0  0  0  0  0  0  0  0  0  0
    7.1602  -13.5837   26.1119 C   0  0  2  0  0  0  0  0  0  0  0  0
    7.8342  -13.1504   27.3898 C   0  0  0  0  0  0  0  0  0  0  0  0
    7.8779  -14.7592   25.4829 C   0  0  2  0  0  0  0  0  0  0  0  0
    7.3560  -15.0951   24.1843 N   0  0  0  0  0  0  0  0  0  0  0  0
    7.8125  -15.9556   26.3581 C   0  0  0  0  0  0  0  0  0  0  0  0
    6.7001  -16.5023   26.5588 O   0  0  0  0  0  0  0  0  0  0  0  0
    8.9799  -16.5025   26.9785 N   0  0  0  0  0  0  0  0  0  0  0  0
    8.8331  -17.6866   27.7639 C   0  0  0  0  0  0  0  0  0  0  0  0
   10.0919  -18.0782   28.4286 C   0  0  0  0  0  0  0  0  0  0  0  0
   10.1318  -19.1255   29.3331 O   0  0  0  0  0  0  0  0  0  0  0  0
   11.1488  -17.4547   28.1739 O   0  0  0  0  0  0  0  0  0  0  0  0
  2  1  1  6
  3  2  1  0
  4  8  1  0
  4  3  1  0
  5  4  2  0
  6  5  1  0
  6  7  1  0
  7  8  2  0
  9  2  1  0
 10  9  2  0
 11 12  1  0
 13 12  1  0
 13 14  1  1
 15 13  1  0
 15 16  1  6
 16  9  1  0
 17 18  2  0
 17 15  1  0
 19 17  1  0
 20 19  1  0
 21 20  1  0
 22 21  1  0
 23 21  2  0
M  END
$$$$
