HIG.pdb
     RDKit          3D

 23 23  0  0  1  0  0  0  0  0999 V2000
   10.1680  -14.6847   21.0721 N   0  0  0  0  0  0  0  0  0  0  0  0
    8.8674  -14.4230   21.6586 C   0  0  1  0  0  0  0  0  0  0  0  0
    7.8607  -15.2589   20.9093 C   0  0  0  0  0  0  0  0  0  0  0  0
    7.7178  -14.6767   19.5553 C   0  0  0  0  0  0  0  0  0  0  0  0
    8.4384  -13.6163   19.0537 C   0  0  0  0  0  0  0  0  0  0  0  0
    8.0283  -13.3663   17.7742 N   0  0  0  0  0  0  0  0  0  0  0  0
    7.0718  -14.2550   17.4884 C   0  0  0  0  0  0  0  0  0  0  0  0
    6.8864  -15.0475   18.5705 N   0  0  0  0  0  0  0  0  0  0  0  0
    8.8486  -14.6286   23.1078 C   0  0  0  0  0  0  0  0  0  0  0  0
    9.8566  -15.1167   23.6825 O   0  0  0  0  0  0  0  0  0  0  0  0
    5.8903  -11.2182   26.1796 C   0  0  0  0  0  0  0  0  0  0  0  0
    6.9800  -12.0602   25.5780 C   0  0  0  0  0  0  0  0  0  0  0  0
    6.8313  -13.4665   26.0638 C   0  0  2  0  0  0  0  0  0  0  0  0
    6.9099  -13.5960   27.5645 C   0  0  0  0  0  0  0  0  0  0  0  0
    7.7681  -14.4385   25.3782 C   0  0  2  0  0  0  0  0  0  0  0  0
    7.7460  -14.3101   23.9448 N   0  0  0  0  0  0  0  0  0  0  0  0
    7.4472  -15.8397   25.7462 C   0  0  0  0  0  0  0  0  0  0  0  0
    6.2559  -16.2297   25.6748 O   0  0  0  0  0  0  0  0  0  0  0  0
    8.4561  -16.7570   26.1795 N   0  0  0  0  0  0  0  0  0  0  0  0
    8.0493  -18.0679   26.5751 C   0  0  0  0  0  0  0  0  0  0  0  0
    8.6840  -18.4947   27.8380 C   0  0  0  0  0  0  0  0  0  0  0  0
    8.8128  -19.8347   28.1609 O   0  0  0  0  0  0  0  0  0  0  0  0
    9.1168  -17.6325   28.6380 O   0  0  0  0  0  0  0  0  0  0  0  0
  2  1  1  6
  3  2  1  0
  4  8  1  0
  4  3  1  0
  5  4  2  0
  6  5  1  0
  6  7  1  0
  7  8  2  0
  9  2  1  0
 10  9  2  0
 11 12  1  0
 13 12  1  0
 13 14  1  1
 15 13  1  0
 15 16  1  6
 16  9  1  0
 17 18  2  0
 17 15  1  0
 19 17  1  0
 20 19  1  0
 21 20  1  0
 22 21  1  0
 23 21  2  0
M  END
$$$$
