HIG.pdb
     RDKit          3D

 23 23  0  0  1  0  0  0  0  0999 V2000
    8.5698  -16.0178   20.8519 N   0  0  0  0  0  0  0  0  0  0  0  0
    7.7593  -16.0864   22.0530 C   0  0  1  0  0  0  0  0  0  0  0  0
    7.4464  -17.5405   22.3008 C   0  0  0  0  0  0  0  0  0  0  0  0
    6.6184  -18.0171   21.1695 C   0  0  0  0  0  0  0  0  0  0  0  0
    6.3020  -17.2942   20.0414 C   0  0  0  0  0  0  0  0  0  0  0  0
    5.5229  -18.0644   19.2244 N   0  0  0  0  0  0  0  0  0  0  0  0
    5.3597  -19.2422   19.8346 C   0  0  0  0  0  0  0  0  0  0  0  0
    6.0252  -19.2097   21.0133 N   0  0  0  0  0  0  0  0  0  0  0  0
    8.3793  -15.4098   23.1933 C   0  0  0  0  0  0  0  0  0  0  0  0
    9.6283  -15.2557   23.2245 O   0  0  0  0  0  0  0  0  0  0  0  0
    5.5357  -11.5907   25.8285 C   0  0  0  0  0  0  0  0  0  0  0  0
    6.7233  -12.2244   25.1604 C   0  0  0  0  0  0  0  0  0  0  0  0
    7.3176  -13.2378   26.0855 C   0  0  2  0  0  0  0  0  0  0  0  0
    7.9396  -12.6338   27.3197 C   0  0  0  0  0  0  0  0  0  0  0  0
    8.2738  -14.1884   25.3968 C   0  0  2  0  0  0  0  0  0  0  0  0
    7.6591  -14.8962   24.3047 N   0  0  0  0  0  0  0  0  0  0  0  0
    8.8362  -15.1696   26.3574 C   0  0  0  0  0  0  0  0  0  0  0  0
    9.5020  -14.7499   27.3358 O   0  0  0  0  0  0  0  0  0  0  0  0
    8.6411  -16.5781   26.1999 N   0  0  0  0  0  0  0  0  0  0  0  0
    9.1055  -17.4426   27.2379 C   0  0  0  0  0  0  0  0  0  0  0  0
   10.5094  -17.8539   27.0389 C   0  0  0  0  0  0  0  0  0  0  0  0
   11.0836  -18.8489   27.8116 O   0  0  0  0  0  0  0  0  0  0  0  0
   11.2008  -17.2960   26.1549 O   0  0  0  0  0  0  0  0  0  0  0  0
  2  1  1  6
  3  2  1  0
  4  8  1  0
  4  3  1  0
  5  4  2  0
  6  5  1  0
  6  7  1  0
  7  8  2  0
  9  2  1  0
 10  9  2  0
 11 12  1  0
 13 12  1  0
 13 14  1  1
 15 13  1  0
 15 16  1  6
 16  9  1  0
 17 18  2  0
 17 15  1  0
 19 17  1  0
 20 19  1  0
 21 20  1  0
 22 21  1  0
 23 21  2  0
M  END
$$$$
