HIG.pdb
     RDKit          3D

 23 23  0  0  1  0  0  0  0  0999 V2000
   10.1824  -14.6337   21.1493 N   0  0  0  0  0  0  0  0  0  0  0  0
    8.8619  -14.4300   21.7142 C   0  0  1  0  0  0  0  0  0  0  0  0
    7.8850  -15.1977   20.8600 C   0  0  0  0  0  0  0  0  0  0  0  0
    7.7956  -14.5057   19.5539 C   0  0  0  0  0  0  0  0  0  0  0  0
    8.5119  -13.3905   19.1818 C   0  0  0  0  0  0  0  0  0  0  0  0
    8.1610  -13.0420   17.9078 N   0  0  0  0  0  0  0  0  0  0  0  0
    7.2446  -13.9244   17.4982 C   0  0  0  0  0  0  0  0  0  0  0  0
    7.0257  -14.8102   18.4988 N   0  0  0  0  0  0  0  0  0  0  0  0
    8.7976  -14.7656   23.1375 C   0  0  0  0  0  0  0  0  0  0  0  0
    9.7088  -15.4619   23.6568 O   0  0  0  0  0  0  0  0  0  0  0  0
    6.0229  -11.3216   26.3442 C   0  0  0  0  0  0  0  0  0  0  0  0
    7.0863  -12.1816   25.7215 C   0  0  0  0  0  0  0  0  0  0  0  0
    6.9029  -13.5918   26.1839 C   0  0  2  0  0  0  0  0  0  0  0  0
    7.0538  -13.7602   27.6751 C   0  0  0  0  0  0  0  0  0  0  0  0
    7.7603  -14.5853   25.4288 C   0  0  2  0  0  0  0  0  0  0  0  0
    7.7534  -14.3541   24.0081 N   0  0  0  0  0  0  0  0  0  0  0  0
    7.3260  -15.9784   25.6972 C   0  0  0  0  0  0  0  0  0  0  0  0
    6.1064  -16.2632   25.6075 O   0  0  0  0  0  0  0  0  0  0  0  0
    8.2568  -17.0044   26.0548 N   0  0  0  0  0  0  0  0  0  0  0  0
    7.7404  -18.2872   26.4130 C   0  0  0  0  0  0  0  0  0  0  0  0
    8.3526  -18.8126   27.6495 C   0  0  0  0  0  0  0  0  0  0  0  0
    7.9561  -20.0242   28.1894 O   0  0  0  0  0  0  0  0  0  0  0  0
    9.2493  -18.1544   28.2269 O   0  0  0  0  0  0  0  0  0  0  0  0
  2  1  1  6
  3  2  1  0
  4  8  1  0
  4  3  1  0
  5  4  2  0
  6  5  1  0
  6  7  1  0
  7  8  2  0
  9  2  1  0
 10  9  2  0
 11 12  1  0
 13 12  1  0
 13 14  1  1
 15 13  1  0
 15 16  1  6
 16  9  1  0
 17 18  2  0
 17 15  1  0
 19 17  1  0
 20 19  1  0
 21 20  1  0
 22 21  1  0
 23 21  2  0
M  END
$$$$
