HMY.pdb
     RDKit          3D

 31 32  0  0  1  0  0  0  0  0999 V2000
   27.4712  -21.4710  -13.9282 N   0  0  0  0  0  0  0  0  0  0  0  0
   26.7754  -20.4642  -13.1889 C   0  0  1  0  0  0  0  0  0  0  0  0
   25.6882  -19.8401  -14.0431 C   0  0  0  0  0  0  0  0  0  0  0  0
   26.2361  -19.1140  -15.1975 C   0  0  0  0  0  0  0  0  0  0  0  0
   26.7819  -17.8559  -15.1540 C   0  0  0  0  0  0  0  0  0  0  0  0
   27.1654  -17.5389  -16.3852 N   0  0  0  0  0  0  0  0  0  0  0  0
   26.8639  -18.5803  -17.1796 C   0  0  0  0  0  0  0  0  0  0  0  0
   26.2900  -19.5580  -16.4571 N   0  0  0  0  0  0  0  0  0  0  0  0
   26.1830  -20.9406  -11.9371 C   0  0  0  0  0  0  0  0  0  0  0  0
   25.4261  -21.9412  -11.9119 O   0  0  0  0  0  0  0  0  0  0  0  0
   29.2518  -20.1312   -5.3541 C   0  0  0  0  0  0  0  0  0  0  0  0
   27.8120  -19.4295   -6.1659 S   0  0  0  0  0  0  0  0  0  0  0  0
   27.1238  -20.5226   -7.3738 C   0  0  0  0  0  0  0  0  0  0  0  0
   25.9693  -20.1599   -8.1857 C   0  0  0  0  0  0  0  0  0  0  0  0
   25.6393  -20.6430   -9.5089 C   0  0  2  0  0  0  0  0  0  0  0  0
   26.4252  -20.2963  -10.6465 N   0  0  0  0  0  0  0  0  0  0  0  0
   24.2080  -20.2415   -9.8158 C   0  0  0  0  0  0  0  0  0  0  0  0
   23.9693  -19.3120  -10.6284 O   0  0  0  0  0  0  0  0  0  0  0  0
   16.9290  -21.8358  -13.9253 O   0  0  0  0  0  0  0  0  0  0  0  0
   18.1655  -21.7365  -13.2959 C   0  0  0  0  0  0  0  0  0  0  0  0
   19.3488  -22.1081  -13.9033 C   0  0  0  0  0  0  0  0  0  0  0  0
   20.5691  -21.9998  -13.2552 C   0  0  0  0  0  0  0  0  0  0  0  0
   20.6175  -21.5064  -11.9611 C   0  0  0  0  0  0  0  0  0  0  0  0
   21.8892  -21.3791  -11.2434 C   0  0  0  0  0  0  0  0  0  0  0  0
   21.7599  -20.7951   -9.8557 C   0  0  2  0  0  0  0  0  0  0  0  0
   23.0905  -20.8672   -9.2270 N   0  0  0  0  0  0  0  0  0  0  0  0
   20.7514  -21.4770   -9.0186 C   0  0  0  0  0  0  0  0  0  0  0  0
   21.0484  -22.5317   -8.4099 O   0  0  0  0  0  0  0  0  0  0  0  0
   19.4193  -21.1422  -11.3774 C   0  0  0  0  0  0  0  0  0  0  0  0
   18.2003  -21.2445  -12.0097 C   0  0  0  0  0  0  0  0  0  0  0  0
   19.4630  -20.9835   -8.8787 O   0  0  0  0  0  0  0  0  0  0  0  0
  2  1  1  6
  2  3  1  0
  3  4  1  0
  4  8  1  0
  5  6  1  0
  5  4  2  0
  6  7  1  0
  7  8  2  0
  9  2  1  0
  9 10  2  0
 12 11  1  0
 13 12  1  0
 14 13  1  0
 15 14  1  1
 15 16  1  0
 16  9  1  0
 17 26  1  0
 17 15  1  0
 18 17  2  0
 20 19  1  0
 20 30  2  0
 21 20  1  0
 22 21  2  0
 22 23  1  0
 23 29  2  0
 24 23  1  0
 25 24  1  6
 25 26  1  0
 25 27  1  0
 27 31  1  0
 28 27  2  0
 29 30  1  0
M  END
$$$$
