HMY.pdb
     RDKit          3D

 31 32  0  0  1  0  0  0  0  0999 V2000
   27.3700  -19.0079  -20.5944 N   0  0  0  0  0  0  0  0  0  0  0  0
   27.0433  -18.6987  -19.2372 C   0  0  1  0  0  0  0  0  0  0  0  0
   25.5696  -18.3605  -19.1140 C   0  0  0  0  0  0  0  0  0  0  0  0
   25.2142  -17.1439  -19.8578 C   0  0  0  0  0  0  0  0  0  0  0  0
   24.1752  -17.0361  -20.7475 C   0  0  0  0  0  0  0  0  0  0  0  0
   24.1699  -15.7928  -21.2140 N   0  0  0  0  0  0  0  0  0  0  0  0
   25.1864  -15.1395  -20.6256 C   0  0  0  0  0  0  0  0  0  0  0  0
   25.8377  -15.9637  -19.7867 N   0  0  0  0  0  0  0  0  0  0  0  0
   27.3692  -19.7620  -18.2843 C   0  0  0  0  0  0  0  0  0  0  0  0
   27.3798  -20.9683  -18.6300 O   0  0  0  0  0  0  0  0  0  0  0  0
   30.5913  -21.5982  -12.3588 C   0  0  0  0  0  0  0  0  0  0  0  0
   30.0114  -19.9067  -12.5221 S   0  0  0  0  0  0  0  0  0  0  0  0
   29.5394  -19.5167  -14.1813 C   0  0  0  0  0  0  0  0  0  0  0  0
   29.1829  -20.5432  -15.1522 C   0  0  0  0  0  0  0  0  0  0  0  0
   28.0143  -20.5782  -16.0043 C   0  0  2  0  0  0  0  0  0  0  0  0
   27.7004  -19.5011  -16.8837 N   0  0  0  0  0  0  0  0  0  0  0  0
   26.7965  -20.8085  -15.1279 C   0  0  0  0  0  0  0  0  0  0  0  0
   25.9515  -19.8923  -14.9611 O   0  0  0  0  0  0  0  0  0  0  0  0
   21.8872  -20.4820   -8.3608 O   0  0  0  0  0  0  0  0  0  0  0  0
   22.8305  -20.5928   -9.3771 C   0  0  0  0  0  0  0  0  0  0  0  0
   24.0080  -21.3001   -9.2343 C   0  0  0  0  0  0  0  0  0  0  0  0
   24.9329  -21.3961  -10.2621 C   0  0  0  0  0  0  0  0  0  0  0  0
   24.6815  -20.7694  -11.4722 C   0  0  0  0  0  0  0  0  0  0  0  0
   25.6368  -20.8473  -12.5813 C   0  0  0  0  0  0  0  0  0  0  0  0
   25.5371  -22.1167  -13.3949 C   0  0  2  0  0  0  0  0  0  0  0  0
   26.5441  -22.0275  -14.4667 N   0  0  0  0  0  0  0  0  0  0  0  0
   24.1931  -22.3518  -13.9620 C   0  0  0  0  0  0  0  0  0  0  0  0
   23.5925  -21.4283  -14.5599 O   0  0  0  0  0  0  0  0  0  0  0  0
   23.4963  -20.0688  -11.5880 C   0  0  0  0  0  0  0  0  0  0  0  0
   22.5689  -19.9654  -10.5753 C   0  0  0  0  0  0  0  0  0  0  0  0
   23.5593  -23.5806  -13.8551 O   0  0  0  0  0  0  0  0  0  0  0  0
  2  1  1  6
  2  3  1  0
  3  4  1  0
  4  8  1  0
  5  6  1  0
  5  4  2  0
  6  7  1  0
  7  8  2  0
  9  2  1  0
  9 10  2  0
 12 11  1  0
 13 12  1  0
 14 13  1  0
 15 14  1  1
 15 16  1  0
 16  9  1  0
 17 26  1  0
 17 15  1  0
 18 17  2  0
 20 19  1  0
 20 30  2  0
 21 20  1  0
 22 21  2  0
 22 23  1  0
 23 29  2  0
 24 23  1  0
 25 24  1  6
 25 26  1  0
 25 27  1  0
 27 31  1  0
 28 27  2  0
 29 30  1  0
M  END
$$$$
