HMY.pdb
     RDKit          3D

 31 32  0  0  1  0  0  0  0  0999 V2000
   26.5175  -17.7343  -18.8760 N   0  0  0  0  0  0  0  0  0  0  0  0
   26.6793  -18.1135  -17.5069 C   0  0  1  0  0  0  0  0  0  0  0  0
   28.0240  -17.6433  -16.9854 C   0  0  0  0  0  0  0  0  0  0  0  0
   29.1369  -18.0895  -17.8351 C   0  0  0  0  0  0  0  0  0  0  0  0
   29.4596  -19.3980  -18.0933 C   0  0  0  0  0  0  0  0  0  0  0  0
   30.5166  -19.4026  -18.8970 N   0  0  0  0  0  0  0  0  0  0  0  0
   30.8453  -18.1212  -19.1345 C   0  0  0  0  0  0  0  0  0  0  0  0
   30.0005  -17.3023  -18.4841 N   0  0  0  0  0  0  0  0  0  0  0  0
   25.6248  -17.6196  -16.6187 C   0  0  0  0  0  0  0  0  0  0  0  0
   25.4247  -16.3906  -16.4626 O   0  0  0  0  0  0  0  0  0  0  0  0
   21.2239  -20.9532  -19.0080 C   0  0  0  0  0  0  0  0  0  0  0  0
   20.3123  -19.7392  -18.0492 S   0  0  0  0  0  0  0  0  0  0  0  0
   21.2965  -18.3260  -17.6468 C   0  0  0  0  0  0  0  0  0  0  0  0
   22.7160  -18.4280  -17.3336 C   0  0  0  0  0  0  0  0  0  0  0  0
   23.3285  -18.4276  -16.0229 C   0  0  2  0  0  0  0  0  0  0  0  0
   24.7426  -18.5067  -15.8609 N   0  0  0  0  0  0  0  0  0  0  0  0
   22.7226  -19.5623  -15.2172 C   0  0  0  0  0  0  0  0  0  0  0  0
   21.4768  -19.6376  -15.0633 O   0  0  0  0  0  0  0  0  0  0  0  0
   27.3067  -19.7161   -9.6072 O   0  0  0  0  0  0  0  0  0  0  0  0
   26.4611  -20.4007  -10.4740 C   0  0  0  0  0  0  0  0  0  0  0  0
   25.2201  -20.8733  -10.0946 C   0  0  0  0  0  0  0  0  0  0  0  0
   24.3953  -21.5530  -10.9768 C   0  0  0  0  0  0  0  0  0  0  0  0
   24.8153  -21.7715  -12.2792 C   0  0  0  0  0  0  0  0  0  0  0  0
   23.9711  -22.4879  -13.2399 C   0  0  0  0  0  0  0  0  0  0  0  0
   22.8608  -21.6508  -13.8314 C   0  0  2  0  0  0  0  0  0  0  0  0
   23.4954  -20.5727  -14.6099 N   0  0  0  0  0  0  0  0  0  0  0  0
   21.9401  -21.0901  -12.8209 C   0  0  0  0  0  0  0  0  0  0  0  0
   21.1608  -21.8446  -12.1928 O   0  0  0  0  0  0  0  0  0  0  0  0
   26.0606  -21.2883  -12.6321 C   0  0  0  0  0  0  0  0  0  0  0  0
   26.8900  -20.6114  -11.7660 C   0  0  0  0  0  0  0  0  0  0  0  0
   21.9056  -19.7333  -12.5363 O   0  0  0  0  0  0  0  0  0  0  0  0
  2  1  1  6
  2  3  1  0
  3  4  1  0
  4  8  1  0
  5  6  1  0
  5  4  2  0
  6  7  1  0
  7  8  2  0
  9  2  1  0
  9 10  2  0
 12 11  1  0
 13 12  1  0
 14 13  1  0
 15 14  1  6
 15 16  1  0
 16  9  1  0
 17 26  1  0
 17 15  1  0
 18 17  2  0
 20 19  1  0
 20 30  2  0
 21 20  1  0
 22 21  2  0
 22 23  1  0
 23 29  2  0
 24 23  1  0
 25 24  1  1
 25 26  1  0
 25 27  1  0
 27 31  1  0
 28 27  2  0
 29 30  1  0
M  END
$$$$
