HMY.pdb
     RDKit          3D

 31 32  0  0  1  0  0  0  0  0999 V2000
   39.3780  -24.6173    4.8982 N   0  0  0  0  0  0  0  0  0  0  0  0
   38.0040  -24.9846    4.7517 C   0  0  1  0  0  0  0  0  0  0  0  0
   37.8060  -26.4423    5.1223 C   0  0  0  0  0  0  0  0  0  0  0  0
   38.1012  -27.3460    4.0017 C   0  0  0  0  0  0  0  0  0  0  0  0
   38.5336  -26.9518    2.7606 C   0  0  0  0  0  0  0  0  0  0  0  0
   38.6914  -28.0439    2.0218 N   0  0  0  0  0  0  0  0  0  0  0  0
   38.3633  -29.0977    2.7889 C   0  0  0  0  0  0  0  0  0  0  0  0
   37.9975  -28.6786    4.0128 N   0  0  0  0  0  0  0  0  0  0  0  0
   37.0768  -24.1641    5.5340 C   0  0  0  0  0  0  0  0  0  0  0  0
   37.4251  -23.6392    6.6192 O   0  0  0  0  0  0  0  0  0  0  0  0
   30.1367  -20.1835    6.4664 C   0  0  0  0  0  0  0  0  0  0  0  0
   31.1609  -21.1316    5.3366 S   0  0  0  0  0  0  0  0  0  0  0  0
   32.6195  -21.7566    6.1174 C   0  0  0  0  0  0  0  0  0  0  0  0
   33.6219  -22.5278    5.3934 C   0  0  0  0  0  0  0  0  0  0  0  0
   34.8432  -23.0958    5.9214 C   0  0  2  0  0  0  0  0  0  0  0  0
   35.7001  -23.9008    5.1155 N   0  0  0  0  0  0  0  0  0  0  0  0
   34.4919  -23.9114    7.1525 C   0  0  0  0  0  0  0  0  0  0  0  0
   34.1214  -25.1076    7.0376 O   0  0  0  0  0  0  0  0  0  0  0  0
   39.0426  -28.2508    8.4665 O   0  0  0  0  0  0  0  0  0  0  0  0
   38.1229  -27.3327    8.9627 C   0  0  0  0  0  0  0  0  0  0  0  0
   36.8396  -27.6821    9.3346 C   0  0  0  0  0  0  0  0  0  0  0  0
   35.9409  -26.7487    9.8265 C   0  0  0  0  0  0  0  0  0  0  0  0
   36.3280  -25.4241    9.9538 C   0  0  0  0  0  0  0  0  0  0  0  0
   35.4045  -24.4087   10.4685 C   0  0  0  0  0  0  0  0  0  0  0  0
   34.1673  -24.2132    9.6232 C   0  0  2  0  0  0  0  0  0  0  0  0
   34.5578  -23.3944    8.4622 N   0  0  0  0  0  0  0  0  0  0  0  0
   33.0470  -23.5826   10.3514 C   0  0  0  0  0  0  0  0  0  0  0  0
   32.5286  -24.1639   11.3334 O   0  0  0  0  0  0  0  0  0  0  0  0
   37.6169  -25.1021    9.5747 C   0  0  0  0  0  0  0  0  0  0  0  0
   38.5198  -26.0192    9.0846 C   0  0  0  0  0  0  0  0  0  0  0  0
   32.5378  -22.3470    9.9811 O   0  0  0  0  0  0  0  0  0  0  0  0
  2  1  1  1
  2  3  1  0
  3  4  1  0
  4  8  1  0
  5  6  1  0
  5  4  2  0
  6  7  1  0
  7  8  2  0
  9  2  1  0
  9 10  2  0
 12 11  1  0
 13 12  1  0
 14 13  1  0
 15 14  1  6
 15 16  1  0
 16  9  1  0
 17 26  1  0
 17 15  1  0
 18 17  2  0
 20 19  1  0
 20 30  2  0
 21 20  1  0
 22 21  2  0
 22 23  1  0
 23 29  2  0
 24 23  1  0
 25 24  1  1
 25 26  1  0
 25 27  1  0
 27 31  1  0
 28 27  2  0
 29 30  1  0
M  END
$$$$
