HMY.pdb
     RDKit          3D

 31 32  0  0  1  0  0  0  0  0999 V2000
   21.5509  -15.5958  -18.9003 N   0  0  0  0  0  0  0  0  0  0  0  0
   21.6143  -14.1688  -18.9642 C   0  0  1  0  0  0  0  0  0  0  0  0
   20.2223  -13.5861  -19.1195 C   0  0  0  0  0  0  0  0  0  0  0  0
   19.6119  -13.9400  -20.4087 C   0  0  0  0  0  0  0  0  0  0  0  0
   19.0084  -13.0559  -21.2671 C   0  0  0  0  0  0  0  0  0  0  0  0
   18.5808  -13.7428  -22.3200 N   0  0  0  0  0  0  0  0  0  0  0  0
   18.9120  -15.0300  -22.1203 C   0  0  0  0  0  0  0  0  0  0  0  0
   19.5488  -15.1632  -20.9439 N   0  0  0  0  0  0  0  0  0  0  0  0
   22.2659  -13.5448  -17.8106 C   0  0  0  0  0  0  0  0  0  0  0  0
   22.6318  -14.2238  -16.8207 O   0  0  0  0  0  0  0  0  0  0  0  0
   28.5791  -11.6972  -15.1601 C   0  0  0  0  0  0  0  0  0  0  0  0
   26.9891  -12.4167  -15.5827 S   0  0  0  0  0  0  0  0  0  0  0  0
   26.3568  -11.7947  -17.1127 C   0  0  0  0  0  0  0  0  0  0  0  0
   25.0367  -12.1541  -17.6145 C   0  0  0  0  0  0  0  0  0  0  0  0
   23.7593  -11.6346  -17.1771 C   0  0  2  0  0  0  0  0  0  0  0  0
   22.5334  -12.1091  -17.7283 N   0  0  0  0  0  0  0  0  0  0  0  0
   23.7754  -10.1273  -17.3556 C   0  0  0  0  0  0  0  0  0  0  0  0
   23.7700   -9.6241  -18.5080 O   0  0  0  0  0  0  0  0  0  0  0  0
   21.3426   -1.8333  -15.4944 O   0  0  0  0  0  0  0  0  0  0  0  0
   21.7800   -3.1513  -15.4135 C   0  0  0  0  0  0  0  0  0  0  0  0
   23.0966   -3.4916  -15.1723 C   0  0  0  0  0  0  0  0  0  0  0  0
   23.5084   -4.8128  -15.0961 C   0  0  0  0  0  0  0  0  0  0  0  0
   22.5834   -5.8307  -15.2649 C   0  0  0  0  0  0  0  0  0  0  0  0
   22.9821   -7.2395  -15.1929 C   0  0  0  0  0  0  0  0  0  0  0  0
   23.5580   -7.7853  -16.4789 C   0  0  2  0  0  0  0  0  0  0  0  0
   23.7963   -9.2247  -16.2732 N   0  0  0  0  0  0  0  0  0  0  0  0
   24.8001   -7.1081  -16.9051 C   0  0  0  0  0  0  0  0  0  0  0  0
   25.8981   -7.4263  -16.3911 O   0  0  0  0  0  0  0  0  0  0  0  0
   21.2736   -5.4623  -15.5049 C   0  0  0  0  0  0  0  0  0  0  0  0
   20.8509   -4.1541  -15.5830 C   0  0  0  0  0  0  0  0  0  0  0  0
   24.7958   -6.1139  -17.8719 O   0  0  0  0  0  0  0  0  0  0  0  0
  2  1  1  1
  2  3  1  0
  3  4  1  0
  4  8  1  0
  5  6  1  0
  5  4  2  0
  6  7  1  0
  7  8  2  0
  9  2  1  0
  9 10  2  0
 12 11  1  0
 13 12  1  0
 14 13  1  0
 15 14  1  6
 15 16  1  0
 16  9  1  0
 17 26  1  0
 17 15  1  0
 18 17  2  0
 20 19  1  0
 20 30  2  0
 21 20  1  0
 22 21  2  0
 22 23  1  0
 23 29  2  0
 24 23  1  0
 25 24  1  1
 25 26  1  0
 25 27  1  0
 27 31  1  0
 28 27  2  0
 29 30  1  0
M  END
$$$$
