HMY.pdb
     RDKit          3D

 31 32  0  0  1  0  0  0  0  0999 V2000
   21.0875  -22.1932  -14.1108 N   0  0  0  0  0  0  0  0  0  0  0  0
   22.4357  -22.4658  -14.5013 C   0  0  1  0  0  0  0  0  0  0  0  0
   22.5291  -22.6069  -16.0089 C   0  0  0  0  0  0  0  0  0  0  0  0
   21.7832  -23.7717  -16.5056 C   0  0  0  0  0  0  0  0  0  0  0  0
   22.3450  -24.8862  -17.0757 C   0  0  0  0  0  0  0  0  0  0  0  0
   21.3597  -25.7169  -17.3956 N   0  0  0  0  0  0  0  0  0  0  0  0
   20.2066  -25.1302  -17.0314 C   0  0  0  0  0  0  0  0  0  0  0  0
   20.4561  -23.9293  -16.4811 N   0  0  0  0  0  0  0  0  0  0  0  0
   23.4042  -21.4615  -14.0561 C   0  0  0  0  0  0  0  0  0  0  0  0
   23.1337  -20.2364  -14.0822 O   0  0  0  0  0  0  0  0  0  0  0  0
   25.5538  -20.6795   -7.8449 C   0  0  0  0  0  0  0  0  0  0  0  0
   25.8918  -21.5461   -9.3808 S   0  0  0  0  0  0  0  0  0  0  0  0
   26.2786  -20.4389  -10.7046 C   0  0  0  0  0  0  0  0  0  0  0  0
   26.5333  -20.9050  -12.0616 C   0  0  0  0  0  0  0  0  0  0  0  0
   25.6632  -20.7811  -13.2107 C   0  0  2  0  0  0  0  0  0  0  0  0
   24.7353  -21.8063  -13.5571 N   0  0  0  0  0  0  0  0  0  0  0  0
   26.5269  -20.5290  -14.4332 C   0  0  0  0  0  0  0  0  0  0  0  0
   27.0364  -21.4923  -15.0607 O   0  0  0  0  0  0  0  0  0  0  0  0
   22.0948  -17.1997  -18.8747 O   0  0  0  0  0  0  0  0  0  0  0  0
   23.2518  -17.8532  -18.4635 C   0  0  0  0  0  0  0  0  0  0  0  0
   23.2330  -18.9993  -17.6932 C   0  0  0  0  0  0  0  0  0  0  0  0
   24.3999  -19.6327  -17.2957 C   0  0  0  0  0  0  0  0  0  0  0  0
   25.6268  -19.1118  -17.6748 C   0  0  0  0  0  0  0  0  0  0  0  0
   26.8819  -19.7531  -17.2719 C   0  0  0  0  0  0  0  0  0  0  0  0
   27.6042  -19.0464  -16.1485 C   0  0  2  0  0  0  0  0  0  0  0  0
   26.8032  -19.2379  -14.9268 N   0  0  0  0  0  0  0  0  0  0  0  0
   27.8298  -17.6084  -16.4026 C   0  0  0  0  0  0  0  0  0  0  0  0
   27.2867  -16.7477  -15.6709 O   0  0  0  0  0  0  0  0  0  0  0  0
   25.6168  -17.9649  -18.4450 C   0  0  0  0  0  0  0  0  0  0  0  0
   24.4652  -17.3256  -18.8469 C   0  0  0  0  0  0  0  0  0  0  0  0
   28.6360  -17.1673  -17.4411 O   0  0  0  0  0  0  0  0  0  0  0  0
  2  1  1  6
  2  3  1  0
  3  4  1  0
  4  8  1  0
  5  6  1  0
  5  4  2  0
  6  7  1  0
  7  8  2  0
  9  2  1  0
  9 10  2  0
 12 11  1  0
 13 12  1  0
 14 13  1  0
 15 14  1  1
 15 16  1  0
 16  9  1  0
 17 26  1  0
 17 15  1  0
 18 17  2  0
 20 19  1  0
 20 30  2  0
 21 20  1  0
 22 21  2  0
 22 23  1  0
 23 29  2  0
 24 23  1  0
 25 24  1  6
 25 26  1  0
 25 27  1  0
 27 31  1  0
 28 27  2  0
 29 30  1  0
M  END
$$$$
