HMY.pdb
     RDKit          3D

 31 32  0  0  1  0  0  0  0  0999 V2000
   22.6615  -20.2624  -17.7937 N   0  0  0  0  0  0  0  0  0  0  0  0
   23.0701  -19.4617  -16.6817 C   0  0  1  0  0  0  0  0  0  0  0  0
   21.8743  -19.1141  -15.8153 C   0  0  0  0  0  0  0  0  0  0  0  0
   21.1743  -17.9123  -16.2899 C   0  0  0  0  0  0  0  0  0  0  0  0
   20.5524  -16.9901  -15.4864 C   0  0  0  0  0  0  0  0  0  0  0  0
   20.0368  -16.0519  -16.2719 N   0  0  0  0  0  0  0  0  0  0  0  0
   20.3324  -16.3840  -17.5403 C   0  0  0  0  0  0  0  0  0  0  0  0
   21.0341  -17.5304  -17.5632 N   0  0  0  0  0  0  0  0  0  0  0  0
   24.1014  -20.0787  -15.8448 C   0  0  0  0  0  0  0  0  0  0  0  0
   24.1154  -21.3151  -15.6304 O   0  0  0  0  0  0  0  0  0  0  0  0
   30.1497  -23.0807  -15.6671 C   0  0  0  0  0  0  0  0  0  0  0  0
   28.6640  -22.0833  -15.8158 S   0  0  0  0  0  0  0  0  0  0  0  0
   28.6578  -20.7174  -14.6924 C   0  0  0  0  0  0  0  0  0  0  0  0
   27.5835  -19.7331  -14.6677 C   0  0  0  0  0  0  0  0  0  0  0  0
   26.1753  -19.9754  -14.4415 C   0  0  2  0  0  0  0  0  0  0  0  0
   25.1724  -19.3127  -15.2077 N   0  0  0  0  0  0  0  0  0  0  0  0
   25.8764  -19.6978  -12.9795 C   0  0  0  0  0  0  0  0  0  0  0  0
   25.6288  -18.5270  -12.5929 O   0  0  0  0  0  0  0  0  0  0  0  0
   19.5820  -18.9861  -11.8119 O   0  0  0  0  0  0  0  0  0  0  0  0
   20.7927  -19.4874  -11.3453 C   0  0  0  0  0  0  0  0  0  0  0  0
   21.3431  -19.1141  -10.1349 C   0  0  0  0  0  0  0  0  0  0  0  0
   22.5515  -19.6276   -9.6914 C   0  0  0  0  0  0  0  0  0  0  0  0
   23.2374  -20.5422  -10.4747 C   0  0  0  0  0  0  0  0  0  0  0  0
   24.5188  -21.1055  -10.0395 C   0  0  0  0  0  0  0  0  0  0  0  0
   25.7284  -20.3679  -10.5649 C   0  0  2  0  0  0  0  0  0  0  0  0
   25.8577  -20.7049  -11.9934 N   0  0  0  0  0  0  0  0  0  0  0  0
   26.9762  -20.6863   -9.8403 C   0  0  0  0  0  0  0  0  0  0  0  0
   27.8810  -21.3445  -10.4053 O   0  0  0  0  0  0  0  0  0  0  0  0
   22.6644  -20.8982  -11.6805 C   0  0  0  0  0  0  0  0  0  0  0  0
   21.4648  -20.3959  -12.1331 C   0  0  0  0  0  0  0  0  0  0  0  0
   27.1871  -20.2757   -8.5327 O   0  0  0  0  0  0  0  0  0  0  0  0
  2  1  1  6
  2  3  1  0
  3  4  1  0
  4  8  1  0
  5  6  1  0
  5  4  2  0
  6  7  1  0
  7  8  2  0
  9  2  1  0
  9 10  2  0
 12 11  1  0
 13 12  1  0
 14 13  1  0
 15 14  1  6
 15 16  1  0
 16  9  1  0
 17 26  1  0
 17 15  1  0
 18 17  2  0
 20 19  1  0
 20 30  2  0
 21 20  1  0
 22 21  2  0
 22 23  1  0
 23 29  2  0
 24 23  1  0
 25 24  1  1
 25 26  1  0
 25 27  1  0
 27 31  1  0
 28 27  2  0
 29 30  1  0
M  END
$$$$
