HMY.pdb
     RDKit          3D

 31 32  0  0  1  0  0  0  0  0999 V2000
   27.6887  -21.5638  -15.6991 N   0  0  0  0  0  0  0  0  0  0  0  0
   27.3282  -20.6225  -14.6850 C   0  0  1  0  0  0  0  0  0  0  0  0
   26.8118  -19.3423  -15.3141 C   0  0  0  0  0  0  0  0  0  0  0  0
   27.8463  -18.6501  -16.0955 C   0  0  0  0  0  0  0  0  0  0  0  0
   27.7822  -18.3955  -17.4423 C   0  0  0  0  0  0  0  0  0  0  0  0
   28.8942  -17.7564  -17.7861 N   0  0  0  0  0  0  0  0  0  0  0  0
   29.6361  -17.6160  -16.6742 C   0  0  0  0  0  0  0  0  0  0  0  0
   28.9990  -18.1639  -15.6248 N   0  0  0  0  0  0  0  0  0  0  0  0
   26.3339  -21.1192  -13.7313 C   0  0  0  0  0  0  0  0  0  0  0  0
   25.4078  -21.8852  -14.0925 O   0  0  0  0  0  0  0  0  0  0  0  0
   28.6145  -20.8262   -7.1062 C   0  0  0  0  0  0  0  0  0  0  0  0
   27.0158  -20.3852   -7.7945 S   0  0  0  0  0  0  0  0  0  0  0  0
   26.5956  -21.3722   -9.2005 C   0  0  0  0  0  0  0  0  0  0  0  0
   25.4135  -21.1104  -10.0116 C   0  0  0  0  0  0  0  0  0  0  0  0
   25.2980  -21.2021  -11.4508 C   0  0  2  0  0  0  0  0  0  0  0  0
   26.3464  -20.7652  -12.3121 N   0  0  0  0  0  0  0  0  0  0  0  0
   24.0385  -20.4669  -11.8720 C   0  0  0  0  0  0  0  0  0  0  0  0
   24.0720  -19.2318  -12.1057 O   0  0  0  0  0  0  0  0  0  0  0  0
   21.8926  -23.5721  -18.0524 O   0  0  0  0  0  0  0  0  0  0  0  0
   21.9473  -22.6406  -17.0207 C   0  0  0  0  0  0  0  0  0  0  0  0
   23.1352  -22.1672  -16.4990 C   0  0  0  0  0  0  0  0  0  0  0  0
   23.1638  -21.2387  -15.4705 C   0  0  0  0  0  0  0  0  0  0  0  0
   21.9744  -20.7636  -14.9415 C   0  0  0  0  0  0  0  0  0  0  0  0
   21.9652  -19.7827  -13.8523 C   0  0  0  0  0  0  0  0  0  0  0  0
   21.6110  -20.3616  -12.5022 C   0  0  2  0  0  0  0  0  0  0  0  0
   22.7903  -21.1040  -12.0234 N   0  0  0  0  0  0  0  0  0  0  0  0
   20.4206  -21.2365  -12.5276 C   0  0  0  0  0  0  0  0  0  0  0  0
   20.5398  -22.4668  -12.3195 O   0  0  0  0  0  0  0  0  0  0  0  0
   20.8009  -21.2536  -15.4818 C   0  0  0  0  0  0  0  0  0  0  0  0
   20.7581  -22.1759  -16.5035 C   0  0  0  0  0  0  0  0  0  0  0  0
   19.1515  -20.7369  -12.7781 O   0  0  0  0  0  0  0  0  0  0  0  0
  2  1  1  6
  2  3  1  0
  3  4  1  0
  4  8  1  0
  5  6  1  0
  5  4  2  0
  6  7  1  0
  7  8  2  0
  9  2  1  0
  9 10  2  0
 12 11  1  0
 13 12  1  0
 14 13  1  0
 15 14  1  1
 15 16  1  0
 16  9  1  0
 17 26  1  0
 17 15  1  0
 18 17  2  0
 20 19  1  0
 20 30  2  0
 21 20  1  0
 22 21  2  0
 22 23  1  0
 23 29  2  0
 24 23  1  0
 25 24  1  6
 25 26  1  0
 25 27  1  0
 27 31  1  0
 28 27  2  0
 29 30  1  0
M  END
$$$$
