HMY.pdb
     RDKit          3D

 31 32  0  0  1  0  0  0  0  0999 V2000
   27.1325  -16.4818  -21.1413 N   0  0  0  0  0  0  0  0  0  0  0  0
   26.6415  -15.2030  -20.7316 C   0  0  1  0  0  0  0  0  0  0  0  0
   25.8805  -14.5428  -21.8658 C   0  0  0  0  0  0  0  0  0  0  0  0
   26.7778  -13.9240  -22.8516 C   0  0  0  0  0  0  0  0  0  0  0  0
   27.9574  -14.4655  -23.2968 C   0  0  0  0  0  0  0  0  0  0  0  0
   28.4826  -13.6215  -24.1772 N   0  0  0  0  0  0  0  0  0  0  0  0
   27.6457  -12.5747  -24.2777 C   0  0  0  0  0  0  0  0  0  0  0  0
   26.5902  -12.7508  -23.4640 N   0  0  0  0  0  0  0  0  0  0  0  0
   25.7866  -15.2410  -19.5432 C   0  0  0  0  0  0  0  0  0  0  0  0
   25.0787  -16.2430  -19.2795 O   0  0  0  0  0  0  0  0  0  0  0  0
   27.1006  -17.4186  -14.1711 C   0  0  0  0  0  0  0  0  0  0  0  0
   26.2128  -16.5714  -15.4819 S   0  0  0  0  0  0  0  0  0  0  0  0
   26.0012  -14.8484  -15.1439 C   0  0  0  0  0  0  0  0  0  0  0  0
   25.4118  -13.9309  -16.1105 C   0  0  0  0  0  0  0  0  0  0  0  0
   24.8914  -14.2515  -17.4218 C   0  0  2  0  0  0  0  0  0  0  0  0
   25.6961  -14.1330  -18.5924 N   0  0  0  0  0  0  0  0  0  0  0  0
   23.6431  -13.4192  -17.6518 C   0  0  0  0  0  0  0  0  0  0  0  0
   23.7356  -12.2402  -18.0793 O   0  0  0  0  0  0  0  0  0  0  0  0
   15.8593  -10.3069  -19.9273 O   0  0  0  0  0  0  0  0  0  0  0  0
   16.9978  -11.0614  -19.6640 C   0  0  0  0  0  0  0  0  0  0  0  0
   16.9476  -12.3372  -19.1375 C   0  0  0  0  0  0  0  0  0  0  0  0
   18.0966  -13.0695  -18.8838 C   0  0  0  0  0  0  0  0  0  0  0  0
   19.3372  -12.5179  -19.1613 C   0  0  0  0  0  0  0  0  0  0  0  0
   20.5741  -13.2615  -18.9046 C   0  0  0  0  0  0  0  0  0  0  0  0
   21.1675  -13.0202  -17.5360 C   0  0  2  0  0  0  0  0  0  0  0  0
   22.3413  -13.9017  -17.4084 N   0  0  0  0  0  0  0  0  0  0  0  0
   20.2173  -13.2557  -16.4294 C   0  0  0  0  0  0  0  0  0  0  0  0
   20.1473  -14.3850  -15.8901 O   0  0  0  0  0  0  0  0  0  0  0  0
   19.3586  -11.2404  -19.6873 C   0  0  0  0  0  0  0  0  0  0  0  0
   18.2251  -10.5020  -19.9444 C   0  0  0  0  0  0  0  0  0  0  0  0
   19.3836  -12.2537  -15.9561 O   0  0  0  0  0  0  0  0  0  0  0  0
  2  1  1  6
  2  3  1  0
  3  4  1  0
  4  8  1  0
  5  6  1  0
  5  4  2  0
  6  7  1  0
  7  8  2  0
  9  2  1  0
  9 10  2  0
 12 11  1  0
 13 12  1  0
 14 13  1  0
 15 14  1  1
 15 16  1  0
 16  9  1  0
 17 26  1  0
 17 15  1  0
 18 17  2  0
 20 19  1  0
 20 30  2  0
 21 20  1  0
 22 21  2  0
 22 23  1  0
 23 29  2  0
 24 23  1  0
 25 24  1  6
 25 26  1  0
 25 27  1  0
 27 31  1  0
 28 27  2  0
 29 30  1  0
M  END
$$$$
