HMY.pdb
     RDKit          3D

 31 32  0  0  1  0  0  0  0  0999 V2000
   20.9823  -13.8470  -17.7236 N   0  0  0  0  0  0  0  0  0  0  0  0
   19.9119  -14.0837  -16.8056 C   0  0  1  0  0  0  0  0  0  0  0  0
   18.5765  -13.8130  -17.4724 C   0  0  0  0  0  0  0  0  0  0  0  0
   18.4955  -12.4529  -18.0232 C   0  0  0  0  0  0  0  0  0  0  0  0
   18.4874  -12.1399  -19.3592 C   0  0  0  0  0  0  0  0  0  0  0  0
   18.4042  -10.8188  -19.4643 N   0  0  0  0  0  0  0  0  0  0  0  0
   18.3614  -10.3193  -18.2172 C   0  0  0  0  0  0  0  0  0  0  0  0
   18.4171  -11.3189  -17.3200 N   0  0  0  0  0  0  0  0  0  0  0  0
   19.8958  -15.4335  -16.2377 C   0  0  0  0  0  0  0  0  0  0  0  0
   20.8295  -16.2439  -16.4528 O   0  0  0  0  0  0  0  0  0  0  0  0
   20.9434  -20.8982  -11.8888 C   0  0  0  0  0  0  0  0  0  0  0  0
   20.2143  -19.7607  -13.0714 S   0  0  0  0  0  0  0  0  0  0  0  0
   20.5224  -18.0700  -12.6537 C   0  0  0  0  0  0  0  0  0  0  0  0
   20.0108  -16.9638  -13.4525 C   0  0  0  0  0  0  0  0  0  0  0  0
   19.0251  -17.0260  -14.5096 C   0  0  2  0  0  0  0  0  0  0  0  0
   18.8090  -15.9282  -15.3929 N   0  0  0  0  0  0  0  0  0  0  0  0
   17.6840  -17.3683  -13.8864 C   0  0  0  0  0  0  0  0  0  0  0  0
   17.2435  -16.6971  -12.9185 O   0  0  0  0  0  0  0  0  0  0  0  0
   13.9389  -12.9139  -16.0672 O   0  0  0  0  0  0  0  0  0  0  0  0
   14.1047  -14.2660  -15.7858 C   0  0  0  0  0  0  0  0  0  0  0  0
   14.9277  -15.0914  -16.5267 C   0  0  0  0  0  0  0  0  0  0  0  0
   15.0765  -16.4362  -16.2266 C   0  0  0  0  0  0  0  0  0  0  0  0
   14.3859  -16.9809  -15.1557 C   0  0  0  0  0  0  0  0  0  0  0  0
   14.5168  -18.3992  -14.8093 C   0  0  0  0  0  0  0  0  0  0  0  0
   15.5499  -18.6822  -13.7435 C   0  0  2  0  0  0  0  0  0  0  0  0
   16.8728  -18.4278  -14.3404 N   0  0  0  0  0  0  0  0  0  0  0  0
   15.4793  -20.0546  -13.2008 C   0  0  0  0  0  0  0  0  0  0  0  0
   14.4104  -20.4800  -12.7032 O   0  0  0  0  0  0  0  0  0  0  0  0
   13.5698  -16.1331  -14.4317 C   0  0  0  0  0  0  0  0  0  0  0  0
   13.4129  -14.7955  -14.7188 C   0  0  0  0  0  0  0  0  0  0  0  0
   16.5736  -20.9063  -13.2220 O   0  0  0  0  0  0  0  0  0  0  0  0
  2  1  1  6
  2  3  1  0
  3  4  1  0
  4  8  1  0
  5  6  1  0
  5  4  2  0
  6  7  1  0
  7  8  2  0
  9  2  1  0
  9 10  2  0
 12 11  1  0
 13 12  1  0
 14 13  1  0
 15 14  1  1
 15 16  1  0
 16  9  1  0
 17 26  1  0
 17 15  1  0
 18 17  2  0
 20 19  1  0
 20 30  2  0
 21 20  1  0
 22 21  2  0
 22 23  1  0
 23 29  2  0
 24 23  1  0
 25 24  1  6
 25 26  1  0
 25 27  1  0
 27 31  1  0
 28 27  2  0
 29 30  1  0
M  END
$$$$
