HMY.pdb
     RDKit          3D

 31 32  0  0  1  0  0  0  0  0999 V2000
   27.5167  -21.6724  -16.1514 N   0  0  0  0  0  0  0  0  0  0  0  0
   27.1700  -20.6708  -15.1917 C   0  0  1  0  0  0  0  0  0  0  0  0
   26.6673  -19.4223  -15.8916 C   0  0  0  0  0  0  0  0  0  0  0  0
   27.7027  -18.7980  -16.7270 C   0  0  0  0  0  0  0  0  0  0  0  0
   27.8998  -19.0490  -18.0615 C   0  0  0  0  0  0  0  0  0  0  0  0
   28.9198  -18.3017  -18.4670 N   0  0  0  0  0  0  0  0  0  0  0  0
   29.3491  -17.5989  -17.4048 C   0  0  0  0  0  0  0  0  0  0  0  0
   28.6051  -17.8973  -16.3256 N   0  0  0  0  0  0  0  0  0  0  0  0
   26.1724  -21.1006  -14.2095 C   0  0  0  0  0  0  0  0  0  0  0  0
   25.2487  -21.8914  -14.5196 O   0  0  0  0  0  0  0  0  0  0  0  0
   25.8355  -20.6640   -6.8835 C   0  0  0  0  0  0  0  0  0  0  0  0
   26.8364  -20.0576   -8.2454 S   0  0  0  0  0  0  0  0  0  0  0  0
   26.6010  -21.0009   -9.7227 C   0  0  0  0  0  0  0  0  0  0  0  0
   25.3531  -20.9734  -10.4748 C   0  0  0  0  0  0  0  0  0  0  0  0
   25.1866  -21.1097  -11.9054 C   0  0  2  0  0  0  0  0  0  0  0  0
   26.1786  -20.6474  -12.8187 N   0  0  0  0  0  0  0  0  0  0  0  0
   23.8777  -20.4468  -12.2946 C   0  0  0  0  0  0  0  0  0  0  0  0
   23.8659  -19.2605  -12.7117 O   0  0  0  0  0  0  0  0  0  0  0  0
   17.3143  -18.5196  -17.3493 O   0  0  0  0  0  0  0  0  0  0  0  0
   18.4071  -18.9258  -16.5905 C   0  0  0  0  0  0  0  0  0  0  0  0
   19.2376  -18.0378  -15.9354 C   0  0  0  0  0  0  0  0  0  0  0  0
   20.3210  -18.4670  -15.1851 C   0  0  0  0  0  0  0  0  0  0  0  0
   20.5898  -19.8225  -15.0810 C   0  0  0  0  0  0  0  0  0  0  0  0
   21.7275  -20.3136  -14.2979 C   0  0  0  0  0  0  0  0  0  0  0  0
   21.4265  -20.5163  -12.8310 C   0  0  2  0  0  0  0  0  0  0  0  0
   22.6312  -21.1002  -12.2157 N   0  0  0  0  0  0  0  0  0  0  0  0
   20.2482  -21.3722  -12.5817 C   0  0  0  0  0  0  0  0  0  0  0  0
   20.3673  -22.6200  -12.5752 O   0  0  0  0  0  0  0  0  0  0  0  0
   19.7434  -20.6885  -15.7461 C   0  0  0  0  0  0  0  0  0  0  0  0
   18.6638  -20.2758  -16.4947 C   0  0  0  0  0  0  0  0  0  0  0  0
   18.9907  -20.8354  -12.3501 O   0  0  0  0  0  0  0  0  0  0  0  0
  2  1  1  6
  2  3  1  0
  3  4  1  0
  4  8  1  0
  5  6  1  0
  5  4  2  0
  6  7  1  0
  7  8  2  0
  9  2  1  0
  9 10  2  0
 12 11  1  0
 13 12  1  0
 14 13  1  0
 15 14  1  1
 15 16  1  0
 16  9  1  0
 17 26  1  0
 17 15  1  0
 18 17  2  0
 20 19  1  0
 20 30  2  0
 21 20  1  0
 22 21  2  0
 22 23  1  0
 23 29  2  0
 24 23  1  0
 25 24  1  6
 25 26  1  0
 25 27  1  0
 27 31  1  0
 28 27  2  0
 29 30  1  0
M  END
$$$$
