HMY.pdb
     RDKit          3D

 31 32  0  0  1  0  0  0  0  0999 V2000
   24.9981  -18.5723  -21.1979 N   0  0  0  0  0  0  0  0  0  0  0  0
   23.7414  -18.6012  -20.5165 C   0  0  1  0  0  0  0  0  0  0  0  0
   23.1834  -20.0118  -20.5002 C   0  0  0  0  0  0  0  0  0  0  0  0
   22.8229  -20.4828  -21.8448 C   0  0  0  0  0  0  0  0  0  0  0  0
   23.3215  -21.6099  -22.4480 C   0  0  0  0  0  0  0  0  0  0  0  0
   22.7640  -21.7057  -23.6493 N   0  0  0  0  0  0  0  0  0  0  0  0
   21.9342  -20.6579  -23.7909 C   0  0  0  0  0  0  0  0  0  0  0  0
   21.9627  -19.8966  -22.6833 N   0  0  0  0  0  0  0  0  0  0  0  0
   23.7910  -18.0927  -19.1440 C   0  0  0  0  0  0  0  0  0  0  0  0
   24.8704  -17.7186  -18.6246 O   0  0  0  0  0  0  0  0  0  0  0  0
   25.8544  -14.7163  -14.7728 C   0  0  0  0  0  0  0  0  0  0  0  0
   24.4862  -13.8806  -15.5815 S   0  0  0  0  0  0  0  0  0  0  0  0
   23.1294  -14.9693  -15.9003 C   0  0  0  0  0  0  0  0  0  0  0  0
   23.1033  -15.8673  -17.0477 C   0  0  0  0  0  0  0  0  0  0  0  0
   22.6585  -17.2436  -17.0759 C   0  0  2  0  0  0  0  0  0  0  0  0
   22.6069  -17.9855  -18.2920 N   0  0  0  0  0  0  0  0  0  0  0  0
   21.2746  -17.3064  -16.4555 C   0  0  0  0  0  0  0  0  0  0  0  0
   20.2606  -16.9966  -17.1316 O   0  0  0  0  0  0  0  0  0  0  0  0
   14.8160  -19.3961  -10.6654 O   0  0  0  0  0  0  0  0  0  0  0  0
   16.0157  -19.1569  -11.3275 C   0  0  0  0  0  0  0  0  0  0  0  0
   16.0910  -18.4545  -12.5142 C   0  0  0  0  0  0  0  0  0  0  0  0
   17.2989  -18.2290  -13.1553 C   0  0  0  0  0  0  0  0  0  0  0  0
   18.4716  -18.7167  -12.6009 C   0  0  0  0  0  0  0  0  0  0  0  0
   19.7673  -18.4995  -13.2511 C   0  0  0  0  0  0  0  0  0  0  0  0
   19.6815  -17.7706  -14.5720 C   0  0  2  0  0  0  0  0  0  0  0  0
   21.0465  -17.7045  -15.1227 N   0  0  0  0  0  0  0  0  0  0  0  0
   19.0979  -16.4175  -14.4641 C   0  0  0  0  0  0  0  0  0  0  0  0
   19.8024  -15.4583  -14.0706 O   0  0  0  0  0  0  0  0  0  0  0  0
   18.3677  -19.4156  -11.4137 C   0  0  0  0  0  0  0  0  0  0  0  0
   17.1745  -19.6467  -10.7662 C   0  0  0  0  0  0  0  0  0  0  0  0
   17.7735  -16.1646  -14.7885 O   0  0  0  0  0  0  0  0  0  0  0  0
  2  1  1  1
  2  3  1  0
  3  4  1  0
  4  8  1  0
  5  6  1  0
  5  4  2  0
  6  7  1  0
  7  8  2  0
  9  2  1  0
  9 10  2  0
 12 11  1  0
 13 12  1  0
 14 13  1  0
 15 14  1  6
 15 16  1  0
 16  9  1  0
 17 26  1  0
 17 15  1  0
 18 17  2  0
 20 19  1  0
 20 30  2  0
 21 20  1  0
 22 21  2  0
 22 23  1  0
 23 29  2  0
 24 23  1  0
 25 24  1  1
 25 26  1  0
 25 27  1  0
 27 31  1  0
 28 27  2  0
 29 30  1  0
M  END
$$$$
