HMY.pdb
     RDKit          3D

 31 32  0  0  1  0  0  0  0  0999 V2000
   27.6407  -22.2892  -16.6409 N   0  0  0  0  0  0  0  0  0  0  0  0
   27.2852  -21.1497  -15.8538 C   0  0  1  0  0  0  0  0  0  0  0  0
   26.5739  -20.1191  -16.7102 C   0  0  0  0  0  0  0  0  0  0  0  0
   27.4922  -19.0923  -17.2224 C   0  0  0  0  0  0  0  0  0  0  0  0
   27.5625  -17.7983  -16.7714 C   0  0  0  0  0  0  0  0  0  0  0  0
   28.5051  -17.1772  -17.4707 N   0  0  0  0  0  0  0  0  0  0  0  0
   29.0118  -18.0681  -18.3402 C   0  0  0  0  0  0  0  0  0  0  0  0
   28.3940  -19.2533  -18.1958 N   0  0  0  0  0  0  0  0  0  0  0  0
   26.4509  -21.4602  -14.6910 C   0  0  0  0  0  0  0  0  0  0  0  0
   25.6160  -22.3967  -14.7173 O   0  0  0  0  0  0  0  0  0  0  0  0
   27.5150  -20.4280   -8.0337 C   0  0  0  0  0  0  0  0  0  0  0  0
   25.7258  -20.4014   -8.1829 S   0  0  0  0  0  0  0  0  0  0  0  0
   25.1799  -20.8806   -9.7953 C   0  0  0  0  0  0  0  0  0  0  0  0
   25.9987  -20.6870  -10.9852 C   0  0  0  0  0  0  0  0  0  0  0  0
   25.6668  -21.0438  -12.3473 C   0  0  2  0  0  0  0  0  0  0  0  0
   26.5275  -20.7145  -13.4349 N   0  0  0  0  0  0  0  0  0  0  0  0
   24.3005  -20.4656  -12.6683 C   0  0  0  0  0  0  0  0  0  0  0  0
   24.1978  -19.3113  -13.1564 O   0  0  0  0  0  0  0  0  0  0  0  0
   21.9783  -24.4249  -17.8912 O   0  0  0  0  0  0  0  0  0  0  0  0
   21.9075  -23.3809  -16.9746 C   0  0  0  0  0  0  0  0  0  0  0  0
   20.8042  -23.1584  -16.1743 C   0  0  0  0  0  0  0  0  0  0  0  0
   20.7574  -22.1108  -15.2680 C   0  0  0  0  0  0  0  0  0  0  0  0
   21.8411  -21.2551  -15.1517 C   0  0  0  0  0  0  0  0  0  0  0  0
   21.8272  -20.1354  -14.2057 C   0  0  0  0  0  0  0  0  0  0  0  0
   21.7933  -20.5533  -12.7540 C   0  0  2  0  0  0  0  0  0  0  0  0
   23.0975  -21.1660  -12.4464 N   0  0  0  0  0  0  0  0  0  0  0  0
   20.6923  -21.4845  -12.4320 C   0  0  0  0  0  0  0  0  0  0  0  0
   19.5006  -21.1171  -12.5585 O   0  0  0  0  0  0  0  0  0  0  0  0
   22.9315  -21.5005  -15.9640 C   0  0  0  0  0  0  0  0  0  0  0  0
   22.9913  -22.5373  -16.8683 C   0  0  0  0  0  0  0  0  0  0  0  0
   20.9334  -22.7754  -11.9863 O   0  0  0  0  0  0  0  0  0  0  0  0
  2  1  1  6
  2  3  1  0
  3  4  1  0
  4  8  1  0
  5  6  1  0
  5  4  2  0
  6  7  1  0
  7  8  2  0
  9  2  1  0
  9 10  2  0
 12 11  1  0
 13 12  1  0
 14 13  1  0
 15 14  1  1
 15 16  1  0
 16  9  1  0
 17 26  1  0
 17 15  1  0
 18 17  2  0
 20 19  1  0
 20 30  2  0
 21 20  1  0
 22 21  2  0
 22 23  1  0
 23 29  2  0
 24 23  1  0
 25 24  1  6
 25 26  1  0
 25 27  1  0
 27 31  1  0
 28 27  2  0
 29 30  1  0
M  END
$$$$
