HMY.pdb
     RDKit          3D

 31 32  0  0  1  0  0  0  0  0999 V2000
   26.3247  -35.5490  -11.4123 N   0  0  0  0  0  0  0  0  0  0  0  0
   26.4408  -34.4100  -10.5557 C   0  0  1  0  0  0  0  0  0  0  0  0
   25.0786  -33.7834  -10.3249 C   0  0  0  0  0  0  0  0  0  0  0  0
   24.5284  -33.1827  -11.5481 C   0  0  0  0  0  0  0  0  0  0  0  0
   25.1736  -33.1194  -12.7575 C   0  0  0  0  0  0  0  0  0  0  0  0
   24.3643  -32.5099  -13.6159 N   0  0  0  0  0  0  0  0  0  0  0  0
   23.2369  -32.1999  -12.9531 C   0  0  0  0  0  0  0  0  0  0  0  0
   23.3272  -32.6104  -11.6762 N   0  0  0  0  0  0  0  0  0  0  0  0
   27.0598  -34.6947   -9.2594 C   0  0  0  0  0  0  0  0  0  0  0  0
   26.8335  -35.7674   -8.6488 O   0  0  0  0  0  0  0  0  0  0  0  0
   33.5343  -33.3535   -6.4987 C   0  0  0  0  0  0  0  0  0  0  0  0
   32.3556  -34.5755   -5.9144 S   0  0  0  0  0  0  0  0  0  0  0  0
   30.7084  -33.9362   -5.8389 C   0  0  0  0  0  0  0  0  0  0  0  0
   29.9321  -33.6383   -7.0358 C   0  0  0  0  0  0  0  0  0  0  0  0
   28.6179  -34.1377   -7.3771 C   0  0  2  0  0  0  0  0  0  0  0  0
   27.9716  -33.7658   -8.5920 N   0  0  0  0  0  0  0  0  0  0  0  0
   27.6707  -33.7905   -6.2430 C   0  0  0  0  0  0  0  0  0  0  0  0
   27.2955  -32.6029   -6.0696 O   0  0  0  0  0  0  0  0  0  0  0  0
   20.8464  -33.9897   -0.7857 O   0  0  0  0  0  0  0  0  0  0  0  0
   21.8396  -34.2296   -1.7295 C   0  0  0  0  0  0  0  0  0  0  0  0
   22.5983  -35.3835   -1.7439 C   0  0  0  0  0  0  0  0  0  0  0  0
   23.5829  -35.5998   -2.6951 C   0  0  0  0  0  0  0  0  0  0  0  0
   23.8233  -34.6391   -3.6645 C   0  0  0  0  0  0  0  0  0  0  0  0
   24.8573  -34.8319   -4.6855 C   0  0  0  0  0  0  0  0  0  0  0  0
   26.2328  -34.3663   -4.2676 C   0  0  2  0  0  0  0  0  0  0  0  0
   27.1671  -34.7492   -5.3406 N   0  0  0  0  0  0  0  0  0  0  0  0
   26.6756  -34.9186   -2.9707 C   0  0  0  0  0  0  0  0  0  0  0  0
   27.2805  -36.0156   -2.9278 O   0  0  0  0  0  0  0  0  0  0  0  0
   23.0502  -33.4947   -3.6270 C   0  0  0  0  0  0  0  0  0  0  0  0
   22.0689  -33.2671   -2.6880 C   0  0  0  0  0  0  0  0  0  0  0  0
   26.4420  -34.2551   -1.7756 O   0  0  0  0  0  0  0  0  0  0  0  0
  2  1  1  1
  2  3  1  0
  3  4  1  0
  4  8  1  0
  5  6  1  0
  5  4  2  0
  6  7  1  0
  7  8  2  0
  9  2  1  0
  9 10  2  0
 12 11  1  0
 13 12  1  0
 14 13  1  0
 15 14  1  1
 15 16  1  0
 16  9  1  0
 17 26  1  0
 17 15  1  0
 18 17  2  0
 20 19  1  0
 20 30  2  0
 21 20  1  0
 22 21  2  0
 22 23  1  0
 23 29  2  0
 24 23  1  0
 25 24  1  6
 25 26  1  0
 25 27  1  0
 27 31  1  0
 28 27  2  0
 29 30  1  0
M  END
$$$$
