DTL.pdb
     RDKit          3D

 24 23  0  0  1  0  0  0  0  0999 V2000
   16.5900  -15.0451  -16.9727 N   0  0  0  0  0  0  0  0  0  0  0  0
   16.6537  -14.0316  -15.9032 C   0  0  1  0  0  0  0  0  0  0  0  0
   17.2930  -14.6905  -14.7213 C   0  0  0  0  0  0  0  0  0  0  0  0
   16.4370  -15.7235  -14.1282 C   0  0  0  0  0  0  0  0  0  0  0  0
   15.2886  -15.5063  -13.6869 O   0  0  0  0  0  0  0  0  0  0  0  0
   17.5302  -12.9458  -16.4250 C   0  0  0  0  0  0  0  0  0  0  0  0
   18.4369  -13.1448  -17.2951 O   0  0  0  0  0  0  0  0  0  0  0  0
   16.8813  -17.0589  -14.0223 O   0  0  0  0  0  0  0  0  0  0  0  0
   16.5888  -10.2958  -18.5371 C   0  0  0  0  0  0  0  0  0  0  0  0
   17.1403   -9.6187  -17.3128 C   0  0  1  0  0  0  0  0  0  0  0  0
   16.1417   -9.1614  -16.4664 O   0  0  0  0  0  0  0  0  0  0  0  0
   18.0998  -10.5330  -16.5981 C   0  0  2  0  0  0  0  0  0  0  0  0
   17.3636  -11.6210  -15.9435 N   0  0  0  0  0  0  0  0  0  0  0  0
   18.9249   -9.8237  -15.6085 C   0  0  0  0  0  0  0  0  0  0  0  0
   18.5183   -9.7733  -14.4019 O   0  0  0  0  0  0  0  0  0  0  0  0
   22.8136  -10.4222  -13.5884 C   0  0  0  0  0  0  0  0  0  0  0  0
   22.9801   -9.9544  -15.0448 C   0  0  2  0  0  0  0  0  0  0  0  0
   24.5035   -9.9355  -15.2378 C   0  0  0  0  0  0  0  0  0  0  0  0
   22.3825   -8.5929  -15.1465 C   0  0  0  0  0  0  0  0  0  0  0  0
   20.8933   -8.5277  -14.9178 C   0  0  2  0  0  0  0  0  0  0  0  0
   20.1419   -9.1999  -15.9303 N   0  0  0  0  0  0  0  0  0  0  0  0
   20.3580   -7.1795  -14.7135 C   0  0  0  0  0  0  0  0  0  0  0  0
   19.7714   -6.6059  -15.6676 O   0  0  0  0  0  0  0  0  0  0  0  0
   20.4413   -6.4571  -13.5301 O   0  0  0  0  0  0  0  0  0  0  0  0
  2  1  1  6
  2  6  1  0
  3  2  1  0
  3  4  1  0
  4  5  2  0
  4  8  1  0
  6  7  2  0
 10  9  1  6
 10 12  1  0
 11 10  1  0
 12 14  1  0
 13  6  1  0
 12 13  1  1
 14 21  1  0
 15 14  2  0
 17 16  1  1
 17 18  1  0
 19 17  1  0
 20 19  1  6
 21 20  1  0
 22 20  1  0
 23 22  2  0
 24 22  1  0
M  END
$$$$
