DTL.pdb
     RDKit          3D

 24 23  0  0  1  0  0  0  0  0999 V2000
   16.2296  -12.5590  -15.7855 N   0  0  0  0  0  0  0  0  0  0  0  0
   15.3380  -12.5314  -14.6111 C   0  0  1  0  0  0  0  0  0  0  0  0
   15.1925  -13.9464  -14.1460 C   0  0  0  0  0  0  0  0  0  0  0  0
   14.2823  -14.7218  -14.9956 C   0  0  0  0  0  0  0  0  0  0  0  0
   13.8484  -14.3219  -16.0968 O   0  0  0  0  0  0  0  0  0  0  0  0
   16.0474  -11.7206  -13.5821 C   0  0  0  0  0  0  0  0  0  0  0  0
   16.3768  -12.1813  -12.4427 O   0  0  0  0  0  0  0  0  0  0  0  0
   13.8356  -16.0007  -14.5997 O   0  0  0  0  0  0  0  0  0  0  0  0
   19.2930   -9.8801  -14.1493 C   0  0  0  0  0  0  0  0  0  0  0  0
   18.3014   -8.8964  -13.5921 C   0  0  1  0  0  0  0  0  0  0  0  0
   17.8194   -8.0264  -14.5583 O   0  0  0  0  0  0  0  0  0  0  0  0
   17.1843   -9.6220  -12.8900 C   0  0  2  0  0  0  0  0  0  0  0  0
   16.3811  -10.3703  -13.8643 N   0  0  0  0  0  0  0  0  0  0  0  0
   16.3179   -8.7160  -12.1207 C   0  0  0  0  0  0  0  0  0  0  0  0
   15.1977   -8.3742  -12.6226 O   0  0  0  0  0  0  0  0  0  0  0  0
   15.3551   -6.3170   -6.5916 C   0  0  0  0  0  0  0  0  0  0  0  0
   14.8887   -6.3691   -8.0570 C   0  0  2  0  0  0  0  0  0  0  0  0
   13.4151   -6.7865   -7.9441 C   0  0  0  0  0  0  0  0  0  0  0  0
   15.7139   -7.3981   -8.7509 C   0  0  0  0  0  0  0  0  0  0  0  0
   15.8605   -7.2052  -10.2395 C   0  0  2  0  0  0  0  0  0  0  0  0
   16.6665   -8.2104  -10.8571 N   0  0  0  0  0  0  0  0  0  0  0  0
   16.3227   -5.8764  -10.6477 C   0  0  0  0  0  0  0  0  0  0  0  0
   17.5557   -5.6832  -10.8086 O   0  0  0  0  0  0  0  0  0  0  0  0
   15.5014   -4.7806  -10.8798 O   0  0  0  0  0  0  0  0  0  0  0  0
  2  1  1  6
  2  6  1  0
  3  2  1  0
  3  4  1  0
  4  5  2  0
  4  8  1  0
  6  7  2  0
 10  9  1  6
 10 12  1  0
 11 10  1  0
 12 14  1  0
 13  6  1  0
 12 13  1  6
 14 21  1  0
 15 14  2  0
 17 16  1  1
 17 18  1  0
 19 17  1  0
 20 19  1  1
 21 20  1  0
 22 20  1  0
 23 22  2  0
 24 22  1  0
M  END
$$$$
