DTL.pdb
     RDKit          3D

 24 23  0  0  1  0  0  0  0  0999 V2000
   16.8685  -13.6251  -17.3114 N   0  0  0  0  0  0  0  0  0  0  0  0
   16.3270  -12.4096  -16.6757 C   0  0  1  0  0  0  0  0  0  0  0  0
   16.2535  -12.6866  -15.2068 C   0  0  0  0  0  0  0  0  0  0  0  0
   15.3512  -13.7999  -14.8938 C   0  0  0  0  0  0  0  0  0  0  0  0
   14.1505  -13.8396  -15.2365 O   0  0  0  0  0  0  0  0  0  0  0  0
   17.3195  -11.3326  -16.9483 C   0  0  0  0  0  0  0  0  0  0  0  0
   18.4893  -11.5641  -17.3921 O   0  0  0  0  0  0  0  0  0  0  0  0
   15.8082  -14.9194  -14.1659 O   0  0  0  0  0  0  0  0  0  0  0  0
   16.8323   -8.4427  -19.1554 C   0  0  0  0  0  0  0  0  0  0  0  0
   17.3152   -7.8586  -17.8566 C   0  0  1  0  0  0  0  0  0  0  0  0
   16.3128   -7.1865  -17.1738 O   0  0  0  0  0  0  0  0  0  0  0  0
   17.9467   -8.9286  -17.0058 C   0  0  2  0  0  0  0  0  0  0  0  0
   16.9654   -9.9790  -16.7096 N   0  0  0  0  0  0  0  0  0  0  0  0
   18.5028   -8.3981  -15.7518 C   0  0  0  0  0  0  0  0  0  0  0  0
   18.0820   -8.8781  -14.6490 O   0  0  0  0  0  0  0  0  0  0  0  0
   22.5190   -7.4447  -13.0066 C   0  0  0  0  0  0  0  0  0  0  0  0
   22.1098   -8.8685  -13.4226 C   0  0  2  0  0  0  0  0  0  0  0  0
   23.4426   -9.5149  -13.8279 C   0  0  0  0  0  0  0  0  0  0  0  0
   21.1712   -8.7440  -14.5735 C   0  0  0  0  0  0  0  0  0  0  0  0
   20.4888   -7.4052  -14.7024 C   0  0  2  0  0  0  0  0  0  0  0  0
   19.4780   -7.3874  -15.7121 N   0  0  0  0  0  0  0  0  0  0  0  0
   21.3922   -6.2661  -14.8825 C   0  0  0  0  0  0  0  0  0  0  0  0
   21.8599   -6.0348  -16.0276 O   0  0  0  0  0  0  0  0  0  0  0  0
   21.7900   -5.3945  -13.8770 O   0  0  0  0  0  0  0  0  0  0  0  0
  2  1  1  6
  2  6  1  0
  3  2  1  0
  3  4  1  0
  4  5  2  0
  4  8  1  0
  6  7  2  0
 10  9  1  6
 10 12  1  0
 11 10  1  0
 12 14  1  0
 13  6  1  0
 12 13  1  1
 14 21  1  0
 15 14  2  0
 17 16  1  6
 17 18  1  0
 19 17  1  0
 20 19  1  6
 21 20  1  0
 22 20  1  0
 23 22  2  0
 24 22  1  0
M  END
$$$$
