DTL.pdb
     RDKit          3D

 24 23  0  0  1  0  0  0  0  0999 V2000
   17.0782  -25.7889    4.9802 N   0  0  0  0  0  0  0  0  0  0  0  0
   18.4196  -25.3199    5.3749 C   0  0  1  0  0  0  0  0  0  0  0  0
   19.1326  -24.9408    4.1148 C   0  0  0  0  0  0  0  0  0  0  0  0
   19.5031  -26.1100    3.3104 C   0  0  0  0  0  0  0  0  0  0  0  0
   19.2590  -27.2892    3.6434 O   0  0  0  0  0  0  0  0  0  0  0  0
   18.1952  -24.1157    6.2227 C   0  0  0  0  0  0  0  0  0  0  0  0
   17.1085  -23.4540    6.2133 O   0  0  0  0  0  0  0  0  0  0  0  0
   20.1761  -25.9580    2.0792 O   0  0  0  0  0  0  0  0  0  0  0  0
   17.9173  -23.8978    9.7993 C   0  0  0  0  0  0  0  0  0  0  0  0
   19.0777  -23.0153    9.4304 C   0  0  1  0  0  0  0  0  0  0  0  0
   20.3010  -23.6250    9.6640 O   0  0  0  0  0  0  0  0  0  0  0  0
   18.9497  -22.5541    8.0026 C   0  0  2  0  0  0  0  0  0  0  0  0
   19.2272  -23.6682    7.0883 N   0  0  0  0  0  0  0  0  0  0  0  0
   19.8366  -21.4224    7.6930 C   0  0  0  0  0  0  0  0  0  0  0  0
   21.0064  -21.6696    7.2523 O   0  0  0  0  0  0  0  0  0  0  0  0
   19.5100  -17.7642    4.9931 C   0  0  0  0  0  0  0  0  0  0  0  0
   18.7438  -17.6317    6.3209 C   0  0  2  0  0  0  0  0  0  0  0  0
   18.0806  -16.2510    6.2097 C   0  0  0  0  0  0  0  0  0  0  0  0
   19.7470  -17.6876    7.4217 C   0  0  0  0  0  0  0  0  0  0  0  0
   20.3976  -19.0324    7.6284 C   0  0  2  0  0  0  0  0  0  0  0  0
   19.4543  -20.0807    7.8586 N   0  0  0  0  0  0  0  0  0  0  0  0
   21.4377  -19.0637    8.6595 C   0  0  0  0  0  0  0  0  0  0  0  0
   21.1810  -19.6019    9.7676 O   0  0  0  0  0  0  0  0  0  0  0  0
   22.7162  -18.5389    8.5215 O   0  0  0  0  0  0  0  0  0  0  0  0
  2  1  1  6
  2  6  1  0
  3  2  1  0
  3  4  1  0
  4  5  2  0
  4  8  1  0
  6  7  2  0
 10  9  1  6
 10 12  1  0
 11 10  1  0
 12 14  1  0
 13  6  1  0
 12 13  1  6
 14 21  1  0
 15 14  2  0
 17 16  1  6
 17 18  1  0
 19 17  1  0
 20 19  1  1
 21 20  1  0
 22 20  1  0
 23 22  2  0
 24 22  1  0
M  END
$$$$
