DTL.pdb
     RDKit          3D

 24 23  0  0  1  0  0  0  0  0999 V2000
   27.4636  -19.7038  -16.3466 N   0  0  0  0  0  0  0  0  0  0  0  0
   27.1441  -20.8695  -15.5016 C   0  0  1  0  0  0  0  0  0  0  0  0
   28.4475  -21.5067  -15.1341 C   0  0  0  0  0  0  0  0  0  0  0  0
   28.8946  -22.4797  -16.1364 C   0  0  0  0  0  0  0  0  0  0  0  0
   28.3302  -22.6538  -17.2372 O   0  0  0  0  0  0  0  0  0  0  0  0
   26.4781  -20.3201  -14.2875 C   0  0  0  0  0  0  0  0  0  0  0  0
   26.6788  -19.1380  -13.8618 O   0  0  0  0  0  0  0  0  0  0  0  0
   30.0220  -23.2956  -15.9009 O   0  0  0  0  0  0  0  0  0  0  0  0
   22.6463  -20.5126  -11.2841 C   0  0  0  0  0  0  0  0  0  0  0  0
   23.3736  -20.9235  -12.5345 C   0  0  1  0  0  0  0  0  0  0  0  0
   22.7808  -20.4178  -13.6815 O   0  0  0  0  0  0  0  0  0  0  0  0
   24.8266  -20.5390  -12.4435 C   0  0  2  0  0  0  0  0  0  0  0  0
   25.5745  -21.1350  -13.5568 N   0  0  0  0  0  0  0  0  0  0  0  0
   25.4366  -20.9346  -11.1649 C   0  0  0  0  0  0  0  0  0  0  0  0
   25.9248  -22.1070  -11.0612 O   0  0  0  0  0  0  0  0  0  0  0  0
   26.6129  -19.7209   -5.8768 C   0  0  0  0  0  0  0  0  0  0  0  0
   27.6811  -20.0167   -6.9442 C   0  0  2  0  0  0  0  0  0  0  0  0
   28.8590  -19.1266   -6.5213 C   0  0  0  0  0  0  0  0  0  0  0  0
   27.1162  -19.6141   -8.2633 C   0  0  0  0  0  0  0  0  0  0  0  0
   26.0717  -20.5460   -8.8247 C   0  0  2  0  0  0  0  0  0  0  0  0
   25.5079  -20.0800  -10.0521 N   0  0  0  0  0  0  0  0  0  0  0  0
   25.0020  -20.9089   -7.8919 C   0  0  0  0  0  0  0  0  0  0  0  0
   25.2628  -21.6892   -6.9398 O   0  0  0  0  0  0  0  0  0  0  0  0
   23.6905  -20.4576   -7.9649 O   0  0  0  0  0  0  0  0  0  0  0  0
  2  1  1  6
  2  6  1  0
  3  2  1  0
  3  4  1  0
  4  5  2  0
  4  8  1  0
  6  7  2  0
 10  9  1  1
 10 12  1  0
 11 10  1  0
 12 14  1  0
 13  6  1  0
 12 13  1  6
 14 21  1  0
 15 14  2  0
 17 16  1  1
 17 18  1  0
 19 17  1  0
 20 19  1  1
 21 20  1  0
 22 20  1  0
 23 22  2  0
 24 22  1  0
M  END
$$$$
