DTL.pdb
     RDKit          3D

 24 23  0  0  1  0  0  0  0  0999 V2000
   16.3036  -14.6579  -17.3185 N   0  0  0  0  0  0  0  0  0  0  0  0
   16.5902  -13.8805  -16.0984 C   0  0  1  0  0  0  0  0  0  0  0  0
   17.4693  -14.7340  -15.2391 C   0  0  0  0  0  0  0  0  0  0  0  0
   16.7323  -15.8320  -14.6046 C   0  0  0  0  0  0  0  0  0  0  0  0
   15.5038  -16.0148  -14.7397 O   0  0  0  0  0  0  0  0  0  0  0  0
   17.3312  -12.6706  -16.5530 C   0  0  0  0  0  0  0  0  0  0  0  0
   18.0726  -12.6596  -17.5870 O   0  0  0  0  0  0  0  0  0  0  0  0
   17.3946  -16.7687  -13.7825 O   0  0  0  0  0  0  0  0  0  0  0  0
   15.9608   -9.2097  -17.2723 C   0  0  0  0  0  0  0  0  0  0  0  0
   17.0528   -9.0727  -16.2476 C   0  0  1  0  0  0  0  0  0  0  0  0
   16.5567   -8.8360  -14.9745 O   0  0  0  0  0  0  0  0  0  0  0  0
   17.9522  -10.2801  -16.2784 C   0  0  2  0  0  0  0  0  0  0  0  0
   17.2195  -11.4640  -15.8140 N   0  0  0  0  0  0  0  0  0  0  0  0
   19.1688  -10.0988  -15.4721 C   0  0  0  0  0  0  0  0  0  0  0  0
   19.1552  -10.4811  -14.2566 O   0  0  0  0  0  0  0  0  0  0  0  0
   25.1831   -9.8049  -15.8547 C   0  0  0  0  0  0  0  0  0  0  0  0
   23.9787   -9.7101  -14.9017 C   0  0  2  0  0  0  0  0  0  0  0  0
   24.2263  -10.8518  -13.9049 C   0  0  0  0  0  0  0  0  0  0  0  0
   22.7490   -9.9290  -15.7147 C   0  0  0  0  0  0  0  0  0  0  0  0
   21.4835   -9.3525  -15.1309 C   0  0  2  0  0  0  0  0  0  0  0  0
   20.3468   -9.5252  -15.9792 N   0  0  0  0  0  0  0  0  0  0  0  0
   21.5800   -7.9536  -14.7069 C   0  0  0  0  0  0  0  0  0  0  0  0
   21.2517   -7.0478  -15.5163 O   0  0  0  0  0  0  0  0  0  0  0  0
   22.0128   -7.5246  -13.4588 O   0  0  0  0  0  0  0  0  0  0  0  0
  2  1  1  6
  2  6  1  0
  3  2  1  0
  3  4  1  0
  4  5  2  0
  4  8  1  0
  6  7  2  0
 10  9  1  6
 10 12  1  0
 11 10  1  0
 12 14  1  0
 13  6  1  0
 12 13  1  1
 14 21  1  0
 15 14  2  0
 17 16  1  6
 17 18  1  0
 19 17  1  0
 20 19  1  6
 21 20  1  0
 22 20  1  0
 23 22  2  0
 24 22  1  0
M  END
$$$$
