DTL.pdb
     RDKit          3D

 24 23  0  0  1  0  0  0  0  0999 V2000
   17.9113  -12.4699  -15.9871 N   0  0  0  0  0  0  0  0  0  0  0  0
   18.4325  -11.2820  -16.6887 C   0  0  1  0  0  0  0  0  0  0  0  0
   17.2530  -10.4193  -17.0121 C   0  0  0  0  0  0  0  0  0  0  0  0
   16.3557  -11.0451  -17.9891 C   0  0  0  0  0  0  0  0  0  0  0  0
   16.7393  -11.5324  -19.0736 O   0  0  0  0  0  0  0  0  0  0  0  0
   19.3233  -10.5931  -15.7134 C   0  0  0  0  0  0  0  0  0  0  0  0
   19.0037  -10.4037  -14.4965 O   0  0  0  0  0  0  0  0  0  0  0  0
   14.9681  -11.1316  -17.7462 O   0  0  0  0  0  0  0  0  0  0  0  0
   22.9141  -11.3590  -14.7790 C   0  0  0  0  0  0  0  0  0  0  0  0
   22.8544   -9.9345  -15.2570 C   0  0  1  0  0  0  0  0  0  0  0  0
   23.3824   -9.7813  -16.5300 O   0  0  0  0  0  0  0  0  0  0  0  0
   21.4436   -9.4146  -15.1737 C   0  0  2  0  0  0  0  0  0  0  0  0
   20.5913  -10.1184  -16.1393 N   0  0  0  0  0  0  0  0  0  0  0  0
   21.3619   -7.9639  -15.4014 C   0  0  0  0  0  0  0  0  0  0  0  0
   20.8142   -7.5465  -16.4735 O   0  0  0  0  0  0  0  0  0  0  0  0
   18.4710   -3.5595  -15.1280 C   0  0  0  0  0  0  0  0  0  0  0  0
   19.9879   -3.7979  -15.2265 C   0  0  2  0  0  0  0  0  0  0  0  0
   20.3107   -3.4231  -16.6804 C   0  0  0  0  0  0  0  0  0  0  0  0
   20.2309   -5.2421  -14.9500 C   0  0  0  0  0  0  0  0  0  0  0  0
   21.6755   -5.6201  -14.7384 C   0  0  2  0  0  0  0  0  0  0  0  0
   21.8582   -7.0155  -14.4913 N   0  0  0  0  0  0  0  0  0  0  0  0
   22.3755   -4.8380  -13.7165 C   0  0  0  0  0  0  0  0  0  0  0  0
   22.5489   -5.3417  -12.5766 O   0  0  0  0  0  0  0  0  0  0  0  0
   22.8790   -3.5561  -13.8966 O   0  0  0  0  0  0  0  0  0  0  0  0
  2  1  1  1
  2  6  1  0
  3  2  1  0
  3  4  1  0
  4  5  2  0
  4  8  1  0
  6  7  2  0
 10  9  1  6
 10 12  1  0
 11 10  1  0
 12 14  1  0
 13  6  1  0
 12 13  1  6
 14 21  1  0
 15 14  2  0
 17 16  1  6
 17 18  1  0
 19 17  1  0
 20 19  1  1
 21 20  1  0
 22 20  1  0
 23 22  2  0
 24 22  1  0
M  END
$$$$
