DTL.pdb
     RDKit          3D

 24 23  0  0  1  0  0  0  0  0999 V2000
   17.5995  -13.4302  -18.1039 N   0  0  0  0  0  0  0  0  0  0  0  0
   17.1011  -12.6260  -16.9727 C   0  0  1  0  0  0  0  0  0  0  0  0
   17.4687  -13.3636  -15.7234 C   0  0  0  0  0  0  0  0  0  0  0  0
   16.8011  -14.6661  -15.6280 C   0  0  0  0  0  0  0  0  0  0  0  0
   17.3692  -15.7130  -15.2511 O   0  0  0  0  0  0  0  0  0  0  0  0
   17.8341  -11.3308  -17.0415 C   0  0  0  0  0  0  0  0  0  0  0  0
   18.7902  -11.1178  -17.8536 O   0  0  0  0  0  0  0  0  0  0  0  0
   15.4387  -14.8080  -15.9680 O   0  0  0  0  0  0  0  0  0  0  0  0
   15.9738   -8.1166  -17.4110 C   0  0  0  0  0  0  0  0  0  0  0  0
   16.9885   -7.8883  -16.3249 C   0  0  1  0  0  0  0  0  0  0  0  0
   16.4090   -7.8109  -15.0675 O   0  0  0  0  0  0  0  0  0  0  0  0
   18.0590   -8.9460  -16.3798 C   0  0  2  0  0  0  0  0  0  0  0  0
   17.4658  -10.2721  -16.1709 N   0  0  0  0  0  0  0  0  0  0  0  0
   19.1291   -8.7182  -15.3968 C   0  0  0  0  0  0  0  0  0  0  0  0
   19.3154   -9.5912  -14.4876 O   0  0  0  0  0  0  0  0  0  0  0  0
   24.4263   -8.1049  -15.1024 C   0  0  0  0  0  0  0  0  0  0  0  0
   23.3565   -8.7712  -14.2197 C   0  0  2  0  0  0  0  0  0  0  0  0
   23.8884  -10.2004  -14.0381 C   0  0  0  0  0  0  0  0  0  0  0  0
   22.0725   -8.7399  -14.9756 C   0  0  0  0  0  0  0  0  0  0  0  0
   21.1724   -7.5710  -14.6622 C   0  0  2  0  0  0  0  0  0  0  0  0
   19.9573   -7.5835  -15.4138 N   0  0  0  0  0  0  0  0  0  0  0  0
   21.8089   -6.2558  -14.7670 C   0  0  0  0  0  0  0  0  0  0  0  0
   21.6271   -5.5723  -15.8078 O   0  0  0  0  0  0  0  0  0  0  0  0
   22.6166   -5.6788  -13.7955 O   0  0  0  0  0  0  0  0  0  0  0  0
  2  1  1  6
  2  6  1  0
  3  2  1  0
  3  4  1  0
  4  5  2  0
  4  8  1  0
  6  7  2  0
 10  9  1  6
 10 12  1  0
 11 10  1  0
 12 14  1  0
 13  6  1  0
 12 13  1  1
 14 21  1  0
 15 14  2  0
 17 16  1  6
 17 18  1  0
 19 17  1  0
 20 19  1  6
 21 20  1  0
 22 20  1  0
 23 22  2  0
 24 22  1  0
M  END
$$$$
