DTL.pdb
     RDKit          3D

 24 23  0  0  1  0  0  0  0  0999 V2000
   16.1136  -13.0765  -14.9344 N   0  0  0  0  0  0  0  0  0  0  0  0
   15.4677  -11.7644  -14.7439 C   0  0  1  0  0  0  0  0  0  0  0  0
   14.0688  -12.0343  -14.2854 C   0  0  0  0  0  0  0  0  0  0  0  0
   13.2255  -12.5754  -15.3566 C   0  0  0  0  0  0  0  0  0  0  0  0
   13.4293  -12.3719  -16.5723 O   0  0  0  0  0  0  0  0  0  0  0  0
   16.2409  -11.0839  -13.6676 C   0  0  0  0  0  0  0  0  0  0  0  0
   16.8990  -11.7163  -12.7811 O   0  0  0  0  0  0  0  0  0  0  0  0
   12.1045  -13.3796  -15.0593 O   0  0  0  0  0  0  0  0  0  0  0  0
   19.0576   -8.9718  -14.0775 C   0  0  0  0  0  0  0  0  0  0  0  0
   18.1201   -8.1364  -13.2500 C   0  0  1  0  0  0  0  0  0  0  0  0
   17.5349   -7.1151  -13.9830 O   0  0  0  0  0  0  0  0  0  0  0  0
   17.0864   -9.0103  -12.5902 C   0  0  2  0  0  0  0  0  0  0  0  0
   16.2585   -9.6659  -13.6094 N   0  0  0  0  0  0  0  0  0  0  0  0
   16.2294   -8.2644  -11.6561 C   0  0  0  0  0  0  0  0  0  0  0  0
   14.9677   -8.2960  -11.8311 O   0  0  0  0  0  0  0  0  0  0  0  0
   12.9045   -7.9726   -7.5823 C   0  0  0  0  0  0  0  0  0  0  0  0
   13.8510   -6.9222   -8.1892 C   0  0  2  0  0  0  0  0  0  0  0  0
   12.8973   -5.9739   -8.9307 C   0  0  0  0  0  0  0  0  0  0  0  0
   14.7712   -7.6360   -9.1191 C   0  0  0  0  0  0  0  0  0  0  0  0
   15.8489   -6.7805   -9.7367 C   0  0  2  0  0  0  0  0  0  0  0  0
   16.7363   -7.5195  -10.5781 N   0  0  0  0  0  0  0  0  0  0  0  0
   16.6196   -5.9757   -8.7857 C   0  0  0  0  0  0  0  0  0  0  0  0
   16.0584   -5.0057   -8.2133 O   0  0  0  0  0  0  0  0  0  0  0  0
   17.9497   -6.1919   -8.4493 O   0  0  0  0  0  0  0  0  0  0  0  0
  2  1  1  1
  2  6  1  0
  3  2  1  0
  3  4  1  0
  4  5  2  0
  4  8  1  0
  6  7  2  0
 10  9  1  6
 10 12  1  0
 11 10  1  0
 12 14  1  0
 13  6  1  0
 12 13  1  6
 14 21  1  0
 15 14  2  0
 17 16  1  6
 17 18  1  0
 19 17  1  0
 20 19  1  1
 21 20  1  0
 22 20  1  0
 23 22  2  0
 24 22  1  0
M  END
$$$$
