DTL.pdb
     RDKit          3D

 24 23  0  0  1  0  0  0  0  0999 V2000
   18.6066  -13.7348  -15.0076 N   0  0  0  0  0  0  0  0  0  0  0  0
   18.8646  -13.8627  -16.4540 C   0  0  1  0  0  0  0  0  0  0  0  0
   17.5648  -14.2400  -17.0928 C   0  0  0  0  0  0  0  0  0  0  0  0
   17.1357  -15.5939  -16.7263 C   0  0  0  0  0  0  0  0  0  0  0  0
   17.9231  -16.5432  -16.5273 O   0  0  0  0  0  0  0  0  0  0  0  0
   19.2905  -12.5103  -16.9113 C   0  0  0  0  0  0  0  0  0  0  0  0
   19.6251  -12.2583  -18.1127 O   0  0  0  0  0  0  0  0  0  0  0  0
   15.7671  -15.9035  -16.5747 O   0  0  0  0  0  0  0  0  0  0  0  0
   17.5929   -9.1289  -16.8024 C   0  0  0  0  0  0  0  0  0  0  0  0
   18.8639   -9.0485  -16.0027 C   0  0  1  0  0  0  0  0  0  0  0  0
   18.6319   -9.0823  -14.6361 O   0  0  0  0  0  0  0  0  0  0  0  0
   19.8199  -10.1301  -16.4316 C   0  0  2  0  0  0  0  0  0  0  0  0
   19.3320  -11.4390  -15.9812 N   0  0  0  0  0  0  0  0  0  0  0  0
   21.1851   -9.9080  -15.9316 C   0  0  0  0  0  0  0  0  0  0  0  0
   21.7161  -10.8025  -15.1957 O   0  0  0  0  0  0  0  0  0  0  0  0
   26.3418  -10.5650  -17.0220 C   0  0  0  0  0  0  0  0  0  0  0  0
   25.5771   -9.7706  -15.9488 C   0  0  2  0  0  0  0  0  0  0  0  0
   25.9068  -10.5224  -14.6509 C   0  0  0  0  0  0  0  0  0  0  0  0
   24.1278   -9.8431  -16.2889 C   0  0  0  0  0  0  0  0  0  0  0  0
   23.3021   -8.6674  -15.8301 C   0  0  2  0  0  0  0  0  0  0  0  0
   21.9328   -8.7561  -16.2284 N   0  0  0  0  0  0  0  0  0  0  0  0
   23.8416   -7.3545  -16.1924 C   0  0  0  0  0  0  0  0  0  0  0  0
   23.4819   -6.8261  -17.2763 O   0  0  0  0  0  0  0  0  0  0  0  0
   24.7385   -6.6200  -15.4274 O   0  0  0  0  0  0  0  0  0  0  0  0
  2  1  1  1
  2  6  1  0
  3  2  1  0
  3  4  1  0
  4  5  2  0
  4  8  1  0
  6  7  2  0
 10  9  1  6
 10 12  1  0
 11 10  1  0
 12 14  1  0
 13  6  1  0
 12 13  1  1
 14 21  1  0
 15 14  2  0
 17 16  1  6
 17 18  1  0
 19 17  1  0
 20 19  1  6
 21 20  1  0
 22 20  1  0
 23 22  2  0
 24 22  1  0
M  END
$$$$
