DTL.pdb
     RDKit          3D

 24 23  0  0  1  0  0  0  0  0999 V2000
   15.6590  -13.2685  -17.1743 N   0  0  0  0  0  0  0  0  0  0  0  0
   15.9881  -12.3854  -16.0399 C   0  0  1  0  0  0  0  0  0  0  0  0
   16.5065  -13.2641  -14.9449 C   0  0  0  0  0  0  0  0  0  0  0  0
   15.4659  -14.1365  -14.3902 C   0  0  0  0  0  0  0  0  0  0  0  0
   14.3614  -13.7253  -13.9759 O   0  0  0  0  0  0  0  0  0  0  0  0
   17.0659  -11.4809  -16.5292 C   0  0  0  0  0  0  0  0  0  0  0  0
   17.8998  -11.8195  -17.4286 O   0  0  0  0  0  0  0  0  0  0  0  0
   15.6657  -15.5303  -14.2930 O   0  0  0  0  0  0  0  0  0  0  0  0
   16.5098   -8.4468  -18.3525 C   0  0  0  0  0  0  0  0  0  0  0  0
   17.3170   -8.0437  -17.1495 C   0  0  1  0  0  0  0  0  0  0  0  0
   16.5380   -7.4628  -16.1603 O   0  0  0  0  0  0  0  0  0  0  0  0
   18.0954   -9.2211  -16.6247 C   0  0  2  0  0  0  0  0  0  0  0  0
   17.1867  -10.1773  -15.9812 N   0  0  0  0  0  0  0  0  0  0  0  0
   19.1516   -8.8246  -15.6810 C   0  0  0  0  0  0  0  0  0  0  0  0
   18.8548   -8.7170  -14.4465 O   0  0  0  0  0  0  0  0  0  0  0  0
   23.1265  -10.5617  -14.2030 C   0  0  0  0  0  0  0  0  0  0  0  0
   23.1428   -9.9779  -15.6265 C   0  0  2  0  0  0  0  0  0  0  0  0
   24.5757  -10.2539  -16.1052 C   0  0  0  0  0  0  0  0  0  0  0  0
   22.8579   -8.5194  -15.5133 C   0  0  0  0  0  0  0  0  0  0  0  0
   21.4481   -8.1713  -15.1062 C   0  0  2  0  0  0  0  0  0  0  0  0
   20.4736   -8.5603  -16.0762 N   0  0  0  0  0  0  0  0  0  0  0  0
   21.2421   -6.7712  -14.7278 C   0  0  0  0  0  0  0  0  0  0  0  0
   20.6581   -6.0018  -15.5343 O   0  0  0  0  0  0  0  0  0  0  0  0
   21.6437   -6.2002  -13.5271 O   0  0  0  0  0  0  0  0  0  0  0  0
  2  1  1  6
  2  6  1  0
  3  2  1  0
  3  4  1  0
  4  5  2  0
  4  8  1  0
  6  7  2  0
 10  9  1  6
 10 12  1  0
 11 10  1  0
 12 14  1  0
 13  6  1  0
 12 13  1  1
 14 21  1  0
 15 14  2  0
 17 16  1  1
 17 18  1  0
 19 17  1  0
 20 19  1  6
 21 20  1  0
 22 20  1  0
 23 22  2  0
 24 22  1  0
M  END
$$$$
