KKG.pdb
     RDKit          3D

 23 22  0  0  1  0  0  0  0  0999 V2000
   18.2607  -12.5528  -17.6422 N   0  0  0  0  0  0  0  0  0  0  0  0
   19.4987  -12.2625  -16.9518 C   0  0  1  0  0  0  0  0  0  0  0  0
   20.6577  -12.7985  -17.7412 C   0  0  0  0  0  0  0  0  0  0  0  0
   21.1004  -14.1326  -17.2689 C   0  0  0  0  0  0  0  0  0  0  0  0
   20.2498  -15.3001  -17.6453 C   0  0  0  0  0  0  0  0  0  0  0  0
   20.8956  -16.5815  -17.0944 C   0  0  0  0  0  0  0  0  0  0  0  0
   20.0576  -17.7299  -17.3526 N   0  0  0  0  0  0  0  0  0  0  0  0
   19.6063  -10.7794  -16.7892 C   0  0  0  0  0  0  0  0  0  0  0  0
   20.0114  -10.0593  -17.7357 O   0  0  0  0  0  0  0  0  0  0  0  0
   19.2598  -10.1246  -15.5768 N   0  0  0  0  0  0  0  0  0  0  0  0
   19.2516   -8.6716  -15.4466 C   0  0  1  0  0  0  0  0  0  0  0  0
   17.8899   -8.1240  -15.2296 C   0  0  0  0  0  0  0  0  0  0  0  0
   16.9788   -8.4373  -16.3615 C   0  0  0  0  0  0  0  0  0  0  0  0
   15.5655   -7.9991  -16.2509 C   0  0  0  0  0  0  0  0  0  0  0  0
   14.6286   -8.4522  -17.3093 C   0  0  0  0  0  0  0  0  0  0  0  0
   13.2550   -8.1546  -17.0390 N   0  0  0  0  0  0  0  0  0  0  0  0
   20.2265   -8.1984  -14.4819 C   0  0  0  0  0  0  0  0  0  0  0  0
   20.2919   -8.4642  -13.2565 O   0  0  0  0  0  0  0  0  0  0  0  0
   21.2837   -7.3042  -14.9252 N   0  0  0  0  0  0  0  0  0  0  0  0
   22.2400   -6.7638  -14.0031 C   0  0  0  0  0  0  0  0  0  0  0  0
   21.8084   -5.4220  -13.5737 C   0  0  0  0  0  0  0  0  0  0  0  0
   22.5478   -4.6228  -12.7360 O   0  0  0  0  0  0  0  0  0  0  0  0
   20.7039   -4.9550  -13.9766 O   0  0  0  0  0  0  0  0  0  0  0  0
  2  1  1  6
  3  2  1  0
  4  3  1  0
  5  4  1  0
  6  5  1  0
  7  6  1  0
  8  9  2  0
  8  2  1  0
 10  8  1  0
 11 10  1  0
 11 12  1  1
 13 12  1  0
 13 14  1  0
 15 14  1  0
 16 15  1  0
 17 11  1  0
 18 17  2  0
 19 17  1  0
 20 19  1  0
 21 20  1  0
 21 22  1  0
 23 21  2  0
M  END
$$$$
