KKG.pdb
     RDKit          3D

 23 22  0  0  1  0  0  0  0  0999 V2000
   27.5693  -19.3553  -13.5012 N   0  0  0  0  0  0  0  0  0  0  0  0
   26.9728  -20.6419  -13.2142 C   0  0  1  0  0  0  0  0  0  0  0  0
   26.8445  -20.8219  -11.7293 C   0  0  0  0  0  0  0  0  0  0  0  0
   28.1451  -20.7046  -11.0268 C   0  0  0  0  0  0  0  0  0  0  0  0
   29.1665  -21.7545  -11.3141 C   0  0  0  0  0  0  0  0  0  0  0  0
   30.4599  -21.4069  -10.5599 C   0  0  0  0  0  0  0  0  0  0  0  0
   31.4875  -22.3874  -10.8251 N   0  0  0  0  0  0  0  0  0  0  0  0
   25.6314  -20.6926  -13.8741 C   0  0  0  0  0  0  0  0  0  0  0  0
   24.7021  -19.9372  -13.4942 O   0  0  0  0  0  0  0  0  0  0  0  0
   25.3489  -21.5820  -14.9456 N   0  0  0  0  0  0  0  0  0  0  0  0
   24.0271  -21.6781  -15.5553 C   0  0  1  0  0  0  0  0  0  0  0  0
   24.0724  -22.2117  -16.9389 C   0  0  0  0  0  0  0  0  0  0  0  0
   23.1097  -21.5171  -17.8334 C   0  0  0  0  0  0  0  0  0  0  0  0
   23.4118  -20.1158  -18.2165 C   0  0  0  0  0  0  0  0  0  0  0  0
   22.4438  -19.4316  -19.1098 C   0  0  0  0  0  0  0  0  0  0  0  0
   22.7638  -18.0625  -19.3773 N   0  0  0  0  0  0  0  0  0  0  0  0
   23.0740  -22.3623  -14.7018 C   0  0  0  0  0  0  0  0  0  0  0  0
   23.3064  -23.2351  -13.8295 O   0  0  0  0  0  0  0  0  0  0  0  0
   21.6607  -22.0428  -14.8216 N   0  0  0  0  0  0  0  0  0  0  0  0
   20.6808  -22.6644  -13.9789 C   0  0  0  0  0  0  0  0  0  0  0  0
   20.1022  -21.6595  -13.0698 C   0  0  0  0  0  0  0  0  0  0  0  0
   19.0750  -21.9312  -12.1991 O   0  0  0  0  0  0  0  0  0  0  0  0
   20.5495  -20.4762  -13.0697 O   0  0  0  0  0  0  0  0  0  0  0  0
  2  1  1  1
  3  2  1  0
  4  3  1  0
  5  4  1  0
  6  5  1  0
  7  6  1  0
  8  9  2  0
  8  2  1  0
 10  8  1  0
 11 10  1  0
 11 12  1  6
 13 12  1  0
 13 14  1  0
 15 14  1  0
 16 15  1  0
 17 11  1  0
 18 17  2  0
 19 17  1  0
 20 19  1  0
 21 20  1  0
 21 22  1  0
 23 21  2  0
M  END
$$$$
