KKG.pdb
     RDKit          3D

 23 22  0  0  1  0  0  0  0  0999 V2000
   25.4489  -22.1785  -17.9828 N   0  0  0  0  0  0  0  0  0  0  0  0
   25.4750  -21.3995  -16.7637 C   0  0  1  0  0  0  0  0  0  0  0  0
   26.6761  -20.4989  -16.7626 C   0  0  0  0  0  0  0  0  0  0  0  0
   27.9034  -21.1867  -16.2940 C   0  0  0  0  0  0  0  0  0  0  0  0
   28.4982  -22.2066  -17.2073 C   0  0  0  0  0  0  0  0  0  0  0  0
   29.8092  -22.7194  -16.5905 C   0  0  0  0  0  0  0  0  0  0  0  0
   30.4058  -23.7361  -17.4260 N   0  0  0  0  0  0  0  0  0  0  0  0
   24.2118  -20.6016  -16.6919 C   0  0  0  0  0  0  0  0  0  0  0  0
   23.6520  -20.1934  -17.7400 O   0  0  0  0  0  0  0  0  0  0  0  0
   23.5938  -20.2738  -15.4552 N   0  0  0  0  0  0  0  0  0  0  0  0
   22.3838  -19.4629  -15.3756 C   0  0  1  0  0  0  0  0  0  0  0  0
   21.4669  -19.9073  -14.2970 C   0  0  0  0  0  0  0  0  0  0  0  0
   20.1076  -19.3254  -14.4494 C   0  0  0  0  0  0  0  0  0  0  0  0
   19.1043  -19.6327  -13.4003 C   0  0  0  0  0  0  0  0  0  0  0  0
   17.7412  -19.0728  -13.5786 C   0  0  0  0  0  0  0  0  0  0  0  0
   16.7858  -19.5485  -12.6250 N   0  0  0  0  0  0  0  0  0  0  0  0
   22.6730  -18.0416  -15.3406 C   0  0  0  0  0  0  0  0  0  0  0  0
   23.3590  -17.4139  -14.4967 O   0  0  0  0  0  0  0  0  0  0  0  0
   22.1323  -17.1839  -16.3825 N   0  0  0  0  0  0  0  0  0  0  0  0
   22.3993  -15.7750  -16.4029 C   0  0  0  0  0  0  0  0  0  0  0  0
   21.7008  -15.1563  -17.5434 C   0  0  0  0  0  0  0  0  0  0  0  0
   21.0704  -13.9379  -17.4722 O   0  0  0  0  0  0  0  0  0  0  0  0
   21.6582  -15.7542  -18.6574 O   0  0  0  0  0  0  0  0  0  0  0  0
  2  1  1  6
  3  2  1  0
  4  3  1  0
  5  4  1  0
  6  5  1  0
  7  6  1  0
  8  9  2  0
  8  2  1  0
 10  8  1  0
 11 10  1  0
 11 12  1  1
 13 12  1  0
 13 14  1  0
 15 14  1  0
 16 15  1  0
 17 11  1  0
 18 17  2  0
 19 17  1  0
 20 19  1  0
 21 20  1  0
 21 22  1  0
 23 21  2  0
M  END
$$$$
