KKG.pdb
     RDKit          3D

 23 22  0  0  1  0  0  0  0  0999 V2000
   28.5599  -24.7554  -16.8810 N   0  0  0  0  0  0  0  0  0  0  0  0
   27.1626  -25.1100  -17.0053 C   0  0  1  0  0  0  0  0  0  0  0  0
   26.9661  -26.5449  -16.6101 C   0  0  0  0  0  0  0  0  0  0  0  0
   27.6948  -27.4848  -17.4958 C   0  0  0  0  0  0  0  0  0  0  0  0
   27.4983  -28.9428  -17.2432 C   0  0  0  0  0  0  0  0  0  0  0  0
   28.3745  -29.7379  -18.2242 C   0  0  0  0  0  0  0  0  0  0  0  0
   28.3642  -31.1451  -17.8963 N   0  0  0  0  0  0  0  0  0  0  0  0
   26.3694  -24.2012  -16.1208 C   0  0  0  0  0  0  0  0  0  0  0  0
   26.9198  -23.5941  -15.1684 O   0  0  0  0  0  0  0  0  0  0  0  0
   24.9786  -23.9834  -16.3132 N   0  0  0  0  0  0  0  0  0  0  0  0
   24.1902  -23.1314  -15.4296 C   0  0  1  0  0  0  0  0  0  0  0  0
   24.1346  -21.7229  -15.8923 C   0  0  0  0  0  0  0  0  0  0  0  0
   23.4655  -20.8393  -14.9018 C   0  0  0  0  0  0  0  0  0  0  0  0
   22.0216  -20.5570  -15.0940 C   0  0  0  0  0  0  0  0  0  0  0  0
   21.4008  -19.5497  -14.1978 C   0  0  0  0  0  0  0  0  0  0  0  0
   20.0304  -19.2669  -14.4987 N   0  0  0  0  0  0  0  0  0  0  0  0
   22.8864  -23.6966  -15.1366 C   0  0  0  0  0  0  0  0  0  0  0  0
   21.9516  -23.9380  -15.9394 O   0  0  0  0  0  0  0  0  0  0  0  0
   22.5603  -24.0487  -13.7642 N   0  0  0  0  0  0  0  0  0  0  0  0
   21.3186  -24.6845  -13.4316 C   0  0  0  0  0  0  0  0  0  0  0  0
   20.3056  -23.6595  -13.1243 C   0  0  0  0  0  0  0  0  0  0  0  0
   19.0109  -23.9579  -12.7755 O   0  0  0  0  0  0  0  0  0  0  0  0
   20.6114  -22.4332  -13.1793 O   0  0  0  0  0  0  0  0  0  0  0  0
  2  1  1  1
  3  2  1  0
  4  3  1  0
  5  4  1  0
  6  5  1  0
  7  6  1  0
  8  9  2  0
  8  2  1  0
 10  8  1  0
 11 10  1  0
 11 12  1  6
 13 12  1  0
 13 14  1  0
 15 14  1  0
 16 15  1  0
 17 11  1  0
 18 17  2  0
 19 17  1  0
 20 19  1  0
 21 20  1  0
 21 22  1  0
 23 21  2  0
M  END
$$$$
