KKG.pdb
     RDKit          3D

 23 22  0  0  1  0  0  0  0  0999 V2000
   27.6605  -14.2398  -21.0890 N   0  0  0  0  0  0  0  0  0  0  0  0
   27.2897  -13.7515  -19.7784 C   0  0  1  0  0  0  0  0  0  0  0  0
   26.8113  -14.8926  -18.9283 C   0  0  0  0  0  0  0  0  0  0  0  0
   25.6962  -15.6421  -19.5559 C   0  0  0  0  0  0  0  0  0  0  0  0
   25.2077  -16.8557  -18.8372 C   0  0  0  0  0  0  0  0  0  0  0  0
   24.2035  -17.5936  -19.7369 C   0  0  0  0  0  0  0  0  0  0  0  0
   23.7328  -18.8008  -19.0976 N   0  0  0  0  0  0  0  0  0  0  0  0
   28.4884  -13.0985  -19.1667 C   0  0  0  0  0  0  0  0  0  0  0  0
   28.4300  -12.6061  -18.0122 O   0  0  0  0  0  0  0  0  0  0  0  0
   29.7307  -13.0066  -19.8502 N   0  0  0  0  0  0  0  0  0  0  0  0
   30.9110  -12.3947  -19.2497 C   0  0  1  0  0  0  0  0  0  0  0  0
   32.1564  -13.1470  -19.5403 C   0  0  0  0  0  0  0  0  0  0  0  0
   33.3230  -12.5954  -18.8027 C   0  0  0  0  0  0  0  0  0  0  0  0
   34.6314  -13.2737  -18.9749 C   0  0  0  0  0  0  0  0  0  0  0  0
   35.7873  -12.7211  -18.2254 C   0  0  0  0  0  0  0  0  0  0  0  0
   36.9898  -13.4852  -18.3612 N   0  0  0  0  0  0  0  0  0  0  0  0
   31.0086  -10.9775  -19.5446 C   0  0  0  0  0  0  0  0  0  0  0  0
   31.1405  -10.4297  -20.6668 O   0  0  0  0  0  0  0  0  0  0  0  0
   30.9528  -10.0218  -18.4503 N   0  0  0  0  0  0  0  0  0  0  0  0
   31.0909   -8.6132  -18.6816 C   0  0  0  0  0  0  0  0  0  0  0  0
   30.8525   -7.8807  -17.4255 C   0  0  0  0  0  0  0  0  0  0  0  0
   31.0087   -6.5215  -17.3025 O   0  0  0  0  0  0  0  0  0  0  0  0
   30.4882   -8.5073  -16.3886 O   0  0  0  0  0  0  0  0  0  0  0  0
  2  1  1  6
  3  2  1  0
  4  3  1  0
  5  4  1  0
  6  5  1  0
  7  6  1  0
  8  9  2  0
  8  2  1  0
 10  8  1  0
 11 10  1  0
 11 12  1  6
 13 12  1  0
 13 14  1  0
 15 14  1  0
 16 15  1  0
 17 11  1  0
 18 17  2  0
 19 17  1  0
 20 19  1  0
 21 20  1  0
 21 22  1  0
 23 21  2  0
M  END
$$$$
