KKG.pdb
     RDKit          3D

 23 22  0  0  1  0  0  0  0  0999 V2000
   21.4238  -21.1502  -12.3314 N   0  0  0  0  0  0  0  0  0  0  0  0
   20.8940  -21.0807  -13.6760 C   0  0  1  0  0  0  0  0  0  0  0  0
   19.4365  -20.7239  -13.6293 C   0  0  0  0  0  0  0  0  0  0  0  0
   18.5559  -21.9150  -13.6981 C   0  0  0  0  0  0  0  0  0  0  0  0
   18.7081  -22.9324  -12.6164 C   0  0  0  0  0  0  0  0  0  0  0  0
   17.7036  -24.0697  -12.8613 C   0  0  0  0  0  0  0  0  0  0  0  0
   17.9005  -25.1410  -11.9118 N   0  0  0  0  0  0  0  0  0  0  0  0
   21.6702  -20.0490  -14.4314 C   0  0  0  0  0  0  0  0  0  0  0  0
   21.5657  -18.8307  -14.1426 O   0  0  0  0  0  0  0  0  0  0  0  0
   22.5498  -20.3920  -15.4933 N   0  0  0  0  0  0  0  0  0  0  0  0
   23.3545  -19.3980  -16.1951 C   0  0  1  0  0  0  0  0  0  0  0  0
   24.5593  -19.9836  -16.8329 C   0  0  0  0  0  0  0  0  0  0  0  0
   25.4647  -20.6127  -15.8359 C   0  0  0  0  0  0  0  0  0  0  0  0
   26.7471  -21.1749  -16.3270 C   0  0  0  0  0  0  0  0  0  0  0  0
   27.6950  -21.6949  -15.3100 C   0  0  0  0  0  0  0  0  0  0  0  0
   28.8383  -22.3555  -15.8620 N   0  0  0  0  0  0  0  0  0  0  0  0
   22.5618  -18.5816  -17.0952 C   0  0  0  0  0  0  0  0  0  0  0  0
   21.6224  -18.9473  -17.8440 O   0  0  0  0  0  0  0  0  0  0  0  0
   22.8386  -17.1573  -17.1874 N   0  0  0  0  0  0  0  0  0  0  0  0
   22.1357  -16.3187  -18.1144 C   0  0  0  0  0  0  0  0  0  0  0  0
   22.5959  -14.9265  -17.9679 C   0  0  0  0  0  0  0  0  0  0  0  0
   22.1037  -13.8856  -18.7171 O   0  0  0  0  0  0  0  0  0  0  0  0
   23.4915  -14.6434  -17.1206 O   0  0  0  0  0  0  0  0  0  0  0  0
  2  1  1  1
  3  2  1  0
  4  3  1  0
  5  4  1  0
  6  5  1  0
  7  6  1  0
  8  9  2  0
  8  2  1  0
 10  8  1  0
 11 10  1  0
 11 12  1  6
 13 12  1  0
 13 14  1  0
 15 14  1  0
 16 15  1  0
 17 11  1  0
 18 17  2  0
 19 17  1  0
 20 19  1  0
 21 20  1  0
 21 22  1  0
 23 21  2  0
M  END
$$$$
