KKG.pdb
     RDKit          3D

 23 22  0  0  1  0  0  0  0  0999 V2000
   22.2525  -21.6204  -14.6388 N   0  0  0  0  0  0  0  0  0  0  0  0
   22.1830  -20.2886  -14.0776 C   0  0  1  0  0  0  0  0  0  0  0  0
   21.1192  -20.2387  -13.0195 C   0  0  0  0  0  0  0  0  0  0  0  0
   19.9355  -21.0635  -13.3623 C   0  0  0  0  0  0  0  0  0  0  0  0
   19.7341  -22.3171  -12.5773 C   0  0  0  0  0  0  0  0  0  0  0  0
   18.4064  -22.9620  -13.0059 C   0  0  0  0  0  0  0  0  0  0  0  0
   18.2813  -24.2922  -12.4559 N   0  0  0  0  0  0  0  0  0  0  0  0
   23.5222  -19.9537  -13.5017 C   0  0  0  0  0  0  0  0  0  0  0  0
   23.6813  -18.9149  -12.8130 O   0  0  0  0  0  0  0  0  0  0  0  0
   24.6596  -20.7814  -13.7014 N   0  0  0  0  0  0  0  0  0  0  0  0
   26.0164  -20.3306  -13.4116 C   0  0  1  0  0  0  0  0  0  0  0  0
   26.7560  -21.2694  -12.5324 C   0  0  0  0  0  0  0  0  0  0  0  0
   28.1177  -20.7697  -12.2078 C   0  0  0  0  0  0  0  0  0  0  0  0
   28.9754  -21.6172  -11.3431 C   0  0  0  0  0  0  0  0  0  0  0  0
   30.3089  -21.0803  -10.9731 C   0  0  0  0  0  0  0  0  0  0  0  0
   30.9738  -21.8253   -9.9479 N   0  0  0  0  0  0  0  0  0  0  0  0
   26.7451  -19.9656  -14.6120 C   0  0  0  0  0  0  0  0  0  0  0  0
   27.0487  -20.7001  -15.5841 O   0  0  0  0  0  0  0  0  0  0  0  0
   27.2076  -18.5963  -14.7698 N   0  0  0  0  0  0  0  0  0  0  0  0
   28.0017  -18.2018  -15.8970 C   0  0  0  0  0  0  0  0  0  0  0  0
   27.1239  -17.6951  -16.9665 C   0  0  0  0  0  0  0  0  0  0  0  0
   27.2078  -16.4206  -17.4721 O   0  0  0  0  0  0  0  0  0  0  0  0
   26.2350  -18.4461  -17.4627 O   0  0  0  0  0  0  0  0  0  0  0  0
  2  1  1  1
  3  2  1  0
  4  3  1  0
  5  4  1  0
  6  5  1  0
  7  6  1  0
  8  9  2  0
  8  2  1  0
 10  8  1  0
 11 10  1  0
 11 12  1  6
 13 12  1  0
 13 14  1  0
 15 14  1  0
 16 15  1  0
 17 11  1  0
 18 17  2  0
 19 17  1  0
 20 19  1  0
 21 20  1  0
 21 22  1  0
 23 21  2  0
M  END
$$$$
