KKG.pdb
     RDKit          3D

 23 22  0  0  1  0  0  0  0  0999 V2000
   23.3842  -21.6081  -11.9705 N   0  0  0  0  0  0  0  0  0  0  0  0
   23.2501  -20.2456  -12.4384 C   0  0  1  0  0  0  0  0  0  0  0  0
   24.3800  -19.4127  -11.9061 C   0  0  0  0  0  0  0  0  0  0  0  0
   25.4125  -20.2257  -11.2190 C   0  0  0  0  0  0  0  0  0  0  0  0
   26.6581  -20.5254  -11.9852 C   0  0  0  0  0  0  0  0  0  0  0  0
   27.6751  -21.1837  -11.0393 C   0  0  0  0  0  0  0  0  0  0  0  0
   28.8369  -21.6358  -11.7698 N   0  0  0  0  0  0  0  0  0  0  0  0
   23.2602  -20.2621  -13.9341 C   0  0  0  0  0  0  0  0  0  0  0  0
   23.6539  -21.2776  -14.5605 O   0  0  0  0  0  0  0  0  0  0  0  0
   22.8306  -19.1489  -14.7055 N   0  0  0  0  0  0  0  0  0  0  0  0
   22.8812  -19.1405  -16.1634 C   0  0  1  0  0  0  0  0  0  0  0  0
   22.0049  -18.1030  -16.7607 C   0  0  0  0  0  0  0  0  0  0  0  0
   20.5862  -18.5426  -16.8215 C   0  0  0  0  0  0  0  0  0  0  0  0
   19.7310  -18.2786  -15.6380 C   0  0  0  0  0  0  0  0  0  0  0  0
   18.3035  -18.6752  -15.7289 C   0  0  0  0  0  0  0  0  0  0  0  0
   17.5422  -18.3885  -14.5514 N   0  0  0  0  0  0  0  0  0  0  0  0
   24.2410  -19.1107  -16.6683 C   0  0  0  0  0  0  0  0  0  0  0  0
   25.1665  -18.3250  -16.3476 O   0  0  0  0  0  0  0  0  0  0  0  0
   24.6452  -20.0838  -17.6700 N   0  0  0  0  0  0  0  0  0  0  0  0
   25.9821  -20.1104  -18.1884 C   0  0  0  0  0  0  0  0  0  0  0  0
   26.7892  -21.0775  -17.4239 C   0  0  0  0  0  0  0  0  0  0  0  0
   28.1155  -21.3251  -17.6817 O   0  0  0  0  0  0  0  0  0  0  0  0
   26.2620  -21.7319  -16.4783 O   0  0  0  0  0  0  0  0  0  0  0  0
  2  1  1  1
  3  2  1  0
  4  3  1  0
  5  4  1  0
  6  5  1  0
  7  6  1  0
  8  9  2  0
  8  2  1  0
 10  8  1  0
 11 10  1  0
 11 12  1  1
 13 12  1  0
 13 14  1  0
 15 14  1  0
 16 15  1  0
 17 11  1  0
 18 17  2  0
 19 17  1  0
 20 19  1  0
 21 20  1  0
 21 22  1  0
 23 21  2  0
M  END
$$$$
