KKG.pdb
     RDKit          3D

 23 22  0  0  1  0  0  0  0  0999 V2000
   25.6045  -23.4434  -16.2206 N   0  0  0  0  0  0  0  0  0  0  0  0
   24.5116  -24.3628  -15.9882 C   0  0  1  0  0  0  0  0  0  0  0  0
   25.0447  -25.6593  -15.4509 C   0  0  0  0  0  0  0  0  0  0  0  0
   25.5296  -26.5633  -16.5216 C   0  0  0  0  0  0  0  0  0  0  0  0
   24.5066  -27.3999  -17.2156 C   0  0  0  0  0  0  0  0  0  0  0  0
   24.8175  -28.8820  -16.9528 C   0  0  0  0  0  0  0  0  0  0  0  0
   25.3658  -29.5083  -18.1338 N   0  0  0  0  0  0  0  0  0  0  0  0
   23.5686  -23.7309  -15.0141 C   0  0  0  0  0  0  0  0  0  0  0  0
   22.7195  -24.4261  -14.4021 O   0  0  0  0  0  0  0  0  0  0  0  0
   23.5885  -22.3373  -14.7377 N   0  0  0  0  0  0  0  0  0  0  0  0
   22.6317  -21.7044  -13.8365 C   0  0  1  0  0  0  0  0  0  0  0  0
   23.0084  -20.3124  -13.4877 C   0  0  0  0  0  0  0  0  0  0  0  0
   24.3562  -20.2417  -12.8648 C   0  0  0  0  0  0  0  0  0  0  0  0
   24.5878  -21.0316  -11.6303 C   0  0  0  0  0  0  0  0  0  0  0  0
   25.9591  -21.0186  -11.0623 C   0  0  0  0  0  0  0  0  0  0  0  0
   26.1195  -21.8468   -9.9061 N   0  0  0  0  0  0  0  0  0  0  0  0
   21.2642  -21.8344  -14.3036 C   0  0  0  0  0  0  0  0  0  0  0  0
   20.8110  -21.5780  -15.4462 O   0  0  0  0  0  0  0  0  0  0  0  0
   20.2457  -22.3161  -13.3846 N   0  0  0  0  0  0  0  0  0  0  0  0
   18.8713  -22.4192  -13.7809 C   0  0  0  0  0  0  0  0  0  0  0  0
   18.6353  -23.7312  -14.4087 C   0  0  0  0  0  0  0  0  0  0  0  0
   18.2078  -23.8821  -15.7054 O   0  0  0  0  0  0  0  0  0  0  0  0
   18.8231  -24.7916  -13.7449 O   0  0  0  0  0  0  0  0  0  0  0  0
  2  1  1  1
  3  2  1  0
  4  3  1  0
  5  4  1  0
  6  5  1  0
  7  6  1  0
  8  9  2  0
  8  2  1  0
 10  8  1  0
 11 10  1  0
 11 12  1  6
 13 12  1  0
 13 14  1  0
 15 14  1  0
 16 15  1  0
 17 11  1  0
 18 17  2  0
 19 17  1  0
 20 19  1  0
 21 20  1  0
 21 22  1  0
 23 21  2  0
M  END
$$$$
