KKG.pdb
     RDKit          3D

 23 22  0  0  1  0  0  0  0  0999 V2000
   26.6998  -20.8371  -16.5684 N   0  0  0  0  0  0  0  0  0  0  0  0
   26.5751  -22.1655  -16.0086 C   0  0  1  0  0  0  0  0  0  0  0  0
   27.9381  -22.7237  -15.7179 C   0  0  0  0  0  0  0  0  0  0  0  0
   28.7004  -23.0368  -16.9508 C   0  0  0  0  0  0  0  0  0  0  0  0
   28.7006  -24.4592  -17.4032 C   0  0  0  0  0  0  0  0  0  0  0  0
   29.6235  -24.5901  -18.6254 C   0  0  0  0  0  0  0  0  0  0  0  0
   29.6768  -25.9594  -19.0834 N   0  0  0  0  0  0  0  0  0  0  0  0
   25.7611  -22.0708  -14.7573 C   0  0  0  0  0  0  0  0  0  0  0  0
   25.5053  -23.0981  -14.0806 O   0  0  0  0  0  0  0  0  0  0  0  0
   25.2479  -20.8345  -14.2809 N   0  0  0  0  0  0  0  0  0  0  0  0
   24.3367  -20.7510  -13.1448 C   0  0  1  0  0  0  0  0  0  0  0  0
   24.9103  -19.9933  -12.0054 C   0  0  0  0  0  0  0  0  0  0  0  0
   24.9215  -20.7960  -10.7545 C   0  0  0  0  0  0  0  0  0  0  0  0
   23.8503  -20.5389   -9.7604 C   0  0  0  0  0  0  0  0  0  0  0  0
   23.9599  -21.2272   -8.4499 C   0  0  0  0  0  0  0  0  0  0  0  0
   22.8727  -20.9605   -7.5581 N   0  0  0  0  0  0  0  0  0  0  0  0
   23.0125  -20.3013  -13.5311 C   0  0  0  0  0  0  0  0  0  0  0  0
   22.5993  -19.1206  -13.6399 O   0  0  0  0  0  0  0  0  0  0  0  0
   21.9932  -21.2897  -13.8442 N   0  0  0  0  0  0  0  0  0  0  0  0
   20.9912  -21.6578  -12.8865 C   0  0  0  0  0  0  0  0  0  0  0  0
   20.0650  -22.6318  -13.4903 C   0  0  0  0  0  0  0  0  0  0  0  0
   18.9661  -23.1345  -12.8371 O   0  0  0  0  0  0  0  0  0  0  0  0
   20.2666  -23.0490  -14.6675 O   0  0  0  0  0  0  0  0  0  0  0  0
  2  1  1  1
  3  2  1  0
  4  3  1  0
  5  4  1  0
  6  5  1  0
  7  6  1  0
  8  9  2  0
  8  2  1  0
 10  8  1  0
 11 10  1  0
 11 12  1  1
 13 12  1  0
 13 14  1  0
 15 14  1  0
 16 15  1  0
 17 11  1  0
 18 17  2  0
 19 17  1  0
 20 19  1  0
 21 20  1  0
 21 22  1  0
 23 21  2  0
M  END
$$$$
