KKG.pdb
     RDKit          3D

 23 22  0  0  1  0  0  0  0  0999 V2000
   23.7850  -13.7049  -17.7897 N   0  0  0  0  0  0  0  0  0  0  0  0
   23.5294  -13.2246  -16.4489 C   0  0  1  0  0  0  0  0  0  0  0  0
   24.7688  -13.3674  -15.6139 C   0  0  0  0  0  0  0  0  0  0  0  0
   25.0160  -14.7685  -15.1961 C   0  0  0  0  0  0  0  0  0  0  0  0
   25.4842  -15.7163  -16.2499 C   0  0  0  0  0  0  0  0  0  0  0  0
   25.6747  -17.1046  -15.6184 C   0  0  0  0  0  0  0  0  0  0  0  0
   27.0363  -17.2809  -15.1685 N   0  0  0  0  0  0  0  0  0  0  0  0
   23.1102  -11.7915  -16.5380 C   0  0  0  0  0  0  0  0  0  0  0  0
   23.6865  -11.0038  -17.3292 O   0  0  0  0  0  0  0  0  0  0  0  0
   22.0563  -11.2614  -15.7461 N   0  0  0  0  0  0  0  0  0  0  0  0
   21.5167   -9.9224  -15.9562 C   0  0  1  0  0  0  0  0  0  0  0  0
   20.0614   -9.9306  -16.2449 C   0  0  0  0  0  0  0  0  0  0  0  0
   19.7604  -10.5513  -17.5615 C   0  0  0  0  0  0  0  0  0  0  0  0
   18.5595  -11.4176  -17.6572 C   0  0  0  0  0  0  0  0  0  0  0  0
   18.2183  -11.9611  -18.9956 C   0  0  0  0  0  0  0  0  0  0  0  0
   17.0941  -12.8467  -18.9964 N   0  0  0  0  0  0  0  0  0  0  0  0
   21.8918   -9.0037  -14.8977 C   0  0  0  0  0  0  0  0  0  0  0  0
   21.8051   -9.1783  -13.6572 O   0  0  0  0  0  0  0  0  0  0  0  0
   22.4427   -7.7053  -15.2503 N   0  0  0  0  0  0  0  0  0  0  0  0
   22.7563   -6.7299  -14.2468 C   0  0  0  0  0  0  0  0  0  0  0  0
   21.5870   -5.8631  -14.0179 C   0  0  0  0  0  0  0  0  0  0  0  0
   21.5869   -4.8131  -13.1322 O   0  0  0  0  0  0  0  0  0  0  0  0
   20.5120   -6.0728  -14.6510 O   0  0  0  0  0  0  0  0  0  0  0  0
  2  1  1  6
  3  2  1  0
  4  3  1  0
  5  4  1  0
  6  5  1  0
  7  6  1  0
  8  9  2  0
  8  2  1  0
 10  8  1  0
 11 10  1  0
 11 12  1  1
 13 12  1  0
 13 14  1  0
 15 14  1  0
 16 15  1  0
 17 11  1  0
 18 17  2  0
 19 17  1  0
 20 19  1  0
 21 20  1  0
 21 22  1  0
 23 21  2  0
M  END
$$$$
