VIL.pdb
     RDKit          3D

 24 23  0  0  1  0  0  0  0  0999 V2000
    8.2751  -20.6349   16.8662 C   0  0  0  0  0  0  0  0  0  0  0  0
    9.0325  -19.7153   17.8150 C   0  0  2  0  0  0  0  0  0  0  0  0
    8.5399  -19.9929   19.2178 C   0  0  0  0  0  0  0  0  0  0  0  0
    8.7803  -18.2612   17.4762 C   0  0  2  0  0  0  0  0  0  0  0  0
    9.3460  -17.9810   16.1708 N   0  0  0  0  0  0  0  0  0  0  0  0
    9.2989  -17.3433   18.4922 C   0  0  0  0  0  0  0  0  0  0  0  0
   10.5651  -17.1967   18.5803 O   0  0  0  0  0  0  0  0  0  0  0  0
    6.6851  -12.7473   20.2264 C   0  0  0  0  0  0  0  0  0  0  0  0
    7.7926  -13.6602   19.7586 C   0  0  0  0  0  0  0  0  0  0  0  0
    8.0287  -14.6801   20.8380 C   0  0  2  0  0  0  0  0  0  0  0  0
    8.5402  -13.9581   22.0728 C   0  0  0  0  0  0  0  0  0  0  0  0
    9.0600  -15.7167   20.4101 C   0  0  2  0  0  0  0  0  0  0  0  0
    8.5236  -16.5980   19.3921 N   0  0  0  0  0  0  0  0  0  0  0  0
    9.5895  -16.4443   21.5677 C   0  0  0  0  0  0  0  0  0  0  0  0
    8.8647  -17.2517   22.1950 O   0  0  0  0  0  0  0  0  0  0  0  0
   13.2248  -19.6124   23.7035 C   0  0  0  0  0  0  0  0  0  0  0  0
   13.5717  -18.1286   23.9785 C   0  0  1  0  0  0  0  0  0  0  0  0
   15.0755  -18.0609   23.9584 C   0  0  0  0  0  0  0  0  0  0  0  0
   12.8812  -17.3410   22.9324 C   0  0  0  0  0  0  0  0  0  0  0  0
   11.4328  -17.0684   23.0810 C   0  0  2  0  0  0  0  0  0  0  0  0
   10.9170  -16.2752   22.0249 N   0  0  0  0  0  0  0  0  0  0  0  0
   11.0561  -16.5831   24.4299 C   0  0  0  0  0  0  0  0  0  0  0  0
   11.0189  -15.2180   24.6798 O   0  0  0  0  0  0  0  0  0  0  0  0
   10.7597  -17.3402   25.3901 O   0  0  0  0  0  0  0  0  0  0  0  0
  2  1  1  6
  2  3  1  0
  2  4  1  0
  4  5  1  6
  6  7  2  0
  6  4  1  0
  9 10  1  0
  9  8  1  0
 10 11  1  1
 12 10  1  0
 12 13  1  6
 13  6  1  0
 14 12  1  0
 15 14  2  0
 17 16  1  6
 17 19  1  0
 18 17  1  0
 20 19  1  1
 20 21  1  0
 21 14  1  0
 22 23  1  0
 22 20  1  0
 24 22  2  0
M  END
$$$$
