VIL.pdb
     RDKit          3D

 24 23  0  0  1  0  0  0  0  0999 V2000
    9.3324  -21.9455   21.5984 C   0  0  0  0  0  0  0  0  0  0  0  0
    9.8519  -20.5544   21.9368 C   0  0  2  0  0  0  0  0  0  0  0  0
    9.9351  -20.4469   23.4432 C   0  0  0  0  0  0  0  0  0  0  0  0
    8.9179  -19.4849   21.4112 C   0  0  2  0  0  0  0  0  0  0  0  0
    8.7035  -19.7073   19.9944 N   0  0  0  0  0  0  0  0  0  0  0  0
    9.4037  -18.1285   21.6722 C   0  0  0  0  0  0  0  0  0  0  0  0
   10.5710  -17.8173   21.2564 O   0  0  0  0  0  0  0  0  0  0  0  0
    6.6064  -13.5715   21.0610 C   0  0  0  0  0  0  0  0  0  0  0  0
    7.6491  -14.6620   21.1107 C   0  0  0  0  0  0  0  0  0  0  0  0
    8.1647  -14.7353   22.5213 C   0  0  2  0  0  0  0  0  0  0  0  0
    8.7745  -13.3903   22.8769 C   0  0  0  0  0  0  0  0  0  0  0  0
    9.2295  -15.8147   22.6707 C   0  0  2  0  0  0  0  0  0  0  0  0
    8.6963  -17.1230   22.3467 N   0  0  0  0  0  0  0  0  0  0  0  0
    9.8466  -15.7677   23.9999 C   0  0  0  0  0  0  0  0  0  0  0  0
   11.0461  -15.4289   24.1307 O   0  0  0  0  0  0  0  0  0  0  0  0
    8.3453  -13.0496   28.1041 C   0  0  0  0  0  0  0  0  0  0  0  0
    9.3650  -13.7505   27.1733 C   0  0  1  0  0  0  0  0  0  0  0  0
   10.7032  -13.1630   27.5345 C   0  0  0  0  0  0  0  0  0  0  0  0
    9.2170  -15.2033   27.4160 C   0  0  0  0  0  0  0  0  0  0  0  0
    9.7872  -16.1545   26.4340 C   0  0  2  0  0  0  0  0  0  0  0  0
    9.1341  -16.0956   25.1767 N   0  0  0  0  0  0  0  0  0  0  0  0
    9.9410  -17.5310   26.9619 C   0  0  0  0  0  0  0  0  0  0  0  0
   10.8632  -17.7776   27.9700 O   0  0  0  0  0  0  0  0  0  0  0  0
    9.2779  -18.5179   26.5508 O   0  0  0  0  0  0  0  0  0  0  0  0
  2  1  1  1
  2  3  1  0
  2  4  1  0
  4  5  1  6
  6  7  2  0
  6  4  1  0
  9 10  1  0
  9  8  1  0
 10 11  1  6
 12 10  1  0
 12 13  1  1
 13  6  1  0
 14 12  1  0
 15 14  2  0
 17 16  1  1
 17 19  1  0
 18 17  1  0
 20 19  1  1
 20 21  1  0
 21 14  1  0
 22 23  1  0
 22 20  1  0
 24 22  2  0
M  END
$$$$
