VIL.pdb
     RDKit          3D

 24 23  0  0  1  0  0  0  0  0999 V2000
   12.1356  -19.2979   22.3702 C   0  0  0  0  0  0  0  0  0  0  0  0
   11.3458  -19.1079   21.0820 C   0  0  2  0  0  0  0  0  0  0  0  0
   11.8831  -20.0879   20.0628 C   0  0  0  0  0  0  0  0  0  0  0  0
   11.5055  -17.6987   20.5517 C   0  0  2  0  0  0  0  0  0  0  0  0
   12.9154  -17.4383   20.3350 N   0  0  0  0  0  0  0  0  0  0  0  0
   10.9037  -16.6910   21.4270 C   0  0  0  0  0  0  0  0  0  0  0  0
   11.6695  -16.0562   22.2289 O   0  0  0  0  0  0  0  0  0  0  0  0
    6.8758  -13.3414   19.9162 C   0  0  0  0  0  0  0  0  0  0  0  0
    8.1427  -13.8918   20.5253 C   0  0  0  0  0  0  0  0  0  0  0  0
    7.7543  -14.6963   21.7349 C   0  0  2  0  0  0  0  0  0  0  0  0
    7.1293  -13.7570   22.7521 C   0  0  0  0  0  0  0  0  0  0  0  0
    8.9642  -15.3731   22.3667 C   0  0  2  0  0  0  0  0  0  0  0  0
    9.5436  -16.3520   21.4684 N   0  0  0  0  0  0  0  0  0  0  0  0
    8.6297  -15.9361   23.6785 C   0  0  0  0  0  0  0  0  0  0  0  0
    8.1858  -17.1043   23.7728 O   0  0  0  0  0  0  0  0  0  0  0  0
    9.8889  -12.8770   28.0453 C   0  0  0  0  0  0  0  0  0  0  0  0
   10.0943  -14.2448   27.3493 C   0  0  1  0  0  0  0  0  0  0  0  0
   11.1052  -14.9736   28.1940 C   0  0  0  0  0  0  0  0  0  0  0  0
    8.7564  -14.8730   27.2672 C   0  0  0  0  0  0  0  0  0  0  0  0
    8.4592  -15.7780   26.1328 C   0  0  2  0  0  0  0  0  0  0  0  0
    8.7877  -15.2044   24.8783 N   0  0  0  0  0  0  0  0  0  0  0  0
    7.0986  -16.3640   26.1824 C   0  0  0  0  0  0  0  0  0  0  0  0
    6.8573  -17.4647   26.9934 O   0  0  0  0  0  0  0  0  0  0  0  0
    6.1210  -15.9235   25.5244 O   0  0  0  0  0  0  0  0  0  0  0  0
  2  1  1  1
  2  3  1  0
  2  4  1  0
  4  5  1  1
  6  7  2  0
  6  4  1  0
  9 10  1  0
  9  8  1  0
 10 11  1  1
 12 10  1  0
 12 13  1  6
 13  6  1  0
 14 12  1  0
 15 14  2  0
 17 16  1  1
 17 19  1  0
 18 17  1  0
 20 19  1  1
 20 21  1  0
 21 14  1  0
 22 23  1  0
 22 20  1  0
 24 22  2  0
M  END
$$$$
