VIL.pdb
     RDKit          3D

 24 23  0  0  1  0  0  0  0  0999 V2000
    7.3360  -19.6347   24.5858 C   0  0  0  0  0  0  0  0  0  0  0  0
    6.4148  -19.7082   23.3753 C   0  0  2  0  0  0  0  0  0  0  0  0
    5.8763  -21.1191   23.2905 C   0  0  0  0  0  0  0  0  0  0  0  0
    7.1669  -19.3837   22.1019 C   0  0  2  0  0  0  0  0  0  0  0  0
    8.0176  -20.5079   21.7627 N   0  0  0  0  0  0  0  0  0  0  0  0
    7.9351  -18.1409   22.1972 C   0  0  0  0  0  0  0  0  0  0  0  0
    9.1167  -18.1997   22.6797 O   0  0  0  0  0  0  0  0  0  0  0  0
    8.0481  -12.2333   20.3979 C   0  0  0  0  0  0  0  0  0  0  0  0
    8.5260  -13.2617   21.3945 C   0  0  0  0  0  0  0  0  0  0  0  0
    7.7074  -14.5066   21.1924 C   0  0  2  0  0  0  0  0  0  0  0  0
    6.2539  -14.1742   21.4830 C   0  0  0  0  0  0  0  0  0  0  0  0
    8.1536  -15.6253   22.1254 C   0  0  2  0  0  0  0  0  0  0  0  0
    7.4884  -16.8718   21.8021 N   0  0  0  0  0  0  0  0  0  0  0  0
    7.9847  -15.2408   23.5301 C   0  0  0  0  0  0  0  0  0  0  0  0
    6.8651  -15.3399   24.0847 O   0  0  0  0  0  0  0  0  0  0  0  0
    5.7367  -12.5983   26.4100 C   0  0  0  0  0  0  0  0  0  0  0  0
    7.1722  -12.7549   25.8510 C   0  0  1  0  0  0  0  0  0  0  0  0
    7.9883  -11.6991   26.5480 C   0  0  0  0  0  0  0  0  0  0  0  0
    7.5714  -14.1546   26.1208 C   0  0  0  0  0  0  0  0  0  0  0  0
    8.9246  -14.6030   25.7182 C   0  0  2  0  0  0  0  0  0  0  0  0
    9.0543  -14.7489   24.3136 N   0  0  0  0  0  0  0  0  0  0  0  0
    9.4153  -15.7716   26.4867 C   0  0  0  0  0  0  0  0  0  0  0  0
   10.5497  -15.6430   27.2768 O   0  0  0  0  0  0  0  0  0  0  0  0
    8.8625  -16.9016   26.4738 O   0  0  0  0  0  0  0  0  0  0  0  0
  2  1  1  1
  2  3  1  0
  2  4  1  0
  4  5  1  1
  6  7  2  0
  6  4  1  0
  9 10  1  0
  9  8  1  0
 10 11  1  1
 12 10  1  0
 12 13  1  6
 13  6  1  0
 14 12  1  0
 15 14  2  0
 17 16  1  1
 17 19  1  0
 18 17  1  0
 20 19  1  6
 20 21  1  0
 21 14  1  0
 22 23  1  0
 22 20  1  0
 24 22  2  0
M  END
$$$$
