VIL.pdb
     RDKit          3D

 24 23  0  0  1  0  0  0  0  0999 V2000
    8.2138  -19.7290   25.0109 C   0  0  0  0  0  0  0  0  0  0  0  0
    6.8354  -19.4129   24.4456 C   0  0  2  0  0  0  0  0  0  0  0  0
    5.9420  -20.6031   24.7157 C   0  0  0  0  0  0  0  0  0  0  0  0
    6.9051  -19.1700   22.9527 C   0  0  2  0  0  0  0  0  0  0  0  0
    7.3556  -20.3851   22.3023 N   0  0  0  0  0  0  0  0  0  0  0  0
    7.7535  -18.0293   22.6020 C   0  0  0  0  0  0  0  0  0  0  0  0
    8.9844  -18.2527   22.3423 O   0  0  0  0  0  0  0  0  0  0  0  0
    6.2302  -13.3117   19.9671 C   0  0  0  0  0  0  0  0  0  0  0  0
    7.0821  -14.4985   20.3475 C   0  0  0  0  0  0  0  0  0  0  0  0
    7.4438  -14.3527   21.7997 C   0  0  2  0  0  0  0  0  0  0  0  0
    8.3119  -13.1156   21.9533 C   0  0  0  0  0  0  0  0  0  0  0  0
    8.2169  -15.5638   22.3064 C   0  0  2  0  0  0  0  0  0  0  0  0
    7.3350  -16.6933   22.5232 N   0  0  0  0  0  0  0  0  0  0  0  0
    9.0081  -15.2266   23.4940 C   0  0  0  0  0  0  0  0  0  0  0  0
    9.9839  -14.4452   23.4051 O   0  0  0  0  0  0  0  0  0  0  0  0
    7.8351  -12.1015   27.4890 C   0  0  0  0  0  0  0  0  0  0  0  0
    7.6514  -13.4759   26.7999 C   0  0  1  0  0  0  0  0  0  0  0  0
    6.4851  -13.2995   25.8644 C   0  0  0  0  0  0  0  0  0  0  0  0
    8.9462  -13.7931   26.1563 C   0  0  0  0  0  0  0  0  0  0  0  0
    9.3093  -15.2129   25.9408 C   0  0  2  0  0  0  0  0  0  0  0  0
    8.7159  -15.7553   24.7726 N   0  0  0  0  0  0  0  0  0  0  0  0
    9.1357  -16.0589   27.1454 C   0  0  0  0  0  0  0  0  0  0  0  0
    8.5550  -17.3139   27.0218 O   0  0  0  0  0  0  0  0  0  0  0  0
    9.4864  -15.7116   28.3027 O   0  0  0  0  0  0  0  0  0  0  0  0
  2  1  1  6
  2  3  1  0
  2  4  1  0
  4  5  1  6
  6  7  2  0
  6  4  1  0
  9 10  1  0
  9  8  1  0
 10 11  1  6
 12 10  1  0
 12 13  1  1
 13  6  1  0
 14 12  1  0
 15 14  2  0
 17 16  1  6
 17 19  1  0
 18 17  1  0
 20 19  1  1
 20 21  1  0
 21 14  1  0
 22 23  1  0
 22 20  1  0
 24 22  2  0
M  END
$$$$
