VIL.pdb
     RDKit          3D

 24 23  0  0  1  0  0  0  0  0999 V2000
    6.9634  -21.6771   22.7611 C   0  0  0  0  0  0  0  0  0  0  0  0
    7.6939  -20.3465   22.8850 C   0  0  2  0  0  0  0  0  0  0  0  0
    6.9615  -19.5120   23.9120 C   0  0  0  0  0  0  0  0  0  0  0  0
    7.7072  -19.6107   21.5618 C   0  0  2  0  0  0  0  0  0  0  0  0
    8.4146  -20.4171   20.5861 N   0  0  0  0  0  0  0  0  0  0  0  0
    8.2826  -18.2682   21.6644 C   0  0  0  0  0  0  0  0  0  0  0  0
    9.5466  -18.1658   21.8202 O   0  0  0  0  0  0  0  0  0  0  0  0
    7.8707  -12.5348   19.8145 C   0  0  0  0  0  0  0  0  0  0  0  0
    8.4257  -13.4627   20.8680 C   0  0  0  0  0  0  0  0  0  0  0  0
    7.6730  -14.7610   20.7736 C   0  0  2  0  0  0  0  0  0  0  0  0
    6.1961  -14.4723   20.9805 C   0  0  0  0  0  0  0  0  0  0  0  0
    8.1352  -15.7521   21.8344 C   0  0  2  0  0  0  0  0  0  0  0  0
    7.5647  -17.0650   21.6066 N   0  0  0  0  0  0  0  0  0  0  0  0
    7.8680  -15.2447   23.1838 C   0  0  0  0  0  0  0  0  0  0  0  0
    6.7465  -15.4177   23.7160 O   0  0  0  0  0  0  0  0  0  0  0  0
    7.8879  -12.0161   27.3727 C   0  0  0  0  0  0  0  0  0  0  0  0
    6.8942  -13.0640   26.8141 C   0  0  1  0  0  0  0  0  0  0  0  0
    5.5392  -12.4137   26.9011 C   0  0  0  0  0  0  0  0  0  0  0  0
    7.3611  -13.3906   25.4478 C   0  0  0  0  0  0  0  0  0  0  0  0
    8.6004  -14.1859   25.2863 C   0  0  2  0  0  0  0  0  0  0  0  0
    8.8421  -14.5492   23.9370 N   0  0  0  0  0  0  0  0  0  0  0  0
    8.7064  -15.3184   26.2367 C   0  0  0  0  0  0  0  0  0  0  0  0
    9.8044  -15.4009   27.0823 O   0  0  0  0  0  0  0  0  0  0  0  0
    7.8497  -16.2345   26.3342 O   0  0  0  0  0  0  0  0  0  0  0  0
  2  1  1  6
  2  3  1  0
  2  4  1  0
  4  5  1  6
  6  7  2  0
  6  4  1  0
  9 10  1  0
  9  8  1  0
 10 11  1  1
 12 10  1  0
 12 13  1  6
 13  6  1  0
 14 12  1  0
 15 14  2  0
 17 16  1  6
 17 19  1  0
 18 17  1  0
 20 19  1  6
 20 21  1  0
 21 14  1  0
 22 23  1  0
 22 20  1  0
 24 22  2  0
M  END
$$$$
