VIL.pdb
     RDKit          3D

 24 23  0  0  1  0  0  0  0  0999 V2000
    7.2762  -19.5062   24.0757 C   0  0  0  0  0  0  0  0  0  0  0  0
    6.0731  -18.9947   23.2945 C   0  0  2  0  0  0  0  0  0  0  0  0
    5.0449  -20.1031   23.2531 C   0  0  0  0  0  0  0  0  0  0  0  0
    6.4642  -18.6238   21.8795 C   0  0  2  0  0  0  0  0  0  0  0  0
    6.9180  -19.8173   21.1923 N   0  0  0  0  0  0  0  0  0  0  0  0
    7.4708  -17.5617   21.8285 C   0  0  0  0  0  0  0  0  0  0  0  0
    8.6997  -17.9012   21.7443 O   0  0  0  0  0  0  0  0  0  0  0  0
    6.8472  -12.5734   19.5430 C   0  0  0  0  0  0  0  0  0  0  0  0
    7.4748  -13.8820   19.9583 C   0  0  0  0  0  0  0  0  0  0  0  0
    7.7130  -13.8223   21.4418 C   0  0  2  0  0  0  0  0  0  0  0  0
    8.7557  -12.7519   21.7149 C   0  0  0  0  0  0  0  0  0  0  0  0
    8.2210  -15.1543   21.9793 C   0  0  2  0  0  0  0  0  0  0  0  0
    7.2082  -16.1847   21.8639 N   0  0  0  0  0  0  0  0  0  0  0  0
    8.7316  -15.0123   23.3464 C   0  0  0  0  0  0  0  0  0  0  0  0
    9.8904  -14.5801   23.5489 O   0  0  0  0  0  0  0  0  0  0  0  0
    5.8735  -12.6303   26.9863 C   0  0  0  0  0  0  0  0  0  0  0  0
    7.1601  -12.9938   26.2052 C   0  0  1  0  0  0  0  0  0  0  0  0
    8.1482  -11.9079   26.5380 C   0  0  0  0  0  0  0  0  0  0  0  0
    7.5372  -14.3578   26.6397 C   0  0  0  0  0  0  0  0  0  0  0  0
    8.4594  -15.1492   25.7928 C   0  0  2  0  0  0  0  0  0  0  0  0
    7.9581  -15.3490   24.4814 N   0  0  0  0  0  0  0  0  0  0  0  0
    8.9424  -16.3911   26.4419 C   0  0  0  0  0  0  0  0  0  0  0  0
    9.5417  -16.3207   27.6923 O   0  0  0  0  0  0  0  0  0  0  0  0
    8.8455  -17.5349   25.9270 O   0  0  0  0  0  0  0  0  0  0  0  0
  2  1  1  1
  2  3  1  0
  2  4  1  0
  4  5  1  1
  6  7  2  0
  6  4  1  0
  9 10  1  0
  9  8  1  0
 10 11  1  6
 12 10  1  0
 12 13  1  1
 13  6  1  0
 14 12  1  0
 15 14  2  0
 17 16  1  1
 17 19  1  0
 18 17  1  0
 20 19  1  1
 20 21  1  0
 21 14  1  0
 22 23  1  0
 22 20  1  0
 24 22  2  0
M  END
$$$$
