VIL.pdb
     RDKit          3D

 24 23  0  0  1  0  0  0  0  0999 V2000
    8.2840  -17.5539   21.6545 C   0  0  0  0  0  0  0  0  0  0  0  0
    7.0746  -16.6306   21.5893 C   0  0  2  0  0  0  0  0  0  0  0  0
    6.3377  -16.9259   20.3019 C   0  0  0  0  0  0  0  0  0  0  0  0
    7.5012  -15.1778   21.5980 C   0  0  2  0  0  0  0  0  0  0  0  0
    8.3197  -14.9245   20.4282 N   0  0  0  0  0  0  0  0  0  0  0  0
    8.1958  -14.7974   22.8296 C   0  0  0  0  0  0  0  0  0  0  0  0
    9.4727  -14.8401   22.8378 O   0  0  0  0  0  0  0  0  0  0  0  0
    5.9710  -11.2957   26.4769 C   0  0  0  0  0  0  0  0  0  0  0  0
    6.9012  -11.9877   25.5100 C   0  0  0  0  0  0  0  0  0  0  0  0
    7.4086  -13.2347   26.1796 C   0  0  2  0  0  0  0  0  0  0  0  0
    8.2296  -12.8258   27.3906 C   0  0  0  0  0  0  0  0  0  0  0  0
    8.2870  -14.0535   25.2419 C   0  0  2  0  0  0  0  0  0  0  0  0
    7.5809  -14.3840   24.0201 N   0  0  0  0  0  0  0  0  0  0  0  0
    8.8273  -15.2352   25.9213 C   0  0  0  0  0  0  0  0  0  0  0  0
    8.0641  -16.1565   26.2946 O   0  0  0  0  0  0  0  0  0  0  0  0
   13.7765  -17.3739   24.6739 C   0  0  0  0  0  0  0  0  0  0  0  0
   12.2713  -17.0618   24.8598 C   0  0  1  0  0  0  0  0  0  0  0  0
   11.5437  -18.1912   24.1805 C   0  0  0  0  0  0  0  0  0  0  0  0
   12.0499  -16.9429   26.3186 C   0  0  0  0  0  0  0  0  0  0  0  0
   10.7050  -16.5629   26.8096 C   0  0  2  0  0  0  0  0  0  0  0  0
   10.2081  -15.3914   26.1839 N   0  0  0  0  0  0  0  0  0  0  0  0
   10.5977  -16.5405   28.2878 C   0  0  0  0  0  0  0  0  0  0  0  0
   10.8513  -17.6991   29.0094 O   0  0  0  0  0  0  0  0  0  0  0  0
   10.2850  -15.5193   28.9528 O   0  0  0  0  0  0  0  0  0  0  0  0
  2  1  1  6
  2  3  1  0
  2  4  1  0
  4  5  1  6
  6  7  2  0
  6  4  1  0
  9 10  1  0
  9  8  1  0
 10 11  1  1
 12 10  1  0
 12 13  1  6
 13  6  1  0
 14 12  1  0
 15 14  2  0
 17 16  1  1
 17 19  1  0
 18 17  1  0
 20 19  1  1
 20 21  1  0
 21 14  1  0
 22 23  1  0
 22 20  1  0
 24 22  2  0
M  END
$$$$
