VIL.pdb
     RDKit          3D

 24 23  0  0  1  0  0  0  0  0999 V2000
    7.5300  -15.6591   19.5058 C   0  0  0  0  0  0  0  0  0  0  0  0
    8.5937  -16.7295   19.7114 C   0  0  2  0  0  0  0  0  0  0  0  0
    8.2441  -17.9037   18.8245 C   0  0  0  0  0  0  0  0  0  0  0  0
    8.6295  -17.1873   21.1543 C   0  0  2  0  0  0  0  0  0  0  0  0
    7.3613  -17.8115   21.4777 N   0  0  0  0  0  0  0  0  0  0  0  0
    8.9452  -16.1031   22.0863 C   0  0  0  0  0  0  0  0  0  0  0  0
   10.0855  -15.5358   21.9850 O   0  0  0  0  0  0  0  0  0  0  0  0
    6.1786  -12.4126   26.2343 C   0  0  0  0  0  0  0  0  0  0  0  0
    7.4417  -12.7741   25.4908 C   0  0  0  0  0  0  0  0  0  0  0  0
    7.1737  -14.0410   24.7265 C   0  0  2  0  0  0  0  0  0  0  0  0
    6.7620  -15.1173   25.7164 C   0  0  0  0  0  0  0  0  0  0  0  0
    8.4120  -14.5109   23.9736 C   0  0  2  0  0  0  0  0  0  0  0  0
    8.0997  -15.6214   23.0959 N   0  0  0  0  0  0  0  0  0  0  0  0
    9.5102  -14.8106   24.8976 C   0  0  0  0  0  0  0  0  0  0  0  0
   10.3576  -13.9320   25.1819 O   0  0  0  0  0  0  0  0  0  0  0  0
   11.7462  -14.4925   28.9369 C   0  0  0  0  0  0  0  0  0  0  0  0
   10.4856  -15.3720   29.1237 C   0  0  1  0  0  0  0  0  0  0  0  0
    9.7159  -14.7309   30.2475 C   0  0  0  0  0  0  0  0  0  0  0  0
    9.8006  -15.3983   27.8117 C   0  0  0  0  0  0  0  0  0  0  0  0
   10.3703  -16.2263   26.7235 C   0  0  2  0  0  0  0  0  0  0  0  0
    9.6653  -16.0798   25.5019 N   0  0  0  0  0  0  0  0  0  0  0  0
   10.6029  -17.6377   27.1120 C   0  0  0  0  0  0  0  0  0  0  0  0
   11.8667  -18.0326   27.5295 O   0  0  0  0  0  0  0  0  0  0  0  0
    9.7132  -18.5269   27.0896 O   0  0  0  0  0  0  0  0  0  0  0  0
  2  1  1  1
  2  3  1  0
  2  4  1  0
  4  5  1  1
  6  7  2  0
  6  4  1  0
  9 10  1  0
  9  8  1  0
 10 11  1  1
 12 10  1  0
 12 13  1  1
 13  6  1  0
 14 12  1  0
 15 14  2  0
 17 16  1  6
 17 19  1  0
 18 17  1  0
 20 19  1  1
 20 21  1  0
 21 14  1  0
 22 23  1  0
 22 20  1  0
 24 22  2  0
M  END
$$$$
