VIL.pdb
     RDKit          3D

 24 23  0  0  1  0  0  0  0  0999 V2000
    9.8357  -20.1788   20.3116 C   0  0  0  0  0  0  0  0  0  0  0  0
    8.7460  -19.5692   19.4396 C   0  0  2  0  0  0  0  0  0  0  0  0
    8.4629  -20.5361   18.3115 C   0  0  0  0  0  0  0  0  0  0  0  0
    9.1941  -18.2439   18.8603 C   0  0  2  0  0  0  0  0  0  0  0  0
   10.3998  -18.4577   18.0837 N   0  0  0  0  0  0  0  0  0  0  0  0
    9.3918  -17.2149   19.8830 C   0  0  0  0  0  0  0  0  0  0  0  0
   10.5562  -17.0906   20.3940 O   0  0  0  0  0  0  0  0  0  0  0  0
    7.0436  -12.3241   19.9781 C   0  0  0  0  0  0  0  0  0  0  0  0
    8.0169  -13.4728   20.0877 C   0  0  0  0  0  0  0  0  0  0  0  0
    7.7085  -14.2111   21.3609 C   0  0  2  0  0  0  0  0  0  0  0  0
    7.9909  -13.2837   22.5304 C   0  0  0  0  0  0  0  0  0  0  0  0
    8.5685  -15.4606   21.5034 C   0  0  2  0  0  0  0  0  0  0  0  0
    8.4070  -16.3390   20.3619 N   0  0  0  0  0  0  0  0  0  0  0  0
    8.3113  -16.1363   22.7790 C   0  0  0  0  0  0  0  0  0  0  0  0
    7.4249  -17.0184   22.8621 O   0  0  0  0  0  0  0  0  0  0  0  0
   12.4915  -18.8546   24.7126 C   0  0  0  0  0  0  0  0  0  0  0  0
   10.9525  -19.0135   24.6504 C   0  0  1  0  0  0  0  0  0  0  0  0
   10.5146  -19.2106   26.0772 C   0  0  0  0  0  0  0  0  0  0  0  0
   10.4369  -17.7959   23.9847 C   0  0  0  0  0  0  0  0  0  0  0  0
    9.5872  -16.8622   24.7596 C   0  0  2  0  0  0  0  0  0  0  0  0
    9.0356  -15.8330   23.9552 N   0  0  0  0  0  0  0  0  0  0  0  0
   10.2281  -16.3690   26.0019 C   0  0  0  0  0  0  0  0  0  0  0  0
   11.1990  -15.3796   25.9242 O   0  0  0  0  0  0  0  0  0  0  0  0
    9.9476  -16.7945   27.1522 O   0  0  0  0  0  0  0  0  0  0  0  0
  2  1  1  1
  2  3  1  0
  2  4  1  0
  4  5  1  1
  6  7  2  0
  6  4  1  0
  9 10  1  0
  9  8  1  0
 10 11  1  1
 12 10  1  0
 12 13  1  6
 13  6  1  0
 14 12  1  0
 15 14  2  0
 17 16  1  1
 17 19  1  0
 18 17  1  0
 20 19  1  6
 20 21  1  0
 21 14  1  0
 22 23  1  0
 22 20  1  0
 24 22  2  0
M  END
$$$$
