VIL.pdb
     RDKit          3D

 24 23  0  0  1  0  0  0  0  0999 V2000
    5.6700  -19.8081   23.0966 C   0  0  0  0  0  0  0  0  0  0  0  0
    6.7350  -18.8489   23.6115 C   0  0  2  0  0  0  0  0  0  0  0  0
    6.8265  -19.0230   25.1112 C   0  0  0  0  0  0  0  0  0  0  0  0
    6.3688  -17.4137   23.2972 C   0  0  2  0  0  0  0  0  0  0  0  0
    6.2838  -17.2579   21.8581 N   0  0  0  0  0  0  0  0  0  0  0  0
    7.2991  -16.4483   23.8858 C   0  0  0  0  0  0  0  0  0  0  0  0
    8.4423  -16.3016   23.3345 O   0  0  0  0  0  0  0  0  0  0  0  0
    5.9946  -11.7456   26.2032 C   0  0  0  0  0  0  0  0  0  0  0  0
    6.8184  -12.7462   25.4291 C   0  0  0  0  0  0  0  0  0  0  0  0
    7.4434  -13.6868   26.4219 C   0  0  2  0  0  0  0  0  0  0  0  0
    8.5373  -12.9388   27.1645 C   0  0  0  0  0  0  0  0  0  0  0  0
    8.0558  -14.8995   25.7323 C   0  0  2  0  0  0  0  0  0  0  0  0
    7.0488  -15.6571   25.0161 N   0  0  0  0  0  0  0  0  0  0  0  0
    8.8136  -15.7205   26.6818 C   0  0  0  0  0  0  0  0  0  0  0  0
    8.2258  -16.3191   27.6128 O   0  0  0  0  0  0  0  0  0  0  0  0
   13.6094  -18.2864   25.2852 C   0  0  0  0  0  0  0  0  0  0  0  0
   12.1439  -17.9168   25.6218 C   0  0  1  0  0  0  0  0  0  0  0  0
   11.3865  -19.2173   25.5838 C   0  0  0  0  0  0  0  0  0  0  0  0
   12.1798  -17.2349   26.9352 C   0  0  0  0  0  0  0  0  0  0  0  0
   10.9166  -16.7102   27.5037 C   0  0  2  0  0  0  0  0  0  0  0  0
   10.2167  -15.8750   26.5963 N   0  0  0  0  0  0  0  0  0  0  0  0
   11.0736  -16.1223   28.8553 C   0  0  0  0  0  0  0  0  0  0  0  0
   11.5603  -16.9086   29.8908 O   0  0  0  0  0  0  0  0  0  0  0  0
   10.7896  -14.9298   29.1386 O   0  0  0  0  0  0  0  0  0  0  0  0
  2  1  1  1
  2  3  1  0
  2  4  1  0
  4  5  1  6
  6  7  2  0
  6  4  1  0
  9 10  1  0
  9  8  1  0
 10 11  1  6
 12 10  1  0
 12 13  1  1
 13  6  1  0
 14 12  1  0
 15 14  2  0
 17 16  1  1
 17 19  1  0
 18 17  1  0
 20 19  1  6
 20 21  1  0
 21 14  1  0
 22 23  1  0
 22 20  1  0
 24 22  2  0
M  END
$$$$
