VIL.pdb
     RDKit          3D

 24 23  0  0  1  0  0  0  0  0999 V2000
   13.5975  -18.0662   18.9285 C   0  0  0  0  0  0  0  0  0  0  0  0
   12.9468  -17.0825   19.8920 C   0  0  2  0  0  0  0  0  0  0  0  0
   14.0486  -16.2726   20.5383 C   0  0  0  0  0  0  0  0  0  0  0  0
   12.1678  -17.8117   20.9663 C   0  0  2  0  0  0  0  0  0  0  0  0
   11.2395  -18.7263   20.3305 N   0  0  0  0  0  0  0  0  0  0  0  0
   11.4790  -16.9025   21.8843 C   0  0  0  0  0  0  0  0  0  0  0  0
   12.1840  -16.0657   22.5439 O   0  0  0  0  0  0  0  0  0  0  0  0
    6.5397  -14.6974   21.0545 C   0  0  0  0  0  0  0  0  0  0  0  0
    7.9854  -14.8643   21.4557 C   0  0  0  0  0  0  0  0  0  0  0  0
    8.0179  -15.7032   22.7031 C   0  0  2  0  0  0  0  0  0  0  0  0
    7.3582  -14.9178   23.8236 C   0  0  0  0  0  0  0  0  0  0  0  0
    9.4464  -16.0403   23.1117 C   0  0  2  0  0  0  0  0  0  0  0  0
   10.0957  -16.8634   22.1108 N   0  0  0  0  0  0  0  0  0  0  0  0
    9.4862  -16.6384   24.4498 C   0  0  0  0  0  0  0  0  0  0  0  0
    9.3961  -17.8803   24.5924 O   0  0  0  0  0  0  0  0  0  0  0  0
    8.6975  -13.7364   27.3667 C   0  0  0  0  0  0  0  0  0  0  0  0
   10.2065  -14.0191   27.5684 C   0  0  1  0  0  0  0  0  0  0  0  0
   10.6489  -13.0680   28.6483 C   0  0  0  0  0  0  0  0  0  0  0  0
   10.3180  -15.4581   27.8975 C   0  0  0  0  0  0  0  0  0  0  0  0
    9.9784  -16.4580   26.8587 C   0  0  2  0  0  0  0  0  0  0  0  0
    9.6252  -15.8601   25.6224 N   0  0  0  0  0  0  0  0  0  0  0  0
    9.0169  -17.4881   27.3189 C   0  0  0  0  0  0  0  0  0  0  0  0
    7.8052  -17.6364   26.6578 O   0  0  0  0  0  0  0  0  0  0  0  0
    9.2263  -18.2579   28.2917 O   0  0  0  0  0  0  0  0  0  0  0  0
  2  1  1  6
  2  3  1  0
  2  4  1  0
  4  5  1  6
  6  7  2  0
  6  4  1  0
  9 10  1  0
  9  8  1  0
 10 11  1  1
 12 10  1  0
 12 13  1  6
 13  6  1  0
 14 12  1  0
 15 14  2  0
 17 16  1  1
 17 19  1  0
 18 17  1  0
 20 19  1  1
 20 21  1  0
 21 14  1  0
 22 23  1  0
 22 20  1  0
 24 22  2  0
M  END
$$$$
