WYS.pdb
     RDKit          3D

 33 35  0  0  1  0  0  0  0  0999 V2000
   15.3154  -15.6438    5.2968 N   0  0  0  0  0  0  0  0  0  0  0  0
   16.6262  -16.1769    5.4723 C   0  0  1  0  0  0  0  0  0  0  0  0
   17.3642  -15.4355    6.5457 C   0  0  0  0  0  0  0  0  0  0  0  0
   17.8985  -14.1321    6.1145 C   0  0  0  0  0  0  0  0  0  0  0  0
   17.2203  -13.2104    5.3288 C   0  0  0  0  0  0  0  0  0  0  0  0
   17.9967  -12.1310    5.1544 N   0  0  0  0  0  0  0  0  0  0  0  0
   19.1703  -12.3027    5.7975 C   0  0  0  0  0  0  0  0  0  0  0  0
   20.2649  -11.4684    5.8905 C   0  0  0  0  0  0  0  0  0  0  0  0
   21.3561  -11.8800    6.6067 C   0  0  0  0  0  0  0  0  0  0  0  0
   21.3324  -13.1155    7.2150 C   0  0  0  0  0  0  0  0  0  0  0  0
   20.2283  -13.9493    7.1175 C   0  0  0  0  0  0  0  0  0  0  0  0
   19.1119  -13.5453    6.3944 C   0  0  0  0  0  0  0  0  0  0  0  0
   16.5320  -17.6261    5.7508 C   0  0  0  0  0  0  0  0  0  0  0  0
   15.8164  -18.0233    6.6948 O   0  0  0  0  0  0  0  0  0  0  0  0
   18.6843  -26.2110    4.4826 O   0  0  0  0  0  0  0  0  0  0  0  0
   18.4934  -24.8366    4.3872 C   0  0  0  0  0  0  0  0  0  0  0  0
   17.2585  -24.2858    4.1169 C   0  0  0  0  0  0  0  0  0  0  0  0
   17.0380  -22.9407    4.0168 C   0  0  0  0  0  0  0  0  0  0  0  0
   18.1275  -22.0875    4.1998 C   0  0  0  0  0  0  0  0  0  0  0  0
   17.9940  -20.6362    4.1089 C   0  0  0  0  0  0  0  0  0  0  0  0
   17.3373  -19.9729    5.2919 C   0  0  2  0  0  0  0  0  0  0  0  0
   17.2362  -18.5680    4.9687 N   0  0  0  0  0  0  0  0  0  0  0  0
   18.1047  -20.1344    6.5478 C   0  0  0  0  0  0  0  0  0  0  0  0
   19.1635  -19.4766    6.7115 O   0  0  0  0  0  0  0  0  0  0  0  0
   19.3740  -22.6239    4.4719 C   0  0  0  0  0  0  0  0  0  0  0  0
   19.5714  -23.9862    4.5680 C   0  0  0  0  0  0  0  0  0  0  0  0
   16.5662  -20.8082   10.0522 O   0  0  0  0  0  0  0  0  0  0  0  0
   17.9006  -20.4182    9.9107 C   0  0  0  0  0  0  0  0  0  0  0  0
   18.4794  -21.2084    8.7526 C   0  0  2  0  0  0  0  0  0  0  0  0
   17.6658  -21.0209    7.5738 N   0  0  0  0  0  0  0  0  0  0  0  0
   18.5733  -22.6362    9.1085 C   0  0  0  0  0  0  0  0  0  0  0  0
   19.3223  -22.9974   10.0384 O   0  0  0  0  0  0  0  0  0  0  0  0
   17.8354  -23.5846    8.4183 O   0  0  0  0  0  0  0  0  0  0  0  0
  2  1  1  1
  3  2  1  0
  4  3  1  0
  4  5  2  0
  6  5  1  0
  7  6  1  0
  8  7  2  0
  9  8  1  0
 10  9  2  0
 10 11  1  0
 11 12  2  0
 12  7  1  0
 12  4  1  0
 13  2  1  0
 14 13  2  0
 16 15  1  0
 16 17  2  0
 18 17  1  0
 19 18  2  0
 20 19  1  0
 21 20  1  6
 21 22  1  0
 22 13  1  0
 23 21  1  0
 24 23  2  0
 25 26  2  0
 25 19  1  0
 26 16  1  0
 27 28  1  0
 29 28  1  1
 29 30  1  0
 30 23  1  0
 31 33  1  0
 31 29  1  0
 32 31  2  0
M  END
$$$$
