WYS.pdb
     RDKit          3D

 33 35  0  0  1  0  0  0  0  0999 V2000
   20.3437   -7.1647  -15.7580 N   0  0  0  0  0  0  0  0  0  0  0  0
   20.6103   -8.5293  -15.4412 C   0  0  1  0  0  0  0  0  0  0  0  0
   21.6178   -8.6332  -14.3365 C   0  0  0  0  0  0  0  0  0  0  0  0
   23.0169   -8.5884  -14.7955 C   0  0  0  0  0  0  0  0  0  0  0  0
   23.6448   -7.4760  -15.3388 C   0  0  0  0  0  0  0  0  0  0  0  0
   24.9183   -7.7881  -15.6201 N   0  0  0  0  0  0  0  0  0  0  0  0
   25.1602   -9.0718  -15.2828 C   0  0  0  0  0  0  0  0  0  0  0  0
   26.3139   -9.8197  -15.3953 C   0  0  0  0  0  0  0  0  0  0  0  0
   26.3034  -11.1247  -14.9833 C   0  0  0  0  0  0  0  0  0  0  0  0
   25.1420  -11.6564  -14.4677 C   0  0  0  0  0  0  0  0  0  0  0  0
   23.9856  -10.8986  -14.3574 C   0  0  0  0  0  0  0  0  0  0  0  0
   23.9804   -9.5714  -14.7707 C   0  0  0  0  0  0  0  0  0  0  0  0
   19.3407   -9.2125  -15.1125 C   0  0  0  0  0  0  0  0  0  0  0  0
   18.4629   -8.5982  -14.4698 O   0  0  0  0  0  0  0  0  0  0  0  0
   17.5218  -10.4065  -21.6905 O   0  0  0  0  0  0  0  0  0  0  0  0
   17.3577  -10.3971  -20.3094 C   0  0  0  0  0  0  0  0  0  0  0  0
   17.8767   -9.3951  -19.5170 C   0  0  0  0  0  0  0  0  0  0  0  0
   17.7330   -9.3568  -18.1584 C   0  0  0  0  0  0  0  0  0  0  0  0
   17.0211  -10.3920  -17.5502 C   0  0  0  0  0  0  0  0  0  0  0  0
   16.8169  -10.4421  -16.1051 C   0  0  0  0  0  0  0  0  0  0  0  0
   17.8438  -11.2315  -15.3350 C   0  0  2  0  0  0  0  0  0  0  0  0
   19.1036  -10.5462  -15.5125 N   0  0  0  0  0  0  0  0  0  0  0  0
   17.9739  -12.6293  -15.8055 C   0  0  0  0  0  0  0  0  0  0  0  0
   18.8207  -12.9040  -16.6932 O   0  0  0  0  0  0  0  0  0  0  0  0
   16.4935  -11.4058  -18.3308 C   0  0  0  0  0  0  0  0  0  0  0  0
   16.6521  -11.4222  -19.7015 C   0  0  0  0  0  0  0  0  0  0  0  0
   16.6924  -15.7919  -13.6909 O   0  0  0  0  0  0  0  0  0  0  0  0
   17.5857  -15.9966  -14.7458 C   0  0  0  0  0  0  0  0  0  0  0  0
   17.2351  -14.9976  -15.8319 C   0  0  2  0  0  0  0  0  0  0  0  0
   17.1578  -13.6684  -15.2714 N   0  0  0  0  0  0  0  0  0  0  0  0
   15.9639  -15.3740  -16.4771 C   0  0  0  0  0  0  0  0  0  0  0  0
   14.9987  -14.5839  -16.4575 O   0  0  0  0  0  0  0  0  0  0  0  0
   15.8295  -16.6007  -17.1075 O   0  0  0  0  0  0  0  0  0  0  0  0
  2  1  1  1
  3  2  1  0
  4  3  1  0
  4  5  2  0
  6  5  1  0
  7  6  1  0
  8  7  2  0
  9  8  1  0
 10  9  2  0
 10 11  1  0
 11 12  2  0
 12  7  1  0
 12  4  1  0
 13  2  1  0
 14 13  2  0
 16 15  1  0
 16 17  2  0
 18 17  1  0
 19 18  2  0
 20 19  1  0
 21 20  1  6
 21 22  1  0
 22 13  1  0
 23 21  1  0
 24 23  2  0
 25 26  2  0
 25 19  1  0
 26 16  1  0
 27 28  1  0
 29 28  1  1
 29 30  1  0
 30 23  1  0
 31 33  1  0
 31 29  1  0
 32 31  2  0
M  END
$$$$
