WYS.pdb
     RDKit          3D

 33 35  0  0  1  0  0  0  0  0999 V2000
   27.4210  -22.3021  -10.9152 N   0  0  0  0  0  0  0  0  0  0  0  0
   26.5702  -21.2425  -10.4831 C   0  0  1  0  0  0  0  0  0  0  0  0
   27.3753  -20.0545  -10.0511 C   0  0  0  0  0  0  0  0  0  0  0  0
   28.2777  -20.3224   -8.9179 C   0  0  0  0  0  0  0  0  0  0  0  0
   29.5503  -20.8671   -9.0208 C   0  0  0  0  0  0  0  0  0  0  0  0
   30.0911  -20.9465   -7.7962 N   0  0  0  0  0  0  0  0  0  0  0  0
   29.2209  -20.4733   -6.8802 C   0  0  0  0  0  0  0  0  0  0  0  0
   29.3412  -20.3658   -5.5101 C   0  0  0  0  0  0  0  0  0  0  0  0
   28.2980  -19.8511   -4.7891 C   0  0  0  0  0  0  0  0  0  0  0  0
   27.1565  -19.4546   -5.4501 C   0  0  0  0  0  0  0  0  0  0  0  0
   27.0423  -19.5654   -6.8279 C   0  0  0  0  0  0  0  0  0  0  0  0
   28.0934  -20.0853   -7.5744 C   0  0  0  0  0  0  0  0  0  0  0  0
   25.6128  -20.9131  -11.5609 C   0  0  0  0  0  0  0  0  0  0  0  0
   26.0379  -20.4275  -12.6306 O   0  0  0  0  0  0  0  0  0  0  0  0
   26.5558  -24.4787  -16.7063 O   0  0  0  0  0  0  0  0  0  0  0  0
   25.6692  -23.9695  -15.7634 C   0  0  0  0  0  0  0  0  0  0  0  0
   25.6619  -24.4048  -14.4550 C   0  0  0  0  0  0  0  0  0  0  0  0
   24.8043  -23.9250  -13.5050 C   0  0  0  0  0  0  0  0  0  0  0  0
   23.8911  -22.9421  -13.8901 C   0  0  0  0  0  0  0  0  0  0  0  0
   22.9320  -22.3698  -12.9493 C   0  0  0  0  0  0  0  0  0  0  0  0
   23.2564  -20.9818  -12.4606 C   0  0  2  0  0  0  0  0  0  0  0  0
   24.2275  -21.1378  -11.4018 N   0  0  0  0  0  0  0  0  0  0  0  0
   22.0739  -20.2583  -11.9406 C   0  0  0  0  0  0  0  0  0  0  0  0
   21.6804  -20.4840  -10.7681 O   0  0  0  0  0  0  0  0  0  0  0  0
   23.8849  -22.4940  -15.1995 C   0  0  0  0  0  0  0  0  0  0  0  0
   24.7612  -22.9942  -16.1408 C   0  0  0  0  0  0  0  0  0  0  0  0
   19.8765  -17.9219  -14.4062 O   0  0  0  0  0  0  0  0  0  0  0  0
   19.8714  -17.4411  -13.0941 C   0  0  0  0  0  0  0  0  0  0  0  0
   20.2459  -18.5995  -12.1895 C   0  0  2  0  0  0  0  0  0  0  0  0
   21.3741  -19.3116  -12.7436 N   0  0  0  0  0  0  0  0  0  0  0  0
   19.0905  -19.4976  -12.0095 C   0  0  0  0  0  0  0  0  0  0  0  0
   19.1070  -20.6401  -12.5102 O   0  0  0  0  0  0  0  0  0  0  0  0
   17.9824  -19.0845  -11.2872 O   0  0  0  0  0  0  0  0  0  0  0  0
  2  1  1  6
  3  2  1  0
  4  3  1  0
  4  5  2  0
  6  5  1  0
  7  6  1  0
  8  7  2  0
  9  8  1  0
 10  9  2  0
 10 11  1  0
 11 12  2  0
 12  7  1  0
 12  4  1  0
 13  2  1  0
 14 13  2  0
 16 15  1  0
 16 17  2  0
 18 17  1  0
 19 18  2  0
 20 19  1  0
 21 20  1  1
 21 22  1  0
 22 13  1  0
 23 21  1  0
 24 23  2  0
 25 26  2  0
 25 19  1  0
 26 16  1  0
 27 28  1  0
 29 28  1  6
 29 30  1  0
 30 23  1  0
 31 33  1  0
 31 29  1  0
 32 31  2  0
M  END
$$$$
