WYS.pdb
     RDKit          3D

 33 35  0  0  1  0  0  0  0  0999 V2000
   27.4430  -21.7032  -16.9702 N   0  0  0  0  0  0  0  0  0  0  0  0
   27.5696  -20.7107  -15.9542 C   0  0  1  0  0  0  0  0  0  0  0  0
   26.8577  -19.4516  -16.3470 C   0  0  0  0  0  0  0  0  0  0  0  0
   27.4876  -18.7321  -17.4676 C   0  0  0  0  0  0  0  0  0  0  0  0
   26.8478  -18.3680  -18.6445 C   0  0  0  0  0  0  0  0  0  0  0  0
   27.7150  -17.7083  -19.4262 N   0  0  0  0  0  0  0  0  0  0  0  0
   28.9119  -17.6209  -18.8098 C   0  0  0  0  0  0  0  0  0  0  0  0
   30.0906  -17.0417  -19.2320 C   0  0  0  0  0  0  0  0  0  0  0  0
   31.1869  -17.0925  -18.4143 C   0  0  0  0  0  0  0  0  0  0  0  0
   31.0844  -17.7203  -17.1926 C   0  0  0  0  0  0  0  0  0  0  0  0
   29.8960  -18.3005  -16.7744 C   0  0  0  0  0  0  0  0  0  0  0  0
   28.7734  -18.2565  -17.5930 C   0  0  0  0  0  0  0  0  0  0  0  0
   27.0796  -21.2585  -14.6710 C   0  0  0  0  0  0  0  0  0  0  0  0
   26.1856  -22.1310  -14.6789 O   0  0  0  0  0  0  0  0  0  0  0  0
   25.8181  -20.1859   -5.9524 O   0  0  0  0  0  0  0  0  0  0  0  0
   26.3798  -20.3038   -7.2193 C   0  0  0  0  0  0  0  0  0  0  0  0
   27.7440  -20.2892   -7.4199 C   0  0  0  0  0  0  0  0  0  0  0  0
   28.3268  -20.4028   -8.6508 C   0  0  0  0  0  0  0  0  0  0  0  0
   27.4876  -20.5406   -9.7576 C   0  0  0  0  0  0  0  0  0  0  0  0
   28.0145  -20.6649  -11.1139 C   0  0  0  0  0  0  0  0  0  0  0  0
   27.0233  -21.1236  -12.1520 C   0  0  2  0  0  0  0  0  0  0  0  0
   27.6047  -20.8126  -13.4379 N   0  0  0  0  0  0  0  0  0  0  0  0
   25.7071  -20.4558  -12.0331 C   0  0  0  0  0  0  0  0  0  0  0  0
   25.6173  -19.2250  -12.2728 O   0  0  0  0  0  0  0  0  0  0  0  0
   26.1159  -20.5571   -9.5741 C   0  0  0  0  0  0  0  0  0  0  0  0
   25.5511  -20.4407   -8.3205 C   0  0  0  0  0  0  0  0  0  0  0  0
   22.6467  -22.0840  -13.4475 O   0  0  0  0  0  0  0  0  0  0  0  0
   22.7175  -20.7142  -13.1802 C   0  0  0  0  0  0  0  0  0  0  0  0
   23.2428  -20.5589  -11.7658 C   0  0  2  0  0  0  0  0  0  0  0  0
   24.5413  -21.1815  -11.6522 N   0  0  0  0  0  0  0  0  0  0  0  0
   22.2906  -21.1427  -10.8033 C   0  0  0  0  0  0  0  0  0  0  0  0
   22.6431  -22.0960  -10.0800 O   0  0  0  0  0  0  0  0  0  0  0  0
   21.0033  -20.6416  -10.6931 O   0  0  0  0  0  0  0  0  0  0  0  0
  2  1  1  6
  3  2  1  0
  4  3  1  0
  4  5  2  0
  6  5  1  0
  7  6  1  0
  8  7  2  0
  9  8  1  0
 10  9  2  0
 10 11  1  0
 11 12  2  0
 12  7  1  0
 12  4  1  0
 13  2  1  0
 14 13  2  0
 16 15  1  0
 16 17  2  0
 18 17  1  0
 19 18  2  0
 20 19  1  0
 21 20  1  1
 21 22  1  0
 22 13  1  0
 23 21  1  0
 24 23  2  0
 25 26  2  0
 25 19  1  0
 26 16  1  0
 27 28  1  0
 29 28  1  6
 29 30  1  0
 30 23  1  0
 31 33  1  0
 31 29  1  0
 32 31  2  0
M  END
$$$$
