WYS.pdb
     RDKit          3D

 33 35  0  0  1  0  0  0  0  0999 V2000
   24.2727  -18.9869  -19.0120 N   0  0  0  0  0  0  0  0  0  0  0  0
   23.0429  -18.6239  -18.3881 C   0  0  1  0  0  0  0  0  0  0  0  0
   21.9061  -18.7078  -19.3612 C   0  0  0  0  0  0  0  0  0  0  0  0
   22.0021  -17.7522  -20.4783 C   0  0  0  0  0  0  0  0  0  0  0  0
   22.6000  -18.0123  -21.7037 C   0  0  0  0  0  0  0  0  0  0  0  0
   22.4821  -16.9290  -22.4852 N   0  0  0  0  0  0  0  0  0  0  0  0
   21.8258  -15.9550  -21.8213 C   0  0  0  0  0  0  0  0  0  0  0  0
   21.4839  -14.6797  -22.2210 C   0  0  0  0  0  0  0  0  0  0  0  0
   20.8150  -13.8657  -21.3474 C   0  0  0  0  0  0  0  0  0  0  0  0
   20.5013  -14.3411  -20.0933 C   0  0  0  0  0  0  0  0  0  0  0  0
   20.8481  -15.6246  -19.6981 C   0  0  0  0  0  0  0  0  0  0  0  0
   21.5269  -16.4638  -20.5741 C   0  0  0  0  0  0  0  0  0  0  0  0
   22.8290  -19.4734  -17.1967 C   0  0  0  0  0  0  0  0  0  0  0  0
   23.4643  -20.5434  -17.0852 O   0  0  0  0  0  0  0  0  0  0  0  0
   21.7257  -20.9475   -8.6160 O   0  0  0  0  0  0  0  0  0  0  0  0
   21.8673  -20.4613   -9.9114 C   0  0  0  0  0  0  0  0  0  0  0  0
   22.8704  -20.8966  -10.7515 C   0  0  0  0  0  0  0  0  0  0  0  0
   23.0364  -20.4391  -12.0286 C   0  0  0  0  0  0  0  0  0  0  0  0
   22.1373  -19.4802  -12.4981 C   0  0  0  0  0  0  0  0  0  0  0  0
   22.2341  -18.9273  -13.8462 C   0  0  0  0  0  0  0  0  0  0  0  0
   21.7368  -19.8252  -14.9495 C   0  0  2  0  0  0  0  0  0  0  0  0
   21.9200  -19.0961  -16.1837 N   0  0  0  0  0  0  0  0  0  0  0  0
   20.3097  -20.1908  -14.8016 C   0  0  0  0  0  0  0  0  0  0  0  0
   19.4508  -19.2813  -14.6761 O   0  0  0  0  0  0  0  0  0  0  0  0
   21.1245  -19.0324  -11.6679 C   0  0  0  0  0  0  0  0  0  0  0  0
   20.9775  -19.5098  -10.3816 C   0  0  0  0  0  0  0  0  0  0  0  0
   18.2409  -22.6887  -11.7815 O   0  0  0  0  0  0  0  0  0  0  0  0
   19.3242  -22.2474  -12.5458 C   0  0  0  0  0  0  0  0  0  0  0  0
   18.8039  -21.9654  -13.9423 C   0  0  2  0  0  0  0  0  0  0  0  0
   19.8918  -21.5533  -14.7987 N   0  0  0  0  0  0  0  0  0  0  0  0
   17.7502  -20.9352  -13.8934 C   0  0  0  0  0  0  0  0  0  0  0  0
   16.5493  -21.2726  -13.9104 O   0  0  0  0  0  0  0  0  0  0  0  0
   18.0810  -19.5911  -13.8285 O   0  0  0  0  0  0  0  0  0  0  0  0
  2  1  1  6
  3  2  1  0
  4  3  1  0
  4  5  2  0
  6  5  1  0
  7  6  1  0
  8  7  2  0
  9  8  1  0
 10  9  2  0
 10 11  1  0
 11 12  2  0
 12  7  1  0
 12  4  1  0
 13  2  1  0
 14 13  2  0
 16 15  1  0
 16 17  2  0
 18 17  1  0
 19 18  2  0
 20 19  1  0
 21 20  1  1
 21 22  1  0
 22 13  1  0
 23 21  1  0
 24 23  2  0
 25 26  2  0
 25 19  1  0
 26 16  1  0
 27 28  1  0
 29 28  1  1
 29 30  1  0
 30 23  1  0
 31 33  1  0
 31 29  1  0
 32 31  2  0
M  END
$$$$
