WYS.pdb
     RDKit          3D

 33 35  0  0  1  0  0  0  0  0999 V2000
   26.5295  -22.8376  -12.2030 N   0  0  0  0  0  0  0  0  0  0  0  0
   25.9016  -21.6520  -11.7198 C   0  0  1  0  0  0  0  0  0  0  0  0
   26.8712  -20.5095  -11.6892 C   0  0  0  0  0  0  0  0  0  0  0  0
   27.9200  -20.6413  -10.6631 C   0  0  0  0  0  0  0  0  0  0  0  0
   29.2686  -20.8467  -10.9200 C   0  0  0  0  0  0  0  0  0  0  0  0
   29.9323  -20.8927   -9.7557 N   0  0  0  0  0  0  0  0  0  0  0  0
   29.0709  -20.7253   -8.7309 C   0  0  0  0  0  0  0  0  0  0  0  0
   29.2987  -20.7059   -7.3705 C   0  0  0  0  0  0  0  0  0  0  0  0
   28.2407  -20.5246   -6.5215 C   0  0  0  0  0  0  0  0  0  0  0  0
   26.9775  -20.3666   -7.0475 C   0  0  0  0  0  0  0  0  0  0  0  0
   26.7558  -20.3869   -8.4165 C   0  0  0  0  0  0  0  0  0  0  0  0
   27.8200  -20.5693   -9.2920 C   0  0  0  0  0  0  0  0  0  0  0  0
   24.7099  -21.3582  -12.5446 C   0  0  0  0  0  0  0  0  0  0  0  0
   24.6376  -21.8204  -13.7030 O   0  0  0  0  0  0  0  0  0  0  0  0
   19.4160  -24.2780   -8.5450 O   0  0  0  0  0  0  0  0  0  0  0  0
   19.9158  -23.2185   -9.2947 C   0  0  0  0  0  0  0  0  0  0  0  0
   20.8261  -22.3208   -8.7778 C   0  0  0  0  0  0  0  0  0  0  0  0
   21.3360  -21.2702   -9.4877 C   0  0  0  0  0  0  0  0  0  0  0  0
   20.9060  -21.1057  -10.8054 C   0  0  0  0  0  0  0  0  0  0  0  0
   21.3897  -20.0120  -11.6435 C   0  0  0  0  0  0  0  0  0  0  0  0
   22.3797  -20.4047  -12.7095 C   0  0  2  0  0  0  0  0  0  0  0  0
   23.6532  -20.5650  -12.0456 N   0  0  0  0  0  0  0  0  0  0  0  0
   22.5087  -19.3931  -13.7829 C   0  0  0  0  0  0  0  0  0  0  0  0
   22.7988  -18.2078  -13.4804 O   0  0  0  0  0  0  0  0  0  0  0  0
   19.9926  -21.9977  -11.3398 C   0  0  0  0  0  0  0  0  0  0  0  0
   19.4921  -23.0513  -10.6026 C   0  0  0  0  0  0  0  0  0  0  0  0
   23.2446  -20.4535  -17.5175 O   0  0  0  0  0  0  0  0  0  0  0  0
   23.4743  -19.1157  -17.1855 C   0  0  0  0  0  0  0  0  0  0  0  0
   22.4217  -18.7178  -16.1686 C   0  0  2  0  0  0  0  0  0  0  0  0
   22.3102  -19.7375  -15.1515 N   0  0  0  0  0  0  0  0  0  0  0  0
   21.1271  -18.4951  -16.8382 C   0  0  0  0  0  0  0  0  0  0  0  0
   20.1364  -19.1839  -16.5212 O   0  0  0  0  0  0  0  0  0  0  0  0
   20.9986  -17.5252  -17.8195 O   0  0  0  0  0  0  0  0  0  0  0  0
  2  1  1  6
  3  2  1  0
  4  3  1  0
  4  5  2  0
  6  5  1  0
  7  6  1  0
  8  7  2  0
  9  8  1  0
 10  9  2  0
 10 11  1  0
 11 12  2  0
 12  7  1  0
 12  4  1  0
 13  2  1  0
 14 13  2  0
 16 15  1  0
 16 17  2  0
 18 17  1  0
 19 18  2  0
 20 19  1  0
 21 20  1  1
 21 22  1  0
 22 13  1  0
 23 21  1  0
 24 23  2  0
 25 26  2  0
 25 19  1  0
 26 16  1  0
 27 28  1  0
 29 28  1  6
 29 30  1  0
 30 23  1  0
 31 33  1  0
 31 29  1  0
 32 31  2  0
M  END
$$$$
