WYS.pdb
     RDKit          3D

 33 35  0  0  1  0  0  0  0  0999 V2000
   27.5542  -21.9289  -13.5134 N   0  0  0  0  0  0  0  0  0  0  0  0
   26.4637  -21.8582  -12.5973 C   0  0  1  0  0  0  0  0  0  0  0  0
   26.6015  -20.6695  -11.6948 C   0  0  0  0  0  0  0  0  0  0  0  0
   27.6976  -20.7835  -10.7172 C   0  0  0  0  0  0  0  0  0  0  0  0
   29.0440  -20.8974  -11.0353 C   0  0  0  0  0  0  0  0  0  0  0  0
   29.7568  -20.9547   -9.9008 N   0  0  0  0  0  0  0  0  0  0  0  0
   28.9303  -20.8833   -8.8369 C   0  0  0  0  0  0  0  0  0  0  0  0
   29.2125  -20.9097   -7.4868 C   0  0  0  0  0  0  0  0  0  0  0  0
   28.1819  -20.8284   -6.5901 C   0  0  0  0  0  0  0  0  0  0  0  0
   26.8911  -20.7226   -7.0591 C   0  0  0  0  0  0  0  0  0  0  0  0
   26.6145  -20.6965   -8.4180 C   0  0  0  0  0  0  0  0  0  0  0  0
   27.6504  -20.7773   -9.3414 C   0  0  0  0  0  0  0  0  0  0  0  0
   25.1913  -21.8496  -13.3506 C   0  0  0  0  0  0  0  0  0  0  0  0
   24.8689  -20.8302  -13.9970 O   0  0  0  0  0  0  0  0  0  0  0  0
   19.2696  -24.8883  -18.8651 O   0  0  0  0  0  0  0  0  0  0  0  0
   20.1664  -24.7748  -17.8080 C   0  0  0  0  0  0  0  0  0  0  0  0
   19.8092  -25.0714  -16.5096 C   0  0  0  0  0  0  0  0  0  0  0  0
   20.6660  -24.9702  -15.4496 C   0  0  0  0  0  0  0  0  0  0  0  0
   21.9699  -24.5430  -15.7057 C   0  0  0  0  0  0  0  0  0  0  0  0
   22.9576  -24.3995  -14.6397 C   0  0  0  0  0  0  0  0  0  0  0  0
   23.0658  -23.0209  -14.0410 C   0  0  2  0  0  0  0  0  0  0  0  0
   24.3352  -22.9729  -13.3521 N   0  0  0  0  0  0  0  0  0  0  0  0
   21.9762  -22.7156  -13.0861 C   0  0  0  0  0  0  0  0  0  0  0  0
   22.0710  -23.1114  -11.8966 O   0  0  0  0  0  0  0  0  0  0  0  0
   22.3449  -24.2411  -17.0033 C   0  0  0  0  0  0  0  0  0  0  0  0
   21.4612  -24.3512  -18.0573 C   0  0  0  0  0  0  0  0  0  0  0  0
   18.2311  -20.1075  -11.7929 O   0  0  0  0  0  0  0  0  0  0  0  0
   19.3038  -20.2784  -12.6721 C   0  0  0  0  0  0  0  0  0  0  0  0
   19.7755  -21.7131  -12.5320 C   0  0  2  0  0  0  0  0  0  0  0  0
   20.8230  -21.9821  -13.4898 N   0  0  0  0  0  0  0  0  0  0  0  0
   18.6433  -22.6401  -12.7126 C   0  0  0  0  0  0  0  0  0  0  0  0
   18.3150  -23.0050  -13.8594 O   0  0  0  0  0  0  0  0  0  0  0  0
   17.9372  -23.1120  -11.6176 O   0  0  0  0  0  0  0  0  0  0  0  0
  2  1  1  6
  3  2  1  0
  4  3  1  0
  4  5  2  0
  6  5  1  0
  7  6  1  0
  8  7  2  0
  9  8  1  0
 10  9  2  0
 10 11  1  0
 11 12  2  0
 12  7  1  0
 12  4  1  0
 13  2  1  0
 14 13  2  0
 16 15  1  0
 16 17  2  0
 18 17  1  0
 19 18  2  0
 20 19  1  0
 21 20  1  1
 21 22  1  0
 22 13  1  0
 23 21  1  0
 24 23  2  0
 25 26  2  0
 25 19  1  0
 26 16  1  0
 27 28  1  0
 29 28  1  6
 29 30  1  0
 30 23  1  0
 31 33  1  0
 31 29  1  0
 32 31  2  0
M  END
$$$$
