WYS.pdb
     RDKit          3D

 33 35  0  0  1  0  0  0  0  0999 V2000
   27.6821  -21.5089  -11.7467 N   0  0  0  0  0  0  0  0  0  0  0  0
   26.6874  -20.8977  -10.9280 C   0  0  1  0  0  0  0  0  0  0  0  0
   27.2836  -19.8099  -10.0869 C   0  0  0  0  0  0  0  0  0  0  0  0
   28.2941  -20.2824   -9.1246 C   0  0  0  0  0  0  0  0  0  0  0  0
   29.5208  -20.8378   -9.4616 C   0  0  0  0  0  0  0  0  0  0  0  0
   30.1911  -21.1292   -8.3373 N   0  0  0  0  0  0  0  0  0  0  0  0
   29.4518  -20.7871   -7.2619 C   0  0  0  0  0  0  0  0  0  0  0  0
   29.7297  -20.9063   -5.9160 C   0  0  0  0  0  0  0  0  0  0  0  0
   28.7986  -20.4869   -5.0048 C   0  0  0  0  0  0  0  0  0  0  0  0
   27.6095  -19.9575   -5.4556 C   0  0  0  0  0  0  0  0  0  0  0  0
   27.3367  -19.8405   -6.8104 C   0  0  0  0  0  0  0  0  0  0  0  0
   28.2725  -20.2611   -7.7483 C   0  0  0  0  0  0  0  0  0  0  0  0
   25.5831  -20.4093  -11.7817 C   0  0  0  0  0  0  0  0  0  0  0  0
   25.7339  -19.3548  -12.4345 O   0  0  0  0  0  0  0  0  0  0  0  0
   27.5414  -19.4579  -17.3775 O   0  0  0  0  0  0  0  0  0  0  0  0
   26.5565  -19.9800  -16.5457 C   0  0  0  0  0  0  0  0  0  0  0  0
   26.7687  -21.1036  -15.7751 C   0  0  0  0  0  0  0  0  0  0  0  0
   25.8225  -21.6411  -14.9482 C   0  0  0  0  0  0  0  0  0  0  0  0
   24.5782  -21.0116  -14.8878 C   0  0  0  0  0  0  0  0  0  0  0  0
   23.5015  -21.5119  -14.0376 C   0  0  0  0  0  0  0  0  0  0  0  0
   23.2812  -20.7476  -12.7579 C   0  0  2  0  0  0  0  0  0  0  0  0
   24.3623  -21.1138  -11.8717 N   0  0  0  0  0  0  0  0  0  0  0  0
   21.9870  -21.0607  -12.1102 C   0  0  0  0  0  0  0  0  0  0  0  0
   21.8512  -22.1523  -11.5016 O   0  0  0  0  0  0  0  0  0  0  0  0
   24.3484  -19.8827  -15.6549 C   0  0  0  0  0  0  0  0  0  0  0  0
   25.3203  -19.3587  -16.4825 C   0  0  0  0  0  0  0  0  0  0  0  0
   18.7370  -18.6020  -12.5776 O   0  0  0  0  0  0  0  0  0  0  0  0
   18.8021  -19.2418  -11.3370 C   0  0  0  0  0  0  0  0  0  0  0  0
   19.6467  -20.4885  -11.5179 C   0  0  2  0  0  0  0  0  0  0  0  0
   20.8934  -20.1485  -12.1637 N   0  0  0  0  0  0  0  0  0  0  0  0
   18.9048  -21.4960  -12.2979 C   0  0  0  0  0  0  0  0  0  0  0  0
   19.2910  -21.8035  -13.4436 O   0  0  0  0  0  0  0  0  0  0  0  0
   17.7788  -22.1072  -11.7698 O   0  0  0  0  0  0  0  0  0  0  0  0
  2  1  1  6
  3  2  1  0
  4  3  1  0
  4  5  2  0
  6  5  1  0
  7  6  1  0
  8  7  2  0
  9  8  1  0
 10  9  2  0
 10 11  1  0
 11 12  2  0
 12  7  1  0
 12  4  1  0
 13  2  1  0
 14 13  2  0
 16 15  1  0
 16 17  2  0
 18 17  1  0
 19 18  2  0
 20 19  1  0
 21 20  1  6
 21 22  1  0
 22 13  1  0
 23 21  1  0
 24 23  2  0
 25 26  2  0
 25 19  1  0
 26 16  1  0
 27 28  1  0
 29 28  1  6
 29 30  1  0
 30 23  1  0
 31 33  1  0
 31 29  1  0
 32 31  2  0
M  END
$$$$
