WYS.pdb
     RDKit          3D

 33 35  0  0  1  0  0  0  0  0999 V2000
   28.7662  -21.2919  -14.0209 N   0  0  0  0  0  0  0  0  0  0  0  0
   27.8475  -21.1606  -12.9382 C   0  0  1  0  0  0  0  0  0  0  0  0
   28.5729  -20.9110  -11.6507 C   0  0  0  0  0  0  0  0  0  0  0  0
   27.6893  -20.7983  -10.4774 C   0  0  0  0  0  0  0  0  0  0  0  0
   26.3062  -20.9135  -10.5041 C   0  0  0  0  0  0  0  0  0  0  0  0
   25.8334  -20.7819   -9.2561 N   0  0  0  0  0  0  0  0  0  0  0  0
   26.8554  -20.5821   -8.3982 C   0  0  0  0  0  0  0  0  0  0  0  0
   26.8466  -20.3910   -7.0321 C   0  0  0  0  0  0  0  0  0  0  0  0
   28.0342  -20.1989   -6.3797 C   0  0  0  0  0  0  0  0  0  0  0  0
   29.2058  -20.2013   -7.1039 C   0  0  0  0  0  0  0  0  0  0  0  0
   29.2073  -20.3942   -8.4774 C   0  0  0  0  0  0  0  0  0  0  0  0
   28.0094  -20.5915   -9.1545 C   0  0  0  0  0  0  0  0  0  0  0  0
   26.8712  -20.0950  -13.2511 C   0  0  0  0  0  0  0  0  0  0  0  0
   27.2769  -18.9285  -13.4394 O   0  0  0  0  0  0  0  0  0  0  0  0
   21.5017  -16.3573  -18.6874 O   0  0  0  0  0  0  0  0  0  0  0  0
   22.3682  -17.0740  -17.8688 C   0  0  0  0  0  0  0  0  0  0  0  0
   23.3653  -16.4591  -17.1415 C   0  0  0  0  0  0  0  0  0  0  0  0
   24.2321  -17.1342  -16.3287 C   0  0  0  0  0  0  0  0  0  0  0  0
   24.0922  -18.5200  -16.2368 C   0  0  0  0  0  0  0  0  0  0  0  0
   24.9718  -19.3298  -15.3984 C   0  0  0  0  0  0  0  0  0  0  0  0
   24.5274  -19.4962  -13.9683 C   0  0  2  0  0  0  0  0  0  0  0  0
   25.4894  -20.3731  -13.3406 N   0  0  0  0  0  0  0  0  0  0  0  0
   23.1736  -20.0833  -13.8457 C   0  0  0  0  0  0  0  0  0  0  0  0
   22.9841  -21.2738  -14.2026 O   0  0  0  0  0  0  0  0  0  0  0  0
   23.0965  -19.1531  -16.9603 C   0  0  0  0  0  0  0  0  0  0  0  0
   22.2332  -18.4492  -17.7745 C   0  0  0  0  0  0  0  0  0  0  0  0
   20.2124  -18.1734  -11.7581 O   0  0  0  0  0  0  0  0  0  0  0  0
   20.1782  -19.5674  -11.8496 C   0  0  0  0  0  0  0  0  0  0  0  0
   20.7857  -19.9450  -13.1872 C   0  0  2  0  0  0  0  0  0  0  0  0
   22.0824  -19.3248  -13.3311 N   0  0  0  0  0  0  0  0  0  0  0  0
   19.8848  -19.5475  -14.2846 C   0  0  0  0  0  0  0  0  0  0  0  0
   18.7447  -20.0472  -14.3653 O   0  0  0  0  0  0  0  0  0  0  0  0
   20.2928  -18.6210  -15.2309 O   0  0  0  0  0  0  0  0  0  0  0  0
  2  1  1  6
  3  2  1  0
  4  3  1  0
  4  5  2  0
  6  5  1  0
  7  6  1  0
  8  7  2  0
  9  8  1  0
 10  9  2  0
 10 11  1  0
 11 12  2  0
 12  7  1  0
 12  4  1  0
 13  2  1  0
 14 13  2  0
 16 15  1  0
 16 17  2  0
 18 17  1  0
 19 18  2  0
 20 19  1  0
 21 20  1  6
 21 22  1  0
 22 13  1  0
 23 21  1  0
 24 23  2  0
 25 26  2  0
 25 19  1  0
 26 16  1  0
 27 28  1  0
 29 28  1  1
 29 30  1  0
 30 23  1  0
 31 33  1  0
 31 29  1  0
 32 31  2  0
M  END
$$$$
