WYS.pdb
     RDKit          3D

 33 35  0  0  1  0  0  0  0  0999 V2000
   24.5154  -19.0753  -17.1593 N   0  0  0  0  0  0  0  0  0  0  0  0
   23.1235  -19.1935  -16.8731 C   0  0  1  0  0  0  0  0  0  0  0  0
   22.3434  -19.4679  -18.1231 C   0  0  0  0  0  0  0  0  0  0  0  0
   22.3539  -18.3578  -19.0915 C   0  0  0  0  0  0  0  0  0  0  0  0
   23.0631  -18.3444  -20.2847 C   0  0  0  0  0  0  0  0  0  0  0  0
   22.8207  -17.1903  -20.9232 N   0  0  0  0  0  0  0  0  0  0  0  0
   21.9739  -16.4335  -20.1950 C   0  0  0  0  0  0  0  0  0  0  0  0
   21.4555  -15.1809  -20.4502 C   0  0  0  0  0  0  0  0  0  0  0  0
   20.6089  -14.6127  -19.5372 C   0  0  0  0  0  0  0  0  0  0  0  0
   20.2973  -15.3061  -18.3886 C   0  0  0  0  0  0  0  0  0  0  0  0
   20.8221  -16.5654  -18.1385 C   0  0  0  0  0  0  0  0  0  0  0  0
   21.6827  -17.1564  -19.0563 C   0  0  0  0  0  0  0  0  0  0  0  0
   22.9223  -20.2352  -15.8429 C   0  0  0  0  0  0  0  0  0  0  0  0
   23.6951  -21.2161  -15.8045 O   0  0  0  0  0  0  0  0  0  0  0  0
   17.2939  -16.7506  -12.0095 O   0  0  0  0  0  0  0  0  0  0  0  0
   18.3691  -17.6208  -12.1549 C   0  0  0  0  0  0  0  0  0  0  0  0
   19.5383  -17.2422  -12.7803 C   0  0  0  0  0  0  0  0  0  0  0  0
   20.6121  -18.0727  -12.9391 C   0  0  0  0  0  0  0  0  0  0  0  0
   20.5097  -19.3713  -12.4379 C   0  0  0  0  0  0  0  0  0  0  0  0
   21.6009  -20.3339  -12.5618 C   0  0  0  0  0  0  0  0  0  0  0  0
   21.6362  -21.1069  -13.8548 C   0  0  2  0  0  0  0  0  0  0  0  0
   21.8727  -20.1402  -14.9027 N   0  0  0  0  0  0  0  0  0  0  0  0
   20.3761  -21.8334  -14.1314 C   0  0  0  0  0  0  0  0  0  0  0  0
   19.5491  -21.3451  -14.9427 O   0  0  0  0  0  0  0  0  0  0  0  0
   19.3431  -19.7677  -11.8074 C   0  0  0  0  0  0  0  0  0  0  0  0
   18.2721  -18.9104  -11.6592 C   0  0  0  0  0  0  0  0  0  0  0  0
   19.9481  -25.6217  -14.5183 O   0  0  0  0  0  0  0  0  0  0  0  0
   18.9490  -24.7131  -14.8772 C   0  0  0  0  0  0  0  0  0  0  0  0
   18.8140  -23.7204  -13.7384 C   0  0  2  0  0  0  0  0  0  0  0  0
   20.0833  -23.0748  -13.4956 N   0  0  0  0  0  0  0  0  0  0  0  0
   18.3271  -24.4022  -12.5251 C   0  0  0  0  0  0  0  0  0  0  0  0
   19.0489  -24.4543  -11.5090 O   0  0  0  0  0  0  0  0  0  0  0  0
   17.0714  -24.9879  -12.5016 O   0  0  0  0  0  0  0  0  0  0  0  0
  2  1  1  6
  3  2  1  0
  4  3  1  0
  4  5  2  0
  6  5  1  0
  7  6  1  0
  8  7  2  0
  9  8  1  0
 10  9  2  0
 10 11  1  0
 11 12  2  0
 12  7  1  0
 12  4  1  0
 13  2  1  0
 14 13  2  0
 16 15  1  0
 16 17  2  0
 18 17  1  0
 19 18  2  0
 20 19  1  0
 21 20  1  1
 21 22  1  0
 22 13  1  0
 23 21  1  0
 24 23  2  0
 25 26  2  0
 25 19  1  0
 26 16  1  0
 27 28  1  0
 29 28  1  6
 29 30  1  0
 30 23  1  0
 31 33  1  0
 31 29  1  0
 32 31  2  0
M  END
$$$$
