WYS.pdb
     RDKit          3D

 33 35  0  0  1  0  0  0  0  0999 V2000
   21.2532  -23.3370  -15.7479 N   0  0  0  0  0  0  0  0  0  0  0  0
   20.2540  -22.6996  -14.9550 C   0  0  1  0  0  0  0  0  0  0  0  0
   19.2316  -22.0301  -15.8226 C   0  0  0  0  0  0  0  0  0  0  0  0
   19.7594  -20.9013  -16.6085 C   0  0  0  0  0  0  0  0  0  0  0  0
   20.8369  -20.1066  -16.2420 C   0  0  0  0  0  0  0  0  0  0  0  0
   21.0534  -19.1958  -17.2021 N   0  0  0  0  0  0  0  0  0  0  0  0
   20.1557  -19.3565  -18.1964 C   0  0  0  0  0  0  0  0  0  0  0  0
   19.9935  -18.6530  -19.3719 C   0  0  0  0  0  0  0  0  0  0  0  0
   18.9871  -19.0106  -20.2276 C   0  0  0  0  0  0  0  0  0  0  0  0
   18.1634  -20.0625  -19.8926 C   0  0  0  0  0  0  0  0  0  0  0  0
   18.3323  -20.7656  -18.7090 C   0  0  0  0  0  0  0  0  0  0  0  0
   19.3504  -20.4153  -17.8298 C   0  0  0  0  0  0  0  0  0  0  0  0
   19.6525  -23.6901  -14.0365 C   0  0  0  0  0  0  0  0  0  0  0  0
   19.3745  -24.8311  -14.4627 O   0  0  0  0  0  0  0  0  0  0  0  0
   16.6799  -26.6625   -6.1832 O   0  0  0  0  0  0  0  0  0  0  0  0
   17.2764  -25.9463   -7.2156 C   0  0  0  0  0  0  0  0  0  0  0  0
   16.9100  -24.6512   -7.5155 C   0  0  0  0  0  0  0  0  0  0  0  0
   17.4761  -23.9210   -8.5225 C   0  0  0  0  0  0  0  0  0  0  0  0
   18.4778  -24.5276   -9.2820 C   0  0  0  0  0  0  0  0  0  0  0  0
   19.1404  -23.8312  -10.3813 C   0  0  0  0  0  0  0  0  0  0  0  0
   18.7120  -24.2516  -11.7635 C   0  0  2  0  0  0  0  0  0  0  0  0
   19.3872  -23.3687  -12.6870 N   0  0  0  0  0  0  0  0  0  0  0  0
   17.2492  -24.1557  -11.9721 C   0  0  0  0  0  0  0  0  0  0  0  0
   16.7087  -23.0222  -12.0321 O   0  0  0  0  0  0  0  0  0  0  0  0
   18.8576  -25.8270   -8.9944 C   0  0  0  0  0  0  0  0  0  0  0  0
   18.2707  -26.5441   -7.9719 C   0  0  0  0  0  0  0  0  0  0  0  0
   15.1055  -27.4870  -12.7727 O   0  0  0  0  0  0  0  0  0  0  0  0
   14.5133  -26.2972  -13.2043 C   0  0  0  0  0  0  0  0  0  0  0  0
   15.0179  -25.1897  -12.2991 C   0  0  2  0  0  0  0  0  0  0  0  0
   16.4432  -25.3234  -12.1059 N   0  0  0  0  0  0  0  0  0  0  0  0
   14.3042  -25.2232  -11.0092 C   0  0  0  0  0  0  0  0  0  0  0  0
   14.9490  -25.2879   -9.9432 O   0  0  0  0  0  0  0  0  0  0  0  0
   12.9197  -25.1833  -10.9685 O   0  0  0  0  0  0  0  0  0  0  0  0
  2  1  1  6
  3  2  1  0
  4  3  1  0
  4  5  2  0
  6  5  1  0
  7  6  1  0
  8  7  2  0
  9  8  1  0
 10  9  2  0
 10 11  1  0
 11 12  2  0
 12  7  1  0
 12  4  1  0
 13  2  1  0
 14 13  2  0
 16 15  1  0
 16 17  2  0
 18 17  1  0
 19 18  2  0
 20 19  1  0
 21 20  1  1
 21 22  1  0
 22 13  1  0
 23 21  1  0
 24 23  2  0
 25 26  2  0
 25 19  1  0
 26 16  1  0
 27 28  1  0
 29 28  1  6
 29 30  1  0
 30 23  1  0
 31 33  1  0
 31 29  1  0
 32 31  2  0
M  END
$$$$
