WYS.pdb
     RDKit          3D

 33 35  0  0  1  0  0  0  0  0999 V2000
   25.8183   -8.7445  -19.4614 N   0  0  0  0  0  0  0  0  0  0  0  0
   25.2157   -9.2625  -18.2773 C   0  0  1  0  0  0  0  0  0  0  0  0
   25.9881   -8.8491  -17.0613 C   0  0  0  0  0  0  0  0  0  0  0  0
   27.2991   -9.5083  -16.9315 C   0  0  0  0  0  0  0  0  0  0  0  0
   28.5208   -8.9260  -17.2399 C   0  0  0  0  0  0  0  0  0  0  0  0
   29.5006   -9.8034  -16.9779 N   0  0  0  0  0  0  0  0  0  0  0  0
   28.9726  -10.9515  -16.5055 C   0  0  0  0  0  0  0  0  0  0  0  0
   29.5909  -12.1207  -16.1133 C   0  0  0  0  0  0  0  0  0  0  0  0
   28.8227  -13.1634  -15.6710 C   0  0  0  0  0  0  0  0  0  0  0  0
   27.4536  -13.0179  -15.6295 C   0  0  0  0  0  0  0  0  0  0  0  0
   26.8386  -11.8394  -16.0253 C   0  0  0  0  0  0  0  0  0  0  0  0
   27.6050  -10.7710  -16.4761 C   0  0  0  0  0  0  0  0  0  0  0  0
   23.8017   -8.8338  -18.2199 C   0  0  0  0  0  0  0  0  0  0  0  0
   23.4765   -7.7286  -18.7033 O   0  0  0  0  0  0  0  0  0  0  0  0
   20.8442  -11.3294  -23.6766 O   0  0  0  0  0  0  0  0  0  0  0  0
   20.7863  -11.1219  -22.3025 C   0  0  0  0  0  0  0  0  0  0  0  0
   19.8830  -10.2509  -21.7307 C   0  0  0  0  0  0  0  0  0  0  0  0
   19.8008  -10.0249  -20.3853 C   0  0  0  0  0  0  0  0  0  0  0  0
   20.6826  -10.7178  -19.5543 C   0  0  0  0  0  0  0  0  0  0  0  0
   20.6753  -10.5416  -18.1047 C   0  0  0  0  0  0  0  0  0  0  0  0
   21.4061   -9.3250  -17.5984 C   0  0  2  0  0  0  0  0  0  0  0  0
   22.8135   -9.6515  -17.6286 N   0  0  0  0  0  0  0  0  0  0  0  0
   21.0186   -8.9467  -16.2203 C   0  0  0  0  0  0  0  0  0  0  0  0
   21.4977   -9.5849  -15.2488 O   0  0  0  0  0  0  0  0  0  0  0  0
   21.5957  -11.5958  -20.1118 C   0  0  0  0  0  0  0  0  0  0  0  0
   21.6593  -11.8071  -21.4739 C   0  0  0  0  0  0  0  0  0  0  0  0
   18.0513   -6.1476  -15.5039 O   0  0  0  0  0  0  0  0  0  0  0  0
   19.0624   -6.2236  -14.5424 C   0  0  0  0  0  0  0  0  0  0  0  0
   19.6602   -7.6149  -14.6278 C   0  0  2  0  0  0  0  0  0  0  0  0
   20.1134   -7.8737  -15.9748 N   0  0  0  0  0  0  0  0  0  0  0  0
   18.6699   -8.6204  -14.2009 C   0  0  0  0  0  0  0  0  0  0  0  0
   18.3183   -9.5209  -14.9894 O   0  0  0  0  0  0  0  0  0  0  0  0
   18.1235   -8.5755  -12.9282 O   0  0  0  0  0  0  0  0  0  0  0  0
  2  1  1  6
  3  2  1  0
  4  3  1  0
  4  5  2  0
  6  5  1  0
  7  6  1  0
  8  7  2  0
  9  8  1  0
 10  9  2  0
 10 11  1  0
 11 12  2  0
 12  7  1  0
 12  4  1  0
 13  2  1  0
 14 13  2  0
 16 15  1  0
 16 17  2  0
 18 17  1  0
 19 18  2  0
 20 19  1  0
 21 20  1  1
 21 22  1  0
 22 13  1  0
 23 21  1  0
 24 23  2  0
 25 26  2  0
 25 19  1  0
 26 16  1  0
 27 28  1  0
 29 28  1  6
 29 30  1  0
 30 23  1  0
 31 33  1  0
 31 29  1  0
 32 31  2  0
M  END
$$$$
