WYS.pdb
     RDKit          3D

 33 35  0  0  1  0  0  0  0  0999 V2000
   24.6134  -21.4533  -18.8164 N   0  0  0  0  0  0  0  0  0  0  0  0
   23.8412  -20.5683  -18.0078 C   0  0  1  0  0  0  0  0  0  0  0  0
   22.5053  -20.3029  -18.6334 C   0  0  0  0  0  0  0  0  0  0  0  0
   22.5403  -19.3123  -19.7231 C   0  0  0  0  0  0  0  0  0  0  0  0
   22.2989  -19.5877  -21.0620 C   0  0  0  0  0  0  0  0  0  0  0  0
   22.3906  -18.4494  -21.7649 N   0  0  0  0  0  0  0  0  0  0  0  0
   22.6858  -17.4241  -20.9391 C   0  0  0  0  0  0  0  0  0  0  0  0
   22.8796  -16.0864  -21.2146 C   0  0  0  0  0  0  0  0  0  0  0  0
   23.1818  -15.2329  -20.1883 C   0  0  0  0  0  0  0  0  0  0  0  0
   23.2844  -15.7319  -18.9086 C   0  0  0  0  0  0  0  0  0  0  0  0
   23.0881  -17.0782  -18.6387 C   0  0  0  0  0  0  0  0  0  0  0  0
   22.7798  -17.9577  -19.6701 C   0  0  0  0  0  0  0  0  0  0  0  0
   23.7240  -21.1280  -16.6440 C   0  0  0  0  0  0  0  0  0  0  0  0
   23.6873  -22.3674  -16.4916 O   0  0  0  0  0  0  0  0  0  0  0  0
   29.6875  -21.5911  -15.8147 O   0  0  0  0  0  0  0  0  0  0  0  0
   28.4677  -21.2908  -15.2178 C   0  0  0  0  0  0  0  0  0  0  0  0
   27.6852  -22.2583  -14.6236 C   0  0  0  0  0  0  0  0  0  0  0  0
   26.4829  -21.9961  -14.0291 C   0  0  0  0  0  0  0  0  0  0  0  0
   26.0319  -20.6751  -14.0286 C   0  0  0  0  0  0  0  0  0  0  0  0
   24.7589  -20.2953  -13.4222 C   0  0  0  0  0  0  0  0  0  0  0  0
   23.5289  -20.7658  -14.1546 C   0  0  2  0  0  0  0  0  0  0  0  0
   23.6530  -20.2862  -15.5121 N   0  0  0  0  0  0  0  0  0  0  0  0
   22.2709  -20.2537  -13.5653 C   0  0  0  0  0  0  0  0  0  0  0  0
   21.9964  -20.5246  -12.3687 O   0  0  0  0  0  0  0  0  0  0  0  0
   26.8049  -19.6916  -14.6207 C   0  0  0  0  0  0  0  0  0  0  0  0
   28.0161  -19.9816  -15.2149 C   0  0  0  0  0  0  0  0  0  0  0  0
   19.9538  -17.3878  -15.4641 O   0  0  0  0  0  0  0  0  0  0  0  0
   20.0280  -17.4546  -14.0703 C   0  0  0  0  0  0  0  0  0  0  0  0
   20.1854  -18.9165  -13.6981 C   0  0  2  0  0  0  0  0  0  0  0  0
   21.3660  -19.4602  -14.3285 N   0  0  0  0  0  0  0  0  0  0  0  0
   18.9816  -19.6727  -14.0891 C   0  0  0  0  0  0  0  0  0  0  0  0
   17.8800  -19.3993  -13.5715 O   0  0  0  0  0  0  0  0  0  0  0  0
   19.0613  -20.6879  -15.0290 O   0  0  0  0  0  0  0  0  0  0  0  0
  2  1  1  6
  3  2  1  0
  4  3  1  0
  4  5  2  0
  6  5  1  0
  7  6  1  0
  8  7  2  0
  9  8  1  0
 10  9  2  0
 10 11  1  0
 11 12  2  0
 12  7  1  0
 12  4  1  0
 13  2  1  0
 14 13  2  0
 16 15  1  0
 16 17  2  0
 18 17  1  0
 19 18  2  0
 20 19  1  0
 21 20  1  1
 21 22  1  0
 22 13  1  0
 23 21  1  0
 24 23  2  0
 25 26  2  0
 25 19  1  0
 26 16  1  0
 27 28  1  0
 29 28  1  6
 29 30  1  0
 30 23  1  0
 31 33  1  0
 31 29  1  0
 32 31  2  0
M  END
$$$$
