WYS.pdb
     RDKit          3D

 33 35  0  0  1  0  0  0  0  0999 V2000
   28.1159  -19.6749  -19.2414 N   0  0  0  0  0  0  0  0  0  0  0  0
   27.1715  -18.9778  -18.4316 C   0  0  1  0  0  0  0  0  0  0  0  0
   25.9396  -18.6434  -19.2171 C   0  0  0  0  0  0  0  0  0  0  0  0
   26.1512  -17.6213  -20.2567 C   0  0  0  0  0  0  0  0  0  0  0  0
   26.5159  -17.8809  -21.5707 C   0  0  0  0  0  0  0  0  0  0  0  0
   26.5941  -16.7209  -22.2389 N   0  0  0  0  0  0  0  0  0  0  0  0
   26.2942  -15.6964  -21.4140 C   0  0  0  0  0  0  0  0  0  0  0  0
   26.2515  -14.3394  -21.6586 C   0  0  0  0  0  0  0  0  0  0  0  0
   25.9221  -13.4895  -20.6377 C   0  0  0  0  0  0  0  0  0  0  0  0
   25.6423  -14.0111  -19.3940 C   0  0  0  0  0  0  0  0  0  0  0  0
   25.6870  -15.3767  -19.1551 C   0  0  0  0  0  0  0  0  0  0  0  0
   26.0190  -16.2530  -20.1818 C   0  0  0  0  0  0  0  0  0  0  0  0
   26.8713  -19.7819  -17.2275 C   0  0  0  0  0  0  0  0  0  0  0  0
   26.9009  -21.0288  -17.3004 O   0  0  0  0  0  0  0  0  0  0  0  0
   25.8115  -21.4065   -8.5816 O   0  0  0  0  0  0  0  0  0  0  0  0
   26.0649  -20.8536   -9.8325 C   0  0  0  0  0  0  0  0  0  0  0  0
   25.3651  -19.7644  -10.3071 C   0  0  0  0  0  0  0  0  0  0  0  0
   25.5898  -19.1981  -11.5305 C   0  0  0  0  0  0  0  0  0  0  0  0
   26.5829  -19.7596  -12.3347 C   0  0  0  0  0  0  0  0  0  0  0  0
   26.8945  -19.2285  -13.6589 C   0  0  0  0  0  0  0  0  0  0  0  0
   26.1725  -19.8880  -14.8053 C   0  0  2  0  0  0  0  0  0  0  0  0
   26.5523  -19.1651  -15.9976 N   0  0  0  0  0  0  0  0  0  0  0  0
   24.6994  -19.8558  -14.6591 C   0  0  0  0  0  0  0  0  0  0  0  0
   24.0907  -18.7645  -14.7968 O   0  0  0  0  0  0  0  0  0  0  0  0
   27.2948  -20.8533  -11.8735 C   0  0  0  0  0  0  0  0  0  0  0  0
   27.0493  -21.4074  -10.6339 C   0  0  0  0  0  0  0  0  0  0  0  0
   22.5231  -23.2895  -13.8949 O   0  0  0  0  0  0  0  0  0  0  0  0
   21.8977  -22.2846  -14.6376 C   0  0  0  0  0  0  0  0  0  0  0  0
   22.5234  -20.9658  -14.2257 C   0  0  2  0  0  0  0  0  0  0  0  0
   23.9594  -21.0377  -14.3654 N   0  0  0  0  0  0  0  0  0  0  0  0
   22.1430  -20.6337  -12.8404 C   0  0  0  0  0  0  0  0  0  0  0  0
   23.0180  -20.5690  -11.9537 O   0  0  0  0  0  0  0  0  0  0  0  0
   20.8186  -20.3917  -12.5119 O   0  0  0  0  0  0  0  0  0  0  0  0
  2  1  1  6
  3  2  1  0
  4  3  1  0
  4  5  2  0
  6  5  1  0
  7  6  1  0
  8  7  2  0
  9  8  1  0
 10  9  2  0
 10 11  1  0
 11 12  2  0
 12  7  1  0
 12  4  1  0
 13  2  1  0
 14 13  2  0
 16 15  1  0
 16 17  2  0
 18 17  1  0
 19 18  2  0
 20 19  1  0
 21 20  1  1
 21 22  1  0
 22 13  1  0
 23 21  1  0
 24 23  2  0
 25 26  2  0
 25 19  1  0
 26 16  1  0
 27 28  1  0
 29 28  1  1
 29 30  1  0
 30 23  1  0
 31 33  1  0
 31 29  1  0
 32 31  2  0
M  END
$$$$
