WYS.pdb
     RDKit          3D

 33 35  0  0  1  0  0  0  0  0999 V2000
   18.4475  -10.3571  -19.0465 N   0  0  0  0  0  0  0  0  0  0  0  0
   18.4108  -11.7563  -19.3187 C   0  0  1  0  0  0  0  0  0  0  0  0
   19.7683  -12.3684  -19.1492 C   0  0  0  0  0  0  0  0  0  0  0  0
   20.7255  -12.0058  -20.2088 C   0  0  0  0  0  0  0  0  0  0  0  0
   21.4148  -10.8035  -20.2862 C   0  0  0  0  0  0  0  0  0  0  0  0
   22.2143  -10.8277  -21.3626 N   0  0  0  0  0  0  0  0  0  0  0  0
   22.0804  -12.0061  -22.0057 C   0  0  0  0  0  0  0  0  0  0  0  0
   22.6934  -12.4700  -23.1512 C   0  0  0  0  0  0  0  0  0  0  0  0
   22.3784  -13.7184  -23.6153 C   0  0  0  0  0  0  0  0  0  0  0  0
   21.4583  -14.4778  -22.9270 C   0  0  0  0  0  0  0  0  0  0  0  0
   20.8458  -14.0052  -21.7757 C   0  0  0  0  0  0  0  0  0  0  0  0
   21.1557  -12.7397  -21.2911 C   0  0  0  0  0  0  0  0  0  0  0  0
   17.3925  -12.3959  -18.4580 C   0  0  0  0  0  0  0  0  0  0  0  0
   16.7470  -11.6960  -17.6492 O   0  0  0  0  0  0  0  0  0  0  0  0
   10.0532  -15.8605  -16.0692 O   0  0  0  0  0  0  0  0  0  0  0  0
   11.2221  -15.3299  -16.6046 C   0  0  0  0  0  0  0  0  0  0  0  0
   11.7924  -14.1735  -16.1157 C   0  0  0  0  0  0  0  0  0  0  0  0
   12.9394  -13.6268  -16.6191 C   0  0  0  0  0  0  0  0  0  0  0  0
   13.5588  -14.2815  -17.6850 C   0  0  0  0  0  0  0  0  0  0  0  0
   14.7853  -13.7740  -18.2937 C   0  0  0  0  0  0  0  0  0  0  0  0
   16.0562  -14.4455  -17.8417 C   0  0  2  0  0  0  0  0  0  0  0  0
   17.1374  -13.7829  -18.5347 N   0  0  0  0  0  0  0  0  0  0  0  0
   16.0890  -15.8934  -18.1497 C   0  0  0  0  0  0  0  0  0  0  0  0
   16.1308  -16.2670  -19.3493 O   0  0  0  0  0  0  0  0  0  0  0  0
   12.9995  -15.4434  -18.1878 C   0  0  0  0  0  0  0  0  0  0  0  0
   11.8401  -15.9760  -17.6622 C   0  0  0  0  0  0  0  0  0  0  0  0
   16.8639  -18.6775  -15.2855 O   0  0  0  0  0  0  0  0  0  0  0  0
   17.0867  -19.0184  -16.6222 C   0  0  0  0  0  0  0  0  0  0  0  0
   16.0589  -18.2744  -17.4532 C   0  0  2  0  0  0  0  0  0  0  0  0
   16.0738  -16.8706  -17.1125 N   0  0  0  0  0  0  0  0  0  0  0  0
   14.7198  -18.8549  -17.2439 C   0  0  0  0  0  0  0  0  0  0  0  0
   14.4997  -20.0412  -17.5611 O   0  0  0  0  0  0  0  0  0  0  0  0
   13.6993  -18.0938  -16.6966 O   0  0  0  0  0  0  0  0  0  0  0  0
  2  1  1  1
  3  2  1  0
  4  3  1  0
  4  5  2  0
  6  5  1  0
  7  6  1  0
  8  7  2  0
  9  8  1  0
 10  9  2  0
 10 11  1  0
 11 12  2  0
 12  7  1  0
 12  4  1  0
 13  2  1  0
 14 13  2  0
 16 15  1  0
 16 17  2  0
 18 17  1  0
 19 18  2  0
 20 19  1  0
 21 20  1  6
 21 22  1  0
 22 13  1  0
 23 21  1  0
 24 23  2  0
 25 26  2  0
 25 19  1  0
 26 16  1  0
 27 28  1  0
 29 28  1  1
 29 30  1  0
 30 23  1  0
 31 33  1  0
 31 29  1  0
 32 31  2  0
M  END
$$$$
