SRK.pdb
     RDKit          3D

 27 26  0  0  1  0  0  0  0  0999 V2000
   26.3220  -19.4561  -16.4002 O   0  0  0  0  0  0  0  0  0  0  0  0
   27.6346  -19.7008  -16.0522 C   0  0  0  0  0  0  0  0  0  0  0  0
   27.7726  -21.1346  -15.6112 C   0  0  2  0  0  0  0  0  0  0  0  0
   27.6444  -22.0058  -16.7526 N   0  0  0  0  0  0  0  0  0  0  0  0
   26.7447  -21.4755  -14.6044 C   0  0  0  0  0  0  0  0  0  0  0  0
   25.7584  -22.1668  -14.9397 O   0  0  0  0  0  0  0  0  0  0  0  0
   31.0308  -20.8797  -10.5013 N   0  0  0  0  0  0  0  0  0  0  0  0
   30.6665  -21.7612   -9.4430 C   0  0  0  0  0  0  0  0  0  0  0  0
   31.5954  -22.4814   -8.9155 N   0  0  0  0  0  0  0  0  0  0  0  0
   29.3411  -21.8492   -8.9715 N   0  0  0  0  0  0  0  0  0  0  0  0
   28.3126  -20.9112   -9.3611 C   0  0  0  0  0  0  0  0  0  0  0  0
   27.8222  -21.2751  -10.7310 C   0  0  0  0  0  0  0  0  0  0  0  0
   26.3528  -21.0923  -10.9037 C   0  0  0  0  0  0  0  0  0  0  0  0
   25.8457  -21.3351  -12.3053 C   0  0  2  0  0  0  0  0  0  0  0  0
   26.8784  -21.0211  -13.2724 N   0  0  0  0  0  0  0  0  0  0  0  0
   24.6648  -20.5044  -12.6201 C   0  0  0  0  0  0  0  0  0  0  0  0
   24.8173  -19.2829  -12.8172 O   0  0  0  0  0  0  0  0  0  0  0  0
   31.3809  -23.2092   -8.2035 N   0  0  0  0  0  0  0  0  0  0  0  0
   23.4034  -21.0877  -12.6924 C   0  0  1  0  0  0  0  0  0  0  0  0
   22.2507  -20.1405  -13.0239 C   0  0  0  0  0  0  0  0  0  0  0  0
   21.9678  -20.4191  -14.4373 C   0  0  0  0  0  0  0  0  0  0  0  0
   20.9338  -19.7811  -15.2132 C   0  0  0  0  0  0  0  0  0  0  0  0
   20.6150  -20.0372  -16.6158 C   0  0  0  0  0  0  0  0  0  0  0  0
   19.4096  -19.2717  -17.0868 N   0  0  0  0  0  0  0  0  0  0  0  0
   18.9893  -19.5892  -18.4170 C   0  0  0  0  0  0  0  0  0  0  0  0
   21.2449  -20.6970  -12.0577 O   0  0  0  0  0  0  0  0  0  0  0  0
   21.2892  -21.8951  -11.4540 O   0  0  0  0  0  0  0  0  0  0  0  0
  2  1  1  0
  3  4  1  6
  3  2  1  0
  5  3  1  0
  6  5  2  0
  7  8  1  0
  8 10  1  0
  9  8  2  0
 11 10  1  0
 11 12  1  0
 14 13  1  1
 13 12  1  0
 14 15  1  0
 15  5  1  0
 16 17  2  0
 16 14  1  0
 18 16  1  0
 19 18  1  0
 20 21  1  0
 19 20  1  1
 22 21  1  0
 23 22  1  0
 24 23  1  0
 25 26  1  0
 25 19  1  0
 27 25  2  0
M  END
$$$$
