SRK.pdb
     RDKit          3D

 27 26  0  0  1  0  0  0  0  0999 V2000
   16.3887  -12.7275  -18.1321 O   0  0  0  0  0  0  0  0  0  0  0  0
   17.0567  -11.8703  -17.2820 C   0  0  0  0  0  0  0  0  0  0  0  0
   18.4056  -12.4525  -16.9486 C   0  0  2  0  0  0  0  0  0  0  0  0
   18.2336  -13.6750  -16.2042 N   0  0  0  0  0  0  0  0  0  0  0  0
   19.2100  -11.4956  -16.1592 C   0  0  0  0  0  0  0  0  0  0  0  0
   19.0383  -11.4181  -14.9231 O   0  0  0  0  0  0  0  0  0  0  0  0
   27.4599  -10.0516  -16.3269 N   0  0  0  0  0  0  0  0  0  0  0  0
   26.4224  -10.9095  -15.8607 C   0  0  0  0  0  0  0  0  0  0  0  0
   26.7259  -12.1358  -15.6081 N   0  0  0  0  0  0  0  0  0  0  0  0
   25.1048  -10.4467  -15.6692 N   0  0  0  0  0  0  0  0  0  0  0  0
   24.7272   -9.0666  -15.8741 C   0  0  0  0  0  0  0  0  0  0  0  0
   23.2704   -8.9124  -15.5520 C   0  0  0  0  0  0  0  0  0  0  0  0
   22.4000   -9.9011  -16.2499 C   0  0  0  0  0  0  0  0  0  0  0  0
   20.9194   -9.7146  -16.0183 C   0  0  2  0  0  0  0  0  0  0  0  0
   20.1658  -10.6744  -16.8001 N   0  0  0  0  0  0  0  0  0  0  0  0
   20.4635   -8.3624  -16.4022 C   0  0  0  0  0  0  0  0  0  0  0  0
   20.5543   -8.0069  -17.5936 O   0  0  0  0  0  0  0  0  0  0  0  0
   26.0027  -12.8272  -15.3225 N   0  0  0  0  0  0  0  0  0  0  0  0
   19.9421   -7.5045  -15.4384 C   0  0  2  0  0  0  0  0  0  0  0  0
   19.5455   -6.1132  -15.9312 C   0  0  0  0  0  0  0  0  0  0  0  0
   18.1787   -5.9416  -15.4234 C   0  0  0  0  0  0  0  0  0  0  0  0
   17.4684   -4.6881  -15.3732 C   0  0  0  0  0  0  0  0  0  0  0  0
   16.0698   -4.4948  -14.9979 C   0  0  0  0  0  0  0  0  0  0  0  0
   15.5927   -3.0893  -15.2377 N   0  0  0  0  0  0  0  0  0  0  0  0
   14.2170   -2.8675  -14.9130 C   0  0  0  0  0  0  0  0  0  0  0  0
   20.5945   -5.3295  -15.1962 O   0  0  0  0  0  0  0  0  0  0  0  0
   21.3823   -5.7754  -14.2050 O   0  0  0  0  0  0  0  0  0  0  0  0
  2  1  1  0
  3  4  1  1
  3  2  1  0
  5  3  1  0
  6  5  2  0
  7  8  1  0
  8 10  1  0
  9  8  2  0
 11 10  1  0
 11 12  1  0
 14 13  1  6
 13 12  1  0
 14 15  1  0
 15  5  1  0
 16 17  2  0
 16 14  1  0
 18 16  1  0
 19 18  1  0
 20 21  1  0
 19 20  1  6
 22 21  1  0
 23 22  1  0
 24 23  1  0
 25 26  1  0
 25 19  1  0
 27 25  2  0
M  END
$$$$
