SRK.pdb
     RDKit          3D

 27 26  0  0  1  0  0  0  0  0999 V2000
   27.8934  -20.3412  -18.2994 O   0  0  0  0  0  0  0  0  0  0  0  0
   26.9225  -21.0113  -17.5839 C   0  0  0  0  0  0  0  0  0  0  0  0
   27.5640  -21.7206  -16.4198 C   0  0  2  0  0  0  0  0  0  0  0  0
   28.0938  -22.9875  -16.8583 N   0  0  0  0  0  0  0  0  0  0  0  0
   26.5852  -21.9373  -15.3330 C   0  0  0  0  0  0  0  0  0  0  0  0
   26.0525  -23.0604  -15.1978 O   0  0  0  0  0  0  0  0  0  0  0  0
   28.9081  -21.8583   -9.8459 N   0  0  0  0  0  0  0  0  0  0  0  0
   27.9330  -21.3745   -8.9266 C   0  0  0  0  0  0  0  0  0  0  0  0
   28.3536  -20.8045   -7.8506 N   0  0  0  0  0  0  0  0  0  0  0  0
   26.5510  -21.5001   -9.1740 N   0  0  0  0  0  0  0  0  0  0  0  0
   25.7287  -20.3833   -9.5810 C   0  0  0  0  0  0  0  0  0  0  0  0
   25.0508  -20.7294  -10.8734 C   0  0  0  0  0  0  0  0  0  0  0  0
   25.9447  -20.6183  -12.0613 C   0  0  0  0  0  0  0  0  0  0  0  0
   25.3476  -21.1269  -13.3518 C   0  0  2  0  0  0  0  0  0  0  0  0
   26.2551  -20.8801  -14.4544 N   0  0  0  0  0  0  0  0  0  0  0  0
   24.0637  -20.4667  -13.6674 C   0  0  0  0  0  0  0  0  0  0  0  0
   24.0494  -19.2388  -13.8822 O   0  0  0  0  0  0  0  0  0  0  0  0
   29.3620  -20.8029   -7.5945 N   0  0  0  0  0  0  0  0  0  0  0  0
   22.8916  -21.2151  -13.7209 C   0  0  2  0  0  0  0  0  0  0  0  0
   21.6248  -20.4416  -14.0856 C   0  0  0  0  0  0  0  0  0  0  0  0
   20.7393  -21.4699  -14.6458 C   0  0  0  0  0  0  0  0  0  0  0  0
   19.4384  -21.2183  -15.2136 C   0  0  0  0  0  0  0  0  0  0  0  0
   18.5467  -22.2055  -15.8177 C   0  0  0  0  0  0  0  0  0  0  0  0
   17.9919  -21.7548  -17.1405 N   0  0  0  0  0  0  0  0  0  0  0  0
   17.0863  -22.6803  -17.7489 C   0  0  0  0  0  0  0  0  0  0  0  0
   21.2616  -19.9813  -12.7032 O   0  0  0  0  0  0  0  0  0  0  0  0
   20.6471  -18.8341  -12.3746 O   0  0  0  0  0  0  0  0  0  0  0  0
  2  1  1  0
  3  4  1  6
  3  2  1  0
  5  3  1  0
  6  5  2  0
  7  8  1  0
  8 10  1  0
  9  8  2  0
 11 10  1  0
 11 12  1  0
 14 13  1  1
 13 12  1  0
 14 15  1  0
 15  5  1  0
 16 17  2  0
 16 14  1  0
 18 16  1  0
 19 18  1  0
 20 21  1  0
 19 20  1  6
 22 21  1  0
 23 22  1  0
 24 23  1  0
 25 26  1  0
 25 19  1  0
 27 25  2  0
M  END
$$$$
