SRK.pdb
     RDKit          3D

 27 26  0  0  1  0  0  0  0  0999 V2000
   21.9100   -7.5635  -14.5535 O   0  0  0  0  0  0  0  0  0  0  0  0
   21.8794   -8.7766  -13.8967 C   0  0  0  0  0  0  0  0  0  0  0  0
   21.0627   -9.7555  -14.6993 C   0  0  2  0  0  0  0  0  0  0  0  0
   21.6083   -9.8640  -16.0293 N   0  0  0  0  0  0  0  0  0  0  0  0
   19.6500   -9.3253  -14.7721 C   0  0  0  0  0  0  0  0  0  0  0  0
   19.1935   -8.8873  -15.8506 O   0  0  0  0  0  0  0  0  0  0  0  0
   12.1744  -12.4716  -11.0936 N   0  0  0  0  0  0  0  0  0  0  0  0
   11.8978  -11.5073  -12.1052 C   0  0  0  0  0  0  0  0  0  0  0  0
   10.6740  -11.3679  -12.4828 N   0  0  0  0  0  0  0  0  0  0  0  0
   12.9155  -10.7184  -12.6787 N   0  0  0  0  0  0  0  0  0  0  0  0
   14.3043  -10.8425  -12.2976 C   0  0  0  0  0  0  0  0  0  0  0  0
   15.1090   -9.8453  -13.0771 C   0  0  0  0  0  0  0  0  0  0  0  0
   16.5816  -10.0262  -12.9310 C   0  0  0  0  0  0  0  0  0  0  0  0
   17.4200   -9.0627  -13.7366 C   0  0  2  0  0  0  0  0  0  0  0  0
   18.8231   -9.4091  -13.6285 N   0  0  0  0  0  0  0  0  0  0  0  0
   17.2624   -7.6682  -13.2736 C   0  0  0  0  0  0  0  0  0  0  0  0
   17.8884   -7.2895  -12.2642 O   0  0  0  0  0  0  0  0  0  0  0  0
   10.4017  -10.6586  -13.1937 N   0  0  0  0  0  0  0  0  0  0  0  0
   16.4229   -6.7976  -13.9620 C   0  0  2  0  0  0  0  0  0  0  0  0
   16.3595   -5.3691  -13.4223 C   0  0  0  0  0  0  0  0  0  0  0  0
   16.7265   -4.5440  -14.5797 C   0  0  0  0  0  0  0  0  0  0  0  0
   16.8168   -3.1052  -14.5720 C   0  0  0  0  0  0  0  0  0  0  0  0
   17.2140   -2.2521  -15.6896 C   0  0  0  0  0  0  0  0  0  0  0  0
   17.3203   -0.8025  -15.3050 N   0  0  0  0  0  0  0  0  0  0  0  0
   17.7620    0.0588  -16.3586 C   0  0  0  0  0  0  0  0  0  0  0  0
   14.8998   -5.3485  -13.0703 O   0  0  0  0  0  0  0  0  0  0  0  0
   14.2989   -4.5382  -12.1847 O   0  0  0  0  0  0  0  0  0  0  0  0
  2  1  1  0
  3  4  1  6
  3  2  1  0
  5  3  1  0
  6  5  2  0
  7  8  1  0
  8 10  1  0
  9  8  2  0
 11 10  1  0
 11 12  1  0
 14 13  1  1
 13 12  1  0
 14 15  1  0
 15  5  1  0
 16 17  2  0
 16 14  1  0
 18 16  1  0
 19 18  1  0
 20 21  1  0
 19 20  1  6
 22 21  1  0
 23 22  1  0
 24 23  1  0
 25 26  1  0
 25 19  1  0
 27 25  2  0
M  END
$$$$
