SRK.pdb
     RDKit          3D

 27 26  0  0  1  0  0  0  0  0999 V2000
   27.8402  -23.6543  -18.7771 O   0  0  0  0  0  0  0  0  0  0  0  0
   26.9414  -22.8686  -18.0853 C   0  0  0  0  0  0  0  0  0  0  0  0
   27.6337  -22.2480  -16.8999 C   0  0  2  0  0  0  0  0  0  0  0  0
   28.3721  -23.2603  -16.1871 N   0  0  0  0  0  0  0  0  0  0  0  0
   26.6539  -21.6124  -15.9932 C   0  0  0  0  0  0  0  0  0  0  0  0
   26.3015  -22.2072  -14.9514 O   0  0  0  0  0  0  0  0  0  0  0  0
   24.5625  -15.6451  -17.2722 N   0  0  0  0  0  0  0  0  0  0  0  0
   24.5076  -15.1553  -15.9355 C   0  0  0  0  0  0  0  0  0  0  0  0
   23.4656  -14.4836  -15.5849 N   0  0  0  0  0  0  0  0  0  0  0  0
   25.5456  -15.3949  -15.0124 N   0  0  0  0  0  0  0  0  0  0  0  0
   26.7808  -16.0480  -15.3827 C   0  0  0  0  0  0  0  0  0  0  0  0
   26.6763  -17.5052  -15.0428 C   0  0  0  0  0  0  0  0  0  0  0  0
   25.4253  -18.1434  -15.5427 C   0  0  0  0  0  0  0  0  0  0  0  0
   25.3388  -19.6330  -15.3102 C   0  0  2  0  0  0  0  0  0  0  0  0
   26.1202  -20.3408  -16.3046 N   0  0  0  0  0  0  0  0  0  0  0  0
   23.9488  -20.1279  -15.3923 C   0  0  0  0  0  0  0  0  0  0  0  0
   23.4887  -20.4636  -16.5012 O   0  0  0  0  0  0  0  0  0  0  0  0
   23.3523  -14.1221  -14.6158 N   0  0  0  0  0  0  0  0  0  0  0  0
   23.1718  -20.2133  -14.2409 C   0  0  2  0  0  0  0  0  0  0  0  0
   21.7445  -20.7229  -14.4381 C   0  0  0  0  0  0  0  0  0  0  0  0
   21.4754  -21.4850  -13.2125 C   0  0  0  0  0  0  0  0  0  0  0  0
   20.2743  -22.2404  -12.9576 C   0  0  0  0  0  0  0  0  0  0  0  0
   19.9717  -23.0146  -11.7561 C   0  0  0  0  0  0  0  0  0  0  0  0
   18.7124  -23.8253  -11.8891 N   0  0  0  0  0  0  0  0  0  0  0  0
   18.4835  -24.7437  -10.8162 C   0  0  0  0  0  0  0  0  0  0  0  0
   21.0601  -19.3884  -14.5142 O   0  0  0  0  0  0  0  0  0  0  0  0
   21.6098  -18.1890  -14.2671 O   0  0  0  0  0  0  0  0  0  0  0  0
  2  1  1  0
  3  4  1  1
  3  2  1  0
  5  3  1  0
  6  5  2  0
  7  8  1  0
  8 10  1  0
  9  8  2  0
 11 10  1  0
 11 12  1  0
 14 13  1  6
 13 12  1  0
 14 15  1  0
 15  5  1  0
 16 17  2  0
 16 14  1  0
 18 16  1  0
 19 18  1  0
 20 21  1  0
 19 20  1  1
 22 21  1  0
 23 22  1  0
 24 23  1  0
 25 26  1  0
 25 19  1  0
 27 25  2  0
M  END
$$$$
