SRK.pdb
     RDKit          3D

 27 26  0  0  1  0  0  0  0  0999 V2000
   27.8975  -18.0725  -17.4218 O   0  0  0  0  0  0  0  0  0  0  0  0
   27.0123  -19.1243  -17.3043 C   0  0  0  0  0  0  0  0  0  0  0  0
   27.7117  -20.2923  -16.6591 C   0  0  2  0  0  0  0  0  0  0  0  0
   28.0385  -21.2743  -17.6627 N   0  0  0  0  0  0  0  0  0  0  0  0
   26.8586  -20.9057  -15.6188 C   0  0  0  0  0  0  0  0  0  0  0  0
   26.0770  -21.8311  -15.9289 O   0  0  0  0  0  0  0  0  0  0  0  0
   23.3111  -20.4284   -9.3316 N   0  0  0  0  0  0  0  0  0  0  0  0
   24.0144  -21.1036   -8.2926 C   0  0  0  0  0  0  0  0  0  0  0  0
   23.4001  -21.2912   -7.1759 N   0  0  0  0  0  0  0  0  0  0  0  0
   25.3352  -21.5642   -8.4663 N   0  0  0  0  0  0  0  0  0  0  0  0
   26.2384  -20.9893   -9.4375 C   0  0  0  0  0  0  0  0  0  0  0  0
   25.6329  -21.1315  -10.8024 C   0  0  0  0  0  0  0  0  0  0  0  0
   26.5775  -20.8039  -11.9082 C   0  0  0  0  0  0  0  0  0  0  0  0
   26.0124  -20.9847  -13.2969 C   0  0  2  0  0  0  0  0  0  0  0  0
   26.9277  -20.4468  -14.2834 N   0  0  0  0  0  0  0  0  0  0  0  0
   24.7151  -20.2967  -13.4622 C   0  0  0  0  0  0  0  0  0  0  0  0
   24.6760  -19.0522  -13.4006 O   0  0  0  0  0  0  0  0  0  0  0  0
   23.8483  -21.8017   -6.3878 N   0  0  0  0  0  0  0  0  0  0  0  0
   23.5579  -21.0377  -13.6825 C   0  0  1  0  0  0  0  0  0  0  0  0
   22.2847  -20.2270  -13.9224 C   0  0  0  0  0  0  0  0  0  0  0  0
   22.2586  -20.0444  -15.3789 C   0  0  0  0  0  0  0  0  0  0  0  0
   21.3782  -19.1452  -16.0821 C   0  0  0  0  0  0  0  0  0  0  0  0
   21.2493  -19.0092  -17.5310 C   0  0  0  0  0  0  0  0  0  0  0  0
   20.2897  -17.9226  -17.9297 N   0  0  0  0  0  0  0  0  0  0  0  0
   20.1582  -17.7377  -19.3423 C   0  0  0  0  0  0  0  0  0  0  0  0
   21.3008  -21.2313  -13.3949 O   0  0  0  0  0  0  0  0  0  0  0  0
   20.0723  -20.9772  -12.9173 O   0  0  0  0  0  0  0  0  0  0  0  0
  2  1  1  0
  3  4  1  6
  3  2  1  0
  5  3  1  0
  6  5  2  0
  7  8  1  0
  8 10  1  0
  9  8  2  0
 11 10  1  0
 11 12  1  0
 14 13  1  1
 13 12  1  0
 14 15  1  0
 15  5  1  0
 16 17  2  0
 16 14  1  0
 18 16  1  0
 19 18  1  0
 20 21  1  0
 19 20  1  6
 22 21  1  0
 23 22  1  0
 24 23  1  0
 25 26  1  0
 25 19  1  0
 27 25  2  0
M  END
$$$$
