SRK.pdb
     RDKit          3D

 27 26  0  0  1  0  0  0  0  0999 V2000
   26.8728  -19.4951  -17.1313 O   0  0  0  0  0  0  0  0  0  0  0  0
   27.9907  -19.6169  -16.3319 C   0  0  0  0  0  0  0  0  0  0  0  0
   28.0744  -21.0263  -15.8063 C   0  0  2  0  0  0  0  0  0  0  0  0
   28.1478  -21.9502  -16.9105 N   0  0  0  0  0  0  0  0  0  0  0  0
   26.9000  -21.3439  -14.9661 C   0  0  0  0  0  0  0  0  0  0  0  0
   26.0588  -22.1757  -15.3709 O   0  0  0  0  0  0  0  0  0  0  0  0
   22.3644  -21.6207   -6.7046 N   0  0  0  0  0  0  0  0  0  0  0  0
   22.9098  -21.2183   -7.9577 C   0  0  0  0  0  0  0  0  0  0  0  0
   22.0974  -20.7593   -8.8460 N   0  0  0  0  0  0  0  0  0  0  0  0
   24.2900  -21.3054   -8.2304 N   0  0  0  0  0  0  0  0  0  0  0  0
   24.9651  -20.3946   -9.1269 C   0  0  0  0  0  0  0  0  0  0  0  0
   24.6825  -20.8108  -10.5399 C   0  0  0  0  0  0  0  0  0  0  0  0
   25.8463  -20.6352  -11.4549 C   0  0  0  0  0  0  0  0  0  0  0  0
   25.6001  -21.0663  -12.8811 C   0  0  2  0  0  0  0  0  0  0  0  0
   26.7313  -20.7096  -13.7139 N   0  0  0  0  0  0  0  0  0  0  0  0
   24.3978  -20.4266  -13.4546 C   0  0  0  0  0  0  0  0  0  0  0  0
   24.4304  -19.2115  -13.7313 O   0  0  0  0  0  0  0  0  0  0  0  0
   22.4151  -20.5413   -9.8126 N   0  0  0  0  0  0  0  0  0  0  0  0
   23.2490  -21.1797  -13.6781 C   0  0  1  0  0  0  0  0  0  0  0  0
   22.0881  -20.4404  -14.3427 C   0  0  0  0  0  0  0  0  0  0  0  0
   22.0650  -20.9842  -15.7061 C   0  0  0  0  0  0  0  0  0  0  0  0
   21.3560  -20.3985  -16.8162 C   0  0  0  0  0  0  0  0  0  0  0  0
   21.2358  -20.9535  -18.1624 C   0  0  0  0  0  0  0  0  0  0  0  0
   20.4954  -20.0429  -19.1023 N   0  0  0  0  0  0  0  0  0  0  0  0
   21.3364  -19.2780  -19.9709 C   0  0  0  0  0  0  0  0  0  0  0  0
   20.9902  -20.9371  -13.4467 O   0  0  0  0  0  0  0  0  0  0  0  0
   19.7652  -20.4060  -13.3078 O   0  0  0  0  0  0  0  0  0  0  0  0
  2  1  1  0
  3  4  1  6
  3  2  1  0
  5  3  1  0
  6  5  2  0
  7  8  1  0
  8 10  1  0
  9  8  2  0
 11 10  1  0
 11 12  1  0
 14 13  1  1
 13 12  1  0
 14 15  1  0
 15  5  1  0
 16 17  2  0
 16 14  1  0
 18 16  1  0
 19 18  1  0
 20 21  1  0
 19 20  1  6
 22 21  1  0
 23 22  1  0
 24 23  1  0
 25 26  1  0
 25 19  1  0
 27 25  2  0
M  END
$$$$
