SRK.pdb
     RDKit          3D

 27 26  0  0  1  0  0  0  0  0999 V2000
   20.7764   -8.3565  -12.5667 O   0  0  0  0  0  0  0  0  0  0  0  0
   21.0930   -8.7870  -13.8388 C   0  0  0  0  0  0  0  0  0  0  0  0
   21.9618   -7.7556  -14.5104 C   0  0  2  0  0  0  0  0  0  0  0  0
   21.1508   -6.6402  -14.9305 N   0  0  0  0  0  0  0  0  0  0  0  0
   22.6578   -8.3357  -15.6788 C   0  0  0  0  0  0  0  0  0  0  0  0
   22.0283   -8.5179  -16.7436 O   0  0  0  0  0  0  0  0  0  0  0  0
   31.3794   -9.7138  -17.8197 N   0  0  0  0  0  0  0  0  0  0  0  0
   30.5178  -10.3988  -18.7242 C   0  0  0  0  0  0  0  0  0  0  0  0
   31.0628  -11.0958  -19.6606 N   0  0  0  0  0  0  0  0  0  0  0  0
   29.1145  -10.3333  -18.6082 N   0  0  0  0  0  0  0  0  0  0  0  0
   28.4546   -9.7743  -17.4501 C   0  0  0  0  0  0  0  0  0  0  0  0
   26.9726   -9.8016  -17.6796 C   0  0  0  0  0  0  0  0  0  0  0  0
   26.1876   -9.2025  -16.5629 C   0  0  0  0  0  0  0  0  0  0  0  0
   24.6890   -9.2661  -16.7381 C   0  0  2  0  0  0  0  0  0  0  0  0
   24.0257   -8.6815  -15.5899 N   0  0  0  0  0  0  0  0  0  0  0  0
   24.2052  -10.6552  -16.8802 C   0  0  0  0  0  0  0  0  0  0  0  0
   24.1829  -11.3956  -15.8774 O   0  0  0  0  0  0  0  0  0  0  0  0
   30.4891  -11.6068  -20.3622 N   0  0  0  0  0  0  0  0  0  0  0  0
   23.7829  -11.1211  -18.1217 C   0  0  2  0  0  0  0  0  0  0  0  0
   23.2947  -12.5689  -18.1578 C   0  0  0  0  0  0  0  0  0  0  0  0
   21.8437  -12.4509  -17.9683 C   0  0  0  0  0  0  0  0  0  0  0  0
   20.9445  -13.5601  -17.7697 C   0  0  0  0  0  0  0  0  0  0  0  0
   19.4919  -13.4888  -17.6312 C   0  0  0  0  0  0  0  0  0  0  0  0
   18.8610  -14.8378  -17.4240 N   0  0  0  0  0  0  0  0  0  0  0  0
   17.4414  -14.8069  -17.2488 C   0  0  0  0  0  0  0  0  0  0  0  0
   23.7234  -12.8940  -19.5597 O   0  0  0  0  0  0  0  0  0  0  0  0
   23.8622  -14.1179  -20.0933 O   0  0  0  0  0  0  0  0  0  0  0  0
  2  1  1  0
  3  4  1  6
  3  2  1  0
  5  3  1  0
  6  5  2  0
  7  8  1  0
  8 10  1  0
  9  8  2  0
 11 10  1  0
 11 12  1  0
 14 13  1  1
 13 12  1  0
 14 15  1  0
 15  5  1  0
 16 17  2  0
 16 14  1  0
 18 16  1  0
 19 18  1  0
 20 21  1  0
 19 20  1  6
 22 21  1  0
 23 22  1  0
 24 23  1  0
 25 26  1  0
 25 19  1  0
 27 25  2  0
M  END
$$$$
