SRK.pdb
     RDKit          3D

 27 26  0  0  1  0  0  0  0  0999 V2000
   22.2292  -20.5998  -10.1898 O   0  0  0  0  0  0  0  0  0  0  0  0
   23.2352  -21.5299  -10.3530 C   0  0  0  0  0  0  0  0  0  0  0  0
   24.5694  -20.8318  -10.3066 C   0  0  2  0  0  0  0  0  0  0  0  0
   24.6505  -20.0229   -9.1160 N   0  0  0  0  0  0  0  0  0  0  0  0
   24.7595  -19.9824  -11.5018 C   0  0  0  0  0  0  0  0  0  0  0  0
   24.4521  -18.7715  -11.4530 O   0  0  0  0  0  0  0  0  0  0  0  0
   29.3298  -22.6717  -16.7696 N   0  0  0  0  0  0  0  0  0  0  0  0
   28.4013  -21.8016  -17.4104 C   0  0  0  0  0  0  0  0  0  0  0  0
   27.8087  -22.2321  -18.4703 N   0  0  0  0  0  0  0  0  0  0  0  0
   28.1228  -20.5133  -16.9109 N   0  0  0  0  0  0  0  0  0  0  0  0
   28.7572  -19.9847  -15.7246 C   0  0  0  0  0  0  0  0  0  0  0  0
   27.6985  -19.4318  -14.8173 C   0  0  0  0  0  0  0  0  0  0  0  0
   26.4478  -20.2428  -14.8008 C   0  0  0  0  0  0  0  0  0  0  0  0
   25.3674  -19.7202  -13.8841 C   0  0  2  0  0  0  0  0  0  0  0  0
   25.2848  -20.5384  -12.6907 N   0  0  0  0  0  0  0  0  0  0  0  0
   24.0386  -19.7295  -14.5306 C   0  0  0  0  0  0  0  0  0  0  0  0
   23.2954  -20.7184  -14.3761 O   0  0  0  0  0  0  0  0  0  0  0  0
   27.1817  -21.6187  -19.0298 N   0  0  0  0  0  0  0  0  0  0  0  0
   23.6321  -18.6437  -15.3004 C   0  0  2  0  0  0  0  0  0  0  0  0
   22.1965  -18.6985  -15.8219 C   0  0  0  0  0  0  0  0  0  0  0  0
   21.7410  -17.3058  -15.7321 C   0  0  0  0  0  0  0  0  0  0  0  0
   20.3915  -16.8616  -15.9768 C   0  0  0  0  0  0  0  0  0  0  0  0
   19.8986  -15.4888  -15.8934 C   0  0  0  0  0  0  0  0  0  0  0  0
   18.4240  -15.3832  -16.1674 N   0  0  0  0  0  0  0  0  0  0  0  0
   17.8842  -14.0683  -16.0044 C   0  0  0  0  0  0  0  0  0  0  0  0
   22.5027  -19.1737  -17.2131 O   0  0  0  0  0  0  0  0  0  0  0  0
   21.6204  -19.6171  -18.1224 O   0  0  0  0  0  0  0  0  0  0  0  0
  2  1  1  0
  3  4  1  1
  3  2  1  0
  5  3  1  0
  6  5  2  0
  7  8  1  0
  8 10  1  0
  9  8  2  0
 11 10  1  0
 11 12  1  0
 14 13  1  6
 13 12  1  0
 14 15  1  0
 15  5  1  0
 16 17  2  0
 16 14  1  0
 18 16  1  0
 19 18  1  0
 20 21  1  0
 19 20  1  6
 22 21  1  0
 23 22  1  0
 24 23  1  0
 25 26  1  0
 25 19  1  0
 27 25  2  0
M  END
$$$$
