SRK.pdb
     RDKit          3D

 27 26  0  0  1  0  0  0  0  0999 V2000
   27.5772  -21.2180  -19.0907 O   0  0  0  0  0  0  0  0  0  0  0  0
   28.7390  -20.9902  -18.3820 C   0  0  0  0  0  0  0  0  0  0  0  0
   28.9731  -22.1348  -17.4309 C   0  0  2  0  0  0  0  0  0  0  0  0
   29.1219  -23.3598  -18.1762 N   0  0  0  0  0  0  0  0  0  0  0  0
   27.8505  -22.2632  -16.4773 C   0  0  0  0  0  0  0  0  0  0  0  0
   27.0549  -23.2214  -16.5867 O   0  0  0  0  0  0  0  0  0  0  0  0
   23.2316  -20.1180   -9.9494 N   0  0  0  0  0  0  0  0  0  0  0  0
   24.4035  -20.6413   -9.3308 C   0  0  0  0  0  0  0  0  0  0  0  0
   24.2764  -21.1895   -8.1718 N   0  0  0  0  0  0  0  0  0  0  0  0
   25.6658  -20.5767   -9.9548 N   0  0  0  0  0  0  0  0  0  0  0  0
   25.9166  -19.7601  -11.1208 C   0  0  0  0  0  0  0  0  0  0  0  0
   25.6448  -20.5769  -12.3490 C   0  0  0  0  0  0  0  0  0  0  0  0
   26.8021  -20.6432  -13.2863 C   0  0  0  0  0  0  0  0  0  0  0  0
   26.5424  -21.4147  -14.5582 C   0  0  2  0  0  0  0  0  0  0  0  0
   27.6798  -21.3072  -15.4498 N   0  0  0  0  0  0  0  0  0  0  0  0
   25.3544  -20.9123  -15.2794 C   0  0  0  0  0  0  0  0  0  0  0  0
   25.4204  -19.8148  -15.8669 O   0  0  0  0  0  0  0  0  0  0  0  0
   25.1011  -21.5385   -7.6421 N   0  0  0  0  0  0  0  0  0  0  0  0
   24.1821  -21.6621  -15.2957 C   0  0  2  0  0  0  0  0  0  0  0  0
   23.0169  -21.0574  -16.0784 C   0  0  0  0  0  0  0  0  0  0  0  0
   22.3324  -22.2277  -16.6414 C   0  0  0  0  0  0  0  0  0  0  0  0
   21.5874  -22.2332  -17.8756 C   0  0  0  0  0  0  0  0  0  0  0  0
   20.8718  -23.3676  -18.4552 C   0  0  0  0  0  0  0  0  0  0  0  0
   20.2638  -23.0490  -19.7929 N   0  0  0  0  0  0  0  0  0  0  0  0
   19.6001  -24.1510  -20.4191 C   0  0  0  0  0  0  0  0  0  0  0  0
   22.3101  -20.4084  -14.9234 O   0  0  0  0  0  0  0  0  0  0  0  0
   21.3888  -19.4344  -14.9907 O   0  0  0  0  0  0  0  0  0  0  0  0
  2  1  1  0
  3  4  1  6
  3  2  1  0
  5  3  1  0
  6  5  2  0
  7  8  1  0
  8 10  1  0
  9  8  2  0
 11 10  1  0
 11 12  1  0
 14 13  1  1
 13 12  1  0
 14 15  1  0
 15  5  1  0
 16 17  2  0
 16 14  1  0
 18 16  1  0
 19 18  1  0
 20 21  1  0
 19 20  1  6
 22 21  1  0
 23 22  1  0
 24 23  1  0
 25 26  1  0
 25 19  1  0
 27 25  2  0
M  END
$$$$
