AKW.pdb
     RDKit          3D

 29 30  0  0  1  0  0  0  0  0999 V2000
   30.2365  -21.9726  -17.6922 C   0  0  0  0  0  0  0  0  0  0  0  0
   29.5202  -22.5200  -16.4499 C   0  0  2  0  0  0  0  0  0  0  0  0
   29.4018  -23.9407  -16.6344 N   0  0  0  0  0  0  0  0  0  0  0  0
   28.1779  -21.9177  -16.4304 C   0  0  0  0  0  0  0  0  0  0  0  0
   28.0065  -20.7930  -16.9579 O   0  0  0  0  0  0  0  0  0  0  0  0
   27.0329  -22.5367  -15.8409 N   0  0  0  0  0  0  0  0  0  0  0  0
   25.7443  -21.8841  -15.7872 C   0  0  1  0  0  0  0  0  0  0  0  0
   24.7045  -22.7272  -16.5166 C   0  0  0  0  0  0  0  0  0  0  0  0
   23.3511  -22.1050  -16.4925 C   0  0  0  0  0  0  0  0  0  0  0  0
   22.4057  -22.9796  -17.2762 C   0  0  0  0  0  0  0  0  0  0  0  0
   21.8056  -22.2597  -18.4583 C   0  0  0  0  0  0  0  0  0  0  0  0
   20.9243  -23.1886  -19.1555 N   0  0  0  0  0  0  0  0  0  0  0  0
   25.2941  -21.8155  -14.3722 C   0  0  0  0  0  0  0  0  0  0  0  0
   24.0435  -21.7014  -14.1777 O   0  0  0  0  0  0  0  0  0  0  0  0
   26.1761  -21.8707  -13.2839 N   0  0  0  0  0  0  0  0  0  0  0  0
   25.6607  -21.6037  -11.9342 C   0  0  1  0  0  0  0  0  0  0  0  0
   26.8439  -21.7195  -11.0307 C   0  0  0  0  0  0  0  0  0  0  0  0
   26.6543  -20.9935   -9.7761 C   0  0  0  0  0  0  0  0  0  0  0  0
   25.3909  -20.5861   -9.3335 C   0  0  0  0  0  0  0  0  0  0  0  0
   25.5914  -19.9240   -8.1896 N   0  0  0  0  0  0  0  0  0  0  0  0
   26.8941  -19.8888   -7.8836 C   0  0  0  0  0  0  0  0  0  0  0  0
   27.5825  -19.3402   -6.8033 C   0  0  0  0  0  0  0  0  0  0  0  0
   28.9413  -19.4738   -6.7329 C   0  0  0  0  0  0  0  0  0  0  0  0
   29.6028  -20.1491   -7.7329 C   0  0  0  0  0  0  0  0  0  0  0  0
   28.9489  -20.6974   -8.8067 C   0  0  0  0  0  0  0  0  0  0  0  0
   27.5761  -20.5575   -8.8715 C   0  0  0  0  0  0  0  0  0  0  0  0
   24.9493  -20.3227  -11.8868 C   0  0  0  0  0  0  0  0  0  0  0  0
   25.3977  -19.3601  -12.5850 O   0  0  0  0  0  0  0  0  0  0  0  0
   23.8181  -20.0701  -11.1459 O   0  0  0  0  0  0  0  0  0  0  0  0
  2  3  1  0
  2  1  1  6
  4  5  2  0
  4  2  1  0
  6  4  1  0
  7  6  1  0
  7 13  1  0
  7  8  1  6
  9  8  1  0
 10  9  1  0
 11 10  1  0
 12 11  1  0
 13 14  2  0
 13 15  1  0
 15 16  1  0
 16 17  1  1
 16 27  1  0
 18 19  2  0
 18 17  1  0
 20 19  1  0
 21 26  2  0
 21 20  1  0
 22 21  1  0
 23 24  1  0
 23 22  2  0
 24 25  2  0
 25 26  1  0
 26 18  1  0
 27 29  1  0
 28 27  2  0
M  END
$$$$
