AKW.pdb
     RDKit          3D

 29 30  0  0  1  0  0  0  0  0999 V2000
   29.2513  -22.9867  -17.0933 C   0  0  0  0  0  0  0  0  0  0  0  0
   28.5692  -21.7166  -17.6202 C   0  0  2  0  0  0  0  0  0  0  0  0
   29.5977  -20.9186  -18.2299 N   0  0  0  0  0  0  0  0  0  0  0  0
   28.0293  -21.0050  -16.4510 C   0  0  0  0  0  0  0  0  0  0  0  0
   28.8240  -20.5407  -15.5993 O   0  0  0  0  0  0  0  0  0  0  0  0
   26.6351  -20.8014  -16.2132 N   0  0  0  0  0  0  0  0  0  0  0  0
   26.1470  -20.0539  -15.0764 C   0  0  1  0  0  0  0  0  0  0  0  0
   24.7734  -19.4711  -15.3893 C   0  0  0  0  0  0  0  0  0  0  0  0
   24.8530  -18.2714  -16.2690 C   0  0  0  0  0  0  0  0  0  0  0  0
   23.4542  -17.8706  -16.6632 C   0  0  0  0  0  0  0  0  0  0  0  0
   23.4348  -16.6387  -17.5338 C   0  0  0  0  0  0  0  0  0  0  0  0
   22.0440  -16.3051  -17.8168 N   0  0  0  0  0  0  0  0  0  0  0  0
   25.9449  -20.9843  -13.9348 C   0  0  0  0  0  0  0  0  0  0  0  0
   25.3661  -22.0856  -14.1938 O   0  0  0  0  0  0  0  0  0  0  0  0
   26.3585  -20.6940  -12.6272 N   0  0  0  0  0  0  0  0  0  0  0  0
   26.0873  -21.6678  -11.5609 C   0  0  1  0  0  0  0  0  0  0  0  0
   27.2556  -21.5744  -10.6357 C   0  0  0  0  0  0  0  0  0  0  0  0
   26.9754  -20.7309   -9.4751 C   0  0  0  0  0  0  0  0  0  0  0  0
   25.7795  -20.0163   -9.3437 C   0  0  0  0  0  0  0  0  0  0  0  0
   25.8776  -19.3313   -8.1999 N   0  0  0  0  0  0  0  0  0  0  0  0
   27.0528  -19.5680   -7.6041 C   0  0  0  0  0  0  0  0  0  0  0  0
   27.5997  -19.1082   -6.4077 C   0  0  0  0  0  0  0  0  0  0  0  0
   28.8392  -19.5393   -6.0245 C   0  0  0  0  0  0  0  0  0  0  0  0
   29.5228  -20.4208   -6.8302 C   0  0  0  0  0  0  0  0  0  0  0  0
   29.0073  -20.8875   -8.0124 C   0  0  0  0  0  0  0  0  0  0  0  0
   27.7548  -20.4467   -8.3936 C   0  0  0  0  0  0  0  0  0  0  0  0
   24.7752  -21.4290  -10.9520 C   0  0  0  0  0  0  0  0  0  0  0  0
   24.2047  -20.3147  -11.1714 O   0  0  0  0  0  0  0  0  0  0  0  0
   24.0951  -22.3219  -10.1567 O   0  0  0  0  0  0  0  0  0  0  0  0
  2  3  1  0
  2  1  1  1
  4  5  2  0
  4  2  1  0
  6  4  1  0
  7  6  1  0
  7 13  1  0
  7  8  1  6
  9  8  1  0
 10  9  1  0
 11 10  1  0
 12 11  1  0
 13 14  2  0
 13 15  1  0
 15 16  1  0
 16 17  1  1
 16 27  1  0
 18 19  2  0
 18 17  1  0
 20 19  1  0
 21 26  2  0
 21 20  1  0
 22 21  1  0
 23 24  1  0
 23 22  2  0
 24 25  2  0
 25 26  1  0
 26 18  1  0
 27 29  1  0
 28 27  2  0
M  END
$$$$
