AKW.pdb
     RDKit          3D

 29 30  0  0  1  0  0  0  0  0999 V2000
   29.3415  -18.0410  -13.5479 C   0  0  0  0  0  0  0  0  0  0  0  0
   28.3356  -18.6871  -14.5106 C   0  0  2  0  0  0  0  0  0  0  0  0
   27.8481  -17.6375  -15.3634 N   0  0  0  0  0  0  0  0  0  0  0  0
   27.2282  -19.2017  -13.6898 C   0  0  0  0  0  0  0  0  0  0  0  0
   26.3234  -18.4144  -13.3240 O   0  0  0  0  0  0  0  0  0  0  0  0
   27.1089  -20.5629  -13.2719 N   0  0  0  0  0  0  0  0  0  0  0  0
   25.9710  -21.0430  -12.5210 C   0  0  1  0  0  0  0  0  0  0  0  0
   25.6814  -22.4940  -12.8882 C   0  0  0  0  0  0  0  0  0  0  0  0
   25.0842  -22.6273  -14.2465 C   0  0  0  0  0  0  0  0  0  0  0  0
   24.7185  -24.0725  -14.4713 C   0  0  0  0  0  0  0  0  0  0  0  0
   24.0127  -24.2871  -15.7872 C   0  0  0  0  0  0  0  0  0  0  0  0
   23.7006  -25.7061  -15.9084 N   0  0  0  0  0  0  0  0  0  0  0  0
   26.3123  -21.0488  -11.0742 C   0  0  0  0  0  0  0  0  0  0  0  0
   27.5255  -21.2825  -10.7766 O   0  0  0  0  0  0  0  0  0  0  0  0
   25.3699  -20.8126  -10.0636 N   0  0  0  0  0  0  0  0  0  0  0  0
   25.7348  -21.0941   -8.6685 C   0  0  1  0  0  0  0  0  0  0  0  0
   26.6616  -19.9918   -8.2738 C   0  0  0  0  0  0  0  0  0  0  0  0
   26.9303  -19.9836   -6.8369 C   0  0  0  0  0  0  0  0  0  0  0  0
   25.9324  -20.2400   -5.8900 C   0  0  0  0  0  0  0  0  0  0  0  0
   26.5123  -20.1117   -4.6923 N   0  0  0  0  0  0  0  0  0  0  0  0
   27.8059  -19.7934   -4.8229 C   0  0  0  0  0  0  0  0  0  0  0  0
   28.8110  -19.5756   -3.8825 C   0  0  0  0  0  0  0  0  0  0  0  0
   30.0767  -19.2794   -4.3061 C   0  0  0  0  0  0  0  0  0  0  0  0
   30.3326  -19.2024   -5.6560 C   0  0  0  0  0  0  0  0  0  0  0  0
   29.3613  -19.4116   -6.6015 C   0  0  0  0  0  0  0  0  0  0  0  0
   28.0846  -19.7093   -6.1658 C   0  0  0  0  0  0  0  0  0  0  0  0
   24.5400  -21.2480   -7.8331 C   0  0  0  0  0  0  0  0  0  0  0  0
   24.6956  -21.5896   -6.6188 O   0  0  0  0  0  0  0  0  0  0  0  0
   23.2460  -21.0460   -8.2540 O   0  0  0  0  0  0  0  0  0  0  0  0
  2  3  1  0
  2  1  1  1
  4  5  2  0
  4  2  1  0
  6  4  1  0
  7  6  1  0
  7 13  1  0
  7  8  1  6
  9  8  1  0
 10  9  1  0
 11 10  1  0
 12 11  1  0
 13 14  2  0
 13 15  1  0
 15 16  1  0
 16 17  1  1
 16 27  1  0
 18 19  2  0
 18 17  1  0
 20 19  1  0
 21 26  2  0
 21 20  1  0
 22 21  1  0
 23 24  1  0
 23 22  2  0
 24 25  2  0
 25 26  1  0
 26 18  1  0
 27 29  1  0
 28 27  2  0
M  END
$$$$
