AKW.pdb
     RDKit          3D

 29 30  0  0  1  0  0  0  0  0999 V2000
   28.1357  -21.0393  -14.8986 C   0  0  0  0  0  0  0  0  0  0  0  0
   26.7410  -20.4923  -15.2324 C   0  0  2  0  0  0  0  0  0  0  0  0
   26.9388  -19.3428  -16.0727 N   0  0  0  0  0  0  0  0  0  0  0  0
   26.1329  -20.0678  -13.9615 C   0  0  0  0  0  0  0  0  0  0  0  0
   26.5532  -19.0272  -13.4021 O   0  0  0  0  0  0  0  0  0  0  0  0
   25.0758  -20.7720  -13.3070 N   0  0  0  0  0  0  0  0  0  0  0  0
   24.4910  -20.3096  -12.0687 C   0  0  1  0  0  0  0  0  0  0  0  0
   23.0907  -20.8902  -11.9071 C   0  0  0  0  0  0  0  0  0  0  0  0
   22.0993  -20.2404  -12.8095 C   0  0  0  0  0  0  0  0  0  0  0  0
   21.4031  -21.3116  -13.6099 C   0  0  0  0  0  0  0  0  0  0  0  0
   20.3856  -20.7419  -14.5670 C   0  0  0  0  0  0  0  0  0  0  0  0
   19.8617  -21.8358  -15.3761 N   0  0  0  0  0  0  0  0  0  0  0  0
   25.2860  -20.8390  -10.9296 C   0  0  0  0  0  0  0  0  0  0  0  0
   25.6522  -22.0534  -11.0069 O   0  0  0  0  0  0  0  0  0  0  0  0
   25.6317  -20.0666   -9.8119 N   0  0  0  0  0  0  0  0  0  0  0  0
   26.4226  -20.6817   -8.7372 C   0  0  1  0  0  0  0  0  0  0  0  0
   27.2964  -19.5887   -8.2162 C   0  0  0  0  0  0  0  0  0  0  0  0
   28.1302  -20.0323   -7.1004 C   0  0  0  0  0  0  0  0  0  0  0  0
   28.9003  -21.1990   -7.1624 C   0  0  0  0  0  0  0  0  0  0  0  0
   29.4944  -21.3181   -5.9708 N   0  0  0  0  0  0  0  0  0  0  0  0
   29.1506  -20.3055   -5.1657 C   0  0  0  0  0  0  0  0  0  0  0  0
   29.5182  -19.9881   -3.8595 C   0  0  0  0  0  0  0  0  0  0  0  0
   29.0208  -18.8560   -3.2763 C   0  0  0  0  0  0  0  0  0  0  0  0
   28.1652  -18.0512   -3.9932 C   0  0  0  0  0  0  0  0  0  0  0  0
   27.7874  -18.3417   -5.2793 C   0  0  0  0  0  0  0  0  0  0  0  0
   28.2932  -19.4877   -5.8615 C   0  0  0  0  0  0  0  0  0  0  0  0
   25.5537  -21.3256   -7.7474 C   0  0  0  0  0  0  0  0  0  0  0  0
   24.3384  -20.9588   -7.6855 O   0  0  0  0  0  0  0  0  0  0  0  0
   25.9438  -22.3113   -6.8708 O   0  0  0  0  0  0  0  0  0  0  0  0
  2  3  1  0
  2  1  1  1
  4  5  2  0
  4  2  1  0
  6  4  1  0
  7  6  1  0
  7 13  1  0
  7  8  1  1
  9  8  1  0
 10  9  1  0
 11 10  1  0
 12 11  1  0
 13 14  2  0
 13 15  1  0
 15 16  1  0
 16 17  1  1
 16 27  1  0
 18 19  2  0
 18 17  1  0
 20 19  1  0
 21 26  2  0
 21 20  1  0
 22 21  1  0
 23 24  1  0
 23 22  2  0
 24 25  2  0
 25 26  1  0
 26 18  1  0
 27 29  1  0
 28 27  2  0
M  END
$$$$
