AKW.pdb
     RDKit          3D

 29 30  0  0  1  0  0  0  0  0999 V2000
   24.7597  -17.1158  -16.0869 C   0  0  0  0  0  0  0  0  0  0  0  0
   25.1236  -17.4119  -14.6254 C   0  0  2  0  0  0  0  0  0  0  0  0
   26.4559  -16.9114  -14.4225 N   0  0  0  0  0  0  0  0  0  0  0  0
   25.1246  -18.8754  -14.4732 C   0  0  0  0  0  0  0  0  0  0  0  0
   24.0443  -19.5013  -14.5904 O   0  0  0  0  0  0  0  0  0  0  0  0
   26.2934  -19.6492  -14.1961 N   0  0  0  0  0  0  0  0  0  0  0  0
   26.2509  -21.0865  -14.0494 C   0  0  1  0  0  0  0  0  0  0  0  0
   27.5638  -21.6962  -14.5276 C   0  0  0  0  0  0  0  0  0  0  0  0
   27.8888  -21.3150  -15.9306 C   0  0  0  0  0  0  0  0  0  0  0  0
   29.3093  -21.7260  -16.2238 C   0  0  0  0  0  0  0  0  0  0  0  0
   29.7285  -21.3761  -17.6302 C   0  0  0  0  0  0  0  0  0  0  0  0
   28.8604  -22.0956  -18.5545 N   0  0  0  0  0  0  0  0  0  0  0  0
   26.1467  -21.4236  -12.6054 C   0  0  0  0  0  0  0  0  0  0  0  0
   25.9700  -22.6489  -12.3184 O   0  0  0  0  0  0  0  0  0  0  0  0
   26.2341  -20.4649  -11.5864 N   0  0  0  0  0  0  0  0  0  0  0  0
   25.9322  -20.8633  -10.2048 C   0  0  1  0  0  0  0  0  0  0  0  0
   27.0396  -20.2949   -9.3800 C   0  0  0  0  0  0  0  0  0  0  0  0
   26.7818  -20.4209   -7.9466 C   0  0  0  0  0  0  0  0  0  0  0  0
   25.7003  -21.1533   -7.4447 C   0  0  0  0  0  0  0  0  0  0  0  0
   25.7456  -21.0226   -6.1151 N   0  0  0  0  0  0  0  0  0  0  0  0
   26.7821  -20.2591   -5.7482 C   0  0  0  0  0  0  0  0  0  0  0  0
   27.2462  -19.8575   -4.4971 C   0  0  0  0  0  0  0  0  0  0  0  0
   28.3662  -19.0780   -4.4129 C   0  0  0  0  0  0  0  0  0  0  0  0
   29.0137  -18.7051   -5.5684 C   0  0  0  0  0  0  0  0  0  0  0  0
   28.5770  -19.0862   -6.8115 C   0  0  0  0  0  0  0  0  0  0  0  0
   27.4441  -19.8729   -6.8887 C   0  0  0  0  0  0  0  0  0  0  0  0
   24.5790  -20.4491   -9.8218 C   0  0  0  0  0  0  0  0  0  0  0  0
   24.0520  -20.9891   -8.7991 O   0  0  0  0  0  0  0  0  0  0  0  0
   23.8211  -19.5083  -10.4796 O   0  0  0  0  0  0  0  0  0  0  0  0
  2  3  1  0
  2  1  1  6
  4  5  2  0
  4  2  1  0
  6  4  1  0
  7  6  1  0
  7 13  1  0
  7  8  1  1
  9  8  1  0
 10  9  1  0
 11 10  1  0
 12 11  1  0
 13 14  2  0
 13 15  1  0
 15 16  1  0
 16 17  1  1
 16 27  1  0
 18 19  2  0
 18 17  1  0
 20 19  1  0
 21 26  2  0
 21 20  1  0
 22 21  1  0
 23 24  1  0
 23 22  2  0
 24 25  2  0
 25 26  1  0
 26 18  1  0
 27 29  1  0
 28 27  2  0
M  END
$$$$
