AKW.pdb
     RDKit          3D

 29 30  0  0  1  0  0  0  0  0999 V2000
   24.0730  -13.8373  -14.9638 C   0  0  0  0  0  0  0  0  0  0  0  0
   24.8614  -14.1485  -16.2435 C   0  0  2  0  0  0  0  0  0  0  0  0
   24.2529  -13.3852  -17.2988 N   0  0  0  0  0  0  0  0  0  0  0  0
   24.6846  -15.5837  -16.5160 C   0  0  0  0  0  0  0  0  0  0  0  0
   23.5673  -16.1116  -16.3028 O   0  0  0  0  0  0  0  0  0  0  0  0
   25.7172  -16.4350  -17.0167 N   0  0  0  0  0  0  0  0  0  0  0  0
   25.5168  -17.8512  -17.2251 C   0  0  1  0  0  0  0  0  0  0  0  0
   26.4195  -18.3432  -18.3508 C   0  0  0  0  0  0  0  0  0  0  0  0
   26.2728  -17.5319  -19.5916 C   0  0  0  0  0  0  0  0  0  0  0  0
   27.1491  -18.1292  -20.6631 C   0  0  0  0  0  0  0  0  0  0  0  0
   27.1215  -17.3259  -21.9398 C   0  0  0  0  0  0  0  0  0  0  0  0
   28.0625  -17.9294  -22.8758 N   0  0  0  0  0  0  0  0  0  0  0  0
   25.9467  -18.5862  -16.0067 C   0  0  0  0  0  0  0  0  0  0  0  0
   27.1267  -18.3604  -15.5925 O   0  0  0  0  0  0  0  0  0  0  0  0
   25.1193  -19.4893  -15.3246 N   0  0  0  0  0  0  0  0  0  0  0  0
   25.6443  -20.1826  -14.1404 C   0  0  1  0  0  0  0  0  0  0  0  0
   25.3792  -19.2618  -12.9951 C   0  0  0  0  0  0  0  0  0  0  0  0
   25.6563  -19.8907  -11.7049 C   0  0  0  0  0  0  0  0  0  0  0  0
   26.9593  -20.1534  -11.2675 C   0  0  0  0  0  0  0  0  0  0  0  0
   26.8401  -20.7612  -10.0828 N   0  0  0  0  0  0  0  0  0  0  0  0
   25.5516  -20.8969   -9.7464 C   0  0  0  0  0  0  0  0  0  0  0  0
   24.9352  -21.4404   -8.6209 C   0  0  0  0  0  0  0  0  0  0  0  0
   23.5712  -21.4277   -8.5282 C   0  0  0  0  0  0  0  0  0  0  0  0
   22.8334  -20.8770   -9.5509 C   0  0  0  0  0  0  0  0  0  0  0  0
   23.4156  -20.3367  -10.6691 C   0  0  0  0  0  0  0  0  0  0  0  0
   24.7941  -20.3541  -10.7561 C   0  0  0  0  0  0  0  0  0  0  0  0
   25.0703  -21.5263  -14.0201 C   0  0  0  0  0  0  0  0  0  0  0  0
   25.7506  -22.4193  -13.4244 O   0  0  0  0  0  0  0  0  0  0  0  0
   23.8382  -21.9085  -14.4978 O   0  0  0  0  0  0  0  0  0  0  0  0
  2  3  1  0
  2  1  1  1
  4  5  2  0
  4  2  1  0
  6  4  1  0
  7  6  1  0
  7 13  1  0
  7  8  1  6
  9  8  1  0
 10  9  1  0
 11 10  1  0
 12 11  1  0
 13 14  2  0
 13 15  1  0
 15 16  1  0
 16 17  1  1
 16 27  1  0
 18 19  2  0
 18 17  1  0
 20 19  1  0
 21 26  2  0
 21 20  1  0
 22 21  1  0
 23 24  1  0
 23 22  2  0
 24 25  2  0
 25 26  1  0
 26 18  1  0
 27 29  1  0
 28 27  2  0
M  END
$$$$
