AKW.pdb
     RDKit          3D

 29 30  0  0  1  0  0  0  0  0999 V2000
   26.5300  -15.0939  -13.9248 C   0  0  0  0  0  0  0  0  0  0  0  0
   26.8273  -16.1408  -15.0072 C   0  0  2  0  0  0  0  0  0  0  0  0
   26.0008  -15.8126  -16.1366 N   0  0  0  0  0  0  0  0  0  0  0  0
   26.4154  -17.4452  -14.4648 C   0  0  0  0  0  0  0  0  0  0  0  0
   25.1939  -17.7215  -14.4028 O   0  0  0  0  0  0  0  0  0  0  0  0
   27.3280  -18.4391  -13.9947 N   0  0  0  0  0  0  0  0  0  0  0  0
   26.8977  -19.7681  -13.6230 C   0  0  1  0  0  0  0  0  0  0  0  0
   27.8145  -20.8073  -14.2583 C   0  0  0  0  0  0  0  0  0  0  0  0
   27.5782  -20.9536  -15.7219 C   0  0  0  0  0  0  0  0  0  0  0  0
   28.5143  -22.0070  -16.2573 C   0  0  0  0  0  0  0  0  0  0  0  0
   28.3786  -22.1899  -17.7487 C   0  0  0  0  0  0  0  0  0  0  0  0
   29.3932  -23.1427  -18.1830 N   0  0  0  0  0  0  0  0  0  0  0  0
   27.0500  -19.9338  -12.1536 C   0  0  0  0  0  0  0  0  0  0  0  0
   28.2137  -19.7492  -11.6777 O   0  0  0  0  0  0  0  0  0  0  0  0
   25.9863  -20.2755  -11.3067 N   0  0  0  0  0  0  0  0  0  0  0  0
   26.2810  -20.7462   -9.9465 C   0  0  1  0  0  0  0  0  0  0  0  0
   26.5874  -19.5137   -9.1610 C   0  0  0  0  0  0  0  0  0  0  0  0
   26.5447  -19.7523   -7.7194 C   0  0  0  0  0  0  0  0  0  0  0  0
   25.3740  -20.1487   -7.0633 C   0  0  0  0  0  0  0  0  0  0  0  0
   25.6837  -20.2337   -5.7656 N   0  0  0  0  0  0  0  0  0  0  0  0
   26.9688  -19.9186   -5.5627 C   0  0  0  0  0  0  0  0  0  0  0  0
   27.7466  -19.8787   -4.4070 C   0  0  0  0  0  0  0  0  0  0  0  0
   29.0670  -19.5356   -4.4958 C   0  0  0  0  0  0  0  0  0  0  0  0
   29.6021  -19.2361   -5.7278 C   0  0  0  0  0  0  0  0  0  0  0  0
   28.8581  -19.2672   -6.8796 C   0  0  0  0  0  0  0  0  0  0  0  0
   27.5244  -19.6137   -6.7819 C   0  0  0  0  0  0  0  0  0  0  0  0
   25.1874  -21.5734   -9.4278 C   0  0  0  0  0  0  0  0  0  0  0  0
   25.3473  -22.1454   -8.3042 O   0  0  0  0  0  0  0  0  0  0  0  0
   23.9828  -21.7826  -10.0583 O   0  0  0  0  0  0  0  0  0  0  0  0
  2  3  1  0
  2  1  1  1
  4  5  2  0
  4  2  1  0
  6  4  1  0
  7  6  1  0
  7 13  1  0
  7  8  1  6
  9  8  1  0
 10  9  1  0
 11 10  1  0
 12 11  1  0
 13 14  2  0
 13 15  1  0
 15 16  1  0
 16 17  1  1
 16 27  1  0
 18 19  2  0
 18 17  1  0
 20 19  1  0
 21 26  2  0
 21 20  1  0
 22 21  1  0
 23 24  1  0
 23 22  2  0
 24 25  2  0
 25 26  1  0
 26 18  1  0
 27 29  1  0
 28 27  2  0
M  END
$$$$
