AKW.pdb
     RDKit          3D

 29 30  0  0  1  0  0  0  0  0999 V2000
   29.9599  -20.2649  -13.0189 C   0  0  0  0  0  0  0  0  0  0  0  0
   28.6587  -20.6722  -13.7239 C   0  0  2  0  0  0  0  0  0  0  0  0
   28.6666  -20.0279  -15.0089 N   0  0  0  0  0  0  0  0  0  0  0  0
   27.5501  -20.1374  -12.9176 C   0  0  0  0  0  0  0  0  0  0  0  0
   27.4152  -18.8949  -12.8146 O   0  0  0  0  0  0  0  0  0  0  0  0
   26.5974  -20.9505  -12.2300 N   0  0  0  0  0  0  0  0  0  0  0  0
   25.4934  -20.3856  -11.4875 C   0  0  1  0  0  0  0  0  0  0  0  0
   24.1725  -20.7950  -12.1292 C   0  0  0  0  0  0  0  0  0  0  0  0
   23.8291  -19.9519  -13.3084 C   0  0  0  0  0  0  0  0  0  0  0  0
   22.4592  -20.3463  -13.7989 C   0  0  0  0  0  0  0  0  0  0  0  0
   22.0273  -19.5425  -15.0003 C   0  0  0  0  0  0  0  0  0  0  0  0
   23.0906  -19.6074  -15.9957 N   0  0  0  0  0  0  0  0  0  0  0  0
   25.4803  -20.9681  -10.1199 C   0  0  0  0  0  0  0  0  0  0  0  0
   25.7475  -22.2070  -10.0265 O   0  0  0  0  0  0  0  0  0  0  0  0
   25.1923  -20.2189   -8.9706 N   0  0  0  0  0  0  0  0  0  0  0  0
   25.1113  -20.9052   -7.6739 C   0  0  1  0  0  0  0  0  0  0  0  0
   25.3937  -19.8527   -6.6530 C   0  0  0  0  0  0  0  0  0  0  0  0
   26.8193  -19.5433   -6.5581 C   0  0  0  0  0  0  0  0  0  0  0  0
   27.4793  -18.7655   -7.5160 C   0  0  0  0  0  0  0  0  0  0  0  0
   28.7617  -18.7202   -7.1412 N   0  0  0  0  0  0  0  0  0  0  0  0
   28.9514  -19.4156   -6.0132 C   0  0  0  0  0  0  0  0  0  0  0  0
   30.0880  -19.6437   -5.2397 C   0  0  0  0  0  0  0  0  0  0  0  0
   29.9874  -20.3909   -4.0993 C   0  0  0  0  0  0  0  0  0  0  0  0
   28.7626  -20.9035   -3.7377 C   0  0  0  0  0  0  0  0  0  0  0  0
   27.6295  -20.6943   -4.4817 C   0  0  0  0  0  0  0  0  0  0  0  0
   27.7392  -19.9393   -5.6333 C   0  0  0  0  0  0  0  0  0  0  0  0
   23.8306  -21.6035   -7.5276 C   0  0  0  0  0  0  0  0  0  0  0  0
   22.8950  -21.3194   -8.3395 O   0  0  0  0  0  0  0  0  0  0  0  0
   23.5514  -22.5582   -6.5774 O   0  0  0  0  0  0  0  0  0  0  0  0
  2  3  1  0
  2  1  1  1
  4  5  2  0
  4  2  1  0
  6  4  1  0
  7  6  1  0
  7 13  1  0
  7  8  1  6
  9  8  1  0
 10  9  1  0
 11 10  1  0
 12 11  1  0
 13 14  2  0
 13 15  1  0
 15 16  1  0
 16 17  1  1
 16 27  1  0
 18 19  2  0
 18 17  1  0
 20 19  1  0
 21 26  2  0
 21 20  1  0
 22 21  1  0
 23 24  1  0
 23 22  2  0
 24 25  2  0
 25 26  1  0
 26 18  1  0
 27 29  1  0
 28 27  2  0
M  END
$$$$
