AKW.pdb
     RDKit          3D

 29 30  0  0  1  0  0  0  0  0999 V2000
   23.6042  -17.0495  -15.4885 C   0  0  0  0  0  0  0  0  0  0  0  0
   24.3501  -18.3853  -15.6114 C   0  0  2  0  0  0  0  0  0  0  0  0
   23.6586  -19.1537  -16.6104 N   0  0  0  0  0  0  0  0  0  0  0  0
   24.2335  -19.0614  -14.3097 C   0  0  0  0  0  0  0  0  0  0  0  0
   23.4149  -18.6237  -13.4666 O   0  0  0  0  0  0  0  0  0  0  0  0
   25.0025  -20.2046  -13.9313 N   0  0  0  0  0  0  0  0  0  0  0  0
   24.7657  -20.9207  -12.6983 C   0  0  1  0  0  0  0  0  0  0  0  0
   24.9564  -22.4166  -12.9218 C   0  0  0  0  0  0  0  0  0  0  0  0
   23.7870  -23.0428  -13.5999 C   0  0  0  0  0  0  0  0  0  0  0  0
   24.0996  -24.4955  -13.8540 C   0  0  0  0  0  0  0  0  0  0  0  0
   22.9642  -25.2148  -14.5391 C   0  0  0  0  0  0  0  0  0  0  0  0
   23.3650  -26.6011  -14.7468 N   0  0  0  0  0  0  0  0  0  0  0  0
   25.7940  -20.5229  -11.7013 C   0  0  0  0  0  0  0  0  0  0  0  0
   26.9756  -20.3559  -12.1381 O   0  0  0  0  0  0  0  0  0  0  0  0
   25.5101  -20.3330  -10.3416 N   0  0  0  0  0  0  0  0  0  0  0  0
   26.6148  -20.0494   -9.4155 C   0  0  1  0  0  0  0  0  0  0  0  0
   26.0057  -19.2551   -8.3074 C   0  0  0  0  0  0  0  0  0  0  0  0
   26.9905  -18.8685   -7.2985 C   0  0  0  0  0  0  0  0  0  0  0  0
   27.6757  -17.6497   -7.3536 C   0  0  0  0  0  0  0  0  0  0  0  0
   28.5139  -17.6451   -6.3122 N   0  0  0  0  0  0  0  0  0  0  0  0
   28.4009  -18.7773   -5.6069 C   0  0  0  0  0  0  0  0  0  0  0  0
   29.0384  -19.2215   -4.4501 C   0  0  0  0  0  0  0  0  0  0  0  0
   28.7058  -20.4383   -3.9231 C   0  0  0  0  0  0  0  0  0  0  0  0
   27.7457  -21.2012   -4.5474 C   0  0  0  0  0  0  0  0  0  0  0  0
   27.1043  -20.7873   -5.6869 C   0  0  0  0  0  0  0  0  0  0  0  0
   27.4464  -19.5572   -6.2142 C   0  0  0  0  0  0  0  0  0  0  0  0
   27.2931  -21.2849   -9.0119 C   0  0  0  0  0  0  0  0  0  0  0  0
   26.5853  -22.3216   -8.8129 O   0  0  0  0  0  0  0  0  0  0  0  0
   28.6499  -21.4232   -8.8329 O   0  0  0  0  0  0  0  0  0  0  0  0
  2  3  1  0
  2  1  1  1
  4  5  2  0
  4  2  1  0
  6  4  1  0
  7  6  1  0
  7 13  1  0
  7  8  1  6
  9  8  1  0
 10  9  1  0
 11 10  1  0
 12 11  1  0
 13 14  2  0
 13 15  1  0
 15 16  1  0
 16 17  1  1
 16 27  1  0
 18 19  2  0
 18 17  1  0
 20 19  1  0
 21 26  2  0
 21 20  1  0
 22 21  1  0
 23 24  1  0
 23 22  2  0
 24 25  2  0
 25 26  1  0
 26 18  1  0
 27 29  1  0
 28 27  2  0
M  END
$$$$
