AKW.pdb
     RDKit          3D

 29 30  0  0  1  0  0  0  0  0999 V2000
   28.3084  -21.3325  -14.9913 C   0  0  0  0  0  0  0  0  0  0  0  0
   26.8891  -20.8883  -15.3709 C   0  0  2  0  0  0  0  0  0  0  0  0
   27.0317  -19.8205  -16.3228 N   0  0  0  0  0  0  0  0  0  0  0  0
   26.2619  -20.3681  -14.1457 C   0  0  0  0  0  0  0  0  0  0  0  0
   26.6710  -19.2850  -13.6640 O   0  0  0  0  0  0  0  0  0  0  0  0
   25.1979  -21.0233  -13.4526 N   0  0  0  0  0  0  0  0  0  0  0  0
   24.6107  -20.4797  -12.2489 C   0  0  1  0  0  0  0  0  0  0  0  0
   23.1907  -21.0080  -12.0797 C   0  0  0  0  0  0  0  0  0  0  0  0
   22.2730  -20.5211  -13.1475 C   0  0  0  0  0  0  0  0  0  0  0  0
   20.8856  -21.0368  -12.8612 C   0  0  0  0  0  0  0  0  0  0  0  0
   19.8140  -20.1703  -13.4751 C   0  0  0  0  0  0  0  0  0  0  0  0
   18.5165  -20.7152  -13.0941 N   0  0  0  0  0  0  0  0  0  0  0  0
   25.3726  -20.9736  -11.0719 C   0  0  0  0  0  0  0  0  0  0  0  0
   25.7000  -22.2015  -11.0804 O   0  0  0  0  0  0  0  0  0  0  0  0
   25.7283  -20.1551   -9.9909 N   0  0  0  0  0  0  0  0  0  0  0  0
   26.4730  -20.7408   -8.8679 C   0  0  1  0  0  0  0  0  0  0  0  0
   27.4759  -19.7055   -8.4778 C   0  0  0  0  0  0  0  0  0  0  0  0
   28.2939  -20.1287   -7.3425 C   0  0  0  0  0  0  0  0  0  0  0  0
   29.2241  -21.1694   -7.4401 C   0  0  0  0  0  0  0  0  0  0  0  0
   29.7544  -21.3119   -6.2213 N   0  0  0  0  0  0  0  0  0  0  0  0
   29.2213  -20.4311   -5.3658 C   0  0  0  0  0  0  0  0  0  0  0  0
   29.4589  -20.1838   -4.0150 C   0  0  0  0  0  0  0  0  0  0  0  0
   28.7708  -19.1864   -3.3820 C   0  0  0  0  0  0  0  0  0  0  0  0
   27.8555  -18.4452   -4.0937 C   0  0  0  0  0  0  0  0  0  0  0  0
   27.6027  -18.6690   -5.4231 C   0  0  0  0  0  0  0  0  0  0  0  0
   28.3011  -19.6791   -6.0557 C   0  0  0  0  0  0  0  0  0  0  0  0
   25.5635  -21.1758   -7.8035 C   0  0  0  0  0  0  0  0  0  0  0  0
   26.0021  -21.9937   -6.9353 O   0  0  0  0  0  0  0  0  0  0  0  0
   24.2589  -20.7647   -7.6573 O   0  0  0  0  0  0  0  0  0  0  0  0
  2  3  1  0
  2  1  1  1
  4  5  2  0
  4  2  1  0
  6  4  1  0
  7  6  1  0
  7 13  1  0
  7  8  1  1
  9  8  1  0
 10  9  1  0
 11 10  1  0
 12 11  1  0
 13 14  2  0
 13 15  1  0
 15 16  1  0
 16 17  1  1
 16 27  1  0
 18 19  2  0
 18 17  1  0
 20 19  1  0
 21 26  2  0
 21 20  1  0
 22 21  1  0
 23 24  1  0
 23 22  2  0
 24 25  2  0
 25 26  1  0
 26 18  1  0
 27 29  1  0
 28 27  2  0
M  END
$$$$
