AKW.pdb
     RDKit          3D

 29 30  0  0  1  0  0  0  0  0999 V2000
   25.7444  -25.9061  -15.9849 C   0  0  0  0  0  0  0  0  0  0  0  0
   26.7970  -25.1406  -16.7985 C   0  0  2  0  0  0  0  0  0  0  0  0
   27.9502  -25.9942  -16.8880 N   0  0  0  0  0  0  0  0  0  0  0  0
   27.1412  -23.9362  -16.0264 C   0  0  0  0  0  0  0  0  0  0  0  0
   28.1431  -23.9608  -15.2727 O   0  0  0  0  0  0  0  0  0  0  0  0
   26.3994  -22.7160  -16.0764 N   0  0  0  0  0  0  0  0  0  0  0  0
   26.8564  -21.5076  -15.4282 C   0  0  1  0  0  0  0  0  0  0  0  0
   26.2934  -20.2874  -16.1481 C   0  0  0  0  0  0  0  0  0  0  0  0
   26.8945  -19.0141  -15.6618 C   0  0  0  0  0  0  0  0  0  0  0  0
   27.9928  -18.6074  -16.6111 C   0  0  0  0  0  0  0  0  0  0  0  0
   28.5895  -17.2678  -16.2572 C   0  0  0  0  0  0  0  0  0  0  0  0
   29.8244  -17.1067  -17.0153 N   0  0  0  0  0  0  0  0  0  0  0  0
   26.3039  -21.4585  -14.0491 C   0  0  0  0  0  0  0  0  0  0  0  0
   25.0570  -21.6717  -13.9276 O   0  0  0  0  0  0  0  0  0  0  0  0
   27.0887  -21.1932  -12.9181 N   0  0  0  0  0  0  0  0  0  0  0  0
   26.4324  -21.0588  -11.6105 C   0  0  1  0  0  0  0  0  0  0  0  0
   27.5437  -20.8881  -10.6278 C   0  0  0  0  0  0  0  0  0  0  0  0
   27.0611  -20.4560   -9.3173 C   0  0  0  0  0  0  0  0  0  0  0  0
   25.7025  -20.4654   -8.9825 C   0  0  0  0  0  0  0  0  0  0  0  0
   25.6203  -19.9759   -7.7413 N   0  0  0  0  0  0  0  0  0  0  0  0
   26.8345  -19.6608   -7.2739 C   0  0  0  0  0  0  0  0  0  0  0  0
   27.2563  -19.1440   -6.0504 C   0  0  0  0  0  0  0  0  0  0  0  0
   28.5896  -18.9357   -5.8312 C   0  0  0  0  0  0  0  0  0  0  0  0
   29.4899  -19.2417   -6.8259 C   0  0  0  0  0  0  0  0  0  0  0  0
   29.1006  -19.7505   -8.0386 C   0  0  0  0  0  0  0  0  0  0  0  0
   27.7518  -19.9573   -8.2532 C   0  0  0  0  0  0  0  0  0  0  0  0
   25.4336  -19.9858  -11.6312 C   0  0  0  0  0  0  0  0  0  0  0  0
   25.7407  -18.8897  -12.1964 O   0  0  0  0  0  0  0  0  0  0  0  0
   24.1718  -20.0658  -11.0892 O   0  0  0  0  0  0  0  0  0  0  0  0
  2  3  1  0
  2  1  1  1
  4  5  2  0
  4  2  1  0
  6  4  1  0
  7  6  1  0
  7 13  1  0
  7  8  1  6
  9  8  1  0
 10  9  1  0
 11 10  1  0
 12 11  1  0
 13 14  2  0
 13 15  1  0
 15 16  1  0
 16 17  1  1
 16 27  1  0
 18 19  2  0
 18 17  1  0
 20 19  1  0
 21 26  2  0
 21 20  1  0
 22 21  1  0
 23 24  1  0
 23 22  2  0
 24 25  2  0
 25 26  1  0
 26 18  1  0
 27 29  1  0
 28 27  2  0
M  END
$$$$
