AKW.pdb
     RDKit          3D

 29 30  0  0  1  0  0  0  0  0999 V2000
   19.7212  -20.6792  -12.6790 C   0  0  0  0  0  0  0  0  0  0  0  0
   20.1540  -20.9225  -14.1314 C   0  0  2  0  0  0  0  0  0  0  0  0
   19.3407  -21.9981  -14.6295 N   0  0  0  0  0  0  0  0  0  0  0  0
   21.5604  -21.3531  -14.0919 C   0  0  0  0  0  0  0  0  0  0  0  0
   21.8492  -22.4429  -13.5429 O   0  0  0  0  0  0  0  0  0  0  0  0
   22.6419  -20.6018  -14.6466 N   0  0  0  0  0  0  0  0  0  0  0  0
   24.0085  -21.0708  -14.6058 C   0  0  1  0  0  0  0  0  0  0  0  0
   24.8131  -20.4238  -15.7275 C   0  0  0  0  0  0  0  0  0  0  0  0
   24.4999  -21.0092  -17.0611 C   0  0  0  0  0  0  0  0  0  0  0  0
   25.3021  -20.2783  -18.1075 C   0  0  0  0  0  0  0  0  0  0  0  0
   24.9880  -20.7520  -19.5050 C   0  0  0  0  0  0  0  0  0  0  0  0
   25.7399  -19.9274  -20.4432 N   0  0  0  0  0  0  0  0  0  0  0  0
   24.6389  -20.6178  -13.3380 C   0  0  0  0  0  0  0  0  0  0  0  0
   24.2936  -19.4729  -12.9081 O   0  0  0  0  0  0  0  0  0  0  0  0
   25.5700  -21.3880  -12.6273 N   0  0  0  0  0  0  0  0  0  0  0  0
   26.3902  -20.7408  -11.5943 C   0  0  1  0  0  0  0  0  0  0  0  0
   26.3171  -21.6460  -10.4090 C   0  0  0  0  0  0  0  0  0  0  0  0
   26.6446  -20.9536   -9.1639 C   0  0  0  0  0  0  0  0  0  0  0  0
   25.7243  -20.1329   -8.5024 C   0  0  0  0  0  0  0  0  0  0  0  0
   26.3634  -19.6374   -7.4379 N   0  0  0  0  0  0  0  0  0  0  0  0
   27.6215  -20.0918   -7.3857 C   0  0  0  0  0  0  0  0  0  0  0  0
   28.6522  -19.8769   -6.4726 C   0  0  0  0  0  0  0  0  0  0  0  0
   29.8555  -20.4990   -6.6571 C   0  0  0  0  0  0  0  0  0  0  0  0
   30.0245  -21.3267   -7.7433 C   0  0  0  0  0  0  0  0  0  0  0  0
   29.0267  -21.5541   -8.6565 C   0  0  0  0  0  0  0  0  0  0  0  0
   27.8140  -20.9213   -8.4641 C   0  0  0  0  0  0  0  0  0  0  0  0
   27.7391  -20.4582  -12.0944 C   0  0  0  0  0  0  0  0  0  0  0  0
   28.1877  -19.2748  -11.9774 O   0  0  0  0  0  0  0  0  0  0  0  0
   28.5762  -21.3777  -12.6826 O   0  0  0  0  0  0  0  0  0  0  0  0
  2  3  1  0
  2  1  1  1
  4  5  2  0
  4  2  1  0
  6  4  1  0
  7  6  1  0
  7 13  1  0
  7  8  1  6
  9  8  1  0
 10  9  1  0
 11 10  1  0
 12 11  1  0
 13 14  2  0
 13 15  1  0
 15 16  1  0
 16 17  1  1
 16 27  1  0
 18 19  2  0
 18 17  1  0
 20 19  1  0
 21 26  2  0
 21 20  1  0
 22 21  1  0
 23 24  1  0
 23 22  2  0
 24 25  2  0
 25 26  1  0
 26 18  1  0
 27 29  1  0
 28 27  2  0
M  END
$$$$
