AKW.pdb
     RDKit          3D

 29 30  0  0  1  0  0  0  0  0999 V2000
   23.0927  -10.6199  -16.5251 C   0  0  0  0  0  0  0  0  0  0  0  0
   21.7889  -11.2112  -15.9716 C   0  0  2  0  0  0  0  0  0  0  0  0
   21.2840  -12.1081  -16.9752 N   0  0  0  0  0  0  0  0  0  0  0  0
   20.8497  -10.0913  -15.8022 C   0  0  0  0  0  0  0  0  0  0  0  0
   20.3217   -9.5794  -16.8179 O   0  0  0  0  0  0  0  0  0  0  0  0
   20.4896   -9.5350  -14.5363 N   0  0  0  0  0  0  0  0  0  0  0  0
   19.5545   -8.4398  -14.4122 C   0  0  1  0  0  0  0  0  0  0  0  0
   18.9072   -8.4635  -13.0322 C   0  0  0  0  0  0  0  0  0  0  0  0
   17.8174   -9.4745  -12.9338 C   0  0  0  0  0  0  0  0  0  0  0  0
   17.2390   -9.4243  -11.5426 C   0  0  0  0  0  0  0  0  0  0  0  0
   16.0168  -10.2968  -11.3981 C   0  0  0  0  0  0  0  0  0  0  0  0
   15.6104  -10.2801   -9.9980 N   0  0  0  0  0  0  0  0  0  0  0  0
   20.2988   -7.1555  -14.4916 C   0  0  0  0  0  0  0  0  0  0  0  0
   21.2736   -7.0121  -13.6890 O   0  0  0  0  0  0  0  0  0  0  0  0
   19.9696   -6.1334  -15.3929 N   0  0  0  0  0  0  0  0  0  0  0  0
   20.8031   -4.9242  -15.4351 C   0  0  1  0  0  0  0  0  0  0  0  0
   20.8024   -4.4951  -16.8653 C   0  0  0  0  0  0  0  0  0  0  0  0
   21.5289   -3.2427  -17.0668 C   0  0  0  0  0  0  0  0  0  0  0  0
   22.8738   -3.0947  -16.7102 C   0  0  0  0  0  0  0  0  0  0  0  0
   23.1981   -1.8290  -16.9926 N   0  0  0  0  0  0  0  0  0  0  0  0
   22.1488   -1.1728  -17.5030 C   0  0  0  0  0  0  0  0  0  0  0  0
   22.0005    0.1360  -17.9581 C   0  0  0  0  0  0  0  0  0  0  0  0
   20.7952    0.5417  -18.4598 C   0  0  0  0  0  0  0  0  0  0  0  0
   19.7508   -0.3530  -18.5053 C   0  0  0  0  0  0  0  0  0  0  0  0
   19.8706   -1.6458  -18.0631 C   0  0  0  0  0  0  0  0  0  0  0  0
   21.0911   -2.0483  -17.5565 C   0  0  0  0  0  0  0  0  0  0  0  0
   20.3291   -3.9250  -14.4727 C   0  0  0  0  0  0  0  0  0  0  0  0
   19.0815   -3.8598  -14.2394 O   0  0  0  0  0  0  0  0  0  0  0  0
   21.1301   -3.0426  -13.7856 O   0  0  0  0  0  0  0  0  0  0  0  0
  2  3  1  0
  2  1  1  6
  4  5  2  0
  4  2  1  0
  6  4  1  0
  7  6  1  0
  7 13  1  0
  7  8  1  1
  9  8  1  0
 10  9  1  0
 11 10  1  0
 12 11  1  0
 13 14  2  0
 13 15  1  0
 15 16  1  0
 16 17  1  6
 16 27  1  0
 18 19  2  0
 18 17  1  0
 20 19  1  0
 21 26  2  0
 21 20  1  0
 22 21  1  0
 23 24  1  0
 23 22  2  0
 24 25  2  0
 25 26  1  0
 26 18  1  0
 27 29  1  0
 28 27  2  0
M  END
$$$$
