AKW.pdb
     RDKit          3D

 29 30  0  0  1  0  0  0  0  0999 V2000
   29.4045  -17.4927  -15.9448 C   0  0  0  0  0  0  0  0  0  0  0  0
   28.5268  -18.7487  -16.0348 C   0  0  2  0  0  0  0  0  0  0  0  0
   27.8325  -18.6776  -17.2916 N   0  0  0  0  0  0  0  0  0  0  0  0
   27.5526  -18.6690  -14.9349 C   0  0  0  0  0  0  0  0  0  0  0  0
   27.3143  -17.5549  -14.4110 O   0  0  0  0  0  0  0  0  0  0  0  0
   26.8447  -19.7945  -14.4115 N   0  0  0  0  0  0  0  0  0  0  0  0
   25.8063  -19.6581  -13.4154 C   0  0  1  0  0  0  0  0  0  0  0  0
   24.5140  -20.2880  -13.9229 C   0  0  0  0  0  0  0  0  0  0  0  0
   23.7938  -19.4082  -14.8856 C   0  0  0  0  0  0  0  0  0  0  0  0
   22.5699  -20.1366  -15.3797 C   0  0  0  0  0  0  0  0  0  0  0  0
   21.8073  -19.3421  -16.4108 C   0  0  0  0  0  0  0  0  0  0  0  0
   20.6447  -20.1229  -16.8163 N   0  0  0  0  0  0  0  0  0  0  0  0
   26.1899  -20.4325  -12.2059 C   0  0  0  0  0  0  0  0  0  0  0  0
   26.6936  -21.5825  -12.4025 O   0  0  0  0  0  0  0  0  0  0  0  0
   26.0187  -19.9499  -10.9009 N   0  0  0  0  0  0  0  0  0  0  0  0
   26.2400  -20.8606   -9.7693 C   0  0  1  0  0  0  0  0  0  0  0  0
   27.4169  -20.3026   -9.0390 C   0  0  0  0  0  0  0  0  0  0  0  0
   27.2849  -20.4422   -7.5898 C   0  0  0  0  0  0  0  0  0  0  0  0
   26.2522  -21.1817   -7.0026 C   0  0  0  0  0  0  0  0  0  0  0  0
   26.4128  -21.0630   -5.6808 N   0  0  0  0  0  0  0  0  0  0  0  0
   27.4762  -20.3004   -5.3984 C   0  0  0  0  0  0  0  0  0  0  0  0
   28.0468  -19.9092   -4.1887 C   0  0  0  0  0  0  0  0  0  0  0  0
   29.1687  -19.1279   -4.1951 C   0  0  0  0  0  0  0  0  0  0  0  0
   29.7127  -18.7430   -5.3990 C   0  0  0  0  0  0  0  0  0  0  0  0
   29.1700  -19.1138   -6.6029 C   0  0  0  0  0  0  0  0  0  0  0  0
   28.0359  -19.9023   -6.5885 C   0  0  0  0  0  0  0  0  0  0  0  0
   25.0178  -21.0195   -8.9754 C   0  0  0  0  0  0  0  0  0  0  0  0
   24.8943  -22.0662   -8.2652 O   0  0  0  0  0  0  0  0  0  0  0  0
   23.9801  -20.1177   -8.9270 O   0  0  0  0  0  0  0  0  0  0  0  0
  2  3  1  0
  2  1  1  1
  4  5  2  0
  4  2  1  0
  6  4  1  0
  7  6  1  0
  7 13  1  0
  7  8  1  6
  9  8  1  0
 10  9  1  0
 11 10  1  0
 12 11  1  0
 13 14  2  0
 13 15  1  0
 15 16  1  0
 16 17  1  1
 16 27  1  0
 18 19  2  0
 18 17  1  0
 20 19  1  0
 21 26  2  0
 21 20  1  0
 22 21  1  0
 23 24  1  0
 23 22  2  0
 24 25  2  0
 25 26  1  0
 26 18  1  0
 27 29  1  0
 28 27  2  0
M  END
$$$$
