AKW.pdb
     RDKit          3D

 29 30  0  0  1  0  0  0  0  0999 V2000
   28.3546  -21.7492  -15.3173 C   0  0  0  0  0  0  0  0  0  0  0  0
   26.9418  -21.2997  -15.7148 C   0  0  2  0  0  0  0  0  0  0  0  0
   27.0981  -20.3193  -16.7545 N   0  0  0  0  0  0  0  0  0  0  0  0
   26.3467  -20.6623  -14.5296 C   0  0  0  0  0  0  0  0  0  0  0  0
   26.8997  -19.6490  -14.0400 O   0  0  0  0  0  0  0  0  0  0  0  0
   25.1591  -21.1261  -13.8846 N   0  0  0  0  0  0  0  0  0  0  0  0
   24.5723  -20.4356  -12.7585 C   0  0  1  0  0  0  0  0  0  0  0  0
   23.0872  -20.7665  -12.6631 C   0  0  0  0  0  0  0  0  0  0  0  0
   22.2795  -20.0527  -13.6914 C   0  0  0  0  0  0  0  0  0  0  0  0
   20.8238  -20.3750  -13.4685 C   0  0  0  0  0  0  0  0  0  0  0  0
   19.9467  -19.1501  -13.5484 C   0  0  0  0  0  0  0  0  0  0  0  0
   18.5594  -19.5755  -13.4063 N   0  0  0  0  0  0  0  0  0  0  0  0
   25.1852  -20.9457  -11.5040 C   0  0  0  0  0  0  0  0  0  0  0  0
   25.2619  -22.2081  -11.3804 O   0  0  0  0  0  0  0  0  0  0  0  0
   25.6643  -20.1061  -10.4887 N   0  0  0  0  0  0  0  0  0  0  0  0
   26.2719  -20.7075   -9.2937 C   0  0  1  0  0  0  0  0  0  0  0  0
   27.2290  -19.6826   -8.7804 C   0  0  0  0  0  0  0  0  0  0  0  0
   27.9330  -20.1353   -7.5819 C   0  0  0  0  0  0  0  0  0  0  0  0
   28.4489  -21.4307   -7.4643 C   0  0  0  0  0  0  0  0  0  0  0  0
   28.9832  -21.5104   -6.2415 N   0  0  0  0  0  0  0  0  0  0  0  0
   28.8388  -20.3533   -5.5841 C   0  0  0  0  0  0  0  0  0  0  0  0
   29.2387  -19.9487   -4.3119 C   0  0  0  0  0  0  0  0  0  0  0  0
   28.9726  -18.6737   -3.8963 C   0  0  0  0  0  0  0  0  0  0  0  0
   28.3137  -17.8140   -4.7450 C   0  0  0  0  0  0  0  0  0  0  0  0
   27.9089  -18.1877   -6.0011 C   0  0  0  0  0  0  0  0  0  0  0  0
   28.1804  -19.4778   -6.4137 C   0  0  0  0  0  0  0  0  0  0  0  0
   25.2437  -21.1466   -8.3453 C   0  0  0  0  0  0  0  0  0  0  0  0
   24.1163  -20.5602   -8.3670 O   0  0  0  0  0  0  0  0  0  0  0  0
   25.3934  -22.1573   -7.4243 O   0  0  0  0  0  0  0  0  0  0  0  0
  2  3  1  0
  2  1  1  1
  4  5  2  0
  4  2  1  0
  6  4  1  0
  7  6  1  0
  7 13  1  0
  7  8  1  1
  9  8  1  0
 10  9  1  0
 11 10  1  0
 12 11  1  0
 13 14  2  0
 13 15  1  0
 15 16  1  0
 16 17  1  1
 16 27  1  0
 18 19  2  0
 18 17  1  0
 20 19  1  0
 21 26  2  0
 21 20  1  0
 22 21  1  0
 23 24  1  0
 23 22  2  0
 24 25  2  0
 25 26  1  0
 26 18  1  0
 27 29  1  0
 28 27  2  0
M  END
$$$$
