QYH.pdb
     RDKit          3D

 32 33  0  0  1  0  0  0  0  0999 V2000
   22.0626  -20.5208  -16.4054 N   0  0  0  0  0  0  0  0  0  0  0  0
   21.8950  -19.8424  -17.6463 C   0  0  0  0  0  0  0  0  0  0  0  0
   22.7266  -18.9743  -18.0155 O   0  0  0  0  0  0  0  0  0  0  0  0
   20.7290  -20.1774  -18.4811 C   0  0  0  0  0  0  0  0  0  0  0  0
   19.8418  -21.2245  -17.9302 C   0  0  0  0  0  0  0  0  0  0  0  0
   20.4836  -22.5237  -17.5791 C   0  0  2  0  0  0  0  0  0  0  0  0
   20.3417  -23.4746  -18.6270 N   0  0  0  0  0  0  0  0  0  0  0  0
   19.7681  -23.0612  -16.3613 C   0  0  0  0  0  0  0  0  0  0  0  0
   18.6108  -23.5486  -16.4880 O   0  0  0  0  0  0  0  0  0  0  0  0
   18.2935  -25.6289   -8.0834 O   0  0  0  0  0  0  0  0  0  0  0  0
   18.8778  -25.1340   -9.2364 C   0  0  0  0  0  0  0  0  0  0  0  0
   19.1106  -26.0192  -10.2893 C   0  0  0  0  0  0  0  0  0  0  0  0
   19.6915  -25.5854  -11.4487 C   0  0  0  0  0  0  0  0  0  0  0  0
   20.0507  -24.2595  -11.5819 C   0  0  0  0  0  0  0  0  0  0  0  0
   20.6722  -23.8089  -12.8345 C   0  0  0  0  0  0  0  0  0  0  0  0
   19.6271  -23.4581  -13.8872 C   0  0  2  0  0  0  0  0  0  0  0  0
   20.3447  -23.0435  -15.0751 N   0  0  0  0  0  0  0  0  0  0  0  0
   18.6964  -22.4276  -13.3970 C   0  0  0  0  0  0  0  0  0  0  0  0
   17.8171  -22.6477  -12.5155 O   0  0  0  0  0  0  0  0  0  0  0  0
   19.8289  -23.3605  -10.5505 C   0  0  0  0  0  0  0  0  0  0  0  0
   19.2455  -23.8024   -9.3909 C   0  0  0  0  0  0  0  0  0  0  0  0
   18.6856  -21.0723  -13.8574 N   0  0  0  0  0  0  0  0  0  0  0  0
   17.8706  -20.0285  -13.3980 C   0  0  1  0  0  0  0  0  0  0  0  0
   18.5274  -18.7341  -13.0487 C   0  0  0  0  0  0  0  0  0  0  0  0
   19.5317  -19.0062  -11.9662 C   0  0  0  0  0  0  0  0  0  0  0  0
   19.7550  -20.2538  -11.3796 C   0  0  0  0  0  0  0  0  0  0  0  0
   20.7151  -20.1605  -10.4515 N   0  0  0  0  0  0  0  0  0  0  0  0
   21.1038  -18.8988  -10.4360 C   0  0  0  0  0  0  0  0  0  0  0  0
   20.3938  -18.1865  -11.3515 N   0  0  0  0  0  0  0  0  0  0  0  0
   16.7550  -19.7854  -14.3211 C   0  0  0  0  0  0  0  0  0  0  0  0
   16.6344  -20.3685  -15.4420 O   0  0  0  0  0  0  0  0  0  0  0  0
   15.7651  -18.8795  -13.9754 O   0  0  0  0  0  0  0  0  0  0  0  0
  1  2  1  0
  2  4  1  0
  2  3  2  0
  4  5  1  0
  6  7  1  6
  6  5  1  0
  8  6  1  0
  8  9  2  0
 10 11  1  0
 11 21  2  0
 11 12  1  0
 12 13  2  0
 13 14  1  0
 14 15  1  0
 16 15  1  1
 16 17  1  0
 17  8  1  0
 18 16  1  0
 19 18  2  0
 20 14  2  0
 21 20  1  0
 22 18  1  0
 23 22  1  0
 23 30  1  0
 23 24  1  6
 25 29  1  0
 25 24  1  0
 26 25  2  0
 27 26  1  0
 27 28  1  0
 28 29  2  0
 30 32  1  0
 31 30  2  0
M  END
$$$$
