QYH.pdb
     RDKit          3D

 32 33  0  0  1  0  0  0  0  0999 V2000
   17.5535  -11.6739  -13.8227 N   0  0  0  0  0  0  0  0  0  0  0  0
   16.8734  -12.7299  -13.1514 C   0  0  0  0  0  0  0  0  0  0  0  0
   17.1171  -13.9296  -13.4394 O   0  0  0  0  0  0  0  0  0  0  0  0
   15.8805  -12.3855  -12.1198 C   0  0  0  0  0  0  0  0  0  0  0  0
   15.6952  -10.9372  -11.8846 C   0  0  0  0  0  0  0  0  0  0  0  0
   14.6808  -10.5534  -10.8616 C   0  0  2  0  0  0  0  0  0  0  0  0
   13.3754  -10.9712  -11.2405 N   0  0  0  0  0  0  0  0  0  0  0  0
   14.6811   -9.0445  -10.7757 C   0  0  0  0  0  0  0  0  0  0  0  0
   14.0511   -8.3749  -11.6403 O   0  0  0  0  0  0  0  0  0  0  0  0
   10.2200   -9.2989   -7.5287 O   0  0  0  0  0  0  0  0  0  0  0  0
   11.3674   -8.5778   -7.8101 C   0  0  0  0  0  0  0  0  0  0  0  0
   11.2386   -7.3883   -8.5276 C   0  0  0  0  0  0  0  0  0  0  0  0
   12.3400   -6.6399   -8.8391 C   0  0  0  0  0  0  0  0  0  0  0  0
   13.5917   -7.0623   -8.4400 C   0  0  0  0  0  0  0  0  0  0  0  0
   14.7647   -6.2460   -8.7812 C   0  0  0  0  0  0  0  0  0  0  0  0
   15.6361   -6.9241   -9.8320 C   0  0  2  0  0  0  0  0  0  0  0  0
   15.3609   -8.3443   -9.7585 N   0  0  0  0  0  0  0  0  0  0  0  0
   17.0609   -6.6104   -9.6316 C   0  0  0  0  0  0  0  0  0  0  0  0
   17.8201   -7.2799   -8.8740 O   0  0  0  0  0  0  0  0  0  0  0  0
   13.7455   -8.2399   -7.7255 C   0  0  0  0  0  0  0  0  0  0  0  0
   12.6367   -8.9851   -7.4162 C   0  0  0  0  0  0  0  0  0  0  0  0
   17.7403   -5.5239  -10.2693 N   0  0  0  0  0  0  0  0  0  0  0  0
   18.7830   -5.6081  -11.2023 C   0  0  1  0  0  0  0  0  0  0  0  0
   18.7412   -6.7224  -12.1949 C   0  0  0  0  0  0  0  0  0  0  0  0
   19.9730   -6.6240  -13.0479 C   0  0  0  0  0  0  0  0  0  0  0  0
   20.9477   -5.6308  -12.9310 C   0  0  0  0  0  0  0  0  0  0  0  0
   21.9157   -5.8277  -13.8345 N   0  0  0  0  0  0  0  0  0  0  0  0
   21.5839   -6.9104  -14.5132 C   0  0  0  0  0  0  0  0  0  0  0  0
   20.4064   -7.4048  -14.0456 N   0  0  0  0  0  0  0  0  0  0  0  0
   18.9710   -4.3297  -11.8995 C   0  0  0  0  0  0  0  0  0  0  0  0
   18.0182   -3.6637  -12.4091 O   0  0  0  0  0  0  0  0  0  0  0  0
   20.2441   -3.7960  -12.0198 O   0  0  0  0  0  0  0  0  0  0  0  0
  1  2  1  0
  2  4  1  0
  2  3  2  0
  4  5  1  0
  6  7  1  6
  6  5  1  0
  8  6  1  0
  8  9  2  0
 10 11  1  0
 11 21  2  0
 11 12  1  0
 12 13  2  0
 13 14  1  0
 14 15  1  0
 16 15  1  1
 16 17  1  0
 17  8  1  0
 18 16  1  0
 19 18  2  0
 20 14  2  0
 21 20  1  0
 22 18  1  0
 23 22  1  0
 23 30  1  0
 23 24  1  6
 25 29  1  0
 25 24  1  0
 26 25  2  0
 27 26  1  0
 27 28  1  0
 28 29  2  0
 30 32  1  0
 31 30  2  0
M  END
$$$$
