QYH.pdb
     RDKit          3D

 32 33  0  0  1  0  0  0  0  0999 V2000
   24.2473  -19.8286  -19.1570 N   0  0  0  0  0  0  0  0  0  0  0  0
   25.6249  -19.5376  -19.3711 C   0  0  0  0  0  0  0  0  0  0  0  0
   26.0192  -19.1037  -20.4837 O   0  0  0  0  0  0  0  0  0  0  0  0
   26.5723  -19.7589  -18.2657 C   0  0  0  0  0  0  0  0  0  0  0  0
   25.9710  -20.2729  -17.0161 C   0  0  0  0  0  0  0  0  0  0  0  0
   26.9003  -20.4907  -15.8707 C   0  0  2  0  0  0  0  0  0  0  0  0
   27.8491  -21.5106  -16.1566 N   0  0  0  0  0  0  0  0  0  0  0  0
   26.0643  -20.9467  -14.6972 C   0  0  0  0  0  0  0  0  0  0  0  0
   25.7915  -22.1724  -14.5704 O   0  0  0  0  0  0  0  0  0  0  0  0
   30.7690  -21.6185  -11.0017 O   0  0  0  0  0  0  0  0  0  0  0  0
   29.4360  -21.2502  -11.0587 C   0  0  0  0  0  0  0  0  0  0  0  0
   29.0896  -20.1495  -11.8429 C   0  0  0  0  0  0  0  0  0  0  0  0
   27.7884  -19.7378  -11.9295 C   0  0  0  0  0  0  0  0  0  0  0  0
   26.8065  -20.4165  -11.2369 C   0  0  0  0  0  0  0  0  0  0  0  0
   25.4131  -19.9625  -11.3419 C   0  0  0  0  0  0  0  0  0  0  0  0
   24.7475  -20.4775  -12.6129 C   0  0  2  0  0  0  0  0  0  0  0  0
   25.5720  -20.0523  -13.7252 N   0  0  0  0  0  0  0  0  0  0  0  0
   23.3579  -20.0023  -12.7215 C   0  0  0  0  0  0  0  0  0  0  0  0
   23.0389  -18.7788  -12.7121 O   0  0  0  0  0  0  0  0  0  0  0  0
   27.1253  -21.5134  -10.4520 C   0  0  0  0  0  0  0  0  0  0  0  0
   28.4320  -21.9210  -10.3700 C   0  0  0  0  0  0  0  0  0  0  0  0
   22.2232  -20.8649  -12.8521 N   0  0  0  0  0  0  0  0  0  0  0  0
   20.8837  -20.4838  -13.0115 C   0  0  1  0  0  0  0  0  0  0  0  0
   20.5496  -19.5699  -14.1437 C   0  0  0  0  0  0  0  0  0  0  0  0
   20.9106  -20.2709  -15.4215 C   0  0  0  0  0  0  0  0  0  0  0  0
   22.2092  -20.6116  -15.8058 C   0  0  0  0  0  0  0  0  0  0  0  0
   22.1906  -21.2278  -16.9941 N   0  0  0  0  0  0  0  0  0  0  0  0
   20.9260  -21.2877  -17.3684 C   0  0  0  0  0  0  0  0  0  0  0  0
   20.1374  -20.7108  -16.4224 N   0  0  0  0  0  0  0  0  0  0  0  0
   20.0021  -21.6574  -13.0446 C   0  0  0  0  0  0  0  0  0  0  0  0
   20.4260  -22.8527  -12.9950 O   0  0  0  0  0  0  0  0  0  0  0  0
   18.6303  -21.4812  -13.1307 O   0  0  0  0  0  0  0  0  0  0  0  0
  1  2  1  0
  2  4  1  0
  2  3  2  0
  4  5  1  0
  6  7  1  6
  6  5  1  0
  8  6  1  0
  8  9  2  0
 10 11  1  0
 11 21  2  0
 11 12  1  0
 12 13  2  0
 13 14  1  0
 14 15  1  0
 16 15  1  1
 16 17  1  0
 17  8  1  0
 18 16  1  0
 19 18  2  0
 20 14  2  0
 21 20  1  0
 22 18  1  0
 23 22  1  0
 23 30  1  0
 23 24  1  6
 25 29  1  0
 25 24  1  0
 26 25  2  0
 27 26  1  0
 27 28  1  0
 28 29  2  0
 30 32  1  0
 31 30  2  0
M  END
$$$$
