QYH.pdb
     RDKit          3D

 32 33  0  0  1  0  0  0  0  0999 V2000
   21.8901  -14.9605  -16.0789 N   0  0  0  0  0  0  0  0  0  0  0  0
   22.9421  -14.7082  -17.0051 C   0  0  0  0  0  0  0  0  0  0  0  0
   23.7991  -13.8184  -16.7694 O   0  0  0  0  0  0  0  0  0  0  0  0
   23.0006  -15.5074  -18.2406 C   0  0  0  0  0  0  0  0  0  0  0  0
   23.0383  -16.9721  -18.0403 C   0  0  0  0  0  0  0  0  0  0  0  0
   24.2408  -17.5187  -17.3488 C   0  0  2  0  0  0  0  0  0  0  0  0
   25.3413  -17.6460  -18.2405 N   0  0  0  0  0  0  0  0  0  0  0  0
   23.8814  -18.8997  -16.8512 C   0  0  0  0  0  0  0  0  0  0  0  0
   23.8244  -19.8578  -17.6708 O   0  0  0  0  0  0  0  0  0  0  0  0
   29.2975  -21.8355  -16.6881 O   0  0  0  0  0  0  0  0  0  0  0  0
   28.1222  -21.5464  -16.0165 C   0  0  0  0  0  0  0  0  0  0  0  0
   27.1522  -22.5451  -15.9265 C   0  0  0  0  0  0  0  0  0  0  0  0
   25.9698  -22.3115  -15.2804 C   0  0  0  0  0  0  0  0  0  0  0  0
   25.7317  -21.0776  -14.7100 C   0  0  0  0  0  0  0  0  0  0  0  0
   24.4571  -20.8432  -14.0180 C   0  0  0  0  0  0  0  0  0  0  0  0
   23.3396  -20.5016  -14.9968 C   0  0  2  0  0  0  0  0  0  0  0  0
   23.6057  -19.1679  -15.4951 N   0  0  0  0  0  0  0  0  0  0  0  0
   22.0160  -20.6172  -14.3619 C   0  0  0  0  0  0  0  0  0  0  0  0
   21.6471  -19.9001  -13.3880 O   0  0  0  0  0  0  0  0  0  0  0  0
   26.6801  -20.0697  -14.7852 C   0  0  0  0  0  0  0  0  0  0  0  0
   27.8637  -20.3110  -15.4342 C   0  0  0  0  0  0  0  0  0  0  0  0
   21.0065  -21.5441  -14.7750 N   0  0  0  0  0  0  0  0  0  0  0  0
   19.7649  -21.7712  -14.1653 C   0  0  1  0  0  0  0  0  0  0  0  0
   18.7636  -22.5917  -14.9088 C   0  0  0  0  0  0  0  0  0  0  0  0
   18.2443  -21.7618  -16.0473 C   0  0  0  0  0  0  0  0  0  0  0  0
   18.5108  -20.4034  -16.2315 C   0  0  0  0  0  0  0  0  0  0  0  0
   17.9037  -19.9616  -17.3398 N   0  0  0  0  0  0  0  0  0  0  0  0
   17.2671  -20.9952  -17.8589 C   0  0  0  0  0  0  0  0  0  0  0  0
   17.4658  -22.0954  -17.0844 N   0  0  0  0  0  0  0  0  0  0  0  0
   19.9339  -22.3049  -12.8080 C   0  0  0  0  0  0  0  0  0  0  0  0
   20.7755  -23.2072  -12.5105 O   0  0  0  0  0  0  0  0  0  0  0  0
   19.1493  -21.8142  -11.7766 O   0  0  0  0  0  0  0  0  0  0  0  0
  1  2  1  0
  2  4  1  0
  2  3  2  0
  4  5  1  0
  6  7  1  6
  6  5  1  0
  8  6  1  0
  8  9  2  0
 10 11  1  0
 11 21  2  0
 11 12  1  0
 12 13  2  0
 13 14  1  0
 14 15  1  0
 16 15  1  1
 16 17  1  0
 17  8  1  0
 18 16  1  0
 19 18  2  0
 20 14  2  0
 21 20  1  0
 22 18  1  0
 23 22  1  0
 23 30  1  0
 23 24  1  6
 25 29  1  0
 25 24  1  0
 26 25  2  0
 27 26  1  0
 27 28  1  0
 28 29  2  0
 30 32  1  0
 31 30  2  0
M  END
$$$$
