QYH.pdb
     RDKit          3D

 32 33  0  0  1  0  0  0  0  0999 V2000
   20.7975  -11.7295  -20.8178 N   0  0  0  0  0  0  0  0  0  0  0  0
   21.8041  -12.3636  -21.6007 C   0  0  0  0  0  0  0  0  0  0  0  0
   21.6823  -13.5680  -21.9414 O   0  0  0  0  0  0  0  0  0  0  0  0
   22.9867  -11.5805  -21.9968 C   0  0  0  0  0  0  0  0  0  0  0  0
   22.9651  -10.1594  -21.5882 C   0  0  0  0  0  0  0  0  0  0  0  0
   23.9519   -9.7508  -20.5479 C   0  0  2  0  0  0  0  0  0  0  0  0
   24.9908  -10.7120  -20.4096 N   0  0  0  0  0  0  0  0  0  0  0  0
   23.2099   -9.6733  -19.2336 C   0  0  0  0  0  0  0  0  0  0  0  0
   23.1945  -10.6788  -18.4710 O   0  0  0  0  0  0  0  0  0  0  0  0
   21.2290   -8.0676  -11.2079 O   0  0  0  0  0  0  0  0  0  0  0  0
   21.6779   -8.2454  -12.5051 C   0  0  0  0  0  0  0  0  0  0  0  0
   22.1086   -7.1230  -13.2129 C   0  0  0  0  0  0  0  0  0  0  0  0
   22.5555   -7.2403  -14.5000 C   0  0  0  0  0  0  0  0  0  0  0  0
   22.5831   -8.4796  -15.1065 C   0  0  0  0  0  0  0  0  0  0  0  0
   23.0676   -8.5890  -16.4892 C   0  0  0  0  0  0  0  0  0  0  0  0
   21.9448   -8.3754  -17.4977 C   0  0  2  0  0  0  0  0  0  0  0  0
   22.5279   -8.5123  -18.8165 N   0  0  0  0  0  0  0  0  0  0  0  0
   21.2864   -7.0731  -17.3001 C   0  0  0  0  0  0  0  0  0  0  0  0
   21.9152   -6.0103  -17.0287 O   0  0  0  0  0  0  0  0  0  0  0  0
   22.1613   -9.6098  -14.4238 C   0  0  0  0  0  0  0  0  0  0  0  0
   21.7149   -9.4849  -13.1333 C   0  0  0  0  0  0  0  0  0  0  0  0
   19.8733   -6.8661  -17.3958 N   0  0  0  0  0  0  0  0  0  0  0  0
   19.0234   -6.3547  -16.4053 C   0  0  1  0  0  0  0  0  0  0  0  0
   18.7874   -7.1902  -15.1909 C   0  0  0  0  0  0  0  0  0  0  0  0
   18.0486   -8.4252  -15.6196 C   0  0  0  0  0  0  0  0  0  0  0  0
   17.7048   -8.7325  -16.9378 C   0  0  0  0  0  0  0  0  0  0  0  0
   17.0557   -9.9024  -16.9830 N   0  0  0  0  0  0  0  0  0  0  0  0
   16.9817  -10.3413  -15.7401 C   0  0  0  0  0  0  0  0  0  0  0  0
   17.5813   -9.4542  -14.9015 N   0  0  0  0  0  0  0  0  0  0  0  0
   19.4337   -5.0029  -16.0052 C   0  0  0  0  0  0  0  0  0  0  0  0
   20.4811   -4.4323  -16.4390 O   0  0  0  0  0  0  0  0  0  0  0  0
   18.6538   -4.2871  -15.1110 O   0  0  0  0  0  0  0  0  0  0  0  0
  1  2  1  0
  2  4  1  0
  2  3  2  0
  4  5  1  0
  6  7  1  1
  6  5  1  0
  8  6  1  0
  8  9  2  0
 10 11  1  0
 11 21  2  0
 11 12  1  0
 12 13  2  0
 13 14  1  0
 14 15  1  0
 16 15  1  1
 16 17  1  0
 17  8  1  0
 18 16  1  0
 19 18  2  0
 20 14  2  0
 21 20  1  0
 22 18  1  0
 23 22  1  0
 23 30  1  0
 23 24  1  1
 25 29  1  0
 25 24  1  0
 26 25  2  0
 27 26  1  0
 27 28  1  0
 28 29  2  0
 30 32  1  0
 31 30  2  0
M  END
$$$$
