QYH.pdb
     RDKit          3D

 32 33  0  0  1  0  0  0  0  0999 V2000
   25.6091  -21.8735  -20.7443 N   0  0  0  0  0  0  0  0  0  0  0  0
   26.8824  -22.4469  -21.0234 C   0  0  0  0  0  0  0  0  0  0  0  0
   27.3789  -22.3665  -22.1761 O   0  0  0  0  0  0  0  0  0  0  0  0
   27.5988  -23.1359  -19.9368 C   0  0  0  0  0  0  0  0  0  0  0  0
   26.9593  -23.0457  -18.6064 C   0  0  0  0  0  0  0  0  0  0  0  0
   27.2454  -21.8168  -17.8121 C   0  0  2  0  0  0  0  0  0  0  0  0
   28.6375  -21.6721  -17.5602 N   0  0  0  0  0  0  0  0  0  0  0  0
   26.5441  -21.9706  -16.4822 C   0  0  0  0  0  0  0  0  0  0  0  0
   25.6163  -22.8182  -16.3658 O   0  0  0  0  0  0  0  0  0  0  0  0
   24.2552  -20.2466   -8.1453 O   0  0  0  0  0  0  0  0  0  0  0  0
   24.9478  -20.3795   -9.3363 C   0  0  0  0  0  0  0  0  0  0  0  0
   24.9077  -19.3203  -10.2434 C   0  0  0  0  0  0  0  0  0  0  0  0
   25.5681  -19.4010  -11.4382 C   0  0  0  0  0  0  0  0  0  0  0  0
   26.2829  -20.5391  -11.7515 C   0  0  0  0  0  0  0  0  0  0  0  0
   26.9883  -20.6094  -13.0384 C   0  0  0  0  0  0  0  0  0  0  0  0
   26.1113  -21.2137  -14.1289 C   0  0  2  0  0  0  0  0  0  0  0  0
   26.8867  -21.2008  -15.3522 N   0  0  0  0  0  0  0  0  0  0  0  0
   24.8366  -20.4874  -14.2565 C   0  0  0  0  0  0  0  0  0  0  0  0
   24.7630  -19.2555  -14.5314 O   0  0  0  0  0  0  0  0  0  0  0  0
   26.3386  -21.6044  -10.8666 C   0  0  0  0  0  0  0  0  0  0  0  0
   25.6744  -21.5165   -9.6702 C   0  0  0  0  0  0  0  0  0  0  0  0
   23.5495  -21.0907  -14.0885 N   0  0  0  0  0  0  0  0  0  0  0  0
   22.3013  -20.4573  -14.1632 C   0  0  1  0  0  0  0  0  0  0  0  0
   21.6776  -20.3039  -15.5108 C   0  0  0  0  0  0  0  0  0  0  0  0
   20.4678  -19.4274  -15.3599 C   0  0  0  0  0  0  0  0  0  0  0  0
   20.0326  -18.8676  -14.1568 C   0  0  0  0  0  0  0  0  0  0  0  0
   18.9293  -18.1378  -14.3615 N   0  0  0  0  0  0  0  0  0  0  0  0
   18.6575  -18.2180  -15.6509 C   0  0  0  0  0  0  0  0  0  0  0  0
   19.5843  -18.9977  -16.2697 N   0  0  0  0  0  0  0  0  0  0  0  0
   21.3410  -21.0741  -13.2395 C   0  0  0  0  0  0  0  0  0  0  0  0
   20.2436  -20.5310  -12.9053 O   0  0  0  0  0  0  0  0  0  0  0  0
   21.6193  -22.3157  -12.6908 O   0  0  0  0  0  0  0  0  0  0  0  0
  1  2  1  0
  2  4  1  0
  2  3  2  0
  4  5  1  0
  6  7  1  1
  6  5  1  0
  8  6  1  0
  8  9  2  0
 10 11  1  0
 11 21  2  0
 11 12  1  0
 12 13  2  0
 13 14  1  0
 14 15  1  0
 16 15  1  1
 16 17  1  0
 17  8  1  0
 18 16  1  0
 19 18  2  0
 20 14  2  0
 21 20  1  0
 22 18  1  0
 23 22  1  0
 23 30  1  0
 23 24  1  6
 25 29  1  0
 25 24  1  0
 26 25  2  0
 27 26  1  0
 27 28  1  0
 28 29  2  0
 30 32  1  0
 31 30  2  0
M  END
$$$$
