QYH.pdb
     RDKit          3D

 32 33  0  0  1  0  0  0  0  0999 V2000
   26.4551  -21.1159  -20.0114 N   0  0  0  0  0  0  0  0  0  0  0  0
   27.6519  -21.5387  -20.6574 C   0  0  0  0  0  0  0  0  0  0  0  0
   27.6518  -21.8099  -21.8854 O   0  0  0  0  0  0  0  0  0  0  0  0
   28.8825  -21.6536  -19.8566 C   0  0  0  0  0  0  0  0  0  0  0  0
   28.7775  -21.1555  -18.4681 C   0  0  0  0  0  0  0  0  0  0  0  0
   29.0383  -22.1455  -17.3842 C   0  0  2  0  0  0  0  0  0  0  0  0
   28.9329  -23.4807  -17.8623 N   0  0  0  0  0  0  0  0  0  0  0  0
   27.9763  -21.9428  -16.3283 C   0  0  0  0  0  0  0  0  0  0  0  0
   26.8637  -22.5262  -16.4491 O   0  0  0  0  0  0  0  0  0  0  0  0
   24.5606  -20.0457   -8.4581 O   0  0  0  0  0  0  0  0  0  0  0  0
   25.3850  -20.0813   -9.5693 C   0  0  0  0  0  0  0  0  0  0  0  0
   25.8467  -21.3227  -10.0076 C   0  0  0  0  0  0  0  0  0  0  0  0
   26.6694  -21.4153  -11.0960 C   0  0  0  0  0  0  0  0  0  0  0  0
   27.0469  -20.2718  -11.7700 C   0  0  0  0  0  0  0  0  0  0  0  0
   27.9298  -20.3885  -12.9386 C   0  0  0  0  0  0  0  0  0  0  0  0
   27.2078  -21.0069  -14.1301 C   0  0  2  0  0  0  0  0  0  0  0  0
   28.1775  -21.1223  -15.1999 N   0  0  0  0  0  0  0  0  0  0  0  0
   26.0292  -20.2124  -14.5150 C   0  0  0  0  0  0  0  0  0  0  0  0
   26.1028  -19.1271  -15.1595 O   0  0  0  0  0  0  0  0  0  0  0  0
   26.6007  -19.0270  -11.3546 C   0  0  0  0  0  0  0  0  0  0  0  0
   25.7756  -18.9416  -10.2627 C   0  0  0  0  0  0  0  0  0  0  0  0
   24.6800  -20.5786  -14.2080 N   0  0  0  0  0  0  0  0  0  0  0  0
   23.5152  -19.8702  -14.5340 C   0  0  1  0  0  0  0  0  0  0  0  0
   23.0251  -19.9459  -15.9420 C   0  0  0  0  0  0  0  0  0  0  0  0
   21.8652  -19.0017  -16.0759 C   0  0  0  0  0  0  0  0  0  0  0  0
   21.4070  -18.1520  -15.0669 C   0  0  0  0  0  0  0  0  0  0  0  0
   20.3616  -17.4397  -15.5048 N   0  0  0  0  0  0  0  0  0  0  0  0
   20.1486  -17.8109  -16.7537 C   0  0  0  0  0  0  0  0  0  0  0  0
   21.0550  -18.7588  -17.1139 N   0  0  0  0  0  0  0  0  0  0  0  0
   22.4224  -20.1988  -13.6101 C   0  0  0  0  0  0  0  0  0  0  0  0
   22.4096  -21.2391  -12.8831 O   0  0  0  0  0  0  0  0  0  0  0  0
   21.3365  -19.3448  -13.5025 O   0  0  0  0  0  0  0  0  0  0  0  0
  1  2  1  0
  2  4  1  0
  2  3  2  0
  4  5  1  0
  6  7  1  6
  6  5  1  0
  8  6  1  0
  8  9  2  0
 10 11  1  0
 11 21  2  0
 11 12  1  0
 12 13  2  0
 13 14  1  0
 14 15  1  0
 16 15  1  1
 16 17  1  0
 17  8  1  0
 18 16  1  0
 19 18  2  0
 20 14  2  0
 21 20  1  0
 22 18  1  0
 23 22  1  0
 23 30  1  0
 23 24  1  6
 25 29  1  0
 25 24  1  0
 26 25  2  0
 27 26  1  0
 27 28  1  0
 28 29  2  0
 30 32  1  0
 31 30  2  0
M  END
$$$$
