QYH.pdb
     RDKit          3D

 32 33  0  0  1  0  0  0  0  0999 V2000
   29.0762  -16.9835  -18.3610 N   0  0  0  0  0  0  0  0  0  0  0  0
   28.9868  -17.2759  -19.7520 C   0  0  0  0  0  0  0  0  0  0  0  0
   29.6069  -16.5746  -20.5918 O   0  0  0  0  0  0  0  0  0  0  0  0
   28.1526  -18.4108  -20.1817 C   0  0  0  0  0  0  0  0  0  0  0  0
   27.5568  -19.2036  -19.0846 C   0  0  0  0  0  0  0  0  0  0  0  0
   28.5082  -19.9289  -18.1947 C   0  0  2  0  0  0  0  0  0  0  0  0
   29.1141  -21.0270  -18.8651 N   0  0  0  0  0  0  0  0  0  0  0  0
   27.7079  -20.4745  -17.0346 C   0  0  0  0  0  0  0  0  0  0  0  0
   26.9217  -21.4431  -17.2258 O   0  0  0  0  0  0  0  0  0  0  0  0
   24.2433  -20.8942   -8.9353 O   0  0  0  0  0  0  0  0  0  0  0  0
   25.0744  -20.6620  -10.0175 C   0  0  0  0  0  0  0  0  0  0  0  0
   24.9228  -19.4662  -10.7200 C   0  0  0  0  0  0  0  0  0  0  0  0
   25.7125  -19.1885  -11.8013 C   0  0  0  0  0  0  0  0  0  0  0  0
   26.6704  -20.0973  -12.2027 C   0  0  0  0  0  0  0  0  0  0  0  0
   27.5119  -19.7833  -13.3654 C   0  0  0  0  0  0  0  0  0  0  0  0
   26.9217  -20.3420  -14.6549 C   0  0  2  0  0  0  0  0  0  0  0  0
   27.8040  -19.9436  -15.7323 N   0  0  0  0  0  0  0  0  0  0  0  0
   25.5371  -19.8820  -14.8549 C   0  0  0  0  0  0  0  0  0  0  0  0
   25.2394  -18.7019  -15.1977 O   0  0  0  0  0  0  0  0  0  0  0  0
   26.8409  -21.2918  -11.5206 C   0  0  0  0  0  0  0  0  0  0  0  0
   26.0457  -21.5635  -10.4370 C   0  0  0  0  0  0  0  0  0  0  0  0
   24.3839  -20.7132  -14.6883 N   0  0  0  0  0  0  0  0  0  0  0  0
   23.0413  -20.3382  -14.8357 C   0  0  1  0  0  0  0  0  0  0  0  0
   22.3268  -20.7782  -16.0704 C   0  0  0  0  0  0  0  0  0  0  0  0
   20.9733  -20.1280  -16.0741 C   0  0  0  0  0  0  0  0  0  0  0  0
   20.1265  -20.0410  -14.9671 C   0  0  0  0  0  0  0  0  0  0  0  0
   18.9987  -19.4012  -15.2998 N   0  0  0  0  0  0  0  0  0  0  0  0
   19.1085  -19.0817  -16.5761 C   0  0  0  0  0  0  0  0  0  0  0  0
   20.3032  -19.5165  -17.0590 N   0  0  0  0  0  0  0  0  0  0  0  0
   22.2575  -20.7080  -13.6506 C   0  0  0  0  0  0  0  0  0  0  0  0
   22.2659  -21.8703  -13.1408 O   0  0  0  0  0  0  0  0  0  0  0  0
   21.4601  -19.7578  -13.0330 O   0  0  0  0  0  0  0  0  0  0  0  0
  1  2  1  0
  2  4  1  0
  2  3  2  0
  4  5  1  0
  6  7  1  6
  6  5  1  0
  8  6  1  0
  8  9  2  0
 10 11  1  0
 11 21  2  0
 11 12  1  0
 12 13  2  0
 13 14  1  0
 14 15  1  0
 16 15  1  1
 16 17  1  0
 17  8  1  0
 18 16  1  0
 19 18  2  0
 20 14  2  0
 21 20  1  0
 22 18  1  0
 23 22  1  0
 23 30  1  0
 23 24  1  6
 25 29  1  0
 25 24  1  0
 26 25  2  0
 27 26  1  0
 27 28  1  0
 28 29  2  0
 30 32  1  0
 31 30  2  0
M  END
$$$$
