QYH.pdb
     RDKit          3D

 32 33  0  0  1  0  0  0  0  0999 V2000
   23.8444  -18.9844  -17.9286 N   0  0  0  0  0  0  0  0  0  0  0  0
   24.2060  -19.5218  -19.1969 C   0  0  0  0  0  0  0  0  0  0  0  0
   24.1291  -18.8148  -20.2341 O   0  0  0  0  0  0  0  0  0  0  0  0
   24.6663  -20.9189  -19.2653 C   0  0  0  0  0  0  0  0  0  0  0  0
   24.7037  -21.6323  -17.9704 C   0  0  0  0  0  0  0  0  0  0  0  0
   26.0541  -21.9275  -17.4117 C   0  0  2  0  0  0  0  0  0  0  0  0
   26.6214  -23.0880  -18.0066 N   0  0  0  0  0  0  0  0  0  0  0  0
   25.8778  -22.1987  -15.9355 C   0  0  0  0  0  0  0  0  0  0  0  0
   25.5594  -23.3584  -15.5526 O   0  0  0  0  0  0  0  0  0  0  0  0
   25.4925  -20.5210   -7.2925 O   0  0  0  0  0  0  0  0  0  0  0  0
   25.8247  -20.4934   -8.6359 C   0  0  0  0  0  0  0  0  0  0  0  0
   24.8156  -20.2161   -9.5585 C   0  0  0  0  0  0  0  0  0  0  0  0
   25.0867  -20.1832  -10.8985 C   0  0  0  0  0  0  0  0  0  0  0  0
   26.3700  -20.4249  -11.3450 C   0  0  0  0  0  0  0  0  0  0  0  0
   26.6452  -20.3841  -12.7877 C   0  0  0  0  0  0  0  0  0  0  0  0
   25.8488  -21.4420  -13.5427 C   0  0  2  0  0  0  0  0  0  0  0  0
   26.0576  -21.2013  -14.9557 N   0  0  0  0  0  0  0  0  0  0  0  0
   24.4256  -21.4130  -13.1658 C   0  0  0  0  0  0  0  0  0  0  0  0
   24.0242  -21.3956  -11.9669 O   0  0  0  0  0  0  0  0  0  0  0  0
   27.3897  -20.7017  -10.4480 C   0  0  0  0  0  0  0  0  0  0  0  0
   27.1108  -20.7327   -9.1058 C   0  0  0  0  0  0  0  0  0  0  0  0
   23.3469  -21.3980  -14.1066 N   0  0  0  0  0  0  0  0  0  0  0  0
   22.0031  -21.0932  -13.8493 C   0  0  1  0  0  0  0  0  0  0  0  0
   21.6999  -19.7956  -13.1763 C   0  0  0  0  0  0  0  0  0  0  0  0
   20.2210  -19.7452  -12.9211 C   0  0  0  0  0  0  0  0  0  0  0  0
   19.4654  -20.7955  -12.3954 C   0  0  0  0  0  0  0  0  0  0  0  0
   18.1819  -20.4305  -12.2890 N   0  0  0  0  0  0  0  0  0  0  0  0
   18.1054  -19.1876  -12.7276 C   0  0  0  0  0  0  0  0  0  0  0  0
   19.3367  -18.7585  -13.1142 N   0  0  0  0  0  0  0  0  0  0  0  0
   21.1909  -21.2228  -15.0655 C   0  0  0  0  0  0  0  0  0  0  0  0
   21.6855  -21.3157  -16.2307 O   0  0  0  0  0  0  0  0  0  0  0  0
   19.8091  -21.2517  -14.9663 O   0  0  0  0  0  0  0  0  0  0  0  0
  1  2  1  0
  2  4  1  0
  2  3  2  0
  4  5  1  0
  6  7  1  6
  6  5  1  0
  8  6  1  0
  8  9  2  0
 10 11  1  0
 11 21  2  0
 11 12  1  0
 12 13  2  0
 13 14  1  0
 14 15  1  0
 16 15  1  1
 16 17  1  0
 17  8  1  0
 18 16  1  0
 19 18  2  0
 20 14  2  0
 21 20  1  0
 22 18  1  0
 23 22  1  0
 23 30  1  0
 23 24  1  6
 25 29  1  0
 25 24  1  0
 26 25  2  0
 27 26  1  0
 27 28  1  0
 28 29  2  0
 30 32  1  0
 31 30  2  0
M  END
$$$$
