QYH.pdb
     RDKit          3D

 32 33  0  0  1  0  0  0  0  0999 V2000
   39.7888  -29.3612  -20.3178 N   0  0  0  0  0  0  0  0  0  0  0  0
   40.4173  -28.2368  -19.7105 C   0  0  0  0  0  0  0  0  0  0  0  0
   40.8594  -27.2950  -20.4170 O   0  0  0  0  0  0  0  0  0  0  0  0
   40.5396  -28.2046  -18.2433 C   0  0  0  0  0  0  0  0  0  0  0  0
   39.9086  -29.3393  -17.5351 C   0  0  0  0  0  0  0  0  0  0  0  0
   38.4181  -29.3604  -17.5067 C   0  0  2  0  0  0  0  0  0  0  0  0
   37.8968  -28.2865  -16.7338 N   0  0  0  0  0  0  0  0  0  0  0  0
   38.0017  -30.6550  -16.8475 C   0  0  0  0  0  0  0  0  0  0  0  0
   38.3653  -31.7525  -17.3535 O   0  0  0  0  0  0  0  0  0  0  0  0
   35.5955  -36.6134  -10.9744 O   0  0  0  0  0  0  0  0  0  0  0  0
   36.0092  -35.4717  -11.6385 C   0  0  0  0  0  0  0  0  0  0  0  0
   35.2244  -34.3237  -11.5267 C   0  0  0  0  0  0  0  0  0  0  0  0
   35.5825  -33.1699  -12.1675 C   0  0  0  0  0  0  0  0  0  0  0  0
   36.7312  -33.1377  -12.9317 C   0  0  0  0  0  0  0  0  0  0  0  0
   37.1029  -31.8899  -13.6125 C   0  0  0  0  0  0  0  0  0  0  0  0
   36.7355  -31.9246  -15.0915 C   0  0  2  0  0  0  0  0  0  0  0  0
   37.2172  -30.6903  -15.6768 N   0  0  0  0  0  0  0  0  0  0  0  0
   35.2877  -32.1158  -15.2805 C   0  0  0  0  0  0  0  0  0  0  0  0
   34.5178  -31.2113  -15.7139 O   0  0  0  0  0  0  0  0  0  0  0  0
   37.5279  -34.2649  -13.0576 C   0  0  0  0  0  0  0  0  0  0  0  0
   37.1630  -35.4182  -12.4118 C   0  0  0  0  0  0  0  0  0  0  0  0
   34.5968  -33.3377  -15.0003 N   0  0  0  0  0  0  0  0  0  0  0  0
   33.2210  -33.5788  -15.1184 C   0  0  1  0  0  0  0  0  0  0  0  0
   32.2916  -32.4309  -14.9009 C   0  0  0  0  0  0  0  0  0  0  0  0
   30.8886  -32.9655  -14.9223 C   0  0  0  0  0  0  0  0  0  0  0  0
   30.5500  -34.3134  -15.0601 C   0  0  0  0  0  0  0  0  0  0  0  0
   29.2193  -34.4579  -15.0383 N   0  0  0  0  0  0  0  0  0  0  0  0
   28.7108  -33.2486  -14.8896 C   0  0  0  0  0  0  0  0  0  0  0  0
   29.7134  -32.3326  -14.8172 N   0  0  0  0  0  0  0  0  0  0  0  0
   32.9084  -34.2353  -16.3939 C   0  0  0  0  0  0  0  0  0  0  0  0
   31.7250  -34.4638  -16.7919 O   0  0  0  0  0  0  0  0  0  0  0  0
   33.9393  -34.6342  -17.2295 O   0  0  0  0  0  0  0  0  0  0  0  0
  1  2  1  0
  2  4  1  0
  2  3  2  0
  4  5  1  0
  6  7  1  1
  6  5  1  0
  8  6  1  0
  8  9  2  0
 10 11  1  0
 11 21  2  0
 11 12  1  0
 12 13  2  0
 13 14  1  0
 14 15  1  0
 16 15  1  1
 16 17  1  0
 17  8  1  0
 18 16  1  0
 19 18  2  0
 20 14  2  0
 21 20  1  0
 22 18  1  0
 23 22  1  0
 23 30  1  0
 23 24  1  6
 25 29  1  0
 25 24  1  0
 26 25  2  0
 27 26  1  0
 27 28  1  0
 28 29  2  0
 30 32  1  0
 31 30  2  0
M  END
$$$$
