QYH.pdb
     RDKit          3D

 32 33  0  0  1  0  0  0  0  0999 V2000
   29.9841  -20.7873  -18.6453 N   0  0  0  0  0  0  0  0  0  0  0  0
   28.9433  -20.8661  -19.6142 C   0  0  0  0  0  0  0  0  0  0  0  0
   29.2163  -20.9064  -20.8411 O   0  0  0  0  0  0  0  0  0  0  0  0
   27.5467  -20.8955  -19.1479 C   0  0  0  0  0  0  0  0  0  0  0  0
   27.3704  -20.7798  -17.6841 C   0  0  0  0  0  0  0  0  0  0  0  0
   27.6299  -22.0102  -16.8830 C   0  0  2  0  0  0  0  0  0  0  0  0
   27.2498  -23.1829  -17.5920 N   0  0  0  0  0  0  0  0  0  0  0  0
   26.7781  -21.9210  -15.6379 C   0  0  0  0  0  0  0  0  0  0  0  0
   25.6573  -22.5005  -15.6116 O   0  0  0  0  0  0  0  0  0  0  0  0
   24.5777  -20.3200   -7.2626 O   0  0  0  0  0  0  0  0  0  0  0  0
   25.2480  -20.4379   -8.4678 C   0  0  0  0  0  0  0  0  0  0  0  0
   25.5339  -19.2725   -9.1794 C   0  0  0  0  0  0  0  0  0  0  0  0
   26.1879  -19.3314  -10.3789 C   0  0  0  0  0  0  0  0  0  0  0  0
   26.5712  -20.5539  -10.8921 C   0  0  0  0  0  0  0  0  0  0  0  0
   27.2745  -20.6000  -12.1812 C   0  0  0  0  0  0  0  0  0  0  0  0
   26.3714  -21.1121  -13.2972 C   0  0  2  0  0  0  0  0  0  0  0  0
   27.1868  -21.2121  -14.4901 N   0  0  0  0  0  0  0  0  0  0  0  0
   25.1992  -20.2400  -13.4819 C   0  0  0  0  0  0  0  0  0  0  0  0
   25.1907  -19.2420  -14.2581 O   0  0  0  0  0  0  0  0  0  0  0  0
   26.2994  -21.7257  -10.2036 C   0  0  0  0  0  0  0  0  0  0  0  0
   25.6437  -21.6591   -9.0011 C   0  0  0  0  0  0  0  0  0  0  0  0
   23.9481  -20.4253  -12.8115 N   0  0  0  0  0  0  0  0  0  0  0  0
   22.6703  -20.1317  -13.3071 C   0  0  1  0  0  0  0  0  0  0  0  0
   22.1764  -20.9235  -14.4724 C   0  0  0  0  0  0  0  0  0  0  0  0
   22.5411  -20.1765  -15.7228 C   0  0  0  0  0  0  0  0  0  0  0  0
   23.2283  -18.9612  -15.7550 C   0  0  0  0  0  0  0  0  0  0  0  0
   23.3982  -18.5622  -17.0215 N   0  0  0  0  0  0  0  0  0  0  0  0
   22.8435  -19.4850  -17.7855 C   0  0  0  0  0  0  0  0  0  0  0  0
   22.3196  -20.4717  -17.0100 N   0  0  0  0  0  0  0  0  0  0  0  0
   21.6701  -20.1542  -12.2325 C   0  0  0  0  0  0  0  0  0  0  0  0
   21.6670  -21.0121  -11.2971 O   0  0  0  0  0  0  0  0  0  0  0  0
   20.6669  -19.1985  -12.2106 O   0  0  0  0  0  0  0  0  0  0  0  0
  1  2  1  0
  2  4  1  0
  2  3  2  0
  4  5  1  0
  6  7  1  6
  6  5  1  0
  8  6  1  0
  8  9  2  0
 10 11  1  0
 11 21  2  0
 11 12  1  0
 12 13  2  0
 13 14  1  0
 14 15  1  0
 16 15  1  1
 16 17  1  0
 17  8  1  0
 18 16  1  0
 19 18  2  0
 20 14  2  0
 21 20  1  0
 22 18  1  0
 23 22  1  0
 23 30  1  0
 23 24  1  6
 25 29  1  0
 25 24  1  0
 26 25  2  0
 27 26  1  0
 27 28  1  0
 28 29  2  0
 30 32  1  0
 31 30  2  0
M  END
$$$$
