QYH.pdb
     RDKit          3D

 32 33  0  0  1  0  0  0  0  0999 V2000
   26.8459  -16.9896  -15.9466 N   0  0  0  0  0  0  0  0  0  0  0  0
   27.0922  -16.9047  -17.3467 C   0  0  0  0  0  0  0  0  0  0  0  0
   28.2336  -16.5966  -17.7756 O   0  0  0  0  0  0  0  0  0  0  0  0
   25.9836  -17.1815  -18.2757 C   0  0  0  0  0  0  0  0  0  0  0  0
   25.0257  -18.2126  -17.8215 C   0  0  0  0  0  0  0  0  0  0  0  0
   25.5402  -19.6096  -17.7403 C   0  0  2  0  0  0  0  0  0  0  0  0
   25.5276  -20.2439  -19.0130 N   0  0  0  0  0  0  0  0  0  0  0  0
   24.6109  -20.3761  -16.8277 C   0  0  0  0  0  0  0  0  0  0  0  0
   23.5614  -20.8909  -17.3034 O   0  0  0  0  0  0  0  0  0  0  0  0
   27.1390  -26.2623  -16.7822 O   0  0  0  0  0  0  0  0  0  0  0  0
   26.5286  -25.2861  -16.0139 C   0  0  0  0  0  0  0  0  0  0  0  0
   27.1044  -24.0157  -15.9838 C   0  0  0  0  0  0  0  0  0  0  0  0
   26.5469  -23.0158  -15.2358 C   0  0  0  0  0  0  0  0  0  0  0  0
   25.4032  -23.2625  -14.5040 C   0  0  0  0  0  0  0  0  0  0  0  0
   24.8157  -22.1771  -13.7069 C   0  0  0  0  0  0  0  0  0  0  0  0
   23.9657  -21.2460  -14.5637 C   0  0  2  0  0  0  0  0  0  0  0  0
   24.8695  -20.5449  -15.4523 N   0  0  0  0  0  0  0  0  0  0  0  0
   23.1649  -20.3325  -13.7315 C   0  0  0  0  0  0  0  0  0  0  0  0
   23.6639  -19.3783  -13.0687 O   0  0  0  0  0  0  0  0  0  0  0  0
   24.8119  -24.5160  -14.5184 C   0  0  0  0  0  0  0  0  0  0  0  0
   25.3761  -25.5139  -15.2709 C   0  0  0  0  0  0  0  0  0  0  0  0
   21.7438  -20.4199  -13.5838 N   0  0  0  0  0  0  0  0  0  0  0  0
   20.8242  -19.3622  -13.6005 C   0  0  1  0  0  0  0  0  0  0  0  0
   21.0059  -18.2974  -14.6310 C   0  0  0  0  0  0  0  0  0  0  0  0
   19.9646  -17.2427  -14.3901 C   0  0  0  0  0  0  0  0  0  0  0  0
   19.2647  -17.0704  -13.1940 C   0  0  0  0  0  0  0  0  0  0  0  0
   18.4125  -16.0439  -13.3035 N   0  0  0  0  0  0  0  0  0  0  0  0
   18.5541  -15.5645  -14.5255 C   0  0  0  0  0  0  0  0  0  0  0  0
   19.4941  -16.2828  -15.1964 N   0  0  0  0  0  0  0  0  0  0  0  0
   19.4448  -19.8636  -13.6433 C   0  0  0  0  0  0  0  0  0  0  0  0
   18.5743  -19.5934  -12.7600 O   0  0  0  0  0  0  0  0  0  0  0  0
   19.0429  -20.6737  -14.6932 O   0  0  0  0  0  0  0  0  0  0  0  0
  1  2  1  0
  2  4  1  0
  2  3  2  0
  4  5  1  0
  6  7  1  6
  6  5  1  0
  8  6  1  0
  8  9  2  0
 10 11  1  0
 11 21  2  0
 11 12  1  0
 12 13  2  0
 13 14  1  0
 14 15  1  0
 16 15  1  1
 16 17  1  0
 17  8  1  0
 18 16  1  0
 19 18  2  0
 20 14  2  0
 21 20  1  0
 22 18  1  0
 23 22  1  0
 23 30  1  0
 23 24  1  6
 25 29  1  0
 25 24  1  0
 26 25  2  0
 27 26  1  0
 27 28  1  0
 28 29  2  0
 30 32  1  0
 31 30  2  0
M  END
$$$$
