VTD.pdb
     RDKit          3D

 23 22  0  0  1  0  0  0  0  0999 V2000
   16.0690  -10.4811  -15.4391 C   0  0  0  0  0  0  0  0  0  0  0  0
   16.8807  -10.8479  -16.6445 C   0  0  2  0  0  0  0  0  0  0  0  0
   16.0461  -11.7839  -17.4935 C   0  0  0  0  0  0  0  0  0  0  0  0
   18.2076  -11.4483  -16.3420 C   0  0  2  0  0  0  0  0  0  0  0  0
   18.0158  -12.8105  -15.9034 N   0  0  0  0  0  0  0  0  0  0  0  0
   19.0381  -10.7286  -15.3953 C   0  0  0  0  0  0  0  0  0  0  0  0
   18.9391  -10.7892  -14.1411 O   0  0  0  0  0  0  0  0  0  0  0  0
   22.6203  -10.9329  -14.6106 C   0  0  0  0  0  0  0  0  0  0  0  0
   22.3523   -9.5281  -15.0588 C   0  0  1  0  0  0  0  0  0  0  0  0
   22.8704   -9.3388  -16.3398 O   0  0  0  0  0  0  0  0  0  0  0  0
   20.9197   -9.1268  -14.9491 C   0  0  2  0  0  0  0  0  0  0  0  0
   20.0624   -9.8711  -15.8818 N   0  0  0  0  0  0  0  0  0  0  0  0
   20.8287   -7.6584  -15.2481 C   0  0  0  0  0  0  0  0  0  0  0  0
   20.1911   -7.2807  -16.2479 O   0  0  0  0  0  0  0  0  0  0  0  0
   21.4650   -6.7187  -14.3962 N   0  0  0  0  0  0  0  0  0  0  0  0
   21.4290   -5.2605  -14.6918 C   0  0  1  0  0  0  0  0  0  0  0  0
   19.9819   -4.8701  -14.5249 C   0  0  0  0  0  0  0  0  0  0  0  0
   19.6911   -3.4528  -14.6639 C   0  0  0  0  0  0  0  0  0  0  0  0
   20.5260   -2.6372  -15.0978 O   0  0  0  0  0  0  0  0  0  0  0  0
   22.2918   -4.5729  -13.6737 C   0  0  0  0  0  0  0  0  0  0  0  0
   22.5427   -3.3561  -13.7284 O   0  0  0  0  0  0  0  0  0  0  0  0
   18.4422   -2.9074  -14.3158 O   0  0  0  0  0  0  0  0  0  0  0  0
   22.8551   -5.2914  -12.6062 O   0  0  0  0  0  0  0  0  0  0  0  0
  2  1  1  1
  2  3  1  0
  2  4  1  0
  4  6  1  0
  4  5  1  1
  6  7  2  0
  9 10  1  0
  9  8  1  6
 11  9  1  0
 12  6  1  0
 11 12  1  6
 13 14  2  0
 13 11  1  0
 15 13  1  0
 16 17  1  1
 16 15  1  0
 17 18  1  0
 18 19  2  0
 18 22  1  0
 20 16  1  0
 21 20  2  0
 23 20  1  0
M  END
$$$$
