VTD.pdb
     RDKit          3D

 23 22  0  0  1  0  0  0  0  0999 V2000
   18.7586  -13.3816  -16.1961 C   0  0  0  0  0  0  0  0  0  0  0  0
   17.5237  -12.6171  -15.8260 C   0  0  2  0  0  0  0  0  0  0  0  0
   16.3982  -13.1031  -16.7152 C   0  0  0  0  0  0  0  0  0  0  0  0
   17.6604  -11.1380  -15.9052 C   0  0  2  0  0  0  0  0  0  0  0  0
   17.7826  -10.7530  -17.2914 N   0  0  0  0  0  0  0  0  0  0  0  0
   18.7316  -10.5487  -15.1245 C   0  0  0  0  0  0  0  0  0  0  0  0
   18.8531  -10.6260  -13.8733 O   0  0  0  0  0  0  0  0  0  0  0  0
   22.4347  -11.1216  -14.9729 C   0  0  0  0  0  0  0  0  0  0  0  0
   22.1795   -9.7158  -15.4252 C   0  0  1  0  0  0  0  0  0  0  0  0
   22.4115   -9.6161  -16.7967 O   0  0  0  0  0  0  0  0  0  0  0  0
   20.8415   -9.1910  -15.0252 C   0  0  2  0  0  0  0  0  0  0  0  0
   19.7511   -9.8131  -15.7885 N   0  0  0  0  0  0  0  0  0  0  0  0
   20.8382   -7.7088  -15.2642 C   0  0  0  0  0  0  0  0  0  0  0  0
   20.3078   -7.2616  -16.2973 O   0  0  0  0  0  0  0  0  0  0  0  0
   21.4347   -6.8349  -14.3185 N   0  0  0  0  0  0  0  0  0  0  0  0
   21.4889   -5.3660  -14.5517 C   0  0  1  0  0  0  0  0  0  0  0  0
   20.0505   -4.9157  -14.5027 C   0  0  0  0  0  0  0  0  0  0  0  0
   19.8359   -3.4806  -14.5876 C   0  0  0  0  0  0  0  0  0  0  0  0
   20.6173   -2.7210  -15.1899 O   0  0  0  0  0  0  0  0  0  0  0  0
   22.2801   -4.7605  -13.4287 C   0  0  0  0  0  0  0  0  0  0  0  0
   22.5113   -3.5403  -13.3614 O   0  0  0  0  0  0  0  0  0  0  0  0
   18.7265   -2.8533  -13.9923 O   0  0  0  0  0  0  0  0  0  0  0  0
   22.7953   -5.5636  -12.3980 O   0  0  0  0  0  0  0  0  0  0  0  0
  2  1  1  6
  2  3  1  0
  2  4  1  0
  4  6  1  0
  4  5  1  6
  6  7  2  0
  9 10  1  0
  9  8  1  6
 11  9  1  0
 12  6  1  0
 11 12  1  6
 13 14  2  0
 13 11  1  0
 15 13  1  0
 16 17  1  1
 16 15  1  0
 17 18  1  0
 18 19  2  0
 18 22  1  0
 20 16  1  0
 21 20  2  0
 23 20  1  0
M  END
$$$$
