VTD.pdb
     RDKit          3D

 23 22  0  0  1  0  0  0  0  0999 V2000
   18.0579  -13.4349  -18.4854 C   0  0  0  0  0  0  0  0  0  0  0  0
   19.3780  -13.8173  -17.8877 C   0  0  2  0  0  0  0  0  0  0  0  0
   19.2306  -15.2034  -17.2956 C   0  0  0  0  0  0  0  0  0  0  0  0
   19.9029  -12.8620  -16.8755 C   0  0  2  0  0  0  0  0  0  0  0  0
   19.0906  -12.9486  -15.6850 N   0  0  0  0  0  0  0  0  0  0  0  0
   20.0266  -11.4802  -17.2991 C   0  0  0  0  0  0  0  0  0  0  0  0
   20.7467  -11.0667  -18.2461 O   0  0  0  0  0  0  0  0  0  0  0  0
   17.7562   -9.2785  -19.0075 C   0  0  0  0  0  0  0  0  0  0  0  0
   18.0357   -8.6487  -17.6766 C   0  0  1  0  0  0  0  0  0  0  0  0
   16.9473   -8.8467  -16.8274 O   0  0  0  0  0  0  0  0  0  0  0  0
   19.3288   -9.0790  -17.0696 C   0  0  2  0  0  0  0  0  0  0  0  0
   19.2900  -10.4753  -16.6141 N   0  0  0  0  0  0  0  0  0  0  0  0
   19.6111   -8.1788  -15.9017 C   0  0  0  0  0  0  0  0  0  0  0  0
   19.9110   -8.6837  -14.8045 O   0  0  0  0  0  0  0  0  0  0  0  0
   19.5347   -6.7702  -16.0552 N   0  0  0  0  0  0  0  0  0  0  0  0
   19.9103   -5.8513  -14.9463 C   0  0  1  0  0  0  0  0  0  0  0  0
   21.3833   -6.0916  -14.7301 C   0  0  0  0  0  0  0  0  0  0  0  0
   22.0584   -5.1352  -13.8686 C   0  0  0  0  0  0  0  0  0  0  0  0
   21.5235   -4.6561  -12.8513 O   0  0  0  0  0  0  0  0  0  0  0  0
   19.6583   -4.4487  -15.4185 C   0  0  0  0  0  0  0  0  0  0  0  0
   19.3468   -3.5311  -14.6390 O   0  0  0  0  0  0  0  0  0  0  0  0
   23.3658   -4.6863  -14.1287 O   0  0  0  0  0  0  0  0  0  0  0  0
   19.7673   -4.1181  -16.7793 O   0  0  0  0  0  0  0  0  0  0  0  0
  2  1  1  1
  2  3  1  0
  2  4  1  0
  4  6  1  0
  4  5  1  1
  6  7  2  0
  9 10  1  0
  9  8  1  6
 11  9  1  0
 12  6  1  0
 11 12  1  1
 13 14  2  0
 13 11  1  0
 15 13  1  0
 16 17  1  6
 16 15  1  0
 17 18  1  0
 18 19  2  0
 18 22  1  0
 20 16  1  0
 21 20  2  0
 23 20  1  0
M  END
$$$$
