VTD.pdb
     RDKit          3D

 23 22  0  0  1  0  0  0  0  0999 V2000
   23.0486  -14.0328  -18.7400 C   0  0  0  0  0  0  0  0  0  0  0  0
   22.8316  -13.1568  -19.9366 C   0  0  2  0  0  0  0  0  0  0  0  0
   23.6710  -13.7096  -21.0695 C   0  0  0  0  0  0  0  0  0  0  0  0
   23.1251  -11.7156  -19.7141 C   0  0  2  0  0  0  0  0  0  0  0  0
   24.5558  -11.5351  -19.6426 N   0  0  0  0  0  0  0  0  0  0  0  0
   22.4836  -11.0982  -18.5690 C   0  0  0  0  0  0  0  0  0  0  0  0
   21.2443  -11.0827  -18.3446 O   0  0  0  0  0  0  0  0  0  0  0  0
   22.5680  -11.9296  -15.0109 C   0  0  0  0  0  0  0  0  0  0  0  0
   23.0972  -10.5338  -15.1447 C   0  0  1  0  0  0  0  0  0  0  0  0
   24.4817  -10.5402  -14.9765 O   0  0  0  0  0  0  0  0  0  0  0  0
   22.6701   -9.8485  -16.3991 C   0  0  2  0  0  0  0  0  0  0  0  0
   23.2846  -10.4442  -17.5933 N   0  0  0  0  0  0  0  0  0  0  0  0
   23.0726   -8.4058  -16.2954 C   0  0  0  0  0  0  0  0  0  0  0  0
   23.9110   -7.9504  -17.0943 O   0  0  0  0  0  0  0  0  0  0  0  0
   22.4992   -7.5780  -15.2955 N   0  0  0  0  0  0  0  0  0  0  0  0
   22.8545   -6.1366  -15.1896 C   0  0  1  0  0  0  0  0  0  0  0  0
   22.3805   -5.5276  -16.4851 C   0  0  0  0  0  0  0  0  0  0  0  0
   22.4800   -4.0803  -16.5751 C   0  0  0  0  0  0  0  0  0  0  0  0
   23.5724   -3.4873  -16.6486 O   0  0  0  0  0  0  0  0  0  0  0  0
   22.0991   -5.5710  -14.0219 C   0  0  0  0  0  0  0  0  0  0  0  0
   21.0459   -6.0817  -13.6017 O   0  0  0  0  0  0  0  0  0  0  0  0
   21.3437   -3.2512  -16.5852 O   0  0  0  0  0  0  0  0  0  0  0  0
   22.5628   -4.4267  -13.3522 O   0  0  0  0  0  0  0  0  0  0  0  0
  2  1  1  1
  2  3  1  0
  2  4  1  0
  4  6  1  0
  4  5  1  1
  6  7  2  0
  9 10  1  0
  9  8  1  6
 11  9  1  0
 12  6  1  0
 11 12  1  6
 13 14  2  0
 13 11  1  0
 15 13  1  0
 16 17  1  6
 16 15  1  0
 17 18  1  0
 18 19  2  0
 18 22  1  0
 20 16  1  0
 21 20  2  0
 23 20  1  0
M  END
$$$$
