VTD.pdb
     RDKit          3D

 23 22  0  0  1  0  0  0  0  0999 V2000
   24.9535  -13.8223  -19.2024 C   0  0  0  0  0  0  0  0  0  0  0  0
   25.4739  -13.8640  -17.7975 C   0  0  2  0  0  0  0  0  0  0  0  0
   25.3227  -15.2839  -17.2930 C   0  0  0  0  0  0  0  0  0  0  0  0
   24.8293  -12.8995  -16.8663 C   0  0  2  0  0  0  0  0  0  0  0  0
   23.4792  -13.3368  -16.6004 N   0  0  0  0  0  0  0  0  0  0  0  0
   24.8344  -11.5083  -17.2768 C   0  0  0  0  0  0  0  0  0  0  0  0
   25.8594  -10.8307  -17.5535 O   0  0  0  0  0  0  0  0  0  0  0  0
   23.7695   -9.7866  -20.2910 C   0  0  0  0  0  0  0  0  0  0  0  0
   22.9369   -9.2504  -19.1661 C   0  0  1  0  0  0  0  0  0  0  0  0
   21.6561   -9.7986  -19.2294 O   0  0  0  0  0  0  0  0  0  0  0  0
   23.5686   -9.4098  -17.8240 C   0  0  2  0  0  0  0  0  0  0  0  0
   23.5994  -10.8128  -17.3888 N   0  0  0  0  0  0  0  0  0  0  0  0
   22.7743   -8.5981  -16.8421 C   0  0  0  0  0  0  0  0  0  0  0  0
   22.1827   -9.1776  -15.9132 O   0  0  0  0  0  0  0  0  0  0  0  0
   22.7039   -7.1874  -16.9784 N   0  0  0  0  0  0  0  0  0  0  0  0
   21.9214   -6.3575  -16.0223 C   0  0  1  0  0  0  0  0  0  0  0  0
   22.6036   -6.5571  -14.6923 C   0  0  0  0  0  0  0  0  0  0  0  0
   22.1295   -5.7138  -13.6076 C   0  0  0  0  0  0  0  0  0  0  0  0
   20.9824   -5.8139  -13.1336 O   0  0  0  0  0  0  0  0  0  0  0  0
   22.0291   -4.9294  -16.4724 C   0  0  0  0  0  0  0  0  0  0  0  0
   22.8687   -4.5588  -17.3118 O   0  0  0  0  0  0  0  0  0  0  0  0
   22.9389   -4.7250  -13.0197 O   0  0  0  0  0  0  0  0  0  0  0  0
   21.1715   -3.9456  -15.9530 O   0  0  0  0  0  0  0  0  0  0  0  0
  2  1  1  6
  2  3  1  0
  2  4  1  0
  4  6  1  0
  4  5  1  6
  6  7  2  0
  9 10  1  0
  9  8  1  6
 11  9  1  0
 12  6  1  0
 11 12  1  1
 13 14  2  0
 13 11  1  0
 15 13  1  0
 16 17  1  1
 16 15  1  0
 17 18  1  0
 18 19  2  0
 18 22  1  0
 20 16  1  0
 21 20  2  0
 23 20  1  0
M  END
$$$$
