VTD.pdb
     RDKit          3D

 23 22  0  0  1  0  0  0  0  0999 V2000
   21.2662  -14.2208  -18.7308 C   0  0  0  0  0  0  0  0  0  0  0  0
   20.6397  -13.7307  -17.4606 C   0  0  2  0  0  0  0  0  0  0  0  0
   19.4162  -14.5822  -17.1929 C   0  0  0  0  0  0  0  0  0  0  0  0
   20.2898  -12.2849  -17.4569 C   0  0  2  0  0  0  0  0  0  0  0  0
   20.5963  -11.7259  -18.7524 N   0  0  0  0  0  0  0  0  0  0  0  0
   20.8897  -11.4810  -16.4091 C   0  0  0  0  0  0  0  0  0  0  0  0
   20.8231  -11.7203  -15.1743 O   0  0  0  0  0  0  0  0  0  0  0  0
   24.2887  -10.9369  -15.4007 C   0  0  0  0  0  0  0  0  0  0  0  0
   23.7555   -9.5885  -15.7798 C   0  0  1  0  0  0  0  0  0  0  0  0
   24.2771   -9.2099  -17.0166 O   0  0  0  0  0  0  0  0  0  0  0  0
   22.2675   -9.4957  -15.7266 C   0  0  2  0  0  0  0  0  0  0  0  0
   21.6235  -10.3155  -16.7620 N   0  0  0  0  0  0  0  0  0  0  0  0
   21.8889   -8.0559  -15.9203 C   0  0  0  0  0  0  0  0  0  0  0  0
   21.3502   -7.7079  -16.9868 O   0  0  0  0  0  0  0  0  0  0  0  0
   22.1455   -7.1093  -14.8948 N   0  0  0  0  0  0  0  0  0  0  0  0
   21.7747   -5.6769  -15.0559 C   0  0  1  0  0  0  0  0  0  0  0  0
   20.2767   -5.6847  -15.2290 C   0  0  0  0  0  0  0  0  0  0  0  0
   19.6381   -4.3793  -15.2548 C   0  0  0  0  0  0  0  0  0  0  0  0
   20.2710   -3.3282  -15.4675 O   0  0  0  0  0  0  0  0  0  0  0  0
   22.1661   -4.9654  -13.7932 C   0  0  0  0  0  0  0  0  0  0  0  0
   22.3299   -5.5652  -12.7161 O   0  0  0  0  0  0  0  0  0  0  0  0
   18.2575   -4.2171  -15.0401 O   0  0  0  0  0  0  0  0  0  0  0  0
   22.3640   -3.5748  -13.7837 O   0  0  0  0  0  0  0  0  0  0  0  0
  2  1  1  6
  2  3  1  0
  2  4  1  0
  4  6  1  0
  4  5  1  6
  6  7  2  0
  9 10  1  0
  9  8  1  6
 11  9  1  0
 12  6  1  0
 11 12  1  6
 13 14  2  0
 13 11  1  0
 15 13  1  0
 16 17  1  1
 16 15  1  0
 17 18  1  0
 18 19  2  0
 18 22  1  0
 20 16  1  0
 21 20  2  0
 23 20  1  0
M  END
$$$$
