VTD.pdb
     RDKit          3D

 23 22  0  0  1  0  0  0  0  0999 V2000
   18.5214  -13.5058  -16.7133 C   0  0  0  0  0  0  0  0  0  0  0  0
   19.6623  -13.2758  -17.6575 C   0  0  2  0  0  0  0  0  0  0  0  0
   20.5330  -14.5147  -17.6373 C   0  0  0  0  0  0  0  0  0  0  0  0
   20.4679  -12.0576  -17.3750 C   0  0  2  0  0  0  0  0  0  0  0  0
   21.3090  -12.3082  -16.2285 N   0  0  0  0  0  0  0  0  0  0  0  0
   19.7262  -10.8243  -17.1931 C   0  0  0  0  0  0  0  0  0  0  0  0
   19.1459  -10.1780  -18.1052 O   0  0  0  0  0  0  0  0  0  0  0  0
   16.5863   -9.8107  -15.7566 C   0  0  0  0  0  0  0  0  0  0  0  0
   17.6528   -9.1271  -14.9558 C   0  0  1  0  0  0  0  0  0  0  0  0
   17.7982   -9.7686  -13.7260 O   0  0  0  0  0  0  0  0  0  0  0  0
   18.9452   -8.9747  -15.6851 C   0  0  2  0  0  0  0  0  0  0  0  0
   19.6208  -10.2630  -15.8911 N   0  0  0  0  0  0  0  0  0  0  0  0
   19.8275   -8.0703  -14.8742 C   0  0  0  0  0  0  0  0  0  0  0  0
   20.8407   -8.5418  -14.3266 O   0  0  0  0  0  0  0  0  0  0  0  0
   19.5033   -6.6955  -14.7386 N   0  0  0  0  0  0  0  0  0  0  0  0
   20.3898   -5.7634  -13.9900 C   0  0  1  0  0  0  0  0  0  0  0  0
   21.6720   -5.7321  -14.7833 C   0  0  0  0  0  0  0  0  0  0  0  0
   22.6654   -4.7689  -14.3382 C   0  0  0  0  0  0  0  0  0  0  0  0
   22.8011   -4.4508  -13.1420 O   0  0  0  0  0  0  0  0  0  0  0  0
   19.7270   -4.4164  -13.9866 C   0  0  0  0  0  0  0  0  0  0  0  0
   19.9997   -3.5439  -13.1433 O   0  0  0  0  0  0  0  0  0  0  0  0
   23.5423   -4.1302  -15.2336 O   0  0  0  0  0  0  0  0  0  0  0  0
   18.7600   -4.0888  -14.9512 O   0  0  0  0  0  0  0  0  0  0  0  0
  2  1  1  1
  2  3  1  0
  2  4  1  0
  4  6  1  0
  4  5  1  1
  6  7  2  0
  9 10  1  0
  9  8  1  6
 11  9  1  0
 12  6  1  0
 11 12  1  1
 13 14  2  0
 13 11  1  0
 15 13  1  0
 16 17  1  6
 16 15  1  0
 17 18  1  0
 18 19  2  0
 18 22  1  0
 20 16  1  0
 21 20  2  0
 23 20  1  0
M  END
$$$$
