VTD.pdb
     RDKit          3D

 23 22  0  0  1  0  0  0  0  0999 V2000
   16.4731  -13.4124  -13.1469 C   0  0  0  0  0  0  0  0  0  0  0  0
   16.6556  -13.0390  -14.5869 C   0  0  2  0  0  0  0  0  0  0  0  0
   17.5320  -14.0945  -15.2282 C   0  0  0  0  0  0  0  0  0  0  0  0
   17.2145  -11.6788  -14.8110 C   0  0  2  0  0  0  0  0  0  0  0  0
   18.5880  -11.6582  -14.3663 N   0  0  0  0  0  0  0  0  0  0  0  0
   16.4795  -10.5765  -14.2205 C   0  0  0  0  0  0  0  0  0  0  0  0
   15.2742  -10.2933  -14.4518 O   0  0  0  0  0  0  0  0  0  0  0  0
   15.3701   -9.7947  -10.7575 C   0  0  0  0  0  0  0  0  0  0  0  0
   16.3228   -8.7266  -11.2020 C   0  0  1  0  0  0  0  0  0  0  0  0
   17.5620   -8.9217  -10.5927 O   0  0  0  0  0  0  0  0  0  0  0  0
   16.4220   -8.5910  -12.6843 C   0  0  2  0  0  0  0  0  0  0  0  0
   17.1375   -9.7182  -13.2976 N   0  0  0  0  0  0  0  0  0  0  0  0
   17.1517   -7.3131  -12.9818 C   0  0  0  0  0  0  0  0  0  0  0  0
   18.3122   -7.3663  -13.4281 O   0  0  0  0  0  0  0  0  0  0  0  0
   16.5188   -6.0636  -12.7541 N   0  0  0  0  0  0  0  0  0  0  0  0
   17.1775   -4.7840  -13.1336 C   0  0  1  0  0  0  0  0  0  0  0  0
   17.3193   -4.8546  -14.6333 C   0  0  0  0  0  0  0  0  0  0  0  0
   17.7889   -3.6406  -15.2801 C   0  0  0  0  0  0  0  0  0  0  0  0
   18.0798   -2.6114  -14.6423 O   0  0  0  0  0  0  0  0  0  0  0  0
   16.2576   -3.6675  -12.7328 C   0  0  0  0  0  0  0  0  0  0  0  0
   15.0213   -3.8010  -12.7097 O   0  0  0  0  0  0  0  0  0  0  0  0
   17.9462   -3.5485  -16.6748 O   0  0  0  0  0  0  0  0  0  0  0  0
   16.7690   -2.4124  -12.3637 O   0  0  0  0  0  0  0  0  0  0  0  0
  2  1  1  1
  2  3  1  0
  2  4  1  0
  4  6  1  0
  4  5  1  1
  6  7  2  0
  9 10  1  0
  9  8  1  6
 11  9  1  0
 12  6  1  0
 11 12  1  1
 13 14  2  0
 13 11  1  0
 15 13  1  0
 16 17  1  6
 16 15  1  0
 17 18  1  0
 18 19  2  0
 18 22  1  0
 20 16  1  0
 21 20  2  0
 23 20  1  0
M  END
$$$$
