VTD.pdb
     RDKit          3D

 23 22  0  0  1  0  0  0  0  0999 V2000
   21.2216  -13.6049  -20.3817 C   0  0  0  0  0  0  0  0  0  0  0  0
   21.2127  -12.1442  -20.7173 C   0  0  2  0  0  0  0  0  0  0  0  0
   22.6497  -11.7090  -20.9152 C   0  0  0  0  0  0  0  0  0  0  0  0
   20.5305  -11.2802  -19.7170 C   0  0  2  0  0  0  0  0  0  0  0  0
   19.6007  -10.4144  -20.4030 N   0  0  0  0  0  0  0  0  0  0  0  0
   21.3911  -10.5024  -18.8460 C   0  0  0  0  0  0  0  0  0  0  0  0
   22.1929  -10.9750  -17.9974 O   0  0  0  0  0  0  0  0  0  0  0  0
   24.3805   -8.6592  -19.2715 C   0  0  0  0  0  0  0  0  0  0  0  0
   23.3591   -7.6612  -18.8167 C   0  0  1  0  0  0  0  0  0  0  0  0
   22.9387   -6.8940  -19.9029 O   0  0  0  0  0  0  0  0  0  0  0  0
   22.2236   -8.2668  -18.0622 C   0  0  2  0  0  0  0  0  0  0  0  0
   21.3579   -9.0832  -18.9240 N   0  0  0  0  0  0  0  0  0  0  0  0
   21.4216   -7.1487  -17.4617 C   0  0  0  0  0  0  0  0  0  0  0  0
   20.3351   -6.8341  -17.9806 O   0  0  0  0  0  0  0  0  0  0  0  0
   21.9035   -6.4639  -16.3160 N   0  0  0  0  0  0  0  0  0  0  0  0
   21.0937   -5.4070  -15.6509 C   0  0  1  0  0  0  0  0  0  0  0  0
   19.9386   -6.1458  -15.0231 C   0  0  0  0  0  0  0  0  0  0  0  0
   19.0586   -5.3463  -14.1870 C   0  0  0  0  0  0  0  0  0  0  0  0
   19.0771   -4.1013  -14.1936 O   0  0  0  0  0  0  0  0  0  0  0  0
   21.9583   -4.7704  -14.6017 C   0  0  0  0  0  0  0  0  0  0  0  0
   23.1171   -5.1582  -14.3706 O   0  0  0  0  0  0  0  0  0  0  0  0
   18.1243   -5.9293  -13.3119 O   0  0  0  0  0  0  0  0  0  0  0  0
   21.4812   -3.6968  -13.8317 O   0  0  0  0  0  0  0  0  0  0  0  0
  2  1  1  1
  2  3  1  0
  2  4  1  0
  4  6  1  0
  4  5  1  6
  6  7  2  0
  9 10  1  0
  9  8  1  6
 11  9  1  0
 12  6  1  0
 11 12  1  6
 13 14  2  0
 13 11  1  0
 15 13  1  0
 16 17  1  1
 16 15  1  0
 17 18  1  0
 18 19  2  0
 18 22  1  0
 20 16  1  0
 21 20  2  0
 23 20  1  0
M  END
$$$$
