VTD.pdb
     RDKit          3D

 23 22  0  0  1  0  0  0  0  0999 V2000
   16.9585  -13.5897  -15.8810 C   0  0  0  0  0  0  0  0  0  0  0  0
   18.0429  -13.7386  -16.9048 C   0  0  2  0  0  0  0  0  0  0  0  0
   18.6783  -15.0990  -16.7072 C   0  0  0  0  0  0  0  0  0  0  0  0
   19.0721  -12.6648  -16.8816 C   0  0  2  0  0  0  0  0  0  0  0  0
   19.9775  -12.9080  -15.7835 N   0  0  0  0  0  0  0  0  0  0  0  0
   18.5782  -11.3019  -16.8322 C   0  0  0  0  0  0  0  0  0  0  0  0
   18.0412  -10.6829  -17.7887 O   0  0  0  0  0  0  0  0  0  0  0  0
   15.7680   -9.6697  -15.4498 C   0  0  0  0  0  0  0  0  0  0  0  0
   16.9520   -9.0521  -14.7694 C   0  0  1  0  0  0  0  0  0  0  0  0
   17.0597   -9.5525  -13.4721 O   0  0  0  0  0  0  0  0  0  0  0  0
   18.2207   -9.1760  -15.5444 C   0  0  2  0  0  0  0  0  0  0  0  0
   18.6903  -10.5661  -15.6208 N   0  0  0  0  0  0  0  0  0  0  0  0
   19.2600   -8.3330  -14.8639 C   0  0  0  0  0  0  0  0  0  0  0  0
   20.3092   -8.8687  -14.4630 O   0  0  0  0  0  0  0  0  0  0  0  0
   19.0409   -6.9425  -14.6837 N   0  0  0  0  0  0  0  0  0  0  0  0
   20.1025   -6.0593  -14.1287 C   0  0  1  0  0  0  0  0  0  0  0  0
   21.2090   -6.0981  -15.1526 C   0  0  0  0  0  0  0  0  0  0  0  0
   22.3338   -5.2131  -14.8992 C   0  0  0  0  0  0  0  0  0  0  0  0
   22.7993   -5.0311  -13.7587 O   0  0  0  0  0  0  0  0  0  0  0  0
   19.5251   -4.6783  -14.0137 C   0  0  0  0  0  0  0  0  0  0  0  0
   18.7069   -4.2297  -14.8359 O   0  0  0  0  0  0  0  0  0  0  0  0
   22.9729   -4.5011  -15.9303 O   0  0  0  0  0  0  0  0  0  0  0  0
   19.8945   -3.8307  -12.9564 O   0  0  0  0  0  0  0  0  0  0  0  0
  2  1  1  1
  2  3  1  0
  2  4  1  0
  4  6  1  0
  4  5  1  1
  6  7  2  0
  9 10  1  0
  9  8  1  6
 11  9  1  0
 12  6  1  0
 11 12  1  1
 13 14  2  0
 13 11  1  0
 15 13  1  0
 16 17  1  6
 16 15  1  0
 17 18  1  0
 18 19  2  0
 18 22  1  0
 20 16  1  0
 21 20  2  0
 23 20  1  0
M  END
$$$$
