VTD.pdb
     RDKit          3D

 23 22  0  0  1  0  0  0  0  0999 V2000
   18.8343  -14.4631  -17.8060 C   0  0  0  0  0  0  0  0  0  0  0  0
   17.9873  -14.0382  -16.6448 C   0  0  2  0  0  0  0  0  0  0  0  0
   16.6815  -13.5070  -17.1980 C   0  0  0  0  0  0  0  0  0  0  0  0
   18.6241  -13.0425  -15.7416 C   0  0  2  0  0  0  0  0  0  0  0  0
   17.7546  -12.8119  -14.6121 N   0  0  0  0  0  0  0  0  0  0  0  0
   19.0082  -11.7805  -16.3449 C   0  0  0  0  0  0  0  0  0  0  0  0
   19.9362  -11.6218  -17.1815 O   0  0  0  0  0  0  0  0  0  0  0  0
   17.0486   -9.5472  -18.5929 C   0  0  0  0  0  0  0  0  0  0  0  0
   17.4284   -8.7649  -17.3723 C   0  0  1  0  0  0  0  0  0  0  0  0
   16.3126   -8.6095  -16.5502 O   0  0  0  0  0  0  0  0  0  0  0  0
   18.6081   -9.3201  -16.6475 C   0  0  2  0  0  0  0  0  0  0  0  0
   18.3036  -10.5979  -15.9894 N   0  0  0  0  0  0  0  0  0  0  0  0
   19.0303   -8.3138  -15.6164 C   0  0  0  0  0  0  0  0  0  0  0  0
   19.2841   -8.6988  -14.4605 O   0  0  0  0  0  0  0  0  0  0  0  0
   19.1364   -6.9420  -15.9636 N   0  0  0  0  0  0  0  0  0  0  0  0
   19.6596   -5.9391  -14.9965 C   0  0  1  0  0  0  0  0  0  0  0  0
   21.0886   -6.3525  -14.7492 C   0  0  0  0  0  0  0  0  0  0  0  0
   21.8856   -5.4267  -13.9615 C   0  0  0  0  0  0  0  0  0  0  0  0
   21.5148   -4.9999  -12.8521 O   0  0  0  0  0  0  0  0  0  0  0  0
   19.5966   -4.5952  -15.6626 C   0  0  0  0  0  0  0  0  0  0  0  0
   19.6919   -4.4595  -16.8952 O   0  0  0  0  0  0  0  0  0  0  0  0
   23.1333   -4.9503  -14.4029 O   0  0  0  0  0  0  0  0  0  0  0  0
   19.4253   -3.4249  -14.9050 O   0  0  0  0  0  0  0  0  0  0  0  0
  2  1  1  6
  2  3  1  0
  2  4  1  0
  4  6  1  0
  4  5  1  1
  6  7  2  0
  9 10  1  0
  9  8  1  6
 11  9  1  0
 12  6  1  0
 11 12  1  1
 13 14  2  0
 13 11  1  0
 15 13  1  0
 16 17  1  6
 16 15  1  0
 17 18  1  0
 18 19  2  0
 18 22  1  0
 20 16  1  0
 21 20  2  0
 23 20  1  0
M  END
$$$$
