VTD.pdb
     RDKit          3D

 23 22  0  0  1  0  0  0  0  0999 V2000
   16.6005  -14.1869  -17.5314 C   0  0  0  0  0  0  0  0  0  0  0  0
   17.7104  -15.0072  -16.9470 C   0  0  2  0  0  0  0  0  0  0  0  0
   17.0817  -16.1539  -16.1832 C   0  0  0  0  0  0  0  0  0  0  0  0
   18.6553  -14.2501  -16.0830 C   0  0  2  0  0  0  0  0  0  0  0  0
   18.0274  -14.0041  -14.8063 N   0  0  0  0  0  0  0  0  0  0  0  0
   19.1778  -13.0131  -16.6317 C   0  0  0  0  0  0  0  0  0  0  0  0
   19.8339  -12.9067  -17.7016 O   0  0  0  0  0  0  0  0  0  0  0  0
   18.6245  -10.5861  -18.8186 C   0  0  0  0  0  0  0  0  0  0  0  0
   18.5557   -9.9231  -17.4763 C   0  0  1  0  0  0  0  0  0  0  0  0
   17.2299   -9.8733  -17.0465 O   0  0  0  0  0  0  0  0  0  0  0  0
   19.4702  -10.5249  -16.4629 C   0  0  2  0  0  0  0  0  0  0  0  0
   18.9534  -11.7946  -15.9344 N   0  0  0  0  0  0  0  0  0  0  0  0
   19.6243   -9.5405  -15.3399 C   0  0  0  0  0  0  0  0  0  0  0  0
   18.9321   -9.6757  -14.3146 O   0  0  0  0  0  0  0  0  0  0  0  0
   20.5505   -8.4714  -15.4538 N   0  0  0  0  0  0  0  0  0  0  0  0
   20.7780   -7.5239  -14.3289 C   0  0  1  0  0  0  0  0  0  0  0  0
   22.0361   -6.7804  -14.7010 C   0  0  0  0  0  0  0  0  0  0  0  0
   22.4447   -5.7322  -13.7806 C   0  0  0  0  0  0  0  0  0  0  0  0
   22.2710   -5.8159  -12.5504 O   0  0  0  0  0  0  0  0  0  0  0  0
   19.6000   -6.5946  -14.2773 C   0  0  0  0  0  0  0  0  0  0  0  0
   19.0617   -6.1466  -15.3050 O   0  0  0  0  0  0  0  0  0  0  0  0
   23.0656   -4.5495  -14.2212 O   0  0  0  0  0  0  0  0  0  0  0  0
   19.0557   -6.1920  -13.0466 O   0  0  0  0  0  0  0  0  0  0  0  0
  2  1  1  1
  2  3  1  0
  2  4  1  0
  4  6  1  0
  4  5  1  1
  6  7  2  0
  9 10  1  0
  9  8  1  6
 11  9  1  0
 12  6  1  0
 11 12  1  1
 13 14  2  0
 13 11  1  0
 15 13  1  0
 16 17  1  6
 16 15  1  0
 17 18  1  0
 18 19  2  0
 18 22  1  0
 20 16  1  0
 21 20  2  0
 23 20  1  0
M  END
$$$$
