VTD.pdb
     RDKit          3D

 23 22  0  0  1  0  0  0  0  0999 V2000
   17.1997  -13.2321  -18.4206 C   0  0  0  0  0  0  0  0  0  0  0  0
   18.3156  -14.0689  -17.8720 C   0  0  2  0  0  0  0  0  0  0  0  0
   17.7024  -15.3164  -17.2710 C   0  0  0  0  0  0  0  0  0  0  0  0
   19.1843  -13.3763  -16.8829 C   0  0  2  0  0  0  0  0  0  0  0  0
   18.4386  -13.1790  -15.6623 N   0  0  0  0  0  0  0  0  0  0  0  0
   19.7799  -12.1261  -17.3145 C   0  0  0  0  0  0  0  0  0  0  0  0
   20.5152  -11.9766  -18.3262 O   0  0  0  0  0  0  0  0  0  0  0  0
   19.7610   -9.7636  -19.4335 C   0  0  0  0  0  0  0  0  0  0  0  0
   19.4563   -9.0667  -18.1422 C   0  0  1  0  0  0  0  0  0  0  0  0
   18.0748   -8.9730  -17.9758 O   0  0  0  0  0  0  0  0  0  0  0  0
   20.1419   -9.6666  -16.9609 C   0  0  2  0  0  0  0  0  0  0  0  0
   19.5391  -10.9453  -16.5603 N   0  0  0  0  0  0  0  0  0  0  0  0
   20.0432   -8.6890  -15.8258 C   0  0  0  0  0  0  0  0  0  0  0  0
   19.1894   -8.8720  -14.9392 O   0  0  0  0  0  0  0  0  0  0  0  0
   20.9169   -7.5720  -15.7718 N   0  0  0  0  0  0  0  0  0  0  0  0
   20.8068   -6.5575  -14.6884 C   0  0  1  0  0  0  0  0  0  0  0  0
   22.1388   -5.8504  -14.6872 C   0  0  0  0  0  0  0  0  0  0  0  0
   22.2800   -4.7733  -13.7215 C   0  0  0  0  0  0  0  0  0  0  0  0
   21.3787   -4.4732  -12.9163 O   0  0  0  0  0  0  0  0  0  0  0  0
   19.6991   -5.6162  -15.0634 C   0  0  0  0  0  0  0  0  0  0  0  0
   19.5409   -5.2063  -16.2269 O   0  0  0  0  0  0  0  0  0  0  0  0
   23.4490   -3.9960  -13.6328 O   0  0  0  0  0  0  0  0  0  0  0  0
   18.7877   -5.1579  -14.0979 O   0  0  0  0  0  0  0  0  0  0  0  0
  2  1  1  1
  2  3  1  0
  2  4  1  0
  4  6  1  0
  4  5  1  1
  6  7  2  0
  9 10  1  0
  9  8  1  6
 11  9  1  0
 12  6  1  0
 11 12  1  1
 13 14  2  0
 13 11  1  0
 15 13  1  0
 16 17  1  6
 16 15  1  0
 17 18  1  0
 18 19  2  0
 18 22  1  0
 20 16  1  0
 21 20  2  0
 23 20  1  0
M  END
$$$$
