VTD.pdb
     RDKit          3D

 23 22  0  0  1  0  0  0  0  0999 V2000
   15.8892   -9.1722  -15.6581 C   0  0  0  0  0  0  0  0  0  0  0  0
   16.4519  -10.0559  -16.7299 C   0  0  2  0  0  0  0  0  0  0  0  0
   15.2905  -10.7494  -17.4109 C   0  0  0  0  0  0  0  0  0  0  0  0
   17.4562  -11.0458  -16.2566 C   0  0  2  0  0  0  0  0  0  0  0  0
   16.7793  -12.0767  -15.5058 N   0  0  0  0  0  0  0  0  0  0  0  0
   18.5692  -10.5167  -15.4915 C   0  0  0  0  0  0  0  0  0  0  0  0
   18.6337  -10.4633  -14.2347 O   0  0  0  0  0  0  0  0  0  0  0  0
   23.2943   -9.1824  -15.2290 C   0  0  0  0  0  0  0  0  0  0  0  0
   22.1401   -9.8749  -15.8882 C   0  0  1  0  0  0  0  0  0  0  0  0
   22.2798  -11.2552  -15.7464 O   0  0  0  0  0  0  0  0  0  0  0  0
   20.8071   -9.3790  -15.4379 C   0  0  2  0  0  0  0  0  0  0  0  0
   19.7035  -10.0048  -16.1790 N   0  0  0  0  0  0  0  0  0  0  0  0
   20.7733   -7.8931  -15.6492 C   0  0  0  0  0  0  0  0  0  0  0  0
   20.4932   -7.4463  -16.7764 O   0  0  0  0  0  0  0  0  0  0  0  0
   21.0586   -7.0151  -14.5715 N   0  0  0  0  0  0  0  0  0  0  0  0
   21.0675   -5.5388  -14.7600 C   0  0  1  0  0  0  0  0  0  0  0  0
   19.6794   -5.0936  -14.3738 C   0  0  0  0  0  0  0  0  0  0  0  0
   19.4431   -3.6600  -14.4141 C   0  0  0  0  0  0  0  0  0  0  0  0
   20.1875   -2.8755  -15.0312 O   0  0  0  0  0  0  0  0  0  0  0  0
   22.0940   -4.9712  -13.8230 C   0  0  0  0  0  0  0  0  0  0  0  0
   22.3361   -5.4811  -12.7148 O   0  0  0  0  0  0  0  0  0  0  0  0
   18.3532   -3.0624  -13.7556 O   0  0  0  0  0  0  0  0  0  0  0  0
   22.8289   -3.8257  -14.1705 O   0  0  0  0  0  0  0  0  0  0  0  0
  2  1  1  1
  2  3  1  0
  2  4  1  0
  4  6  1  0
  4  5  1  1
  6  7  2  0
  9 10  1  0
  9  8  1  1
 11  9  1  0
 12  6  1  0
 11 12  1  6
 13 14  2  0
 13 11  1  0
 15 13  1  0
 16 17  1  1
 16 15  1  0
 17 18  1  0
 18 19  2  0
 18 22  1  0
 20 16  1  0
 21 20  2  0
 23 20  1  0
M  END
$$$$
