VTD.pdb
     RDKit          3D

 23 22  0  0  1  0  0  0  0  0999 V2000
   19.5241  -12.8877  -16.7688 C   0  0  0  0  0  0  0  0  0  0  0  0
   18.5163  -11.7894  -16.6125 C   0  0  2  0  0  0  0  0  0  0  0  0
   18.5544  -10.9477  -17.8709 C   0  0  0  0  0  0  0  0  0  0  0  0
   18.7011  -10.9429  -15.4033 C   0  0  2  0  0  0  0  0  0  0  0  0
   17.5160  -10.1417  -15.2073 N   0  0  0  0  0  0  0  0  0  0  0  0
   19.8837  -10.1032  -15.3810 C   0  0  0  0  0  0  0  0  0  0  0  0
   21.0699  -10.5125  -15.2728 O   0  0  0  0  0  0  0  0  0  0  0  0
   22.4208   -9.5472  -16.6311 C   0  0  0  0  0  0  0  0  0  0  0  0
   21.7721   -8.2037  -16.7733 C   0  0  1  0  0  0  0  0  0  0  0  0
   21.0935   -8.1382  -17.9900 O   0  0  0  0  0  0  0  0  0  0  0  0
   20.9154   -7.8256  -15.6120 C   0  0  2  0  0  0  0  0  0  0  0  0
   19.7362   -8.6931  -15.4873 N   0  0  0  0  0  0  0  0  0  0  0  0
   20.4732   -6.4046  -15.8095 C   0  0  0  0  0  0  0  0  0  0  0  0
   19.3288   -6.1795  -16.2433 O   0  0  0  0  0  0  0  0  0  0  0  0
   21.3557   -5.3364  -15.5028 N   0  0  0  0  0  0  0  0  0  0  0  0
   20.9494   -3.9184  -15.7007 C   0  0  1  0  0  0  0  0  0  0  0  0
   21.3545   -3.2210  -14.4265 C   0  0  0  0  0  0  0  0  0  0  0  0
   21.0384   -1.8041  -14.3552 C   0  0  0  0  0  0  0  0  0  0  0  0
   20.4613   -1.1993  -15.2781 O   0  0  0  0  0  0  0  0  0  0  0  0
   21.7227   -3.3875  -16.8729 C   0  0  0  0  0  0  0  0  0  0  0  0
   22.8323   -3.8449  -17.1990 O   0  0  0  0  0  0  0  0  0  0  0  0
   21.3652   -1.0198  -13.2342 O   0  0  0  0  0  0  0  0  0  0  0  0
   21.2119   -2.3387  -17.6553 O   0  0  0  0  0  0  0  0  0  0  0  0
  2  1  1  6
  2  3  1  0
  2  4  1  0
  4  6  1  0
  4  5  1  6
  6  7  2  0
  9 10  1  0
  9  8  1  1
 11  9  1  0
 12  6  1  0
 11 12  1  6
 13 14  2  0
 13 11  1  0
 15 13  1  0
 16 17  1  1
 16 15  1  0
 17 18  1  0
 18 19  2  0
 18 22  1  0
 20 16  1  0
 21 20  2  0
 23 20  1  0
M  END
$$$$
