IWA.pdb
     RDKit          3D

 28 29  0  0  1  0  0  0  0  0999 V2000
   27.6053  -20.9359   -3.3175 C   0  0  0  0  0  0  0  0  0  0  0  0
   28.2174  -20.2376   -4.4943 C   0  0  0  0  0  0  0  0  0  0  0  0
   27.2513  -20.2440   -5.6798 C   0  0  2  0  0  0  0  0  0  0  0  0
   26.9694  -21.6976   -5.9956 C   0  0  0  0  0  0  0  0  0  0  0  0
   27.9441  -19.6564   -6.8932 C   0  0  2  0  0  0  0  0  0  0  0  0
   28.2996  -18.2978   -6.5286 N   0  0  0  0  0  0  0  0  0  0  0  0
   27.0320  -19.5852   -8.0601 C   0  0  0  0  0  0  0  0  0  0  0  0
   26.1038  -18.7662   -8.0959 O   0  0  0  0  0  0  0  0  0  0  0  0
   27.2036  -20.4700   -9.1854 N   0  0  0  0  0  0  0  0  0  0  0  0
   26.6496  -20.1800  -10.4763 C   0  0  1  0  0  0  0  0  0  0  0  0
   27.5844  -20.4141  -11.6294 C   0  0  0  0  0  0  0  0  0  0  0  0
   27.1162  -19.9814  -12.9324 C   0  0  0  0  0  0  0  0  0  0  0  0
   25.8050  -19.8548  -13.3441 C   0  0  0  0  0  0  0  0  0  0  0  0
   25.7628  -19.4453  -14.6244 N   0  0  0  0  0  0  0  0  0  0  0  0
   27.0164  -19.2942  -15.0803 C   0  0  0  0  0  0  0  0  0  0  0  0
   27.4673  -18.8913  -16.3164 C   0  0  0  0  0  0  0  0  0  0  0  0
   28.8306  -18.8175  -16.5085 C   0  0  0  0  0  0  0  0  0  0  0  0
   29.7165  -19.1402  -15.4847 C   0  0  0  0  0  0  0  0  0  0  0  0
   29.2171  -19.5351  -14.2753 C   0  0  0  0  0  0  0  0  0  0  0  0
   27.8748  -19.6285  -14.0239 C   0  0  0  0  0  0  0  0  0  0  0  0
   25.3502  -20.8617  -10.6482 C   0  0  0  0  0  0  0  0  0  0  0  0
   25.3039  -22.1059  -10.4794 O   0  0  0  0  0  0  0  0  0  0  0  0
   21.7984  -19.8040  -11.1660 C   0  0  0  0  0  0  0  0  0  0  0  0
   22.8828  -20.8878  -11.1528 C   0  0  2  0  0  0  0  0  0  0  0  0
   24.1507  -20.2039  -10.9913 N   0  0  0  0  0  0  0  0  0  0  0  0
   22.8146  -21.6810  -12.3808 C   0  0  0  0  0  0  0  0  0  0  0  0
   21.8679  -22.4752  -12.6035 O   0  0  0  0  0  0  0  0  0  0  0  0
   23.8092  -21.5705  -13.3390 O   0  0  0  0  0  0  0  0  0  0  0  0
  2  1  1  0
  3  2  1  0
  3  5  1  0
  3  4  1  6
  5  7  1  0
  5  6  1  1
  7  8  2  0
  9 10  1  0
  9  7  1  0
 10 11  1  6
 11 12  1  0
 12 20  1  0
 13 14  1  0
 13 12  2  0
 14 15  1  0
 15 20  2  0
 15 16  1  0
 16 17  2  0
 17 18  1  0
 19 18  2  0
 20 19  1  0
 21 10  1  0
 22 21  2  0
 24 23  1  6
 24 26  1  0
 24 25  1  0
 25 21  1  0
 26 28  1  0
 27 26  2  0
M  END
$$$$
