IWA.pdb
     RDKit          3D

 28 29  0  0  1  0  0  0  0  0999 V2000
   22.1422  -20.5367  -15.5713 C   0  0  0  0  0  0  0  0  0  0  0  0
   23.5335  -20.3397  -15.0491 C   0  0  0  0  0  0  0  0  0  0  0  0
   23.6456  -20.8668  -13.6180 C   0  0  2  0  0  0  0  0  0  0  0  0
   22.7230  -20.0141  -12.7732 C   0  0  0  0  0  0  0  0  0  0  0  0
   25.0531  -20.6317  -13.1068 C   0  0  2  0  0  0  0  0  0  0  0  0
   25.9192  -21.4462  -13.9385 N   0  0  0  0  0  0  0  0  0  0  0  0
   25.2087  -21.0942  -11.7067 C   0  0  0  0  0  0  0  0  0  0  0  0
   25.0814  -22.2902  -11.4115 O   0  0  0  0  0  0  0  0  0  0  0  0
   25.5131  -20.1606  -10.6510 N   0  0  0  0  0  0  0  0  0  0  0  0
   25.7633  -20.5859   -9.3042 C   0  0  1  0  0  0  0  0  0  0  0  0
   26.8550  -19.8319   -8.5987 C   0  0  0  0  0  0  0  0  0  0  0  0
   27.2802  -20.3670   -7.3191 C   0  0  0  0  0  0  0  0  0  0  0  0
   27.2316  -21.6849   -6.9122 C   0  0  0  0  0  0  0  0  0  0  0  0
   27.6960  -21.7951   -5.6550 N   0  0  0  0  0  0  0  0  0  0  0  0
   28.0555  -20.5807   -5.2099 C   0  0  0  0  0  0  0  0  0  0  0  0
   28.5845  -20.2021   -3.9973 C   0  0  0  0  0  0  0  0  0  0  0  0
   28.8702  -18.8661   -3.8118 C   0  0  0  0  0  0  0  0  0  0  0  0
   28.6302  -17.9359   -4.8189 C   0  0  0  0  0  0  0  0  0  0  0  0
   28.1032  -18.3638   -6.0052 C   0  0  0  0  0  0  0  0  0  0  0  0
   27.7982  -19.6759   -6.2489 C   0  0  0  0  0  0  0  0  0  0  0  0
   24.5053  -20.6248   -8.5304 C   0  0  0  0  0  0  0  0  0  0  0  0
   23.7836  -19.5964   -8.5155 O   0  0  0  0  0  0  0  0  0  0  0  0
   22.3308  -23.1983   -7.0063 C   0  0  0  0  0  0  0  0  0  0  0  0
   22.8442  -21.7536   -7.0105 C   0  0  2  0  0  0  0  0  0  0  0  0
   24.0582  -21.7472   -7.8028 N   0  0  0  0  0  0  0  0  0  0  0  0
   23.0561  -21.2923   -5.6379 C   0  0  0  0  0  0  0  0  0  0  0  0
   24.2040  -21.2197   -5.1342 O   0  0  0  0  0  0  0  0  0  0  0  0
   21.9770  -20.9199   -4.8526 O   0  0  0  0  0  0  0  0  0  0  0  0
  2  1  1  0
  3  2  1  0
  3  5  1  0
  3  4  1  1
  5  7  1  0
  5  6  1  6
  7  8  2  0
  9 10  1  0
  9  7  1  0
 10 11  1  1
 11 12  1  0
 12 20  1  0
 13 14  1  0
 13 12  2  0
 14 15  1  0
 15 20  2  0
 15 16  1  0
 16 17  2  0
 17 18  1  0
 19 18  2  0
 20 19  1  0
 21 10  1  0
 22 21  2  0
 24 23  1  1
 24 26  1  0
 24 25  1  0
 25 21  1  0
 26 28  1  0
 27 26  2  0
M  END
$$$$
