IWA.pdb
     RDKit          3D

 28 29  0  0  1  0  0  0  0  0999 V2000
   30.0768  -21.6097  -10.8092 C   0  0  0  0  0  0  0  0  0  0  0  0
   28.6404  -21.6522  -10.3826 C   0  0  0  0  0  0  0  0  0  0  0  0
   27.7528  -20.9797  -11.4307 C   0  0  2  0  0  0  0  0  0  0  0  0
   28.2638  -19.5624  -11.5801 C   0  0  0  0  0  0  0  0  0  0  0  0
   26.3364  -20.8831  -10.8996 C   0  0  2  0  0  0  0  0  0  0  0  0
   25.8941  -22.2500  -10.6964 N   0  0  0  0  0  0  0  0  0  0  0  0
   25.4252  -20.2575  -11.8880 C   0  0  0  0  0  0  0  0  0  0  0  0
   25.4064  -19.0301  -12.0515 O   0  0  0  0  0  0  0  0  0  0  0  0
   24.5359  -21.0647  -12.6855 N   0  0  0  0  0  0  0  0  0  0  0  0
   23.6781  -20.4963  -13.6847 C   0  0  1  0  0  0  0  0  0  0  0  0
   24.1385  -20.7016  -15.1003 C   0  0  0  0  0  0  0  0  0  0  0  0
   25.3560  -20.0130  -15.4849 C   0  0  0  0  0  0  0  0  0  0  0  0
   26.6373  -20.5258  -15.4805 C   0  0  0  0  0  0  0  0  0  0  0  0
   27.5099  -19.5856  -15.8843 N   0  0  0  0  0  0  0  0  0  0  0  0
   26.8424  -18.4540  -16.1598 C   0  0  0  0  0  0  0  0  0  0  0  0
   27.3063  -17.2378  -16.6063 C   0  0  0  0  0  0  0  0  0  0  0  0
   26.3815  -16.2368  -16.8156 C   0  0  0  0  0  0  0  0  0  0  0  0
   25.0266  -16.4533  -16.5822 C   0  0  0  0  0  0  0  0  0  0  0  0
   24.6177  -17.6799  -16.1390 C   0  0  0  0  0  0  0  0  0  0  0  0
   25.4873  -18.7124  -15.9121 C   0  0  0  0  0  0  0  0  0  0  0  0
   22.2799  -20.9238  -13.4722 C   0  0  0  0  0  0  0  0  0  0  0  0
   22.0635  -22.1253  -13.1752 O   0  0  0  0  0  0  0  0  0  0  0  0
   18.9300  -19.2468  -13.3449 C   0  0  0  0  0  0  0  0  0  0  0  0
   19.7965  -20.5104  -13.4036 C   0  0  2  0  0  0  0  0  0  0  0  0
   21.1651  -20.0668  -13.5813 N   0  0  0  0  0  0  0  0  0  0  0  0
   19.3355  -21.3853  -14.4824 C   0  0  0  0  0  0  0  0  0  0  0  0
   19.8837  -21.3877  -15.6121 O   0  0  0  0  0  0  0  0  0  0  0  0
   18.2670  -22.2430  -14.2768 O   0  0  0  0  0  0  0  0  0  0  0  0
  2  1  1  0
  3  2  1  0
  3  5  1  0
  3  4  1  1
  5  7  1  0
  5  6  1  6
  7  8  2  0
  9 10  1  0
  9  7  1  0
 10 11  1  6
 11 12  1  0
 12 20  1  0
 13 14  1  0
 13 12  2  0
 14 15  1  0
 15 20  2  0
 15 16  1  0
 16 17  2  0
 17 18  1  0
 19 18  2  0
 20 19  1  0
 21 10  1  0
 22 21  2  0
 24 23  1  6
 24 26  1  0
 24 25  1  0
 25 21  1  0
 26 28  1  0
 27 26  2  0
M  END
$$$$
