IWA.pdb
     RDKit          3D

 28 29  0  0  1  0  0  0  0  0999 V2000
   24.0886  -14.9719  -17.9837 C   0  0  0  0  0  0  0  0  0  0  0  0
   24.4839  -13.8597  -17.0597 C   0  0  0  0  0  0  0  0  0  0  0  0
   23.5760  -12.6465  -17.2664 C   0  0  2  0  0  0  0  0  0  0  0  0
   23.6887  -12.2707  -18.7287 C   0  0  0  0  0  0  0  0  0  0  0  0
   24.1153  -11.4761  -16.4685 C   0  0  2  0  0  0  0  0  0  0  0  0
   24.0548  -11.8824  -15.0769 N   0  0  0  0  0  0  0  0  0  0  0  0
   23.2633  -10.2724  -16.6232 C   0  0  0  0  0  0  0  0  0  0  0  0
   23.1730   -9.6899  -17.7123 O   0  0  0  0  0  0  0  0  0  0  0  0
   22.5168   -9.7486  -15.5066 N   0  0  0  0  0  0  0  0  0  0  0  0
   21.5649   -8.6861  -15.6555 C   0  0  1  0  0  0  0  0  0  0  0  0
   20.1559   -9.0456  -15.2762 C   0  0  0  0  0  0  0  0  0  0  0  0
   19.5125  -10.0608  -16.0884 C   0  0  0  0  0  0  0  0  0  0  0  0
   19.4833  -11.4199  -15.8503 C   0  0  0  0  0  0  0  0  0  0  0  0
   18.8071  -12.0439  -16.8311 N   0  0  0  0  0  0  0  0  0  0  0  0
   18.3818  -11.1335  -17.7213 C   0  0  0  0  0  0  0  0  0  0  0  0
   17.6522  -11.2972  -18.8765 C   0  0  0  0  0  0  0  0  0  0  0  0
   17.3452  -10.1683  -19.6060 C   0  0  0  0  0  0  0  0  0  0  0  0
   17.7609   -8.9085  -19.1848 C   0  0  0  0  0  0  0  0  0  0  0  0
   18.4837   -8.8004  -18.0299 C   0  0  0  0  0  0  0  0  0  0  0  0
   18.8200   -9.8834  -17.2632 C   0  0  0  0  0  0  0  0  0  0  0  0
   22.0429   -7.4627  -14.9790 C   0  0  0  0  0  0  0  0  0  0  0  0
   22.3668   -7.5404  -13.7675 O   0  0  0  0  0  0  0  0  0  0  0  0
   22.9295   -3.9863  -16.0629 C   0  0  0  0  0  0  0  0  0  0  0  0
   22.7518   -5.0460  -14.9692 C   0  0  2  0  0  0  0  0  0  0  0  0
   22.1606   -6.2056  -15.6073 N   0  0  0  0  0  0  0  0  0  0  0  0
   21.9305   -4.5121  -13.8819 C   0  0  0  0  0  0  0  0  0  0  0  0
   22.3720   -3.6526  -13.0800 O   0  0  0  0  0  0  0  0  0  0  0  0
   20.6274   -4.9510  -13.7115 O   0  0  0  0  0  0  0  0  0  0  0  0
  2  1  1  0
  3  2  1  0
  3  5  1  0
  3  4  1  6
  5  7  1  0
  5  6  1  1
  7  8  2  0
  9 10  1  0
  9  7  1  0
 10 11  1  1
 11 12  1  0
 12 20  1  0
 13 14  1  0
 13 12  2  0
 14 15  1  0
 15 20  2  0
 15 16  1  0
 16 17  2  0
 17 18  1  0
 19 18  2  0
 20 19  1  0
 21 10  1  0
 22 21  2  0
 24 23  1  6
 24 26  1  0
 24 25  1  0
 25 21  1  0
 26 28  1  0
 27 26  2  0
M  END
$$$$
