IWA.pdb
     RDKit          3D

 28 29  0  0  1  0  0  0  0  0999 V2000
   23.7037  -20.8543  -15.2356 C   0  0  0  0  0  0  0  0  0  0  0  0
   24.8120  -20.5264  -14.2810 C   0  0  0  0  0  0  0  0  0  0  0  0
   24.4752  -21.0339  -12.8783 C   0  0  2  0  0  0  0  0  0  0  0  0
   23.1917  -20.3431  -12.4688 C   0  0  0  0  0  0  0  0  0  0  0  0
   25.5485  -20.5780  -11.9100 C   0  0  2  0  0  0  0  0  0  0  0  0
   26.7876  -21.1648  -12.3852 N   0  0  0  0  0  0  0  0  0  0  0  0
   25.3024  -21.0932  -10.5415 C   0  0  0  0  0  0  0  0  0  0  0  0
   25.5486  -22.2711  -10.2489 O   0  0  0  0  0  0  0  0  0  0  0  0
   24.7689  -20.2333   -9.5146 N   0  0  0  0  0  0  0  0  0  0  0  0
   24.6253  -20.6662   -8.1547 C   0  0  1  0  0  0  0  0  0  0  0  0
   25.1471  -19.7005   -7.1284 C   0  0  0  0  0  0  0  0  0  0  0  0
   26.5898  -19.6169   -7.0016 C   0  0  0  0  0  0  0  0  0  0  0  0
   27.4913  -19.2674   -7.9864 C   0  0  0  0  0  0  0  0  0  0  0  0
   28.7445  -19.3186   -7.5012 N   0  0  0  0  0  0  0  0  0  0  0  0
   28.7034  -19.6942   -6.2130 C   0  0  0  0  0  0  0  0  0  0  0  0
   29.7257  -19.8772   -5.3102 C   0  0  0  0  0  0  0  0  0  0  0  0
   29.3890  -20.2649   -4.0307 C   0  0  0  0  0  0  0  0  0  0  0  0
   28.0597  -20.4631   -3.6689 C   0  0  0  0  0  0  0  0  0  0  0  0
   27.0818  -20.2679   -4.6036 C   0  0  0  0  0  0  0  0  0  0  0  0
   27.3530  -19.8840   -5.8892 C   0  0  0  0  0  0  0  0  0  0  0  0
   23.2340  -21.0853   -7.8879 C   0  0  0  0  0  0  0  0  0  0  0  0
   22.3036  -20.3152   -8.2342 O   0  0  0  0  0  0  0  0  0  0  0  0
   21.5660  -24.2524   -6.8301 C   0  0  0  0  0  0  0  0  0  0  0  0
   21.5085  -22.7454   -7.1069 C   0  0  2  0  0  0  0  0  0  0  0  0
   22.8789  -22.3004   -7.2662 N   0  0  0  0  0  0  0  0  0  0  0  0
   20.8092  -22.0615   -6.0182 C   0  0  0  0  0  0  0  0  0  0  0  0
   19.5782  -22.2144   -5.8237 O   0  0  0  0  0  0  0  0  0  0  0  0
   21.5021  -21.2173   -5.1656 O   0  0  0  0  0  0  0  0  0  0  0  0
  2  1  1  0
  3  2  1  0
  3  5  1  0
  3  4  1  1
  5  7  1  0
  5  6  1  6
  7  8  2  0
  9 10  1  0
  9  7  1  0
 10 11  1  1
 11 12  1  0
 12 20  1  0
 13 14  1  0
 13 12  2  0
 14 15  1  0
 15 20  2  0
 15 16  1  0
 16 17  2  0
 17 18  1  0
 19 18  2  0
 20 19  1  0
 21 10  1  0
 22 21  2  0
 24 23  1  1
 24 26  1  0
 24 25  1  0
 25 21  1  0
 26 28  1  0
 27 26  2  0
M  END
$$$$
