IWA.pdb
     RDKit          3D

 28 29  0  0  1  0  0  0  0  0999 V2000
   19.9188  -22.1933  -13.7109 C   0  0  0  0  0  0  0  0  0  0  0  0
   20.5354  -22.0332  -12.3539 C   0  0  0  0  0  0  0  0  0  0  0  0
   21.8769  -21.3067  -12.4602 C   0  0  2  0  0  0  0  0  0  0  0  0
   22.7427  -22.1375  -13.3835 C   0  0  0  0  0  0  0  0  0  0  0  0
   22.5544  -21.3057  -11.1043 C   0  0  2  0  0  0  0  0  0  0  0  0
   21.6745  -20.5633  -10.2211 N   0  0  0  0  0  0  0  0  0  0  0  0
   23.8549  -20.5947  -11.1454 C   0  0  0  0  0  0  0  0  0  0  0  0
   23.9078  -19.3702  -11.3230 O   0  0  0  0  0  0  0  0  0  0  0  0
   25.0938  -21.3131  -10.9793 N   0  0  0  0  0  0  0  0  0  0  0  0
   26.3707  -20.6693  -11.0909 C   0  0  1  0  0  0  0  0  0  0  0  0
   27.3820  -21.0949  -10.0640 C   0  0  0  0  0  0  0  0  0  0  0  0
   27.2976  -20.4413   -8.7717 C   0  0  0  0  0  0  0  0  0  0  0  0
   26.3299  -19.5510   -8.3527 C   0  0  0  0  0  0  0  0  0  0  0  0
   26.5936  -19.1421   -7.0989 N   0  0  0  0  0  0  0  0  0  0  0  0
   27.7162  -19.7387   -6.6677 C   0  0  0  0  0  0  0  0  0  0  0  0
   28.3670  -19.6351   -5.4597 C   0  0  0  0  0  0  0  0  0  0  0  0
   29.5143  -20.3792   -5.2840 C   0  0  0  0  0  0  0  0  0  0  0  0
   29.9941  -21.2054   -6.2961 C   0  0  0  0  0  0  0  0  0  0  0  0
   29.3102  -21.2725   -7.4776 C   0  0  0  0  0  0  0  0  0  0  0  0
   28.1665  -20.5579   -7.7121 C   0  0  0  0  0  0  0  0  0  0  0  0
   26.8839  -20.7708  -12.4726 C   0  0  0  0  0  0  0  0  0  0  0  0
   26.9197  -21.9048  -13.0124 O   0  0  0  0  0  0  0  0  0  0  0  0
   28.1911  -18.3720  -15.0493 C   0  0  0  0  0  0  0  0  0  0  0  0
   27.6885  -19.7599  -14.6345 C   0  0  2  0  0  0  0  0  0  0  0  0
   27.3389  -19.6719  -13.2304 N   0  0  0  0  0  0  0  0  0  0  0  0
   28.7154  -20.7670  -14.9050 C   0  0  0  0  0  0  0  0  0  0  0  0
   29.3541  -21.3255  -13.9794 O   0  0  0  0  0  0  0  0  0  0  0  0
   29.0091  -21.1312  -16.2091 O   0  0  0  0  0  0  0  0  0  0  0  0
  2  1  1  0
  3  2  1  0
  3  5  1  0
  3  4  1  6
  5  7  1  0
  5  6  1  1
  7  8  2  0
  9 10  1  0
  9  7  1  0
 10 11  1  1
 11 12  1  0
 12 20  1  0
 13 14  1  0
 13 12  2  0
 14 15  1  0
 15 20  2  0
 15 16  1  0
 16 17  2  0
 17 18  1  0
 19 18  2  0
 20 19  1  0
 21 10  1  0
 22 21  2  0
 24 23  1  1
 24 26  1  0
 24 25  1  0
 25 21  1  0
 26 28  1  0
 27 26  2  0
M  END
$$$$
