IWA.pdb
     RDKit          3D

 28 29  0  0  1  0  0  0  0  0999 V2000
   22.2583  -20.7075  -14.5418 C   0  0  0  0  0  0  0  0  0  0  0  0
   23.0413  -20.5933  -13.2686 C   0  0  0  0  0  0  0  0  0  0  0  0
   24.0350  -19.4341  -13.3559 C   0  0  2  0  0  0  0  0  0  0  0  0
   23.9660  -18.9161  -14.7768 C   0  0  0  0  0  0  0  0  0  0  0  0
   25.4402  -19.9629  -13.1480 C   0  0  2  0  0  0  0  0  0  0  0  0
   25.6064  -21.0378  -14.1084 N   0  0  0  0  0  0  0  0  0  0  0  0
   25.6104  -20.5399  -11.7928 C   0  0  0  0  0  0  0  0  0  0  0  0
   25.2173  -21.6851  -11.5325 O   0  0  0  0  0  0  0  0  0  0  0  0
   26.2396  -19.7802  -10.7414 N   0  0  0  0  0  0  0  0  0  0  0  0
   26.4054  -20.3028   -9.4159 C   0  0  1  0  0  0  0  0  0  0  0  0
   27.5009  -19.6554   -8.6166 C   0  0  0  0  0  0  0  0  0  0  0  0
   27.7680  -20.2300   -7.3117 C   0  0  0  0  0  0  0  0  0  0  0  0
   27.8205  -21.5709   -6.9894 C   0  0  0  0  0  0  0  0  0  0  0  0
   28.0752  -21.7185   -5.6772 N   0  0  0  0  0  0  0  0  0  0  0  0
   28.1950  -20.5066   -5.1124 C   0  0  0  0  0  0  0  0  0  0  0  0
   28.4576  -20.1592   -3.8071 C   0  0  0  0  0  0  0  0  0  0  0  0
   28.5339  -18.8163   -3.5042 C   0  0  0  0  0  0  0  0  0  0  0  0
   28.3509  -17.8488   -4.4879 C   0  0  0  0  0  0  0  0  0  0  0  0
   28.0922  -18.2468   -5.7696 C   0  0  0  0  0  0  0  0  0  0  0  0
   28.0038  -19.5639   -6.1319 C   0  0  0  0  0  0  0  0  0  0  0  0
   25.1129  -20.3223   -8.7006 C   0  0  0  0  0  0  0  0  0  0  0  0
   24.4637  -19.2499   -8.6150 O   0  0  0  0  0  0  0  0  0  0  0  0
   22.3454  -22.3869   -8.0759 C   0  0  0  0  0  0  0  0  0  0  0  0
   23.3221  -21.4595   -7.3431 C   0  0  2  0  0  0  0  0  0  0  0  0
   24.5560  -21.4724   -8.1037 N   0  0  0  0  0  0  0  0  0  0  0  0
   23.4987  -21.9078   -5.9611 C   0  0  0  0  0  0  0  0  0  0  0  0
   22.5707  -21.8349   -5.1184 O   0  0  0  0  0  0  0  0  0  0  0  0
   24.7132  -22.4303   -5.5470 O   0  0  0  0  0  0  0  0  0  0  0  0
  2  1  1  0
  3  2  1  0
  3  5  1  0
  3  4  1  6
  5  7  1  0
  5  6  1  6
  7  8  2  0
  9 10  1  0
  9  7  1  0
 10 11  1  1
 11 12  1  0
 12 20  1  0
 13 14  1  0
 13 12  2  0
 14 15  1  0
 15 20  2  0
 15 16  1  0
 16 17  2  0
 17 18  1  0
 19 18  2  0
 20 19  1  0
 21 10  1  0
 22 21  2  0
 24 23  1  6
 24 26  1  0
 24 25  1  0
 25 21  1  0
 26 28  1  0
 27 26  2  0
M  END
$$$$
