IWA.pdb
     RDKit          3D

 28 29  0  0  1  0  0  0  0  0999 V2000
   27.8578  -22.0173  -19.6705 C   0  0  0  0  0  0  0  0  0  0  0  0
   28.8303  -22.6604  -18.7283 C   0  0  0  0  0  0  0  0  0  0  0  0
   28.1477  -22.9891  -17.3998 C   0  0  2  0  0  0  0  0  0  0  0  0
   27.0997  -24.0385  -17.7041 C   0  0  0  0  0  0  0  0  0  0  0  0
   27.4103  -21.7630  -16.8992 C   0  0  2  0  0  0  0  0  0  0  0  0
   28.4003  -20.7044  -16.8306 N   0  0  0  0  0  0  0  0  0  0  0  0
   26.8762  -21.9690  -15.5314 C   0  0  0  0  0  0  0  0  0  0  0  0
   26.0407  -22.8530  -15.2987 O   0  0  0  0  0  0  0  0  0  0  0  0
   27.3175  -21.1431  -14.4352 N   0  0  0  0  0  0  0  0  0  0  0  0
   26.6692  -21.1619  -13.1558 C   0  0  1  0  0  0  0  0  0  0  0  0
   27.4285  -20.4757  -12.0554 C   0  0  0  0  0  0  0  0  0  0  0  0
   26.7668  -20.4066  -10.7663 C   0  0  0  0  0  0  0  0  0  0  0  0
   25.4142  -20.2622  -10.5335 C   0  0  0  0  0  0  0  0  0  0  0  0
   25.1776  -20.2202   -9.2103 N   0  0  0  0  0  0  0  0  0  0  0  0
   26.3412  -20.3337   -8.5507 C   0  0  0  0  0  0  0  0  0  0  0  0
   26.5956  -20.3481   -7.1984 C   0  0  0  0  0  0  0  0  0  0  0  0
   27.9065  -20.4867   -6.7943 C   0  0  0  0  0  0  0  0  0  0  0  0
   28.9339  -20.6075   -7.7254 C   0  0  0  0  0  0  0  0  0  0  0  0
   28.6278  -20.5871   -9.0573 C   0  0  0  0  0  0  0  0  0  0  0  0
   27.3466  -20.4517   -9.5201 C   0  0  0  0  0  0  0  0  0  0  0  0
   25.2768  -20.6822  -13.2728 C   0  0  0  0  0  0  0  0  0  0  0  0
   25.0855  -19.4810  -13.5878 O   0  0  0  0  0  0  0  0  0  0  0  0
   22.1210  -22.1574  -14.1468 C   0  0  0  0  0  0  0  0  0  0  0  0
   22.7856  -21.0496  -13.3211 C   0  0  2  0  0  0  0  0  0  0  0  0
   24.1409  -21.4887  -13.0529 N   0  0  0  0  0  0  0  0  0  0  0  0
   22.0145  -20.8008  -12.1023 C   0  0  0  0  0  0  0  0  0  0  0  0
   22.4221  -21.1724  -10.9743 O   0  0  0  0  0  0  0  0  0  0  0  0
   20.7989  -20.1394  -12.1686 O   0  0  0  0  0  0  0  0  0  0  0  0
  2  1  1  0
  3  2  1  0
  3  5  1  0
  3  4  1  6
  5  7  1  0
  5  6  1  1
  7  8  2  0
  9 10  1  0
  9  7  1  0
 10 11  1  1
 11 12  1  0
 12 20  1  0
 13 14  1  0
 13 12  2  0
 14 15  1  0
 15 20  2  0
 15 16  1  0
 16 17  2  0
 17 18  1  0
 19 18  2  0
 20 19  1  0
 21 10  1  0
 22 21  2  0
 24 23  1  6
 24 26  1  0
 24 25  1  0
 25 21  1  0
 26 28  1  0
 27 26  2  0
M  END
$$$$
