DGK.pdb
     RDKit          3D

 22 21  0  0  1  0  0  0  0  0999 V2000
   11.1452  -17.5481   18.6454 N   0  0  0  0  0  0  0  0  0  0  0  0
    9.9592  -16.9390   17.9553 C   0  0  1  0  0  0  0  0  0  0  0  0
    9.4028  -17.9020   16.9741 C   0  0  0  0  0  0  0  0  0  0  0  0
   10.1557  -18.0339   15.7236 C   0  0  0  0  0  0  0  0  0  0  0  0
   11.3301  -17.5948   15.6362 O   0  0  0  0  0  0  0  0  0  0  0  0
    9.0536  -16.6562   19.1207 C   0  0  0  0  0  0  0  0  0  0  0  0
    8.0093  -15.9255   18.9053 O   0  0  0  0  0  0  0  0  0  0  0  0
    9.6241  -18.6331   14.6093 O   0  0  0  0  0  0  0  0  0  0  0  0
    9.1987  -17.0871   20.4410 N   0  0  0  0  0  0  0  0  0  0  0  0
    8.1863  -16.8432   21.4512 C   0  0  0  0  0  0  0  0  0  0  0  0
    8.6272  -15.9604   22.5507 C   0  0  0  0  0  0  0  0  0  0  0  0
    9.8402  -16.0525   22.8837 O   0  0  0  0  0  0  0  0  0  0  0  0
    7.8142  -15.0485   23.2299 N   0  0  0  0  0  0  0  0  0  0  0  0
    8.1230  -14.4997   24.5470 C   0  0  1  0  0  0  0  0  0  0  0  0
    6.9131  -13.9510   25.2102 C   0  0  0  0  0  0  0  0  0  0  0  0
    7.2388  -12.8494   26.1770 C   0  0  0  0  0  0  0  0  0  0  0  0
    6.0205  -12.1143   26.6828 C   0  0  0  0  0  0  0  0  0  0  0  0
    6.5499  -10.9802   27.5720 C   0  0  0  0  0  0  0  0  0  0  0  0
    5.4512  -10.1127   27.9517 N   0  0  0  0  0  0  0  0  0  0  0  0
    8.8092  -15.5236   25.3388 C   0  0  0  0  0  0  0  0  0  0  0  0
    8.3883  -16.8645   25.2545 O   0  0  0  0  0  0  0  0  0  0  0  0
    9.7741  -15.3263   26.1191 O   0  0  0  0  0  0  0  0  0  0  0  0
  2  3  1  0
  2  1  1  1
  3  4  1  0
  4  5  2  0
  4  8  1  0
  6  7  2  0
  6  2  1  0
  9  6  1  0
 10  9  1  0
 10 11  1  0
 11 12  2  0
 13 11  1  0
 13 14  1  0
 14 15  1  1
 15 16  1  0
 16 17  1  0
 17 18  1  0
 18 19  1  0
 20 21  1  0
 20 14  1  0
 22 20  2  0
M  END
$$$$
