DGK.pdb
     RDKit          3D

 22 21  0  0  1  0  0  0  0  0999 V2000
   10.3082  -17.4964   18.9736 N   0  0  0  0  0  0  0  0  0  0  0  0
   10.6273  -18.4266   20.1079 C   0  0  1  0  0  0  0  0  0  0  0  0
   12.0490  -18.2679   20.4996 C   0  0  0  0  0  0  0  0  0  0  0  0
   13.0296  -18.5996   19.4621 C   0  0  0  0  0  0  0  0  0  0  0  0
   12.7275  -19.3797   18.5241 O   0  0  0  0  0  0  0  0  0  0  0  0
    9.6474  -17.9670   21.1502 C   0  0  0  0  0  0  0  0  0  0  0  0
    9.6108  -18.6167   22.2671 O   0  0  0  0  0  0  0  0  0  0  0  0
   14.3009  -18.0826   19.4650 O   0  0  0  0  0  0  0  0  0  0  0  0
    8.7447  -16.9049   21.0664 N   0  0  0  0  0  0  0  0  0  0  0  0
    7.9097  -16.5077   22.1845 C   0  0  0  0  0  0  0  0  0  0  0  0
    8.6488  -15.8853   23.3021 C   0  0  0  0  0  0  0  0  0  0  0  0
    9.8949  -15.7680   23.1461 O   0  0  0  0  0  0  0  0  0  0  0  0
    8.0769  -15.4244   24.4913 N   0  0  0  0  0  0  0  0  0  0  0  0
    8.7926  -14.6404   25.4935 C   0  0  1  0  0  0  0  0  0  0  0  0
    7.8592  -13.9462   26.4163 C   0  0  0  0  0  0  0  0  0  0  0  0
    7.1848  -12.7697   25.7719 C   0  0  0  0  0  0  0  0  0  0  0  0
    6.2557  -12.0262   26.7018 C   0  0  0  0  0  0  0  0  0  0  0  0
    5.6587  -10.8789   25.8746 C   0  0  0  0  0  0  0  0  0  0  0  0
    4.7411  -10.1167   26.6998 N   0  0  0  0  0  0  0  0  0  0  0  0
    9.7528  -15.5090   26.1787 C   0  0  0  0  0  0  0  0  0  0  0  0
    9.4424  -16.8682   26.3755 O   0  0  0  0  0  0  0  0  0  0  0  0
   10.8716  -15.1573   26.6300 O   0  0  0  0  0  0  0  0  0  0  0  0
  2  3  1  0
  2  1  1  6
  3  4  1  0
  4  5  2  0
  4  8  1  0
  6  7  2  0
  6  2  1  0
  9  6  1  0
 10  9  1  0
 10 11  1  0
 11 12  2  0
 13 11  1  0
 13 14  1  0
 14 15  1  1
 15 16  1  0
 16 17  1  0
 17 18  1  0
 18 19  1  0
 20 21  1  0
 20 14  1  0
 22 20  2  0
M  END
$$$$
