DGK.pdb
     RDKit          3D

 22 21  0  0  1  0  0  0  0  0999 V2000
   10.4524  -19.3873   19.1880 N   0  0  0  0  0  0  0  0  0  0  0  0
   10.9216  -18.1125   18.5489 C   0  0  1  0  0  0  0  0  0  0  0  0
   10.4253  -18.0409   17.1531 C   0  0  0  0  0  0  0  0  0  0  0  0
   11.3765  -18.4678   16.1230 C   0  0  0  0  0  0  0  0  0  0  0  0
   11.7908  -19.6539   16.0887 O   0  0  0  0  0  0  0  0  0  0  0  0
   10.3235  -17.0848   19.4676 C   0  0  0  0  0  0  0  0  0  0  0  0
   10.8939  -15.9262   19.5241 O   0  0  0  0  0  0  0  0  0  0  0  0
   11.8506  -17.6084   15.1639 O   0  0  0  0  0  0  0  0  0  0  0  0
    9.2057  -17.2227   20.2931 N   0  0  0  0  0  0  0  0  0  0  0  0
    8.8207  -16.2045   21.2523 C   0  0  0  0  0  0  0  0  0  0  0  0
    9.6810  -16.1452   22.4518 C   0  0  0  0  0  0  0  0  0  0  0  0
   10.8632  -16.5605   22.3077 O   0  0  0  0  0  0  0  0  0  0  0  0
    9.2872  -15.6687   23.7055 N   0  0  0  0  0  0  0  0  0  0  0  0
   10.1555  -15.6371   24.8787 C   0  0  1  0  0  0  0  0  0  0  0  0
    9.5252  -14.9082   26.0084 C   0  0  0  0  0  0  0  0  0  0  0  0
   10.3903  -14.8936   27.2354 C   0  0  0  0  0  0  0  0  0  0  0  0
    9.7499  -14.1990   28.4137 C   0  0  0  0  0  0  0  0  0  0  0  0
   10.7362  -14.3501   29.5805 C   0  0  0  0  0  0  0  0  0  0  0  0
   10.2201  -13.6500   30.7413 N   0  0  0  0  0  0  0  0  0  0  0  0
   10.5488  -17.0076   25.2150 C   0  0  0  0  0  0  0  0  0  0  0  0
   11.8761  -17.2741   25.6019 O   0  0  0  0  0  0  0  0  0  0  0  0
    9.7978  -18.0148   25.1942 O   0  0  0  0  0  0  0  0  0  0  0  0
  2  3  1  0
  2  1  1  1
  3  4  1  0
  4  5  2  0
  4  8  1  0
  6  7  2  0
  6  2  1  0
  9  6  1  0
 10  9  1  0
 10 11  1  0
 11 12  2  0
 13 11  1  0
 13 14  1  0
 14 15  1  1
 15 16  1  0
 16 17  1  0
 17 18  1  0
 18 19  1  0
 20 21  1  0
 20 14  1  0
 22 20  2  0
M  END
$$$$
