DGK.pdb
     RDKit          3D

 22 21  0  0  1  0  0  0  0  0999 V2000
   14.1854  -17.3653   18.6545 N   0  0  0  0  0  0  0  0  0  0  0  0
   13.0279  -16.8736   17.8346 C   0  0  1  0  0  0  0  0  0  0  0  0
   12.8658  -17.7300   16.6346 C   0  0  0  0  0  0  0  0  0  0  0  0
   13.7732  -17.4348   15.5221 C   0  0  0  0  0  0  0  0  0  0  0  0
   15.0056  -17.2930   15.7238 O   0  0  0  0  0  0  0  0  0  0  0  0
   11.9009  -16.9799   18.8227 C   0  0  0  0  0  0  0  0  0  0  0  0
   10.8553  -16.2470   18.6212 O   0  0  0  0  0  0  0  0  0  0  0  0
   13.3283  -17.3024   14.2306 O   0  0  0  0  0  0  0  0  0  0  0  0
   11.8352  -17.7846   19.9621 N   0  0  0  0  0  0  0  0  0  0  0  0
   10.6692  -17.8121   20.8250 C   0  0  0  0  0  0  0  0  0  0  0  0
   10.8164  -17.0281   22.0685 C   0  0  0  0  0  0  0  0  0  0  0  0
   11.9823  -16.6303   22.3387 O   0  0  0  0  0  0  0  0  0  0  0  0
    9.7776  -16.7005   22.9445 N   0  0  0  0  0  0  0  0  0  0  0  0
    9.9770  -16.1272   24.2723 C   0  0  1  0  0  0  0  0  0  0  0  0
    8.7912  -16.3320   25.1421 C   0  0  0  0  0  0  0  0  0  0  0  0
    8.5272  -17.7839   25.4192 C   0  0  0  0  0  0  0  0  0  0  0  0
    7.2903  -18.0212   26.2525 C   0  0  0  0  0  0  0  0  0  0  0  0
    7.2084  -19.5395   26.4648 C   0  0  0  0  0  0  0  0  0  0  0  0
    6.0618  -19.8484   27.2977 N   0  0  0  0  0  0  0  0  0  0  0  0
   11.2168  -16.6632   24.8394 C   0  0  0  0  0  0  0  0  0  0  0  0
   11.7128  -17.8987   24.3813 O   0  0  0  0  0  0  0  0  0  0  0  0
   11.9155  -16.1165   25.7293 O   0  0  0  0  0  0  0  0  0  0  0  0
  2  3  1  0
  2  1  1  1
  3  4  1  0
  4  5  2  0
  4  8  1  0
  6  7  2  0
  6  2  1  0
  9  6  1  0
 10  9  1  0
 10 11  1  0
 11 12  2  0
 13 11  1  0
 13 14  1  0
 14 15  1  1
 15 16  1  0
 16 17  1  0
 17 18  1  0
 18 19  1  0
 20 21  1  0
 20 14  1  0
 22 20  2  0
M  END
$$$$
