DGK.pdb
     RDKit          3D

 22 21  0  0  1  0  0  0  0  0999 V2000
    9.2250  -14.7879   17.1210 N   0  0  0  0  0  0  0  0  0  0  0  0
    8.9865  -16.2526   17.3476 C   0  0  1  0  0  0  0  0  0  0  0  0
   10.2632  -16.9944   17.2082 C   0  0  0  0  0  0  0  0  0  0  0  0
   10.7440  -17.1693   15.8347 C   0  0  0  0  0  0  0  0  0  0  0  0
   11.6181  -16.4003   15.3614 O   0  0  0  0  0  0  0  0  0  0  0  0
    8.4274  -16.2477   18.7423 C   0  0  0  0  0  0  0  0  0  0  0  0
    7.1422  -16.2028   18.8733 O   0  0  0  0  0  0  0  0  0  0  0  0
   10.2716  -18.1639   15.0155 O   0  0  0  0  0  0  0  0  0  0  0  0
    9.1330  -16.2817   19.9469 N   0  0  0  0  0  0  0  0  0  0  0  0
    8.4660  -16.3032   21.2351 C   0  0  0  0  0  0  0  0  0  0  0  0
    9.3708  -16.1257   22.3895 C   0  0  0  0  0  0  0  0  0  0  0  0
   10.6024  -16.2640   22.1553 O   0  0  0  0  0  0  0  0  0  0  0  0
    8.9676  -15.8188   23.6921 N   0  0  0  0  0  0  0  0  0  0  0  0
    9.8723  -15.7596   24.8364 C   0  0  1  0  0  0  0  0  0  0  0  0
    9.1606  -15.3664   26.0788 C   0  0  0  0  0  0  0  0  0  0  0  0
   10.0848  -15.2488   27.2563 C   0  0  0  0  0  0  0  0  0  0  0  0
    9.8231  -14.0278   28.1056 C   0  0  0  0  0  0  0  0  0  0  0  0
   10.8480  -14.0797   29.2476 C   0  0  0  0  0  0  0  0  0  0  0  0
   10.6513  -12.9404   30.1236 N   0  0  0  0  0  0  0  0  0  0  0  0
   10.5801  -17.0373   24.9484 C   0  0  0  0  0  0  0  0  0  0  0  0
   11.9540  -17.0455   25.2563 O   0  0  0  0  0  0  0  0  0  0  0  0
   10.0723  -18.1760   24.7920 O   0  0  0  0  0  0  0  0  0  0  0  0
  2  3  1  0
  2  1  1  1
  3  4  1  0
  4  5  2  0
  4  8  1  0
  6  7  2  0
  6  2  1  0
  9  6  1  0
 10  9  1  0
 10 11  1  0
 11 12  2  0
 13 11  1  0
 13 14  1  0
 14 15  1  1
 15 16  1  0
 16 17  1  0
 17 18  1  0
 18 19  1  0
 20 21  1  0
 20 14  1  0
 22 20  2  0
M  END
$$$$
