DGK.pdb
     RDKit          3D

 22 21  0  0  1  0  0  0  0  0999 V2000
   10.7489  -19.1089   19.5928 N   0  0  0  0  0  0  0  0  0  0  0  0
   10.7604  -17.7916   18.8727 C   0  0  1  0  0  0  0  0  0  0  0  0
   10.1821  -17.9579   17.5171 C   0  0  0  0  0  0  0  0  0  0  0  0
   11.0797  -18.5409   16.5159 C   0  0  0  0  0  0  0  0  0  0  0  0
   12.2465  -18.8875   16.8292 O   0  0  0  0  0  0  0  0  0  0  0  0
    9.9306  -16.9444   19.7955 C   0  0  0  0  0  0  0  0  0  0  0  0
   10.0182  -15.6606   19.6724 O   0  0  0  0  0  0  0  0  0  0  0  0
   10.6954  -18.7334   15.2126 O   0  0  0  0  0  0  0  0  0  0  0  0
    9.0578  -17.3734   20.7976 N   0  0  0  0  0  0  0  0  0  0  0  0
    8.1922  -16.4569   21.5157 C   0  0  0  0  0  0  0  0  0  0  0  0
    8.8037  -15.8665   22.7241 C   0  0  0  0  0  0  0  0  0  0  0  0
    9.3705  -16.6738   23.5100 O   0  0  0  0  0  0  0  0  0  0  0  0
    8.8015  -14.5068   23.0484 N   0  0  0  0  0  0  0  0  0  0  0  0
    8.6515  -13.9893   24.4053 C   0  0  1  0  0  0  0  0  0  0  0  0
    7.3517  -13.2950   24.5871 C   0  0  0  0  0  0  0  0  0  0  0  0
    7.1811  -12.7518   25.9764 C   0  0  0  0  0  0  0  0  0  0  0  0
    5.9290  -11.9251   26.1486 C   0  0  0  0  0  0  0  0  0  0  0  0
    6.0332  -11.2850   27.5402 C   0  0  0  0  0  0  0  0  0  0  0  0
    4.8262  -10.5286   27.8142 N   0  0  0  0  0  0  0  0  0  0  0  0
    8.8678  -15.0821   25.3566 C   0  0  0  0  0  0  0  0  0  0  0  0
    7.9303  -16.1296   25.4360 O   0  0  0  0  0  0  0  0  0  0  0  0
    9.8411  -15.1904   26.1440 O   0  0  0  0  0  0  0  0  0  0  0  0
  2  3  1  0
  2  1  1  1
  3  4  1  0
  4  5  2  0
  4  8  1  0
  6  7  2  0
  6  2  1  0
  9  6  1  0
 10  9  1  0
 10 11  1  0
 11 12  2  0
 13 11  1  0
 13 14  1  0
 14 15  1  6
 15 16  1  0
 16 17  1  0
 17 18  1  0
 18 19  1  0
 20 21  1  0
 20 14  1  0
 22 20  2  0
M  END
$$$$
