DGK.pdb
     RDKit          3D

 22 21  0  0  1  0  0  0  0  0999 V2000
   11.5725  -17.6511   19.0528 N   0  0  0  0  0  0  0  0  0  0  0  0
   10.6275  -16.7253   18.3431 C   0  0  1  0  0  0  0  0  0  0  0  0
   10.0877  -17.3929   17.1337 C   0  0  0  0  0  0  0  0  0  0  0  0
   11.0603  -18.1589   16.3492 C   0  0  0  0  0  0  0  0  0  0  0  0
   12.1675  -18.4845   16.8470 O   0  0  0  0  0  0  0  0  0  0  0  0
    9.6042  -16.4715   19.4138 C   0  0  0  0  0  0  0  0  0  0  0  0
    8.6587  -15.6298   19.1524 O   0  0  0  0  0  0  0  0  0  0  0  0
   10.8122  -18.5508   15.0576 O   0  0  0  0  0  0  0  0  0  0  0  0
    9.5419  -17.0373   20.6889 N   0  0  0  0  0  0  0  0  0  0  0  0
    8.4269  -16.8026   21.5870 C   0  0  0  0  0  0  0  0  0  0  0  0
    8.7292  -15.8804   22.7008 C   0  0  0  0  0  0  0  0  0  0  0  0
    9.8735  -15.9929   23.2192 O   0  0  0  0  0  0  0  0  0  0  0  0
    7.8577  -14.9117   23.2066 N   0  0  0  0  0  0  0  0  0  0  0  0
    7.9869  -14.3044   24.5279 C   0  0  1  0  0  0  0  0  0  0  0  0
    6.7902  -13.4998   24.8815 C   0  0  0  0  0  0  0  0  0  0  0  0
    6.8967  -12.8825   26.2460 C   0  0  0  0  0  0  0  0  0  0  0  0
    6.0423  -11.6488   26.4156 C   0  0  0  0  0  0  0  0  0  0  0  0
    6.2870  -11.1591   27.8500 C   0  0  0  0  0  0  0  0  0  0  0  0
    5.4687   -9.9891   28.1059 N   0  0  0  0  0  0  0  0  0  0  0  0
    8.2949  -15.3526   25.5039 C   0  0  0  0  0  0  0  0  0  0  0  0
    9.2840  -15.1241   26.4796 O   0  0  0  0  0  0  0  0  0  0  0  0
    7.7490  -16.4826   25.5672 O   0  0  0  0  0  0  0  0  0  0  0  0
  2  3  1  0
  2  1  1  1
  3  4  1  0
  4  5  2  0
  4  8  1  0
  6  7  2  0
  6  2  1  0
  9  6  1  0
 10  9  1  0
 10 11  1  0
 11 12  2  0
 13 11  1  0
 13 14  1  0
 14 15  1  1
 15 16  1  0
 16 17  1  0
 17 18  1  0
 18 19  1  0
 20 21  1  0
 20 14  1  0
 22 20  2  0
M  END
$$$$
