DGK.pdb
     RDKit          3D

 22 21  0  0  1  0  0  0  0  0999 V2000
    9.5501  -19.1692   19.4398 N   0  0  0  0  0  0  0  0  0  0  0  0
   10.5003  -18.0464   19.1395 C   0  0  1  0  0  0  0  0  0  0  0  0
   10.8141  -18.0313   17.6900 C   0  0  0  0  0  0  0  0  0  0  0  0
   12.0049  -18.7889   17.2948 C   0  0  0  0  0  0  0  0  0  0  0  0
   12.6237  -19.4898   18.1349 O   0  0  0  0  0  0  0  0  0  0  0  0
    9.7101  -16.8581   19.6099 C   0  0  0  0  0  0  0  0  0  0  0  0
   10.3195  -15.7200   19.6748 O   0  0  0  0  0  0  0  0  0  0  0  0
   12.4915  -18.7700   16.0117 O   0  0  0  0  0  0  0  0  0  0  0  0
    8.3698  -16.8223   20.0003 N   0  0  0  0  0  0  0  0  0  0  0  0
    7.7343  -15.6087   20.4784 C   0  0  0  0  0  0  0  0  0  0  0  0
    7.9958  -15.3072   21.9008 C   0  0  0  0  0  0  0  0  0  0  0  0
    9.1563  -15.5693   22.3192 O   0  0  0  0  0  0  0  0  0  0  0  0
    7.0698  -14.7610   22.7941 N   0  0  0  0  0  0  0  0  0  0  0  0
    7.4229  -14.1839   24.0879 C   0  0  1  0  0  0  0  0  0  0  0  0
    6.3444  -13.3073   24.6104 C   0  0  0  0  0  0  0  0  0  0  0  0
    6.6782  -12.7261   25.9539 C   0  0  0  0  0  0  0  0  0  0  0  0
    5.5760  -11.8680   26.5279 C   0  0  0  0  0  0  0  0  0  0  0  0
    6.0807  -11.3918   27.8974 C   0  0  0  0  0  0  0  0  0  0  0  0
    5.1257  -10.4594   28.4653 N   0  0  0  0  0  0  0  0  0  0  0  0
    7.7922  -15.2651   25.0048 C   0  0  0  0  0  0  0  0  0  0  0  0
    8.8871  -15.0953   25.8735 O   0  0  0  0  0  0  0  0  0  0  0  0
    7.2131  -16.3758   25.1040 O   0  0  0  0  0  0  0  0  0  0  0  0
  2  3  1  0
  2  1  1  6
  3  4  1  0
  4  5  2  0
  4  8  1  0
  6  7  2  0
  6  2  1  0
  9  6  1  0
 10  9  1  0
 10 11  1  0
 11 12  2  0
 13 11  1  0
 13 14  1  0
 14 15  1  1
 15 16  1  0
 16 17  1  0
 17 18  1  0
 18 19  1  0
 20 21  1  0
 20 14  1  0
 22 20  2  0
M  END
$$$$
