DGK.pdb
     RDKit          3D

 22 21  0  0  1  0  0  0  0  0999 V2000
    7.2411  -18.4700   20.0003 N   0  0  0  0  0  0  0  0  0  0  0  0
    8.2439  -17.4737   19.4945 C   0  0  1  0  0  0  0  0  0  0  0  0
    8.0356  -17.2475   18.0436 C   0  0  0  0  0  0  0  0  0  0  0  0
    8.9692  -17.9464   17.1561 C   0  0  0  0  0  0  0  0  0  0  0  0
    9.1910  -19.1749   17.3025 O   0  0  0  0  0  0  0  0  0  0  0  0
    7.9330  -16.2808   20.3537 C   0  0  0  0  0  0  0  0  0  0  0  0
    8.9105  -15.4942   20.6643 O   0  0  0  0  0  0  0  0  0  0  0  0
    9.6329  -17.3045   16.1408 O   0  0  0  0  0  0  0  0  0  0  0  0
    6.6949  -15.9034   20.8777 N   0  0  0  0  0  0  0  0  0  0  0  0
    6.5345  -14.7333   21.7205 C   0  0  0  0  0  0  0  0  0  0  0  0
    6.5635  -15.0210   23.1693 C   0  0  0  0  0  0  0  0  0  0  0  0
    6.4615  -14.0239   23.9349 O   0  0  0  0  0  0  0  0  0  0  0  0
    6.6894  -16.2915   23.7382 N   0  0  0  0  0  0  0  0  0  0  0  0
    7.3425  -16.5545   25.0171 C   0  0  1  0  0  0  0  0  0  0  0  0
    7.4311  -18.0096   25.2990 C   0  0  0  0  0  0  0  0  0  0  0  0
    7.9835  -18.2965   26.6653 C   0  0  0  0  0  0  0  0  0  0  0  0
    8.1657  -19.7698   26.9424 C   0  0  0  0  0  0  0  0  0  0  0  0
    8.5933  -19.8736   28.4133 C   0  0  0  0  0  0  0  0  0  0  0  0
    8.6352  -21.2694   28.8056 N   0  0  0  0  0  0  0  0  0  0  0  0
    8.6407  -15.8761   25.0354 C   0  0  0  0  0  0  0  0  0  0  0  0
    9.0548  -15.2002   26.1991 O   0  0  0  0  0  0  0  0  0  0  0  0
    9.4601  -15.8293   24.0838 O   0  0  0  0  0  0  0  0  0  0  0  0
  2  3  1  0
  2  1  1  1
  3  4  1  0
  4  5  2  0
  4  8  1  0
  6  7  2  0
  6  2  1  0
  9  6  1  0
 10  9  1  0
 10 11  1  0
 11 12  2  0
 13 11  1  0
 13 14  1  0
 14 15  1  6
 15 16  1  0
 16 17  1  0
 17 18  1  0
 18 19  1  0
 20 21  1  0
 20 14  1  0
 22 20  2  0
M  END
$$$$
