DGK.pdb
     RDKit          3D

 22 21  0  0  1  0  0  0  0  0999 V2000
    9.9189  -16.2964   18.1069 N   0  0  0  0  0  0  0  0  0  0  0  0
    8.5988  -15.6298   18.3654 C   0  0  1  0  0  0  0  0  0  0  0  0
    7.5939  -16.1154   17.3886 C   0  0  0  0  0  0  0  0  0  0  0  0
    7.9220  -15.8844   15.9790 C   0  0  0  0  0  0  0  0  0  0  0  0
    8.0608  -14.7153   15.5391 O   0  0  0  0  0  0  0  0  0  0  0  0
    8.3303  -16.0484   19.7834 C   0  0  0  0  0  0  0  0  0  0  0  0
    7.2678  -15.5843   20.3549 O   0  0  0  0  0  0  0  0  0  0  0  0
    8.0910  -16.9152   15.0888 O   0  0  0  0  0  0  0  0  0  0  0  0
    9.1006  -16.8916   20.5868 N   0  0  0  0  0  0  0  0  0  0  0  0
    8.6792  -17.2933   21.9158 C   0  0  0  0  0  0  0  0  0  0  0  0
    9.0905  -16.3649   22.9888 C   0  0  0  0  0  0  0  0  0  0  0  0
   10.2923  -15.9833   22.9618 O   0  0  0  0  0  0  0  0  0  0  0  0
    8.2595  -15.8876   24.0064 N   0  0  0  0  0  0  0  0  0  0  0  0
    8.7319  -15.1275   25.1599 C   0  0  1  0  0  0  0  0  0  0  0  0
    7.6049  -14.5543   25.9382 C   0  0  0  0  0  0  0  0  0  0  0  0
    7.4908  -13.0665   25.7714 C   0  0  0  0  0  0  0  0  0  0  0  0
    6.3384  -12.4626   26.5381 C   0  0  0  0  0  0  0  0  0  0  0  0
    6.3364  -10.9673   26.1900 C   0  0  0  0  0  0  0  0  0  0  0  0
    5.2185  -10.3205   26.8501 N   0  0  0  0  0  0  0  0  0  0  0  0
    9.6194  -15.9777   25.9572 C   0  0  0  0  0  0  0  0  0  0  0  0
    9.5837  -17.3745   25.7836 O   0  0  0  0  0  0  0  0  0  0  0  0
   10.4443  -15.5783   26.8168 O   0  0  0  0  0  0  0  0  0  0  0  0
  2  3  1  0
  2  1  1  6
  3  4  1  0
  4  5  2  0
  4  8  1  0
  6  7  2  0
  6  2  1  0
  9  6  1  0
 10  9  1  0
 10 11  1  0
 11 12  2  0
 13 11  1  0
 13 14  1  0
 14 15  1  1
 15 16  1  0
 16 17  1  0
 17 18  1  0
 18 19  1  0
 20 21  1  0
 20 14  1  0
 22 20  2  0
M  END
$$$$
