DGK.pdb
     RDKit          3D

 22 21  0  0  1  0  0  0  0  0999 V2000
    8.6580  -16.2924   17.2670 N   0  0  0  0  0  0  0  0  0  0  0  0
    8.7214  -14.7932   17.2209 C   0  0  1  0  0  0  0  0  0  0  0  0
    7.8137  -14.2868   16.1629 C   0  0  0  0  0  0  0  0  0  0  0  0
    8.1733  -14.6601   14.7920 C   0  0  0  0  0  0  0  0  0  0  0  0
    9.3550  -14.5303   14.3839 O   0  0  0  0  0  0  0  0  0  0  0  0
    8.2966  -14.4374   18.6176 C   0  0  0  0  0  0  0  0  0  0  0  0
    8.5970  -13.2583   19.0540 O   0  0  0  0  0  0  0  0  0  0  0  0
    7.2535  -15.1609   13.9051 O   0  0  0  0  0  0  0  0  0  0  0  0
    7.6056  -15.2360   19.5311 N   0  0  0  0  0  0  0  0  0  0  0  0
    7.2082  -14.7504   20.8393 C   0  0  0  0  0  0  0  0  0  0  0  0
    8.2263  -14.9427   21.8924 C   0  0  0  0  0  0  0  0  0  0  0  0
    9.3601  -15.3346   21.5030 O   0  0  0  0  0  0  0  0  0  0  0  0
    8.0272  -14.7223   23.2583 N   0  0  0  0  0  0  0  0  0  0  0  0
    9.0463  -14.9432   24.2800 C   0  0  1  0  0  0  0  0  0  0  0  0
    8.6034  -14.4564   25.6110 C   0  0  0  0  0  0  0  0  0  0  0  0
    9.6318  -14.6923   26.6793 C   0  0  0  0  0  0  0  0  0  0  0  0
    9.1625  -14.3039   28.0611 C   0  0  0  0  0  0  0  0  0  0  0  0
   10.3425  -14.5841   29.0026 C   0  0  0  0  0  0  0  0  0  0  0  0
   10.0009  -14.1528   30.3447 N   0  0  0  0  0  0  0  0  0  0  0  0
    9.4267  -16.3579   24.2728 C   0  0  0  0  0  0  0  0  0  0  0  0
   10.7725  -16.7162   24.4796 O   0  0  0  0  0  0  0  0  0  0  0  0
    8.6487  -17.3282   24.0935 O   0  0  0  0  0  0  0  0  0  0  0  0
  2  3  1  0
  2  1  1  1
  3  4  1  0
  4  5  2  0
  4  8  1  0
  6  7  2  0
  6  2  1  0
  9  6  1  0
 10  9  1  0
 10 11  1  0
 11 12  2  0
 13 11  1  0
 13 14  1  0
 14 15  1  1
 15 16  1  0
 16 17  1  0
 17 18  1  0
 18 19  1  0
 20 21  1  0
 20 14  1  0
 22 20  2  0
M  END
$$$$
