DGK.pdb
     RDKit          3D

 22 21  0  0  1  0  0  0  0  0999 V2000
   15.1388  -17.7350   17.1248 N   0  0  0  0  0  0  0  0  0  0  0  0
   15.9083  -18.4355   18.2069 C   0  0  1  0  0  0  0  0  0  0  0  0
   17.1147  -17.6456   18.5538 C   0  0  0  0  0  0  0  0  0  0  0  0
   18.2132  -17.7146   17.5860 C   0  0  0  0  0  0  0  0  0  0  0  0
   18.5472  -18.8139   17.0765 O   0  0  0  0  0  0  0  0  0  0  0  0
   14.8816  -18.5029   19.3020 C   0  0  0  0  0  0  0  0  0  0  0  0
   15.0737  -19.3575   20.2526 O   0  0  0  0  0  0  0  0  0  0  0  0
   18.9160  -16.6020   17.1967 O   0  0  0  0  0  0  0  0  0  0  0  0
   13.7146  -17.7465   19.4282 N   0  0  0  0  0  0  0  0  0  0  0  0
   12.8226  -17.8818   20.5644 C   0  0  0  0  0  0  0  0  0  0  0  0
   13.1979  -17.0572   21.7314 C   0  0  0  0  0  0  0  0  0  0  0  0
   14.2848  -16.4244   21.6371 O   0  0  0  0  0  0  0  0  0  0  0  0
   12.4484  -16.9290   22.9043 N   0  0  0  0  0  0  0  0  0  0  0  0
   12.7858  -16.0201   23.9958 C   0  0  1  0  0  0  0  0  0  0  0  0
   11.7060  -15.9597   25.0132 C   0  0  0  0  0  0  0  0  0  0  0  0
   12.0581  -15.0711   26.1711 C   0  0  0  0  0  0  0  0  0  0  0  0
   11.0133  -15.0631   27.2616 C   0  0  0  0  0  0  0  0  0  0  0  0
   11.5571  -14.1399   28.3612 C   0  0  0  0  0  0  0  0  0  0  0  0
   10.6216  -14.1076   29.4693 N   0  0  0  0  0  0  0  0  0  0  0  0
   14.0874  -16.4038   24.5478 C   0  0  0  0  0  0  0  0  0  0  0  0
   14.4359  -17.7660   24.6222 O   0  0  0  0  0  0  0  0  0  0  0  0
   14.9642  -15.6151   24.9815 O   0  0  0  0  0  0  0  0  0  0  0  0
  2  3  1  0
  2  1  1  6
  3  4  1  0
  4  5  2  0
  4  8  1  0
  6  7  2  0
  6  2  1  0
  9  6  1  0
 10  9  1  0
 10 11  1  0
 11 12  2  0
 13 11  1  0
 13 14  1  0
 14 15  1  1
 15 16  1  0
 16 17  1  0
 17 18  1  0
 18 19  1  0
 20 21  1  0
 20 14  1  0
 22 20  2  0
M  END
$$$$
