DGK.pdb
     RDKit          3D

 22 21  0  0  1  0  0  0  0  0999 V2000
    7.3508  -17.8608   19.7454 N   0  0  0  0  0  0  0  0  0  0  0  0
    8.4527  -18.0727   18.7480 C   0  0  1  0  0  0  0  0  0  0  0  0
    7.9964  -17.6497   17.4017 C   0  0  0  0  0  0  0  0  0  0  0  0
    7.0358  -18.5453   16.7513 C   0  0  0  0  0  0  0  0  0  0  0  0
    6.6857  -19.6175   17.3061 O   0  0  0  0  0  0  0  0  0  0  0  0
    9.5421  -17.2142   19.3260 C   0  0  0  0  0  0  0  0  0  0  0  0
   10.4687  -16.8009   18.5250 O   0  0  0  0  0  0  0  0  0  0  0  0
    6.4822  -18.2605   15.5283 O   0  0  0  0  0  0  0  0  0  0  0  0
    9.6907  -16.7971   20.6503 N   0  0  0  0  0  0  0  0  0  0  0  0
   10.8304  -16.0161   21.0933 C   0  0  0  0  0  0  0  0  0  0  0  0
   10.7422  -15.5558   22.4944 C   0  0  0  0  0  0  0  0  0  0  0  0
   11.7740  -15.0013   22.9621 O   0  0  0  0  0  0  0  0  0  0  0  0
    9.6203  -15.6852   23.3180 N   0  0  0  0  0  0  0  0  0  0  0  0
    9.4358  -14.9571   24.5699 C   0  0  1  0  0  0  0  0  0  0  0  0
    8.1939  -14.1435   24.5536 C   0  0  0  0  0  0  0  0  0  0  0  0
    8.0026  -13.3634   25.8222 C   0  0  0  0  0  0  0  0  0  0  0  0
    6.6989  -12.6027   25.8688 C   0  0  0  0  0  0  0  0  0  0  0  0
    6.6779  -11.8826   27.2246 C   0  0  0  0  0  0  0  0  0  0  0  0
    5.4763  -11.0761   27.3232 N   0  0  0  0  0  0  0  0  0  0  0  0
    9.4976  -15.9060   25.6843 C   0  0  0  0  0  0  0  0  0  0  0  0
    9.7899  -17.2594   25.4286 O   0  0  0  0  0  0  0  0  0  0  0  0
    9.3092  -15.6314   26.8959 O   0  0  0  0  0  0  0  0  0  0  0  0
  2  3  1  0
  2  1  1  1
  3  4  1  0
  4  5  2  0
  4  8  1  0
  6  7  2  0
  6  2  1  0
  9  6  1  0
 10  9  1  0
 10 11  1  0
 11 12  2  0
 13 11  1  0
 13 14  1  0
 14 15  1  6
 15 16  1  0
 16 17  1  0
 17 18  1  0
 18 19  1  0
 20 21  1  0
 20 14  1  0
 22 20  2  0
M  END
$$$$
