DGK.pdb
     RDKit          3D

 22 21  0  0  1  0  0  0  0  0999 V2000
   12.0768  -18.0430   19.6320 N   0  0  0  0  0  0  0  0  0  0  0  0
   11.6423  -18.7878   20.8610 C   0  0  1  0  0  0  0  0  0  0  0  0
   12.7083  -18.7192   21.8899 C   0  0  0  0  0  0  0  0  0  0  0  0
   13.9476  -18.0587   21.4708 C   0  0  0  0  0  0  0  0  0  0  0  0
   14.0466  -17.5561   20.3231 O   0  0  0  0  0  0  0  0  0  0  0  0
   10.3869  -18.0470   21.2258 C   0  0  0  0  0  0  0  0  0  0  0  0
    9.6536  -18.5382   22.1702 O   0  0  0  0  0  0  0  0  0  0  0  0
   15.0388  -17.9585   22.2971 O   0  0  0  0  0  0  0  0  0  0  0  0
    9.8938  -16.8692   20.6606 N   0  0  0  0  0  0  0  0  0  0  0  0
    8.6642  -16.2475   21.1150 C   0  0  0  0  0  0  0  0  0  0  0  0
    8.7209  -15.7312   22.4981 C   0  0  0  0  0  0  0  0  0  0  0  0
    9.7923  -15.9475   23.1275 O   0  0  0  0  0  0  0  0  0  0  0  0
    7.6958  -15.0326   23.1422 N   0  0  0  0  0  0  0  0  0  0  0  0
    7.8318  -14.4038   24.4527 C   0  0  1  0  0  0  0  0  0  0  0  0
    6.7688  -13.3947   24.6901 C   0  0  0  0  0  0  0  0  0  0  0  0
    6.9252  -12.6966   26.0101 C   0  0  0  0  0  0  0  0  0  0  0  0
    5.8221  -11.7070   26.3007 C   0  0  0  0  0  0  0  0  0  0  0  0
    6.1593  -11.0863   27.6639 C   0  0  0  0  0  0  0  0  0  0  0  0
    5.1544  -10.0975   28.0049 N   0  0  0  0  0  0  0  0  0  0  0  0
    7.8837  -15.4493   25.4776 C   0  0  0  0  0  0  0  0  0  0  0  0
    8.7518  -15.3021   26.5763 O   0  0  0  0  0  0  0  0  0  0  0  0
    7.2088  -16.5092   25.4825 O   0  0  0  0  0  0  0  0  0  0  0  0
  2  3  1  0
  2  1  1  6
  3  4  1  0
  4  5  2  0
  4  8  1  0
  6  7  2  0
  6  2  1  0
  9  6  1  0
 10  9  1  0
 10 11  1  0
 11 12  2  0
 13 11  1  0
 13 14  1  0
 14 15  1  1
 15 16  1  0
 16 17  1  0
 17 18  1  0
 18 19  1  0
 20 21  1  0
 20 14  1  0
 22 20  2  0
M  END
$$$$
