DGK.pdb
     RDKit          3D

 22 21  0  0  1  0  0  0  0  0999 V2000
    9.4624  -18.2645   20.8984 N   0  0  0  0  0  0  0  0  0  0  0  0
    8.5903  -17.2539   20.2115 C   0  0  1  0  0  0  0  0  0  0  0  0
    7.4829  -17.9454   19.5077 C   0  0  0  0  0  0  0  0  0  0  0  0
    7.8572  -18.6406   18.2730 C   0  0  0  0  0  0  0  0  0  0  0  0
    9.0668  -18.7879   17.9648 O   0  0  0  0  0  0  0  0  0  0  0  0
    8.1482  -16.4088   21.3726 C   0  0  0  0  0  0  0  0  0  0  0  0
    7.5451  -15.2962   21.1094 O   0  0  0  0  0  0  0  0  0  0  0  0
    6.9217  -19.1552   17.4108 O   0  0  0  0  0  0  0  0  0  0  0  0
    8.3117  -16.6728   22.7340 N   0  0  0  0  0  0  0  0  0  0  0  0
    7.8800  -15.7431   23.7608 C   0  0  0  0  0  0  0  0  0  0  0  0
    8.9819  -15.0090   24.4161 C   0  0  0  0  0  0  0  0  0  0  0  0
    9.7406  -14.3507   23.6535 O   0  0  0  0  0  0  0  0  0  0  0  0
    9.2347  -14.9899   25.7907 N   0  0  0  0  0  0  0  0  0  0  0  0
   10.3278  -14.2478   26.4116 C   0  0  1  0  0  0  0  0  0  0  0  0
   10.1679  -14.1660   27.8855 C   0  0  0  0  0  0  0  0  0  0  0  0
   10.3911  -15.4882   28.5609 C   0  0  0  0  0  0  0  0  0  0  0  0
   10.2214  -15.4330   30.0605 C   0  0  0  0  0  0  0  0  0  0  0  0
   10.5686  -16.8365   30.5772 C   0  0  0  0  0  0  0  0  0  0  0  0
   10.3916  -16.8775   32.0162 N   0  0  0  0  0  0  0  0  0  0  0  0
   11.6009  -14.8404   25.9944 C   0  0  0  0  0  0  0  0  0  0  0  0
   11.6139  -16.1273   25.4234 O   0  0  0  0  0  0  0  0  0  0  0  0
   12.7316  -14.3017   26.0959 O   0  0  0  0  0  0  0  0  0  0  0  0
  2  3  1  0
  2  1  1  1
  3  4  1  0
  4  5  2  0
  4  8  1  0
  6  7  2  0
  6  2  1  0
  9  6  1  0
 10  9  1  0
 10 11  1  0
 11 12  2  0
 13 11  1  0
 13 14  1  0
 14 15  1  1
 15 16  1  0
 16 17  1  0
 17 18  1  0
 18 19  1  0
 20 21  1  0
 20 14  1  0
 22 20  2  0
M  END
$$$$
