PNN.pdb
     RDKit          3D

 24 24  0  0  1  0  0  0  0  0999 V2000
    7.6595  -14.4320   19.6067 N   0  0  0  0  0  0  0  0  0  0  0  0
    6.5893  -13.4692   19.4147 C   0  0  0  0  0  0  0  0  0  0  0  0
    7.3325  -12.2174   19.0143 C   0  0  0  0  0  0  0  0  0  0  0  0
    8.5467  -12.7222   18.2684 C   0  0  0  0  0  0  0  0  0  0  0  0
    8.5703  -14.1646   18.4817 C   0  0  1  0  0  0  0  0  0  0  0  0
    9.8291  -14.8627   18.6334 C   0  0  0  0  0  0  0  0  0  0  0  0
   10.3335  -15.4251   17.6269 O   0  0  0  0  0  0  0  0  0  0  0  0
   15.3299  -14.2066   19.2589 N   0  0  0  0  0  0  0  0  0  0  0  0
   14.2742  -15.1339   19.4025 C   0  0  0  0  0  0  0  0  0  0  0  0
   14.5313  -16.3144   19.6952 O   0  0  0  0  0  0  0  0  0  0  0  0
   12.8823  -14.7042   19.2073 C   0  0  0  0  0  0  0  0  0  0  0  0
   11.8668  -15.5318   19.9566 C   0  0  2  0  0  0  0  0  0  0  0  0
   10.5605  -14.9674   19.8552 N   0  0  0  0  0  0  0  0  0  0  0  0
   12.3039  -15.7708   21.3682 C   0  0  0  0  0  0  0  0  0  0  0  0
   12.5482  -14.7851   22.1064 O   0  0  0  0  0  0  0  0  0  0  0  0
   11.2438  -20.2121   25.3651 N   0  0  0  0  0  0  0  0  0  0  0  0
   11.1878  -18.8655   24.9292 C   0  0  0  0  0  0  0  0  0  0  0  0
   10.9483  -17.9743   25.7692 O   0  0  0  0  0  0  0  0  0  0  0  0
   11.4112  -18.5453   23.5093 C   0  0  0  0  0  0  0  0  0  0  0  0
   12.3610  -17.4257   23.2506 C   0  0  2  0  0  0  0  0  0  0  0  0
   12.4372  -17.0944   21.8513 N   0  0  0  0  0  0  0  0  0  0  0  0
   13.7257  -17.6343   23.8011 C   0  0  0  0  0  0  0  0  0  0  0  0
   13.9627  -17.8623   25.0086 O   0  0  0  0  0  0  0  0  0  0  0  0
   14.8091  -17.5746   22.9439 O   0  0  0  0  0  0  0  0  0  0  0  0
  1  5  1  0
  1  2  1  0
  2  3  1  0
  4  3  1  0
  5  4  1  0
  6 13  1  0
  5  6  1  1
  7  6  2  0
  8  9  1  0
  9 11  1  0
 10  9  2  0
 12 11  1  1
 12 13  1  0
 14 12  1  0
 15 14  2  0
 16 17  1  0
 17 19  1  0
 17 18  2  0
 20 19  1  6
 20 22  1  0
 20 21  1  0
 21 14  1  0
 22 24  1  0
 23 22  2  0
M  END
$$$$
