PNN.pdb
     RDKit          3D

 24 24  0  0  1  0  0  0  0  0999 V2000
    9.3080  -13.9672   18.7405 N   0  0  0  0  0  0  0  0  0  0  0  0
    8.8886  -12.7689   18.0352 C   0  0  0  0  0  0  0  0  0  0  0  0
    7.4565  -12.6004   18.4827 C   0  0  0  0  0  0  0  0  0  0  0  0
    7.4345  -13.1498   19.8909 C   0  0  0  0  0  0  0  0  0  0  0  0
    8.7259  -13.7996   20.0821 C   0  0  1  0  0  0  0  0  0  0  0  0
    8.8275  -15.0121   20.8659 C   0  0  0  0  0  0  0  0  0  0  0  0
    8.3255  -15.0298   22.0198 O   0  0  0  0  0  0  0  0  0  0  0  0
    7.4928  -17.3014   19.4637 N   0  0  0  0  0  0  0  0  0  0  0  0
    8.1840  -18.5263   19.5933 C   0  0  0  0  0  0  0  0  0  0  0  0
    7.8154  -19.5109   18.9300 O   0  0  0  0  0  0  0  0  0  0  0  0
    9.3309  -18.6339   20.5061 C   0  0  0  0  0  0  0  0  0  0  0  0
    9.6497  -17.3624   21.2541 C   0  0  2  0  0  0  0  0  0  0  0  0
    9.4627  -16.2139   20.4288 N   0  0  0  0  0  0  0  0  0  0  0  0
   11.0086  -17.4319   21.8782 C   0  0  0  0  0  0  0  0  0  0  0  0
   11.3935  -18.5150   22.3829 O   0  0  0  0  0  0  0  0  0  0  0  0
   14.9442  -16.3476   19.9540 N   0  0  0  0  0  0  0  0  0  0  0  0
   14.2272  -15.2620   20.5144 C   0  0  0  0  0  0  0  0  0  0  0  0
   13.7913  -14.3758   19.7516 O   0  0  0  0  0  0  0  0  0  0  0  0
   14.0111  -15.2001   21.9696 C   0  0  0  0  0  0  0  0  0  0  0  0
   13.1298  -16.2645   22.5287 C   0  0  2  0  0  0  0  0  0  0  0  0
   11.8376  -16.2849   21.8935 N   0  0  0  0  0  0  0  0  0  0  0  0
   12.9722  -16.2226   24.0060 C   0  0  0  0  0  0  0  0  0  0  0  0
   11.9126  -15.8933   24.5847 O   0  0  0  0  0  0  0  0  0  0  0  0
   14.0495  -16.5622   24.8036 O   0  0  0  0  0  0  0  0  0  0  0  0
  1  5  1  0
  1  2  1  0
  2  3  1  0
  4  3  1  0
  5  4  1  0
  6 13  1  0
  5  6  1  6
  7  6  2  0
  8  9  1  0
  9 11  1  0
 10  9  2  0
 12 11  1  6
 12 13  1  0
 14 12  1  0
 15 14  2  0
 16 17  1  0
 17 19  1  0
 17 18  2  0
 20 19  1  6
 20 22  1  0
 20 21  1  0
 21 14  1  0
 22 24  1  0
 23 22  2  0
M  END
$$$$
