PNN.pdb
     RDKit          3D

 24 24  0  0  1  0  0  0  0  0999 V2000
    7.3286  -14.5576   20.8989 N   0  0  0  0  0  0  0  0  0  0  0  0
    6.9084  -14.1065   19.5839 C   0  0  0  0  0  0  0  0  0  0  0  0
    7.0966  -12.6108   19.6666 C   0  0  0  0  0  0  0  0  0  0  0  0
    8.2698  -12.4297   20.6028 C   0  0  0  0  0  0  0  0  0  0  0  0
    8.5249  -13.7460   21.1762 C   0  0  1  0  0  0  0  0  0  0  0  0
    8.9532  -13.8754   22.5526 C   0  0  0  0  0  0  0  0  0  0  0  0
   10.1273  -13.5373   22.8546 O   0  0  0  0  0  0  0  0  0  0  0  0
    5.5751  -12.7611   25.2256 N   0  0  0  0  0  0  0  0  0  0  0  0
    6.7613  -13.0004   25.9540 C   0  0  0  0  0  0  0  0  0  0  0  0
    7.2675  -12.0807   26.6198 O   0  0  0  0  0  0  0  0  0  0  0  0
    7.3910  -14.3282   25.9243 C   0  0  0  0  0  0  0  0  0  0  0  0
    8.5611  -14.4386   24.9775 C   0  0  2  0  0  0  0  0  0  0  0  0
    8.1371  -14.3645   23.6173 N   0  0  0  0  0  0  0  0  0  0  0  0
    9.3842  -15.6520   25.2789 C   0  0  0  0  0  0  0  0  0  0  0  0
    9.5436  -15.9995   26.4747 O   0  0  0  0  0  0  0  0  0  0  0  0
   11.0954  -20.8369   22.9265 N   0  0  0  0  0  0  0  0  0  0  0  0
   10.8713  -20.0409   24.0766 C   0  0  0  0  0  0  0  0  0  0  0  0
   11.3545  -20.4133   25.1652 O   0  0  0  0  0  0  0  0  0  0  0  0
   10.0822  -18.8024   23.9679 C   0  0  0  0  0  0  0  0  0  0  0  0
   10.7688  -17.5661   24.4396 C   0  0  2  0  0  0  0  0  0  0  0  0
    9.9701  -16.3879   24.2214 N   0  0  0  0  0  0  0  0  0  0  0  0
   12.1334  -17.3680   23.8848 C   0  0  0  0  0  0  0  0  0  0  0  0
   12.3787  -16.6866   22.8642 O   0  0  0  0  0  0  0  0  0  0  0  0
   13.2068  -17.9658   24.5196 O   0  0  0  0  0  0  0  0  0  0  0  0
  1  5  1  0
  1  2  1  0
  2  3  1  0
  4  3  1  0
  5  4  1  0
  6 13  1  0
  5  6  1  1
  7  6  2  0
  8  9  1  0
  9 11  1  0
 10  9  2  0
 12 11  1  1
 12 13  1  0
 14 12  1  0
 15 14  2  0
 16 17  1  0
 17 19  1  0
 17 18  2  0
 20 19  1  6
 20 22  1  0
 20 21  1  0
 21 14  1  0
 22 24  1  0
 23 22  2  0
M  END
$$$$
