PNN.pdb
     RDKit          3D

 24 24  0  0  1  0  0  0  0  0999 V2000
    7.6462  -15.4950   19.5093 N   0  0  0  0  0  0  0  0  0  0  0  0
    6.7563  -14.4647   19.0034 C   0  0  0  0  0  0  0  0  0  0  0  0
    7.0424  -13.2967   19.9163 C   0  0  0  0  0  0  0  0  0  0  0  0
    8.5014  -13.4517   20.2808 C   0  0  0  0  0  0  0  0  0  0  0  0
    8.8946  -14.7665   19.7877 C   0  0  1  0  0  0  0  0  0  0  0  0
    9.8341  -15.5777   20.5321 C   0  0  0  0  0  0  0  0  0  0  0  0
   10.9255  -15.0635   20.8903 O   0  0  0  0  0  0  0  0  0  0  0  0
   12.6238  -19.8115   19.8977 N   0  0  0  0  0  0  0  0  0  0  0  0
   12.1396  -18.4961   19.7243 C   0  0  0  0  0  0  0  0  0  0  0  0
   11.8772  -18.0855   18.5806 O   0  0  0  0  0  0  0  0  0  0  0  0
   11.9476  -17.6204   20.8891 C   0  0  0  0  0  0  0  0  0  0  0  0
   10.5969  -17.7536   21.5491 C   0  0  2  0  0  0  0  0  0  0  0  0
    9.6201  -16.9403   20.9013 N   0  0  0  0  0  0  0  0  0  0  0  0
   10.6921  -17.5093   23.0229 C   0  0  0  0  0  0  0  0  0  0  0  0
   11.7168  -17.8908   23.6397 O   0  0  0  0  0  0  0  0  0  0  0  0
    7.7917  -13.3921   25.1390 N   0  0  0  0  0  0  0  0  0  0  0  0
    8.8432  -14.3412   25.1484 C   0  0  0  0  0  0  0  0  0  0  0  0
    9.9822  -13.9756   24.7930 O   0  0  0  0  0  0  0  0  0  0  0  0
    8.5766  -15.7257   25.5730 C   0  0  0  0  0  0  0  0  0  0  0  0
    9.5847  -16.7322   25.1337 C   0  0  2  0  0  0  0  0  0  0  0  0
    9.6339  -16.8573   23.6999 N   0  0  0  0  0  0  0  0  0  0  0  0
    9.4319  -18.0722   25.7584 C   0  0  0  0  0  0  0  0  0  0  0  0
    9.7202  -18.3225   26.9502 O   0  0  0  0  0  0  0  0  0  0  0  0
    8.9461  -19.1159   24.9923 O   0  0  0  0  0  0  0  0  0  0  0  0
  1  5  1  0
  1  2  1  0
  2  3  1  0
  4  3  1  0
  5  4  1  0
  6 13  1  0
  5  6  1  1
  7  6  2  0
  8  9  1  0
  9 11  1  0
 10  9  2  0
 12 11  1  6
 12 13  1  0
 14 12  1  0
 15 14  2  0
 16 17  1  0
 17 19  1  0
 17 18  2  0
 20 19  1  6
 20 22  1  0
 20 21  1  0
 21 14  1  0
 22 24  1  0
 23 22  2  0
M  END
$$$$
