PNN.pdb
     RDKit          3D

 24 24  0  0  1  0  0  0  0  0999 V2000
    8.9040  -18.4025   19.8843 N   0  0  0  0  0  0  0  0  0  0  0  0
    7.8129  -19.3252   20.1437 C   0  0  0  0  0  0  0  0  0  0  0  0
    6.6302  -18.6321   19.5109 C   0  0  0  0  0  0  0  0  0  0  0  0
    7.2179  -17.8760   18.3412 C   0  0  0  0  0  0  0  0  0  0  0  0
    8.6648  -17.9656   18.4992 C   0  0  1  0  0  0  0  0  0  0  0  0
    9.5126  -16.8505   18.1348 C   0  0  0  0  0  0  0  0  0  0  0  0
    9.4227  -16.3777   16.9719 O   0  0  0  0  0  0  0  0  0  0  0  0
    7.8300  -12.4780   18.3263 N   0  0  0  0  0  0  0  0  0  0  0  0
    8.6328  -13.6372   18.2452 C   0  0  0  0  0  0  0  0  0  0  0  0
    9.1513  -13.9488   17.1592 O   0  0  0  0  0  0  0  0  0  0  0  0
    8.8529  -14.4678   19.4377 C   0  0  0  0  0  0  0  0  0  0  0  0
   10.2734  -14.9498   19.6042 C   0  0  2  0  0  0  0  0  0  0  0  0
   10.4609  -16.2302   19.0035 N   0  0  0  0  0  0  0  0  0  0  0  0
   10.6939  -14.8989   21.0400 C   0  0  0  0  0  0  0  0  0  0  0  0
   10.5948  -13.8156   21.6667 O   0  0  0  0  0  0  0  0  0  0  0  0
    9.9102  -17.6318   22.5128 N   0  0  0  0  0  0  0  0  0  0  0  0
   10.6788  -17.7157   23.6997 C   0  0  0  0  0  0  0  0  0  0  0  0
   10.3260  -18.5215   24.5849 O   0  0  0  0  0  0  0  0  0  0  0  0
   11.8665  -16.8613   23.8653 C   0  0  0  0  0  0  0  0  0  0  0  0
   12.2172  -16.0219   22.6843 C   0  0  2  0  0  0  0  0  0  0  0  0
   11.1956  -16.0626   21.6701 N   0  0  0  0  0  0  0  0  0  0  0  0
   13.5438  -16.3226   22.0853 C   0  0  0  0  0  0  0  0  0  0  0  0
   13.7034  -16.7230   20.9104 O   0  0  0  0  0  0  0  0  0  0  0  0
   14.6791  -16.1579   22.8574 O   0  0  0  0  0  0  0  0  0  0  0  0
  1  5  1  0
  1  2  1  0
  2  3  1  0
  4  3  1  0
  5  4  1  0
  6 13  1  0
  5  6  1  1
  7  6  2  0
  8  9  1  0
  9 11  1  0
 10  9  2  0
 12 11  1  1
 12 13  1  0
 14 12  1  0
 15 14  2  0
 16 17  1  0
 17 19  1  0
 17 18  2  0
 20 19  1  1
 20 22  1  0
 20 21  1  0
 21 14  1  0
 22 24  1  0
 23 22  2  0
M  END
$$$$
