PNN.pdb
     RDKit          3D

 24 24  0  0  1  0  0  0  0  0999 V2000
    8.0163  -14.8778   19.2186 N   0  0  0  0  0  0  0  0  0  0  0  0
    7.4644  -14.1273   18.1045 C   0  0  0  0  0  0  0  0  0  0  0  0
    7.1626  -12.7832   18.7225 C   0  0  0  0  0  0  0  0  0  0  0  0
    8.2218  -12.6116   19.7875 C   0  0  0  0  0  0  0  0  0  0  0  0
    8.8903  -13.9035   19.8920 C   0  0  1  0  0  0  0  0  0  0  0  0
    9.3470  -14.3907   21.1761 C   0  0  0  0  0  0  0  0  0  0  0  0
   10.1538  -13.6868   21.8375 O   0  0  0  0  0  0  0  0  0  0  0  0
    6.7404  -15.4005   22.6336 N   0  0  0  0  0  0  0  0  0  0  0  0
    7.0001  -16.4906   23.4934 C   0  0  0  0  0  0  0  0  0  0  0  0
    6.0518  -17.0751   24.0454 O   0  0  0  0  0  0  0  0  0  0  0  0
    8.3823  -16.9297   23.7323 C   0  0  0  0  0  0  0  0  0  0  0  0
    9.4270  -16.1020   23.0243 C   0  0  2  0  0  0  0  0  0  0  0  0
    8.9492  -15.6286   21.7661 N   0  0  0  0  0  0  0  0  0  0  0  0
   10.7248  -16.8419   22.9279 C   0  0  0  0  0  0  0  0  0  0  0  0
   10.7156  -18.0968   22.9616 O   0  0  0  0  0  0  0  0  0  0  0  0
   13.6171  -14.3241   21.3162 N   0  0  0  0  0  0  0  0  0  0  0  0
   13.9438  -15.5154   20.6229 C   0  0  0  0  0  0  0  0  0  0  0  0
   14.4654  -15.4259   19.4928 O   0  0  0  0  0  0  0  0  0  0  0  0
   13.6660  -16.8225   21.2414 C   0  0  0  0  0  0  0  0  0  0  0  0
   13.2167  -16.7726   22.6620 C   0  0  2  0  0  0  0  0  0  0  0  0
   11.9383  -16.1246   22.8019 N   0  0  0  0  0  0  0  0  0  0  0  0
   14.2001  -16.1699   23.5995 C   0  0  0  0  0  0  0  0  0  0  0  0
   13.9679  -15.1570   24.2968 O   0  0  0  0  0  0  0  0  0  0  0  0
   15.4505  -16.7479   23.7199 O   0  0  0  0  0  0  0  0  0  0  0  0
  1  5  1  0
  1  2  1  0
  2  3  1  0
  4  3  1  0
  5  4  1  0
  6 13  1  0
  5  6  1  1
  7  6  2  0
  8  9  1  0
  9 11  1  0
 10  9  2  0
 12 11  1  6
 12 13  1  0
 14 12  1  0
 15 14  2  0
 16 17  1  0
 17 19  1  0
 17 18  2  0
 20 19  1  6
 20 22  1  0
 20 21  1  0
 21 14  1  0
 22 24  1  0
 23 22  2  0
M  END
$$$$
