PNN.pdb
     RDKit          3D

 24 24  0  0  1  0  0  0  0  0999 V2000
    8.5687  -14.3538   18.9788 N   0  0  0  0  0  0  0  0  0  0  0  0
    8.6244  -13.2683   18.0155 C   0  0  0  0  0  0  0  0  0  0  0  0
    7.5574  -12.3232   18.5134 C   0  0  0  0  0  0  0  0  0  0  0  0
    7.5636  -12.5047   20.0143 C   0  0  0  0  0  0  0  0  0  0  0  0
    8.4125  -13.6627   20.2690 C   0  0  1  0  0  0  0  0  0  0  0  0
    8.0919  -14.5861   21.3365 C   0  0  0  0  0  0  0  0  0  0  0  0
    7.9738  -14.1393   22.5071 O   0  0  0  0  0  0  0  0  0  0  0  0
    7.5424  -18.0948   19.6973 N   0  0  0  0  0  0  0  0  0  0  0  0
    6.3982  -18.2990   20.4999 C   0  0  0  0  0  0  0  0  0  0  0  0
    5.4553  -18.9797   20.0607 O   0  0  0  0  0  0  0  0  0  0  0  0
    6.3250  -17.7102   21.8447 C   0  0  0  0  0  0  0  0  0  0  0  0
    7.5245  -16.8760   22.2226 C   0  0  2  0  0  0  0  0  0  0  0  0
    7.8940  -15.9900   21.1672 N   0  0  0  0  0  0  0  0  0  0  0  0
    8.6519  -17.7390   22.6972 C   0  0  0  0  0  0  0  0  0  0  0  0
    8.3919  -18.7688   23.3665 O   0  0  0  0  0  0  0  0  0  0  0  0
   12.1404  -19.3728   20.5804 N   0  0  0  0  0  0  0  0  0  0  0  0
   12.3956  -18.0341   20.9668 C   0  0  0  0  0  0  0  0  0  0  0  0
   12.6109  -17.1855   20.0775 O   0  0  0  0  0  0  0  0  0  0  0  0
   12.4014  -17.6721   22.3941 C   0  0  0  0  0  0  0  0  0  0  0  0
   11.1181  -17.9056   23.1158 C   0  0  2  0  0  0  0  0  0  0  0  0
    9.9878  -17.3870   22.3898 N   0  0  0  0  0  0  0  0  0  0  0  0
   11.0979  -17.4076   24.5161 C   0  0  0  0  0  0  0  0  0  0  0  0
   11.3376  -18.1237   25.5140 O   0  0  0  0  0  0  0  0  0  0  0  0
   10.7967  -16.0782   24.7489 O   0  0  0  0  0  0  0  0  0  0  0  0
  1  5  1  0
  1  2  1  0
  2  3  1  0
  4  3  1  0
  5  4  1  0
  6 13  1  0
  5  6  1  1
  7  6  2  0
  8  9  1  0
  9 11  1  0
 10  9  2  0
 12 11  1  6
 12 13  1  0
 14 12  1  0
 15 14  2  0
 16 17  1  0
 17 19  1  0
 17 18  2  0
 20 19  1  6
 20 22  1  0
 20 21  1  0
 21 14  1  0
 22 24  1  0
 23 22  2  0
M  END
$$$$
