PNN.pdb
     RDKit          3D

 24 24  0  0  1  0  0  0  0  0999 V2000
    7.7531  -14.9588   18.8988 N   0  0  0  0  0  0  0  0  0  0  0  0
    7.4779  -14.2387   17.6679 C   0  0  0  0  0  0  0  0  0  0  0  0
    7.2382  -12.8285   18.1510 C   0  0  0  0  0  0  0  0  0  0  0  0
    8.1251  -12.6909   19.3675 C   0  0  0  0  0  0  0  0  0  0  0  0
    8.6142  -14.0345   19.6543 C   0  0  1  0  0  0  0  0  0  0  0  0
    8.7991  -14.4709   21.0219 C   0  0  0  0  0  0  0  0  0  0  0  0
    9.8001  -14.0525   21.6597 O   0  0  0  0  0  0  0  0  0  0  0  0
    8.2336  -16.7438   25.6999 N   0  0  0  0  0  0  0  0  0  0  0  0
    6.9829  -16.8066   25.0467 C   0  0  0  0  0  0  0  0  0  0  0  0
    5.9924  -17.2403   25.6601 O   0  0  0  0  0  0  0  0  0  0  0  0
    6.8552  -16.3614   23.6518 C   0  0  0  0  0  0  0  0  0  0  0  0
    8.1150  -15.7646   23.0735 C   0  0  2  0  0  0  0  0  0  0  0  0
    7.9216  -15.3542   21.7209 N   0  0  0  0  0  0  0  0  0  0  0  0
    9.2796  -16.6876   23.2545 C   0  0  0  0  0  0  0  0  0  0  0  0
    9.2469  -17.8233   22.7204 O   0  0  0  0  0  0  0  0  0  0  0  0
   15.2546  -16.3878   23.6942 N   0  0  0  0  0  0  0  0  0  0  0  0
   14.0289  -17.0304   23.3919 C   0  0  0  0  0  0  0  0  0  0  0  0
   14.0508  -18.2310   23.0524 O   0  0  0  0  0  0  0  0  0  0  0  0
   12.7658  -16.2790   23.4834 C   0  0  0  0  0  0  0  0  0  0  0  0
   11.6223  -17.0257   24.0810 C   0  0  2  0  0  0  0  0  0  0  0  0
   10.3955  -16.2739   24.0205 N   0  0  0  0  0  0  0  0  0  0  0  0
   11.8573  -17.5089   25.4668 C   0  0  0  0  0  0  0  0  0  0  0  0
   11.2194  -17.1030   26.4640 O   0  0  0  0  0  0  0  0  0  0  0  0
   12.8355  -18.4614   25.6862 O   0  0  0  0  0  0  0  0  0  0  0  0
  1  5  1  0
  1  2  1  0
  2  3  1  0
  4  3  1  0
  5  4  1  0
  6 13  1  0
  5  6  1  1
  7  6  2  0
  8  9  1  0
  9 11  1  0
 10  9  2  0
 12 11  1  6
 12 13  1  0
 14 12  1  0
 15 14  2  0
 16 17  1  0
 17 19  1  0
 17 18  2  0
 20 19  1  1
 20 22  1  0
 20 21  1  0
 21 14  1  0
 22 24  1  0
 23 22  2  0
M  END
$$$$
