PNN.pdb
     RDKit          3D

 24 24  0  0  1  0  0  0  0  0999 V2000
    7.4529  -15.0521   19.3378 N   0  0  0  0  0  0  0  0  0  0  0  0
    7.2001  -14.2987   18.1222 C   0  0  0  0  0  0  0  0  0  0  0  0
    6.9576  -12.9008   18.6384 C   0  0  0  0  0  0  0  0  0  0  0  0
    7.8254  -12.7988   19.8722 C   0  0  0  0  0  0  0  0  0  0  0  0
    8.3049  -14.1514   20.1312 C   0  0  1  0  0  0  0  0  0  0  0  0
    8.4663  -14.6244   21.4895 C   0  0  0  0  0  0  0  0  0  0  0  0
    9.3701  -14.1164   22.2031 O   0  0  0  0  0  0  0  0  0  0  0  0
    7.0380  -16.6221   26.3858 N   0  0  0  0  0  0  0  0  0  0  0  0
    6.8077  -17.4502   25.2650 C   0  0  0  0  0  0  0  0  0  0  0  0
    6.7422  -18.6823   25.4167 O   0  0  0  0  0  0  0  0  0  0  0  0
    6.6463  -16.8575   23.9297 C   0  0  0  0  0  0  0  0  0  0  0  0
    7.8601  -16.1117   23.4314 C   0  0  2  0  0  0  0  0  0  0  0  0
    7.6685  -15.6398   22.0988 N   0  0  0  0  0  0  0  0  0  0  0  0
    9.1014  -16.9312   23.5998 C   0  0  0  0  0  0  0  0  0  0  0  0
    9.2875  -17.9185   22.8470 O   0  0  0  0  0  0  0  0  0  0  0  0
   14.5519  -17.0652   23.3455 N   0  0  0  0  0  0  0  0  0  0  0  0
   13.7916  -16.9459   24.5346 C   0  0  0  0  0  0  0  0  0  0  0  0
   14.2777  -17.3749   25.6009 O   0  0  0  0  0  0  0  0  0  0  0  0
   12.4574  -16.3243   24.4918 C   0  0  0  0  0  0  0  0  0  0  0  0
   11.3149  -17.2510   24.7329 C   0  0  2  0  0  0  0  0  0  0  0  0
   10.0437  -16.5878   24.5985 N   0  0  0  0  0  0  0  0  0  0  0  0
   11.3753  -17.9821   26.0256 C   0  0  0  0  0  0  0  0  0  0  0  0
   10.8490  -17.5711   27.0840 O   0  0  0  0  0  0  0  0  0  0  0  0
   12.0499  -19.1879   26.0811 O   0  0  0  0  0  0  0  0  0  0  0  0
  1  5  1  0
  1  2  1  0
  2  3  1  0
  4  3  1  0
  5  4  1  0
  6 13  1  0
  5  6  1  1
  7  6  2  0
  8  9  1  0
  9 11  1  0
 10  9  2  0
 12 11  1  6
 12 13  1  0
 14 12  1  0
 15 14  2  0
 16 17  1  0
 17 19  1  0
 17 18  2  0
 20 19  1  1
 20 22  1  0
 20 21  1  0
 21 14  1  0
 22 24  1  0
 23 22  2  0
M  END
$$$$
