PNN.pdb
     RDKit          3D

 24 24  0  0  1  0  0  0  0  0999 V2000
    8.6762  -14.0899   20.4037 N   0  0  0  0  0  0  0  0  0  0  0  0
    7.5433  -13.2496   20.0575 C   0  0  0  0  0  0  0  0  0  0  0  0
    8.0568  -12.4656   18.8738 C   0  0  0  0  0  0  0  0  0  0  0  0
    9.0178  -13.4081   18.1856 C   0  0  0  0  0  0  0  0  0  0  0  0
    9.1890  -14.5334   19.0972 C   0  0  1  0  0  0  0  0  0  0  0  0
   10.4738  -15.1885   19.2199 C   0  0  0  0  0  0  0  0  0  0  0  0
   10.7511  -16.1279   18.4297 O   0  0  0  0  0  0  0  0  0  0  0  0
   13.3520  -14.0677   17.0932 N   0  0  0  0  0  0  0  0  0  0  0  0
   13.7319  -15.0695   18.0135 C   0  0  0  0  0  0  0  0  0  0  0  0
   14.0225  -16.2046   17.5983 O   0  0  0  0  0  0  0  0  0  0  0  0
   13.7832  -14.7700   19.4516 C   0  0  0  0  0  0  0  0  0  0  0  0
   12.7431  -15.4920   20.2729 C   0  0  2  0  0  0  0  0  0  0  0  0
   11.4725  -14.8496   20.1824 N   0  0  0  0  0  0  0  0  0  0  0  0
   13.2114  -15.6889   21.6811 C   0  0  0  0  0  0  0  0  0  0  0  0
   13.6230  -14.6972   22.3315 O   0  0  0  0  0  0  0  0  0  0  0  0
   10.5191  -19.0374   23.3187 N   0  0  0  0  0  0  0  0  0  0  0  0
   11.2820  -18.1796   24.1487 C   0  0  0  0  0  0  0  0  0  0  0  0
   10.6890  -17.2984   24.8038 O   0  0  0  0  0  0  0  0  0  0  0  0
   12.7436  -18.3418   24.2231 C   0  0  0  0  0  0  0  0  0  0  0  0
   13.5391  -17.2276   23.6331 C   0  0  2  0  0  0  0  0  0  0  0  0
   13.1864  -16.9806   22.2589 N   0  0  0  0  0  0  0  0  0  0  0  0
   15.0115  -17.3846   23.7622 C   0  0  0  0  0  0  0  0  0  0  0  0
   15.7892  -17.4897   22.7875 O   0  0  0  0  0  0  0  0  0  0  0  0
   15.5720  -17.4205   25.0258 O   0  0  0  0  0  0  0  0  0  0  0  0
  1  5  1  0
  1  2  1  0
  2  3  1  0
  4  3  1  0
  5  4  1  0
  6 13  1  0
  5  6  1  1
  7  6  2  0
  8  9  1  0
  9 11  1  0
 10  9  2  0
 12 11  1  6
 12 13  1  0
 14 12  1  0
 15 14  2  0
 16 17  1  0
 17 19  1  0
 17 18  2  0
 20 19  1  6
 20 22  1  0
 20 21  1  0
 21 14  1  0
 22 24  1  0
 23 22  2  0
M  END
$$$$
