PNN.pdb
     RDKit          3D

 24 24  0  0  1  0  0  0  0  0999 V2000
    7.4403  -15.3453   19.1541 N   0  0  0  0  0  0  0  0  0  0  0  0
    7.0515  -14.9312   17.8174 C   0  0  0  0  0  0  0  0  0  0  0  0
    7.2515  -13.4353   17.8584 C   0  0  0  0  0  0  0  0  0  0  0  0
    8.4066  -13.2354   18.8131 C   0  0  0  0  0  0  0  0  0  0  0  0
    8.6378  -14.5356   19.4317 C   0  0  1  0  0  0  0  0  0  0  0  0
    9.0364  -14.6264   20.8201 C   0  0  0  0  0  0  0  0  0  0  0  0
   10.1923  -14.2478   21.1431 O   0  0  0  0  0  0  0  0  0  0  0  0
    8.3169  -13.4488   26.0840 N   0  0  0  0  0  0  0  0  0  0  0  0
    7.7128  -14.6107   25.5549 C   0  0  0  0  0  0  0  0  0  0  0  0
    7.4466  -15.5612   26.3106 O   0  0  0  0  0  0  0  0  0  0  0  0
    7.4016  -14.6934   24.1208 C   0  0  0  0  0  0  0  0  0  0  0  0
    8.5724  -15.0875   23.2538 C   0  0  2  0  0  0  0  0  0  0  0  0
    8.2094  -15.1195   21.8745 N   0  0  0  0  0  0  0  0  0  0  0  0
    9.1935  -16.3615   23.7354 C   0  0  0  0  0  0  0  0  0  0  0  0
    8.5896  -17.4453   23.5434 O   0  0  0  0  0  0  0  0  0  0  0  0
   13.6760  -16.0508   22.8224 N   0  0  0  0  0  0  0  0  0  0  0  0
   12.9901  -17.2346   23.1892 C   0  0  0  0  0  0  0  0  0  0  0  0
   12.7366  -18.0775   22.3046 O   0  0  0  0  0  0  0  0  0  0  0  0
   12.5941  -17.4472   24.5915 C   0  0  0  0  0  0  0  0  0  0  0  0
   11.1251  -17.5221   24.8342 C   0  0  2  0  0  0  0  0  0  0  0  0
   10.4439  -16.3308   24.3976 N   0  0  0  0  0  0  0  0  0  0  0  0
   10.7465  -17.8425   26.2353 C   0  0  0  0  0  0  0  0  0  0  0  0
   10.0081  -17.1189   26.9405 O   0  0  0  0  0  0  0  0  0  0  0  0
   11.2309  -19.0030   26.8103 O   0  0  0  0  0  0  0  0  0  0  0  0
  1  5  1  0
  1  2  1  0
  2  3  1  0
  4  3  1  0
  5  4  1  0
  6 13  1  0
  5  6  1  1
  7  6  2  0
  8  9  1  0
  9 11  1  0
 10  9  2  0
 12 11  1  1
 12 13  1  0
 14 12  1  0
 15 14  2  0
 16 17  1  0
 17 19  1  0
 17 18  2  0
 20 19  1  1
 20 22  1  0
 20 21  1  0
 21 14  1  0
 22 24  1  0
 23 22  2  0
M  END
$$$$
