PNN.pdb
     RDKit          3D

 24 24  0  0  1  0  0  0  0  0999 V2000
    7.8569  -15.1408   19.8113 N   0  0  0  0  0  0  0  0  0  0  0  0
    7.7326  -14.9332   18.3793 C   0  0  0  0  0  0  0  0  0  0  0  0
    7.3239  -13.4828   18.2851 C   0  0  0  0  0  0  0  0  0  0  0  0
    7.9947  -12.8245   19.4692 C   0  0  0  0  0  0  0  0  0  0  0  0
    8.5221  -13.9148   20.2814 C   0  0  1  0  0  0  0  0  0  0  0  0
    8.5165  -13.8219   21.7258 C   0  0  0  0  0  0  0  0  0  0  0  0
    9.2025  -12.9218   22.2763 O   0  0  0  0  0  0  0  0  0  0  0  0
    6.5371  -13.3703   26.5513 N   0  0  0  0  0  0  0  0  0  0  0  0
    6.2477  -14.6434   26.0125 C   0  0  0  0  0  0  0  0  0  0  0  0
    5.8734  -15.5575   26.7672 O   0  0  0  0  0  0  0  0  0  0  0  0
    6.3883  -14.8836   24.5692 C   0  0  0  0  0  0  0  0  0  0  0  0
    7.7511  -14.5477   24.0145 C   0  0  2  0  0  0  0  0  0  0  0  0
    7.7818  -14.6844   22.5947 N   0  0  0  0  0  0  0  0  0  0  0  0
    8.8224  -15.3278   24.7107 C   0  0  0  0  0  0  0  0  0  0  0  0
    8.6845  -15.6014   25.9282 O   0  0  0  0  0  0  0  0  0  0  0  0
   11.4205  -17.9659   26.9759 N   0  0  0  0  0  0  0  0  0  0  0  0
   10.5568  -18.6464   26.0829 C   0  0  0  0  0  0  0  0  0  0  0  0
   10.1156  -19.7658   26.4139 O   0  0  0  0  0  0  0  0  0  0  0  0
   10.1987  -18.0276   24.7956 C   0  0  0  0  0  0  0  0  0  0  0  0
   10.8841  -16.7381   24.4961 C   0  0  2  0  0  0  0  0  0  0  0  0
    9.9704  -15.7441   23.9952 N   0  0  0  0  0  0  0  0  0  0  0  0
   12.0558  -16.8578   23.5895 C   0  0  0  0  0  0  0  0  0  0  0  0
   11.9842  -16.7713   22.3431 O   0  0  0  0  0  0  0  0  0  0  0  0
   13.3057  -17.0798   24.1377 O   0  0  0  0  0  0  0  0  0  0  0  0
  1  5  1  0
  1  2  1  0
  2  3  1  0
  4  3  1  0
  5  4  1  0
  6 13  1  0
  5  6  1  1
  7  6  2  0
  8  9  1  0
  9 11  1  0
 10  9  2  0
 12 11  1  1
 12 13  1  0
 14 12  1  0
 15 14  2  0
 16 17  1  0
 17 19  1  0
 17 18  2  0
 20 19  1  6
 20 22  1  0
 20 21  1  0
 21 14  1  0
 22 24  1  0
 23 22  2  0
M  END
$$$$
