PNN.pdb
     RDKit          3D

 24 24  0  0  1  0  0  0  0  0999 V2000
    8.6628  -14.8199   19.5194 N   0  0  0  0  0  0  0  0  0  0  0  0
    8.7472  -14.0630   18.2828 C   0  0  0  0  0  0  0  0  0  0  0  0
    7.6875  -13.0032   18.4655 C   0  0  0  0  0  0  0  0  0  0  0  0
    7.6708  -12.7393   19.9540 C   0  0  0  0  0  0  0  0  0  0  0  0
    8.4994  -13.7812   20.5495 C   0  0  1  0  0  0  0  0  0  0  0  0
    8.1510  -14.3500   21.8340 C   0  0  0  0  0  0  0  0  0  0  0  0
    7.9385  -13.5735   22.8013 O   0  0  0  0  0  0  0  0  0  0  0  0
    6.4854  -17.5462   25.5972 N   0  0  0  0  0  0  0  0  0  0  0  0
    5.7348  -17.6167   24.4027 C   0  0  0  0  0  0  0  0  0  0  0  0
    4.6414  -18.2081   24.4002 O   0  0  0  0  0  0  0  0  0  0  0  0
    6.2445  -16.9942   23.1727 C   0  0  0  0  0  0  0  0  0  0  0  0
    7.5669  -16.2859   23.3380 C   0  0  2  0  0  0  0  0  0  0  0  0
    8.0258  -15.7474   22.0991 N   0  0  0  0  0  0  0  0  0  0  0  0
    8.5702  -17.1700   24.0107 C   0  0  0  0  0  0  0  0  0  0  0  0
    8.2633  -17.7281   25.0926 O   0  0  0  0  0  0  0  0  0  0  0  0
   13.7266  -16.5285   22.6160 N   0  0  0  0  0  0  0  0  0  0  0  0
   12.5379  -15.7584   22.5964 C   0  0  0  0  0  0  0  0  0  0  0  0
   12.2771  -15.0868   21.5774 O   0  0  0  0  0  0  0  0  0  0  0  0
   11.6415  -15.7647   23.7646 C   0  0  0  0  0  0  0  0  0  0  0  0
   11.0735  -17.0951   24.1246 C   0  0  2  0  0  0  0  0  0  0  0  0
    9.8439  -17.3648   23.4253 N   0  0  0  0  0  0  0  0  0  0  0  0
   10.8900  -17.3137   25.5833 C   0  0  0  0  0  0  0  0  0  0  0  0
    9.8487  -17.0108   26.2078 O   0  0  0  0  0  0  0  0  0  0  0  0
   11.9205  -17.8823   26.3093 O   0  0  0  0  0  0  0  0  0  0  0  0
  1  5  1  0
  1  2  1  0
  2  3  1  0
  4  3  1  0
  5  4  1  0
  6 13  1  0
  5  6  1  1
  7  6  2  0
  8  9  1  0
  9 11  1  0
 10  9  2  0
 12 11  1  6
 12 13  1  0
 14 12  1  0
 15 14  2  0
 16 17  1  0
 17 19  1  0
 17 18  2  0
 20 19  1  1
 20 22  1  0
 20 21  1  0
 21 14  1  0
 22 24  1  0
 23 22  2  0
M  END
$$$$
