PNN.pdb
     RDKit          3D

 24 24  0  0  1  0  0  0  0  0999 V2000
    8.7934  -14.6127   19.1212 N   0  0  0  0  0  0  0  0  0  0  0  0
    8.7482  -13.8746   17.8712 C   0  0  0  0  0  0  0  0  0  0  0  0
    7.5088  -13.0266   18.0272 C   0  0  0  0  0  0  0  0  0  0  0  0
    7.4291  -12.7448   19.5103 C   0  0  0  0  0  0  0  0  0  0  0  0
    8.4304  -13.6047   20.1305 C   0  0  1  0  0  0  0  0  0  0  0  0
    8.1810  -14.2060   21.4232 C   0  0  0  0  0  0  0  0  0  0  0  0
    7.1032  -13.9396   22.0159 O   0  0  0  0  0  0  0  0  0  0  0  0
    6.1876  -16.8178   25.3189 N   0  0  0  0  0  0  0  0  0  0  0  0
    7.1644  -17.3184   24.4300 C   0  0  0  0  0  0  0  0  0  0  0  0
    7.7299  -18.3957   24.6846 O   0  0  0  0  0  0  0  0  0  0  0  0
    7.5081  -16.5695   23.2129 C   0  0  0  0  0  0  0  0  0  0  0  0
    8.7716  -15.7515   23.3241 C   0  0  2  0  0  0  0  0  0  0  0  0
    9.0746  -15.0946   22.0944 N   0  0  0  0  0  0  0  0  0  0  0  0
    9.9027  -16.5780   23.8517 C   0  0  0  0  0  0  0  0  0  0  0  0
   10.3253  -17.5417   23.1670 O   0  0  0  0  0  0  0  0  0  0  0  0
   10.3475  -19.0676   28.9843 N   0  0  0  0  0  0  0  0  0  0  0  0
   10.1255  -17.8622   28.2741 C   0  0  0  0  0  0  0  0  0  0  0  0
   10.1164  -16.7875   28.9082 O   0  0  0  0  0  0  0  0  0  0  0  0
    9.9128  -17.8987   26.8175 C   0  0  0  0  0  0  0  0  0  0  0  0
   10.9914  -17.2735   26.0002 C   0  0  2  0  0  0  0  0  0  0  0  0
   10.4781  -16.2674   25.1069 N   0  0  0  0  0  0  0  0  0  0  0  0
   11.8363  -18.2394   25.2503 C   0  0  0  0  0  0  0  0  0  0  0  0
   11.3919  -19.2686   24.6941 O   0  0  0  0  0  0  0  0  0  0  0  0
   13.1954  -18.0041   25.1528 O   0  0  0  0  0  0  0  0  0  0  0  0
  1  5  1  0
  1  2  1  0
  2  3  1  0
  4  3  1  0
  5  4  1  0
  6 13  1  0
  5  6  1  1
  7  6  2  0
  8  9  1  0
  9 11  1  0
 10  9  2  0
 12 11  1  6
 12 13  1  0
 14 12  1  0
 15 14  2  0
 16 17  1  0
 17 19  1  0
 17 18  2  0
 20 19  1  6
 20 22  1  0
 20 21  1  0
 21 14  1  0
 22 24  1  0
 23 22  2  0
M  END
$$$$
