PNN.pdb
     RDKit          3D

 24 24  0  0  1  0  0  0  0  0999 V2000
    8.2041  -13.5545   21.2147 N   0  0  0  0  0  0  0  0  0  0  0  0
    8.2560  -12.7064   20.0369 C   0  0  0  0  0  0  0  0  0  0  0  0
    8.0297  -13.6845   18.9092 C   0  0  0  0  0  0  0  0  0  0  0  0
    7.1264  -14.7415   19.5027 C   0  0  0  0  0  0  0  0  0  0  0  0
    7.0834  -14.4666   20.9342 C   0  0  1  0  0  0  0  0  0  0  0  0
    7.0252  -15.5536   21.8880 C   0  0  0  0  0  0  0  0  0  0  0  0
    6.5252  -16.6501   21.5250 O   0  0  0  0  0  0  0  0  0  0  0  0
   11.3280  -17.7139   23.1808 N   0  0  0  0  0  0  0  0  0  0  0  0
   11.1466  -16.3207   23.0362 C   0  0  0  0  0  0  0  0  0  0  0  0
   12.1049  -15.5541   23.2346 O   0  0  0  0  0  0  0  0  0  0  0  0
    9.8334  -15.7829   22.6532 C   0  0  0  0  0  0  0  0  0  0  0  0
    8.7442  -16.0236   23.6698 C   0  0  2  0  0  0  0  0  0  0  0  0
    7.4981  -15.4831   23.2334 N   0  0  0  0  0  0  0  0  0  0  0  0
    9.1586  -15.5439   25.0259 C   0  0  0  0  0  0  0  0  0  0  0  0
   10.2193  -15.9857   25.5315 O   0  0  0  0  0  0  0  0  0  0  0  0
    5.5497  -12.3639   26.4784 N   0  0  0  0  0  0  0  0  0  0  0  0
    6.9662  -12.3551   26.4821 C   0  0  0  0  0  0  0  0  0  0  0  0
    7.5626  -11.7034   25.6007 O   0  0  0  0  0  0  0  0  0  0  0  0
    7.7007  -13.1055   27.5144 C   0  0  0  0  0  0  0  0  0  0  0  0
    8.7217  -14.0627   27.0009 C   0  0  2  0  0  0  0  0  0  0  0  0
    8.3562  -14.6059   25.7183 N   0  0  0  0  0  0  0  0  0  0  0  0
    9.0665  -15.1609   27.9412 C   0  0  0  0  0  0  0  0  0  0  0  0
    9.4430  -14.9762   29.1203 O   0  0  0  0  0  0  0  0  0  0  0  0
    8.9733  -16.4695   27.5042 O   0  0  0  0  0  0  0  0  0  0  0  0
  1  5  1  0
  1  2  1  0
  2  3  1  0
  4  3  1  0
  5  4  1  0
  6 13  1  0
  5  6  1  1
  7  6  2  0
  8  9  1  0
  9 11  1  0
 10  9  2  0
 12 11  1  6
 12 13  1  0
 14 12  1  0
 15 14  2  0
 16 17  1  0
 17 19  1  0
 17 18  2  0
 20 19  1  1
 20 22  1  0
 20 21  1  0
 21 14  1  0
 22 24  1  0
 23 22  2  0
M  END
$$$$
