REF.pdb
     RDKit          3D

 32 32  0  0  1  0  0  0  0  0999 V2000
   17.3228  -19.9332  -15.1130 N   0  0  0  0  0  0  0  0  0  0  0  0
   16.5761  -20.7185  -14.1924 C   0  0  0  0  0  0  0  0  0  0  0  0
   15.6008  -21.4125  -14.6399 N   0  0  0  0  0  0  0  0  0  0  0  0
   16.9094  -20.7264  -12.8159 N   0  0  0  0  0  0  0  0  0  0  0  0
   18.1443  -20.1593  -12.3658 C   0  0  0  0  0  0  0  0  0  0  0  0
   19.3584  -20.7901  -13.0214 C   0  0  0  0  0  0  0  0  0  0  0  0
   20.4140  -21.0952  -11.9786 C   0  0  0  0  0  0  0  0  0  0  0  0
   21.3944  -19.9399  -11.9459 C   0  0  2  0  0  0  0  0  0  0  0  0
   21.3395  -19.2987  -13.2423 N   0  0  0  0  0  0  0  0  0  0  0  0
   22.7457  -20.5280  -11.6808 C   0  0  0  0  0  0  0  0  0  0  0  0
   23.0362  -21.0327  -10.5661 O   0  0  0  0  0  0  0  0  0  0  0  0
   14.9837  -22.0364  -14.1014 N   0  0  0  0  0  0  0  0  0  0  0  0
   23.7863  -20.5539  -12.6672 C   0  0  1  0  0  0  0  0  0  0  0  0
   25.1006  -21.0425  -12.3368 C   0  0  0  0  0  0  0  0  0  0  0  0
   25.9842  -20.9280  -13.5535 C   0  0  0  0  0  0  0  0  0  0  0  0
   27.3157  -21.5599  -13.2574 C   0  0  0  0  0  0  0  0  0  0  0  0
   28.2046  -21.4922  -14.4656 O   0  0  0  0  0  0  0  0  0  0  0  0
   27.7762  -20.9109  -15.4908 C   0  0  0  0  0  0  0  0  0  0  0  0
   25.7494  -20.2993  -11.2228 O   0  0  0  0  0  0  0  0  0  0  0  0
   25.4672  -19.1266  -10.9024 O   0  0  0  0  0  0  0  0  0  0  0  0
   29.4652  -22.0556  -14.4429 N   0  0  0  0  0  0  0  0  0  0  0  0
   26.7488  -21.0110  -10.5052 C   0  0  1  0  0  0  0  0  0  0  0  0
   27.5475  -20.3467   -9.4668 C   0  0  0  0  0  0  0  0  0  0  0  0
   26.5729  -19.9185   -8.3912 C   0  0  0  0  0  0  0  0  0  0  0  0
   27.1400  -19.9267   -7.0296 C   0  0  0  0  0  0  0  0  0  0  0  0
   26.8208  -20.8983   -6.1088 C   0  0  0  0  0  0  0  0  0  0  0  0
   27.3629  -20.8885   -4.8433 C   0  0  0  0  0  0  0  0  0  0  0  0
   28.2512  -19.8980   -4.4479 C   0  0  0  0  0  0  0  0  0  0  0  0
   28.5651  -18.9320   -5.3722 C   0  0  0  0  0  0  0  0  0  0  0  0
   28.0270  -18.9371   -6.6375 C   0  0  0  0  0  0  0  0  0  0  0  0
   28.5365  -21.2548   -8.8820 O   0  0  0  0  0  0  0  0  0  0  0  0
   29.4209  -20.8169   -8.1226 O   0  0  0  0  0  0  0  0  0  0  0  0
  1  2  1  0
  2  3  2  0
  4  2  1  0
  5  4  1  0
  6  5  1  0
  7  6  1  0
  8  7  1  0
  8  9  1  6
 10  8  1  0
 11 10  2  0
 12 10  1  0
 13 12  1  0
 14 15  1  0
 13 14  1  1
 15 16  1  0
 16 17  2  0
 18 13  1  0
 18 21  1  0
 19 18  2  0
 20 16  1  0
 22 21  1  0
 22 30  1  0
 22 23  1  1
 23 24  1  0
 24 29  2  0
 24 25  1  0
 25 26  2  0
 27 26  1  0
 28 27  2  0
 29 28  1  0
 30 32  1  0
 31 30  2  0
M  END
$$$$
