REF.pdb
     RDKit          3D

 32 32  0  0  1  0  0  0  0  0999 V2000
   28.3117  -30.8864  -16.1265 N   0  0  0  0  0  0  0  0  0  0  0  0
   27.4811  -31.6927  -16.9522 C   0  0  0  0  0  0  0  0  0  0  0  0
   27.9777  -32.1705  -18.0284 N   0  0  0  0  0  0  0  0  0  0  0  0
   26.1383  -31.9552  -16.5860 N   0  0  0  0  0  0  0  0  0  0  0  0
   25.5947  -31.4052  -15.3813 C   0  0  0  0  0  0  0  0  0  0  0  0
   24.1325  -31.7553  -15.1788 C   0  0  0  0  0  0  0  0  0  0  0  0
   23.8666  -33.1719  -15.6448 C   0  0  0  0  0  0  0  0  0  0  0  0
   22.4045  -33.4848  -15.3969 C   0  0  2  0  0  0  0  0  0  0  0  0
   21.6306  -32.4735  -16.0848 N   0  0  0  0  0  0  0  0  0  0  0  0
   22.1951  -33.4232  -13.9154 C   0  0  0  0  0  0  0  0  0  0  0  0
   21.4241  -32.5769  -13.3948 O   0  0  0  0  0  0  0  0  0  0  0  0
   27.5105  -32.7868  -18.7081 N   0  0  0  0  0  0  0  0  0  0  0  0
   22.8521  -34.3129  -13.0026 C   0  0  2  0  0  0  0  0  0  0  0  0
   22.5825  -34.2468  -11.5890 C   0  0  0  0  0  0  0  0  0  0  0  0
   22.9273  -35.5750  -10.9635 C   0  0  0  0  0  0  0  0  0  0  0  0
   21.6905  -36.4271  -10.9020 C   0  0  0  0  0  0  0  0  0  0  0  0
   21.9876  -37.7274  -10.2124 O   0  0  0  0  0  0  0  0  0  0  0  0
   22.6916  -38.5745  -10.8117 C   0  0  0  0  0  0  0  0  0  0  0  0
   23.3564  -33.1891  -10.8841 O   0  0  0  0  0  0  0  0  0  0  0  0
   24.3523  -32.6098  -11.3638 O   0  0  0  0  0  0  0  0  0  0  0  0
   21.4975  -37.9791   -8.9461 N   0  0  0  0  0  0  0  0  0  0  0  0
   22.8948  -32.8493   -9.5836 C   0  0  2  0  0  0  0  0  0  0  0  0
   23.5186  -31.7576   -8.8242 C   0  0  0  0  0  0  0  0  0  0  0  0
   23.2395  -30.4883   -9.5996 C   0  0  0  0  0  0  0  0  0  0  0  0
   23.7965  -29.2713   -8.9795 C   0  0  0  0  0  0  0  0  0  0  0  0
   24.4807  -28.3253   -9.7079 C   0  0  0  0  0  0  0  0  0  0  0  0
   24.9912  -27.1952   -9.1098 C   0  0  0  0  0  0  0  0  0  0  0  0
   24.8358  -26.9676   -7.7493 C   0  0  0  0  0  0  0  0  0  0  0  0
   24.1517  -27.9159   -7.0291 C   0  0  0  0  0  0  0  0  0  0  0  0
   23.6396  -29.0462   -7.6213 C   0  0  0  0  0  0  0  0  0  0  0  0
   22.9437  -31.6347   -7.4829 O   0  0  0  0  0  0  0  0  0  0  0  0
   21.8681  -32.1976   -7.2056 O   0  0  0  0  0  0  0  0  0  0  0  0
  1  2  1  0
  2  3  2  0
  4  2  1  0
  5  4  1  0
  6  5  1  0
  7  6  1  0
  8  7  1  0
  8  9  1  6
 10  8  1  0
 11 10  2  0
 12 10  1  0
 13 12  1  0
 14 15  1  0
 13 14  1  6
 15 16  1  0
 16 17  2  0
 18 13  1  0
 18 21  1  0
 19 18  2  0
 20 16  1  0
 22 21  1  0
 22 30  1  0
 22 23  1  6
 23 24  1  0
 24 29  2  0
 24 25  1  0
 25 26  2  0
 27 26  1  0
 28 27  2  0
 29 28  1  0
 30 32  1  0
 31 30  2  0
M  END
$$$$
