REF.pdb
     RDKit          3D

 32 32  0  0  1  0  0  0  0  0999 V2000
   26.6859  -24.7419  -15.7322 N   0  0  0  0  0  0  0  0  0  0  0  0
   27.6053  -24.8482  -16.8116 C   0  0  0  0  0  0  0  0  0  0  0  0
   27.3154  -25.6306  -17.7795 N   0  0  0  0  0  0  0  0  0  0  0  0
   28.8103  -24.1039  -16.8077 N   0  0  0  0  0  0  0  0  0  0  0  0
   28.9847  -23.0117  -15.8989 C   0  0  0  0  0  0  0  0  0  0  0  0
   27.9532  -21.9152  -16.0874 C   0  0  0  0  0  0  0  0  0  0  0  0
   28.3230  -20.7036  -15.2567 C   0  0  0  0  0  0  0  0  0  0  0  0
   27.2191  -19.6756  -15.4022 C   0  0  2  0  0  0  0  0  0  0  0  0
   27.8435  -18.4360  -15.8125 N   0  0  0  0  0  0  0  0  0  0  0  0
   26.5707  -19.5454  -14.0587 C   0  0  0  0  0  0  0  0  0  0  0  0
   27.0279  -18.7703  -13.1801 O   0  0  0  0  0  0  0  0  0  0  0  0
   27.8631  -25.7874  -18.6370 N   0  0  0  0  0  0  0  0  0  0  0  0
   25.4006  -20.2870  -13.6881 C   0  0  2  0  0  0  0  0  0  0  0  0
   24.7907  -20.1010  -12.3964 C   0  0  0  0  0  0  0  0  0  0  0  0
   23.3936  -20.6678  -12.4299 C   0  0  0  0  0  0  0  0  0  0  0  0
   22.7024  -20.3530  -11.1326 C   0  0  0  0  0  0  0  0  0  0  0  0
   21.2929  -20.8700  -11.1547 O   0  0  0  0  0  0  0  0  0  0  0  0
   20.5741  -20.6890  -10.1432 C   0  0  0  0  0  0  0  0  0  0  0  0
   25.5312  -20.7620  -11.2876 O   0  0  0  0  0  0  0  0  0  0  0  0
   25.8387  -21.9713  -11.2711 O   0  0  0  0  0  0  0  0  0  0  0  0
   20.8025  -21.5264  -12.2663 N   0  0  0  0  0  0  0  0  0  0  0  0
   25.8908  -19.9225  -10.1986 C   0  0  2  0  0  0  0  0  0  0  0  0
   26.5473  -20.4749   -9.0064 C   0  0  0  0  0  0  0  0  0  0  0  0
   27.2714  -19.3207   -8.3479 C   0  0  0  0  0  0  0  0  0  0  0  0
   27.8173  -19.6369   -7.0145 C   0  0  0  0  0  0  0  0  0  0  0  0
   27.2363  -19.1738   -5.8563 C   0  0  0  0  0  0  0  0  0  0  0  0
   27.7609  -19.4822   -4.6213 C   0  0  0  0  0  0  0  0  0  0  0  0
   28.8963  -20.2712   -4.4978 C   0  0  0  0  0  0  0  0  0  0  0  0
   29.4704  -20.7297   -5.6580 C   0  0  0  0  0  0  0  0  0  0  0  0
   28.9505  -20.4251   -6.8939 C   0  0  0  0  0  0  0  0  0  0  0  0
   25.5752  -21.0306   -8.0625 O   0  0  0  0  0  0  0  0  0  0  0  0
   24.4051  -20.6053   -8.0413 O   0  0  0  0  0  0  0  0  0  0  0  0
  1  2  1  0
  2  3  2  0
  4  2  1  0
  5  4  1  0
  6  5  1  0
  7  6  1  0
  8  7  1  0
  8  9  1  1
 10  8  1  0
 11 10  2  0
 12 10  1  0
 13 12  1  0
 14 15  1  0
 13 14  1  6
 15 16  1  0
 16 17  2  0
 18 13  1  0
 18 21  1  0
 19 18  2  0
 20 16  1  0
 22 21  1  0
 22 30  1  0
 22 23  1  1
 23 24  1  0
 24 29  2  0
 24 25  1  0
 25 26  2  0
 27 26  1  0
 28 27  2  0
 29 28  1  0
 30 32  1  0
 31 30  2  0
M  END
$$$$
