REF.pdb
     RDKit          3D

 32 32  0  0  1  0  0  0  0  0999 V2000
   27.8321  -29.8891  -18.8216 N   0  0  0  0  0  0  0  0  0  0  0  0
   28.0287  -30.0575  -17.4235 C   0  0  0  0  0  0  0  0  0  0  0  0
   28.8703  -30.9357  -17.0316 N   0  0  0  0  0  0  0  0  0  0  0  0
   27.3065  -29.2695  -16.4943 N   0  0  0  0  0  0  0  0  0  0  0  0
   26.5453  -28.1412  -16.9378 C   0  0  0  0  0  0  0  0  0  0  0  0
   27.4139  -26.9934  -17.4169 C   0  0  0  0  0  0  0  0  0  0  0  0
   26.9689  -25.6980  -16.7698 C   0  0  0  0  0  0  0  0  0  0  0  0
   27.7851  -24.5676  -17.3640 C   0  0  2  0  0  0  0  0  0  0  0  0
   29.1502  -24.7489  -16.9187 N   0  0  0  0  0  0  0  0  0  0  0  0
   27.2014  -23.2921  -16.8402 C   0  0  0  0  0  0  0  0  0  0  0  0
   27.7166  -22.6836  -15.8675 O   0  0  0  0  0  0  0  0  0  0  0  0
   29.1471  -31.1414  -16.0615 N   0  0  0  0  0  0  0  0  0  0  0  0
   26.0301  -22.6869  -17.4044 C   0  0  2  0  0  0  0  0  0  0  0  0
   25.4737  -21.4877  -16.8321 C   0  0  0  0  0  0  0  0  0  0  0  0
   24.6092  -20.8094  -17.8649 C   0  0  0  0  0  0  0  0  0  0  0  0
   24.0838  -19.5199  -17.2984 C   0  0  0  0  0  0  0  0  0  0  0  0
   23.2227  -18.8194  -18.3094 O   0  0  0  0  0  0  0  0  0  0  0  0
   21.9769  -18.8944  -18.1877 C   0  0  0  0  0  0  0  0  0  0  0  0
   24.6416  -21.7355  -15.6234 O   0  0  0  0  0  0  0  0  0  0  0  0
   23.8982  -22.7265  -15.4735 O   0  0  0  0  0  0  0  0  0  0  0  0
   23.7936  -18.1075  -19.3460 N   0  0  0  0  0  0  0  0  0  0  0  0
   24.7319  -20.7536  -14.5998 C   0  0  2  0  0  0  0  0  0  0  0  0
   24.0446  -20.9395  -13.3151 C   0  0  0  0  0  0  0  0  0  0  0  0
   24.7493  -20.0397  -12.3232 C   0  0  0  0  0  0  0  0  0  0  0  0
   24.1441  -20.0390  -10.9779 C   0  0  0  0  0  0  0  0  0  0  0  0
   24.7634  -20.6211   -9.8957 C   0  0  0  0  0  0  0  0  0  0  0  0
   24.1820  -20.6078   -8.6478 C   0  0  0  0  0  0  0  0  0  0  0  0
   22.9488  -20.0075   -8.4342 C   0  0  0  0  0  0  0  0  0  0  0  0
   22.3370  -19.4286   -9.5189 C   0  0  0  0  0  0  0  0  0  0  0  0
   22.9133  -19.4386  -10.7672 C   0  0  0  0  0  0  0  0  0  0  0  0
   22.6347  -20.5515  -13.3950 O   0  0  0  0  0  0  0  0  0  0  0  0
   21.7765  -21.1586  -12.7276 O   0  0  0  0  0  0  0  0  0  0  0  0
  1  2  1  0
  2  3  2  0
  4  2  1  0
  5  4  1  0
  6  5  1  0
  7  6  1  0
  8  7  1  0
  8  9  1  1
 10  8  1  0
 11 10  2  0
 12 10  1  0
 13 12  1  0
 14 15  1  0
 13 14  1  6
 15 16  1  0
 16 17  2  0
 18 13  1  0
 18 21  1  0
 19 18  2  0
 20 16  1  0
 22 21  1  0
 22 30  1  0
 22 23  1  1
 23 24  1  0
 24 29  2  0
 24 25  1  0
 25 26  2  0
 27 26  1  0
 28 27  2  0
 29 28  1  0
 30 32  1  0
 31 30  2  0
M  END
$$$$
