REF.pdb
     RDKit          3D

 32 32  0  0  1  0  0  0  0  0999 V2000
   20.9284  -27.0438  -17.2152 N   0  0  0  0  0  0  0  0  0  0  0  0
   21.5283  -27.5247  -16.0191 C   0  0  0  0  0  0  0  0  0  0  0  0
   21.9580  -28.7280  -15.9982 N   0  0  0  0  0  0  0  0  0  0  0  0
   21.6429  -26.6866  -14.8831 N   0  0  0  0  0  0  0  0  0  0  0  0
   22.1529  -25.3554  -15.0129 C   0  0  0  0  0  0  0  0  0  0  0  0
   23.4054  -25.2826  -15.8658 C   0  0  0  0  0  0  0  0  0  0  0  0
   24.5562  -24.7234  -15.0547 C   0  0  0  0  0  0  0  0  0  0  0  0
   24.0054  -23.6668  -14.1182 C   0  0  2  0  0  0  0  0  0  0  0  0
   23.3303  -22.6828  -14.9372 N   0  0  0  0  0  0  0  0  0  0  0  0
   25.1777  -23.0728  -13.4004 C   0  0  0  0  0  0  0  0  0  0  0  0
   26.1559  -23.7778  -13.0427 O   0  0  0  0  0  0  0  0  0  0  0  0
   22.3482  -29.2344  -15.1912 N   0  0  0  0  0  0  0  0  0  0  0  0
   25.2621  -21.6786  -13.0759 C   0  0  1  0  0  0  0  0  0  0  0  0
   26.3829  -21.1633  -12.3320 C   0  0  0  0  0  0  0  0  0  0  0  0
   26.6582  -19.7499  -12.7801 C   0  0  0  0  0  0  0  0  0  0  0  0
   26.7088  -19.7096  -14.2819 C   0  0  0  0  0  0  0  0  0  0  0  0
   26.9657  -18.3087  -14.7570 O   0  0  0  0  0  0  0  0  0  0  0  0
   26.0359  -17.4710  -14.6784 C   0  0  0  0  0  0  0  0  0  0  0  0
   26.1638  -21.1472  -10.8602 O   0  0  0  0  0  0  0  0  0  0  0  0
   25.0428  -21.0671  -10.3177 O   0  0  0  0  0  0  0  0  0  0  0  0
   28.1999  -17.9543  -15.2653 N   0  0  0  0  0  0  0  0  0  0  0  0
   27.3358  -21.2307  -10.0605 C   0  0  2  0  0  0  0  0  0  0  0  0
   27.2649  -21.0762   -8.6015 C   0  0  0  0  0  0  0  0  0  0  0  0
   28.5729  -20.4440   -8.1779 C   0  0  0  0  0  0  0  0  0  0  0  0
   28.6417  -20.1113   -6.7425 C   0  0  0  0  0  0  0  0  0  0  0  0
   29.1185  -21.0002   -5.8065 C   0  0  0  0  0  0  0  0  0  0  0  0
   29.1761  -20.6690   -4.4714 C   0  0  0  0  0  0  0  0  0  0  0  0
   28.7547  -19.4263   -4.0188 C   0  0  0  0  0  0  0  0  0  0  0  0
   28.2803  -18.5445   -4.9588 C   0  0  0  0  0  0  0  0  0  0  0  0
   28.2209  -18.8699   -6.2933 C   0  0  0  0  0  0  0  0  0  0  0  0
   26.1599  -20.2013   -8.2036 O   0  0  0  0  0  0  0  0  0  0  0  0
   26.0289  -19.0774   -8.7236 O   0  0  0  0  0  0  0  0  0  0  0  0
  1  2  1  0
  2  3  2  0
  4  2  1  0
  5  4  1  0
  6  5  1  0
  7  6  1  0
  8  7  1  0
  8  9  1  6
 10  8  1  0
 11 10  2  0
 12 10  1  0
 13 12  1  0
 14 15  1  0
 13 14  1  6
 15 16  1  0
 16 17  2  0
 18 13  1  0
 18 21  1  0
 19 18  2  0
 20 16  1  0
 22 21  1  0
 22 30  1  0
 22 23  1  6
 23 24  1  0
 24 29  2  0
 24 25  1  0
 25 26  2  0
 27 26  1  0
 28 27  2  0
 29 28  1  0
 30 32  1  0
 31 30  2  0
M  END
$$$$
