REF.pdb
     RDKit          3D

 32 32  0  0  1  0  0  0  0  0999 V2000
   15.2354  -12.4188  -19.8034 N   0  0  0  0  0  0  0  0  0  0  0  0
   16.0731  -13.5266  -19.4989 C   0  0  0  0  0  0  0  0  0  0  0  0
   15.6392  -14.7017  -19.7518 N   0  0  0  0  0  0  0  0  0  0  0  0
   17.3542  -13.3261  -18.9292 N   0  0  0  0  0  0  0  0  0  0  0  0
   17.6436  -12.1293  -18.1990 C   0  0  0  0  0  0  0  0  0  0  0  0
   19.0632  -12.0911  -17.6652 C   0  0  0  0  0  0  0  0  0  0  0  0
   19.3291  -10.7632  -16.9865 C   0  0  0  0  0  0  0  0  0  0  0  0
   18.7952  -10.8406  -15.5702 C   0  0  2  0  0  0  0  0  0  0  0  0
   17.5365  -11.5526  -15.6284 N   0  0  0  0  0  0  0  0  0  0  0  0
   18.6075   -9.4306  -15.1021 C   0  0  0  0  0  0  0  0  0  0  0  0
   19.5762   -8.6337  -15.0103 O   0  0  0  0  0  0  0  0  0  0  0  0
   16.1275  -15.5930  -19.5869 N   0  0  0  0  0  0  0  0  0  0  0  0
   17.3274   -8.9016  -14.7307 C   0  0  1  0  0  0  0  0  0  0  0  0
   17.2146   -7.5863  -14.1541 C   0  0  0  0  0  0  0  0  0  0  0  0
   15.8087   -7.0814  -14.3611 C   0  0  0  0  0  0  0  0  0  0  0  0
   15.8056   -5.5807  -14.2728 C   0  0  0  0  0  0  0  0  0  0  0  0
   14.4336   -5.0447  -14.5636 O   0  0  0  0  0  0  0  0  0  0  0  0
   14.1078   -4.8534  -15.7593 C   0  0  0  0  0  0  0  0  0  0  0  0
   17.5093   -7.5483  -12.6959 O   0  0  0  0  0  0  0  0  0  0  0  0
   17.5297   -8.5537  -11.9569 O   0  0  0  0  0  0  0  0  0  0  0  0
   13.5529   -4.7729  -13.5352 N   0  0  0  0  0  0  0  0  0  0  0  0
   17.7791   -6.2625  -12.1538 C   0  0  1  0  0  0  0  0  0  0  0  0
   18.0582   -6.0921  -10.7218 C   0  0  0  0  0  0  0  0  0  0  0  0
   19.3213   -6.8764  -10.4398 C   0  0  0  0  0  0  0  0  0  0  0  0
   20.4173   -6.6118  -11.3908 C   0  0  0  0  0  0  0  0  0  0  0  0
   20.7918   -5.3346  -11.7402 C   0  0  0  0  0  0  0  0  0  0  0  0
   21.8191   -5.1094  -12.6287 C   0  0  0  0  0  0  0  0  0  0  0  0
   22.5154   -6.1621  -13.2064 C   0  0  0  0  0  0  0  0  0  0  0  0
   22.1361   -7.4338  -12.8528 C   0  0  0  0  0  0  0  0  0  0  0  0
   21.1112   -7.6644  -11.9657 C   0  0  0  0  0  0  0  0  0  0  0  0
   18.2816   -4.6862  -10.3781 O   0  0  0  0  0  0  0  0  0  0  0  0
   18.4062   -3.8315  -11.2751 O   0  0  0  0  0  0  0  0  0  0  0  0
  1  2  1  0
  2  3  2  0
  4  2  1  0
  5  4  1  0
  6  5  1  0
  7  6  1  0
  8  7  1  0
  8  9  1  6
 10  8  1  0
 11 10  2  0
 12 10  1  0
 13 12  1  0
 14 15  1  0
 13 14  1  6
 15 16  1  0
 16 17  2  0
 18 13  1  0
 18 21  1  0
 19 18  2  0
 20 16  1  0
 22 21  1  0
 22 30  1  0
 22 23  1  1
 23 24  1  0
 24 29  2  0
 24 25  1  0
 25 26  2  0
 27 26  1  0
 28 27  2  0
 29 28  1  0
 30 32  1  0
 31 30  2  0
M  END
$$$$
