REF.pdb
     RDKit          3D

 32 32  0  0  1  0  0  0  0  0999 V2000
   17.8396  -23.2092  -14.8400 N   0  0  0  0  0  0  0  0  0  0  0  0
   18.7282  -23.9215  -13.9886 C   0  0  0  0  0  0  0  0  0  0  0  0
   18.2709  -24.3887  -12.8906 N   0  0  0  0  0  0  0  0  0  0  0  0
   20.0844  -24.1046  -14.3537 N   0  0  0  0  0  0  0  0  0  0  0  0
   20.4281  -24.9143  -15.4830 C   0  0  0  0  0  0  0  0  0  0  0  0
   21.4893  -25.9512  -15.1659 C   0  0  0  0  0  0  0  0  0  0  0  0
   22.8323  -25.5041  -15.7056 C   0  0  0  0  0  0  0  0  0  0  0  0
   23.1051  -26.2670  -16.9864 C   0  0  2  0  0  0  0  0  0  0  0  0
   23.8862  -27.4320  -16.6294 N   0  0  0  0  0  0  0  0  0  0  0  0
   23.8724  -25.3450  -17.8828 C   0  0  0  0  0  0  0  0  0  0  0  0
   25.1296  -25.3120  -17.8714 O   0  0  0  0  0  0  0  0  0  0  0  0
   18.7987  -24.8849  -12.1589 N   0  0  0  0  0  0  0  0  0  0  0  0
   23.2334  -24.4486  -18.8018 C   0  0  2  0  0  0  0  0  0  0  0  0
   24.0082  -23.5099  -19.5723 C   0  0  0  0  0  0  0  0  0  0  0  0
   23.2713  -23.2023  -20.8516 C   0  0  0  0  0  0  0  0  0  0  0  0
   24.1785  -22.4328  -21.7706 C   0  0  0  0  0  0  0  0  0  0  0  0
   23.3827  -21.7892  -22.8692 O   0  0  0  0  0  0  0  0  0  0  0  0
   23.9953  -21.1353  -23.7465 C   0  0  0  0  0  0  0  0  0  0  0  0
   24.2623  -22.2255  -18.8650 O   0  0  0  0  0  0  0  0  0  0  0  0
   23.3780  -21.5431  -18.3084 O   0  0  0  0  0  0  0  0  0  0  0  0
   22.0085  -21.9194  -22.9104 N   0  0  0  0  0  0  0  0  0  0  0  0
   25.6142  -21.7870  -18.8478 C   0  0  1  0  0  0  0  0  0  0  0  0
   25.9991  -20.5598  -18.1384 C   0  0  0  0  0  0  0  0  0  0  0  0
   26.7510  -21.0027  -16.9021 C   0  0  0  0  0  0  0  0  0  0  0  0
   25.9391  -21.7906  -15.9557 C   0  0  0  0  0  0  0  0  0  0  0  0
   26.0302  -23.1614  -15.8768 C   0  0  0  0  0  0  0  0  0  0  0  0
   25.2644  -23.8780  -14.9848 C   0  0  0  0  0  0  0  0  0  0  0  0
   24.3708  -23.2449  -14.1319 C   0  0  0  0  0  0  0  0  0  0  0  0
   24.2856  -21.8768  -14.2162 C   0  0  0  0  0  0  0  0  0  0  0  0
   25.0482  -21.1563  -15.1049 C   0  0  0  0  0  0  0  0  0  0  0  0
   26.8749  -19.7159  -18.9541 O   0  0  0  0  0  0  0  0  0  0  0  0
   27.2920  -20.1215  -20.0551 O   0  0  0  0  0  0  0  0  0  0  0  0
  1  2  1  0
  2  3  2  0
  4  2  1  0
  5  4  1  0
  6  5  1  0
  7  6  1  0
  8  7  1  0
  8  9  1  1
 10  8  1  0
 11 10  2  0
 12 10  1  0
 13 12  1  0
 14 15  1  0
 13 14  1  6
 15 16  1  0
 16 17  2  0
 18 13  1  0
 18 21  1  0
 19 18  2  0
 20 16  1  0
 22 21  1  0
 22 30  1  0
 22 23  1  6
 23 24  1  0
 24 29  2  0
 24 25  1  0
 25 26  2  0
 27 26  1  0
 28 27  2  0
 29 28  1  0
 30 32  1  0
 31 30  2  0
M  END
$$$$
