REF.pdb
     RDKit          3D

 32 32  0  0  1  0  0  0  0  0999 V2000
   31.5445  -26.7192  -19.6855 N   0  0  0  0  0  0  0  0  0  0  0  0
   32.2604  -26.9643  -18.4817 C   0  0  0  0  0  0  0  0  0  0  0  0
   33.3016  -27.7033  -18.5358 N   0  0  0  0  0  0  0  0  0  0  0  0
   31.8251  -26.4014  -17.2571 N   0  0  0  0  0  0  0  0  0  0  0  0
   30.7224  -25.4890  -17.2300 C   0  0  0  0  0  0  0  0  0  0  0  0
   31.0272  -24.1727  -17.9201 C   0  0  0  0  0  0  0  0  0  0  0  0
   29.9654  -23.1475  -17.5789 C   0  0  0  0  0  0  0  0  0  0  0  0
   28.9474  -23.8058  -16.6693 C   0  0  2  0  0  0  0  0  0  0  0  0
   28.0557  -24.5722  -17.5133 N   0  0  0  0  0  0  0  0  0  0  0  0
   28.2220  -22.7022  -15.9634 C   0  0  0  0  0  0  0  0  0  0  0  0
   28.8379  -21.8314  -15.2969 O   0  0  0  0  0  0  0  0  0  0  0  0
   33.9446  -27.9281  -17.7639 N   0  0  0  0  0  0  0  0  0  0  0  0
   26.7949  -22.5666  -15.9985 C   0  0  1  0  0  0  0  0  0  0  0  0
   26.1352  -21.5366  -15.2375 C   0  0  0  0  0  0  0  0  0  0  0  0
   24.7578  -21.3132  -15.8094 C   0  0  0  0  0  0  0  0  0  0  0  0
   24.1069  -20.1630  -15.0932 C   0  0  0  0  0  0  0  0  0  0  0  0
   22.7174  -19.9420  -15.6177 O   0  0  0  0  0  0  0  0  0  0  0  0
   22.3094  -20.6696  -16.5539 C   0  0  0  0  0  0  0  0  0  0  0  0
   25.9883  -21.8650  -13.7934 O   0  0  0  0  0  0  0  0  0  0  0  0
   25.5697  -22.9581  -13.3607 O   0  0  0  0  0  0  0  0  0  0  0  0
   21.9098  -18.9612  -15.0765 N   0  0  0  0  0  0  0  0  0  0  0  0
   26.3613  -20.8371  -12.8855 C   0  0  2  0  0  0  0  0  0  0  0  0
   26.3889  -21.0843  -11.4378 C   0  0  0  0  0  0  0  0  0  0  0  0
   27.5711  -20.3092  -10.8977 C   0  0  0  0  0  0  0  0  0  0  0  0
   27.7549  -20.4336   -9.4395 C   0  0  0  0  0  0  0  0  0  0  0  0
   28.5746  -21.3886   -8.8831 C   0  0  0  0  0  0  0  0  0  0  0  0
   28.7337  -21.4865   -7.5191 C   0  0  0  0  0  0  0  0  0  0  0  0
   28.0726  -20.6261   -6.6533 C   0  0  0  0  0  0  0  0  0  0  0  0
   27.2565  -19.6756   -7.2159 C   0  0  0  0  0  0  0  0  0  0  0  0
   27.0943  -19.5732   -8.5774 C   0  0  0  0  0  0  0  0  0  0  0  0
   25.1671  -20.6095  -10.7849 O   0  0  0  0  0  0  0  0  0  0  0  0
   24.5163  -19.6684  -11.2764 O   0  0  0  0  0  0  0  0  0  0  0  0
  1  2  1  0
  2  3  2  0
  4  2  1  0
  5  4  1  0
  6  5  1  0
  7  6  1  0
  8  7  1  0
  8  9  1  6
 10  8  1  0
 11 10  2  0
 12 10  1  0
 13 12  1  0
 14 15  1  0
 13 14  1  6
 15 16  1  0
 16 17  2  0
 18 13  1  0
 18 21  1  0
 19 18  2  0
 20 16  1  0
 22 21  1  0
 22 30  1  0
 22 23  1  6
 23 24  1  0
 24 29  2  0
 24 25  1  0
 25 26  2  0
 27 26  1  0
 28 27  2  0
 29 28  1  0
 30 32  1  0
 31 30  2  0
M  END
$$$$
