REF.pdb
     RDKit          3D

 32 32  0  0  1  0  0  0  0  0999 V2000
   12.3522  -22.9497   -4.9495 N   0  0  0  0  0  0  0  0  0  0  0  0
   13.6234  -22.3368   -5.1230 C   0  0  0  0  0  0  0  0  0  0  0  0
   13.8935  -21.8128   -6.2568 N   0  0  0  0  0  0  0  0  0  0  0  0
   14.5620  -22.3117   -4.0627 N   0  0  0  0  0  0  0  0  0  0  0  0
   14.2456  -22.9077   -2.8002 C   0  0  0  0  0  0  0  0  0  0  0  0
   13.6693  -21.9168   -1.8064 C   0  0  0  0  0  0  0  0  0  0  0  0
   14.7078  -21.5630   -0.7618 C   0  0  0  0  0  0  0  0  0  0  0  0
   14.6531  -22.6096    0.3330 C   0  0  2  0  0  0  0  0  0  0  0  0
   13.3078  -23.1434    0.3443 N   0  0  0  0  0  0  0  0  0  0  0  0
   14.9768  -21.9091    1.6163 C   0  0  0  0  0  0  0  0  0  0  0  0
   14.1023  -21.2698    2.2554 O   0  0  0  0  0  0  0  0  0  0  0  0
   14.7909  -21.4055   -6.5550 N   0  0  0  0  0  0  0  0  0  0  0  0
   16.2889  -21.9192    2.1948 C   0  0  2  0  0  0  0  0  0  0  0  0
   16.5699  -21.1709    3.3932 C   0  0  0  0  0  0  0  0  0  0  0  0
   17.5135  -21.9691    4.2573 C   0  0  0  0  0  0  0  0  0  0  0  0
   16.7655  -23.1185    4.8731 C   0  0  0  0  0  0  0  0  0  0  0  0
   17.7135  -24.0252    5.6037 O   0  0  0  0  0  0  0  0  0  0  0  0
   18.9432  -23.7928    5.5245 C   0  0  0  0  0  0  0  0  0  0  0  0
   17.1911  -19.8436    3.1344 O   0  0  0  0  0  0  0  0  0  0  0  0
   18.0228  -19.6214    2.2309 O   0  0  0  0  0  0  0  0  0  0  0  0
   17.2377  -25.0875    6.3469 N   0  0  0  0  0  0  0  0  0  0  0  0
   16.7803  -18.7909    3.9964 C   0  0  1  0  0  0  0  0  0  0  0  0
   17.5052  -17.5138    4.0243 C   0  0  0  0  0  0  0  0  0  0  0  0
   16.6645  -16.5317    3.2377 C   0  0  0  0  0  0  0  0  0  0  0  0
   17.2938  -15.2094    3.0611 C   0  0  0  0  0  0  0  0  0  0  0  0
   16.9278  -14.1173    3.8140 C   0  0  0  0  0  0  0  0  0  0  0  0
   17.5294  -12.8920    3.6345 C   0  0  0  0  0  0  0  0  0  0  0  0
   18.5272  -12.7115    2.6866 C   0  0  0  0  0  0  0  0  0  0  0  0
   18.8872  -13.8060    1.9392 C   0  0  0  0  0  0  0  0  0  0  0  0
   18.2901  -15.0320    2.1146 C   0  0  0  0  0  0  0  0  0  0  0  0
   17.6695  -17.0151    5.3914 O   0  0  0  0  0  0  0  0  0  0  0  0
   16.9036  -17.3962    6.2963 O   0  0  0  0  0  0  0  0  0  0  0  0
  1  2  1  0
  2  3  2  0
  4  2  1  0
  5  4  1  0
  6  5  1  0
  7  6  1  0
  8  7  1  0
  8  9  1  1
 10  8  1  0
 11 10  2  0
 12 10  1  0
 13 12  1  0
 14 15  1  0
 13 14  1  1
 15 16  1  0
 16 17  2  0
 18 13  1  0
 18 21  1  0
 19 18  2  0
 20 16  1  0
 22 21  1  0
 22 30  1  0
 22 23  1  1
 23 24  1  0
 24 29  2  0
 24 25  1  0
 25 26  2  0
 27 26  1  0
 28 27  2  0
 29 28  1  0
 30 32  1  0
 31 30  2  0
M  END
$$$$
