REF.pdb
     RDKit          3D

 32 32  0  0  1  0  0  0  0  0999 V2000
   28.9823  -27.4383  -17.2682 N   0  0  0  0  0  0  0  0  0  0  0  0
   27.6977  -27.7733  -17.7773 C   0  0  0  0  0  0  0  0  0  0  0  0
   27.5288  -28.9374  -18.2767 N   0  0  0  0  0  0  0  0  0  0  0  0
   26.6369  -26.8361  -17.7299 N   0  0  0  0  0  0  0  0  0  0  0  0
   26.9030  -25.4521  -17.4792 C   0  0  0  0  0  0  0  0  0  0  0  0
   28.1304  -25.2331  -16.6149 C   0  0  0  0  0  0  0  0  0  0  0  0
   28.0041  -23.9311  -15.8509 C   0  0  0  0  0  0  0  0  0  0  0  0
   27.1343  -22.9903  -16.6604 C   0  0  2  0  0  0  0  0  0  0  0  0
   27.9716  -22.4202  -17.6941 N   0  0  0  0  0  0  0  0  0  0  0  0
   26.6377  -21.9407  -15.7148 C   0  0  0  0  0  0  0  0  0  0  0  0
   27.3110  -20.9079  -15.4661 O   0  0  0  0  0  0  0  0  0  0  0  0
   26.6470  -29.3452  -18.6175 N   0  0  0  0  0  0  0  0  0  0  0  0
   25.3778  -22.0417  -15.0374 C   0  0  2  0  0  0  0  0  0  0  0  0
   25.0227  -21.1057  -14.0016 C   0  0  0  0  0  0  0  0  0  0  0  0
   23.5221  -20.9600  -13.9686 C   0  0  0  0  0  0  0  0  0  0  0  0
   23.0671  -20.2579  -15.2174 C   0  0  0  0  0  0  0  0  0  0  0  0
   21.5777  -20.0684  -15.1952 O   0  0  0  0  0  0  0  0  0  0  0  0
   21.1227  -18.9017  -15.2608 C   0  0  0  0  0  0  0  0  0  0  0  0
   25.4771  -21.5175  -12.6457 O   0  0  0  0  0  0  0  0  0  0  0  0
   25.9130  -22.6528  -12.3657 O   0  0  0  0  0  0  0  0  0  0  0  0
   20.7322  -21.1568  -15.1076 N   0  0  0  0  0  0  0  0  0  0  0  0
   25.3911  -20.5205  -11.6364 C   0  0  1  0  0  0  0  0  0  0  0  0
   25.7992  -20.8096  -10.2554 C   0  0  0  0  0  0  0  0  0  0  0  0
   27.0870  -20.0488  -10.0256 C   0  0  0  0  0  0  0  0  0  0  0  0
   27.5149  -20.0051   -8.6147 C   0  0  0  0  0  0  0  0  0  0  0  0
   27.0766  -19.0323   -7.7458 C   0  0  0  0  0  0  0  0  0  0  0  0
   27.4869  -19.0108   -6.4318 C   0  0  0  0  0  0  0  0  0  0  0  0
   28.3589  -19.9691   -5.9338 C   0  0  0  0  0  0  0  0  0  0  0  0
   28.7919  -20.9368   -6.8068 C   0  0  0  0  0  0  0  0  0  0  0  0
   28.3850  -20.9633   -8.1199 C   0  0  0  0  0  0  0  0  0  0  0  0
   24.7966  -20.3557   -9.2891 O   0  0  0  0  0  0  0  0  0  0  0  0
   24.7982  -20.7995   -8.1257 O   0  0  0  0  0  0  0  0  0  0  0  0
  1  2  1  0
  2  3  2  0
  4  2  1  0
  5  4  1  0
  6  5  1  0
  7  6  1  0
  8  7  1  0
  8  9  1  6
 10  8  1  0
 11 10  2  0
 12 10  1  0
 13 12  1  0
 14 15  1  0
 13 14  1  6
 15 16  1  0
 16 17  2  0
 18 13  1  0
 18 21  1  0
 19 18  2  0
 20 16  1  0
 22 21  1  0
 22 30  1  0
 22 23  1  1
 23 24  1  0
 24 29  2  0
 24 25  1  0
 25 26  2  0
 27 26  1  0
 28 27  2  0
 29 28  1  0
 30 32  1  0
 31 30  2  0
M  END
$$$$
