LMF.pdb
     RDKit          3D

 28 28  0  0  1  0  0  0  0  0999 V2000
   29.5113  -21.8951   -7.3643 C   0  0  0  0  0  0  0  0  0  0  0  0
   30.1323  -20.5871   -7.7961 C   0  0  2  0  0  0  0  0  0  0  0  0
   29.7391  -19.5515   -6.7531 C   0  0  0  0  0  0  0  0  0  0  0  0
   29.6097  -20.0994   -9.1240 C   0  0  0  0  0  0  0  0  0  0  0  0
   29.3111  -21.2255  -10.0809 C   0  0  2  0  0  0  0  0  0  0  0  0
   30.4883  -21.8024  -10.6521 N   0  0  0  0  0  0  0  0  0  0  0  0
   28.3880  -20.8301  -11.1590 C   0  0  0  0  0  0  0  0  0  0  0  0
   27.7077  -19.7927  -11.0441 O   0  0  0  0  0  0  0  0  0  0  0  0
   28.3094  -22.2654  -17.9709 C   0  0  0  0  0  0  0  0  0  0  0  0
   29.6361  -22.2871  -16.7640 S   0  0  0  0  0  0  0  0  0  0  0  0
   29.1754  -21.5380  -15.2028 C   0  0  0  0  0  0  0  0  0  0  0  0
   27.8131  -21.8450  -14.7172 C   0  0  0  0  0  0  0  0  0  0  0  0
   27.3787  -21.1906  -13.4349 C   0  0  2  0  0  0  0  0  0  0  0  0
   28.2271  -21.5920  -12.3598 N   0  0  0  0  0  0  0  0  0  0  0  0
   25.9410  -21.4416  -13.1596 C   0  0  0  0  0  0  0  0  0  0  0  0
   25.6192  -22.5627  -12.6959 O   0  0  0  0  0  0  0  0  0  0  0  0
   24.9356  -20.4837  -13.3951 N   0  0  0  0  0  0  0  0  0  0  0  0
   23.5755  -20.7133  -12.9860 C   0  0  1  0  0  0  0  0  0  0  0  0
   23.1439  -19.6848  -11.9546 C   0  0  0  0  0  0  0  0  0  0  0  0
   23.5678  -20.0422  -10.5874 C   0  0  0  0  0  0  0  0  0  0  0  0
   24.7729  -19.6052  -10.0824 C   0  0  0  0  0  0  0  0  0  0  0  0
   25.1368  -19.9605   -8.7959 C   0  0  0  0  0  0  0  0  0  0  0  0
   24.3050  -20.7364   -8.0400 C   0  0  0  0  0  0  0  0  0  0  0  0
   23.0972  -21.1845   -8.5225 C   0  0  0  0  0  0  0  0  0  0  0  0
   22.7395  -20.8244   -9.8126 C   0  0  0  0  0  0  0  0  0  0  0  0
   22.7062  -20.6839  -14.1734 C   0  0  0  0  0  0  0  0  0  0  0  0
   23.1340  -20.2375  -15.2546 O   0  0  0  0  0  0  0  0  0  0  0  0
   21.4110  -21.1504  -14.0979 O   0  0  0  0  0  0  0  0  0  0  0  0
  2  1  1  1
  2  3  1  0
  4  2  1  0
  5  6  1  6
  5  4  1  0
  7  5  1  0
  8  7  2  0
  9 10  1  0
 10 11  1  0
 11 12  1  0
 13 12  1  6
 13 14  1  0
 14  7  1  0
 15 13  1  0
 15 16  2  0
 17 18  1  0
 17 15  1  0
 18 19  1  1
 20 19  1  0
 21 20  2  0
 22 21  1  0
 23 24  1  0
 23 22  2  0
 24 25  2  0
 25 20  1  0
 26 28  1  0
 26 18  1  0
 27 26  2  0
M  END
$$$$
