LMF.pdb
     RDKit          3D

 28 28  0  0  1  0  0  0  0  0999 V2000
   29.5518  -17.0799  -16.9408 C   0  0  0  0  0  0  0  0  0  0  0  0
   28.0915  -17.4560  -17.0357 C   0  0  2  0  0  0  0  0  0  0  0  0
   27.3006  -16.1584  -16.9630 C   0  0  0  0  0  0  0  0  0  0  0  0
   27.6322  -18.3200  -15.8881 C   0  0  0  0  0  0  0  0  0  0  0  0
   28.3748  -19.6298  -15.8124 C   0  0  2  0  0  0  0  0  0  0  0  0
   28.1566  -20.4643  -16.9530 N   0  0  0  0  0  0  0  0  0  0  0  0
   28.0719  -20.3888  -14.5864 C   0  0  0  0  0  0  0  0  0  0  0  0
   27.0248  -21.0602  -14.5150 O   0  0  0  0  0  0  0  0  0  0  0  0
   32.3103  -22.6388   -9.6463 C   0  0  0  0  0  0  0  0  0  0  0  0
   30.9943  -21.6920   -8.8787 S   0  0  0  0  0  0  0  0  0  0  0  0
   29.5369  -21.5528   -9.9117 C   0  0  0  0  0  0  0  0  0  0  0  0
   29.7680  -21.0773  -11.2924 C   0  0  0  0  0  0  0  0  0  0  0  0
   28.5635  -20.9469  -12.1832 C   0  0  2  0  0  0  0  0  0  0  0  0
   28.9365  -20.3961  -13.4460 N   0  0  0  0  0  0  0  0  0  0  0  0
   27.4790  -20.1809  -11.5177 C   0  0  0  0  0  0  0  0  0  0  0  0
   27.5431  -18.9277  -11.5459 O   0  0  0  0  0  0  0  0  0  0  0  0
   26.3942  -20.7965  -10.8636 N   0  0  0  0  0  0  0  0  0  0  0  0
   25.3437  -20.0169  -10.2648 C   0  0  1  0  0  0  0  0  0  0  0  0
   24.3065  -19.6254  -11.3035 C   0  0  0  0  0  0  0  0  0  0  0  0
   23.6342  -20.7951  -11.9005 C   0  0  0  0  0  0  0  0  0  0  0  0
   22.3530  -21.1411  -11.5303 C   0  0  0  0  0  0  0  0  0  0  0  0
   21.7547  -22.2447  -12.1117 C   0  0  0  0  0  0  0  0  0  0  0  0
   22.4330  -22.9787  -13.0426 C   0  0  0  0  0  0  0  0  0  0  0  0
   23.7127  -22.6526  -13.4281 C   0  0  0  0  0  0  0  0  0  0  0  0
   24.3055  -21.5455  -12.8409 C   0  0  0  0  0  0  0  0  0  0  0  0
   24.7415  -20.7880   -9.1653 C   0  0  0  0  0  0  0  0  0  0  0  0
   23.7623  -20.3352   -8.5429 O   0  0  0  0  0  0  0  0  0  0  0  0
   25.2569  -22.0180   -8.8157 O   0  0  0  0  0  0  0  0  0  0  0  0
  2  1  1  1
  2  3  1  0
  4  2  1  0
  5  6  1  6
  5  4  1  0
  7  5  1  0
  8  7  2  0
  9 10  1  0
 10 11  1  0
 11 12  1  0
 13 12  1  1
 13 14  1  0
 14  7  1  0
 15 13  1  0
 15 16  2  0
 17 18  1  0
 17 15  1  0
 18 19  1  6
 20 19  1  0
 21 20  2  0
 22 21  1  0
 23 24  1  0
 23 22  2  0
 24 25  2  0
 25 20  1  0
 26 28  1  0
 26 18  1  0
 27 26  2  0
M  END
$$$$
