LMF.pdb
     RDKit          3D

 28 28  0  0  1  0  0  0  0  0999 V2000
   29.4107  -17.9811  -15.5673 C   0  0  0  0  0  0  0  0  0  0  0  0
   28.2827  -18.6063  -16.3544 C   0  0  2  0  0  0  0  0  0  0  0  0
   27.5549  -17.4680  -17.0540 C   0  0  0  0  0  0  0  0  0  0  0  0
   27.2735  -19.3062  -15.4791 C   0  0  0  0  0  0  0  0  0  0  0  0
   27.8739  -20.4455  -14.6954 C   0  0  2  0  0  0  0  0  0  0  0  0
   28.3789  -21.4931  -15.5274 N   0  0  0  0  0  0  0  0  0  0  0  0
   26.9409  -21.0134  -13.7065 C   0  0  0  0  0  0  0  0  0  0  0  0
   26.1835  -21.9473  -14.0329 O   0  0  0  0  0  0  0  0  0  0  0  0
   27.4587  -20.0635   -7.1736 C   0  0  0  0  0  0  0  0  0  0  0  0
   25.7042  -20.4083   -7.3154 S   0  0  0  0  0  0  0  0  0  0  0  0
   25.2047  -20.8249   -8.9850 C   0  0  0  0  0  0  0  0  0  0  0  0
   26.1891  -20.5248  -10.0465 C   0  0  0  0  0  0  0  0  0  0  0  0
   25.8388  -20.9490  -11.4461 C   0  0  2  0  0  0  0  0  0  0  0  0
   26.8561  -20.5385  -12.3591 N   0  0  0  0  0  0  0  0  0  0  0  0
   24.4878  -20.4696  -11.8344 C   0  0  0  0  0  0  0  0  0  0  0  0
   24.3814  -19.2918  -12.2551 O   0  0  0  0  0  0  0  0  0  0  0  0
   23.3345  -21.2737  -11.7505 N   0  0  0  0  0  0  0  0  0  0  0  0
   22.1043  -20.8828  -12.3861 C   0  0  1  0  0  0  0  0  0  0  0  0
   22.1932  -21.0725  -13.8907 C   0  0  0  0  0  0  0  0  0  0  0  0
   20.9244  -20.7614  -14.5762 C   0  0  0  0  0  0  0  0  0  0  0  0
   20.6027  -19.4658  -14.9174 C   0  0  0  0  0  0  0  0  0  0  0  0
   19.4038  -19.2124  -15.5595 C   0  0  0  0  0  0  0  0  0  0  0  0
   18.5531  -20.2407  -15.8493 C   0  0  0  0  0  0  0  0  0  0  0  0
   18.8525  -21.5420  -15.5186 C   0  0  0  0  0  0  0  0  0  0  0  0
   20.0557  -21.7880  -14.8753 C   0  0  0  0  0  0  0  0  0  0  0  0
   20.9975  -21.6625  -11.8087 C   0  0  0  0  0  0  0  0  0  0  0  0
   19.9253  -21.1045  -11.5084 O   0  0  0  0  0  0  0  0  0  0  0  0
   21.1391  -23.0173  -11.5959 O   0  0  0  0  0  0  0  0  0  0  0  0
  2  1  1  1
  2  3  1  0
  4  2  1  0
  5  6  1  6
  5  4  1  0
  7  5  1  0
  8  7  2  0
  9 10  1  0
 10 11  1  0
 11 12  1  0
 13 12  1  1
 13 14  1  0
 14  7  1  0
 15 13  1  0
 15 16  2  0
 17 18  1  0
 17 15  1  0
 18 19  1  6
 20 19  1  0
 21 20  2  0
 22 21  1  0
 23 24  1  0
 23 22  2  0
 24 25  2  0
 25 20  1  0
 26 28  1  0
 26 18  1  0
 27 26  2  0
M  END
$$$$
