LMF.pdb
     RDKit          3D

 28 28  0  0  1  0  0  0  0  0999 V2000
   27.5328  -18.9420  -18.4492 C   0  0  0  0  0  0  0  0  0  0  0  0
   27.3302  -20.4390  -18.4802 C   0  0  2  0  0  0  0  0  0  0  0  0
   26.9420  -20.7978  -19.9068 C   0  0  0  0  0  0  0  0  0  0  0  0
   26.2059  -20.8978  -17.5860 C   0  0  0  0  0  0  0  0  0  0  0  0
   26.4280  -20.5355  -16.1396 C   0  0  2  0  0  0  0  0  0  0  0  0
   27.7061  -20.9480  -15.6485 N   0  0  0  0  0  0  0  0  0  0  0  0
   25.3726  -21.0540  -15.2517 C   0  0  0  0  0  0  0  0  0  0  0  0
   24.4778  -21.7874  -15.7139 O   0  0  0  0  0  0  0  0  0  0  0  0
   25.2929  -20.6535   -8.3849 C   0  0  0  0  0  0  0  0  0  0  0  0
   26.5738  -21.1903   -9.5200 S   0  0  0  0  0  0  0  0  0  0  0  0
   25.9287  -21.7140  -11.1075 C   0  0  0  0  0  0  0  0  0  0  0  0
   24.6856  -21.0471  -11.5503 C   0  0  0  0  0  0  0  0  0  0  0  0
   24.2867  -21.2262  -12.9891 C   0  0  2  0  0  0  0  0  0  0  0  0
   25.3190  -20.7530  -13.8536 N   0  0  0  0  0  0  0  0  0  0  0  0
   22.9693  -20.5995  -13.2672 C   0  0  0  0  0  0  0  0  0  0  0  0
   22.8883  -19.3487  -13.1992 O   0  0  0  0  0  0  0  0  0  0  0  0
   21.8204  -21.3430  -13.6000 N   0  0  0  0  0  0  0  0  0  0  0  0
   20.5558  -20.6980  -13.8342 C   0  0  1  0  0  0  0  0  0  0  0  0
   20.3713  -20.3981  -15.3119 C   0  0  0  0  0  0  0  0  0  0  0  0
   20.3854  -21.6172  -16.1428 C   0  0  0  0  0  0  0  0  0  0  0  0
   21.5149  -21.9859  -16.8403 C   0  0  0  0  0  0  0  0  0  0  0  0
   21.4907  -23.1358  -17.6092 C   0  0  0  0  0  0  0  0  0  0  0  0
   20.3555  -23.8926  -17.6713 C   0  0  0  0  0  0  0  0  0  0  0  0
   19.2159  -23.5446  -16.9838 C   0  0  0  0  0  0  0  0  0  0  0  0
   19.2479  -22.3911  -16.2156 C   0  0  0  0  0  0  0  0  0  0  0  0
   19.4770  -21.5567  -13.3193 C   0  0  0  0  0  0  0  0  0  0  0  0
   19.7352  -22.6899  -12.8716 O   0  0  0  0  0  0  0  0  0  0  0  0
   18.1716  -21.1130  -13.3287 O   0  0  0  0  0  0  0  0  0  0  0  0
  2  1  1  6
  2  3  1  0
  4  2  1  0
  5  6  1  1
  5  4  1  0
  7  5  1  0
  8  7  2  0
  9 10  1  0
 10 11  1  0
 11 12  1  0
 13 12  1  1
 13 14  1  0
 14  7  1  0
 15 13  1  0
 15 16  2  0
 17 18  1  0
 17 15  1  0
 18 19  1  6
 20 19  1  0
 21 20  2  0
 22 21  1  0
 23 24  1  0
 23 22  2  0
 24 25  2  0
 25 20  1  0
 26 28  1  0
 26 18  1  0
 27 26  2  0
M  END
$$$$
