LMF.pdb
     RDKit          3D

 28 28  0  0  1  0  0  0  0  0999 V2000
   29.5653  -18.3823  -14.1877 C   0  0  0  0  0  0  0  0  0  0  0  0
   29.0007  -19.7006  -14.6631 C   0  0  2  0  0  0  0  0  0  0  0  0
   28.1650  -19.3980  -15.8980 C   0  0  0  0  0  0  0  0  0  0  0  0
   28.0834  -20.3444  -13.6539 C   0  0  0  0  0  0  0  0  0  0  0  0
   28.7906  -20.7068  -12.3728 C   0  0  2  0  0  0  0  0  0  0  0  0
   29.7986  -21.7051  -12.5523 N   0  0  0  0  0  0  0  0  0  0  0  0
   27.8644  -21.1333  -11.3093 C   0  0  0  0  0  0  0  0  0  0  0  0
   27.3628  -22.2733  -11.3435 O   0  0  0  0  0  0  0  0  0  0  0  0
   27.5827  -18.3615   -5.3933 C   0  0  0  0  0  0  0  0  0  0  0  0
   27.8222  -20.1356   -5.5055 S   0  0  0  0  0  0  0  0  0  0  0  0
   27.5477  -20.7767   -7.1560 C   0  0  0  0  0  0  0  0  0  0  0  0
   26.6039  -20.0099   -7.9970 C   0  0  0  0  0  0  0  0  0  0  0  0
   26.3580  -20.5191   -9.3904 C   0  0  2  0  0  0  0  0  0  0  0  0
   27.5012  -20.2880  -10.2130 N   0  0  0  0  0  0  0  0  0  0  0  0
   25.1114  -19.9493   -9.9624 C   0  0  0  0  0  0  0  0  0  0  0  0
   25.1497  -18.7726  -10.3975 O   0  0  0  0  0  0  0  0  0  0  0  0
   23.9020  -20.6674  -10.0353 N   0  0  0  0  0  0  0  0  0  0  0  0
   22.8945  -20.3357  -11.0074 C   0  0  1  0  0  0  0  0  0  0  0  0
   23.2972  -20.8268  -12.3874 C   0  0  0  0  0  0  0  0  0  0  0  0
   22.2484  -20.5951  -13.3988 C   0  0  0  0  0  0  0  0  0  0  0  0
   22.0786  -19.3537  -13.9717 C   0  0  0  0  0  0  0  0  0  0  0  0
   21.0844  -19.1742  -14.9168 C   0  0  0  0  0  0  0  0  0  0  0  0
   20.2834  -20.2213  -15.2734 C   0  0  0  0  0  0  0  0  0  0  0  0
   20.4340  -21.4697  -14.7153 C   0  0  0  0  0  0  0  0  0  0  0  0
   21.4323  -21.6416  -13.7690 C   0  0  0  0  0  0  0  0  0  0  0  0
   21.6096  -20.9145  -10.5827 C   0  0  0  0  0  0  0  0  0  0  0  0
   21.5845  -21.9536   -9.8965 O   0  0  0  0  0  0  0  0  0  0  0  0
   20.4232  -20.3106  -10.9414 O   0  0  0  0  0  0  0  0  0  0  0  0
  2  1  1  1
  2  3  1  0
  4  2  1  0
  5  6  1  6
  5  4  1  0
  7  5  1  0
  8  7  2  0
  9 10  1  0
 10 11  1  0
 11 12  1  0
 13 12  1  1
 13 14  1  0
 14  7  1  0
 15 13  1  0
 15 16  2  0
 17 18  1  0
 17 15  1  0
 18 19  1  6
 20 19  1  0
 21 20  2  0
 22 21  1  0
 23 24  1  0
 23 22  2  0
 24 25  2  0
 25 20  1  0
 26 28  1  0
 26 18  1  0
 27 26  2  0
M  END
$$$$
