LMF.pdb
     RDKit          3D

 28 28  0  0  1  0  0  0  0  0999 V2000
   30.9381  -10.8392    9.5247 C   0  0  0  0  0  0  0  0  0  0  0  0
   31.1979  -11.1034    8.0599 C   0  0  2  0  0  0  0  0  0  0  0  0
   29.8401  -11.3113    7.4060 C   0  0  0  0  0  0  0  0  0  0  0  0
   32.0008  -12.3579    7.8232 C   0  0  0  0  0  0  0  0  0  0  0  0
   33.4358  -12.2223    8.2648 C   0  0  2  0  0  0  0  0  0  0  0  0
   34.1807  -11.2941    7.4721 N   0  0  0  0  0  0  0  0  0  0  0  0
   34.1464  -13.5124    8.3035 C   0  0  0  0  0  0  0  0  0  0  0  0
   34.5784  -14.0149    7.2485 O   0  0  0  0  0  0  0  0  0  0  0  0
   37.3775  -19.0142   13.1303 C   0  0  0  0  0  0  0  0  0  0  0  0
   36.8213  -17.3308   12.8584 S   0  0  0  0  0  0  0  0  0  0  0  0
   36.2510  -17.0431   11.1843 C   0  0  0  0  0  0  0  0  0  0  0  0
   35.6165  -15.7310   10.9356 C   0  0  0  0  0  0  0  0  0  0  0  0
   35.0437  -15.4952    9.5654 C   0  0  2  0  0  0  0  0  0  0  0  0
   34.3724  -14.2366    9.5171 N   0  0  0  0  0  0  0  0  0  0  0  0
   34.1807  -16.6258    9.1380 C   0  0  0  0  0  0  0  0  0  0  0  0
   32.9840  -16.6265    9.5168 O   0  0  0  0  0  0  0  0  0  0  0  0
   34.6452  -17.6849    8.3342 N   0  0  0  0  0  0  0  0  0  0  0  0
   33.7508  -18.7034    7.8517 C   0  0  1  0  0  0  0  0  0  0  0  0
   34.2465  -19.2728    6.5333 C   0  0  0  0  0  0  0  0  0  0  0  0
   33.2325  -20.1067    5.8602 C   0  0  0  0  0  0  0  0  0  0  0  0
   32.4505  -20.9868    6.5760 C   0  0  0  0  0  0  0  0  0  0  0  0
   31.5100  -21.7525    5.9104 C   0  0  0  0  0  0  0  0  0  0  0  0
   31.3635  -21.6318    4.5579 C   0  0  0  0  0  0  0  0  0  0  0  0
   32.1325  -20.7601    3.8223 C   0  0  0  0  0  0  0  0  0  0  0  0
   33.0729  -19.9963    4.4962 C   0  0  0  0  0  0  0  0  0  0  0  0
   33.6201  -19.7516    8.8766 C   0  0  0  0  0  0  0  0  0  0  0  0
   34.6158  -20.1234    9.5259 O   0  0  0  0  0  0  0  0  0  0  0  0
   32.3938  -20.3302    9.1260 O   0  0  0  0  0  0  0  0  0  0  0  0
  2  1  1  1
  2  3  1  0
  4  2  1  0
  5  6  1  6
  5  4  1  0
  7  5  1  0
  8  7  2  0
  9 10  1  0
 10 11  1  0
 11 12  1  0
 13 12  1  1
 13 14  1  0
 14  7  1  0
 15 13  1  0
 15 16  2  0
 17 18  1  0
 17 15  1  0
 18 19  1  6
 20 19  1  0
 21 20  2  0
 22 21  1  0
 23 24  1  0
 23 22  2  0
 24 25  2  0
 25 20  1  0
 26 28  1  0
 26 18  1  0
 27 26  2  0
M  END
$$$$
