LMF.pdb
     RDKit          3D

 28 28  0  0  1  0  0  0  0  0999 V2000
   30.6815  -22.4253   -9.7530 C   0  0  0  0  0  0  0  0  0  0  0  0
   31.0503  -21.5843  -10.9529 C   0  0  2  0  0  0  0  0  0  0  0  0
   32.2430  -20.7344  -10.5406 C   0  0  0  0  0  0  0  0  0  0  0  0
   29.9520  -20.6367  -11.3654 C   0  0  0  0  0  0  0  0  0  0  0  0
   28.7128  -21.3529  -11.8386 C   0  0  2  0  0  0  0  0  0  0  0  0
   28.9871  -22.3635  -12.8125 N   0  0  0  0  0  0  0  0  0  0  0  0
   27.6867  -20.4346  -12.3629 C   0  0  0  0  0  0  0  0  0  0  0  0
   27.4664  -19.3541  -11.7831 O   0  0  0  0  0  0  0  0  0  0  0  0
   24.7155  -20.0851  -18.6054 C   0  0  0  0  0  0  0  0  0  0  0  0
   24.1569  -18.9021  -17.3783 S   0  0  0  0  0  0  0  0  0  0  0  0
   25.4091  -18.5158  -16.1564 C   0  0  0  0  0  0  0  0  0  0  0  0
   26.0791  -19.6758  -15.5305 C   0  0  0  0  0  0  0  0  0  0  0  0
   25.9122  -19.8448  -14.0456 C   0  0  2  0  0  0  0  0  0  0  0  0
   26.9110  -20.7244  -13.5302 N   0  0  0  0  0  0  0  0  0  0  0  0
   24.5326  -20.2742  -13.7018 C   0  0  0  0  0  0  0  0  0  0  0  0
   24.2372  -21.4835  -13.8623 O   0  0  0  0  0  0  0  0  0  0  0  0
   23.5538  -19.3897  -13.2087 N   0  0  0  0  0  0  0  0  0  0  0  0
   22.2858  -19.8717  -12.7292 C   0  0  1  0  0  0  0  0  0  0  0  0
   21.8244  -19.0655  -11.5271 C   0  0  0  0  0  0  0  0  0  0  0  0
   20.5051  -19.4981  -11.0283 C   0  0  0  0  0  0  0  0  0  0  0  0
   20.3918  -20.5474  -10.1426 C   0  0  0  0  0  0  0  0  0  0  0  0
   19.1378  -20.9248   -9.6966 C   0  0  0  0  0  0  0  0  0  0  0  0
   18.0282  -20.2594  -10.1338 C   0  0  0  0  0  0  0  0  0  0  0  0
   18.1163  -19.2090  -11.0177 C   0  0  0  0  0  0  0  0  0  0  0  0
   19.3762  -18.8367  -11.4602 C   0  0  0  0  0  0  0  0  0  0  0  0
   21.3054  -19.8145  -13.8254 C   0  0  0  0  0  0  0  0  0  0  0  0
   21.3537  -18.8953  -14.6645 O   0  0  0  0  0  0  0  0  0  0  0  0
   20.3254  -20.7784  -13.9320 O   0  0  0  0  0  0  0  0  0  0  0  0
  2  1  1  1
  2  3  1  0
  4  2  1  0
  5  6  1  6
  5  4  1  0
  7  5  1  0
  8  7  2  0
  9 10  1  0
 10 11  1  0
 11 12  1  0
 13 12  1  6
 13 14  1  0
 14  7  1  0
 15 13  1  0
 15 16  2  0
 17 18  1  0
 17 15  1  0
 18 19  1  1
 20 19  1  0
 21 20  2  0
 22 21  1  0
 23 24  1  0
 23 22  2  0
 24 25  2  0
 25 20  1  0
 26 28  1  0
 26 18  1  0
 27 26  2  0
M  END
$$$$
