LMF.pdb
     RDKit          3D

 28 28  0  0  1  0  0  0  0  0999 V2000
   20.1063  -23.3082  -15.5925 C   0  0  0  0  0  0  0  0  0  0  0  0
   21.1745  -22.6006  -16.3932 C   0  0  2  0  0  0  0  0  0  0  0  0
   21.3508  -23.3911  -17.6811 C   0  0  0  0  0  0  0  0  0  0  0  0
   22.5127  -22.5811  -15.6982 C   0  0  0  0  0  0  0  0  0  0  0  0
   22.4432  -21.9772  -14.3186 C   0  0  2  0  0  0  0  0  0  0  0  0
   21.9725  -20.6269  -14.3212 N   0  0  0  0  0  0  0  0  0  0  0  0
   23.7271  -22.0459  -13.5991 C   0  0  0  0  0  0  0  0  0  0  0  0
   24.3573  -23.1198  -13.5554 O   0  0  0  0  0  0  0  0  0  0  0  0
   28.1474  -16.9070  -13.3366 C   0  0  0  0  0  0  0  0  0  0  0  0
   28.8837  -18.5424  -13.3123 S   0  0  0  0  0  0  0  0  0  0  0  0
   27.8597  -19.7597  -12.4876 C   0  0  0  0  0  0  0  0  0  0  0  0
   26.4926  -19.9238  -13.0261 C   0  0  0  0  0  0  0  0  0  0  0  0
   25.6061  -20.9331  -12.3503 C   0  0  2  0  0  0  0  0  0  0  0  0
   24.3028  -20.9183  -12.9317 N   0  0  0  0  0  0  0  0  0  0  0  0
   25.5833  -20.7336  -10.8787 C   0  0  0  0  0  0  0  0  0  0  0  0
   24.6757  -20.0119  -10.3983 O   0  0  0  0  0  0  0  0  0  0  0  0
   26.5280  -21.3145  -10.0105 N   0  0  0  0  0  0  0  0  0  0  0  0
   26.4333  -21.1472   -8.5847 C   0  0  1  0  0  0  0  0  0  0  0  0
   27.6909  -21.6540   -7.8997 C   0  0  0  0  0  0  0  0  0  0  0  0
   28.0957  -20.8072   -6.7614 C   0  0  0  0  0  0  0  0  0  0  0  0
   27.4459  -20.8916   -5.5494 C   0  0  0  0  0  0  0  0  0  0  0  0
   27.8534  -20.0815   -4.5047 C   0  0  0  0  0  0  0  0  0  0  0  0
   28.8899  -19.2097   -4.6801 C   0  0  0  0  0  0  0  0  0  0  0  0
   29.5538  -19.1077   -5.8806 C   0  0  0  0  0  0  0  0  0  0  0  0
   29.1396  -19.9227   -6.9228 C   0  0  0  0  0  0  0  0  0  0  0  0
   26.1902  -19.7271   -8.2837 C   0  0  0  0  0  0  0  0  0  0  0  0
   25.3667  -19.4025   -7.4074 O   0  0  0  0  0  0  0  0  0  0  0  0
   26.8724  -18.7449   -8.9696 O   0  0  0  0  0  0  0  0  0  0  0  0
  2  1  1  1
  2  3  1  0
  4  2  1  0
  5  6  1  6
  5  4  1  0
  7  5  1  0
  8  7  2  0
  9 10  1  0
 10 11  1  0
 11 12  1  0
 13 12  1  6
 13 14  1  0
 14  7  1  0
 15 13  1  0
 15 16  2  0
 17 18  1  0
 17 15  1  0
 18 19  1  1
 20 19  1  0
 21 20  2  0
 22 21  1  0
 23 24  1  0
 23 22  2  0
 24 25  2  0
 25 20  1  0
 26 28  1  0
 26 18  1  0
 27 26  2  0
M  END
$$$$
