LMF.pdb
     RDKit          3D

 28 28  0  0  1  0  0  0  0  0999 V2000
   21.2641  -21.0330  -22.1012 C   0  0  0  0  0  0  0  0  0  0  0  0
   22.4403  -20.3368  -22.7452 C   0  0  2  0  0  0  0  0  0  0  0  0
   22.8818  -21.2114  -23.9091 C   0  0  0  0  0  0  0  0  0  0  0  0
   23.6223  -20.2024  -21.8183 C   0  0  0  0  0  0  0  0  0  0  0  0
   23.3163  -19.3645  -20.6029 C   0  0  2  0  0  0  0  0  0  0  0  0
   23.2123  -17.9688  -20.8963 N   0  0  0  0  0  0  0  0  0  0  0  0
   24.2866  -19.5637  -19.5121 C   0  0  0  0  0  0  0  0  0  0  0  0
   25.5003  -19.6689  -19.7728 O   0  0  0  0  0  0  0  0  0  0  0  0
   28.6358  -19.1736  -16.7228 C   0  0  0  0  0  0  0  0  0  0  0  0
   27.9642  -17.5484  -16.3690 S   0  0  0  0  0  0  0  0  0  0  0  0
   26.2121  -17.5804  -15.9956 C   0  0  0  0  0  0  0  0  0  0  0  0
   25.3251  -18.0056  -17.0994 C   0  0  0  0  0  0  0  0  0  0  0  0
   24.8019  -19.4147  -17.0543 C   0  0  2  0  0  0  0  0  0  0  0  0
   23.9002  -19.6449  -18.1365 N   0  0  0  0  0  0  0  0  0  0  0  0
   24.2060  -19.7284  -15.7306 C   0  0  0  0  0  0  0  0  0  0  0  0
   23.2999  -18.9733  -15.3011 O   0  0  0  0  0  0  0  0  0  0  0  0
   24.6117  -20.8259  -14.9467 N   0  0  0  0  0  0  0  0  0  0  0  0
   24.1585  -20.9824  -13.5902 C   0  0  1  0  0  0  0  0  0  0  0  0
   25.3175  -21.3366  -12.6742 C   0  0  0  0  0  0  0  0  0  0  0  0
   24.9281  -21.3577  -11.2513 C   0  0  0  0  0  0  0  0  0  0  0  0
   24.0245  -22.2838  -10.7778 C   0  0  0  0  0  0  0  0  0  0  0  0
   23.6834  -22.2730   -9.4371 C   0  0  0  0  0  0  0  0  0  0  0  0
   24.2408  -21.3513   -8.5975 C   0  0  0  0  0  0  0  0  0  0  0  0
   25.1451  -20.4172   -9.0471 C   0  0  0  0  0  0  0  0  0  0  0  0
   25.4818  -20.4342  -10.3918 C   0  0  0  0  0  0  0  0  0  0  0  0
   23.4917  -19.7423  -13.1614 C   0  0  0  0  0  0  0  0  0  0  0  0
   24.0188  -18.6360  -13.3839 O   0  0  0  0  0  0  0  0  0  0  0  0
   22.2779  -19.7958  -12.5097 O   0  0  0  0  0  0  0  0  0  0  0  0
  2  1  1  1
  2  3  1  0
  4  2  1  0
  5  6  1  6
  5  4  1  0
  7  5  1  0
  8  7  2  0
  9 10  1  0
 10 11  1  0
 11 12  1  0
 13 12  1  1
 13 14  1  0
 14  7  1  0
 15 13  1  0
 15 16  2  0
 17 18  1  0
 17 15  1  0
 18 19  1  1
 20 19  1  0
 21 20  2  0
 22 21  1  0
 23 24  1  0
 23 22  2  0
 24 25  2  0
 25 20  1  0
 26 28  1  0
 26 18  1  0
 27 26  2  0
M  END
$$$$
