VLV.pdb
     RDKit          3D

 23 22  0  0  1  0  0  0  0  0999 V2000
    7.3967  -19.9583   24.0290 C   0  0  0  0  0  0  0  0  0  0  0  0
    5.9820  -19.4477   23.8328 C   0  0  2  0  0  0  0  0  0  0  0  0
    5.1508  -20.5583   23.2303 C   0  0  0  0  0  0  0  0  0  0  0  0
    5.9607  -18.2218   22.9447 C   0  0  2  0  0  0  0  0  0  0  0  0
    6.3713  -18.5422   21.5951 N   0  0  0  0  0  0  0  0  0  0  0  0
    6.8525  -17.1573   23.4562 C   0  0  0  0  0  0  0  0  0  0  0  0
    8.0241  -17.0865   23.0171 O   0  0  0  0  0  0  0  0  0  0  0  0
    7.7824  -12.1834   25.3973 C   0  0  0  0  0  0  0  0  0  0  0  0
    7.2880  -13.1599   26.4694 C   0  0  1  0  0  0  0  0  0  0  0  0
    6.3178  -12.3156   27.3145 C   0  0  0  0  0  0  0  0  0  0  0  0
    6.4984  -14.2325   25.7889 C   0  0  0  0  0  0  0  0  0  0  0  0
    7.3508  -15.1992   25.0000 C   0  0  2  0  0  0  0  0  0  0  0  0
    6.4383  -16.2047   24.4296 N   0  0  0  0  0  0  0  0  0  0  0  0
    8.3224  -15.8254   25.9038 C   0  0  0  0  0  0  0  0  0  0  0  0
    7.9572  -16.5011   26.8946 O   0  0  0  0  0  0  0  0  0  0  0  0
   11.6128  -17.4087   24.2741 C   0  0  0  0  0  0  0  0  0  0  0  0
   11.9700  -16.7660   25.5997 C   0  0  2  0  0  0  0  0  0  0  0  0
   12.9665  -17.6685   26.2777 C   0  0  0  0  0  0  0  0  0  0  0  0
   10.6904  -16.6108   26.3714 C   0  0  2  0  0  0  0  0  0  0  0  0
    9.7430  -15.7226   25.7378 N   0  0  0  0  0  0  0  0  0  0  0  0
   11.0080  -16.1005   27.7272 C   0  0  0  0  0  0  0  0  0  0  0  0
   10.7637  -14.9353   28.1308 O   0  0  0  0  0  0  0  0  0  0  0  0
   11.6201  -16.9426   28.6456 O   0  0  0  0  0  0  0  0  0  0  0  0
  2  1  1  6
  2  3  1  0
  4  2  1  0
  4  6  1  0
  4  5  1  6
  6 13  1  0
  6  7  2  0
  9  8  1  6
  9 11  1  0
 10  9  1  0
 12 11  1  1
 13 12  1  0
 14 12  1  0
 14 20  1  0
 15 14  2  0
 17 16  1  6
 18 17  1  0
 19 17  1  0
 19 20  1  6
 19 21  1  0
 21 23  1  0
 22 21  2  0
M  END
$$$$
