VLV.pdb
     RDKit          3D

 23 22  0  0  1  0  0  0  0  0999 V2000
    8.1947  -19.5205   20.2076 C   0  0  0  0  0  0  0  0  0  0  0  0
    8.6830  -18.1784   20.7183 C   0  0  2  0  0  0  0  0  0  0  0  0
   10.0210  -17.8804   20.0792 C   0  0  0  0  0  0  0  0  0  0  0  0
    8.7991  -18.1763   22.2278 C   0  0  2  0  0  0  0  0  0  0  0  0
    7.6055  -18.7080   22.8484 N   0  0  0  0  0  0  0  0  0  0  0  0
    9.0260  -16.8139   22.7593 C   0  0  0  0  0  0  0  0  0  0  0  0
   10.0164  -16.1627   22.3524 O   0  0  0  0  0  0  0  0  0  0  0  0
    7.5210  -12.0737   24.7629 C   0  0  0  0  0  0  0  0  0  0  0  0
    7.3609  -13.1832   25.8073 C   0  0  1  0  0  0  0  0  0  0  0  0
    6.0176  -12.8579   26.4843 C   0  0  0  0  0  0  0  0  0  0  0  0
    7.2126  -14.4827   25.0821 C   0  0  0  0  0  0  0  0  0  0  0  0
    8.4586  -14.9023   24.3372 C   0  0  2  0  0  0  0  0  0  0  0  0
    8.1661  -16.2057   23.7169 N   0  0  0  0  0  0  0  0  0  0  0  0
    9.5692  -15.0123   25.2898 C   0  0  0  0  0  0  0  0  0  0  0  0
   10.6099  -14.3238   25.1678 O   0  0  0  0  0  0  0  0  0  0  0  0
    9.3412  -14.7910   29.1018 C   0  0  0  0  0  0  0  0  0  0  0  0
   10.6418  -14.7667   28.3234 C   0  0  2  0  0  0  0  0  0  0  0  0
   10.7017  -13.4487   27.5979 C   0  0  0  0  0  0  0  0  0  0  0  0
   10.6228  -15.9512   27.3996 C   0  0  2  0  0  0  0  0  0  0  0  0
    9.5632  -15.8964   26.4188 N   0  0  0  0  0  0  0  0  0  0  0  0
   10.4779  -17.1863   28.2077 C   0  0  0  0  0  0  0  0  0  0  0  0
    9.5354  -18.0106   28.0956 O   0  0  0  0  0  0  0  0  0  0  0  0
   11.4337  -17.4876   29.1683 O   0  0  0  0  0  0  0  0  0  0  0  0
  2  1  1  6
  2  3  1  0
  4  2  1  0
  4  6  1  0
  4  5  1  1
  6 13  1  0
  6  7  2  0
  9  8  1  6
  9 11  1  0
 10  9  1  0
 12 11  1  1
 13 12  1  0
 14 12  1  0
 14 20  1  0
 15 14  2  0
 17 16  1  6
 18 17  1  0
 19 17  1  0
 19 20  1  6
 19 21  1  0
 21 23  1  0
 22 21  2  0
M  END
$$$$
