VLV.pdb
     RDKit          3D

 23 22  0  0  1  0  0  0  0  0999 V2000
    8.4662  -18.8095   26.2206 C   0  0  0  0  0  0  0  0  0  0  0  0
    7.0876  -18.8173   25.5881 C   0  0  2  0  0  0  0  0  0  0  0  0
    6.2958  -19.9625   26.1788 C   0  0  0  0  0  0  0  0  0  0  0  0
    7.1767  -18.9493   24.0826 C   0  0  2  0  0  0  0  0  0  0  0  0
    7.8161  -20.1891   23.6996 N   0  0  0  0  0  0  0  0  0  0  0  0
    7.9375  -17.8334   23.4774 C   0  0  0  0  0  0  0  0  0  0  0  0
    9.1885  -17.9010   23.4457 O   0  0  0  0  0  0  0  0  0  0  0  0
    8.4782  -13.9713   19.8330 C   0  0  0  0  0  0  0  0  0  0  0  0
    7.7332  -13.4441   21.0636 C   0  0  1  0  0  0  0  0  0  0  0  0
    6.6218  -12.5613   20.4686 C   0  0  0  0  0  0  0  0  0  0  0  0
    7.0868  -14.6074   21.7461 C   0  0  0  0  0  0  0  0  0  0  0  0
    8.0671  -15.5041   22.4658 C   0  0  2  0  0  0  0  0  0  0  0  0
    7.3102  -16.6805   22.9266 N   0  0  0  0  0  0  0  0  0  0  0  0
    8.6392  -14.7710   23.6009 C   0  0  0  0  0  0  0  0  0  0  0  0
    9.7888  -14.2736   23.5495 O   0  0  0  0  0  0  0  0  0  0  0  0
    6.2221  -13.5453   26.8354 C   0  0  0  0  0  0  0  0  0  0  0  0
    7.4487  -12.7509   26.4322 C   0  0  2  0  0  0  0  0  0  0  0  0
    7.0093  -11.7473   25.3993 C   0  0  0  0  0  0  0  0  0  0  0  0
    8.4573  -13.7347   25.9109 C   0  0  2  0  0  0  0  0  0  0  0  0
    7.9501  -14.5632   24.8412 N   0  0  0  0  0  0  0  0  0  0  0  0
    8.9046  -14.5997   27.0294 C   0  0  0  0  0  0  0  0  0  0  0  0
    8.7132  -15.8403   27.0980 O   0  0  0  0  0  0  0  0  0  0  0  0
    9.5881  -14.0334   28.0968 O   0  0  0  0  0  0  0  0  0  0  0  0
  2  1  1  1
  2  3  1  0
  4  2  1  0
  4  6  1  0
  4  5  1  1
  6 13  1  0
  6  7  2  0
  9  8  1  6
  9 11  1  0
 10  9  1  0
 12 11  1  1
 13 12  1  0
 14 12  1  0
 14 20  1  0
 15 14  2  0
 17 16  1  6
 18 17  1  0
 19 17  1  0
 19 20  1  6
 19 21  1  0
 21 23  1  0
 22 21  2  0
M  END
$$$$
