VLV.pdb
     RDKit          3D

 23 22  0  0  1  0  0  0  0  0999 V2000
    8.8132  -18.1952   21.5133 C   0  0  0  0  0  0  0  0  0  0  0  0
    7.6922  -17.3357   20.9610 C   0  0  2  0  0  0  0  0  0  0  0  0
    7.2583  -17.9105   19.6310 C   0  0  0  0  0  0  0  0  0  0  0  0
    8.1329  -15.8961   20.8031 C   0  0  2  0  0  0  0  0  0  0  0  0
    9.2296  -15.7808   19.8668 N   0  0  0  0  0  0  0  0  0  0  0  0
    8.5646  -15.3094   22.0914 C   0  0  0  0  0  0  0  0  0  0  0  0
    9.7767  -15.3637   22.4052 O   0  0  0  0  0  0  0  0  0  0  0  0
    8.2261  -11.9916   26.3600 C   0  0  0  0  0  0  0  0  0  0  0  0
    7.1093  -13.0401   26.3341 C   0  0  1  0  0  0  0  0  0  0  0  0
    5.8624  -12.2584   26.7843 C   0  0  0  0  0  0  0  0  0  0  0  0
    6.9047  -13.4627   24.9141 C   0  0  0  0  0  0  0  0  0  0  0  0
    8.0483  -14.2790   24.3581 C   0  0  2  0  0  0  0  0  0  0  0  0
    7.6613  -14.6825   22.9955 N   0  0  0  0  0  0  0  0  0  0  0  0
    8.2563  -15.4529   25.2135 C   0  0  0  0  0  0  0  0  0  0  0  0
    7.3118  -16.2184   25.5194 O   0  0  0  0  0  0  0  0  0  0  0  0
   12.1215  -17.0139   25.8151 C   0  0  0  0  0  0  0  0  0  0  0  0
   10.8779  -17.8808   25.8136 C   0  0  2  0  0  0  0  0  0  0  0  0
   10.5979  -18.2549   24.3823 C   0  0  0  0  0  0  0  0  0  0  0  0
    9.7781  -17.0720   26.4407 C   0  0  2  0  0  0  0  0  0  0  0  0
    9.5289  -15.8205   25.7627 N   0  0  0  0  0  0  0  0  0  0  0  0
   10.1306  -16.8002   27.8553 C   0  0  0  0  0  0  0  0  0  0  0  0
   10.3643  -15.6599   28.3302 O   0  0  0  0  0  0  0  0  0  0  0  0
   10.2184  -17.8576   28.7504 O   0  0  0  0  0  0  0  0  0  0  0  0
  2  1  1  6
  2  3  1  0
  4  2  1  0
  4  6  1  0
  4  5  1  6
  6 13  1  0
  6  7  2  0
  9  8  1  6
  9 11  1  0
 10  9  1  0
 12 11  1  1
 13 12  1  0
 14 12  1  0
 14 20  1  0
 15 14  2  0
 17 16  1  6
 18 17  1  0
 19 17  1  0
 19 20  1  6
 19 21  1  0
 21 23  1  0
 22 21  2  0
M  END
$$$$
