VLV.pdb
     RDKit          3D

 23 22  0  0  1  0  0  0  0  0999 V2000
    8.1093  -17.4096   20.6621 C   0  0  0  0  0  0  0  0  0  0  0  0
    6.7890  -16.6891   20.8574 C   0  0  2  0  0  0  0  0  0  0  0  0
    5.9056  -16.9756   19.6636 C   0  0  0  0  0  0  0  0  0  0  0  0
    6.9977  -15.1989   21.0228 C   0  0  2  0  0  0  0  0  0  0  0  0
    7.6281  -14.6227   19.8553 N   0  0  0  0  0  0  0  0  0  0  0  0
    7.8397  -14.8895   22.1999 C   0  0  0  0  0  0  0  0  0  0  0  0
    9.0817  -14.8116   22.0519 O   0  0  0  0  0  0  0  0  0  0  0  0
    5.8008  -12.2646   26.7256 C   0  0  0  0  0  0  0  0  0  0  0  0
    6.7150  -12.6375   25.5540 C   0  0  1  0  0  0  0  0  0  0  0  0
    7.8852  -11.6450   25.6721 C   0  0  0  0  0  0  0  0  0  0  0  0
    7.2464  -14.0134   25.8021 C   0  0  0  0  0  0  0  0  0  0  0  0
    8.1439  -14.5205   24.6973 C   0  0  2  0  0  0  0  0  0  0  0  0
    7.3007  -14.6750   23.4998 N   0  0  0  0  0  0  0  0  0  0  0  0
    8.7190  -15.8080   25.1034 C   0  0  0  0  0  0  0  0  0  0  0  0
    8.0035  -16.8240   25.2689 O   0  0  0  0  0  0  0  0  0  0  0  0
   12.5715  -18.8394   25.1368 C   0  0  0  0  0  0  0  0  0  0  0  0
   12.0443  -17.4553   24.8137 C   0  0  2  0  0  0  0  0  0  0  0  0
   13.0723  -16.4646   25.2921 C   0  0  0  0  0  0  0  0  0  0  0  0
   10.7196  -17.3167   25.5086 C   0  0  2  0  0  0  0  0  0  0  0  0
   10.1181  -16.0137   25.3413 N   0  0  0  0  0  0  0  0  0  0  0  0
   10.9071  -17.5869   26.9547 C   0  0  0  0  0  0  0  0  0  0  0  0
   10.7256  -16.7458   27.8712 O   0  0  0  0  0  0  0  0  0  0  0  0
   11.3120  -18.8499   27.3646 O   0  0  0  0  0  0  0  0  0  0  0  0
  2  1  1  6
  2  3  1  0
  4  2  1  0
  4  6  1  0
  4  5  1  6
  6 13  1  0
  6  7  2  0
  9  8  1  1
  9 11  1  0
 10  9  1  0
 12 11  1  1
 13 12  1  0
 14 12  1  0
 14 20  1  0
 15 14  2  0
 17 16  1  1
 18 17  1  0
 19 17  1  0
 19 20  1  1
 19 21  1  0
 21 23  1  0
 22 21  2  0
M  END
$$$$
