VLV.pdb
     RDKit          3D

 23 22  0  0  1  0  0  0  0  0999 V2000
    8.7777  -20.1502   21.5832 C   0  0  0  0  0  0  0  0  0  0  0  0
    9.3035  -18.9294   22.3136 C   0  0  2  0  0  0  0  0  0  0  0  0
    9.7302  -19.3489   23.7027 C   0  0  0  0  0  0  0  0  0  0  0  0
    8.2556  -17.8391   22.3826 C   0  0  2  0  0  0  0  0  0  0  0  0
    7.7379  -17.5225   21.0694 N   0  0  0  0  0  0  0  0  0  0  0  0
    8.7950  -16.5954   22.9763 C   0  0  0  0  0  0  0  0  0  0  0  0
    9.7476  -16.0156   22.4046 O   0  0  0  0  0  0  0  0  0  0  0  0
    5.6345  -12.9492   25.7941 C   0  0  0  0  0  0  0  0  0  0  0  0
    6.6585  -13.5395   24.8193 C   0  0  1  0  0  0  0  0  0  0  0  0
    7.2609  -12.3037   24.1279 C   0  0  0  0  0  0  0  0  0  0  0  0
    7.7371  -14.1942   25.6223 C   0  0  0  0  0  0  0  0  0  0  0  0
    8.8332  -14.8007   24.7772 C   0  0  2  0  0  0  0  0  0  0  0  0
    8.2787  -16.0243   24.1736 N   0  0  0  0  0  0  0  0  0  0  0  0
    9.9804  -15.1133   25.6369 C   0  0  0  0  0  0  0  0  0  0  0  0
   11.1223  -14.6522   25.4020 O   0  0  0  0  0  0  0  0  0  0  0  0
    9.5977  -15.5139   29.6413 C   0  0  0  0  0  0  0  0  0  0  0  0
   10.8901  -15.1916   28.9175 C   0  0  2  0  0  0  0  0  0  0  0  0
   10.8290  -13.7398   28.5227 C   0  0  0  0  0  0  0  0  0  0  0  0
   10.9785  -16.1222   27.7415 C   0  0  2  0  0  0  0  0  0  0  0  0
    9.8993  -15.9546   26.7954 N   0  0  0  0  0  0  0  0  0  0  0  0
   10.9824  -17.5202   28.2364 C   0  0  0  0  0  0  0  0  0  0  0  0
   10.1396  -18.3966   27.9174 O   0  0  0  0  0  0  0  0  0  0  0  0
   11.9741  -17.9275   29.1184 O   0  0  0  0  0  0  0  0  0  0  0  0
  2  1  1  1
  2  3  1  0
  4  2  1  0
  4  6  1  0
  4  5  1  6
  6 13  1  0
  6  7  2  0
  9  8  1  1
  9 11  1  0
 10  9  1  0
 12 11  1  1
 13 12  1  0
 14 12  1  0
 14 20  1  0
 15 14  2  0
 17 16  1  6
 18 17  1  0
 19 17  1  0
 19 20  1  6
 19 21  1  0
 21 23  1  0
 22 21  2  0
M  END
$$$$
