VLV.pdb
     RDKit          3D

 23 22  0  0  1  0  0  0  0  0999 V2000
    9.3914  -19.3055   23.3388 C   0  0  0  0  0  0  0  0  0  0  0  0
    7.9504  -19.0509   22.9398 C   0  0  2  0  0  0  0  0  0  0  0  0
    7.4505  -20.2468   22.1605 C   0  0  0  0  0  0  0  0  0  0  0  0
    7.8254  -17.7862   22.1171 C   0  0  2  0  0  0  0  0  0  0  0  0
    8.5984  -17.8729   20.8975 N   0  0  0  0  0  0  0  0  0  0  0  0
    8.2822  -16.5953   22.8675 C   0  0  0  0  0  0  0  0  0  0  0  0
    9.4646  -16.2058   22.7230 O   0  0  0  0  0  0  0  0  0  0  0  0
    7.6511  -11.7073   25.0371 C   0  0  0  0  0  0  0  0  0  0  0  0
    7.0227  -12.8071   25.8991 C   0  0  1  0  0  0  0  0  0  0  0  0
    5.6965  -12.1873   26.3740 C   0  0  0  0  0  0  0  0  0  0  0  0
    6.7016  -13.9653   25.0090 C   0  0  0  0  0  0  0  0  0  0  0  0
    7.9193  -14.7497   24.5786 C   0  0  2  0  0  0  0  0  0  0  0  0
    7.4357  -15.8677   23.7508 N   0  0  0  0  0  0  0  0  0  0  0  0
    8.6148  -15.2436   25.7725 C   0  0  0  0  0  0  0  0  0  0  0  0
    8.0376  -15.9704   26.6153 O   0  0  0  0  0  0  0  0  0  0  0  0
   10.2105  -13.1543   28.2821 C   0  0  0  0  0  0  0  0  0  0  0  0
   10.0780  -14.6460   28.5173 C   0  0  2  0  0  0  0  0  0  0  0  0
   10.8315  -14.9660   29.7810 C   0  0  0  0  0  0  0  0  0  0  0  0
   10.6370  -15.3332   27.3040 C   0  0  2  0  0  0  0  0  0  0  0  0
    9.9847  -14.9459   26.0743 N   0  0  0  0  0  0  0  0  0  0  0  0
   10.5107  -16.7999   27.4838 C   0  0  0  0  0  0  0  0  0  0  0  0
    9.4227  -17.4292   27.5039 O   0  0  0  0  0  0  0  0  0  0  0  0
   11.6563  -17.5673   27.6448 O   0  0  0  0  0  0  0  0  0  0  0  0
  2  1  1  6
  2  3  1  0
  4  2  1  0
  4  6  1  0
  4  5  1  6
  6 13  1  0
  6  7  2  0
  9  8  1  6
  9 11  1  0
 10  9  1  0
 12 11  1  1
 13 12  1  0
 14 12  1  0
 14 20  1  0
 15 14  2  0
 17 16  1  6
 18 17  1  0
 19 17  1  0
 19 20  1  6
 19 21  1  0
 21 23  1  0
 22 21  2  0
M  END
$$$$
