VLV.pdb
     RDKit          3D

 23 22  0  0  1  0  0  0  0  0999 V2000
    7.0521  -17.0599   19.3183 C   0  0  0  0  0  0  0  0  0  0  0  0
    7.7413  -16.8863   20.6582 C   0  0  2  0  0  0  0  0  0  0  0  0
    7.2008  -17.9268   21.6136 C   0  0  0  0  0  0  0  0  0  0  0  0
    7.5260  -15.4923   21.2081 C   0  0  2  0  0  0  0  0  0  0  0  0
    7.9679  -14.4826   20.2711 N   0  0  0  0  0  0  0  0  0  0  0  0
    8.2508  -15.2863   22.4819 C   0  0  0  0  0  0  0  0  0  0  0  0
    9.5027  -15.3420   22.4817 O   0  0  0  0  0  0  0  0  0  0  0  0
    6.0573  -12.2345   26.5733 C   0  0  0  0  0  0  0  0  0  0  0  0
    7.0255  -12.8139   25.5369 C   0  0  1  0  0  0  0  0  0  0  0  0
    8.2859  -11.9435   25.6863 C   0  0  0  0  0  0  0  0  0  0  0  0
    7.3714  -14.2075   25.9557 C   0  0  0  0  0  0  0  0  0  0  0  0
    8.3031  -14.9109   24.9963 C   0  0  2  0  0  0  0  0  0  0  0  0
    7.5874  -15.0262   23.7142 N   0  0  0  0  0  0  0  0  0  0  0  0
    8.6309  -16.2358   25.5350 C   0  0  0  0  0  0  0  0  0  0  0  0
    7.7641  -17.1356   25.6385 O   0  0  0  0  0  0  0  0  0  0  0  0
   11.1373  -18.6282   24.2675 C   0  0  0  0  0  0  0  0  0  0  0  0
   11.4878  -18.5122   25.7378 C   0  0  2  0  0  0  0  0  0  0  0  0
   11.8501  -19.8921   26.2192 C   0  0  0  0  0  0  0  0  0  0  0  0
   10.2851  -17.9392   26.4321 C   0  0  2  0  0  0  0  0  0  0  0  0
    9.9414  -16.6104   25.9805 N   0  0  0  0  0  0  0  0  0  0  0  0
   10.5449  -17.9078   27.8919 C   0  0  0  0  0  0  0  0  0  0  0  0
   10.6789  -16.8607   28.5745 O   0  0  0  0  0  0  0  0  0  0  0  0
   10.6543  -19.1028   28.5899 O   0  0  0  0  0  0  0  0  0  0  0  0
  2  1  1  6
  2  3  1  0
  4  2  1  0
  4  6  1  0
  4  5  1  6
  6 13  1  0
  6  7  2  0
  9  8  1  1
  9 11  1  0
 10  9  1  0
 12 11  1  1
 13 12  1  0
 14 12  1  0
 14 20  1  0
 15 14  2  0
 17 16  1  6
 18 17  1  0
 19 17  1  0
 19 20  1  6
 19 21  1  0
 21 23  1  0
 22 21  2  0
M  END
$$$$
