VLV.pdb
     RDKit          3D

 23 22  0  0  1  0  0  0  0  0999 V2000
   12.1028  -18.8079   24.3170 C   0  0  0  0  0  0  0  0  0  0  0  0
   10.7327  -18.1770   24.1583 C   0  0  2  0  0  0  0  0  0  0  0  0
   10.7158  -17.3856   22.8695 C   0  0  0  0  0  0  0  0  0  0  0  0
   10.4000  -17.2868   25.3367 C   0  0  2  0  0  0  0  0  0  0  0  0
   10.4637  -18.0178   26.5834 N   0  0  0  0  0  0  0  0  0  0  0  0
    9.0469  -16.6993   25.2167 C   0  0  0  0  0  0  0  0  0  0  0  0
    8.0516  -17.4601   25.2520 O   0  0  0  0  0  0  0  0  0  0  0  0
    7.7929  -11.5874   26.8927 C   0  0  0  0  0  0  0  0  0  0  0  0
    7.6416  -13.0882   26.6244 C   0  0  1  0  0  0  0  0  0  0  0  0
    6.2816  -13.4377   27.2544 C   0  0  0  0  0  0  0  0  0  0  0  0
    7.5325  -13.2848   25.1458 C   0  0  0  0  0  0  0  0  0  0  0  0
    7.5030  -14.7379   24.7321 C   0  0  2  0  0  0  0  0  0  0  0  0
    8.8228  -15.3022   25.0622 N   0  0  0  0  0  0  0  0  0  0  0  0
    7.2443  -14.8179   23.2900 C   0  0  0  0  0  0  0  0  0  0  0  0
    6.0875  -14.9912   22.8388 O   0  0  0  0  0  0  0  0  0  0  0  0
    7.7408  -12.2918   20.8866 C   0  0  0  0  0  0  0  0  0  0  0  0
    8.4421  -13.4394   20.1872 C   0  0  2  0  0  0  0  0  0  0  0  0
    8.0484  -13.3829   18.7350 C   0  0  0  0  0  0  0  0  0  0  0  0
    8.0047  -14.7035   20.8709 C   0  0  2  0  0  0  0  0  0  0  0  0
    8.2678  -14.7074   22.2917 N   0  0  0  0  0  0  0  0  0  0  0  0
    8.6991  -15.8530   20.2418 C   0  0  0  0  0  0  0  0  0  0  0  0
    9.5161  -16.6066   20.8290 O   0  0  0  0  0  0  0  0  0  0  0  0
    8.4540  -16.1494   18.9079 O   0  0  0  0  0  0  0  0  0  0  0  0
  2  1  1  1
  2  3  1  0
  4  2  1  0
  4  6  1  0
  4  5  1  1
  6 13  1  0
  6  7  2  0
  9  8  1  6
  9 11  1  0
 10  9  1  0
 12 11  1  6
 13 12  1  0
 14 12  1  0
 14 20  1  0
 15 14  2  0
 17 16  1  1
 18 17  1  0
 19 17  1  0
 19 20  1  1
 19 21  1  0
 21 23  1  0
 22 21  2  0
M  END
$$$$
