VLV.pdb
     RDKit          3D

 23 22  0  0  1  0  0  0  0  0999 V2000
    8.9223  -19.7767   24.9876 C   0  0  0  0  0  0  0  0  0  0  0  0
    7.4505  -19.6595   25.3344 C   0  0  2  0  0  0  0  0  0  0  0  0
    6.8747  -21.0526   25.4580 C   0  0  0  0  0  0  0  0  0  0  0  0
    6.7028  -18.8630   24.2863 C   0  0  2  0  0  0  0  0  0  0  0  0
    6.7909  -19.4905   22.9859 N   0  0  0  0  0  0  0  0  0  0  0  0
    7.2261  -17.4837   24.1678 C   0  0  0  0  0  0  0  0  0  0  0  0
    8.0942  -17.2386   23.2979 O   0  0  0  0  0  0  0  0  0  0  0  0
    7.1966  -12.1767   24.7346 C   0  0  0  0  0  0  0  0  0  0  0  0
    7.2097  -12.8474   26.1121 C   0  0  1  0  0  0  0  0  0  0  0  0
    6.2120  -12.0133   26.9351 C   0  0  0  0  0  0  0  0  0  0  0  0
    6.6488  -14.2255   25.9606 C   0  0  0  0  0  0  0  0  0  0  0  0
    7.4747  -15.1163   25.0619 C   0  0  2  0  0  0  0  0  0  0  0  0
    6.7860  -16.4167   25.0010 N   0  0  0  0  0  0  0  0  0  0  0  0
    8.8172  -15.2603   25.6366 C   0  0  0  0  0  0  0  0  0  0  0  0
    9.8395  -14.8735   25.0226 O   0  0  0  0  0  0  0  0  0  0  0  0
    9.6905  -14.8639   29.5324 C   0  0  0  0  0  0  0  0  0  0  0  0
   10.7454  -14.8658   28.4437 C   0  0  2  0  0  0  0  0  0  0  0  0
   10.7244  -13.5041   27.8013 C   0  0  0  0  0  0  0  0  0  0  0  0
   10.3936  -15.9747   27.4933 C   0  0  2  0  0  0  0  0  0  0  0  0
    9.0731  -15.8426   26.9218 N   0  0  0  0  0  0  0  0  0  0  0  0
   10.4885  -17.2688   28.2114 C   0  0  0  0  0  0  0  0  0  0  0  0
    9.5450  -18.0896   28.3387 O   0  0  0  0  0  0  0  0  0  0  0  0
   11.6918  -17.6347   28.7992 O   0  0  0  0  0  0  0  0  0  0  0  0
  2  1  1  6
  2  3  1  0
  4  2  1  0
  4  6  1  0
  4  5  1  6
  6 13  1  0
  6  7  2  0
  9  8  1  6
  9 11  1  0
 10  9  1  0
 12 11  1  1
 13 12  1  0
 14 12  1  0
 14 20  1  0
 15 14  2  0
 17 16  1  1
 18 17  1  0
 19 17  1  0
 19 20  1  1
 19 21  1  0
 21 23  1  0
 22 21  2  0
M  END
$$$$
