VLV.pdb
     RDKit          3D

 23 22  0  0  1  0  0  0  0  0999 V2000
    6.9337  -17.6508   21.4625 C   0  0  0  0  0  0  0  0  0  0  0  0
    8.0006  -17.1768   20.4941 C   0  0  2  0  0  0  0  0  0  0  0  0
    9.2797  -17.9300   20.7841 C   0  0  0  0  0  0  0  0  0  0  0  0
    8.2212  -15.6837   20.6104 C   0  0  2  0  0  0  0  0  0  0  0  0
    9.2351  -15.2276   19.6849 N   0  0  0  0  0  0  0  0  0  0  0  0
    8.6369  -15.2945   21.9764 C   0  0  0  0  0  0  0  0  0  0  0  0
    9.8332  -15.4549   22.3136 O   0  0  0  0  0  0  0  0  0  0  0  0
    8.2899  -12.1901   26.4256 C   0  0  0  0  0  0  0  0  0  0  0  0
    7.2095  -13.2740   26.3518 C   0  0  1  0  0  0  0  0  0  0  0  0
    5.9440  -12.5655   26.8666 C   0  0  0  0  0  0  0  0  0  0  0  0
    6.9964  -13.6169   24.9117 C   0  0  0  0  0  0  0  0  0  0  0  0
    8.1426  -14.3889   24.3005 C   0  0  2  0  0  0  0  0  0  0  0  0
    7.7354  -14.7434   22.9302 N   0  0  0  0  0  0  0  0  0  0  0  0
    8.3882  -15.5928   25.1026 C   0  0  0  0  0  0  0  0  0  0  0  0
    7.4861  -16.4378   25.3120 O   0  0  0  0  0  0  0  0  0  0  0  0
   12.2683  -17.0785   25.7367 C   0  0  0  0  0  0  0  0  0  0  0  0
   11.0258  -17.9469   25.7420 C   0  0  2  0  0  0  0  0  0  0  0  0
   10.7303  -18.3099   24.3109 C   0  0  0  0  0  0  0  0  0  0  0  0
    9.9321  -17.1445   26.3877 C   0  0  2  0  0  0  0  0  0  0  0  0
    9.6524  -15.9025   25.7043 N   0  0  0  0  0  0  0  0  0  0  0  0
   10.3151  -16.8552   27.7909 C   0  0  0  0  0  0  0  0  0  0  0  0
   10.5553  -15.7088   28.2473 O   0  0  0  0  0  0  0  0  0  0  0  0
   10.4267  -17.9020   28.6959 O   0  0  0  0  0  0  0  0  0  0  0  0
  2  1  1  1
  2  3  1  0
  4  2  1  0
  4  6  1  0
  4  5  1  6
  6 13  1  0
  6  7  2  0
  9  8  1  6
  9 11  1  0
 10  9  1  0
 12 11  1  1
 13 12  1  0
 14 12  1  0
 14 20  1  0
 15 14  2  0
 17 16  1  6
 18 17  1  0
 19 17  1  0
 19 20  1  6
 19 21  1  0
 21 23  1  0
 22 21  2  0
M  END
$$$$
