VLV.pdb
     RDKit          3D

 23 22  0  0  1  0  0  0  0  0999 V2000
    6.6855  -16.3609   19.2589 C   0  0  0  0  0  0  0  0  0  0  0  0
    7.3602  -16.2517   20.6129 C   0  0  2  0  0  0  0  0  0  0  0  0
    6.6015  -17.1138   21.5972 C   0  0  0  0  0  0  0  0  0  0  0  0
    7.4079  -14.8147   21.0866 C   0  0  2  0  0  0  0  0  0  0  0  0
    8.1358  -13.9780   20.1577 N   0  0  0  0  0  0  0  0  0  0  0  0
    8.0507  -14.6950   22.4143 C   0  0  0  0  0  0  0  0  0  0  0  0
    9.2963  -14.8063   22.4959 O   0  0  0  0  0  0  0  0  0  0  0  0
    5.8214  -11.7540   26.6399 C   0  0  0  0  0  0  0  0  0  0  0  0
    6.8186  -12.3159   25.6214 C   0  0  1  0  0  0  0  0  0  0  0  0
    8.1446  -11.6262   25.9881 C   0  0  0  0  0  0  0  0  0  0  0  0
    6.9696  -13.7808   25.8820 C   0  0  0  0  0  0  0  0  0  0  0  0
    7.9384  -14.4626   24.9440 C   0  0  2  0  0  0  0  0  0  0  0  0
    7.3150  -14.4579   23.6096 N   0  0  0  0  0  0  0  0  0  0  0  0
    8.1684  -15.8346   25.4106 C   0  0  0  0  0  0  0  0  0  0  0  0
    7.2183  -16.6261   25.6171 O   0  0  0  0  0  0  0  0  0  0  0  0
   11.9621  -17.7324   25.1998 C   0  0  0  0  0  0  0  0  0  0  0  0
   10.6477  -18.4875   25.1793 C   0  0  2  0  0  0  0  0  0  0  0  0
   10.1875  -18.5410   23.7467 C   0  0  0  0  0  0  0  0  0  0  0  0
    9.7006  -17.7449   26.0785 C   0  0  2  0  0  0  0  0  0  0  0  0
    9.4700  -16.3795   25.6658 N   0  0  0  0  0  0  0  0  0  0  0  0
   10.2444  -17.7536   27.4582 C   0  0  0  0  0  0  0  0  0  0  0  0
   10.4104  -18.7849   28.1576 O   0  0  0  0  0  0  0  0  0  0  0  0
   10.6078  -16.5537   28.0545 O   0  0  0  0  0  0  0  0  0  0  0  0
  2  1  1  6
  2  3  1  0
  4  2  1  0
  4  6  1  0
  4  5  1  6
  6 13  1  0
  6  7  2  0
  9  8  1  1
  9 11  1  0
 10  9  1  0
 12 11  1  1
 13 12  1  0
 14 12  1  0
 14 20  1  0
 15 14  2  0
 17 16  1  6
 18 17  1  0
 19 17  1  0
 19 20  1  6
 19 21  1  0
 21 23  1  0
 22 21  2  0
M  END
$$$$
