VLV.pdb
     RDKit          3D

 23 22  0  0  1  0  0  0  0  0999 V2000
    7.2918  -16.0525   20.1878 C   0  0  0  0  0  0  0  0  0  0  0  0
    8.5299  -16.9253   20.2650 C   0  0  2  0  0  0  0  0  0  0  0  0
    8.2634  -18.2037   19.5019 C   0  0  0  0  0  0  0  0  0  0  0  0
    8.8983  -17.2272   21.7020 C   0  0  2  0  0  0  0  0  0  0  0  0
    7.8882  -18.0386   22.3452 N   0  0  0  0  0  0  0  0  0  0  0  0
    9.0695  -15.9904   22.4966 C   0  0  0  0  0  0  0  0  0  0  0  0
    9.9993  -15.2044   22.2000 O   0  0  0  0  0  0  0  0  0  0  0  0
    7.1627  -11.7443   25.1309 C   0  0  0  0  0  0  0  0  0  0  0  0
    7.1297  -12.9935   26.0174 C   0  0  1  0  0  0  0  0  0  0  0  0
    5.7711  -12.8983   26.7340 C   0  0  0  0  0  0  0  0  0  0  0  0
    7.1008  -14.1931   25.1247 C   0  0  0  0  0  0  0  0  0  0  0  0
    8.3965  -14.4223   24.3818 C   0  0  2  0  0  0  0  0  0  0  0  0
    8.2216  -15.6508   23.5884 N   0  0  0  0  0  0  0  0  0  0  0  0
    9.4834  -14.5769   25.3553 C   0  0  0  0  0  0  0  0  0  0  0  0
   10.3652  -13.6977   25.5004 O   0  0  0  0  0  0  0  0  0  0  0  0
    9.4964  -15.0037   29.0480 C   0  0  0  0  0  0  0  0  0  0  0  0
   10.7494  -14.8299   28.2125 C   0  0  2  0  0  0  0  0  0  0  0  0
   10.7257  -13.4291   27.6609 C   0  0  0  0  0  0  0  0  0  0  0  0
   10.7162  -15.8873   27.1459 C   0  0  2  0  0  0  0  0  0  0  0  0
    9.6302  -15.7209   26.2074 N   0  0  0  0  0  0  0  0  0  0  0  0
   10.6038  -17.2168   27.7932 C   0  0  0  0  0  0  0  0  0  0  0  0
    9.6649  -18.0307   27.6026 O   0  0  0  0  0  0  0  0  0  0  0  0
   11.5890  -17.6274   28.6810 O   0  0  0  0  0  0  0  0  0  0  0  0
  2  1  1  1
  2  3  1  0
  4  2  1  0
  4  6  1  0
  4  5  1  1
  6 13  1  0
  6  7  2  0
  9  8  1  6
  9 11  1  0
 10  9  1  0
 12 11  1  1
 13 12  1  0
 14 12  1  0
 14 20  1  0
 15 14  2  0
 17 16  1  1
 18 17  1  0
 19 17  1  0
 19 20  1  6
 19 21  1  0
 21 23  1  0
 22 21  2  0
M  END
$$$$
