VLV.pdb
     RDKit          3D

 23 22  0  0  1  0  0  0  0  0999 V2000
    8.0136  -18.8903   25.3887 C   0  0  0  0  0  0  0  0  0  0  0  0
    6.7357  -18.6053   24.6232 C   0  0  2  0  0  0  0  0  0  0  0  0
    5.7620  -19.7340   24.8789 C   0  0  0  0  0  0  0  0  0  0  0  0
    7.0065  -18.4583   23.1410 C   0  0  2  0  0  0  0  0  0  0  0  0
    7.5463  -19.6779   22.5808 N   0  0  0  0  0  0  0  0  0  0  0  0
    7.9617  -17.3625   22.8632 C   0  0  0  0  0  0  0  0  0  0  0  0
    9.1888  -17.6169   22.8548 O   0  0  0  0  0  0  0  0  0  0  0  0
    6.5533  -13.0628   19.6995 C   0  0  0  0  0  0  0  0  0  0  0  0
    7.4322  -14.1786   20.2741 C   0  0  1  0  0  0  0  0  0  0  0  0
    8.7236  -14.0931   19.4414 C   0  0  0  0  0  0  0  0  0  0  0  0
    7.7666  -13.8220   21.6875 C   0  0  0  0  0  0  0  0  0  0  0  0
    8.5012  -14.9162   22.4269 C   0  0  2  0  0  0  0  0  0  0  0  0
    7.5484  -16.0253   22.6036 N   0  0  0  0  0  0  0  0  0  0  0  0
    8.9487  -14.3974   23.7245 C   0  0  0  0  0  0  0  0  0  0  0  0
   10.0373  -13.7881   23.8482 O   0  0  0  0  0  0  0  0  0  0  0  0
    6.2686  -13.6408   26.8198 C   0  0  0  0  0  0  0  0  0  0  0  0
    7.6098  -12.9414   26.7192 C   0  0  2  0  0  0  0  0  0  0  0  0
    7.4284  -11.7605   25.8030 C   0  0  0  0  0  0  0  0  0  0  0  0
    8.5931  -13.9504   26.1977 C   0  0  2  0  0  0  0  0  0  0  0  0
    8.1980  -14.5380   24.9381 N   0  0  0  0  0  0  0  0  0  0  0  0
    8.7588  -15.0238   27.2075 C   0  0  0  0  0  0  0  0  0  0  0  0
    9.1504  -14.8437   28.3884 O   0  0  0  0  0  0  0  0  0  0  0  0
    8.4698  -16.3363   26.8598 O   0  0  0  0  0  0  0  0  0  0  0  0
  2  1  1  1
  2  3  1  0
  4  2  1  0
  4  6  1  0
  4  5  1  1
  6 13  1  0
  6  7  2  0
  9  8  1  6
  9 11  1  0
 10  9  1  0
 12 11  1  1
 13 12  1  0
 14 12  1  0
 14 20  1  0
 15 14  2  0
 17 16  1  6
 18 17  1  0
 19 17  1  0
 19 20  1  6
 19 21  1  0
 21 23  1  0
 22 21  2  0
M  END
$$$$
