VLV.pdb
     RDKit          3D

 23 22  0  0  1  0  0  0  0  0999 V2000
    7.3732  -15.2967   20.3232 C   0  0  0  0  0  0  0  0  0  0  0  0
    8.5001  -16.3090   20.4003 C   0  0  2  0  0  0  0  0  0  0  0  0
    8.1240  -17.5097   19.5611 C   0  0  0  0  0  0  0  0  0  0  0  0
    8.7693  -16.7206   21.8321 C   0  0  2  0  0  0  0  0  0  0  0  0
    7.6403  -17.4259   22.3984 N   0  0  0  0  0  0  0  0  0  0  0  0
    9.0613  -15.5532   22.6936 C   0  0  0  0  0  0  0  0  0  0  0  0
   10.1009  -14.8872   22.4783 O   0  0  0  0  0  0  0  0  0  0  0  0
    7.2245  -11.1120   25.8340 C   0  0  0  0  0  0  0  0  0  0  0  0
    6.9426  -12.5977   26.0803 C   0  0  1  0  0  0  0  0  0  0  0  0
    5.4673  -12.6230   26.5177 C   0  0  0  0  0  0  0  0  0  0  0  0
    7.0509  -13.3120   24.7708 C   0  0  0  0  0  0  0  0  0  0  0  0
    8.4183  -13.9038   24.5190 C   0  0  2  0  0  0  0  0  0  0  0  0
    8.2109  -15.1497   23.7614 N   0  0  0  0  0  0  0  0  0  0  0  0
    9.0651  -14.1752   25.8078 C   0  0  0  0  0  0  0  0  0  0  0  0
    9.1896  -13.2841   26.6808 O   0  0  0  0  0  0  0  0  0  0  0  0
    9.5283  -15.6378   29.0140 C   0  0  0  0  0  0  0  0  0  0  0  0
   10.7246  -15.0151   28.3217 C   0  0  2  0  0  0  0  0  0  0  0  0
   10.4989  -13.5266   28.2959 C   0  0  0  0  0  0  0  0  0  0  0  0
   10.8060  -15.6258   26.9515 C   0  0  2  0  0  0  0  0  0  0  0  0
    9.5997  -15.4542   26.1748 N   0  0  0  0  0  0  0  0  0  0  0  0
   11.0973  -17.0734   27.0892 C   0  0  0  0  0  0  0  0  0  0  0  0
   10.3446  -17.9979   26.6904 O   0  0  0  0  0  0  0  0  0  0  0  0
   12.2785  -17.4754   27.6979 O   0  0  0  0  0  0  0  0  0  0  0  0
  2  1  1  1
  2  3  1  0
  4  2  1  0
  4  6  1  0
  4  5  1  1
  6 13  1  0
  6  7  2  0
  9  8  1  6
  9 11  1  0
 10  9  1  0
 12 11  1  1
 13 12  1  0
 14 12  1  0
 14 20  1  0
 15 14  2  0
 17 16  1  1
 18 17  1  0
 19 17  1  0
 19 20  1  1
 19 21  1  0
 21 23  1  0
 22 21  2  0
M  END
$$$$
