KDS.pdb
     RDKit          3D

 24 23  0  0  1  0  0  0  0  0999 V2000
   21.5697  -20.3214  -16.0725 N   0  0  0  0  0  0  0  0  0  0  0  0
   21.3627  -19.4151  -14.9554 C   0  0  1  0  0  0  0  0  0  0  0  0
   22.5858  -18.5029  -14.9150 C   0  0  0  0  0  0  0  0  0  0  0  0
   23.7602  -19.2880  -15.4293 C   0  0  0  0  0  0  0  0  0  0  0  0
   24.4862  -18.5076  -16.4835 C   0  0  0  0  0  0  0  0  0  0  0  0
   25.6702  -19.2985  -16.9924 C   0  0  0  0  0  0  0  0  0  0  0  0
   26.3409  -18.4847  -17.9979 N   0  0  0  0  0  0  0  0  0  0  0  0
   20.2115  -18.4745  -15.2938 C   0  0  0  0  0  0  0  0  0  0  0  0
   19.9281  -18.2030  -16.4777 O   0  0  0  0  0  0  0  0  0  0  0  0
   19.4534  -17.9025  -14.2498 N   0  0  0  0  0  0  0  0  0  0  0  0
   18.3055  -17.0703  -14.4415 C   0  0  1  0  0  0  0  0  0  0  0  0
   17.1520  -17.4790  -13.5999 C   0  0  0  0  0  0  0  0  0  0  0  0
   15.9373  -16.6917  -13.7965 C   0  0  0  0  0  0  0  0  0  0  0  0
   15.4942  -15.9632  -12.8246 O   0  0  0  0  0  0  0  0  0  0  0  0
   18.6390  -15.6150  -14.3267 C   0  0  0  0  0  0  0  0  0  0  0  0
   19.1494  -15.1274  -13.2663 O   0  0  0  0  0  0  0  0  0  0  0  0
   15.1779  -16.6327  -14.9386 O   0  0  0  0  0  0  0  0  0  0  0  0
   18.6221  -13.1635  -17.6766 O   0  0  0  0  0  0  0  0  0  0  0  0
   19.4246  -12.8033  -16.5662 C   0  0  0  0  0  0  0  0  0  0  0  0
   18.7334  -13.3059  -15.3543 C   0  0  2  0  0  0  0  0  0  0  0  0
   18.4027  -14.7249  -15.3826 N   0  0  0  0  0  0  0  0  0  0  0  0
   17.4650  -12.5090  -15.1105 C   0  0  0  0  0  0  0  0  0  0  0  0
   17.5310  -11.1238  -14.8366 O   0  0  0  0  0  0  0  0  0  0  0  0
   16.3314  -13.0076  -15.1373 O   0  0  0  0  0  0  0  0  0  0  0  0
  2  1  1  6
  3  2  1  0
  4  3  1  0
  5  6  1  0
  5  4  1  0
  6  7  1  0
  8  2  1  0
  8  9  2  0
 10  8  1  0
 11 12  1  1
 11 10  1  0
 13 12  1  0
 13 17  1  0
 14 13  2  0
 15 11  1  0
 16 15  2  0
 19 18  1  0
 20 19  1  6
 20 21  1  0
 21 15  1  0
 22 23  1  0
 22 20  1  0
 24 22  2  0
M  END
$$$$
