KDS.pdb
     RDKit          3D

 24 23  0  0  1  0  0  0  0  0999 V2000
   24.4326  -22.2247  -11.5619 N   0  0  0  0  0  0  0  0  0  0  0  0
   24.4697  -20.7755  -11.4587 C   0  0  1  0  0  0  0  0  0  0  0  0
   25.2436  -20.4593  -10.1817 C   0  0  0  0  0  0  0  0  0  0  0  0
   24.7144  -21.3502   -9.0926 C   0  0  0  0  0  0  0  0  0  0  0  0
   23.4532  -20.7778   -8.5191 C   0  0  0  0  0  0  0  0  0  0  0  0
   22.9957  -21.6065   -7.3399 C   0  0  0  0  0  0  0  0  0  0  0  0
   21.7201  -21.0635   -6.8916 N   0  0  0  0  0  0  0  0  0  0  0  0
   25.3548  -20.2272  -12.5724 C   0  0  0  0  0  0  0  0  0  0  0  0
   25.7043  -19.0300  -12.5872 O   0  0  0  0  0  0  0  0  0  0  0  0
   25.7868  -21.0892  -13.6031 N   0  0  0  0  0  0  0  0  0  0  0  0
   26.5227  -20.6710  -14.7565 C   0  0  1  0  0  0  0  0  0  0  0  0
   27.3853  -21.7464  -15.3093 C   0  0  0  0  0  0  0  0  0  0  0  0
   28.1867  -21.3582  -16.4672 C   0  0  0  0  0  0  0  0  0  0  0  0
   28.2484  -20.1107  -16.8014 O   0  0  0  0  0  0  0  0  0  0  0  0
   25.6432  -20.0276  -15.7835 C   0  0  0  0  0  0  0  0  0  0  0  0
   24.7776  -20.6963  -16.4364 O   0  0  0  0  0  0  0  0  0  0  0  0
   28.9112  -22.1967  -17.2775 O   0  0  0  0  0  0  0  0  0  0  0  0
   24.6568  -17.0868  -19.2037 O   0  0  0  0  0  0  0  0  0  0  0  0
   25.5414  -17.8541  -18.4066 C   0  0  0  0  0  0  0  0  0  0  0  0
   24.9213  -17.9697  -17.0645 C   0  0  2  0  0  0  0  0  0  0  0  0
   25.7352  -18.6596  -16.0717 N   0  0  0  0  0  0  0  0  0  0  0  0
   23.5773  -18.6665  -17.1705 C   0  0  0  0  0  0  0  0  0  0  0  0
   22.3795  -17.9159  -17.1712 O   0  0  0  0  0  0  0  0  0  0  0  0
   23.4523  -19.8956  -17.2615 O   0  0  0  0  0  0  0  0  0  0  0  0
  2  1  1  6
  3  2  1  0
  4  3  1  0
  5  6  1  0
  5  4  1  0
  6  7  1  0
  8  2  1  0
  8  9  2  0
 10  8  1  0
 11 12  1  6
 11 10  1  0
 13 12  1  0
 13 17  1  0
 14 13  2  0
 15 11  1  0
 16 15  2  0
 19 18  1  0
 20 19  1  6
 20 21  1  0
 21 15  1  0
 22 23  1  0
 22 20  1  0
 24 22  2  0
M  END
$$$$
