KDS.pdb
     RDKit          3D

 24 23  0  0  1  0  0  0  0  0999 V2000
   16.1272  -11.4379  -16.2664 N   0  0  0  0  0  0  0  0  0  0  0  0
   17.3365  -11.3825  -15.4622 C   0  0  1  0  0  0  0  0  0  0  0  0
   18.3457  -12.3001  -16.1473 C   0  0  0  0  0  0  0  0  0  0  0  0
   17.6453  -13.5899  -16.4725 C   0  0  0  0  0  0  0  0  0  0  0  0
   18.6157  -14.5790  -17.0446 C   0  0  0  0  0  0  0  0  0  0  0  0
   17.9214  -15.8967  -17.3056 C   0  0  0  0  0  0  0  0  0  0  0  0
   18.9167  -16.8183  -17.8377 N   0  0  0  0  0  0  0  0  0  0  0  0
   17.9506   -9.9934  -15.5953 C   0  0  0  0  0  0  0  0  0  0  0  0
   18.9857   -9.8081  -16.2660 O   0  0  0  0  0  0  0  0  0  0  0  0
   17.3367   -8.8989  -14.9494 N   0  0  0  0  0  0  0  0  0  0  0  0
   17.8034   -7.5483  -15.0200 C   0  0  1  0  0  0  0  0  0  0  0  0
   16.6996   -6.5555  -14.9754 C   0  0  0  0  0  0  0  0  0  0  0  0
   17.1198   -5.1620  -15.1007 C   0  0  0  0  0  0  0  0  0  0  0  0
   17.0117   -4.3768  -14.0793 O   0  0  0  0  0  0  0  0  0  0  0  0
   18.8896   -7.2746  -14.0262 C   0  0  0  0  0  0  0  0  0  0  0  0
   18.9030   -7.8303  -12.8801 O   0  0  0  0  0  0  0  0  0  0  0  0
   17.6362   -4.5622  -16.2224 O   0  0  0  0  0  0  0  0  0  0  0  0
   22.6138   -7.4072  -14.6778 O   0  0  0  0  0  0  0  0  0  0  0  0
   22.0582   -7.2755  -13.3814 C   0  0  0  0  0  0  0  0  0  0  0  0
   21.0833   -6.1598  -13.4420 C   0  0  2  0  0  0  0  0  0  0  0  0
   19.9396   -6.3931  -14.3145 N   0  0  0  0  0  0  0  0  0  0  0  0
   21.7802   -4.8826  -13.8738 C   0  0  0  0  0  0  0  0  0  0  0  0
   21.3638   -4.1980  -15.0383 O   0  0  0  0  0  0  0  0  0  0  0  0
   22.7248   -4.3779  -13.2512 O   0  0  0  0  0  0  0  0  0  0  0  0
  2  1  1  6
  3  2  1  0
  4  3  1  0
  5  6  1  0
  5  4  1  0
  6  7  1  0
  8  2  1  0
  8  9  2  0
 10  8  1  0
 11 12  1  1
 11 10  1  0
 13 12  1  0
 13 17  1  0
 14 13  2  0
 15 11  1  0
 16 15  2  0
 19 18  1  0
 20 19  1  6
 20 21  1  0
 21 15  1  0
 22 23  1  0
 22 20  1  0
 24 22  2  0
M  END
$$$$
