KDS.pdb
     RDKit          3D

 24 23  0  0  1  0  0  0  0  0999 V2000
   14.8184  -11.8327   -9.8994 N   0  0  0  0  0  0  0  0  0  0  0  0
   15.1923  -11.3331  -11.2119 C   0  0  1  0  0  0  0  0  0  0  0  0
   14.0027  -11.6095  -12.1274 C   0  0  0  0  0  0  0  0  0  0  0  0
   12.8259  -11.9549  -11.2580 C   0  0  0  0  0  0  0  0  0  0  0  0
   11.6072  -12.1858  -12.0997 C   0  0  0  0  0  0  0  0  0  0  0  0
   10.4333  -12.5596  -11.2229 C   0  0  0  0  0  0  0  0  0  0  0  0
    9.2750  -12.7292  -12.0905 N   0  0  0  0  0  0  0  0  0  0  0  0
   15.2682   -9.8115  -11.1541 C   0  0  0  0  0  0  0  0  0  0  0  0
   14.4242   -9.1017  -11.7369 O   0  0  0  0  0  0  0  0  0  0  0  0
   16.3103   -9.1961  -10.4280 N   0  0  0  0  0  0  0  0  0  0  0  0
   16.4317   -7.7860  -10.2189 C   0  0  1  0  0  0  0  0  0  0  0  0
   16.5715   -7.4273   -8.7844 C   0  0  0  0  0  0  0  0  0  0  0  0
   16.7201   -5.9985   -8.5190 C   0  0  0  0  0  0  0  0  0  0  0  0
   17.8076   -5.5698   -7.9666 O   0  0  0  0  0  0  0  0  0  0  0  0
   17.4860   -7.1758  -11.0897 C   0  0  0  0  0  0  0  0  0  0  0  0
   17.6691   -5.9160  -11.1353 O   0  0  0  0  0  0  0  0  0  0  0  0
   15.8022   -5.0162   -8.7969 O   0  0  0  0  0  0  0  0  0  0  0  0
   21.5979   -7.3119  -13.3965 O   0  0  0  0  0  0  0  0  0  0  0  0
   20.7110   -8.0013  -12.5334 C   0  0  0  0  0  0  0  0  0  0  0  0
   19.3583   -7.4413  -12.7692 C   0  0  2  0  0  0  0  0  0  0  0  0
   18.3177   -7.9658  -11.8941 N   0  0  0  0  0  0  0  0  0  0  0  0
   18.9470   -7.6645  -14.2129 C   0  0  0  0  0  0  0  0  0  0  0  0
   19.4058   -6.7974  -15.2306 O   0  0  0  0  0  0  0  0  0  0  0  0
   18.2094   -8.5913  -14.5757 O   0  0  0  0  0  0  0  0  0  0  0  0
  2  1  1  1
  3  2  1  0
  4  3  1  0
  5  6  1  0
  5  4  1  0
  6  7  1  0
  8  2  1  0
  8  9  2  0
 10  8  1  0
 11 12  1  1
 11 10  1  0
 13 12  1  0
 13 17  1  0
 14 13  2  0
 15 11  1  0
 16 15  2  0
 19 18  1  0
 20 19  1  1
 20 21  1  0
 21 15  1  0
 22 23  1  0
 22 20  1  0
 24 22  2  0
M  END
$$$$
