KDS.pdb
     RDKit          3D

 24 23  0  0  1  0  0  0  0  0999 V2000
   19.5289  -11.0351  -18.1497 N   0  0  0  0  0  0  0  0  0  0  0  0
   18.9217  -10.6460  -16.8880 C   0  0  1  0  0  0  0  0  0  0  0  0
   18.9863  -11.8763  -15.9870 C   0  0  0  0  0  0  0  0  0  0  0  0
   17.8980  -12.8188  -16.4196 C   0  0  0  0  0  0  0  0  0  0  0  0
   17.8858  -14.0361  -15.5448 C   0  0  0  0  0  0  0  0  0  0  0  0
   16.8692  -15.0325  -16.0549 C   0  0  0  0  0  0  0  0  0  0  0  0
   16.8570  -16.1583  -15.1301 N   0  0  0  0  0  0  0  0  0  0  0  0
   19.8302   -9.6347  -16.1978 C   0  0  0  0  0  0  0  0  0  0  0  0
   19.5473   -9.1771  -15.0726 O   0  0  0  0  0  0  0  0  0  0  0  0
   21.0117   -9.2102  -16.8428 N   0  0  0  0  0  0  0  0  0  0  0  0
   21.9412   -8.2690  -16.2978 C   0  0  1  0  0  0  0  0  0  0  0  0
   23.2991   -8.3954  -16.8862 C   0  0  0  0  0  0  0  0  0  0  0  0
   24.2805   -7.4391  -16.3798 C   0  0  0  0  0  0  0  0  0  0  0  0
   25.1923   -7.8468  -15.5588 O   0  0  0  0  0  0  0  0  0  0  0  0
   21.4087   -6.8698  -16.3266 C   0  0  0  0  0  0  0  0  0  0  0  0
   21.1410   -6.2785  -17.4227 O   0  0  0  0  0  0  0  0  0  0  0  0
   24.3510   -6.1023  -16.6841 O   0  0  0  0  0  0  0  0  0  0  0  0
   19.0543   -3.2285  -14.5202 O   0  0  0  0  0  0  0  0  0  0  0  0
   19.3967   -4.5985  -14.4079 C   0  0  0  0  0  0  0  0  0  0  0  0
   20.6961   -4.7758  -15.1000 C   0  0  2  0  0  0  0  0  0  0  0  0
   21.1823   -6.1489  -15.1468 N   0  0  0  0  0  0  0  0  0  0  0  0
   21.7538   -3.9003  -14.4537 C   0  0  0  0  0  0  0  0  0  0  0  0
   21.7070   -2.4950  -14.5991 O   0  0  0  0  0  0  0  0  0  0  0  0
   22.6913   -4.3492  -13.7797 O   0  0  0  0  0  0  0  0  0  0  0  0
  2  1  1  6
  3  2  1  0
  4  3  1  0
  5  6  1  0
  5  4  1  0
  6  7  1  0
  8  2  1  0
  8  9  2  0
 10  8  1  0
 11 12  1  6
 11 10  1  0
 13 12  1  0
 13 17  1  0
 14 13  2  0
 15 11  1  0
 16 15  2  0
 19 18  1  0
 20 19  1  1
 20 21  1  0
 21 15  1  0
 22 23  1  0
 22 20  1  0
 24 22  2  0
M  END
$$$$
