KDS.pdb
     RDKit          3D

 24 23  0  0  1  0  0  0  0  0999 V2000
   21.9088  -10.4775  -15.3230 N   0  0  0  0  0  0  0  0  0  0  0  0
   21.1011   -9.5292  -16.0716 C   0  0  1  0  0  0  0  0  0  0  0  0
   19.6994  -10.1287  -16.1452 C   0  0  0  0  0  0  0  0  0  0  0  0
   19.7578  -11.3196  -17.0608 C   0  0  0  0  0  0  0  0  0  0  0  0
   18.3915  -11.9124  -17.2310 C   0  0  0  0  0  0  0  0  0  0  0  0
   18.4293  -13.0172  -18.2628 C   0  0  0  0  0  0  0  0  0  0  0  0
   17.0746  -13.5362  -18.3987 N   0  0  0  0  0  0  0  0  0  0  0  0
   20.9203   -8.2692  -15.2324 C   0  0  0  0  0  0  0  0  0  0  0  0
   20.2936   -8.2974  -14.1545 O   0  0  0  0  0  0  0  0  0  0  0  0
   21.4724   -7.0508  -15.6827 N   0  0  0  0  0  0  0  0  0  0  0  0
   21.2863   -5.7874  -15.0377 C   0  0  1  0  0  0  0  0  0  0  0  0
   22.5611   -5.1904  -14.5638 C   0  0  0  0  0  0  0  0  0  0  0  0
   22.4260   -3.8929  -13.9064 C   0  0  0  0  0  0  0  0  0  0  0  0
   21.7998   -3.8204  -12.7776 O   0  0  0  0  0  0  0  0  0  0  0  0
   20.4613   -4.8492  -15.8632 C   0  0  0  0  0  0  0  0  0  0  0  0
   20.8110   -4.5099  -17.0402 O   0  0  0  0  0  0  0  0  0  0  0  0
   22.9040   -2.6907  -14.3656 O   0  0  0  0  0  0  0  0  0  0  0  0
   16.7185   -3.7266  -14.5456 O   0  0  0  0  0  0  0  0  0  0  0  0
   16.9411   -3.6664  -15.9433 C   0  0  0  0  0  0  0  0  0  0  0  0
   18.3908   -3.4230  -16.1384 C   0  0  2  0  0  0  0  0  0  0  0  0
   19.2672   -4.3025  -15.3753 N   0  0  0  0  0  0  0  0  0  0  0  0
   18.7262   -1.9813  -15.8031 C   0  0  0  0  0  0  0  0  0  0  0  0
   18.0260   -0.9206  -16.4217 O   0  0  0  0  0  0  0  0  0  0  0  0
   19.6045   -1.6570  -14.9919 O   0  0  0  0  0  0  0  0  0  0  0  0
  2  1  1  1
  3  2  1  0
  4  3  1  0
  5  6  1  0
  5  4  1  0
  6  7  1  0
  8  2  1  0
  8  9  2  0
 10  8  1  0
 11 12  1  6
 11 10  1  0
 13 12  1  0
 13 17  1  0
 14 13  2  0
 15 11  1  0
 16 15  2  0
 19 18  1  0
 20 19  1  1
 20 21  1  0
 21 15  1  0
 22 23  1  0
 22 20  1  0
 24 22  2  0
M  END
$$$$
