KDS.pdb
     RDKit          3D

 24 23  0  0  1  0  0  0  0  0999 V2000
   25.3602  -22.8282  -17.2048 N   0  0  0  0  0  0  0  0  0  0  0  0
   25.1626  -22.2142  -15.9025 C   0  0  1  0  0  0  0  0  0  0  0  0
   26.3537  -21.2848  -15.6848 C   0  0  0  0  0  0  0  0  0  0  0  0
   27.4210  -21.6690  -16.6713 C   0  0  0  0  0  0  0  0  0  0  0  0
   28.2411  -22.8035  -16.1350 C   0  0  0  0  0  0  0  0  0  0  0  0
   29.3606  -23.1351  -17.0959 C   0  0  0  0  0  0  0  0  0  0  0  0
   29.9842  -24.3680  -16.6331 N   0  0  0  0  0  0  0  0  0  0  0  0
   23.9676  -21.2708  -15.9814 C   0  0  0  0  0  0  0  0  0  0  0  0
   23.6582  -20.7109  -17.0521 O   0  0  0  0  0  0  0  0  0  0  0  0
   23.1980  -21.0279  -14.8235 N   0  0  0  0  0  0  0  0  0  0  0  0
   22.0052  -20.2385  -14.7920 C   0  0  1  0  0  0  0  0  0  0  0  0
   21.0838  -20.6324  -13.6956 C   0  0  0  0  0  0  0  0  0  0  0  0
   20.5163  -21.9726  -13.8204 C   0  0  0  0  0  0  0  0  0  0  0  0
   20.1930  -22.4136  -14.9920 O   0  0  0  0  0  0  0  0  0  0  0  0
   22.2996  -18.7707  -14.8225 C   0  0  0  0  0  0  0  0  0  0  0  0
   22.8158  -18.1712  -13.8240 O   0  0  0  0  0  0  0  0  0  0  0  0
   20.2739  -22.8557  -12.7977 O   0  0  0  0  0  0  0  0  0  0  0  0
   23.6510  -16.9738  -17.9407 O   0  0  0  0  0  0  0  0  0  0  0  0
   23.6211  -16.2629  -16.7157 C   0  0  0  0  0  0  0  0  0  0  0  0
   22.3219  -16.5711  -16.0706 C   0  0  2  0  0  0  0  0  0  0  0  0
   22.0189  -17.9917  -15.9525 N   0  0  0  0  0  0  0  0  0  0  0  0
   21.1935  -15.8871  -16.8203 C   0  0  0  0  0  0  0  0  0  0  0  0
   21.1745  -14.4804  -16.9582 O   0  0  0  0  0  0  0  0  0  0  0  0
   20.2517  -16.5002  -17.3415 O   0  0  0  0  0  0  0  0  0  0  0  0
  2  1  1  6
  3  2  1  0
  4  3  1  0
  5  6  1  0
  5  4  1  0
  6  7  1  0
  8  2  1  0
  8  9  2  0
 10  8  1  0
 11 12  1  1
 11 10  1  0
 13 12  1  0
 13 17  1  0
 14 13  2  0
 15 11  1  0
 16 15  2  0
 19 18  1  0
 20 19  1  6
 20 21  1  0
 21 15  1  0
 22 23  1  0
 22 20  1  0
 24 22  2  0
M  END
$$$$
