KDS.pdb
     RDKit          3D

 24 23  0  0  1  0  0  0  0  0999 V2000
   18.8936  -11.5698  -15.4050 N   0  0  0  0  0  0  0  0  0  0  0  0
   19.8873  -10.7139  -16.0313 C   0  0  1  0  0  0  0  0  0  0  0  0
   19.4093  -10.4834  -17.4624 C   0  0  0  0  0  0  0  0  0  0  0  0
   19.5294  -11.7871  -18.2012 C   0  0  0  0  0  0  0  0  0  0  0  0
   19.0714  -11.6255  -19.6195 C   0  0  0  0  0  0  0  0  0  0  0  0
   19.3001  -12.9071  -20.3886 C   0  0  0  0  0  0  0  0  0  0  0  0
   18.8652  -12.6783  -21.7603 N   0  0  0  0  0  0  0  0  0  0  0  0
   19.8173   -9.3318  -15.3914 C   0  0  0  0  0  0  0  0  0  0  0  0
   18.7892   -8.9473  -14.7993 O   0  0  0  0  0  0  0  0  0  0  0  0
   20.9353   -8.4739  -15.4696 N   0  0  0  0  0  0  0  0  0  0  0  0
   20.9971   -7.1659  -14.8932 C   0  0  1  0  0  0  0  0  0  0  0  0
   22.3208   -6.8651  -14.2906 C   0  0  0  0  0  0  0  0  0  0  0  0
   22.4314   -5.5444  -13.6762 C   0  0  0  0  0  0  0  0  0  0  0  0
   21.9097   -5.3461  -12.5099 O   0  0  0  0  0  0  0  0  0  0  0  0
   20.5217   -6.1090  -15.8415 C   0  0  0  0  0  0  0  0  0  0  0  0
   20.9117   -6.0737  -17.0537 O   0  0  0  0  0  0  0  0  0  0  0  0
   23.0481   -4.4422  -14.2141 O   0  0  0  0  0  0  0  0  0  0  0  0
   16.9387   -4.9365  -16.2762 O   0  0  0  0  0  0  0  0  0  0  0  0
   17.9549   -4.4855  -17.1541 C   0  0  0  0  0  0  0  0  0  0  0  0
   19.1005   -4.0698  -16.3091 C   0  0  2  0  0  0  0  0  0  0  0  0
   19.6262   -5.1111  -15.4354 N   0  0  0  0  0  0  0  0  0  0  0  0
   18.7166   -2.8671  -15.4669 C   0  0  0  0  0  0  0  0  0  0  0  0
   18.3515   -1.6484  -16.0830 O   0  0  0  0  0  0  0  0  0  0  0  0
   18.6987   -2.8804  -14.2283 O   0  0  0  0  0  0  0  0  0  0  0  0
  2  1  1  1
  3  2  1  0
  4  3  1  0
  5  6  1  0
  5  4  1  0
  6  7  1  0
  8  2  1  0
  8  9  2  0
 10  8  1  0
 11 12  1  6
 11 10  1  0
 13 12  1  0
 13 17  1  0
 14 13  2  0
 15 11  1  0
 16 15  2  0
 19 18  1  0
 20 19  1  1
 20 21  1  0
 21 15  1  0
 22 23  1  0
 22 20  1  0
 24 22  2  0
M  END
$$$$
