KDS.pdb
     RDKit          3D

 24 23  0  0  1  0  0  0  0  0999 V2000
   15.2012  -12.4659  -11.3679 N   0  0  0  0  0  0  0  0  0  0  0  0
   15.1940  -11.3630  -12.3144 C   0  0  1  0  0  0  0  0  0  0  0  0
   13.8457  -10.6673  -12.1471 C   0  0  0  0  0  0  0  0  0  0  0  0
   13.0014  -11.5166  -11.2384 C   0  0  0  0  0  0  0  0  0  0  0  0
   12.1583  -12.4599  -12.0426 C   0  0  0  0  0  0  0  0  0  0  0  0
   11.1615  -13.1592  -11.1459 C   0  0  0  0  0  0  0  0  0  0  0  0
   10.5534  -14.2329  -11.9207 N   0  0  0  0  0  0  0  0  0  0  0  0
   16.2072  -10.3190  -11.8585 C   0  0  0  0  0  0  0  0  0  0  0  0
   16.6202  -10.2927  -10.6819 O   0  0  0  0  0  0  0  0  0  0  0  0
   16.6867   -9.3673  -12.7840 N   0  0  0  0  0  0  0  0  0  0  0  0
   17.6939   -8.3923  -12.4980 C   0  0  1  0  0  0  0  0  0  0  0  0
   18.7191   -8.2939  -13.5682 C   0  0  0  0  0  0  0  0  0  0  0  0
   19.7844   -7.3275  -13.3128 C   0  0  0  0  0  0  0  0  0  0  0  0
   20.4496   -7.4004  -12.2066 O   0  0  0  0  0  0  0  0  0  0  0  0
   17.1055   -7.0697  -12.1151 C   0  0  0  0  0  0  0  0  0  0  0  0
   16.1803   -6.5255  -12.8011 O   0  0  0  0  0  0  0  0  0  0  0  0
   20.1780   -6.3071  -14.1425 O   0  0  0  0  0  0  0  0  0  0  0  0
   16.6561   -3.5217   -8.8562 O   0  0  0  0  0  0  0  0  0  0  0  0
   17.1591   -4.8256   -9.0878 C   0  0  0  0  0  0  0  0  0  0  0  0
   17.0062   -5.0949  -10.5380 C   0  0  2  0  0  0  0  0  0  0  0  0
   17.5485   -6.3720  -10.9838 N   0  0  0  0  0  0  0  0  0  0  0  0
   17.6452   -3.9795  -11.3447 C   0  0  0  0  0  0  0  0  0  0  0  0
   17.0883   -2.6803  -11.3368 O   0  0  0  0  0  0  0  0  0  0  0  0
   18.6618   -4.1344  -12.0354 O   0  0  0  0  0  0  0  0  0  0  0  0
  2  1  1  1
  3  2  1  0
  4  3  1  0
  5  6  1  0
  5  4  1  0
  6  7  1  0
  8  2  1  0
  8  9  2  0
 10  8  1  0
 11 12  1  6
 11 10  1  0
 13 12  1  0
 13 17  1  0
 14 13  2  0
 15 11  1  0
 16 15  2  0
 19 18  1  0
 20 19  1  1
 20 21  1  0
 21 15  1  0
 22 23  1  0
 22 20  1  0
 24 22  2  0
M  END
$$$$
