KDS.pdb
     RDKit          3D

 24 23  0  0  1  0  0  0  0  0999 V2000
   19.0205  -12.1352  -18.1506 N   0  0  0  0  0  0  0  0  0  0  0  0
   20.0471  -11.5814  -17.2836 C   0  0  1  0  0  0  0  0  0  0  0  0
   21.3201  -11.5104  -18.1227 C   0  0  0  0  0  0  0  0  0  0  0  0
   21.7555  -12.9193  -18.4150 C   0  0  0  0  0  0  0  0  0  0  0  0
   22.9475  -12.9174  -19.3240 C   0  0  0  0  0  0  0  0  0  0  0  0
   23.4404  -14.3309  -19.5375 C   0  0  0  0  0  0  0  0  0  0  0  0
   24.5606  -14.2685  -20.4672 N   0  0  0  0  0  0  0  0  0  0  0  0
   19.7119  -10.1220  -16.9968 C   0  0  0  0  0  0  0  0  0  0  0  0
   19.3755   -9.3461  -17.9135 O   0  0  0  0  0  0  0  0  0  0  0  0
   19.7825   -9.6417  -15.6716 N   0  0  0  0  0  0  0  0  0  0  0  0
   19.4639   -8.3046  -15.2743 C   0  0  1  0  0  0  0  0  0  0  0  0
   18.5266   -8.2547  -14.1233 C   0  0  0  0  0  0  0  0  0  0  0  0
   17.2368   -8.9013  -14.3515 C   0  0  0  0  0  0  0  0  0  0  0  0
   16.6168   -8.6948  -15.4672 O   0  0  0  0  0  0  0  0  0  0  0  0
   20.6899   -7.4673  -15.0794 C   0  0  0  0  0  0  0  0  0  0  0  0
   21.7575   -7.9507  -14.5801 O   0  0  0  0  0  0  0  0  0  0  0  0
   16.5765   -9.7360  -13.4844 O   0  0  0  0  0  0  0  0  0  0  0  0
   23.0640   -3.3420  -15.9279 O   0  0  0  0  0  0  0  0  0  0  0  0
   21.8090   -3.9829  -16.0735 C   0  0  0  0  0  0  0  0  0  0  0  0
   21.8776   -5.2451  -15.2980 C   0  0  2  0  0  0  0  0  0  0  0  0
   20.7154   -6.1132  -15.4378 N   0  0  0  0  0  0  0  0  0  0  0  0
   22.0915   -4.9409  -13.8266 C   0  0  0  0  0  0  0  0  0  0  0  0
   20.9859   -4.7702  -12.9625 O   0  0  0  0  0  0  0  0  0  0  0  0
   23.2117   -4.8291  -13.3098 O   0  0  0  0  0  0  0  0  0  0  0  0
  2  1  1  6
  3  2  1  0
  4  3  1  0
  5  6  1  0
  5  4  1  0
  6  7  1  0
  8  2  1  0
  8  9  2  0
 10  8  1  0
 11 12  1  1
 11 10  1  0
 13 12  1  0
 13 17  1  0
 14 13  2  0
 15 11  1  0
 16 15  2  0
 19 18  1  0
 20 19  1  6
 20 21  1  0
 21 15  1  0
 22 23  1  0
 22 20  1  0
 24 22  2  0
M  END
$$$$
