KDS.pdb
     RDKit          3D

 24 23  0  0  1  0  0  0  0  0999 V2000
   19.9097  -13.3386  -18.4328 N   0  0  0  0  0  0  0  0  0  0  0  0
   19.4220  -12.0489  -17.9733 C   0  0  1  0  0  0  0  0  0  0  0  0
   18.8777  -12.2765  -16.5656 C   0  0  0  0  0  0  0  0  0  0  0  0
   17.8068  -13.3279  -16.6528 C   0  0  0  0  0  0  0  0  0  0  0  0
   18.1357  -14.4813  -15.7536 C   0  0  0  0  0  0  0  0  0  0  0  0
   16.9723  -15.4457  -15.6988 C   0  0  0  0  0  0  0  0  0  0  0  0
   17.2923  -16.4620  -14.7050 N   0  0  0  0  0  0  0  0  0  0  0  0
   20.6132  -11.1208  -17.7632 C   0  0  0  0  0  0  0  0  0  0  0  0
   21.7582  -11.4481  -18.1337 O   0  0  0  0  0  0  0  0  0  0  0  0
   20.4163   -9.8699  -17.1398 N   0  0  0  0  0  0  0  0  0  0  0  0
   21.4100   -8.8451  -17.0437 C   0  0  1  0  0  0  0  0  0  0  0  0
   22.0471   -8.5376  -18.3496 C   0  0  0  0  0  0  0  0  0  0  0  0
   23.0987   -7.5249  -18.2980 C   0  0  0  0  0  0  0  0  0  0  0  0
   22.7911   -6.2859  -18.5029 O   0  0  0  0  0  0  0  0  0  0  0  0
   20.9006   -7.6312  -16.3302 C   0  0  0  0  0  0  0  0  0  0  0  0
   19.9566   -6.9216  -16.8080 O   0  0  0  0  0  0  0  0  0  0  0  0
   24.4310   -7.7426  -18.0488 O   0  0  0  0  0  0  0  0  0  0  0  0
   21.1758   -7.3171  -12.3261 O   0  0  0  0  0  0  0  0  0  0  0  0
   20.2580   -6.5136  -13.0466 C   0  0  0  0  0  0  0  0  0  0  0  0
   20.9313   -6.1149  -14.3062 C   0  0  2  0  0  0  0  0  0  0  0  0
   21.4417   -7.2222  -15.1044 N   0  0  0  0  0  0  0  0  0  0  0  0
   22.0698   -5.1570  -14.0072 C   0  0  0  0  0  0  0  0  0  0  0  0
   21.8251   -3.9457  -13.3208 O   0  0  0  0  0  0  0  0  0  0  0  0
   23.2450   -5.3722  -14.3343 O   0  0  0  0  0  0  0  0  0  0  0  0
  2  1  1  1
  3  2  1  0
  4  3  1  0
  5  6  1  0
  5  4  1  0
  6  7  1  0
  8  2  1  0
  8  9  2  0
 10  8  1  0
 11 12  1  6
 11 10  1  0
 13 12  1  0
 13 17  1  0
 14 13  2  0
 15 11  1  0
 16 15  2  0
 19 18  1  0
 20 19  1  1
 20 21  1  0
 21 15  1  0
 22 23  1  0
 22 20  1  0
 24 22  2  0
M  END
$$$$
