KDS.pdb
     RDKit          3D

 24 23  0  0  1  0  0  0  0  0999 V2000
   18.8928  -13.2199  -17.3146 N   0  0  0  0  0  0  0  0  0  0  0  0
   19.9294  -12.3578  -16.7722 C   0  0  1  0  0  0  0  0  0  0  0  0
   21.0186  -12.2789  -17.8385 C   0  0  0  0  0  0  0  0  0  0  0  0
   21.5707  -13.6636  -18.0329 C   0  0  0  0  0  0  0  0  0  0  0  0
   22.6417  -13.6541  -19.0819 C   0  0  0  0  0  0  0  0  0  0  0  0
   23.1908  -15.0495  -19.2764 C   0  0  0  0  0  0  0  0  0  0  0  0
   24.1859  -14.9844  -20.3387 N   0  0  0  0  0  0  0  0  0  0  0  0
   19.3897  -10.9343  -16.6895 C   0  0  0  0  0  0  0  0  0  0  0  0
   18.6276  -10.4822  -17.5673 O   0  0  0  0  0  0  0  0  0  0  0  0
   19.7578  -10.1150  -15.6008 N   0  0  0  0  0  0  0  0  0  0  0  0
   19.4218   -8.7299  -15.4767 C   0  0  1  0  0  0  0  0  0  0  0  0
   18.1537   -8.5101  -14.7353 C   0  0  0  0  0  0  0  0  0  0  0  0
   17.8009   -7.1087  -14.5215 C   0  0  0  0  0  0  0  0  0  0  0  0
   17.9846   -6.2594  -15.4789 O   0  0  0  0  0  0  0  0  0  0  0  0
   20.5652   -7.9173  -14.9528 C   0  0  0  0  0  0  0  0  0  0  0  0
   21.2586   -8.3031  -13.9562 O   0  0  0  0  0  0  0  0  0  0  0  0
   17.2769   -6.5638  -13.3757 O   0  0  0  0  0  0  0  0  0  0  0  0
   21.2080   -4.0465  -16.3218 O   0  0  0  0  0  0  0  0  0  0  0  0
   22.3913   -4.7534  -15.9949 C   0  0  0  0  0  0  0  0  0  0  0  0
   22.0011   -5.8381  -15.0620 C   0  0  2  0  0  0  0  0  0  0  0  0
   20.9219   -6.6948  -15.5367 N   0  0  0  0  0  0  0  0  0  0  0  0
   21.6106   -5.2527  -13.7174 C   0  0  0  0  0  0  0  0  0  0  0  0
   22.5319   -4.4740  -12.9805 O   0  0  0  0  0  0  0  0  0  0  0  0
   20.4962   -5.4150  -13.2014 O   0  0  0  0  0  0  0  0  0  0  0  0
  2  1  1  6
  3  2  1  0
  4  3  1  0
  5  6  1  0
  5  4  1  0
  6  7  1  0
  8  2  1  0
  8  9  2  0
 10  8  1  0
 11 12  1  1
 11 10  1  0
 13 12  1  0
 13 17  1  0
 14 13  2  0
 15 11  1  0
 16 15  2  0
 19 18  1  0
 20 19  1  6
 20 21  1  0
 21 15  1  0
 22 23  1  0
 22 20  1  0
 24 22  2  0
M  END
$$$$
