KDS.pdb
     RDKit          3D

 24 23  0  0  1  0  0  0  0  0999 V2000
   26.3170  -22.0726  -12.4254 N   0  0  0  0  0  0  0  0  0  0  0  0
   25.5384  -21.3464  -11.4362 C   0  0  1  0  0  0  0  0  0  0  0  0
   26.3926  -20.1541  -11.0138 C   0  0  0  0  0  0  0  0  0  0  0  0
   27.5433  -20.6796  -10.2016 C   0  0  0  0  0  0  0  0  0  0  0  0
   28.6918  -21.0361  -11.0966 C   0  0  0  0  0  0  0  0  0  0  0  0
   29.8906  -21.4395  -10.2678 C   0  0  0  0  0  0  0  0  0  0  0  0
   30.9963  -21.6809  -11.1855 N   0  0  0  0  0  0  0  0  0  0  0  0
   24.3360  -20.7130  -12.1272 C   0  0  0  0  0  0  0  0  0  0  0  0
   23.6039  -19.8994  -11.5291 O   0  0  0  0  0  0  0  0  0  0  0  0
   24.0474  -21.0524  -13.4664 N   0  0  0  0  0  0  0  0  0  0  0  0
   22.9918  -20.4756  -14.2410 C   0  0  1  0  0  0  0  0  0  0  0  0
   23.3722  -20.2590  -15.6603 C   0  0  0  0  0  0  0  0  0  0  0  0
   24.2131  -19.0888  -15.9002 C   0  0  0  0  0  0  0  0  0  0  0  0
   23.8258  -17.9345  -15.4653 O   0  0  0  0  0  0  0  0  0  0  0  0
   21.7022  -21.2190  -14.0780 C   0  0  0  0  0  0  0  0  0  0  0  0
   21.6637  -22.4918  -14.0433 O   0  0  0  0  0  0  0  0  0  0  0  0
   25.4156  -19.0689  -16.5622 O   0  0  0  0  0  0  0  0  0  0  0  0
   16.9098  -21.0719  -13.3384 O   0  0  0  0  0  0  0  0  0  0  0  0
   18.0304  -20.2819  -13.6948 C   0  0  0  0  0  0  0  0  0  0  0  0
   19.1874  -21.2023  -13.8089 C   0  0  2  0  0  0  0  0  0  0  0  0
   20.4798  -20.5453  -13.9571 N   0  0  0  0  0  0  0  0  0  0  0  0
   18.9822  -22.1544  -14.9727 C   0  0  0  0  0  0  0  0  0  0  0  0
   18.5313  -23.4749  -14.7468 O   0  0  0  0  0  0  0  0  0  0  0  0
   19.1891  -21.8418  -16.1534 O   0  0  0  0  0  0  0  0  0  0  0  0
  2  1  1  6
  3  2  1  0
  4  3  1  0
  5  6  1  0
  5  4  1  0
  6  7  1  0
  8  2  1  0
  8  9  2  0
 10  8  1  0
 11 12  1  6
 11 10  1  0
 13 12  1  0
 13 17  1  0
 14 13  2  0
 15 11  1  0
 16 15  2  0
 19 18  1  0
 20 19  1  6
 20 21  1  0
 21 15  1  0
 22 23  1  0
 22 20  1  0
 24 22  2  0
M  END
$$$$
