KDS.pdb
     RDKit          3D

 24 23  0  0  1  0  0  0  0  0999 V2000
   21.3221  -12.9257  -17.9626 N   0  0  0  0  0  0  0  0  0  0  0  0
   20.5362  -11.7124  -17.8134 C   0  0  1  0  0  0  0  0  0  0  0  0
   19.5899  -11.9595  -16.6415 C   0  0  0  0  0  0  0  0  0  0  0  0
   18.4993  -12.8775  -17.1189 C   0  0  0  0  0  0  0  0  0  0  0  0
   17.4921  -13.0987  -16.0309 C   0  0  0  0  0  0  0  0  0  0  0  0
   16.4293  -14.0685  -16.4960 C   0  0  0  0  0  0  0  0  0  0  0  0
   15.5647  -14.3500  -15.3574 N   0  0  0  0  0  0  0  0  0  0  0  0
   21.4487  -10.5944  -17.3217 C   0  0  0  0  0  0  0  0  0  0  0  0
   22.1308  -10.7279  -16.2861 O   0  0  0  0  0  0  0  0  0  0  0  0
   21.5236   -9.3886  -18.0516 N   0  0  0  0  0  0  0  0  0  0  0  0
   22.2790   -8.2419  -17.6500 C   0  0  1  0  0  0  0  0  0  0  0  0
   22.8301   -7.4840  -18.8024 C   0  0  0  0  0  0  0  0  0  0  0  0
   23.6284   -6.3142  -18.4444 C   0  0  0  0  0  0  0  0  0  0  0  0
   24.6290   -6.4568  -17.6380 O   0  0  0  0  0  0  0  0  0  0  0  0
   21.5282   -7.3842  -16.6789 C   0  0  0  0  0  0  0  0  0  0  0  0
   20.3531   -6.9609  -16.9299 O   0  0  0  0  0  0  0  0  0  0  0  0
   23.4326   -5.0271  -18.8798 O   0  0  0  0  0  0  0  0  0  0  0  0
   20.8856   -8.0183  -13.0780 O   0  0  0  0  0  0  0  0  0  0  0  0
   21.4857   -6.7352  -13.0626 C   0  0  0  0  0  0  0  0  0  0  0  0
   21.4039   -6.2049  -14.4450 C   0  0  2  0  0  0  0  0  0  0  0  0
   22.0871   -7.0090  -15.4503 N   0  0  0  0  0  0  0  0  0  0  0  0
   21.9489   -4.7893  -14.4925 C   0  0  0  0  0  0  0  0  0  0  0  0
   22.9737   -4.4466  -15.4037 O   0  0  0  0  0  0  0  0  0  0  0  0
   21.5407   -3.8771  -13.7604 O   0  0  0  0  0  0  0  0  0  0  0  0
  2  1  1  1
  3  2  1  0
  4  3  1  0
  5  6  1  0
  5  4  1  0
  6  7  1  0
  8  2  1  0
  8  9  2  0
 10  8  1  0
 11 12  1  6
 11 10  1  0
 13 12  1  0
 13 17  1  0
 14 13  2  0
 15 11  1  0
 16 15  2  0
 19 18  1  0
 20 19  1  1
 20 21  1  0
 21 15  1  0
 22 23  1  0
 22 20  1  0
 24 22  2  0
M  END
$$$$
