TWT.pdb
     RDKit          3D

 29 30  0  0  1  0  0  0  0  0999 V2000
    8.2969  -16.2814   18.7495 C   0  0  0  0  0  0  0  0  0  0  0  0
    8.4735  -14.7810   18.6052 C   0  0  1  0  0  0  0  0  0  0  0  0
    8.0546  -14.3720   17.3407 O   0  0  0  0  0  0  0  0  0  0  0  0
    7.6926  -14.0148   19.6537 C   0  0  2  0  0  0  0  0  0  0  0  0
    7.8669  -12.6027   19.3447 N   0  0  0  0  0  0  0  0  0  0  0  0
    8.2482  -14.2689   21.0202 C   0  0  0  0  0  0  0  0  0  0  0  0
    9.2764  -13.6353   21.3957 O   0  0  0  0  0  0  0  0  0  0  0  0
    7.6784  -15.1858   21.9162 N   0  0  0  0  0  0  0  0  0  0  0  0
    8.3525  -15.4633   23.2050 C   0  0  1  0  0  0  0  0  0  0  0  0
    7.2890  -15.6288   24.2386 C   0  0  0  0  0  0  0  0  0  0  0  0
    7.0055  -14.4432   25.0364 C   0  0  0  0  0  0  0  0  0  0  0  0
    5.8261  -13.7051   24.9442 C   0  0  0  0  0  0  0  0  0  0  0  0
    5.9055  -12.6592   25.7772 N   0  0  0  0  0  0  0  0  0  0  0  0
    7.0892  -12.6876   26.4077 C   0  0  0  0  0  0  0  0  0  0  0  0
    7.5839  -11.8166   27.3627 C   0  0  0  0  0  0  0  0  0  0  0  0
    8.8334  -12.0855   27.8784 C   0  0  0  0  0  0  0  0  0  0  0  0
    9.5654  -13.1950   27.4487 C   0  0  0  0  0  0  0  0  0  0  0  0
    9.0505  -14.0408   26.4999 C   0  0  0  0  0  0  0  0  0  0  0  0
    7.7926  -13.8006   25.9564 C   0  0  0  0  0  0  0  0  0  0  0  0
    9.2089  -16.6353   23.0627 C   0  0  0  0  0  0  0  0  0  0  0  0
    8.7693  -17.7606   22.7211 O   0  0  0  0  0  0  0  0  0  0  0  0
   12.3912  -17.0439   20.9627 C   0  0  0  0  0  0  0  0  0  0  0  0
   12.7173  -17.4821   22.3661 C   0  0  1  0  0  0  0  0  0  0  0  0
   13.4570  -16.5017   23.0411 O   0  0  0  0  0  0  0  0  0  0  0  0
   11.4363  -17.7677   23.1260 C   0  0  2  0  0  0  0  0  0  0  0  0
   10.6302  -16.5838   23.3073 N   0  0  0  0  0  0  0  0  0  0  0  0
   11.7733  -18.3180   24.4818 C   0  0  0  0  0  0  0  0  0  0  0  0
   11.4297  -17.6925   25.4979 O   0  0  0  0  0  0  0  0  0  0  0  0
   12.4653  -19.5206   24.5832 O   0  0  0  0  0  0  0  0  0  0  0  0
  2  1  1  1
  2  4  1  0
  3  2  1  0
  4  5  1  6
  6  4  1  0
  6  7  2  0
  8  9  1  0
  8  6  1  0
 10 11  1  0
  9 10  1  1
 11 19  1  0
 12 13  1  0
 12 11  2  0
 13 14  1  0
 14 19  2  0
 14 15  1  0
 15 16  2  0
 16 17  1  0
 18 17  2  0
 19 18  1  0
 20  9  1  0
 21 20  2  0
 23 22  1  6
 23 25  1  0
 24 23  1  0
 25 27  1  0
 25 26  1  1
 26 20  1  0
 27 29  1  0
 28 27  2  0
M  END
$$$$
