TWT.pdb
     RDKit          3D

 29 30  0  0  1  0  0  0  0  0999 V2000
    8.0573  -14.9754   16.3348 C   0  0  0  0  0  0  0  0  0  0  0  0
    8.3980  -15.0316   17.8126 C   0  0  1  0  0  0  0  0  0  0  0  0
    9.7747  -14.9070   17.9884 O   0  0  0  0  0  0  0  0  0  0  0  0
    7.7010  -13.9385   18.5971 C   0  0  2  0  0  0  0  0  0  0  0  0
    8.2143  -12.6755   18.0860 N   0  0  0  0  0  0  0  0  0  0  0  0
    8.0413  -14.0299   20.0519 C   0  0  0  0  0  0  0  0  0  0  0  0
    9.0397  -13.3910   20.4931 O   0  0  0  0  0  0  0  0  0  0  0  0
    7.2991  -14.7979   20.9614 N   0  0  0  0  0  0  0  0  0  0  0  0
    7.7008  -14.8336   22.3861 C   0  0  1  0  0  0  0  0  0  0  0  0
    6.4519  -14.8886   23.2010 C   0  0  0  0  0  0  0  0  0  0  0  0
    6.6424  -14.7809   24.6413 C   0  0  0  0  0  0  0  0  0  0  0  0
    6.6506  -15.8711   25.5105 C   0  0  0  0  0  0  0  0  0  0  0  0
    6.8032  -15.4229   26.7634 N   0  0  0  0  0  0  0  0  0  0  0  0
    6.8949  -14.0846   26.7440 C   0  0  0  0  0  0  0  0  0  0  0  0
    7.0769  -13.2128   27.8032 C   0  0  0  0  0  0  0  0  0  0  0  0
    7.1648  -11.8691   27.5093 C   0  0  0  0  0  0  0  0  0  0  0  0
    7.0725  -11.4133   26.1921 C   0  0  0  0  0  0  0  0  0  0  0  0
    6.8910  -12.3004   25.1621 C   0  0  0  0  0  0  0  0  0  0  0  0
    6.7972  -13.6641   25.4209 C   0  0  0  0  0  0  0  0  0  0  0  0
    8.5898  -15.9677   22.6118 C   0  0  0  0  0  0  0  0  0  0  0  0
    8.3410  -17.1215   22.1841 O   0  0  0  0  0  0  0  0  0  0  0  0
   11.8332  -16.7060   21.3237 C   0  0  0  0  0  0  0  0  0  0  0  0
   12.0308  -16.7894   22.8144 C   0  0  1  0  0  0  0  0  0  0  0  0
   12.6464  -15.6307   23.3066 O   0  0  0  0  0  0  0  0  0  0  0  0
   10.6925  -16.9863   23.4999 C   0  0  2  0  0  0  0  0  0  0  0  0
    9.8245  -15.8426   23.3481 N   0  0  0  0  0  0  0  0  0  0  0  0
   10.9133  -17.2163   24.9672 C   0  0  0  0  0  0  0  0  0  0  0  0
   10.4911  -16.3844   25.7865 O   0  0  0  0  0  0  0  0  0  0  0  0
   11.5870  -18.3576   25.3906 O   0  0  0  0  0  0  0  0  0  0  0  0
  2  1  1  6
  2  4  1  0
  3  2  1  0
  4  5  1  6
  6  4  1  0
  6  7  2  0
  8  9  1  0
  8  6  1  0
 10 11  1  0
  9 10  1  1
 11 19  1  0
 12 13  1  0
 12 11  2  0
 13 14  1  0
 14 19  2  0
 14 15  1  0
 15 16  2  0
 16 17  1  0
 18 17  2  0
 19 18  1  0
 20  9  1  0
 21 20  2  0
 23 22  1  6
 23 25  1  0
 24 23  1  0
 25 27  1  0
 25 26  1  1
 26 20  1  0
 27 29  1  0
 28 27  2  0
M  END
$$$$
