TWT.pdb
     RDKit          3D

 29 30  0  0  1  0  0  0  0  0999 V2000
    7.0825  -15.0462   17.9435 C   0  0  0  0  0  0  0  0  0  0  0  0
    7.8399  -15.2230   19.2467 C   0  0  1  0  0  0  0  0  0  0  0  0
    9.2001  -15.0019   19.0401 O   0  0  0  0  0  0  0  0  0  0  0  0
    7.3457  -14.2771   20.3225 C   0  0  2  0  0  0  0  0  0  0  0  0
    7.5462  -12.9299   19.8082 N   0  0  0  0  0  0  0  0  0  0  0  0
    8.1536  -14.4277   21.5735 C   0  0  0  0  0  0  0  0  0  0  0  0
    9.1138  -13.6325   21.7871 O   0  0  0  0  0  0  0  0  0  0  0  0
    7.8959  -15.4185   22.5327 N   0  0  0  0  0  0  0  0  0  0  0  0
    8.8615  -15.6388   23.6333 C   0  0  1  0  0  0  0  0  0  0  0  0
    8.0788  -16.0261   24.8433 C   0  0  0  0  0  0  0  0  0  0  0  0
    7.2026  -14.9914   25.3761 C   0  0  0  0  0  0  0  0  0  0  0  0
    5.8135  -15.0986   25.4319 C   0  0  0  0  0  0  0  0  0  0  0  0
    5.3128  -13.9618   25.9328 N   0  0  0  0  0  0  0  0  0  0  0  0
    6.3207  -13.1194   26.2053 C   0  0  0  0  0  0  0  0  0  0  0  0
    6.2649  -11.8481   26.7493 C   0  0  0  0  0  0  0  0  0  0  0  0
    7.4607  -11.1944   26.9553 C   0  0  0  0  0  0  0  0  0  0  0  0
    8.6765  -11.7979   26.6250 C   0  0  0  0  0  0  0  0  0  0  0  0
    8.7015  -13.0587   26.0861 C   0  0  0  0  0  0  0  0  0  0  0  0
    7.5141  -13.7487   25.8635 C   0  0  0  0  0  0  0  0  0  0  0  0
    9.8376  -16.6444   23.2289 C   0  0  0  0  0  0  0  0  0  0  0  0
    9.5111  -17.7292   22.6879 O   0  0  0  0  0  0  0  0  0  0  0  0
   12.7996  -16.4407   20.8920 C   0  0  0  0  0  0  0  0  0  0  0  0
   13.3249  -16.9755   22.1982 C   0  0  1  0  0  0  0  0  0  0  0  0
   14.0096  -15.9817   22.9107 O   0  0  0  0  0  0  0  0  0  0  0  0
   12.1767  -17.5041   23.0360 C   0  0  2  0  0  0  0  0  0  0  0  0
   11.2557  -16.4624   23.4246 N   0  0  0  0  0  0  0  0  0  0  0  0
   12.7209  -18.1386   24.2834 C   0  0  0  0  0  0  0  0  0  0  0  0
   12.3972  -17.6828   25.3921 O   0  0  0  0  0  0  0  0  0  0  0  0
   13.5797  -19.2284   24.1821 O   0  0  0  0  0  0  0  0  0  0  0  0
  2  1  1  6
  2  4  1  0
  3  2  1  0
  4  5  1  6
  6  4  1  0
  6  7  2  0
  8  9  1  0
  8  6  1  0
 10 11  1  0
  9 10  1  1
 11 19  1  0
 12 13  1  0
 12 11  2  0
 13 14  1  0
 14 19  2  0
 14 15  1  0
 15 16  2  0
 16 17  1  0
 18 17  2  0
 19 18  1  0
 20  9  1  0
 21 20  2  0
 23 22  1  6
 23 25  1  0
 24 23  1  0
 25 27  1  0
 25 26  1  1
 26 20  1  0
 27 29  1  0
 28 27  2  0
M  END
$$$$
