TWT.pdb
     RDKit          3D

 29 30  0  0  1  0  0  0  0  0999 V2000
    6.8452  -15.3142   18.0234 C   0  0  0  0  0  0  0  0  0  0  0  0
    7.6849  -15.4669   19.2783 C   0  0  1  0  0  0  0  0  0  0  0  0
    9.0360  -15.3290   18.9663 O   0  0  0  0  0  0  0  0  0  0  0  0
    7.3172  -14.4444   20.3345 C   0  0  2  0  0  0  0  0  0  0  0  0
    7.5594  -13.1368   19.7418 N   0  0  0  0  0  0  0  0  0  0  0  0
    8.1959  -14.5850   21.5380 C   0  0  0  0  0  0  0  0  0  0  0  0
    9.2359  -13.8711   21.6292 O   0  0  0  0  0  0  0  0  0  0  0  0
    7.9201  -15.4798   22.5827 N   0  0  0  0  0  0  0  0  0  0  0  0
    8.8684  -15.5971   23.7138 C   0  0  1  0  0  0  0  0  0  0  0  0
    8.0759  -15.9585   24.9254 C   0  0  0  0  0  0  0  0  0  0  0  0
    7.1412  -14.9399   25.3852 C   0  0  0  0  0  0  0  0  0  0  0  0
    5.7589  -15.1156   25.4350 C   0  0  0  0  0  0  0  0  0  0  0  0
    5.1944  -13.9778   25.8599 N   0  0  0  0  0  0  0  0  0  0  0  0
    6.1543  -13.0690   26.0889 C   0  0  0  0  0  0  0  0  0  0  0  0
    6.0266  -11.7713   26.5526 C   0  0  0  0  0  0  0  0  0  0  0  0
    7.1847  -11.0450   26.7285 C   0  0  0  0  0  0  0  0  0  0  0  0
    8.4338  -11.6035   26.4472 C   0  0  0  0  0  0  0  0  0  0  0  0
    8.5301  -12.8921   25.9877 C   0  0  0  0  0  0  0  0  0  0  0  0
    7.3825  -13.6552   25.7975 C   0  0  0  0  0  0  0  0  0  0  0  0
    9.8995  -16.5746   23.3838 C   0  0  0  0  0  0  0  0  0  0  0  0
    9.6445  -17.6672   22.8205 O   0  0  0  0  0  0  0  0  0  0  0  0
   13.9385  -15.5005   23.0802 C   0  0  0  0  0  0  0  0  0  0  0  0
   13.3629  -16.7182   22.4064 C   0  0  1  0  0  0  0  0  0  0  0  0
   14.3576  -17.6731   22.1561 O   0  0  0  0  0  0  0  0  0  0  0  0
   12.2813  -17.3253   23.2791 C   0  0  2  0  0  0  0  0  0  0  0  0
   11.2935  -16.3536   23.6845 N   0  0  0  0  0  0  0  0  0  0  0  0
   12.9055  -17.9040   24.5161 C   0  0  0  0  0  0  0  0  0  0  0  0
   12.5581  -17.4817   25.6308 O   0  0  0  0  0  0  0  0  0  0  0  0
   13.8641  -18.9054   24.3985 O   0  0  0  0  0  0  0  0  0  0  0  0
  2  1  1  6
  2  4  1  0
  3  2  1  0
  4  5  1  6
  6  4  1  0
  6  7  2  0
  8  9  1  0
  8  6  1  0
 10 11  1  0
  9 10  1  1
 11 19  1  0
 12 13  1  0
 12 11  2  0
 13 14  1  0
 14 19  2  0
 14 15  1  0
 15 16  2  0
 16 17  1  0
 18 17  2  0
 19 18  1  0
 20  9  1  0
 21 20  2  0
 23 22  1  1
 23 25  1  0
 24 23  1  0
 25 27  1  0
 25 26  1  1
 26 20  1  0
 27 29  1  0
 28 27  2  0
M  END
$$$$
