TWT.pdb
     RDKit          3D

 29 30  0  0  1  0  0  0  0  0999 V2000
    6.6517  -15.7630   18.3750 C   0  0  0  0  0  0  0  0  0  0  0  0
    7.5852  -15.8401   19.5691 C   0  0  1  0  0  0  0  0  0  0  0  0
    8.9018  -15.6429   19.1574 O   0  0  0  0  0  0  0  0  0  0  0  0
    7.2407  -14.8098   20.6256 C   0  0  2  0  0  0  0  0  0  0  0  0
    7.3559  -13.5086   19.9827 N   0  0  0  0  0  0  0  0  0  0  0  0
    8.2186  -14.8631   21.7575 C   0  0  0  0  0  0  0  0  0  0  0  0
    9.2287  -14.1022   21.7363 O   0  0  0  0  0  0  0  0  0  0  0  0
    8.0689  -15.7250   22.8542 N   0  0  0  0  0  0  0  0  0  0  0  0
    9.0967  -15.7369   23.9200 C   0  0  1  0  0  0  0  0  0  0  0  0
    8.3953  -15.9816   25.2141 C   0  0  0  0  0  0  0  0  0  0  0  0
    7.3884  -14.9921   25.5739 C   0  0  0  0  0  0  0  0  0  0  0  0
    6.0153  -15.2341   25.5537 C   0  0  0  0  0  0  0  0  0  0  0  0
    5.3738  -14.1086   25.8941 N   0  0  0  0  0  0  0  0  0  0  0  0
    6.2747  -13.1443   26.1352 C   0  0  0  0  0  0  0  0  0  0  0  0
    6.0590  -11.8360   26.5316 C   0  0  0  0  0  0  0  0  0  0  0  0
    7.1693  -11.0461   26.7393 C   0  0  0  0  0  0  0  0  0  0  0  0
    8.4577  -11.5533   26.5544 C   0  0  0  0  0  0  0  0  0  0  0  0
    8.6414  -12.8539   26.1600 C   0  0  0  0  0  0  0  0  0  0  0  0
    7.5442  -13.6805   25.9403 C   0  0  0  0  0  0  0  0  0  0  0  0
   10.1064  -16.7426   23.6096 C   0  0  0  0  0  0  0  0  0  0  0  0
    9.8154  -17.9201   23.2855 O   0  0  0  0  0  0  0  0  0  0  0  0
   12.8436  -16.7097   21.0184 C   0  0  0  0  0  0  0  0  0  0  0  0
   13.5125  -17.0228   22.3309 C   0  0  1  0  0  0  0  0  0  0  0  0
   14.1884  -15.9021   22.8320 O   0  0  0  0  0  0  0  0  0  0  0  0
   12.4773  -17.4862   23.3375 C   0  0  2  0  0  0  0  0  0  0  0  0
   11.5196  -16.4535   23.6549 N   0  0  0  0  0  0  0  0  0  0  0  0
   13.1655  -17.8943   24.6082 C   0  0  0  0  0  0  0  0  0  0  0  0
   12.9390  -17.2660   25.6549 O   0  0  0  0  0  0  0  0  0  0  0  0
   14.0474  -18.9703   24.5975 O   0  0  0  0  0  0  0  0  0  0  0  0
  2  1  1  6
  2  4  1  0
  3  2  1  0
  4  5  1  6
  6  4  1  0
  6  7  2  0
  8  9  1  0
  8  6  1  0
 10 11  1  0
  9 10  1  1
 11 19  1  0
 12 13  1  0
 12 11  2  0
 13 14  1  0
 14 19  2  0
 14 15  1  0
 15 16  2  0
 16 17  1  0
 18 17  2  0
 19 18  1  0
 20  9  1  0
 21 20  2  0
 23 22  1  6
 23 25  1  0
 24 23  1  0
 25 27  1  0
 25 26  1  1
 26 20  1  0
 27 29  1  0
 28 27  2  0
M  END
$$$$
