TWT.pdb
     RDKit          3D

 29 30  0  0  1  0  0  0  0  0999 V2000
    8.7841  -18.7334   17.4225 C   0  0  0  0  0  0  0  0  0  0  0  0
    8.9800  -18.1050   18.7900 C   0  0  1  0  0  0  0  0  0  0  0  0
   10.3391  -18.0264   19.0871 O   0  0  0  0  0  0  0  0  0  0  0  0
    8.3786  -16.7162   18.8671 C   0  0  2  0  0  0  0  0  0  0  0  0
    9.1005  -15.9020   17.8999 N   0  0  0  0  0  0  0  0  0  0  0  0
    8.5836  -16.1239   20.2264 C   0  0  0  0  0  0  0  0  0  0  0  0
    9.5853  -15.3790   20.4299 O   0  0  0  0  0  0  0  0  0  0  0  0
    7.7095  -16.3563   21.2988 N   0  0  0  0  0  0  0  0  0  0  0  0
    8.0440  -15.8292   22.6415 C   0  0  1  0  0  0  0  0  0  0  0  0
    6.7605  -15.6341   23.3771 C   0  0  0  0  0  0  0  0  0  0  0  0
    6.8935  -15.1499   24.7446 C   0  0  0  0  0  0  0  0  0  0  0  0
    6.8977  -15.9765   25.8676 C   0  0  0  0  0  0  0  0  0  0  0  0
    6.9908  -15.2136   26.9645 N   0  0  0  0  0  0  0  0  0  0  0  0
    7.0477  -13.9238   26.6001 C   0  0  0  0  0  0  0  0  0  0  0  0
    7.1663  -12.8012   27.4008 C   0  0  0  0  0  0  0  0  0  0  0  0
    7.2296  -11.5774   26.7699 C   0  0  0  0  0  0  0  0  0  0  0  0
    7.1751  -11.4823   25.3773 C   0  0  0  0  0  0  0  0  0  0  0  0
    7.0562  -12.6120   24.6088 C   0  0  0  0  0  0  0  0  0  0  0  0
    6.9889  -13.8644   25.2109 C   0  0  0  0  0  0  0  0  0  0  0  0
    8.9601  -16.7470   23.3091 C   0  0  0  0  0  0  0  0  0  0  0  0
    8.8006  -17.9923   23.3004 O   0  0  0  0  0  0  0  0  0  0  0  0
   12.4874  -17.2587   22.5030 C   0  0  0  0  0  0  0  0  0  0  0  0
   12.4739  -16.9988   23.9863 C   0  0  1  0  0  0  0  0  0  0  0  0
   12.8750  -15.6866   24.2716 O   0  0  0  0  0  0  0  0  0  0  0  0
   11.0812  -17.2374   24.5372 C   0  0  2  0  0  0  0  0  0  0  0  0
   10.1206  -16.2854   24.0320 N   0  0  0  0  0  0  0  0  0  0  0  0
   11.1113  -17.1243   26.0342 C   0  0  0  0  0  0  0  0  0  0  0  0
   10.3712  -16.3035   26.6000 O   0  0  0  0  0  0  0  0  0  0  0  0
   11.9668  -17.9397   26.7683 O   0  0  0  0  0  0  0  0  0  0  0  0
  2  1  1  6
  2  4  1  0
  3  2  1  0
  4  5  1  6
  6  4  1  0
  6  7  2  0
  8  9  1  0
  8  6  1  0
 10 11  1  0
  9 10  1  1
 11 19  1  0
 12 13  1  0
 12 11  2  0
 13 14  1  0
 14 19  2  0
 14 15  1  0
 15 16  2  0
 16 17  1  0
 18 17  2  0
 19 18  1  0
 20  9  1  0
 21 20  2  0
 23 22  1  6
 23 25  1  0
 24 23  1  0
 25 27  1  0
 25 26  1  6
 26 20  1  0
 27 29  1  0
 28 27  2  0
M  END
$$$$
