TWT.pdb
     RDKit          3D

 29 30  0  0  1  0  0  0  0  0999 V2000
    6.5723  -17.3041   18.9333 C   0  0  0  0  0  0  0  0  0  0  0  0
    7.4744  -17.1205   20.1399 C   0  0  1  0  0  0  0  0  0  0  0  0
    8.8031  -17.0266   19.7307 O   0  0  0  0  0  0  0  0  0  0  0  0
    7.1152  -15.8802   20.9329 C   0  0  2  0  0  0  0  0  0  0  0  0
    7.3040  -14.7499   20.0348 N   0  0  0  0  0  0  0  0  0  0  0  0
    8.0364  -15.7117   22.1006 C   0  0  0  0  0  0  0  0  0  0  0  0
    8.9945  -14.8904   22.0169 O   0  0  0  0  0  0  0  0  0  0  0  0
    7.8882  -16.4277   23.2979 N   0  0  0  0  0  0  0  0  0  0  0  0
    8.8679  -16.2342   24.3911 C   0  0  1  0  0  0  0  0  0  0  0  0
    8.1145  -16.2755   25.6785 C   0  0  0  0  0  0  0  0  0  0  0  0
    7.2349  -15.1401   25.9224 C   0  0  0  0  0  0  0  0  0  0  0  0
    5.8439  -15.2264   25.9651 C   0  0  0  0  0  0  0  0  0  0  0  0
    5.3414  -14.0008   26.1634 N   0  0  0  0  0  0  0  0  0  0  0  0
    6.3500  -13.1206   26.2518 C   0  0  0  0  0  0  0  0  0  0  0  0
    6.2925  -11.7555   26.4715 C   0  0  0  0  0  0  0  0  0  0  0  0
    7.4888  -11.0751   26.5459 C   0  0  0  0  0  0  0  0  0  0  0  0
    8.7069  -11.7442   26.4036 C   0  0  0  0  0  0  0  0  0  0  0  0
    8.7336  -13.0979   26.1855 C   0  0  0  0  0  0  0  0  0  0  0  0
    7.5457  -13.8175   26.1039 C   0  0  0  0  0  0  0  0  0  0  0  0
    9.9085  -17.2519   24.2964 C   0  0  0  0  0  0  0  0  0  0  0  0
    9.6693  -18.4799   24.4009 O   0  0  0  0  0  0  0  0  0  0  0  0
   12.8636  -17.3364   21.6113 C   0  0  0  0  0  0  0  0  0  0  0  0
   13.4050  -17.5729   22.9966 C   0  0  1  0  0  0  0  0  0  0  0  0
   14.0465  -16.4283   23.4891 O   0  0  0  0  0  0  0  0  0  0  0  0
   12.2757  -17.9657   23.9295 C   0  0  2  0  0  0  0  0  0  0  0  0
   11.2946  -16.9166   24.0758 N   0  0  0  0  0  0  0  0  0  0  0  0
   12.8363  -18.2766   25.2874 C   0  0  0  0  0  0  0  0  0  0  0  0
   12.4846  -17.5957   26.2642 O   0  0  0  0  0  0  0  0  0  0  0  0
   13.7416  -19.3227   25.4344 O   0  0  0  0  0  0  0  0  0  0  0  0
  2  1  1  6
  2  4  1  0
  3  2  1  0
  4  5  1  6
  6  4  1  0
  6  7  2  0
  8  9  1  0
  8  6  1  0
 10 11  1  0
  9 10  1  1
 11 19  1  0
 12 13  1  0
 12 11  2  0
 13 14  1  0
 14 19  2  0
 14 15  1  0
 15 16  2  0
 16 17  1  0
 18 17  2  0
 19 18  1  0
 20  9  1  0
 21 20  2  0
 23 22  1  6
 23 25  1  0
 24 23  1  0
 25 27  1  0
 25 26  1  1
 26 20  1  0
 27 29  1  0
 28 27  2  0
M  END
$$$$
