TWT.pdb
     RDKit          3D

 29 30  0  0  1  0  0  0  0  0999 V2000
    8.3717  -21.1767   18.9394 C   0  0  0  0  0  0  0  0  0  0  0  0
    8.7443  -20.0502   19.8856 C   0  0  1  0  0  0  0  0  0  0  0  0
   10.1230  -20.0344   20.0871 O   0  0  0  0  0  0  0  0  0  0  0  0
    8.3090  -18.6984   19.3570 C   0  0  2  0  0  0  0  0  0  0  0  0
    9.0334  -18.4923   18.1110 N   0  0  0  0  0  0  0  0  0  0  0  0
    8.6912  -17.6082   20.3087 C   0  0  0  0  0  0  0  0  0  0  0  0
    9.8157  -17.0435   20.1803 O   0  0  0  0  0  0  0  0  0  0  0  0
    7.8545  -17.1761   21.3485 N   0  0  0  0  0  0  0  0  0  0  0  0
    8.3071  -16.0897   22.2471 C   0  0  1  0  0  0  0  0  0  0  0  0
    7.1141  -15.2558   22.5756 C   0  0  0  0  0  0  0  0  0  0  0  0
    7.3816  -14.0804   23.3936 C   0  0  0  0  0  0  0  0  0  0  0  0
    7.9731  -12.9132   22.9117 C   0  0  0  0  0  0  0  0  0  0  0  0
    8.1152  -12.0508   23.9266 N   0  0  0  0  0  0  0  0  0  0  0  0
    7.6395  -12.6100   25.0493 C   0  0  0  0  0  0  0  0  0  0  0  0
    7.5694  -12.0730   26.3229 C   0  0  0  0  0  0  0  0  0  0  0  0
    7.0060  -12.8538   27.3091 C   0  0  0  0  0  0  0  0  0  0  0  0
    6.5274  -14.1354   27.0265 C   0  0  0  0  0  0  0  0  0  0  0  0
    6.6110  -14.6424   25.7549 C   0  0  0  0  0  0  0  0  0  0  0  0
    7.1740  -13.8832   24.7341 C   0  0  0  0  0  0  0  0  0  0  0  0
    8.9507  -16.6674   23.4216 C   0  0  0  0  0  0  0  0  0  0  0  0
    8.3986  -17.5357   24.1409 O   0  0  0  0  0  0  0  0  0  0  0  0
   12.4132  -18.2621   23.3440 C   0  0  0  0  0  0  0  0  0  0  0  0
   12.3801  -17.3436   24.5370 C   0  0  1  0  0  0  0  0  0  0  0  0
   13.0873  -16.1608   24.2820 O   0  0  0  0  0  0  0  0  0  0  0  0
   10.9432  -17.0124   24.8909 C   0  0  2  0  0  0  0  0  0  0  0  0
   10.2750  -16.2782   23.8426 N   0  0  0  0  0  0  0  0  0  0  0  0
   10.9170  -16.1774   26.1386 C   0  0  0  0  0  0  0  0  0  0  0  0
   10.5086  -15.0063   26.0818 O   0  0  0  0  0  0  0  0  0  0  0  0
   11.3499  -16.7255   27.3419 O   0  0  0  0  0  0  0  0  0  0  0  0
  2  1  1  6
  2  4  1  0
  3  2  1  0
  4  5  1  6
  6  4  1  0
  6  7  2  0
  8  9  1  0
  8  6  1  0
 10 11  1  0
  9 10  1  1
 11 19  1  0
 12 13  1  0
 12 11  2  0
 13 14  1  0
 14 19  2  0
 14 15  1  0
 15 16  2  0
 16 17  1  0
 18 17  2  0
 19 18  1  0
 20  9  1  0
 21 20  2  0
 23 22  1  6
 23 25  1  0
 24 23  1  0
 25 27  1  0
 25 26  1  6
 26 20  1  0
 27 29  1  0
 28 27  2  0
M  END
$$$$
