TWT.pdb
     RDKit          3D

 29 30  0  0  1  0  0  0  0  0999 V2000
    6.0461  -15.4620   19.3918 C   0  0  0  0  0  0  0  0  0  0  0  0
    6.9226  -15.1419   20.5887 C   0  0  1  0  0  0  0  0  0  0  0  0
    6.1450  -15.0730   21.7430 O   0  0  0  0  0  0  0  0  0  0  0  0
    8.0094  -16.1788   20.7891 C   0  0  2  0  0  0  0  0  0  0  0  0
    7.3306  -17.4369   21.0649 N   0  0  0  0  0  0  0  0  0  0  0  0
    8.8599  -15.8344   21.9717 C   0  0  0  0  0  0  0  0  0  0  0  0
    9.6517  -14.8510   21.8966 O   0  0  0  0  0  0  0  0  0  0  0  0
    8.8221  -16.5566   23.1738 N   0  0  0  0  0  0  0  0  0  0  0  0
    9.7069  -16.1597   24.2928 C   0  0  1  0  0  0  0  0  0  0  0  0
    8.9310  -16.3262   25.5564 C   0  0  0  0  0  0  0  0  0  0  0  0
    7.7837  -15.4406   25.7043 C   0  0  0  0  0  0  0  0  0  0  0  0
    6.4608  -15.8408   25.5197 C   0  0  0  0  0  0  0  0  0  0  0  0
    5.6615  -14.7791   25.6870 N   0  0  0  0  0  0  0  0  0  0  0  0
    6.4115  -13.7043   25.9734 C   0  0  0  0  0  0  0  0  0  0  0  0
    6.0040  -12.4087   26.2391 C   0  0  0  0  0  0  0  0  0  0  0  0
    6.9833  -11.4846   26.5331 C   0  0  0  0  0  0  0  0  0  0  0  0
    8.3316  -11.8491   26.5596 C   0  0  0  0  0  0  0  0  0  0  0  0
    8.7066  -13.1406   26.2910 C   0  0  0  0  0  0  0  0  0  0  0  0
    7.7457  -14.1004   25.9896 C   0  0  0  0  0  0  0  0  0  0  0  0
   10.9272  -16.9577   24.2534 C   0  0  0  0  0  0  0  0  0  0  0  0
   10.9240  -18.2094   24.3514 O   0  0  0  0  0  0  0  0  0  0  0  0
   13.6151  -16.8077   21.5459 C   0  0  0  0  0  0  0  0  0  0  0  0
   14.3283  -16.7415   22.8707 C   0  0  1  0  0  0  0  0  0  0  0  0
   14.7730  -15.4399   23.1391 O   0  0  0  0  0  0  0  0  0  0  0  0
   13.3995  -17.2015   23.9778 C   0  0  2  0  0  0  0  0  0  0  0  0
   12.2321  -16.3609   24.0994 N   0  0  0  0  0  0  0  0  0  0  0  0
   14.1342  -17.1764   25.2871 C   0  0  0  0  0  0  0  0  0  0  0  0
   13.7224  -16.4489   26.2051 O   0  0  0  0  0  0  0  0  0  0  0  0
   15.2658  -17.9679   25.4558 O   0  0  0  0  0  0  0  0  0  0  0  0
  2  1  1  6
  2  4  1  0
  3  2  1  0
  4  5  1  1
  6  4  1  0
  6  7  2  0
  8  9  1  0
  8  6  1  0
 10 11  1  0
  9 10  1  1
 11 19  1  0
 12 13  1  0
 12 11  2  0
 13 14  1  0
 14 19  2  0
 14 15  1  0
 15 16  2  0
 16 17  1  0
 18 17  2  0
 19 18  1  0
 20  9  1  0
 21 20  2  0
 23 22  1  6
 23 25  1  0
 24 23  1  0
 25 27  1  0
 25 26  1  1
 26 20  1  0
 27 29  1  0
 28 27  2  0
M  END
$$$$
