TWT.pdb
     RDKit          3D

 29 30  0  0  1  0  0  0  0  0999 V2000
    6.6524  -17.1116   18.7423 C   0  0  0  0  0  0  0  0  0  0  0  0
    7.6320  -16.8666   19.8753 C   0  0  1  0  0  0  0  0  0  0  0  0
    8.8895  -16.5600   19.3590 O   0  0  0  0  0  0  0  0  0  0  0  0
    7.1825  -15.7363   20.7790 C   0  0  2  0  0  0  0  0  0  0  0  0
    7.1104  -14.5464   19.9431 N   0  0  0  0  0  0  0  0  0  0  0  0
    8.1871  -15.4905   21.8610 C   0  0  0  0  0  0  0  0  0  0  0  0
    9.0091  -14.5375   21.7345 O   0  0  0  0  0  0  0  0  0  0  0  0
    8.2634  -16.2735   23.0225 N   0  0  0  0  0  0  0  0  0  0  0  0
    9.2993  -15.9757   24.0378 C   0  0  1  0  0  0  0  0  0  0  0  0
    8.6695  -16.1418   25.3804 C   0  0  0  0  0  0  0  0  0  0  0  0
    7.6052  -15.1967   25.6906 C   0  0  0  0  0  0  0  0  0  0  0  0
    6.2490  -15.5205   25.6859 C   0  0  0  0  0  0  0  0  0  0  0  0
    5.5414  -14.4191   25.9690 N   0  0  0  0  0  0  0  0  0  0  0  0
    6.3831  -13.3917   26.1580 C   0  0  0  0  0  0  0  0  0  0  0  0
    6.0897  -12.0798   26.4866 C   0  0  0  0  0  0  0  0  0  0  0  0
    7.1508  -11.2156   26.6507 C   0  0  0  0  0  0  0  0  0  0  0  0
    8.4673  -11.6542   26.4895 C   0  0  0  0  0  0  0  0  0  0  0  0
    8.7283  -12.9603   26.1625 C   0  0  0  0  0  0  0  0  0  0  0  0
    7.6824  -13.8609   25.9883 C   0  0  0  0  0  0  0  0  0  0  0  0
   10.4505  -16.8461   23.8267 C   0  0  0  0  0  0  0  0  0  0  0  0
   10.3390  -18.0707   23.5735 O   0  0  0  0  0  0  0  0  0  0  0  0
   13.1021  -16.4427   21.2632 C   0  0  0  0  0  0  0  0  0  0  0  0
   13.8456  -16.6626   22.5543 C   0  0  1  0  0  0  0  0  0  0  0  0
   14.3944  -15.4641   23.0302 O   0  0  0  0  0  0  0  0  0  0  0  0
   12.9075  -17.2426   23.5951 C   0  0  2  0  0  0  0  0  0  0  0  0
   11.8068  -16.3581   23.8957 N   0  0  0  0  0  0  0  0  0  0  0  0
   13.6673  -17.4946   24.8656 C   0  0  0  0  0  0  0  0  0  0  0  0
   13.3212  -16.9179   25.9092 O   0  0  0  0  0  0  0  0  0  0  0  0
   14.7482  -18.3705   24.8581 O   0  0  0  0  0  0  0  0  0  0  0  0
  2  1  1  6
  2  4  1  0
  3  2  1  0
  4  5  1  6
  6  4  1  0
  6  7  2  0
  8  9  1  0
  8  6  1  0
 10 11  1  0
  9 10  1  1
 11 19  1  0
 12 13  1  0
 12 11  2  0
 13 14  1  0
 14 19  2  0
 14 15  1  0
 15 16  2  0
 16 17  1  0
 18 17  2  0
 19 18  1  0
 20  9  1  0
 21 20  2  0
 23 22  1  6
 23 25  1  0
 24 23  1  0
 25 27  1  0
 25 26  1  1
 26 20  1  0
 27 29  1  0
 28 27  2  0
M  END
$$$$
