TWT.pdb
     RDKit          3D

 29 30  0  0  1  0  0  0  0  0999 V2000
    6.5651  -17.0849   18.7444 C   0  0  0  0  0  0  0  0  0  0  0  0
    7.4741  -16.8940   19.9446 C   0  0  1  0  0  0  0  0  0  0  0  0
    8.7826  -16.6721   19.5199 O   0  0  0  0  0  0  0  0  0  0  0  0
    7.0339  -15.7305   20.8099 C   0  0  2  0  0  0  0  0  0  0  0  0
    7.1031  -14.5442   19.9688 N   0  0  0  0  0  0  0  0  0  0  0  0
    7.9688  -15.5438   21.9638 C   0  0  0  0  0  0  0  0  0  0  0  0
    8.8114  -14.6012   21.9286 O   0  0  0  0  0  0  0  0  0  0  0  0
    7.9570  -16.3719   23.0961 N   0  0  0  0  0  0  0  0  0  0  0  0
    8.9234  -16.1268   24.1908 C   0  0  1  0  0  0  0  0  0  0  0  0
    8.1678  -16.1896   25.4760 C   0  0  0  0  0  0  0  0  0  0  0  0
    7.2536  -15.0811   25.7162 C   0  0  0  0  0  0  0  0  0  0  0  0
    5.8644  -15.1928   25.6737 C   0  0  0  0  0  0  0  0  0  0  0  0
    5.3275  -13.9858   25.8943 N   0  0  0  0  0  0  0  0  0  0  0  0
    6.3119  -13.0933   26.0791 C   0  0  0  0  0  0  0  0  0  0  0  0
    6.2151  -11.7402   26.3531 C   0  0  0  0  0  0  0  0  0  0  0  0
    7.3917  -11.0436   26.5263 C   0  0  0  0  0  0  0  0  0  0  0  0
    8.6287  -11.6849   26.4272 C   0  0  0  0  0  0  0  0  0  0  0  0
    8.6944  -13.0272   26.1535 C   0  0  0  0  0  0  0  0  0  0  0  0
    7.5275  -13.7626   25.9719 C   0  0  0  0  0  0  0  0  0  0  0  0
   10.0074  -17.0991   24.1084 C   0  0  0  0  0  0  0  0  0  0  0  0
    9.8111  -18.3390   24.1297 O   0  0  0  0  0  0  0  0  0  0  0  0
   12.9280  -17.2291   21.5198 C   0  0  0  0  0  0  0  0  0  0  0  0
   13.5073  -17.3174   22.9072 C   0  0  1  0  0  0  0  0  0  0  0  0
   14.0797  -16.0976   23.2927 O   0  0  0  0  0  0  0  0  0  0  0  0
   12.4227  -17.7059   23.8932 C   0  0  2  0  0  0  0  0  0  0  0  0
   11.3904  -16.7020   23.9974 N   0  0  0  0  0  0  0  0  0  0  0  0
   13.0304  -17.8968   25.2530 C   0  0  0  0  0  0  0  0  0  0  0  0
   12.6991  -17.1424   26.1818 O   0  0  0  0  0  0  0  0  0  0  0  0
   13.9560  -18.9155   25.4556 O   0  0  0  0  0  0  0  0  0  0  0  0
  2  1  1  6
  2  4  1  0
  3  2  1  0
  4  5  1  6
  6  4  1  0
  6  7  2  0
  8  9  1  0
  8  6  1  0
 10 11  1  0
  9 10  1  1
 11 19  1  0
 12 13  1  0
 12 11  2  0
 13 14  1  0
 14 19  2  0
 14 15  1  0
 15 16  2  0
 16 17  1  0
 18 17  2  0
 19 18  1  0
 20  9  1  0
 21 20  2  0
 23 22  1  6
 23 25  1  0
 24 23  1  0
 25 27  1  0
 25 26  1  1
 26 20  1  0
 27 29  1  0
 28 27  2  0
M  END
$$$$
