TWT.pdb
     RDKit          3D

 29 30  0  0  1  0  0  0  0  0999 V2000
    6.6386  -18.2611   19.0618 C   0  0  0  0  0  0  0  0  0  0  0  0
    7.6490  -17.7891   20.0911 C   0  0  1  0  0  0  0  0  0  0  0  0
    8.8967  -17.6250   19.4926 O   0  0  0  0  0  0  0  0  0  0  0  0
    7.2354  -16.4802   20.7329 C   0  0  2  0  0  0  0  0  0  0  0  0
    7.2417  -15.4830   19.6721 N   0  0  0  0  0  0  0  0  0  0  0  0
    8.2257  -16.0640   21.7752 C   0  0  0  0  0  0  0  0  0  0  0  0
    9.1474  -15.2561   21.4627 O   0  0  0  0  0  0  0  0  0  0  0  0
    8.1822  -16.5306   23.0975 N   0  0  0  0  0  0  0  0  0  0  0  0
    9.2066  -16.0782   24.0661 C   0  0  1  0  0  0  0  0  0  0  0  0
    8.5909  -16.1304   25.4244 C   0  0  0  0  0  0  0  0  0  0  0  0
    7.4863  -15.2062   25.6437 C   0  0  0  0  0  0  0  0  0  0  0  0
    6.1421  -15.5521   25.5110 C   0  0  0  0  0  0  0  0  0  0  0  0
    5.3925  -14.4655   25.7377 N   0  0  0  0  0  0  0  0  0  0  0  0
    6.1954  -13.4266   26.0129 C   0  0  0  0  0  0  0  0  0  0  0  0
    5.8503  -12.1232   26.3251 C   0  0  0  0  0  0  0  0  0  0  0  0
    6.8767  -11.2436   26.5943 C   0  0  0  0  0  0  0  0  0  0  0  0
    8.2098  -11.6589   26.5512 C   0  0  0  0  0  0  0  0  0  0  0  0
    8.5224  -12.9569   26.2378 C   0  0  0  0  0  0  0  0  0  0  0  0
    7.5127  -13.8726   25.9596 C   0  0  0  0  0  0  0  0  0  0  0  0
   10.3974  -16.9106   23.9380 C   0  0  0  0  0  0  0  0  0  0  0  0
   10.3645  -18.1623   24.0296 O   0  0  0  0  0  0  0  0  0  0  0  0
   14.3428  -15.3196   23.0142 C   0  0  0  0  0  0  0  0  0  0  0  0
   13.8336  -16.6398   22.4986 C   0  0  1  0  0  0  0  0  0  0  0  0
   14.8861  -17.5444   22.3037 O   0  0  0  0  0  0  0  0  0  0  0  0
   12.8344  -17.2234   23.4788 C   0  0  2  0  0  0  0  0  0  0  0  0
   11.7053  -16.3505   23.6966 N   0  0  0  0  0  0  0  0  0  0  0  0
   13.5096  -17.4556   24.7997 C   0  0  0  0  0  0  0  0  0  0  0  0
   14.4871  -18.2188   24.8606 O   0  0  0  0  0  0  0  0  0  0  0  0
   13.0326  -16.8134   25.9380 O   0  0  0  0  0  0  0  0  0  0  0  0
  2  1  1  6
  2  4  1  0
  3  2  1  0
  4  5  1  6
  6  4  1  0
  6  7  2  0
  8  9  1  0
  8  6  1  0
 10 11  1  0
  9 10  1  1
 11 19  1  0
 12 13  1  0
 12 11  2  0
 13 14  1  0
 14 19  2  0
 14 15  1  0
 15 16  2  0
 16 17  1  0
 18 17  2  0
 19 18  1  0
 20  9  1  0
 21 20  2  0
 23 22  1  1
 23 25  1  0
 24 23  1  0
 25 27  1  0
 25 26  1  1
 26 20  1  0
 27 29  1  0
 28 27  2  0
M  END
$$$$
