TWT.pdb
     RDKit          3D

 29 30  0  0  1  0  0  0  0  0999 V2000
    6.6681  -15.9991   18.6319 C   0  0  0  0  0  0  0  0  0  0  0  0
    7.5877  -16.0194   19.8390 C   0  0  1  0  0  0  0  0  0  0  0  0
    8.9105  -15.8574   19.4321 O   0  0  0  0  0  0  0  0  0  0  0  0
    7.2421  -14.9295   20.8335 C   0  0  2  0  0  0  0  0  0  0  0  0
    7.3490  -13.6684   20.1138 N   0  0  0  0  0  0  0  0  0  0  0  0
    8.2240  -14.9109   21.9630 C   0  0  0  0  0  0  0  0  0  0  0  0
    9.2010  -14.1089   21.9178 O   0  0  0  0  0  0  0  0  0  0  0  0
    8.1134  -15.7484   23.0830 N   0  0  0  0  0  0  0  0  0  0  0  0
    9.1428  -15.6875   24.1455 C   0  0  1  0  0  0  0  0  0  0  0  0
    8.4463  -15.8668   25.4529 C   0  0  0  0  0  0  0  0  0  0  0  0
    7.4226  -14.8752   25.7547 C   0  0  0  0  0  0  0  0  0  0  0  0
    6.0529  -15.1342   25.7232 C   0  0  0  0  0  0  0  0  0  0  0  0
    5.3933  -14.0032   26.0056 N   0  0  0  0  0  0  0  0  0  0  0  0
    6.2792  -13.0188   26.2199 C   0  0  0  0  0  0  0  0  0  0  0  0
    6.0424  -11.6977   26.5571 C   0  0  0  0  0  0  0  0  0  0  0  0
    7.1402  -10.8865   26.7486 C   0  0  0  0  0  0  0  0  0  0  0  0
    8.4370  -11.3856   26.6055 C   0  0  0  0  0  0  0  0  0  0  0  0
    8.6418  -12.6993   26.2694 C   0  0  0  0  0  0  0  0  0  0  0  0
    7.5577  -13.5476   26.0677 C   0  0  0  0  0  0  0  0  0  0  0  0
   10.1642  -16.6971   23.8905 C   0  0  0  0  0  0  0  0  0  0  0  0
    9.8873  -17.8962   23.6424 O   0  0  0  0  0  0  0  0  0  0  0  0
   13.0142  -16.5199   21.3594 C   0  0  0  0  0  0  0  0  0  0  0  0
   13.6269  -16.9375   22.6703 C   0  0  1  0  0  0  0  0  0  0  0  0
   14.3292  -15.8770   23.2587 O   0  0  0  0  0  0  0  0  0  0  0  0
   12.5419  -17.4171   23.6150 C   0  0  2  0  0  0  0  0  0  0  0  0
   11.5735  -16.3869   23.9068 N   0  0  0  0  0  0  0  0  0  0  0  0
   13.1656  -17.8548   24.9089 C   0  0  0  0  0  0  0  0  0  0  0  0
   12.8825  -17.2538   25.9578 O   0  0  0  0  0  0  0  0  0  0  0  0
   14.0516  -18.9274   24.9169 O   0  0  0  0  0  0  0  0  0  0  0  0
  2  1  1  6
  2  4  1  0
  3  2  1  0
  4  5  1  6
  6  4  1  0
  6  7  2  0
  8  9  1  0
  8  6  1  0
 10 11  1  0
  9 10  1  1
 11 19  1  0
 12 13  1  0
 12 11  2  0
 13 14  1  0
 14 19  2  0
 14 15  1  0
 15 16  2  0
 16 17  1  0
 18 17  2  0
 19 18  1  0
 20  9  1  0
 21 20  2  0
 23 22  1  6
 23 25  1  0
 24 23  1  0
 25 27  1  0
 25 26  1  1
 26 20  1  0
 27 29  1  0
 28 27  2  0
M  END
$$$$
