TWT.pdb
     RDKit          3D

 29 30  0  0  1  0  0  0  0  0999 V2000
    6.7777  -15.2609   18.4165 C   0  0  0  0  0  0  0  0  0  0  0  0
    7.6949  -15.4216   19.6149 C   0  0  1  0  0  0  0  0  0  0  0  0
    9.0184  -15.2124   19.2326 O   0  0  0  0  0  0  0  0  0  0  0  0
    7.3463  -14.4555   20.7292 C   0  0  2  0  0  0  0  0  0  0  0  0
    7.4963  -13.1178   20.1744 N   0  0  0  0  0  0  0  0  0  0  0  0
    8.2999  -14.5993   21.8739 C   0  0  0  0  0  0  0  0  0  0  0  0
    9.2092  -13.7344   22.0315 O   0  0  0  0  0  0  0  0  0  0  0  0
    8.2348  -15.6581   22.7918 N   0  0  0  0  0  0  0  0  0  0  0  0
    9.1670  -15.6867   23.9419 C   0  0  1  0  0  0  0  0  0  0  0  0
    8.3651  -16.0063   25.1590 C   0  0  0  0  0  0  0  0  0  0  0  0
    7.3178  -15.0475   25.4847 C   0  0  0  0  0  0  0  0  0  0  0  0
    5.9542  -15.3073   25.3524 C   0  0  0  0  0  0  0  0  0  0  0  0
    5.2704  -14.2067   25.6917 N   0  0  0  0  0  0  0  0  0  0  0  0
    6.1346  -13.2414   26.0397 C   0  0  0  0  0  0  0  0  0  0  0  0
    5.8682  -11.9547   26.4741 C   0  0  0  0  0  0  0  0  0  0  0  0
    6.9466  -11.1594   26.7968 C   0  0  0  0  0  0  0  0  0  0  0  0
    8.2535  -11.6402   26.6867 C   0  0  0  0  0  0  0  0  0  0  0  0
    8.4878  -12.9197   26.2522 C   0  0  0  0  0  0  0  0  0  0  0  0
    7.4239  -13.7511   25.9169 C   0  0  0  0  0  0  0  0  0  0  0  0
   10.2313  -16.6492   23.6805 C   0  0  0  0  0  0  0  0  0  0  0  0
   10.0186  -17.7739   23.1646 O   0  0  0  0  0  0  0  0  0  0  0  0
   13.3513  -16.2203   21.6048 C   0  0  0  0  0  0  0  0  0  0  0  0
   13.8048  -16.7340   22.9459 C   0  0  1  0  0  0  0  0  0  0  0  0
   14.3615  -15.7052   23.7176 O   0  0  0  0  0  0  0  0  0  0  0  0
   12.6312  -17.3478   23.6846 C   0  0  2  0  0  0  0  0  0  0  0  0
   11.6117  -16.3753   23.9997 N   0  0  0  0  0  0  0  0  0  0  0  0
   13.1141  -17.9547   24.9704 C   0  0  0  0  0  0  0  0  0  0  0  0
   12.6920  -17.5127   26.0512 O   0  0  0  0  0  0  0  0  0  0  0  0
   14.0271  -19.0039   24.9353 O   0  0  0  0  0  0  0  0  0  0  0  0
  2  1  1  6
  2  4  1  0
  3  2  1  0
  4  5  1  6
  6  4  1  0
  6  7  2  0
  8  9  1  0
  8  6  1  0
 10 11  1  0
  9 10  1  1
 11 19  1  0
 12 13  1  0
 12 11  2  0
 13 14  1  0
 14 19  2  0
 14 15  1  0
 15 16  2  0
 16 17  1  0
 18 17  2  0
 19 18  1  0
 20  9  1  0
 21 20  2  0
 23 22  1  6
 23 25  1  0
 24 23  1  0
 25 27  1  0
 25 26  1  1
 26 20  1  0
 27 29  1  0
 28 27  2  0
M  END
$$$$
