STR.pdb
     RDKit          3D

 25 24  0  0  1  0  0  0  0  0999 V2000
   24.4188  -14.8819  -20.3515 O   0  0  0  0  0  0  0  0  0  0  0  0
   24.2509  -13.8875  -19.4221 C   0  0  0  0  0  0  0  0  0  0  0  0
   25.4332  -13.8609  -18.4844 C   0  0  2  0  0  0  0  0  0  0  0  0
   25.8030  -15.2245  -18.0842 N   0  0  0  0  0  0  0  0  0  0  0  0
   25.1740  -13.1127  -17.2284 C   0  0  0  0  0  0  0  0  0  0  0  0
   24.6694  -13.6786  -16.1954 O   0  0  0  0  0  0  0  0  0  0  0  0
   27.4955  -10.7575  -15.3151 C   0  0  0  0  0  0  0  0  0  0  0  0
   26.2249   -9.9858  -15.6120 C   0  0  1  0  0  0  0  0  0  0  0  0
   26.4504   -9.2274  -16.7472 O   0  0  0  0  0  0  0  0  0  0  0  0
   25.1244  -11.0080  -15.8175 C   0  0  2  0  0  0  0  0  0  0  0  0
   25.4567  -11.7252  -17.0575 N   0  0  0  0  0  0  0  0  0  0  0  0
   23.8636  -10.2620  -16.0951 C   0  0  0  0  0  0  0  0  0  0  0  0
   23.5222   -9.9122  -17.2692 O   0  0  0  0  0  0  0  0  0  0  0  0
   15.8790   -9.6001  -12.0095 N   0  0  0  0  0  0  0  0  0  0  0  0
   15.7866   -9.0740  -13.3191 C   0  0  0  0  0  0  0  0  0  0  0  0
   14.6255   -8.8331  -13.8109 N   0  0  0  0  0  0  0  0  0  0  0  0
   16.9676   -8.8232  -14.0620 N   0  0  0  0  0  0  0  0  0  0  0  0
   18.2341   -9.4299  -13.7323 C   0  0  0  0  0  0  0  0  0  0  0  0
   19.3135   -8.9695  -14.6692 C   0  0  0  0  0  0  0  0  0  0  0  0
   20.6294   -9.6363  -14.4623 C   0  0  0  0  0  0  0  0  0  0  0  0
   21.7473   -9.1194  -15.3349 C   0  0  2  0  0  0  0  0  0  0  0  0
   22.9500   -9.8878  -15.0598 N   0  0  0  0  0  0  0  0  0  0  0  0
   21.9505   -7.7047  -14.9047 C   0  0  0  0  0  0  0  0  0  0  0  0
   22.8559   -7.3639  -14.1125 O   0  0  0  0  0  0  0  0  0  0  0  0
   21.0885   -6.7496  -15.4175 O   0  0  0  0  0  0  0  0  0  0  0  0
  2  1  1  0
  2  3  1  0
  3  4  1  1
  5  6  2  0
  5  3  1  0
  8  7  1  6
  8 10  1  0
  9  8  1  0
 10 12  1  0
 10 11  1  6
 11  5  1  0
 12 13  2  0
 15 14  1  0
 16 15  2  0
 17 15  1  0
 18 19  1  0
 18 17  1  0
 20 19  1  0
 21 20  1  1
 22 12  1  0
 22 21  1  0
 23 25  1  0
 23 21  1  0
 24 23  2  0
M  END
$$$$
