STR.pdb
     RDKit          3D

 25 24  0  0  1  0  0  0  0  0999 V2000
   22.2393  -15.1857  -19.4220 O   0  0  0  0  0  0  0  0  0  0  0  0
   22.9266  -14.0193  -19.2031 C   0  0  0  0  0  0  0  0  0  0  0  0
   24.0266  -14.2567  -18.1973 C   0  0  2  0  0  0  0  0  0  0  0  0
   23.8876  -15.5851  -17.5871 N   0  0  0  0  0  0  0  0  0  0  0  0
   24.0242  -13.2807  -17.0783 C   0  0  0  0  0  0  0  0  0  0  0  0
   23.3491  -13.4804  -16.0076 O   0  0  0  0  0  0  0  0  0  0  0  0
   27.0842  -11.4290  -15.6822 C   0  0  0  0  0  0  0  0  0  0  0  0
   26.0247  -10.3800  -15.9561 C   0  0  1  0  0  0  0  0  0  0  0  0
   26.3216   -9.7917  -17.1730 O   0  0  0  0  0  0  0  0  0  0  0  0
   24.6887  -11.0960  -15.9789 C   0  0  2  0  0  0  0  0  0  0  0  0
   24.7571  -12.0572  -17.0898 N   0  0  0  0  0  0  0  0  0  0  0  0
   23.6491  -10.0968  -16.3585 C   0  0  0  0  0  0  0  0  0  0  0  0
   23.1805  -10.0144  -17.5379 O   0  0  0  0  0  0  0  0  0  0  0  0
   16.0003  -10.6701  -16.6549 N   0  0  0  0  0  0  0  0  0  0  0  0
   17.0166  -10.8823  -15.6947 C   0  0  0  0  0  0  0  0  0  0  0  0
   16.8675  -11.8187  -14.8293 N   0  0  0  0  0  0  0  0  0  0  0  0
   18.1745  -10.0644  -15.7026 N   0  0  0  0  0  0  0  0  0  0  0  0
   18.3385   -8.9622  -16.6186 C   0  0  0  0  0  0  0  0  0  0  0  0
   19.5771   -8.1752  -16.3001 C   0  0  0  0  0  0  0  0  0  0  0  0
   20.7869   -9.0093  -16.0563 C   0  0  0  0  0  0  0  0  0  0  0  0
   22.0516   -8.2304  -15.7874 C   0  0  2  0  0  0  0  0  0  0  0  0
   23.1064   -9.1613  -15.4222 N   0  0  0  0  0  0  0  0  0  0  0  0
   21.7281   -7.3603  -14.6187 C   0  0  0  0  0  0  0  0  0  0  0  0
   22.0693   -7.6459  -13.4501 O   0  0  0  0  0  0  0  0  0  0  0  0
   21.0209   -6.1951  -14.8644 O   0  0  0  0  0  0  0  0  0  0  0  0
  2  1  1  0
  2  3  1  0
  3  4  1  1
  5  6  2  0
  5  3  1  0
  8  7  1  6
  8 10  1  0
  9  8  1  0
 10 12  1  0
 10 11  1  6
 11  5  1  0
 12 13  2  0
 15 14  1  0
 16 15  2  0
 17 15  1  0
 18 19  1  0
 18 17  1  0
 20 19  1  0
 21 20  1  1
 22 12  1  0
 22 21  1  0
 23 25  1  0
 23 21  1  0
 24 23  2  0
M  END
$$$$
