STR.pdb
     RDKit          3D

 25 24  0  0  1  0  0  0  0  0999 V2000
   21.5875  -20.6318  -15.9383 O   0  0  0  0  0  0  0  0  0  0  0  0
   21.7125  -19.2697  -15.8406 C   0  0  0  0  0  0  0  0  0  0  0  0
   23.1721  -18.8967  -15.7492 C   0  0  2  0  0  0  0  0  0  0  0  0
   23.8542  -19.7296  -14.7506 N   0  0  0  0  0  0  0  0  0  0  0  0
   23.3969  -17.4868  -15.3411 C   0  0  0  0  0  0  0  0  0  0  0  0
   23.2115  -17.0935  -14.1357 O   0  0  0  0  0  0  0  0  0  0  0  0
   26.3518  -15.5857  -15.0063 C   0  0  0  0  0  0  0  0  0  0  0  0
   25.5601  -14.8237  -16.0505 C   0  0  1  0  0  0  0  0  0  0  0  0
   25.9488  -15.2898  -17.2942 O   0  0  0  0  0  0  0  0  0  0  0  0
   24.0933  -15.0889  -15.7742 C   0  0  2  0  0  0  0  0  0  0  0  0
   23.8310  -16.4614  -16.2323 N   0  0  0  0  0  0  0  0  0  0  0  0
   23.2990  -14.1953  -16.6652 C   0  0  0  0  0  0  0  0  0  0  0  0
   22.8841  -14.5660  -17.8088 O   0  0  0  0  0  0  0  0  0  0  0  0
   15.9432  -11.0977  -15.9650 N   0  0  0  0  0  0  0  0  0  0  0  0
   16.4638  -12.1772  -15.2142 C   0  0  0  0  0  0  0  0  0  0  0  0
   15.6511  -13.0414  -14.7237 N   0  0  0  0  0  0  0  0  0  0  0  0
   17.8633  -12.2872  -15.0166 N   0  0  0  0  0  0  0  0  0  0  0  0
   18.8102  -11.4278  -15.6841 C   0  0  0  0  0  0  0  0  0  0  0  0
   20.2204  -11.8741  -15.4253 C   0  0  0  0  0  0  0  0  0  0  0  0
   21.2479  -11.1529  -16.2271 C   0  0  0  0  0  0  0  0  0  0  0  0
   22.0859  -12.0319  -17.1234 C   0  0  2  0  0  0  0  0  0  0  0  0
   22.9482  -12.8587  -16.2954 N   0  0  0  0  0  0  0  0  0  0  0  0
   22.9197  -11.0860  -17.9220 C   0  0  0  0  0  0  0  0  0  0  0  0
   24.1468  -10.9412  -17.7301 O   0  0  0  0  0  0  0  0  0  0  0  0
   22.2855  -10.3503  -18.9092 O   0  0  0  0  0  0  0  0  0  0  0  0
  2  1  1  0
  2  3  1  0
  3  4  1  1
  5  6  2  0
  5  3  1  0
  8  7  1  1
  8 10  1  0
  9  8  1  0
 10 12  1  0
 10 11  1  6
 11  5  1  0
 12 13  2  0
 15 14  1  0
 16 15  2  0
 17 15  1  0
 18 19  1  0
 18 17  1  0
 20 19  1  0
 21 20  1  1
 22 12  1  0
 22 21  1  0
 23 25  1  0
 23 21  1  0
 24 23  2  0
M  END
$$$$
