STR.pdb
     RDKit          3D

 25 24  0  0  1  0  0  0  0  0999 V2000
   20.4460  -19.8325  -11.9289 O   0  0  0  0  0  0  0  0  0  0  0  0
   21.2700  -19.6966  -13.0167 C   0  0  0  0  0  0  0  0  0  0  0  0
   20.5329  -20.1048  -14.2689 C   0  0  2  0  0  0  0  0  0  0  0  0
   20.1051  -21.5067  -14.1800 N   0  0  0  0  0  0  0  0  0  0  0  0
   21.3556  -19.9963  -15.5002 C   0  0  0  0  0  0  0  0  0  0  0  0
   21.4056  -20.9397  -16.3659 O   0  0  0  0  0  0  0  0  0  0  0  0
   21.9810  -16.5403  -17.1669 C   0  0  0  0  0  0  0  0  0  0  0  0
   22.2004  -17.8060  -17.9718 C   0  0  1  0  0  0  0  0  0  0  0  0
   22.9456  -17.4691  -19.0881 O   0  0  0  0  0  0  0  0  0  0  0  0
   22.9309  -18.7821  -17.0709 C   0  0  2  0  0  0  0  0  0  0  0  0
   22.1490  -18.8572  -15.8277 N   0  0  0  0  0  0  0  0  0  0  0  0
   24.2368  -18.1637  -16.7028 C   0  0  0  0  0  0  0  0  0  0  0  0
   24.3319  -17.2309  -15.8437 O   0  0  0  0  0  0  0  0  0  0  0  0
   24.3795  -21.5968  -13.7905 N   0  0  0  0  0  0  0  0  0  0  0  0
   25.5095  -22.4469  -13.8166 C   0  0  0  0  0  0  0  0  0  0  0  0
   25.3300  -23.7169  -13.8714 N   0  0  0  0  0  0  0  0  0  0  0  0
   26.8119  -21.8880  -13.7818 N   0  0  0  0  0  0  0  0  0  0  0  0
   27.0496  -20.4694  -13.8907 C   0  0  0  0  0  0  0  0  0  0  0  0
   26.8345  -19.9923  -15.2982 C   0  0  0  0  0  0  0  0  0  0  0  0
   27.0809  -18.5366  -15.4957 C   0  0  0  0  0  0  0  0  0  0  0  0
   26.7490  -18.0177  -16.8738 C   0  0  2  0  0  0  0  0  0  0  0  0
   25.4738  -18.5770  -17.2905 N   0  0  0  0  0  0  0  0  0  0  0  0
   27.8343  -18.5405  -17.7550 C   0  0  0  0  0  0  0  0  0  0  0  0
   29.0188  -18.1487  -17.6713 O   0  0  0  0  0  0  0  0  0  0  0  0
   27.4903  -19.4974  -18.6953 O   0  0  0  0  0  0  0  0  0  0  0  0
  2  1  1  0
  2  3  1  0
  3  4  1  1
  5  6  2  0
  5  3  1  0
  8  7  1  1
  8 10  1  0
  9  8  1  0
 10 12  1  0
 10 11  1  1
 11  5  1  0
 12 13  2  0
 15 14  1  0
 16 15  2  0
 17 15  1  0
 18 19  1  0
 18 17  1  0
 20 19  1  0
 21 20  1  1
 22 12  1  0
 22 21  1  0
 23 25  1  0
 23 21  1  0
 24 23  2  0
M  END
$$$$
