STR.pdb
     RDKit          3D

 25 24  0  0  1  0  0  0  0  0999 V2000
   29.7097  -21.5648   -9.5275 O   0  0  0  0  0  0  0  0  0  0  0  0
   29.5900  -22.2893  -10.6857 C   0  0  0  0  0  0  0  0  0  0  0  0
   29.7365  -21.3743  -11.8771 C   0  0  2  0  0  0  0  0  0  0  0  0
   30.8020  -20.3914  -11.6427 N   0  0  0  0  0  0  0  0  0  0  0  0
   28.5086  -20.5956  -12.1781 C   0  0  0  0  0  0  0  0  0  0  0  0
   28.2238  -19.5131  -11.5543 O   0  0  0  0  0  0  0  0  0  0  0  0
   27.5262  -18.7114  -14.9196 C   0  0  0  0  0  0  0  0  0  0  0  0
   26.3958  -19.7182  -14.8406 C   0  0  1  0  0  0  0  0  0  0  0  0
   26.6896  -20.7483  -15.7167 O   0  0  0  0  0  0  0  0  0  0  0  0
   26.3265  -20.1938  -13.4029 C   0  0  2  0  0  0  0  0  0  0  0  0
   27.5528  -20.9707  -13.1680 N   0  0  0  0  0  0  0  0  0  0  0  0
   25.1968  -21.1617  -13.3030 C   0  0  0  0  0  0  0  0  0  0  0  0
   25.3701  -22.4205  -13.3563 O   0  0  0  0  0  0  0  0  0  0  0  0
   19.2349  -23.2269   -9.2562 N   0  0  0  0  0  0  0  0  0  0  0  0
   18.1405  -23.1056  -10.1438 C   0  0  0  0  0  0  0  0  0  0  0  0
   17.1340  -23.8892   -9.9992 N   0  0  0  0  0  0  0  0  0  0  0  0
   18.1719  -22.1289  -11.1709 N   0  0  0  0  0  0  0  0  0  0  0  0
   19.2838  -21.2275  -11.3494 C   0  0  0  0  0  0  0  0  0  0  0  0
   20.3956  -21.8862  -12.1143 C   0  0  0  0  0  0  0  0  0  0  0  0
   21.5822  -21.0150  -12.3420 C   0  0  0  0  0  0  0  0  0  0  0  0
   22.7477  -21.6939  -13.0196 C   0  0  2  0  0  0  0  0  0  0  0  0
   23.8390  -20.7416  -13.1403 N   0  0  0  0  0  0  0  0  0  0  0  0
   22.2478  -22.0540  -14.3791 C   0  0  0  0  0  0  0  0  0  0  0  0
   22.3951  -21.3078  -15.3715 O   0  0  0  0  0  0  0  0  0  0  0  0
   21.5979  -23.2687  -14.5212 O   0  0  0  0  0  0  0  0  0  0  0  0
  2  1  1  0
  2  3  1  0
  3  4  1  1
  5  6  2  0
  5  3  1  0
  8  7  1  1
  8 10  1  0
  9  8  1  0
 10 12  1  0
 10 11  1  6
 11  5  1  0
 12 13  2  0
 15 14  1  0
 16 15  2  0
 17 15  1  0
 18 19  1  0
 18 17  1  0
 20 19  1  0
 21 20  1  1
 22 12  1  0
 22 21  1  0
 23 25  1  0
 23 21  1  0
 24 23  2  0
M  END
$$$$
