STR.pdb
     RDKit          3D

 25 24  0  0  1  0  0  0  0  0999 V2000
   22.2072  -20.5100  -10.7910 O   0  0  0  0  0  0  0  0  0  0  0  0
   22.8666  -21.7124  -10.7960 C   0  0  0  0  0  0  0  0  0  0  0  0
   24.3243  -21.4960  -10.4697 C   0  0  2  0  0  0  0  0  0  0  0  0
   24.4697  -20.9022   -9.1346 N   0  0  0  0  0  0  0  0  0  0  0  0
   25.0104  -20.5768  -11.4126 C   0  0  0  0  0  0  0  0  0  0  0  0
   25.1963  -19.3394  -11.1368 O   0  0  0  0  0  0  0  0  0  0  0  0
   28.3135  -20.9927  -13.2656 C   0  0  0  0  0  0  0  0  0  0  0  0
   27.2472  -20.7445  -14.3141 C   0  0  1  0  0  0  0  0  0  0  0  0
   26.8522  -21.9745  -14.8100 O   0  0  0  0  0  0  0  0  0  0  0  0
   26.1108  -20.0149  -13.6254 C   0  0  2  0  0  0  0  0  0  0  0  0
   25.5159  -20.9764  -12.6851 N   0  0  0  0  0  0  0  0  0  0  0  0
   25.0657  -19.7383  -14.6523 C   0  0  0  0  0  0  0  0  0  0  0  0
   23.9253  -20.3010  -14.6339 O   0  0  0  0  0  0  0  0  0  0  0  0
   19.3535  -13.9336  -15.0611 N   0  0  0  0  0  0  0  0  0  0  0  0
   18.9802  -15.1705  -15.6363 C   0  0  0  0  0  0  0  0  0  0  0  0
   17.7350  -15.4764  -15.6972 N   0  0  0  0  0  0  0  0  0  0  0  0
   19.9788  -16.0460  -16.1325 N   0  0  0  0  0  0  0  0  0  0  0  0
   21.3866  -15.8182  -15.9157 C   0  0  0  0  0  0  0  0  0  0  0  0
   22.2172  -16.8227  -16.6613 C   0  0  0  0  0  0  0  0  0  0  0  0
   23.2918  -17.4547  -15.8460 C   0  0  0  0  0  0  0  0  0  0  0  0
   24.1900  -18.4018  -16.6039 C   0  0  2  0  0  0  0  0  0  0  0  0
   25.2732  -18.8206  -15.7299 N   0  0  0  0  0  0  0  0  0  0  0  0
   24.7426  -17.5924  -17.7296 C   0  0  0  0  0  0  0  0  0  0  0  0
   25.9204  -17.1730  -17.7444 O   0  0  0  0  0  0  0  0  0  0  0  0
   23.8968  -17.3077  -18.7888 O   0  0  0  0  0  0  0  0  0  0  0  0
  2  1  1  0
  2  3  1  0
  3  4  1  1
  5  6  2  0
  5  3  1  0
  8  7  1  1
  8 10  1  0
  9  8  1  0
 10 12  1  0
 10 11  1  1
 11  5  1  0
 12 13  2  0
 15 14  1  0
 16 15  2  0
 17 15  1  0
 18 19  1  0
 18 17  1  0
 20 19  1  0
 21 20  1  1
 22 12  1  0
 22 21  1  0
 23 25  1  0
 23 21  1  0
 24 23  2  0
M  END
$$$$
