STR.pdb
     RDKit          3D

 25 24  0  0  1  0  0  0  0  0999 V2000
   23.7612  -19.7784   13.5342 O   0  0  0  0  0  0  0  0  0  0  0  0
   24.0456  -18.6917   14.3208 C   0  0  0  0  0  0  0  0  0  0  0  0
   24.4676  -17.5308   13.4535 C   0  0  2  0  0  0  0  0  0  0  0  0
   24.8206  -16.3712   14.2824 N   0  0  0  0  0  0  0  0  0  0  0  0
   23.4050  -17.0716   12.5235 C   0  0  0  0  0  0  0  0  0  0  0  0
   22.5781  -16.1469   12.8445 O   0  0  0  0  0  0  0  0  0  0  0  0
   24.0205  -15.9006    9.0571 C   0  0  0  0  0  0  0  0  0  0  0  0
   22.9375  -16.9540    8.9328 C   0  0  1  0  0  0  0  0  0  0  0  0
   23.5507  -18.1485    8.5981 O   0  0  0  0  0  0  0  0  0  0  0  0
   22.2366  -17.0285   10.2750 C   0  0  2  0  0  0  0  0  0  0  0  0
   23.2100  -17.6043   11.2149 N   0  0  0  0  0  0  0  0  0  0  0  0
   21.1366  -18.0276   10.1533 C   0  0  0  0  0  0  0  0  0  0  0  0
   21.3180  -19.2701   10.3555 O   0  0  0  0  0  0  0  0  0  0  0  0
   13.2326  -17.5974   12.9907 N   0  0  0  0  0  0  0  0  0  0  0  0
   14.2517  -18.4953   13.3848 C   0  0  0  0  0  0  0  0  0  0  0  0
   14.2903  -18.8943   14.6044 N   0  0  0  0  0  0  0  0  0  0  0  0
   15.2070  -18.9370   12.4349 N   0  0  0  0  0  0  0  0  0  0  0  0
   15.1296  -18.5870   11.0377 C   0  0  0  0  0  0  0  0  0  0  0  0
   16.3392  -19.0719   10.2917 C   0  0  0  0  0  0  0  0  0  0  0  0
   17.5234  -18.1743   10.3957 C   0  0  0  0  0  0  0  0  0  0  0  0
   18.7447  -18.6447    9.6437 C   0  0  2  0  0  0  0  0  0  0  0  0
   19.8004  -17.6580    9.8006 N   0  0  0  0  0  0  0  0  0  0  0  0
   18.3209  -18.6979    8.2135 C   0  0  0  0  0  0  0  0  0  0  0  0
   17.5654  -19.5883    7.7665 O   0  0  0  0  0  0  0  0  0  0  0  0
   18.7971  -17.7100    7.3676 O   0  0  0  0  0  0  0  0  0  0  0  0
  2  1  1  0
  2  3  1  0
  3  4  1  1
  5  6  2  0
  5  3  1  0
  8  7  1  1
  8 10  1  0
  9  8  1  0
 10 12  1  0
 10 11  1  1
 11  5  1  0
 12 13  2  0
 15 14  1  0
 16 15  2  0
 17 15  1  0
 18 19  1  0
 18 17  1  0
 20 19  1  0
 21 20  1  1
 22 12  1  0
 22 21  1  0
 23 25  1  0
 23 21  1  0
 24 23  2  0
M  END
$$$$
