STR.pdb
     RDKit          3D

 25 24  0  0  1  0  0  0  0  0999 V2000
   26.3419  -23.2967  -20.2007 O   0  0  0  0  0  0  0  0  0  0  0  0
   26.3832  -22.0182  -19.7064 C   0  0  0  0  0  0  0  0  0  0  0  0
   27.7801  -21.6999  -19.2316 C   0  0  2  0  0  0  0  0  0  0  0  0
   28.6685  -22.8505  -19.4393 N   0  0  0  0  0  0  0  0  0  0  0  0
   27.8519  -21.3723  -17.7852 C   0  0  0  0  0  0  0  0  0  0  0  0
   28.8106  -21.7885  -17.0438 O   0  0  0  0  0  0  0  0  0  0  0  0
   28.0656  -17.9808  -16.4485 C   0  0  0  0  0  0  0  0  0  0  0  0
   26.8625  -18.6006  -15.7657 C   0  0  1  0  0  0  0  0  0  0  0  0
   25.7420  -18.2670  -16.5060 O   0  0  0  0  0  0  0  0  0  0  0  0
   27.0974  -20.0978  -15.7286 C   0  0  2  0  0  0  0  0  0  0  0  0
   26.8825  -20.5810  -17.1008 N   0  0  0  0  0  0  0  0  0  0  0  0
   26.0144  -20.7028  -14.9014 C   0  0  0  0  0  0  0  0  0  0  0  0
   24.9159  -21.1025  -15.4023 O   0  0  0  0  0  0  0  0  0  0  0  0
   27.6832  -21.1219   -8.4446 N   0  0  0  0  0  0  0  0  0  0  0  0
   26.7545  -20.1259   -8.0628 C   0  0  0  0  0  0  0  0  0  0  0  0
   27.1034  -19.2544   -7.1872 N   0  0  0  0  0  0  0  0  0  0  0  0
   25.4634  -20.1059   -8.6481 N   0  0  0  0  0  0  0  0  0  0  0  0
   24.6671  -21.2977   -8.8096 C   0  0  0  0  0  0  0  0  0  0  0  0
   24.3074  -21.5156  -10.2512 C   0  0  0  0  0  0  0  0  0  0  0  0
   25.3762  -21.1290  -11.2141 C   0  0  0  0  0  0  0  0  0  0  0  0
   25.0234  -21.3288  -12.6681 C   0  0  2  0  0  0  0  0  0  0  0  0
   26.1359  -20.8759  -13.4866 N   0  0  0  0  0  0  0  0  0  0  0  0
   23.8411  -20.4488  -12.9031 C   0  0  0  0  0  0  0  0  0  0  0  0
   23.9377  -19.2085  -13.0289 O   0  0  0  0  0  0  0  0  0  0  0  0
   22.5979  -21.0542  -12.9808 O   0  0  0  0  0  0  0  0  0  0  0  0
  2  1  1  0
  2  3  1  0
  3  4  1  1
  5  6  2  0
  5  3  1  0
  8  7  1  6
  8 10  1  0
  9  8  1  0
 10 12  1  0
 10 11  1  6
 11  5  1  0
 12 13  2  0
 15 14  1  0
 16 15  2  0
 17 15  1  0
 18 19  1  0
 18 17  1  0
 20 19  1  0
 21 20  1  1
 22 12  1  0
 22 21  1  0
 23 25  1  0
 23 21  1  0
 24 23  2  0
M  END
$$$$
