STR.pdb
     RDKit          3D

 25 24  0  0  1  0  0  0  0  0999 V2000
   26.7952  -23.3441  -17.3965 O   0  0  0  0  0  0  0  0  0  0  0  0
   26.2132  -22.7668  -16.2971 C   0  0  0  0  0  0  0  0  0  0  0  0
   25.7535  -21.3701  -16.6377 C   0  0  2  0  0  0  0  0  0  0  0  0
   26.9059  -20.5006  -16.9062 N   0  0  0  0  0  0  0  0  0  0  0  0
   24.9843  -20.7192  -15.5471 C   0  0  0  0  0  0  0  0  0  0  0  0
   25.5577  -20.2470  -14.5031 O   0  0  0  0  0  0  0  0  0  0  0  0
   23.2005  -17.6985  -15.1555 C   0  0  0  0  0  0  0  0  0  0  0  0
   22.1336  -18.7538  -14.9409 C   0  0  1  0  0  0  0  0  0  0  0  0
   21.5160  -18.9794  -16.1586 O   0  0  0  0  0  0  0  0  0  0  0  0
   22.8349  -19.9920  -14.4183 C   0  0  2  0  0  0  0  0  0  0  0  0
   23.5667  -20.5616  -15.5595 N   0  0  0  0  0  0  0  0  0  0  0  0
   21.7838  -20.9873  -14.0610 C   0  0  0  0  0  0  0  0  0  0  0  0
   21.4375  -21.9256  -14.8466 O   0  0  0  0  0  0  0  0  0  0  0  0
   19.0905  -25.0589   -6.9738 N   0  0  0  0  0  0  0  0  0  0  0  0
   18.0524  -25.2433   -7.9163 C   0  0  0  0  0  0  0  0  0  0  0  0
   17.2647  -26.2482   -7.7839 N   0  0  0  0  0  0  0  0  0  0  0  0
   17.8993  -24.3231   -8.9839 N   0  0  0  0  0  0  0  0  0  0  0  0
   18.9185  -23.3637   -9.3323 C   0  0  0  0  0  0  0  0  0  0  0  0
   18.5421  -22.6017  -10.5703 C   0  0  0  0  0  0  0  0  0  0  0  0
   19.5964  -21.6704  -11.0604 C   0  0  0  0  0  0  0  0  0  0  0  0
   20.0794  -21.9405  -12.4647 C   0  0  2  0  0  0  0  0  0  0  0  0
   21.0917  -20.9560  -12.8095 N   0  0  0  0  0  0  0  0  0  0  0  0
   18.8792  -21.7454  -13.3302 C   0  0  0  0  0  0  0  0  0  0  0  0
   18.4724  -20.6142  -13.6744 O   0  0  0  0  0  0  0  0  0  0  0  0
   18.2062  -22.8784  -13.7562 O   0  0  0  0  0  0  0  0  0  0  0  0
  2  1  1  0
  2  3  1  0
  3  4  1  1
  5  6  2  0
  5  3  1  0
  8  7  1  6
  8 10  1  0
  9  8  1  0
 10 12  1  0
 10 11  1  6
 11  5  1  0
 12 13  2  0
 15 14  1  0
 16 15  2  0
 17 15  1  0
 18 19  1  0
 18 17  1  0
 20 19  1  0
 21 20  1  1
 22 12  1  0
 22 21  1  0
 23 25  1  0
 23 21  1  0
 24 23  2  0
M  END
$$$$
