STR.pdb
     RDKit          3D

 25 24  0  0  1  0  0  0  0  0999 V2000
   20.0453  -26.7753   -0.5635 O   0  0  0  0  0  0  0  0  0  0  0  0
   19.5664  -26.6955   -1.8460 C   0  0  0  0  0  0  0  0  0  0  0  0
   18.4858  -27.7289   -2.0522 C   0  0  2  0  0  0  0  0  0  0  0  0
   19.0472  -29.0833   -1.9705 N   0  0  0  0  0  0  0  0  0  0  0  0
   17.8205  -27.6316   -3.3760 C   0  0  0  0  0  0  0  0  0  0  0  0
   18.1279  -28.4095   -4.3467 O   0  0  0  0  0  0  0  0  0  0  0  0
   13.9469  -26.7401   -3.9482 C   0  0  0  0  0  0  0  0  0  0  0  0
   14.8511  -25.8761   -4.8048 C   0  0  1  0  0  0  0  0  0  0  0  0
   15.0510  -24.6831   -4.1327 O   0  0  0  0  0  0  0  0  0  0  0  0
   16.1430  -26.6451   -4.9995 C   0  0  2  0  0  0  0  0  0  0  0  0
   16.7993  -26.6847   -3.6842 N   0  0  0  0  0  0  0  0  0  0  0  0
   17.0257  -25.8263   -5.8790 C   0  0  0  0  0  0  0  0  0  0  0  0
   17.7875  -24.9156   -5.4232 O   0  0  0  0  0  0  0  0  0  0  0  0
   19.9836  -27.7112  -13.9004 N   0  0  0  0  0  0  0  0  0  0  0  0
   19.6325  -26.3414  -13.8762 C   0  0  0  0  0  0  0  0  0  0  0  0
   19.4559  -25.7259  -14.9889 N   0  0  0  0  0  0  0  0  0  0  0  0
   19.4824  -25.6750  -12.6340 N   0  0  0  0  0  0  0  0  0  0  0  0
   19.8132  -26.2975  -11.3755 C   0  0  0  0  0  0  0  0  0  0  0  0
   19.3893  -25.4377  -10.2198 C   0  0  0  0  0  0  0  0  0  0  0  0
   18.4002  -26.0795   -9.3094 C   0  0  0  0  0  0  0  0  0  0  0  0
   17.9658  -25.2275   -8.1417 C   0  0  2  0  0  0  0  0  0  0  0  0
   17.0772  -26.0082   -7.2970 N   0  0  0  0  0  0  0  0  0  0  0  0
   17.2074  -24.0954   -8.7507 C   0  0  0  0  0  0  0  0  0  0  0  0
   17.7714  -23.1089   -9.2724 O   0  0  0  0  0  0  0  0  0  0  0  0
   15.8244  -24.1637   -8.7242 O   0  0  0  0  0  0  0  0  0  0  0  0
  2  1  1  0
  2  3  1  0
  3  4  1  6
  5  6  2  0
  5  3  1  0
  8  7  1  1
  8 10  1  0
  9  8  1  0
 10 12  1  0
 10 11  1  1
 11  5  1  0
 12 13  2  0
 15 14  1  0
 16 15  2  0
 17 15  1  0
 18 19  1  0
 18 17  1  0
 20 19  1  0
 21 20  1  6
 22 12  1  0
 22 21  1  0
 23 25  1  0
 23 21  1  0
 24 23  2  0
M  END
$$$$
