STR.pdb
     RDKit          3D

 25 24  0  0  1  0  0  0  0  0999 V2000
   26.4575  -16.3852  -19.2093 O   0  0  0  0  0  0  0  0  0  0  0  0
   27.2723  -16.3490  -18.1068 C   0  0  0  0  0  0  0  0  0  0  0  0
   27.9995  -17.6640  -17.9667 C   0  0  2  0  0  0  0  0  0  0  0  0
   28.7313  -17.9809  -19.1997 N   0  0  0  0  0  0  0  0  0  0  0  0
   27.0960  -18.8140  -17.7098 C   0  0  0  0  0  0  0  0  0  0  0  0
   26.5322  -19.4578  -18.6636 O   0  0  0  0  0  0  0  0  0  0  0  0
   27.9162  -21.8844  -16.2195 C   0  0  0  0  0  0  0  0  0  0  0  0
   26.7404  -21.4494  -15.3673 C   0  0  1  0  0  0  0  0  0  0  0  0
   27.2474  -20.8571  -14.2240 O   0  0  0  0  0  0  0  0  0  0  0  0
   25.9257  -20.4792  -16.1997 C   0  0  2  0  0  0  0  0  0  0  0  0
   26.7786  -19.2993  -16.4067 N   0  0  0  0  0  0  0  0  0  0  0  0
   24.7797  -20.0208  -15.3632 C   0  0  0  0  0  0  0  0  0  0  0  0
   24.8350  -18.9720  -14.6461 O   0  0  0  0  0  0  0  0  0  0  0  0
   18.0605  -22.4599  -11.9764 N   0  0  0  0  0  0  0  0  0  0  0  0
   17.2293  -21.4737  -12.5566 C   0  0  0  0  0  0  0  0  0  0  0  0
   16.1777  -21.0973  -11.9239 N   0  0  0  0  0  0  0  0  0  0  0  0
   17.5675  -20.9210  -13.8175 N   0  0  0  0  0  0  0  0  0  0  0  0
   18.7138  -21.3612  -14.5744 C   0  0  0  0  0  0  0  0  0  0  0  0
   19.9671  -20.6842  -14.0991 C   0  0  0  0  0  0  0  0  0  0  0  0
   21.1756  -20.9909  -14.9142 C   0  0  0  0  0  0  0  0  0  0  0  0
   22.4355  -20.2874  -14.4713 C   0  0  2  0  0  0  0  0  0  0  0  0
   23.5380  -20.7291  -15.3091 N   0  0  0  0  0  0  0  0  0  0  0  0
   22.6608  -20.7453  -13.0687 C   0  0  0  0  0  0  0  0  0  0  0  0
   23.3556  -21.7466  -12.7894 O   0  0  0  0  0  0  0  0  0  0  0  0
   22.0657  -20.0150  -12.0535 O   0  0  0  0  0  0  0  0  0  0  0  0
  2  1  1  0
  2  3  1  0
  3  4  1  6
  5  6  2  0
  5  3  1  0
  8  7  1  6
  8 10  1  0
  9  8  1  0
 10 12  1  0
 10 11  1  1
 11  5  1  0
 12 13  2  0
 15 14  1  0
 16 15  2  0
 17 15  1  0
 18 19  1  0
 18 17  1  0
 20 19  1  0
 21 20  1  6
 22 12  1  0
 22 21  1  0
 23 25  1  0
 23 21  1  0
 24 23  2  0
M  END
$$$$
