STR.pdb
     RDKit          3D

 25 24  0  0  1  0  0  0  0  0999 V2000
   25.3905  -24.7946  -15.4680 O   0  0  0  0  0  0  0  0  0  0  0  0
   25.4742  -24.6670  -16.8308 C   0  0  0  0  0  0  0  0  0  0  0  0
   25.7216  -23.2230  -17.1936 C   0  0  2  0  0  0  0  0  0  0  0  0
   26.8909  -22.7046  -16.4723 N   0  0  0  0  0  0  0  0  0  0  0  0
   24.5887  -22.3259  -16.8522 C   0  0  0  0  0  0  0  0  0  0  0  0
   24.6372  -21.5248  -15.8534 O   0  0  0  0  0  0  0  0  0  0  0  0
   21.1841  -22.1089  -19.2542 C   0  0  0  0  0  0  0  0  0  0  0  0
   21.5988  -20.9064  -18.4295 C   0  0  1  0  0  0  0  0  0  0  0  0
   20.4607  -20.1632  -18.1700 O   0  0  0  0  0  0  0  0  0  0  0  0
   22.2349  -21.4385  -17.1605 C   0  0  2  0  0  0  0  0  0  0  0  0
   23.3679  -22.2727  -17.5879 N   0  0  0  0  0  0  0  0  0  0  0  0
   21.2565  -22.3640  -16.5206 C   0  0  0  0  0  0  0  0  0  0  0  0
   21.4378  -23.6219  -16.4732 O   0  0  0  0  0  0  0  0  0  0  0  0
   18.6459  -27.5121  -12.2868 N   0  0  0  0  0  0  0  0  0  0  0  0
   19.8949  -27.1648  -11.7215 C   0  0  0  0  0  0  0  0  0  0  0  0
   20.7091  -28.1009  -11.3916 N   0  0  0  0  0  0  0  0  0  0  0  0
   20.2255  -25.7996  -11.5296 N   0  0  0  0  0  0  0  0  0  0  0  0
   19.3616  -24.7257  -11.9551 C   0  0  0  0  0  0  0  0  0  0  0  0
   19.3387  -24.6122  -13.4523 C   0  0  0  0  0  0  0  0  0  0  0  0
   19.8620  -23.3198  -13.9765 C   0  0  0  0  0  0  0  0  0  0  0  0
   19.1511  -22.7966  -15.2009 C   0  0  2  0  0  0  0  0  0  0  0  0
   20.0458  -21.9013  -15.9154 N   0  0  0  0  0  0  0  0  0  0  0  0
   17.9895  -22.0229  -14.6720 C   0  0  0  0  0  0  0  0  0  0  0  0
   17.9762  -20.7735  -14.6255 O   0  0  0  0  0  0  0  0  0  0  0  0
   16.8944  -22.7407  -14.2205 O   0  0  0  0  0  0  0  0  0  0  0  0
  2  1  1  0
  2  3  1  0
  3  4  1  1
  5  6  2  0
  5  3  1  0
  8  7  1  6
  8 10  1  0
  9  8  1  0
 10 12  1  0
 10 11  1  6
 11  5  1  0
 12 13  2  0
 15 14  1  0
 16 15  2  0
 17 15  1  0
 18 19  1  0
 18 17  1  0
 20 19  1  0
 21 20  1  1
 22 12  1  0
 22 21  1  0
 23 25  1  0
 23 21  1  0
 24 23  2  0
M  END
$$$$
