STR.pdb
     RDKit          3D

 25 24  0  0  1  0  0  0  0  0999 V2000
   21.4276  -20.7177   -9.6972 O   0  0  0  0  0  0  0  0  0  0  0  0
   22.2964  -21.6216  -10.2531 C   0  0  0  0  0  0  0  0  0  0  0  0
   23.7063  -21.3105   -9.8134 C   0  0  2  0  0  0  0  0  0  0  0  0
   23.6975  -20.5577   -8.5526 N   0  0  0  0  0  0  0  0  0  0  0  0
   24.4600  -20.4829  -10.7889 C   0  0  0  0  0  0  0  0  0  0  0  0
   24.6489  -19.2284  -10.6086 O   0  0  0  0  0  0  0  0  0  0  0  0
   27.8736  -20.7355  -12.0061 C   0  0  0  0  0  0  0  0  0  0  0  0
   27.0394  -20.7991  -13.2703 C   0  0  1  0  0  0  0  0  0  0  0  0
   26.8820  -22.1333  -13.6021 O   0  0  0  0  0  0  0  0  0  0  0  0
   25.7159  -20.1276  -12.9613 C   0  0  2  0  0  0  0  0  0  0  0  0
   25.0322  -20.9953  -11.9907 N   0  0  0  0  0  0  0  0  0  0  0  0
   24.8918  -20.1647  -14.2033 C   0  0  0  0  0  0  0  0  0  0  0  0
   23.6941  -20.5923  -14.2149 O   0  0  0  0  0  0  0  0  0  0  0  0
   19.7656  -16.1514  -18.8700 N   0  0  0  0  0  0  0  0  0  0  0  0
   19.6425  -16.1531  -17.4611 C   0  0  0  0  0  0  0  0  0  0  0  0
   18.5542  -15.7242  -16.9324 N   0  0  0  0  0  0  0  0  0  0  0  0
   20.7141  -16.6243  -16.6615 N   0  0  0  0  0  0  0  0  0  0  0  0
   22.0964  -16.4107  -17.0139 C   0  0  0  0  0  0  0  0  0  0  0  0
   22.7854  -17.7116  -17.3102 C   0  0  0  0  0  0  0  0  0  0  0  0
   23.7418  -18.1519  -16.2564 C   0  0  0  0  0  0  0  0  0  0  0  0
   24.5068  -19.4123  -16.5798 C   0  0  2  0  0  0  0  0  0  0  0  0
   25.3912  -19.7217  -15.4686 N   0  0  0  0  0  0  0  0  0  0  0  0
   25.3200  -19.0722  -17.7842 C   0  0  0  0  0  0  0  0  0  0  0  0
   26.4884  -18.6336  -17.7074 O   0  0  0  0  0  0  0  0  0  0  0  0
   24.7346  -19.2587  -19.0254 O   0  0  0  0  0  0  0  0  0  0  0  0
  2  1  1  0
  2  3  1  0
  3  4  1  1
  5  6  2  0
  5  3  1  0
  8  7  1  1
  8 10  1  0
  9  8  1  0
 10 12  1  0
 10 11  1  1
 11  5  1  0
 12 13  2  0
 15 14  1  0
 16 15  2  0
 17 15  1  0
 18 19  1  0
 18 17  1  0
 20 19  1  0
 21 20  1  1
 22 12  1  0
 22 21  1  0
 23 25  1  0
 23 21  1  0
 24 23  2  0
M  END
$$$$
