STR.pdb
     RDKit          3D

 25 24  0  0  1  0  0  0  0  0999 V2000
   25.8420  -21.3069  -19.6556 O   0  0  0  0  0  0  0  0  0  0  0  0
   26.3931  -20.0626  -19.4859 C   0  0  0  0  0  0  0  0  0  0  0  0
   26.9119  -19.9227  -18.0755 C   0  0  2  0  0  0  0  0  0  0  0  0
   27.9827  -20.8952  -17.8226 N   0  0  0  0  0  0  0  0  0  0  0  0
   25.8763  -20.1626  -17.0388 C   0  0  0  0  0  0  0  0  0  0  0  0
   26.0885  -20.9306  -16.0353 O   0  0  0  0  0  0  0  0  0  0  0  0
   24.2856  -17.8599  -14.6971 C   0  0  0  0  0  0  0  0  0  0  0  0
   23.1508  -18.4349  -15.5215 C   0  0  1  0  0  0  0  0  0  0  0  0
   22.9200  -17.5709  -16.5776 O   0  0  0  0  0  0  0  0  0  0  0  0
   23.5961  -19.8055  -15.9919 C   0  0  2  0  0  0  0  0  0  0  0  0
   24.5776  -19.5733  -17.0620 N   0  0  0  0  0  0  0  0  0  0  0  0
   22.4241  -20.4617  -16.6393 C   0  0  0  0  0  0  0  0  0  0  0  0
   22.2025  -20.3829  -17.8892 O   0  0  0  0  0  0  0  0  0  0  0  0
   18.9371  -23.6271  -12.5095 N   0  0  0  0  0  0  0  0  0  0  0  0
   17.6169  -23.1601  -12.7071 C   0  0  0  0  0  0  0  0  0  0  0  0
   17.0215  -22.5555  -11.7438 N   0  0  0  0  0  0  0  0  0  0  0  0
   16.9770  -23.3653  -13.9554 N   0  0  0  0  0  0  0  0  0  0  0  0
   17.5859  -24.1193  -15.0238 C   0  0  0  0  0  0  0  0  0  0  0  0
   18.2626  -23.2101  -16.0088 C   0  0  0  0  0  0  0  0  0  0  0  0
   19.5267  -22.5997  -15.5104 C   0  0  0  0  0  0  0  0  0  0  0  0
   20.2388  -21.7138  -16.5036 C   0  0  2  0  0  0  0  0  0  0  0  0
   21.4674  -21.2257  -15.8995 N   0  0  0  0  0  0  0  0  0  0  0  0
   19.3091  -20.5696  -16.7365 C   0  0  0  0  0  0  0  0  0  0  0  0
   19.3862  -19.4971  -16.0983 O   0  0  0  0  0  0  0  0  0  0  0  0
   18.3303  -20.7267  -17.7036 O   0  0  0  0  0  0  0  0  0  0  0  0
  2  1  1  0
  2  3  1  0
  3  4  1  1
  5  6  2  0
  5  3  1  0
  8  7  1  1
  8 10  1  0
  9  8  1  0
 10 12  1  0
 10 11  1  6
 11  5  1  0
 12 13  2  0
 15 14  1  0
 16 15  2  0
 17 15  1  0
 18 19  1  0
 18 17  1  0
 20 19  1  0
 21 20  1  1
 22 12  1  0
 22 21  1  0
 23 25  1  0
 23 21  1  0
 24 23  2  0
M  END
$$$$
