STR.pdb
     RDKit          3D

 25 24  0  0  1  0  0  0  0  0999 V2000
   20.3515  -30.0985  -17.1038 O   0  0  0  0  0  0  0  0  0  0  0  0
   20.2706  -29.2100  -16.0624 C   0  0  0  0  0  0  0  0  0  0  0  0
   21.4733  -28.2983  -16.0753 C   0  0  2  0  0  0  0  0  0  0  0  0
   22.7101  -29.0764  -15.9294 N   0  0  0  0  0  0  0  0  0  0  0  0
   21.4727  -27.3043  -14.9722 C   0  0  0  0  0  0  0  0  0  0  0  0
   22.3783  -27.2986  -14.0658 O   0  0  0  0  0  0  0  0  0  0  0  0
   19.0970  -23.9507  -15.2281 C   0  0  0  0  0  0  0  0  0  0  0  0
   20.4451  -23.9141  -14.5358 C   0  0  1  0  0  0  0  0  0  0  0  0
   20.4436  -22.8334  -13.6715 O   0  0  0  0  0  0  0  0  0  0  0  0
   20.6017  -25.2316  -13.8025 C   0  0  2  0  0  0  0  0  0  0  0  0
   20.4863  -26.2850  -14.8220 N   0  0  0  0  0  0  0  0  0  0  0  0
   19.4208  -25.3907  -12.9061 C   0  0  0  0  0  0  0  0  0  0  0  0
   18.2818  -25.7574  -13.3370 O   0  0  0  0  0  0  0  0  0  0  0  0
   18.5939  -25.8189   -3.9177 N   0  0  0  0  0  0  0  0  0  0  0  0
   17.2880  -25.8730   -4.4578 C   0  0  0  0  0  0  0  0  0  0  0  0
   16.2920  -26.0182   -3.6610 N   0  0  0  0  0  0  0  0  0  0  0  0
   17.1007  -25.7672   -5.8591 N   0  0  0  0  0  0  0  0  0  0  0  0
   18.1919  -25.5238   -6.7706 C   0  0  0  0  0  0  0  0  0  0  0  0
   17.7204  -25.5486   -8.1961 C   0  0  0  0  0  0  0  0  0  0  0  0
   18.7821  -25.2505   -9.1975 C   0  0  0  0  0  0  0  0  0  0  0  0
   18.3265  -25.2872  -10.6360 C   0  0  2  0  0  0  0  0  0  0  0  0
   19.4870  -25.1420  -11.4990 N   0  0  0  0  0  0  0  0  0  0  0  0
   17.4386  -24.0974  -10.7904 C   0  0  0  0  0  0  0  0  0  0  0  0
   17.8427  -23.0102  -11.2575 O   0  0  0  0  0  0  0  0  0  0  0  0
   16.1183  -24.2280  -10.3930 O   0  0  0  0  0  0  0  0  0  0  0  0
  2  1  1  0
  2  3  1  0
  3  4  1  1
  5  6  2  0
  5  3  1  0
  8  7  1  1
  8 10  1  0
  9  8  1  0
 10 12  1  0
 10 11  1  6
 11  5  1  0
 12 13  2  0
 15 14  1  0
 16 15  2  0
 17 15  1  0
 18 19  1  0
 18 17  1  0
 20 19  1  0
 21 20  1  1
 22 12  1  0
 22 21  1  0
 23 25  1  0
 23 21  1  0
 24 23  2  0
M  END
$$$$
