STR.pdb
     RDKit          3D

 25 24  0  0  1  0  0  0  0  0999 V2000
   17.4147  -13.6935  -17.9162 O   0  0  0  0  0  0  0  0  0  0  0  0
   17.6869  -12.6126  -17.1173 C   0  0  0  0  0  0  0  0  0  0  0  0
   18.9778  -12.8430  -16.3699 C   0  0  2  0  0  0  0  0  0  0  0  0
   18.8134  -13.9123  -15.3771 N   0  0  0  0  0  0  0  0  0  0  0  0
   19.4493  -11.6490  -15.6237 C   0  0  0  0  0  0  0  0  0  0  0  0
   19.0066  -11.3625  -14.4559 O   0  0  0  0  0  0  0  0  0  0  0  0
   22.7229  -10.8320  -14.3355 C   0  0  0  0  0  0  0  0  0  0  0  0
   22.3972   -9.6932  -15.2815 C   0  0  1  0  0  0  0  0  0  0  0  0
   22.9413  -10.0042  -16.5153 O   0  0  0  0  0  0  0  0  0  0  0  0
   20.8863   -9.5814  -15.3356 C   0  0  2  0  0  0  0  0  0  0  0  0
   20.4178  -10.7300  -16.1254 N   0  0  0  0  0  0  0  0  0  0  0  0
   20.5534   -8.3663  -16.1331 C   0  0  0  0  0  0  0  0  0  0  0  0
   20.6289   -8.3414  -17.4024 O   0  0  0  0  0  0  0  0  0  0  0  0
   13.9798   -4.0345  -13.6847 N   0  0  0  0  0  0  0  0  0  0  0  0
   13.8958   -5.1097  -14.5996 C   0  0  0  0  0  0  0  0  0  0  0  0
   12.7473   -5.6282  -14.8448 N   0  0  0  0  0  0  0  0  0  0  0  0
   15.0715   -5.5941  -15.2264 N   0  0  0  0  0  0  0  0  0  0  0  0
   16.3632   -4.9832  -15.0287 C   0  0  0  0  0  0  0  0  0  0  0  0
   17.4221   -5.6894  -15.8255 C   0  0  0  0  0  0  0  0  0  0  0  0
   18.7944   -5.1390  -15.6436 C   0  0  0  0  0  0  0  0  0  0  0  0
   19.8917   -5.9384  -16.3034 C   0  0  2  0  0  0  0  0  0  0  0  0
   20.1256   -7.1438  -15.5257 N   0  0  0  0  0  0  0  0  0  0  0  0
   21.0987   -5.0626  -16.2405 C   0  0  0  0  0  0  0  0  0  0  0  0
   22.0882   -5.3283  -15.5238 O   0  0  0  0  0  0  0  0  0  0  0  0
   21.0983   -3.9154  -17.0164 O   0  0  0  0  0  0  0  0  0  0  0  0
  2  1  1  0
  2  3  1  0
  3  4  1  1
  5  6  2  0
  5  3  1  0
  8  7  1  1
  8 10  1  0
  9  8  1  0
 10 12  1  0
 10 11  1  6
 11  5  1  0
 12 13  2  0
 15 14  1  0
 16 15  2  0
 17 15  1  0
 18 19  1  0
 18 17  1  0
 20 19  1  0
 21 20  1  1
 22 12  1  0
 22 21  1  0
 23 25  1  0
 23 21  1  0
 24 23  2  0
M  END
$$$$
