STR.pdb
     RDKit          3D

 25 24  0  0  1  0  0  0  0  0999 V2000
   26.9766  -22.8507  -18.4762 O   0  0  0  0  0  0  0  0  0  0  0  0
   28.0968  -22.0664  -18.5799 C   0  0  0  0  0  0  0  0  0  0  0  0
   28.7922  -21.9911  -17.2425 C   0  0  2  0  0  0  0  0  0  0  0  0
   29.1961  -23.3306  -16.7966 N   0  0  0  0  0  0  0  0  0  0  0  0
   27.9387  -21.4315  -16.1639 C   0  0  0  0  0  0  0  0  0  0  0  0
   27.9293  -21.9274  -14.9824 O   0  0  0  0  0  0  0  0  0  0  0  0
   27.4980  -17.7303  -15.0747 C   0  0  0  0  0  0  0  0  0  0  0  0
   26.1435  -18.3022  -15.4438 C   0  0  1  0  0  0  0  0  0  0  0  0
   25.8905  -17.9639  -16.7616 O   0  0  0  0  0  0  0  0  0  0  0  0
   26.2279  -19.8027  -15.2457 C   0  0  2  0  0  0  0  0  0  0  0  0
   27.0694  -20.3142  -16.3378 N   0  0  0  0  0  0  0  0  0  0  0  0
   24.8656  -20.3640  -15.4740 C   0  0  0  0  0  0  0  0  0  0  0  0
   24.5995  -21.1330  -16.4514 O   0  0  0  0  0  0  0  0  0  0  0  0
   17.9590  -23.6017  -13.2401 N   0  0  0  0  0  0  0  0  0  0  0  0
   18.6725  -23.7547  -12.0287 C   0  0  0  0  0  0  0  0  0  0  0  0
   18.2444  -24.5952  -11.1578 N   0  0  0  0  0  0  0  0  0  0  0  0
   19.8394  -22.9838  -11.7968 N   0  0  0  0  0  0  0  0  0  0  0  0
   20.2540  -21.9206  -12.6790 C   0  0  0  0  0  0  0  0  0  0  0  0
   20.9612  -22.4656  -13.8864 C   0  0  0  0  0  0  0  0  0  0  0  0
   22.3465  -21.9495  -14.0695 C   0  0  0  0  0  0  0  0  0  0  0  0
   22.4442  -20.6478  -14.8272 C   0  0  2  0  0  0  0  0  0  0  0  0
   23.7629  -20.0766  -14.6092 N   0  0  0  0  0  0  0  0  0  0  0  0
   21.4105  -19.7643  -14.2120 C   0  0  0  0  0  0  0  0  0  0  0  0
   21.6750  -18.9493  -13.3013 O   0  0  0  0  0  0  0  0  0  0  0  0
   20.1135  -19.8703  -14.6860 O   0  0  0  0  0  0  0  0  0  0  0  0
  2  1  1  0
  2  3  1  0
  3  4  1  1
  5  6  2  0
  5  3  1  0
  8  7  1  6
  8 10  1  0
  9  8  1  0
 10 12  1  0
 10 11  1  6
 11  5  1  0
 12 13  2  0
 15 14  1  0
 16 15  2  0
 17 15  1  0
 18 19  1  0
 18 17  1  0
 20 19  1  0
 21 20  1  1
 22 12  1  0
 22 21  1  0
 23 25  1  0
 23 21  1  0
 24 23  2  0
M  END
$$$$
