KRS.pdb
     RDKit          3D

 27 26  0  0  1  0  0  0  0  0999 V2000
   10.7831  -19.6570   17.6014 N   0  0  0  0  0  0  0  0  0  0  0  0
    9.8428  -19.7319   18.7019 C   0  0  1  0  0  0  0  0  0  0  0  0
    9.5790  -21.1840   18.9905 C   0  0  0  0  0  0  0  0  0  0  0  0
    8.8949  -21.8394   17.8149 C   0  0  0  0  0  0  0  0  0  0  0  0
    9.4313  -23.1799   17.4490 C   0  0  0  0  0  0  0  0  0  0  0  0
    8.6219  -23.6900   16.2746 C   0  0  0  0  0  0  0  0  0  0  0  0
    9.1051  -24.9557   15.7910 N   0  0  0  0  0  0  0  0  0  0  0  0
   10.3362  -18.9916   19.8770 C   0  0  0  0  0  0  0  0  0  0  0  0
   11.5891  -18.9401   20.0677 O   0  0  0  0  0  0  0  0  0  0  0  0
    8.6930  -12.0577   20.0299 N   0  0  0  0  0  0  0  0  0  0  0  0
    7.7904  -12.9234   19.3526 C   0  0  0  0  0  0  0  0  0  0  0  0
    7.4987  -12.7600   18.0947 N   0  0  0  0  0  0  0  0  0  0  0  0
    7.1453  -14.0256   20.0025 N   0  0  0  0  0  0  0  0  0  0  0  0
    7.5608  -14.4800   21.3170 C   0  0  0  0  0  0  0  0  0  0  0  0
    8.7701  -15.3609   21.1325 C   0  0  0  0  0  0  0  0  0  0  0  0
    8.8590  -16.4882   22.0822 C   0  0  0  0  0  0  0  0  0  0  0  0
    9.9385  -17.4875   21.8873 C   0  0  2  0  0  0  0  0  0  0  0  0
    9.4847  -18.3529   20.7765 N   0  0  0  0  0  0  0  0  0  0  0  0
   10.1921  -18.3948   23.0228 C   0  0  0  0  0  0  0  0  0  0  0  0
    9.2428  -19.1244   23.4833 O   0  0  0  0  0  0  0  0  0  0  0  0
    6.8649  -13.4120   17.5896 O   0  0  0  0  0  0  0  0  0  0  0  0
   13.8637  -18.8209   24.6728 C   0  0  0  0  0  0  0  0  0  0  0  0
   13.0535  -19.9459   24.7770 C   0  0  1  0  0  0  0  0  0  0  0  0
   11.5823  -19.5211   24.7871 N   0  0  0  0  0  0  0  0  0  0  0  0
   11.4323  -18.5557   23.6902 C   0  0  0  0  0  0  0  0  0  0  0  0
   11.2560  -18.9178   26.0832 O   0  0  0  0  0  0  0  0  0  0  0  0
   11.2842  -19.6456   27.2602 O   0  0  0  0  0  0  0  0  0  0  0  0
  2  3  1  0
  2  1  1  6
  4  3  1  0
  5  4  1  0
  6  5  1  0
  7  6  1  0
  8  9  2  0
  8  2  1  0
 10 11  1  0
 11 12  2  0
 13 11  1  0
 13 14  1  0
 15 14  1  0
 16 15  1  0
 17 16  1  1
 17 18  1  0
 18  8  1  0
 19 20  2  0
 19 17  1  0
 22 21  1  0
 23 24  1  0
 23 22  1  6
 24 19  1  0
 25 23  1  0
 26 25  1  0
 27 25  2  0
M  END
$$$$
