KRS.pdb
     RDKit          3D

 27 26  0  0  1  0  0  0  0  0999 V2000
    9.8745  -20.7227   18.5929 N   0  0  0  0  0  0  0  0  0  0  0  0
   10.9269  -19.9942   17.9127 C   0  0  1  0  0  0  0  0  0  0  0  0
   10.4749  -19.7319   16.5026 C   0  0  0  0  0  0  0  0  0  0  0  0
    9.7033  -20.9144   15.9677 C   0  0  0  0  0  0  0  0  0  0  0  0
    9.2407  -20.7719   14.5591 C   0  0  0  0  0  0  0  0  0  0  0  0
    8.4395  -22.0104   14.2146 C   0  0  0  0  0  0  0  0  0  0  0  0
    7.9555  -21.9847   12.8603 N   0  0  0  0  0  0  0  0  0  0  0  0
   11.2815  -18.7634   18.6420 C   0  0  0  0  0  0  0  0  0  0  0  0
   12.1884  -18.0216   18.1563 O   0  0  0  0  0  0  0  0  0  0  0  0
    8.9842  -12.9175   18.6069 N   0  0  0  0  0  0  0  0  0  0  0  0
    8.4695  -12.4206   19.8361 C   0  0  0  0  0  0  0  0  0  0  0  0
    8.4831  -11.1505   20.1205 N   0  0  0  0  0  0  0  0  0  0  0  0
    7.9053  -13.2761   20.8377 N   0  0  0  0  0  0  0  0  0  0  0  0
    7.9582  -14.7217   20.7179 C   0  0  0  0  0  0  0  0  0  0  0  0
    9.3866  -15.1452   20.9481 C   0  0  0  0  0  0  0  0  0  0  0  0
    9.5997  -16.6064   20.9577 C   0  0  0  0  0  0  0  0  0  0  0  0
   10.9299  -17.1250   20.5536 C   0  0  2  0  0  0  0  0  0  0  0  0
   10.6628  -18.3895   19.8334 N   0  0  0  0  0  0  0  0  0  0  0  0
   11.8476  -17.4778   21.6537 C   0  0  0  0  0  0  0  0  0  0  0  0
   11.4848  -18.3300   22.5412 O   0  0  0  0  0  0  0  0  0  0  0  0
    8.0328  -10.7763   20.9803 O   0  0  0  0  0  0  0  0  0  0  0  0
   15.7445  -17.3691   21.3156 C   0  0  0  0  0  0  0  0  0  0  0  0
   15.1661  -18.1655   22.2975 C   0  0  1  0  0  0  0  0  0  0  0  0
   14.0005  -17.4149   22.9479 N   0  0  0  0  0  0  0  0  0  0  0  0
   13.1504  -16.9521   21.8430 C   0  0  0  0  0  0  0  0  0  0  0  0
   14.5198  -16.2914   23.7342 O   0  0  0  0  0  0  0  0  0  0  0  0
   15.2842  -16.4822   24.8722 O   0  0  0  0  0  0  0  0  0  0  0  0
  2  3  1  0
  2  1  1  1
  4  3  1  0
  5  4  1  0
  6  5  1  0
  7  6  1  0
  8  9  2  0
  8  2  1  0
 10 11  1  0
 11 12  2  0
 13 11  1  0
 13 14  1  0
 15 14  1  0
 16 15  1  0
 17 16  1  1
 17 18  1  0
 18  8  1  0
 19 20  2  0
 19 17  1  0
 22 21  1  0
 23 24  1  0
 23 22  1  1
 24 19  1  0
 25 23  1  0
 26 25  1  0
 27 25  2  0
M  END
$$$$
