KRS.pdb
     RDKit          3D

 27 26  0  0  1  0  0  0  0  0999 V2000
    9.4641  -16.8488   18.4409 N   0  0  0  0  0  0  0  0  0  0  0  0
   10.1193  -16.0316   19.4428 C   0  0  1  0  0  0  0  0  0  0  0  0
    9.8292  -14.5897   19.1296 C   0  0  0  0  0  0  0  0  0  0  0  0
    8.4100  -14.4319   18.6390 C   0  0  0  0  0  0  0  0  0  0  0  0
    8.0272  -13.0395   18.2744 C   0  0  0  0  0  0  0  0  0  0  0  0
    6.5587  -13.0524   17.9030 C   0  0  0  0  0  0  0  0  0  0  0  0
    6.0917  -11.7563   17.4895 N   0  0  0  0  0  0  0  0  0  0  0  0
    9.7051  -16.4201   20.8029 C   0  0  0  0  0  0  0  0  0  0  0  0
    8.5180  -16.8343   20.9704 O   0  0  0  0  0  0  0  0  0  0  0  0
   13.2518  -21.0757   20.8494 N   0  0  0  0  0  0  0  0  0  0  0  0
   14.0634  -20.0725   21.4474 C   0  0  0  0  0  0  0  0  0  0  0  0
   15.1657  -19.6615   20.8905 N   0  0  0  0  0  0  0  0  0  0  0  0
   13.7267  -19.4502   22.6936 N   0  0  0  0  0  0  0  0  0  0  0  0
   12.5755  -19.8768   23.4679 C   0  0  0  0  0  0  0  0  0  0  0  0
   11.3984  -19.0429   23.0299 C   0  0  0  0  0  0  0  0  0  0  0  0
   11.3132  -17.7160   23.6722 C   0  0  0  0  0  0  0  0  0  0  0  0
   10.2142  -16.8068   23.2633 C   0  0  2  0  0  0  0  0  0  0  0  0
   10.5617  -16.3494   21.8999 N   0  0  0  0  0  0  0  0  0  0  0  0
   10.0566  -15.5804   24.0682 C   0  0  0  0  0  0  0  0  0  0  0  0
   10.9219  -14.6380   23.9746 O   0  0  0  0  0  0  0  0  0  0  0  0
   15.7690  -18.9402   21.3353 O   0  0  0  0  0  0  0  0  0  0  0  0
    6.6698  -14.4487   25.9622 C   0  0  0  0  0  0  0  0  0  0  0  0
    7.6596  -13.4935   25.7603 C   0  0  1  0  0  0  0  0  0  0  0  0
    9.0384  -14.1511   25.8666 N   0  0  0  0  0  0  0  0  0  0  0  0
    8.9999  -15.3185   24.9760 C   0  0  0  0  0  0  0  0  0  0  0  0
    9.2875  -14.5435   27.2574 O   0  0  0  0  0  0  0  0  0  0  0  0
    9.4781  -13.6099   28.2613 O   0  0  0  0  0  0  0  0  0  0  0  0
  2  3  1  0
  2  1  1  6
  4  3  1  0
  5  4  1  0
  6  5  1  0
  7  6  1  0
  8  9  2  0
  8  2  1  0
 10 11  1  0
 11 12  2  0
 13 11  1  0
 13 14  1  0
 15 14  1  0
 16 15  1  0
 17 16  1  1
 17 18  1  0
 18  8  1  0
 19 20  2  0
 19 17  1  0
 22 21  1  0
 23 24  1  0
 23 22  1  6
 24 19  1  0
 25 23  1  0
 26 25  1  0
 27 25  2  0
M  END
$$$$
