KRS.pdb
     RDKit          3D

 27 26  0  0  1  0  0  0  0  0999 V2000
   13.3172  -18.2050   17.9556 N   0  0  0  0  0  0  0  0  0  0  0  0
   12.4035  -18.8628   18.8685 C   0  0  1  0  0  0  0  0  0  0  0  0
   12.9944  -20.1951   19.2388 C   0  0  0  0  0  0  0  0  0  0  0  0
   13.8094  -20.7470   18.0938 C   0  0  0  0  0  0  0  0  0  0  0  0
   14.4171  -22.0829   18.3476 C   0  0  0  0  0  0  0  0  0  0  0  0
   15.2133  -22.4632   17.1164 C   0  0  0  0  0  0  0  0  0  0  0  0
   15.9293  -23.6983   17.2929 N   0  0  0  0  0  0  0  0  0  0  0  0
   12.1161  -18.0149   20.0394 C   0  0  0  0  0  0  0  0  0  0  0  0
   13.0886  -17.4316   20.6077 O   0  0  0  0  0  0  0  0  0  0  0  0
    9.4743  -13.0506   20.6412 N   0  0  0  0  0  0  0  0  0  0  0  0
    8.1003  -13.1223   20.2811 C   0  0  0  0  0  0  0  0  0  0  0  0
    7.4984  -12.1388   19.6774 N   0  0  0  0  0  0  0  0  0  0  0  0
    7.2905  -14.2722   20.5558 N   0  0  0  0  0  0  0  0  0  0  0  0
    7.2294  -14.8576   21.8826 C   0  0  0  0  0  0  0  0  0  0  0  0
    8.6188  -15.3208   22.2398 C   0  0  0  0  0  0  0  0  0  0  0  0
    9.1822  -16.3340   21.3253 C   0  0  0  0  0  0  0  0  0  0  0  0
   10.4886  -16.9456   21.6733 C   0  0  2  0  0  0  0  0  0  0  0  0
   10.8281  -17.8330   20.5393 N   0  0  0  0  0  0  0  0  0  0  0  0
   10.5006  -17.8061   22.8717 C   0  0  0  0  0  0  0  0  0  0  0  0
    9.8929  -18.9358   22.8545 O   0  0  0  0  0  0  0  0  0  0  0  0
    6.5124  -12.2145   19.3548 O   0  0  0  0  0  0  0  0  0  0  0  0
   13.3602  -18.2926   25.6612 C   0  0  0  0  0  0  0  0  0  0  0  0
   12.1269  -17.9928   26.2286 C   0  0  2  0  0  0  0  0  0  0  0  0
   11.0065  -18.3893   25.2629 N   0  0  0  0  0  0  0  0  0  0  0  0
   11.1441  -17.5048   24.0983 C   0  0  0  0  0  0  0  0  0  0  0  0
    9.7080  -18.2138   25.9214 O   0  0  0  0  0  0  0  0  0  0  0  0
    9.3142  -18.9999   26.9904 O   0  0  0  0  0  0  0  0  0  0  0  0
  2  3  1  0
  2  1  1  6
  4  3  1  0
  5  4  1  0
  6  5  1  0
  7  6  1  0
  8  9  2  0
  8  2  1  0
 10 11  1  0
 11 12  2  0
 13 11  1  0
 13 14  1  0
 15 14  1  0
 16 15  1  0
 17 16  1  6
 17 18  1  0
 18  8  1  0
 19 20  2  0
 19 17  1  0
 22 21  1  0
 23 24  1  0
 23 22  1  6
 24 19  1  0
 25 23  1  0
 26 25  1  0
 27 25  2  0
M  END
$$$$
