KRS.pdb
     RDKit          3D

 27 26  0  0  1  0  0  0  0  0999 V2000
   12.1995  -17.3323   14.5124 N   0  0  0  0  0  0  0  0  0  0  0  0
   11.0891  -17.2025   15.4349 C   0  0  1  0  0  0  0  0  0  0  0  0
   10.6069  -18.5844   15.7801 C   0  0  0  0  0  0  0  0  0  0  0  0
    9.8784  -19.1968   14.6079 C   0  0  0  0  0  0  0  0  0  0  0  0
    9.2346  -20.5099   14.8904 C   0  0  0  0  0  0  0  0  0  0  0  0
    8.5805  -20.9824   13.6085 C   0  0  0  0  0  0  0  0  0  0  0  0
    8.0175  -22.2996   13.7398 N   0  0  0  0  0  0  0  0  0  0  0  0
   11.4690  -16.4125   16.6198 C   0  0  0  0  0  0  0  0  0  0  0  0
   12.6873  -16.4129   16.9725 O   0  0  0  0  0  0  0  0  0  0  0  0
    5.8674  -14.5161   21.4340 N   0  0  0  0  0  0  0  0  0  0  0  0
    6.8062  -13.4496   21.3732 C   0  0  0  0  0  0  0  0  0  0  0  0
    7.2260  -12.8448   22.4466 N   0  0  0  0  0  0  0  0  0  0  0  0
    7.3502  -12.9710   20.1368 N   0  0  0  0  0  0  0  0  0  0  0  0
    8.5689  -12.1834   20.0986 C   0  0  0  0  0  0  0  0  0  0  0  0
    9.7278  -13.1429   20.0047 C   0  0  0  0  0  0  0  0  0  0  0  0
    9.7457  -13.9656   18.7785 C   0  0  0  0  0  0  0  0  0  0  0  0
   10.8782  -14.9033   18.5782 C   0  0  2  0  0  0  0  0  0  0  0  0
   10.5475  -15.6729   17.3587 N   0  0  0  0  0  0  0  0  0  0  0  0
   11.0823  -15.9065   19.6407 C   0  0  0  0  0  0  0  0  0  0  0  0
   10.2441  -16.8670   19.7835 O   0  0  0  0  0  0  0  0  0  0  0  0
    7.9240  -12.0747   22.4047 O   0  0  0  0  0  0  0  0  0  0  0  0
   14.3848  -15.9667   21.9875 C   0  0  0  0  0  0  0  0  0  0  0  0
   13.7360  -17.1886   21.8499 C   0  0  1  0  0  0  0  0  0  0  0  0
   12.2422  -16.9535   21.6085 N   0  0  0  0  0  0  0  0  0  0  0  0
   12.1581  -15.9246   20.5636 C   0  0  0  0  0  0  0  0  0  0  0  0
   11.6094  -16.5083   22.8542 O   0  0  0  0  0  0  0  0  0  0  0  0
   11.5833  -17.3004   23.9889 O   0  0  0  0  0  0  0  0  0  0  0  0
  2  3  1  0
  2  1  1  6
  4  3  1  0
  5  4  1  0
  6  5  1  0
  7  6  1  0
  8  9  2  0
  8  2  1  0
 10 11  1  0
 11 12  2  0
 13 11  1  0
 13 14  1  0
 15 14  1  0
 16 15  1  0
 17 16  1  1
 17 18  1  0
 18  8  1  0
 19 20  2  0
 19 17  1  0
 22 21  1  0
 23 24  1  0
 23 22  1  6
 24 19  1  0
 25 23  1  0
 26 25  1  0
 27 25  2  0
M  END
$$$$
