KRS.pdb
     RDKit          3D

 27 26  0  0  1  0  0  0  0  0999 V2000
    9.0671  -18.3561   17.2251 N   0  0  0  0  0  0  0  0  0  0  0  0
    8.6874  -18.9917   18.4712 C   0  0  1  0  0  0  0  0  0  0  0  0
    9.1717  -20.4149   18.4340 C   0  0  0  0  0  0  0  0  0  0  0  0
    8.8994  -21.0293   17.0819 C   0  0  0  0  0  0  0  0  0  0  0  0
    9.2477  -22.4732   16.9713 C   0  0  0  0  0  0  0  0  0  0  0  0
    8.9027  -22.9193   15.5654 C   0  0  0  0  0  0  0  0  0  0  0  0
    9.3472  -24.2607   15.2969 N   0  0  0  0  0  0  0  0  0  0  0  0
    9.1982  -18.2398   19.6314 C   0  0  0  0  0  0  0  0  0  0  0  0
   10.3123  -17.6450   19.5143 O   0  0  0  0  0  0  0  0  0  0  0  0
    7.6145  -19.7923   25.4529 N   0  0  0  0  0  0  0  0  0  0  0  0
    7.6122  -18.9355   26.5881 C   0  0  0  0  0  0  0  0  0  0  0  0
    7.8970  -19.3762   27.7792 N   0  0  0  0  0  0  0  0  0  0  0  0
    7.2987  -17.5400   26.5000 N   0  0  0  0  0  0  0  0  0  0  0  0
    6.8813  -16.9338   25.2489 C   0  0  0  0  0  0  0  0  0  0  0  0
    8.0853  -16.8854   24.3429 C   0  0  0  0  0  0  0  0  0  0  0  0
    7.8617  -17.4443   22.9945 C   0  0  0  0  0  0  0  0  0  0  0  0
    8.9892  -17.4243   22.0300 C   0  0  2  0  0  0  0  0  0  0  0  0
    8.5085  -18.1598   20.8397 N   0  0  0  0  0  0  0  0  0  0  0  0
   10.2189  -18.1178   22.4587 C   0  0  0  0  0  0  0  0  0  0  0  0
   10.2238  -19.3948   22.5812 O   0  0  0  0  0  0  0  0  0  0  0  0
    7.8716  -18.7562   28.6140 O   0  0  0  0  0  0  0  0  0  0  0  0
   13.7707  -16.2576   22.7406 C   0  0  0  0  0  0  0  0  0  0  0  0
   13.8427  -17.6406   22.6175 C   0  0  1  0  0  0  0  0  0  0  0  0
   12.5999  -18.2783   23.2451 N   0  0  0  0  0  0  0  0  0  0  0  0
   11.4553  -17.4946   22.7624 C   0  0  0  0  0  0  0  0  0  0  0  0
   12.7089  -18.2272   24.7066 O   0  0  0  0  0  0  0  0  0  0  0  0
   11.7973  -17.5381   25.4877 O   0  0  0  0  0  0  0  0  0  0  0  0
  2  3  1  0
  2  1  1  6
  4  3  1  0
  5  4  1  0
  6  5  1  0
  7  6  1  0
  8  9  2  0
  8  2  1  0
 10 11  1  0
 11 12  2  0
 13 11  1  0
 13 14  1  0
 15 14  1  0
 16 15  1  0
 17 16  1  1
 17 18  1  0
 18  8  1  0
 19 20  2  0
 19 17  1  0
 22 21  1  0
 23 24  1  0
 23 22  1  6
 24 19  1  0
 25 23  1  0
 26 25  1  0
 27 25  2  0
M  END
$$$$
