KRS.pdb
     RDKit          3D

 27 26  0  0  1  0  0  0  0  0999 V2000
   11.2587  -19.8381   15.3302 N   0  0  0  0  0  0  0  0  0  0  0  0
   10.9284  -20.0366   16.7274 C   0  0  1  0  0  0  0  0  0  0  0  0
   11.8270  -21.1136   17.2696 C   0  0  0  0  0  0  0  0  0  0  0  0
   12.9223  -21.4337   16.2809 C   0  0  0  0  0  0  0  0  0  0  0  0
   13.8447  -22.5242   16.7031 C   0  0  0  0  0  0  0  0  0  0  0  0
   14.9072  -22.6631   15.6325 C   0  0  0  0  0  0  0  0  0  0  0  0
   15.8428  -23.7146   15.9291 N   0  0  0  0  0  0  0  0  0  0  0  0
   11.0218  -18.7744   17.4827 C   0  0  0  0  0  0  0  0  0  0  0  0
   11.7530  -17.8503   17.0135 O   0  0  0  0  0  0  0  0  0  0  0  0
    6.5652  -12.8818   18.7645 N   0  0  0  0  0  0  0  0  0  0  0  0
    7.9412  -12.9200   19.1224 C   0  0  0  0  0  0  0  0  0  0  0  0
    8.7277  -11.9013   18.9280 N   0  0  0  0  0  0  0  0  0  0  0  0
    8.5515  -14.0724   19.7164 N   0  0  0  0  0  0  0  0  0  0  0  0
    7.7610  -15.0893   20.3857 C   0  0  0  0  0  0  0  0  0  0  0  0
    8.7182  -16.0863   20.9879 C   0  0  0  0  0  0  0  0  0  0  0  0
    9.0173  -17.2476   20.1263 C   0  0  0  0  0  0  0  0  0  0  0  0
   10.3172  -17.2755   19.4111 C   0  0  2  0  0  0  0  0  0  0  0  0
   10.3430  -18.5621   18.6811 N   0  0  0  0  0  0  0  0  0  0  0  0
   11.5229  -17.2743   20.2615 C   0  0  0  0  0  0  0  0  0  0  0  0
   11.8437  -18.3284   20.9185 O   0  0  0  0  0  0  0  0  0  0  0  0
    9.7505  -11.9557   19.1095 O   0  0  0  0  0  0  0  0  0  0  0  0
   14.9040  -14.9806   19.8385 C   0  0  0  0  0  0  0  0  0  0  0  0
   14.3756  -14.9981   21.1244 C   0  0  2  0  0  0  0  0  0  0  0  0
   13.5691  -16.2834   21.3315 N   0  0  0  0  0  0  0  0  0  0  0  0
   12.4083  -16.1813   20.4373 C   0  0  0  0  0  0  0  0  0  0  0  0
   13.1593  -16.3830   22.7359 O   0  0  0  0  0  0  0  0  0  0  0  0
   11.8278  -16.3925   23.1139 O   0  0  0  0  0  0  0  0  0  0  0  0
  2  3  1  0
  2  1  1  6
  4  3  1  0
  5  4  1  0
  6  5  1  0
  7  6  1  0
  8  9  2  0
  8  2  1  0
 10 11  1  0
 11 12  2  0
 13 11  1  0
 13 14  1  0
 15 14  1  0
 16 15  1  0
 17 16  1  1
 17 18  1  0
 18  8  1  0
 19 20  2  0
 19 17  1  0
 22 21  1  0
 23 24  1  0
 23 22  1  6
 24 19  1  0
 25 23  1  0
 26 25  1  0
 27 25  2  0
M  END
$$$$
