KRS.pdb
     RDKit          3D

 27 26  0  0  1  0  0  0  0  0999 V2000
    2.0570  -18.7116   22.2228 N   0  0  0  0  0  0  0  0  0  0  0  0
    2.9840  -19.8253   22.1848 C   0  0  1  0  0  0  0  0  0  0  0  0
    2.5856  -20.7237   21.0467 C   0  0  0  0  0  0  0  0  0  0  0  0
    2.1085  -22.0574   21.5698 C   0  0  0  0  0  0  0  0  0  0  0  0
    0.9896  -21.9791   22.5497 C   0  0  0  0  0  0  0  0  0  0  0  0
    0.6705  -23.3924   22.9916 C   0  0  0  0  0  0  0  0  0  0  0  0
    1.4807  -23.8093   24.1047 N   0  0  0  0  0  0  0  0  0  0  0  0
    4.3780  -19.3565   22.0876 C   0  0  0  0  0  0  0  0  0  0  0  0
    5.2852  -20.2187   21.8822 O   0  0  0  0  0  0  0  0  0  0  0  0
    9.6169  -12.9074   18.1325 N   0  0  0  0  0  0  0  0  0  0  0  0
    8.3472  -13.2598   18.6677 C   0  0  0  0  0  0  0  0  0  0  0  0
    7.2970  -13.3903   17.9100 N   0  0  0  0  0  0  0  0  0  0  0  0
    8.1380  -13.4934   20.0660 N   0  0  0  0  0  0  0  0  0  0  0  0
    6.8667  -13.9775   20.5723 C   0  0  0  0  0  0  0  0  0  0  0  0
    7.1233  -15.2929   21.2628 C   0  0  0  0  0  0  0  0  0  0  0  0
    5.9425  -16.1739   21.3634 C   0  0  0  0  0  0  0  0  0  0  0  0
    6.1028  -17.4900   22.0298 C   0  0  2  0  0  0  0  0  0  0  0  0
    4.7313  -18.0142   22.2119 N   0  0  0  0  0  0  0  0  0  0  0  0
    6.7026  -17.4633   23.3775 C   0  0  0  0  0  0  0  0  0  0  0  0
    6.0676  -16.9184   24.3499 O   0  0  0  0  0  0  0  0  0  0  0  0
    6.3881  -13.7286   18.2860 O   0  0  0  0  0  0  0  0  0  0  0  0
    9.4845  -19.9607   24.6170 C   0  0  0  0  0  0  0  0  0  0  0  0
    8.8166  -19.2377   25.5989 C   0  0  1  0  0  0  0  0  0  0  0  0
    8.5119  -17.8286   25.0824 N   0  0  0  0  0  0  0  0  0  0  0  0
    7.9652  -18.0026   23.7303 C   0  0  0  0  0  0  0  0  0  0  0  0
    9.7456  -17.0360   25.0661 O   0  0  0  0  0  0  0  0  0  0  0  0
   10.4307  -16.7191   26.2263 O   0  0  0  0  0  0  0  0  0  0  0  0
  2  3  1  0
  2  1  1  6
  4  3  1  0
  5  4  1  0
  6  5  1  0
  7  6  1  0
  8  9  2  0
  8  2  1  0
 10 11  1  0
 11 12  2  0
 13 11  1  0
 13 14  1  0
 15 14  1  0
 16 15  1  0
 17 16  1  1
 17 18  1  0
 18  8  1  0
 19 20  2  0
 19 17  1  0
 22 21  1  0
 23 24  1  0
 23 22  1  1
 24 19  1  0
 25 23  1  0
 26 25  1  0
 27 25  2  0
M  END
$$$$
