KRS.pdb
     RDKit          3D

 27 26  0  0  1  0  0  0  0  0999 V2000
    8.7944  -13.5961   18.6281 N   0  0  0  0  0  0  0  0  0  0  0  0
    9.2571  -14.4448   19.7081 C   0  0  1  0  0  0  0  0  0  0  0  0
   10.7025  -14.1210   19.9678 C   0  0  0  0  0  0  0  0  0  0  0  0
   11.5722  -14.6664   18.8605 C   0  0  0  0  0  0  0  0  0  0  0  0
   13.0370  -14.5304   19.0933 C   0  0  0  0  0  0  0  0  0  0  0  0
   13.7454  -15.0569   17.8623 C   0  0  0  0  0  0  0  0  0  0  0  0
   15.1758  -15.0480   18.0134 N   0  0  0  0  0  0  0  0  0  0  0  0
    8.4097  -14.2958   20.9048 C   0  0  0  0  0  0  0  0  0  0  0  0
    7.8642  -13.1700   21.1140 O   0  0  0  0  0  0  0  0  0  0  0  0
    7.0751  -21.1934   22.9695 N   0  0  0  0  0  0  0  0  0  0  0  0
    6.8079  -20.8941   24.3340 C   0  0  0  0  0  0  0  0  0  0  0  0
    7.1237  -21.7185   25.2904 N   0  0  0  0  0  0  0  0  0  0  0  0
    6.1779  -19.6749   24.7466 N   0  0  0  0  0  0  0  0  0  0  0  0
    5.7849  -18.6609   23.7852 C   0  0  0  0  0  0  0  0  0  0  0  0
    6.7345  -17.4997   23.9350 C   0  0  0  0  0  0  0  0  0  0  0  0
    6.4555  -16.3592   23.0395 C   0  0  0  0  0  0  0  0  0  0  0  0
    7.3969  -15.2121   23.0487 C   0  0  2  0  0  0  0  0  0  0  0  0
    8.1886  -15.3362   21.8052 N   0  0  0  0  0  0  0  0  0  0  0  0
    8.3803  -15.1919   24.1484 C   0  0  0  0  0  0  0  0  0  0  0  0
    9.4955  -15.8131   24.0210 O   0  0  0  0  0  0  0  0  0  0  0  0
    6.8993  -21.5156   26.2856 O   0  0  0  0  0  0  0  0  0  0  0  0
    9.7630  -13.6859   28.5648 C   0  0  0  0  0  0  0  0  0  0  0  0
    8.8354  -13.6440   27.5301 C   0  0  2  0  0  0  0  0  0  0  0  0
    9.2025  -14.6843   26.4679 N   0  0  0  0  0  0  0  0  0  0  0  0
    8.2181  -14.5261   25.3892 C   0  0  0  0  0  0  0  0  0  0  0  0
    9.1447  -16.0261   27.0566 O   0  0  0  0  0  0  0  0  0  0  0  0
    7.9966  -16.7982   27.0142 O   0  0  0  0  0  0  0  0  0  0  0  0
  2  3  1  0
  2  1  1  6
  4  3  1  0
  5  4  1  0
  6  5  1  0
  7  6  1  0
  8  9  2  0
  8  2  1  0
 10 11  1  0
 11 12  2  0
 13 11  1  0
 13 14  1  0
 15 14  1  0
 16 15  1  0
 17 16  1  1
 17 18  1  0
 18  8  1  0
 19 20  2  0
 19 17  1  0
 22 21  1  0
 23 24  1  0
 23 22  1  6
 24 19  1  0
 25 23  1  0
 26 25  1  0
 27 25  2  0
M  END
$$$$
