KRS.pdb
     RDKit          3D

 27 26  0  0  1  0  0  0  0  0999 V2000
    6.5188  -20.8234   21.3512 N   0  0  0  0  0  0  0  0  0  0  0  0
    7.9037  -20.9616   20.9465 C   0  0  1  0  0  0  0  0  0  0  0  0
    7.9264  -21.4175   19.5137 C   0  0  0  0  0  0  0  0  0  0  0  0
    6.8263  -22.4205   19.2619 C   0  0  0  0  0  0  0  0  0  0  0  0
    6.7825  -22.9637   17.8758 C   0  0  0  0  0  0  0  0  0  0  0  0
    5.6158  -23.9268   17.7999 C   0  0  0  0  0  0  0  0  0  0  0  0
    5.4398  -24.4633   16.4769 N   0  0  0  0  0  0  0  0  0  0  0  0
    8.6510  -19.7100   21.1645 C   0  0  0  0  0  0  0  0  0  0  0  0
    9.9061  -19.7243   20.9826 O   0  0  0  0  0  0  0  0  0  0  0  0
    7.9307  -13.0994   17.9316 N   0  0  0  0  0  0  0  0  0  0  0  0
    8.2334  -12.2834   19.0564 C   0  0  0  0  0  0  0  0  0  0  0  0
    8.9513  -11.2034   18.9454 N   0  0  0  0  0  0  0  0  0  0  0  0
    7.7731  -12.5910   20.3782 N   0  0  0  0  0  0  0  0  0  0  0  0
    7.1294  -13.8560   20.6820 C   0  0  0  0  0  0  0  0  0  0  0  0
    8.2007  -14.8133   21.1388 C   0  0  0  0  0  0  0  0  0  0  0  0
    7.7275  -16.1893   21.3905 C   0  0  0  0  0  0  0  0  0  0  0  0
    8.7341  -17.2299   21.7158 C   0  0  2  0  0  0  0  0  0  0  0  0
    8.0346  -18.5240   21.5590 N   0  0  0  0  0  0  0  0  0  0  0  0
    9.2508  -17.2197   23.0977 C   0  0  0  0  0  0  0  0  0  0  0  0
    8.4656  -17.4864   24.0765 O   0  0  0  0  0  0  0  0  0  0  0  0
    9.2095  -10.6290   19.7734 O   0  0  0  0  0  0  0  0  0  0  0  0
   11.5803  -19.3016   26.0445 C   0  0  0  0  0  0  0  0  0  0  0  0
   11.0458  -18.8501   24.8431 C   0  0  1  0  0  0  0  0  0  0  0  0
   11.0956  -17.3201   24.8007 N   0  0  0  0  0  0  0  0  0  0  0  0
   10.5864  -16.9350   23.4779 C   0  0  0  0  0  0  0  0  0  0  0  0
   12.4773  -16.8699   24.9973 O   0  0  0  0  0  0  0  0  0  0  0  0
   13.1084  -16.9505   26.2266 O   0  0  0  0  0  0  0  0  0  0  0  0
  2  3  1  0
  2  1  1  6
  4  3  1  0
  5  4  1  0
  6  5  1  0
  7  6  1  0
  8  9  2  0
  8  2  1  0
 10 11  1  0
 11 12  2  0
 13 11  1  0
 13 14  1  0
 15 14  1  0
 16 15  1  0
 17 16  1  1
 17 18  1  0
 18  8  1  0
 19 20  2  0
 19 17  1  0
 22 21  1  0
 23 24  1  0
 23 22  1  1
 24 19  1  0
 25 23  1  0
 26 25  1  0
 27 25  2  0
M  END
$$$$
