KRS.pdb
     RDKit          3D

 27 26  0  0  1  0  0  0  0  0999 V2000
    7.4536  -17.2891   19.8234 N   0  0  0  0  0  0  0  0  0  0  0  0
    8.1630  -16.2195   20.4968 C   0  0  1  0  0  0  0  0  0  0  0  0
    7.7595  -14.9192   19.8582 C   0  0  0  0  0  0  0  0  0  0  0  0
    8.1804  -14.8908   18.4084 C   0  0  0  0  0  0  0  0  0  0  0  0
    7.7364  -13.6862   17.6534 C   0  0  0  0  0  0  0  0  0  0  0  0
    8.1409  -13.8799   16.2066 C   0  0  0  0  0  0  0  0  0  0  0  0
    7.7342  -12.7775   15.3768 N   0  0  0  0  0  0  0  0  0  0  0  0
    7.9175  -16.2480   21.9498 C   0  0  0  0  0  0  0  0  0  0  0  0
    6.7478  -16.5281   22.3526 O   0  0  0  0  0  0  0  0  0  0  0  0
   13.3705  -18.7657   28.4997 N   0  0  0  0  0  0  0  0  0  0  0  0
   12.1753  -18.2595   29.0811 C   0  0  0  0  0  0  0  0  0  0  0  0
   11.9283  -18.3802   30.3533 N   0  0  0  0  0  0  0  0  0  0  0  0
   11.1690  -17.5877   28.3133 N   0  0  0  0  0  0  0  0  0  0  0  0
   11.2274  -17.5390   26.8637 C   0  0  0  0  0  0  0  0  0  0  0  0
    9.9854  -16.8331   26.3821 C   0  0  0  0  0  0  0  0  0  0  0  0
    9.8801  -16.7091   24.9144 C   0  0  0  0  0  0  0  0  0  0  0  0
    8.7084  -15.9929   24.3522 C   0  0  2  0  0  0  0  0  0  0  0  0
    8.9137  -15.9812   22.8871 N   0  0  0  0  0  0  0  0  0  0  0  0
    8.5648  -14.5786   24.7470 C   0  0  0  0  0  0  0  0  0  0  0  0
    9.4865  -13.7357   24.4540 O   0  0  0  0  0  0  0  0  0  0  0  0
   11.0513  -18.0167   30.7785 O   0  0  0  0  0  0  0  0  0  0  0  0
    5.2963  -13.1438   26.7143 C   0  0  0  0  0  0  0  0  0  0  0  0
    6.0879  -12.1764   26.1057 C   0  0  1  0  0  0  0  0  0  0  0  0
    7.5337  -12.6738   26.0207 N   0  0  0  0  0  0  0  0  0  0  0  0
    7.4641  -14.0243   25.4473 C   0  0  0  0  0  0  0  0  0  0  0  0
    8.1257  -12.6887   27.3622 O   0  0  0  0  0  0  0  0  0  0  0  0
    8.4920  -13.8664   27.9905 O   0  0  0  0  0  0  0  0  0  0  0  0
  2  3  1  0
  2  1  1  6
  4  3  1  0
  5  4  1  0
  6  5  1  0
  7  6  1  0
  8  9  2  0
  8  2  1  0
 10 11  1  0
 11 12  2  0
 13 11  1  0
 13 14  1  0
 15 14  1  0
 16 15  1  0
 17 16  1  1
 17 18  1  0
 18  8  1  0
 19 20  2  0
 19 17  1  0
 22 21  1  0
 23 24  1  0
 23 22  1  6
 24 19  1  0
 25 23  1  0
 26 25  1  0
 27 25  2  0
M  END
$$$$
