KRS.pdb
     RDKit          3D

 27 26  0  0  1  0  0  0  0  0999 V2000
   11.6776  -19.7662   17.8497 N   0  0  0  0  0  0  0  0  0  0  0  0
   12.7754  -18.8222   17.9163 C   0  0  1  0  0  0  0  0  0  0  0  0
   12.9431  -18.2066   16.5545 C   0  0  0  0  0  0  0  0  0  0  0  0
   12.6778  -19.2303   15.4768 C   0  0  0  0  0  0  0  0  0  0  0  0
   13.0026  -18.7797   14.0949 C   0  0  0  0  0  0  0  0  0  0  0  0
   12.3303  -19.7374   13.1329 C   0  0  0  0  0  0  0  0  0  0  0  0
   12.6700  -19.4589   11.7632 N   0  0  0  0  0  0  0  0  0  0  0  0
   12.5564  -17.8226   18.9771 C   0  0  0  0  0  0  0  0  0  0  0  0
   13.4693  -16.9683   19.1905 O   0  0  0  0  0  0  0  0  0  0  0  0
    7.7552  -12.4132   22.0619 N   0  0  0  0  0  0  0  0  0  0  0  0
    7.4750  -12.8989   20.7549 C   0  0  0  0  0  0  0  0  0  0  0  0
    7.2499  -12.0925   19.7584 N   0  0  0  0  0  0  0  0  0  0  0  0
    7.4216  -14.2975   20.4473 N   0  0  0  0  0  0  0  0  0  0  0  0
    7.5949  -15.3074   21.4754 C   0  0  0  0  0  0  0  0  0  0  0  0
    9.0757  -15.5301   21.6492 C   0  0  0  0  0  0  0  0  0  0  0  0
    9.6821  -16.4328   20.6502 C   0  0  0  0  0  0  0  0  0  0  0  0
   11.1190  -16.7749   20.7931 C   0  0  2  0  0  0  0  0  0  0  0  0
   11.3948  -17.7829   19.7459 N   0  0  0  0  0  0  0  0  0  0  0  0
   11.5094  -17.4061   22.0682 C   0  0  0  0  0  0  0  0  0  0  0  0
   10.9398  -18.4918   22.4456 O   0  0  0  0  0  0  0  0  0  0  0  0
    7.0280  -12.4465   18.8058 O   0  0  0  0  0  0  0  0  0  0  0  0
   14.2742  -15.7865   24.6215 C   0  0  0  0  0  0  0  0  0  0  0  0
   14.1622  -17.1716   24.6657 C   0  0  1  0  0  0  0  0  0  0  0  0
   12.7491  -17.5870   24.2463 N   0  0  0  0  0  0  0  0  0  0  0  0
   12.4951  -16.9191   22.9630 C   0  0  0  0  0  0  0  0  0  0  0  0
   11.7901  -17.1642   25.2719 O   0  0  0  0  0  0  0  0  0  0  0  0
   11.8178  -17.6741   26.5585 O   0  0  0  0  0  0  0  0  0  0  0  0
  2  3  1  0
  2  1  1  6
  4  3  1  0
  5  4  1  0
  6  5  1  0
  7  6  1  0
  8  9  2  0
  8  2  1  0
 10 11  1  0
 11 12  2  0
 13 11  1  0
 13 14  1  0
 15 14  1  0
 16 15  1  0
 17 16  1  1
 17 18  1  0
 18  8  1  0
 19 20  2  0
 19 17  1  0
 22 21  1  0
 23 24  1  0
 23 22  1  6
 24 19  1  0
 25 23  1  0
 26 25  1  0
 27 25  2  0
M  END
$$$$
