TMH.pdb
     RDKit          3D

 26 26  0  0  1  0  0  0  0  0999 V2000
   27.2595  -11.8451  -15.3924 C   0  0  0  0  0  0  0  0  0  0  0  0
   26.0204  -11.0108  -15.6393 C   0  0  1  0  0  0  0  0  0  0  0  0
   26.2947  -10.0966  -16.6430 O   0  0  0  0  0  0  0  0  0  0  0  0
   24.9126  -11.9402  -16.0295 C   0  0  2  0  0  0  0  0  0  0  0  0
   25.3005  -12.6412  -17.2393 N   0  0  0  0  0  0  0  0  0  0  0  0
   23.6267  -11.2426  -16.2894 C   0  0  0  0  0  0  0  0  0  0  0  0
   23.2627  -10.9552  -17.4614 O   0  0  0  0  0  0  0  0  0  0  0  0
   18.0316  -14.5355  -15.5226 C   0  0  0  0  0  0  0  0  0  0  0  0
   18.6058  -13.0375  -14.6774 S   0  0  0  0  0  0  0  0  0  0  0  0
   19.9303  -12.2168  -15.6110 C   0  0  0  0  0  0  0  0  0  0  0  0
   20.3581  -11.0056  -14.8525 C   0  0  0  0  0  0  0  0  0  0  0  0
   21.4377  -10.2068  -15.5146 C   0  0  2  0  0  0  0  0  0  0  0  0
   22.7373  -10.8598  -15.2519 N   0  0  0  0  0  0  0  0  0  0  0  0
   21.5142   -8.7956  -15.0949 C   0  0  0  0  0  0  0  0  0  0  0  0
   22.1551   -8.5666  -14.0040 O   0  0  0  0  0  0  0  0  0  0  0  0
   20.9837   -7.6822  -15.7346 N   0  0  0  0  0  0  0  0  0  0  0  0
   21.1192   -6.3525  -15.1278 C   0  0  1  0  0  0  0  0  0  0  0  0
   21.5840   -5.3262  -16.1349 C   0  0  0  0  0  0  0  0  0  0  0  0
   21.6679   -3.9792  -15.5220 C   0  0  0  0  0  0  0  0  0  0  0  0
   20.6320   -3.0795  -15.5558 C   0  0  0  0  0  0  0  0  0  0  0  0
   21.0782   -1.9731  -14.8992 N   0  0  0  0  0  0  0  0  0  0  0  0
   22.3394   -2.1713  -14.4727 C   0  0  0  0  0  0  0  0  0  0  0  0
   22.6888   -3.4132  -14.8647 N   0  0  0  0  0  0  0  0  0  0  0  0
   19.8161   -5.9103  -14.5540 C   0  0  0  0  0  0  0  0  0  0  0  0
   18.7157   -6.2793  -15.0378 O   0  0  0  0  0  0  0  0  0  0  0  0
   19.8506   -5.0692  -13.4573 O   0  0  0  0  0  0  0  0  0  0  0  0
  2  1  1  6
  2  4  1  0
  3  2  1  0
  4  6  1  0
  4  5  1  6
  6  7  2  0
  9  8  1  0
 10  9  1  0
 11 10  1  0
 12 11  1  1
 12 14  1  0
 13  6  1  0
 13 12  1  0
 14 15  2  0
 16 17  1  0
 16 14  1  0
 17 24  1  0
 17 18  1  6
 19 20  2  0
 19 18  1  0
 21 20  1  0
 22 23  2  0
 22 21  1  0
 23 19  1  0
 24 25  2  0
 24 26  1  0
M  END
$$$$
