TMH.pdb
     RDKit          3D

 26 26  0  0  1  0  0  0  0  0999 V2000
   19.4823  -12.2764  -22.3632 C   0  0  0  0  0  0  0  0  0  0  0  0
   19.9563  -11.3765  -21.2416 C   0  0  1  0  0  0  0  0  0  0  0  0
   18.8504  -10.9123  -20.5487 O   0  0  0  0  0  0  0  0  0  0  0  0
   20.8601  -12.1815  -20.3594 C   0  0  2  0  0  0  0  0  0  0  0  0
   20.1055  -13.2956  -19.8162 N   0  0  0  0  0  0  0  0  0  0  0  0
   21.4179  -11.4015  -19.2244 C   0  0  0  0  0  0  0  0  0  0  0  0
   20.8712  -11.4155  -18.0887 O   0  0  0  0  0  0  0  0  0  0  0  0
   26.0807   -9.5202  -14.3878 C   0  0  0  0  0  0  0  0  0  0  0  0
   25.3364  -10.2510  -15.8710 S   0  0  0  0  0  0  0  0  0  0  0  0
   25.3530   -9.0848  -17.2637 C   0  0  0  0  0  0  0  0  0  0  0  0
   24.6268   -9.7092  -18.4074 C   0  0  0  0  0  0  0  0  0  0  0  0
   23.1488   -9.8414  -18.2072 C   0  0  2  0  0  0  0  0  0  0  0  0
   22.5845  -10.6020  -19.3417 N   0  0  0  0  0  0  0  0  0  0  0  0
   22.4222   -8.5656  -18.0738 C   0  0  0  0  0  0  0  0  0  0  0  0
   22.2920   -7.8764  -19.1514 O   0  0  0  0  0  0  0  0  0  0  0  0
   21.8569   -8.0180  -16.9288 N   0  0  0  0  0  0  0  0  0  0  0  0
   21.1548   -6.7308  -16.9997 C   0  0  1  0  0  0  0  0  0  0  0  0
   19.8748   -6.7503  -16.1969 C   0  0  0  0  0  0  0  0  0  0  0  0
   19.1451   -5.4667  -16.3275 C   0  0  0  0  0  0  0  0  0  0  0  0
   18.7783   -4.9383  -17.5400 C   0  0  0  0  0  0  0  0  0  0  0  0
   18.1373   -3.7703  -17.2584 N   0  0  0  0  0  0  0  0  0  0  0  0
   18.1043   -3.5755  -15.9271 C   0  0  0  0  0  0  0  0  0  0  0  0
   18.7299   -4.6304  -15.3669 N   0  0  0  0  0  0  0  0  0  0  0  0
   22.0285   -5.6359  -16.4891 C   0  0  0  0  0  0  0  0  0  0  0  0
   23.1380   -5.8681  -15.9448 O   0  0  0  0  0  0  0  0  0  0  0  0
   21.5786   -4.3365  -16.6323 O   0  0  0  0  0  0  0  0  0  0  0  0
  2  1  1  6
  2  4  1  0
  3  2  1  0
  4  6  1  0
  4  5  1  1
  6  7  2  0
  9  8  1  0
 10  9  1  0
 11 10  1  0
 12 11  1  6
 12 14  1  0
 13  6  1  0
 13 12  1  0
 14 15  2  0
 16 17  1  0
 16 14  1  0
 17 24  1  0
 17 18  1  1
 19 20  2  0
 19 18  1  0
 21 20  1  0
 22 23  2  0
 22 21  1  0
 23 19  1  0
 24 25  2  0
 24 26  1  0
M  END
$$$$
