TMH.pdb
     RDKit          3D

 26 26  0  0  1  0  0  0  0  0999 V2000
   27.9932  -18.3130  -15.9771 C   0  0  0  0  0  0  0  0  0  0  0  0
   27.0491  -19.0189  -15.0270 C   0  0  1  0  0  0  0  0  0  0  0  0
   26.0647  -19.6507  -15.7687 O   0  0  0  0  0  0  0  0  0  0  0  0
   27.8514  -20.0001  -14.2289 C   0  0  2  0  0  0  0  0  0  0  0  0
   28.3846  -21.0045  -15.1302 N   0  0  0  0  0  0  0  0  0  0  0  0
   27.0568  -20.6918  -13.1810 C   0  0  0  0  0  0  0  0  0  0  0  0
   26.7210  -21.9004  -13.3048 O   0  0  0  0  0  0  0  0  0  0  0  0
   27.6636  -20.2537   -6.5964 C   0  0  0  0  0  0  0  0  0  0  0  0
   25.9226  -19.8958   -6.9558 S   0  0  0  0  0  0  0  0  0  0  0  0
   25.3798  -20.7149   -8.4836 C   0  0  0  0  0  0  0  0  0  0  0  0
   26.1216  -20.1115   -9.6286 C   0  0  0  0  0  0  0  0  0  0  0  0
   25.8226  -20.7313  -10.9585 C   0  0  2  0  0  0  0  0  0  0  0  0
   26.6303  -20.0480  -11.9905 N   0  0  0  0  0  0  0  0  0  0  0  0
   24.4035  -20.6966  -11.3564 C   0  0  0  0  0  0  0  0  0  0  0  0
   24.0790  -19.7876  -12.2059 O   0  0  0  0  0  0  0  0  0  0  0  0
   23.3745  -21.5275  -10.9308 N   0  0  0  0  0  0  0  0  0  0  0  0
   22.0246  -21.3677  -11.4848 C   0  0  1  0  0  0  0  0  0  0  0  0
   21.0906  -22.4499  -10.9951 C   0  0  0  0  0  0  0  0  0  0  0  0
   19.7424  -22.2997  -11.5924 C   0  0  0  0  0  0  0  0  0  0  0  0
   19.3889  -21.2280  -12.3737 C   0  0  0  0  0  0  0  0  0  0  0  0
   18.0925  -21.4403  -12.7323 N   0  0  0  0  0  0  0  0  0  0  0  0
   17.6529  -22.5950  -12.1984 C   0  0  0  0  0  0  0  0  0  0  0  0
   18.6821  -23.1131  -11.4982 N   0  0  0  0  0  0  0  0  0  0  0  0
   21.4641  -20.0388  -11.1072 C   0  0  0  0  0  0  0  0  0  0  0  0
   21.6417  -19.5408   -9.9663 O   0  0  0  0  0  0  0  0  0  0  0  0
   20.7314  -19.3571  -12.0610 O   0  0  0  0  0  0  0  0  0  0  0  0
  2  1  1  6
  2  4  1  0
  3  2  1  0
  4  6  1  0
  4  5  1  6
  6  7  2  0
  9  8  1  0
 10  9  1  0
 11 10  1  0
 12 11  1  1
 12 14  1  0
 13  6  1  0
 13 12  1  0
 14 15  2  0
 16 17  1  0
 16 14  1  0
 17 24  1  0
 17 18  1  1
 19 20  2  0
 19 18  1  0
 21 20  1  0
 22 23  2  0
 22 21  1  0
 23 19  1  0
 24 25  2  0
 24 26  1  0
M  END
$$$$
