TMH.pdb
     RDKit          3D

 26 26  0  0  1  0  0  0  0  0999 V2000
   23.6685   -7.6989  -22.4875 C   0  0  0  0  0  0  0  0  0  0  0  0
   24.6863   -8.7474  -22.0911 C   0  0  1  0  0  0  0  0  0  0  0  0
   25.0068   -9.4988  -23.2097 O   0  0  0  0  0  0  0  0  0  0  0  0
   25.8859   -8.0374  -21.5434 C   0  0  2  0  0  0  0  0  0  0  0  0
   26.8819   -9.0264  -21.1754 N   0  0  0  0  0  0  0  0  0  0  0  0
   25.5829   -7.2152  -20.3433 C   0  0  0  0  0  0  0  0  0  0  0  0
   25.3822   -7.7474  -19.2185 O   0  0  0  0  0  0  0  0  0  0  0  0
   27.5135   -1.2986  -21.2414 C   0  0  0  0  0  0  0  0  0  0  0  0
   27.6408   -1.7002  -19.4777 S   0  0  0  0  0  0  0  0  0  0  0  0
   27.1956   -3.4323  -19.1591 C   0  0  0  0  0  0  0  0  0  0  0  0
   25.7354   -3.5964  -19.4166 C   0  0  0  0  0  0  0  0  0  0  0  0
   25.2155   -4.9815  -19.1856 C   0  0  2  0  0  0  0  0  0  0  0  0
   25.5007   -5.7991  -20.3833 N   0  0  0  0  0  0  0  0  0  0  0  0
   23.7759   -5.0628  -18.8786 C   0  0  0  0  0  0  0  0  0  0  0  0
   22.9794   -4.9593  -19.8827 O   0  0  0  0  0  0  0  0  0  0  0  0
   23.1735   -5.2422  -17.6395 N   0  0  0  0  0  0  0  0  0  0  0  0
   21.7098   -5.2515  -17.5288 C   0  0  1  0  0  0  0  0  0  0  0  0
   21.2360   -6.2543  -16.5024 C   0  0  0  0  0  0  0  0  0  0  0  0
   19.7616   -6.2106  -16.3569 C   0  0  0  0  0  0  0  0  0  0  0  0
   18.9598   -5.4107  -17.1324 C   0  0  0  0  0  0  0  0  0  0  0  0
   17.6855   -5.6411  -16.7113 N   0  0  0  0  0  0  0  0  0  0  0  0
   17.6890   -6.5461  -15.7151 C   0  0  0  0  0  0  0  0  0  0  0  0
   18.9768   -6.8876  -15.5081 N   0  0  0  0  0  0  0  0  0  0  0  0
   21.2109   -3.8990  -17.1487 C   0  0  0  0  0  0  0  0  0  0  0  0
   21.8534   -3.1455  -16.3737 O   0  0  0  0  0  0  0  0  0  0  0  0
   20.0024   -3.4884  -17.6800 O   0  0  0  0  0  0  0  0  0  0  0  0
  2  1  1  6
  2  4  1  0
  3  2  1  0
  4  6  1  0
  4  5  1  1
  6  7  2  0
  9  8  1  0
 10  9  1  0
 11 10  1  0
 12 11  1  6
 12 14  1  0
 13  6  1  0
 13 12  1  0
 14 15  2  0
 16 17  1  0
 16 14  1  0
 17 24  1  0
 17 18  1  1
 19 20  2  0
 19 18  1  0
 21 20  1  0
 22 23  2  0
 22 21  1  0
 23 19  1  0
 24 25  2  0
 24 26  1  0
M  END
$$$$
