TMH.pdb
     RDKit          3D

 26 26  0  0  1  0  0  0  0  0999 V2000
   18.4451  -15.2870  -18.8550 C   0  0  0  0  0  0  0  0  0  0  0  0
   19.1114  -14.1131  -18.1693 C   0  0  1  0  0  0  0  0  0  0  0  0
   18.1277  -13.2692  -17.6805 O   0  0  0  0  0  0  0  0  0  0  0  0
   19.9700  -14.6532  -17.0674 C   0  0  2  0  0  0  0  0  0  0  0  0
   19.1252  -15.3709  -16.1311 N   0  0  0  0  0  0  0  0  0  0  0  0
   20.6976  -13.5955  -16.3194 C   0  0  0  0  0  0  0  0  0  0  0  0
   20.2437  -13.1256  -15.2415 O   0  0  0  0  0  0  0  0  0  0  0  0
   26.9375  -15.3549  -14.9376 C   0  0  0  0  0  0  0  0  0  0  0  0
   26.3303  -13.8569  -15.7596 S   0  0  0  0  0  0  0  0  0  0  0  0
   24.5976  -13.5216  -15.3292 C   0  0  0  0  0  0  0  0  0  0  0  0
   24.1433  -12.3314  -16.1054 C   0  0  0  0  0  0  0  0  0  0  0  0
   22.6796  -12.0370  -15.9915 C   0  0  2  0  0  0  0  0  0  0  0  0
   21.9320  -13.0528  -16.7618 N   0  0  0  0  0  0  0  0  0  0  0  0
   22.2774  -10.6941  -16.4481 C   0  0  0  0  0  0  0  0  0  0  0  0
   22.0349  -10.5761  -17.7053 O   0  0  0  0  0  0  0  0  0  0  0  0
   22.1236   -9.5416  -15.6875 N   0  0  0  0  0  0  0  0  0  0  0  0
   21.6374   -8.3069  -16.3150 C   0  0  1  0  0  0  0  0  0  0  0  0
   20.3039   -8.5159  -16.9944 C   0  0  0  0  0  0  0  0  0  0  0  0
   19.8546   -7.2791  -17.6765 C   0  0  0  0  0  0  0  0  0  0  0  0
   20.7137   -6.2680  -18.0280 C   0  0  0  0  0  0  0  0  0  0  0  0
   19.9440   -5.3160  -18.6243 N   0  0  0  0  0  0  0  0  0  0  0  0
   18.6583   -5.7135  -18.6452 C   0  0  0  0  0  0  0  0  0  0  0  0
   18.6195   -6.9261  -18.0569 N   0  0  0  0  0  0  0  0  0  0  0  0
   21.4959   -7.2289  -15.2948 C   0  0  0  0  0  0  0  0  0  0  0  0
   21.7141   -7.4347  -14.0737 O   0  0  0  0  0  0  0  0  0  0  0  0
   21.1118   -5.9758  -15.7347 O   0  0  0  0  0  0  0  0  0  0  0  0
  2  1  1  1
  2  4  1  0
  3  2  1  0
  4  6  1  0
  4  5  1  1
  6  7  2  0
  9  8  1  0
 10  9  1  0
 11 10  1  0
 12 11  1  6
 12 14  1  0
 13  6  1  0
 13 12  1  0
 14 15  2  0
 16 17  1  0
 16 14  1  0
 17 24  1  0
 17 18  1  1
 19 20  2  0
 19 18  1  0
 21 20  1  0
 22 23  2  0
 22 21  1  0
 23 19  1  0
 24 25  2  0
 24 26  1  0
M  END
$$$$
