TMH.pdb
     RDKit          3D

 26 26  0  0  1  0  0  0  0  0999 V2000
   19.8681  -19.8237  -17.5844 C   0  0  0  0  0  0  0  0  0  0  0  0
   20.1104  -18.4106  -17.0978 C   0  0  1  0  0  0  0  0  0  0  0  0
   19.3154  -18.1823  -15.9868 O   0  0  0  0  0  0  0  0  0  0  0  0
   21.5659  -18.2829  -16.7683 C   0  0  2  0  0  0  0  0  0  0  0  0
   21.9071  -19.2887  -15.7796 N   0  0  0  0  0  0  0  0  0  0  0  0
   21.9275  -16.9505  -16.2188 C   0  0  0  0  0  0  0  0  0  0  0  0
   21.7471  -16.6727  -15.0027 O   0  0  0  0  0  0  0  0  0  0  0  0
   26.8099  -15.5356  -14.1964 C   0  0  0  0  0  0  0  0  0  0  0  0
   25.2860  -14.8036  -14.8521 S   0  0  0  0  0  0  0  0  0  0  0  0
   25.3035  -14.7533  -16.6679 C   0  0  0  0  0  0  0  0  0  0  0  0
   24.0552  -14.0803  -17.1307 C   0  0  0  0  0  0  0  0  0  0  0  0
   22.8026  -14.5774  -16.4782 C   0  0  2  0  0  0  0  0  0  0  0  0
   22.4911  -15.9191  -17.0140 N   0  0  0  0  0  0  0  0  0  0  0  0
   21.6252  -13.7063  -16.6465 C   0  0  0  0  0  0  0  0  0  0  0  0
   21.0998  -13.6903  -17.8199 O   0  0  0  0  0  0  0  0  0  0  0  0
   21.0102  -12.9043  -15.6930 N   0  0  0  0  0  0  0  0  0  0  0  0
   19.8908  -12.0353  -16.0756 C   0  0  1  0  0  0  0  0  0  0  0  0
   18.8317  -11.9858  -14.9988 C   0  0  0  0  0  0  0  0  0  0  0  0
   17.7357  -11.0606  -15.3726 C   0  0  0  0  0  0  0  0  0  0  0  0
   17.6525  -10.4637  -16.6058 C   0  0  0  0  0  0  0  0  0  0  0  0
   16.5281   -9.6964  -16.5729 N   0  0  0  0  0  0  0  0  0  0  0  0
   15.9328   -9.8077  -15.3709 C   0  0  0  0  0  0  0  0  0  0  0  0
   16.6897  -10.6525  -14.6419 N   0  0  0  0  0  0  0  0  0  0  0  0
   20.3770  -10.6507  -16.3389 C   0  0  0  0  0  0  0  0  0  0  0  0
   21.5446  -10.2877  -16.0454 O   0  0  0  0  0  0  0  0  0  0  0  0
   19.4949   -9.7615  -16.9240 O   0  0  0  0  0  0  0  0  0  0  0  0
  2  1  1  1
  2  4  1  0
  3  2  1  0
  4  6  1  0
  4  5  1  1
  6  7  2  0
  9  8  1  0
 10  9  1  0
 11 10  1  0
 12 11  1  6
 12 14  1  0
 13  6  1  0
 13 12  1  0
 14 15  2  0
 16 17  1  0
 16 14  1  0
 17 24  1  0
 17 18  1  1
 19 20  2  0
 19 18  1  0
 21 20  1  0
 22 23  2  0
 22 21  1  0
 23 19  1  0
 24 25  2  0
 24 26  1  0
M  END
$$$$
