TMH.pdb
     RDKit          3D

 26 26  0  0  1  0  0  0  0  0999 V2000
   13.6152  -15.5032    3.3783 C   0  0  0  0  0  0  0  0  0  0  0  0
   13.1739  -16.9230    3.6642 C   0  0  1  0  0  0  0  0  0  0  0  0
   11.7924  -16.9820    3.5845 O   0  0  0  0  0  0  0  0  0  0  0  0
   13.8219  -17.8168    2.6520 C   0  0  2  0  0  0  0  0  0  0  0  0
   12.9011  -18.8891    2.3237 N   0  0  0  0  0  0  0  0  0  0  0  0
   15.0895  -18.4246    3.1332 C   0  0  0  0  0  0  0  0  0  0  0  0
   15.1184  -19.5942    3.6021 O   0  0  0  0  0  0  0  0  0  0  0  0
   21.0284  -18.2647   -0.4789 C   0  0  0  0  0  0  0  0  0  0  0  0
   20.5025  -17.4797    1.0688 S   0  0  0  0  0  0  0  0  0  0  0  0
   19.0864  -18.3480    1.8040 C   0  0  0  0  0  0  0  0  0  0  0  0
   18.7481  -17.6837    3.0961 C   0  0  0  0  0  0  0  0  0  0  0  0
   17.5406  -18.2412    3.7839 C   0  0  2  0  0  0  0  0  0  0  0  0
   16.3319  -17.7397    3.0971 N   0  0  0  0  0  0  0  0  0  0  0  0
   17.4428  -17.9280    5.2212 C   0  0  0  0  0  0  0  0  0  0  0  0
   16.6864  -16.9354    5.5309 O   0  0  0  0  0  0  0  0  0  0  0  0
   18.0630  -18.5753    6.2827 N   0  0  0  0  0  0  0  0  0  0  0  0
   17.7798  -18.1611    7.6621 C   0  0  1  0  0  0  0  0  0  0  0  0
   16.3158  -18.3198    8.0013 C   0  0  0  0  0  0  0  0  0  0  0  0
   16.0409  -17.8819    9.3904 C   0  0  0  0  0  0  0  0  0  0  0  0
   16.8767  -17.0452   10.0870 C   0  0  0  0  0  0  0  0  0  0  0  0
   16.2986  -16.8737   11.3080 N   0  0  0  0  0  0  0  0  0  0  0  0
   15.1504  -17.5730   11.3733 C   0  0  0  0  0  0  0  0  0  0  0  0
   15.0055  -18.1894   10.1829 N   0  0  0  0  0  0  0  0  0  0  0  0
   18.5879  -18.9677    8.6209 C   0  0  0  0  0  0  0  0  0  0  0  0
   18.4927  -18.8149    9.8654 O   0  0  0  0  0  0  0  0  0  0  0  0
   19.4595  -19.9038    8.0963 O   0  0  0  0  0  0  0  0  0  0  0  0
  2  1  1  6
  2  4  1  0
  3  2  1  0
  4  6  1  0
  4  5  1  1
  6  7  2  0
  9  8  1  0
 10  9  1  0
 11 10  1  0
 12 11  1  6
 12 14  1  0
 13  6  1  0
 13 12  1  0
 14 15  2  0
 16 17  1  0
 16 14  1  0
 17 24  1  0
 17 18  1  1
 19 20  2  0
 19 18  1  0
 21 20  1  0
 22 23  2  0
 22 21  1  0
 23 19  1  0
 24 25  2  0
 24 26  1  0
M  END
$$$$
