TMH.pdb
     RDKit          3D

 26 26  0  0  1  0  0  0  0  0999 V2000
   30.6130  -23.7056  -19.8260 C   0  0  0  0  0  0  0  0  0  0  0  0
   31.4211  -24.6685  -18.9821 C   0  0  1  0  0  0  0  0  0  0  0  0
   32.6573  -24.8513  -19.5797 O   0  0  0  0  0  0  0  0  0  0  0  0
   31.5544  -24.0766  -17.6127 C   0  0  2  0  0  0  0  0  0  0  0  0
   32.2846  -25.0089  -16.7740 N   0  0  0  0  0  0  0  0  0  0  0  0
   30.2465  -23.7965  -16.9656 C   0  0  0  0  0  0  0  0  0  0  0  0
   29.5877  -24.7092  -16.3982 O   0  0  0  0  0  0  0  0  0  0  0  0
   28.2733  -17.6090  -15.7997 C   0  0  0  0  0  0  0  0  0  0  0  0
   27.5022  -18.6057  -14.4958 S   0  0  0  0  0  0  0  0  0  0  0  0
   27.2350  -20.3176  -15.0413 C   0  0  0  0  0  0  0  0  0  0  0  0
   28.4888  -20.8060  -15.6854 C   0  0  0  0  0  0  0  0  0  0  0  0
   28.4118  -22.2048  -16.2138 C   0  0  2  0  0  0  0  0  0  0  0  0
   29.6617  -22.5037  -16.9437 N   0  0  0  0  0  0  0  0  0  0  0  0
   27.2623  -22.4743  -17.0967 C   0  0  0  0  0  0  0  0  0  0  0  0
   27.3559  -22.0219  -18.2967 O   0  0  0  0  0  0  0  0  0  0  0  0
   26.0927  -23.1604  -16.7942 N   0  0  0  0  0  0  0  0  0  0  0  0
   25.0369  -23.2939  -17.8052 C   0  0  1  0  0  0  0  0  0  0  0  0
   24.3526  -24.6386  -17.7207 C   0  0  0  0  0  0  0  0  0  0  0  0
   23.3660  -24.8032  -18.8146 C   0  0  0  0  0  0  0  0  0  0  0  0
   23.2463  -23.9107  -19.8505 C   0  0  0  0  0  0  0  0  0  0  0  0
   22.2495  -24.3924  -20.6434 N   0  0  0  0  0  0  0  0  0  0  0  0
   21.7657  -25.5370  -20.1264 C   0  0  0  0  0  0  0  0  0  0  0  0
   22.4646  -25.7769  -18.9986 N   0  0  0  0  0  0  0  0  0  0  0  0
   24.0163  -22.2209  -17.6327 C   0  0  0  0  0  0  0  0  0  0  0  0
   24.0618  -21.4060  -16.6761 O   0  0  0  0  0  0  0  0  0  0  0  0
   23.0013  -22.1445  -18.5682 O   0  0  0  0  0  0  0  0  0  0  0  0
  2  1  1  6
  2  4  1  0
  3  2  1  0
  4  6  1  0
  4  5  1  1
  6  7  2  0
  9  8  1  0
 10  9  1  0
 11 10  1  0
 12 11  1  6
 12 14  1  0
 13  6  1  0
 13 12  1  0
 14 15  2  0
 16 17  1  0
 16 14  1  0
 17 24  1  0
 17 18  1  1
 19 20  2  0
 19 18  1  0
 21 20  1  0
 22 23  2  0
 22 21  1  0
 23 19  1  0
 24 25  2  0
 24 26  1  0
M  END
$$$$
