TMH.pdb
     RDKit          3D

 26 26  0  0  1  0  0  0  0  0999 V2000
   15.0619   -9.3323  -13.9832 C   0  0  0  0  0  0  0  0  0  0  0  0
   14.9845   -9.5330  -12.4845 C   0  0  1  0  0  0  0  0  0  0  0  0
   14.1258  -10.5878  -12.2226 O   0  0  0  0  0  0  0  0  0  0  0  0
   16.3692   -9.8148  -11.9879 C   0  0  2  0  0  0  0  0  0  0  0  0
   16.3119  -10.0335  -10.5546 N   0  0  0  0  0  0  0  0  0  0  0  0
   17.3227   -8.7059  -12.2505 C   0  0  0  0  0  0  0  0  0  0  0  0
   17.3205   -7.6599  -11.5472 O   0  0  0  0  0  0  0  0  0  0  0  0
   23.0406   -4.8364  -13.9004 C   0  0  0  0  0  0  0  0  0  0  0  0
   21.8904   -6.1546  -13.4233 S   0  0  0  0  0  0  0  0  0  0  0  0
   21.2655   -7.0465  -14.8772 C   0  0  0  0  0  0  0  0  0  0  0  0
   20.3302   -8.1102  -14.4089 C   0  0  0  0  0  0  0  0  0  0  0  0
   19.1612   -7.6067  -13.6203 C   0  0  2  0  0  0  0  0  0  0  0  0
   18.2838   -8.7502  -13.2936 N   0  0  0  0  0  0  0  0  0  0  0  0
   18.3631   -6.5627  -14.2883 C   0  0  0  0  0  0  0  0  0  0  0  0
   17.3649   -6.9766  -14.9852 O   0  0  0  0  0  0  0  0  0  0  0  0
   18.5530   -5.1867  -14.2542 N   0  0  0  0  0  0  0  0  0  0  0  0
   17.6302   -4.2998  -14.9728 C   0  0  1  0  0  0  0  0  0  0  0  0
   16.2171   -4.4281  -14.4528 C   0  0  0  0  0  0  0  0  0  0  0  0
   15.2374   -3.9247  -15.4447 C   0  0  0  0  0  0  0  0  0  0  0  0
   15.2306   -4.3287  -16.7564 C   0  0  0  0  0  0  0  0  0  0  0  0
   14.2020   -3.6595  -17.3467 N   0  0  0  0  0  0  0  0  0  0  0  0
   13.5911   -2.8702  -16.4437 C   0  0  0  0  0  0  0  0  0  0  0  0
   14.2413   -3.0450  -15.2755 N   0  0  0  0  0  0  0  0  0  0  0  0
   18.0669   -2.8806  -14.8393 C   0  0  0  0  0  0  0  0  0  0  0  0
   19.1271   -2.5633  -14.2421 O   0  0  0  0  0  0  0  0  0  0  0  0
   17.2615   -1.9062  -15.3989 O   0  0  0  0  0  0  0  0  0  0  0  0
  2  1  1  6
  2  4  1  0
  3  2  1  0
  4  6  1  0
  4  5  1  1
  6  7  2  0
  9  8  1  0
 10  9  1  0
 11 10  1  0
 12 11  1  6
 12 14  1  0
 13  6  1  0
 13 12  1  0
 14 15  2  0
 16 17  1  0
 16 14  1  0
 17 24  1  0
 17 18  1  1
 19 20  2  0
 19 18  1  0
 21 20  1  0
 22 23  2  0
 22 21  1  0
 23 19  1  0
 24 25  2  0
 24 26  1  0
M  END
$$$$
