TMH.pdb
     RDKit          3D

 26 26  0  0  1  0  0  0  0  0999 V2000
   26.5365  -10.4544  -20.6852 C   0  0  0  0  0  0  0  0  0  0  0  0
   25.1979   -9.9041  -20.2406 C   0  0  1  0  0  0  0  0  0  0  0  0
   24.2367  -10.2755  -21.1662 O   0  0  0  0  0  0  0  0  0  0  0  0
   24.9002  -10.4641  -18.8837 C   0  0  2  0  0  0  0  0  0  0  0  0
   24.7146  -11.8981  -19.0048 N   0  0  0  0  0  0  0  0  0  0  0  0
   23.6769   -9.8882  -18.2675 C   0  0  0  0  0  0  0  0  0  0  0  0
   22.5510  -10.4362  -18.4114 O   0  0  0  0  0  0  0  0  0  0  0  0
   22.8886  -11.2294  -12.1824 C   0  0  0  0  0  0  0  0  0  0  0  0
   22.8368   -9.5798  -12.9336 S   0  0  0  0  0  0  0  0  0  0  0  0
   22.6848   -9.6796  -14.7409 C   0  0  0  0  0  0  0  0  0  0  0  0
   22.7636   -8.2970  -15.2956 C   0  0  0  0  0  0  0  0  0  0  0  0
   22.5056   -8.2023  -16.7675 C   0  0  2  0  0  0  0  0  0  0  0  0
   23.6948   -8.7020  -17.4888 N   0  0  0  0  0  0  0  0  0  0  0  0
   22.1786   -6.8504  -17.2563 C   0  0  0  0  0  0  0  0  0  0  0  0
   23.1776   -6.0634  -17.4460 O   0  0  0  0  0  0  0  0  0  0  0  0
   20.9253   -6.3231  -17.5419 N   0  0  0  0  0  0  0  0  0  0  0  0
   20.7982   -4.9289  -17.9831 C   0  0  1  0  0  0  0  0  0  0  0  0
   19.5152   -4.7025  -18.7489 C   0  0  0  0  0  0  0  0  0  0  0  0
   19.4200   -3.3022  -19.2254 C   0  0  0  0  0  0  0  0  0  0  0  0
   18.5730   -2.3799  -18.6633 C   0  0  0  0  0  0  0  0  0  0  0  0
   18.7655   -1.2253  -19.3590 N   0  0  0  0  0  0  0  0  0  0  0  0
   19.6928   -1.4161  -20.3156 C   0  0  0  0  0  0  0  0  0  0  0  0
   20.0868   -2.7021  -20.2203 N   0  0  0  0  0  0  0  0  0  0  0  0
   20.8287   -4.0098  -16.8096 C   0  0  0  0  0  0  0  0  0  0  0  0
   20.5762   -4.4089  -15.6442 O   0  0  0  0  0  0  0  0  0  0  0  0
   21.1473   -2.6845  -17.0408 O   0  0  0  0  0  0  0  0  0  0  0  0
  2  1  1  6
  2  4  1  0
  3  2  1  0
  4  6  1  0
  4  5  1  6
  6  7  2  0
  9  8  1  0
 10  9  1  0
 11 10  1  0
 12 11  1  1
 12 14  1  0
 13  6  1  0
 13 12  1  0
 14 15  2  0
 16 17  1  0
 16 14  1  0
 17 24  1  0
 17 18  1  1
 19 20  2  0
 19 18  1  0
 21 20  1  0
 22 23  2  0
 22 21  1  0
 23 19  1  0
 24 25  2  0
 24 26  1  0
M  END
$$$$
