TMH.pdb
     RDKit          3D

 26 26  0  0  1  0  0  0  0  0999 V2000
   24.7760  -21.9130  -12.8176 C   0  0  0  0  0  0  0  0  0  0  0  0
   24.9735  -21.2916  -11.4511 C   0  0  1  0  0  0  0  0  0  0  0  0
   24.7731  -22.2666  -10.4879 O   0  0  0  0  0  0  0  0  0  0  0  0
   26.3652  -20.7410  -11.3951 C   0  0  2  0  0  0  0  0  0  0  0  0
   26.6478  -20.3335  -10.0314 N   0  0  0  0  0  0  0  0  0  0  0  0
   26.5666  -19.5658  -12.2818 C   0  0  0  0  0  0  0  0  0  0  0  0
   26.3244  -18.3950  -11.8825 O   0  0  0  0  0  0  0  0  0  0  0  0
   29.2815  -16.3301  -18.9356 C   0  0  0  0  0  0  0  0  0  0  0  0
   29.2483  -17.6975  -17.7451 S   0  0  0  0  0  0  0  0  0  0  0  0
   27.7416  -17.6566  -16.7313 C   0  0  0  0  0  0  0  0  0  0  0  0
   27.9105  -18.6149  -15.6006 C   0  0  0  0  0  0  0  0  0  0  0  0
   26.7517  -18.6696  -14.6540 C   0  0  2  0  0  0  0  0  0  0  0  0
   27.0373  -19.6817  -13.6155 N   0  0  0  0  0  0  0  0  0  0  0  0
   25.4516  -18.9742  -15.2787 C   0  0  0  0  0  0  0  0  0  0  0  0
   24.9893  -20.1556  -15.0694 O   0  0  0  0  0  0  0  0  0  0  0  0
   24.6619  -18.1413  -16.0617 N   0  0  0  0  0  0  0  0  0  0  0  0
   23.2268  -18.4136  -16.2074 C   0  0  1  0  0  0  0  0  0  0  0  0
   22.5231  -18.4192  -14.8702 C   0  0  0  0  0  0  0  0  0  0  0  0
   21.0846  -18.7404  -15.0273 C   0  0  0  0  0  0  0  0  0  0  0  0
   20.6392  -19.8734  -15.6613 C   0  0  0  0  0  0  0  0  0  0  0  0
   19.2796  -19.8199  -15.6075 N   0  0  0  0  0  0  0  0  0  0  0  0
   18.8903  -18.7016  -14.9675 C   0  0  0  0  0  0  0  0  0  0  0  0
   20.0151  -18.0465  -14.6159 N   0  0  0  0  0  0  0  0  0  0  0  0
   22.5917  -17.3877  -17.0832 C   0  0  0  0  0  0  0  0  0  0  0  0
   21.3575  -17.3892  -17.3237 O   0  0  0  0  0  0  0  0  0  0  0  0
   23.4098  -16.4185  -17.6332 O   0  0  0  0  0  0  0  0  0  0  0  0
  2  1  1  6
  2  4  1  0
  3  2  1  0
  4  6  1  0
  4  5  1  1
  6  7  2  0
  9  8  1  0
 10  9  1  0
 11 10  1  0
 12 11  1  6
 12 14  1  0
 13  6  1  0
 13 12  1  0
 14 15  2  0
 16 17  1  0
 16 14  1  0
 17 24  1  0
 17 18  1  1
 19 20  2  0
 19 18  1  0
 21 20  1  0
 22 23  2  0
 22 21  1  0
 23 19  1  0
 24 25  2  0
 24 26  1  0
M  END
$$$$
