TMH.pdb
     RDKit          3D

 26 26  0  0  1  0  0  0  0  0999 V2000
   16.3294  -10.5419  -11.1021 C   0  0  0  0  0  0  0  0  0  0  0  0
   14.8911  -10.4942  -10.6316 C   0  0  1  0  0  0  0  0  0  0  0  0
   14.5416  -11.7442  -10.1480 O   0  0  0  0  0  0  0  0  0  0  0  0
   14.7919   -9.4452   -9.5671 C   0  0  2  0  0  0  0  0  0  0  0  0
   13.4161   -9.3763   -9.1113 N   0  0  0  0  0  0  0  0  0  0  0  0
   15.1935   -8.0939  -10.0369 C   0  0  0  0  0  0  0  0  0  0  0  0
   14.4069   -7.3735  -10.7085 O   0  0  0  0  0  0  0  0  0  0  0  0
   17.5021   -1.0604   -8.4665 C   0  0  0  0  0  0  0  0  0  0  0  0
   16.7846   -2.7047   -8.2025 S   0  0  0  0  0  0  0  0  0  0  0  0
   17.1718   -3.8250   -9.5789 C   0  0  0  0  0  0  0  0  0  0  0  0
   16.6522   -5.1818   -9.2401 C   0  0  0  0  0  0  0  0  0  0  0  0
   16.8926   -6.2198  -10.2921 C   0  0  2  0  0  0  0  0  0  0  0  0
   16.4687   -7.5338   -9.7649 N   0  0  0  0  0  0  0  0  0  0  0  0
   18.2860   -6.3169  -10.7637 C   0  0  0  0  0  0  0  0  0  0  0  0
   19.1384   -6.7670   -9.9127 O   0  0  0  0  0  0  0  0  0  0  0  0
   18.7913   -5.9868  -12.0151 N   0  0  0  0  0  0  0  0  0  0  0  0
   20.2059   -6.2291  -12.3234 C   0  0  1  0  0  0  0  0  0  0  0  0
   20.3710   -6.9802  -13.6242 C   0  0  0  0  0  0  0  0  0  0  0  0
   19.5665   -8.2251  -13.6256 C   0  0  0  0  0  0  0  0  0  0  0  0
   19.8666   -9.3070  -12.8361 C   0  0  0  0  0  0  0  0  0  0  0  0
   18.9164  -10.2430  -13.1104 N   0  0  0  0  0  0  0  0  0  0  0  0
   18.0583   -9.7680  -14.0322 C   0  0  0  0  0  0  0  0  0  0  0  0
   18.4728   -8.5224  -14.3398 N   0  0  0  0  0  0  0  0  0  0  0  0
   20.9444   -4.9372  -12.4146 C   0  0  0  0  0  0  0  0  0  0  0  0
   20.3552   -3.8277  -12.3575 O   0  0  0  0  0  0  0  0  0  0  0  0
   22.3174   -4.9924  -12.5664 O   0  0  0  0  0  0  0  0  0  0  0  0
  2  1  1  1
  2  4  1  0
  3  2  1  0
  4  6  1  0
  4  5  1  6
  6  7  2  0
  9  8  1  0
 10  9  1  0
 11 10  1  0
 12 11  1  1
 12 14  1  0
 13  6  1  0
 13 12  1  0
 14 15  2  0
 16 17  1  0
 16 14  1  0
 17 24  1  0
 17 18  1  6
 19 20  2  0
 19 18  1  0
 21 20  1  0
 22 23  2  0
 22 21  1  0
 23 19  1  0
 24 25  2  0
 24 26  1  0
M  END
$$$$
