TMH.pdb
     RDKit          3D

 26 26  0  0  1  0  0  0  0  0999 V2000
   21.9658  -22.1481  -11.8518 C   0  0  0  0  0  0  0  0  0  0  0  0
   23.1838  -21.3474  -12.2613 C   0  0  1  0  0  0  0  0  0  0  0  0
   22.7617  -20.1424  -12.7983 O   0  0  0  0  0  0  0  0  0  0  0  0
   24.0273  -21.1403  -11.0411 C   0  0  2  0  0  0  0  0  0  0  0  0
   23.3321  -20.2349  -10.1453 N   0  0  0  0  0  0  0  0  0  0  0  0
   25.3619  -20.5608  -11.3428 C   0  0  0  0  0  0  0  0  0  0  0  0
   25.5345  -19.3141  -11.4100 O   0  0  0  0  0  0  0  0  0  0  0  0
   31.9409  -21.8193  -10.1705 C   0  0  0  0  0  0  0  0  0  0  0  0
   30.4243  -22.1642   -9.2383 S   0  0  0  0  0  0  0  0  0  0  0  0
   29.0131  -21.2321   -9.9011 C   0  0  0  0  0  0  0  0  0  0  0  0
   28.9157  -21.5055  -11.3644 C   0  0  0  0  0  0  0  0  0  0  0  0
   27.7910  -20.7986  -12.0552 C   0  0  2  0  0  0  0  0  0  0  0  0
   26.5122  -21.3598  -11.5715 N   0  0  0  0  0  0  0  0  0  0  0  0
   27.8219  -20.8697  -13.5274 C   0  0  0  0  0  0  0  0  0  0  0  0
   27.5007  -22.0029  -14.0433 O   0  0  0  0  0  0  0  0  0  0  0  0
   28.1506  -19.8627  -14.4265 N   0  0  0  0  0  0  0  0  0  0  0  0
   27.4426  -19.7627  -15.7084 C   0  0  1  0  0  0  0  0  0  0  0  0
   25.9455  -19.6963  -15.5134 C   0  0  0  0  0  0  0  0  0  0  0  0
   25.2436  -19.5921  -16.8147 C   0  0  0  0  0  0  0  0  0  0  0  0
   25.5954  -20.3368  -17.9127 C   0  0  0  0  0  0  0  0  0  0  0  0
   24.7351  -19.9699  -18.9025 N   0  0  0  0  0  0  0  0  0  0  0  0
   23.8815  -19.0356  -18.4443 C   0  0  0  0  0  0  0  0  0  0  0  0
   24.2080  -18.8134  -17.1551 N   0  0  0  0  0  0  0  0  0  0  0  0
   27.8871  -18.5493  -16.4519 C   0  0  0  0  0  0  0  0  0  0  0  0
   28.5839  -17.6539  -15.9097 O   0  0  0  0  0  0  0  0  0  0  0  0
   27.5062  -18.4326  -17.7757 O   0  0  0  0  0  0  0  0  0  0  0  0
  2  1  1  1
  2  4  1  0
  3  2  1  0
  4  6  1  0
  4  5  1  1
  6  7  2  0
  9  8  1  0
 10  9  1  0
 11 10  1  0
 12 11  1  1
 12 14  1  0
 13  6  1  0
 13 12  1  0
 14 15  2  0
 16 17  1  0
 16 14  1  0
 17 24  1  0
 17 18  1  1
 19 20  2  0
 19 18  1  0
 21 20  1  0
 22 23  2  0
 22 21  1  0
 23 19  1  0
 24 25  2  0
 24 26  1  0
M  END
$$$$
