TMH.pdb
     RDKit          3D

 26 26  0  0  1  0  0  0  0  0999 V2000
   19.7536  -12.3837  -21.2913 C   0  0  0  0  0  0  0  0  0  0  0  0
   19.6039  -11.4305  -20.1245 C   0  0  1  0  0  0  0  0  0  0  0  0
   18.2576  -11.1598  -19.9437 O   0  0  0  0  0  0  0  0  0  0  0  0
   20.1999  -12.0868  -18.9174 C   0  0  2  0  0  0  0  0  0  0  0  0
   19.4525  -13.2973  -18.6315 N   0  0  0  0  0  0  0  0  0  0  0  0
   20.1691  -11.2256  -17.7069 C   0  0  0  0  0  0  0  0  0  0  0  0
   19.1077  -11.0607  -17.0473 O   0  0  0  0  0  0  0  0  0  0  0  0
   21.8844   -8.8145  -11.2903 C   0  0  0  0  0  0  0  0  0  0  0  0
   21.7772   -9.7144  -12.8610 S   0  0  0  0  0  0  0  0  0  0  0  0
   22.8124   -8.9425  -14.1385 C   0  0  0  0  0  0  0  0  0  0  0  0
   22.6761   -9.7349  -15.3950 C   0  0  0  0  0  0  0  0  0  0  0  0
   21.2981   -9.7389  -15.9808 C   0  0  2  0  0  0  0  0  0  0  0  0
   21.3141  -10.5426  -17.2209 N   0  0  0  0  0  0  0  0  0  0  0  0
   20.7444   -8.4053  -16.2782 C   0  0  0  0  0  0  0  0  0  0  0  0
   21.2221   -7.8161  -17.3164 O   0  0  0  0  0  0  0  0  0  0  0  0
   19.7671   -7.7086  -15.5783 N   0  0  0  0  0  0  0  0  0  0  0  0
   19.3587   -6.3705  -16.0226 C   0  0  1  0  0  0  0  0  0  0  0  0
   17.8567   -6.2079  -15.9903 C   0  0  0  0  0  0  0  0  0  0  0  0
   17.4597   -4.8449  -16.4166 C   0  0  0  0  0  0  0  0  0  0  0  0
   18.0963   -4.1645  -17.4243 C   0  0  0  0  0  0  0  0  0  0  0  0
   17.4586   -2.9655  -17.5247 N   0  0  0  0  0  0  0  0  0  0  0  0
   16.4655   -2.8979  -16.6187 C   0  0  0  0  0  0  0  0  0  0  0  0
   16.4791   -4.0646  -15.9431 N   0  0  0  0  0  0  0  0  0  0  0  0
   19.9762   -5.3264  -15.1558 C   0  0  0  0  0  0  0  0  0  0  0  0
   19.7173   -4.1041  -15.2979 O   0  0  0  0  0  0  0  0  0  0  0  0
   20.8562   -5.7451  -14.1752 O   0  0  0  0  0  0  0  0  0  0  0  0
  2  1  1  6
  2  4  1  0
  3  2  1  0
  4  6  1  0
  4  5  1  1
  6  7  2  0
  9  8  1  0
 10  9  1  0
 11 10  1  0
 12 11  1  6
 12 14  1  0
 13  6  1  0
 13 12  1  0
 14 15  2  0
 16 17  1  0
 16 14  1  0
 17 24  1  0
 17 18  1  1
 19 20  2  0
 19 18  1  0
 21 20  1  0
 22 23  2  0
 22 21  1  0
 23 19  1  0
 24 25  2  0
 24 26  1  0
M  END
$$$$
