CFK.pdb
     RDKit          3D

 27 27  0  0  1  0  0  0  0  0999 V2000
    9.0862  -16.5918   19.1141 N   0  0  0  0  0  0  0  0  0  0  0  0
    8.0730  -16.7260   20.1267 C   0  0  1  0  0  0  0  0  0  0  0  0
    7.6459  -18.1567   20.3537 C   0  0  0  0  0  0  0  0  0  0  0  0
    9.0934  -19.0377   21.0329 S   0  0  0  0  0  0  0  0  0  0  0  0
    8.4781  -16.0396   21.3618 C   0  0  0  0  0  0  0  0  0  0  0  0
    9.6862  -15.7899   21.6405 O   0  0  0  0  0  0  0  0  0  0  0  0
    7.4982  -15.6345   22.2867 N   0  0  0  0  0  0  0  0  0  0  0  0
    7.7826  -15.0270   23.5760 C   0  0  1  0  0  0  0  0  0  0  0  0
    6.5533  -14.3233   24.1093 C   0  0  0  0  0  0  0  0  0  0  0  0
    6.7864  -13.6205   25.3810 C   0  0  0  0  0  0  0  0  0  0  0  0
    7.0849  -12.2661   25.3745 C   0  0  0  0  0  0  0  0  0  0  0  0
    7.3132  -11.5564   26.5277 C   0  0  0  0  0  0  0  0  0  0  0  0
    7.2525  -12.1769   27.7550 C   0  0  0  0  0  0  0  0  0  0  0  0
    6.9567  -13.5238   27.7790 C   0  0  0  0  0  0  0  0  0  0  0  0
    6.7243  -14.2456   26.6023 C   0  0  0  0  0  0  0  0  0  0  0  0
    8.3255  -15.9641   24.5516 C   0  0  0  0  0  0  0  0  0  0  0  0
    7.6600  -17.0225   24.8126 O   0  0  0  0  0  0  0  0  0  0  0  0
    9.5441  -15.8096   25.2474 N   0  0  0  0  0  0  0  0  0  0  0  0
   10.1208  -16.8452   26.0837 C   0  0  1  0  0  0  0  0  0  0  0  0
   11.5572  -17.1436   25.6391 C   0  0  0  0  0  0  0  0  0  0  0  0
   11.5711  -17.7461   24.2630 C   0  0  0  0  0  0  0  0  0  0  0  0
   12.9704  -18.0832   23.8470 C   0  0  0  0  0  0  0  0  0  0  0  0
   12.9865  -18.7627   22.5247 C   0  0  0  0  0  0  0  0  0  0  0  0
   14.3691  -19.0217   22.1330 N   0  0  0  0  0  0  0  0  0  0  0  0
   10.2224  -16.3340   27.4684 C   0  0  0  0  0  0  0  0  0  0  0  0
   10.2915  -14.9441   27.6938 O   0  0  0  0  0  0  0  0  0  0  0  0
   10.2518  -17.0768   28.4807 O   0  0  0  0  0  0  0  0  0  0  0  0
  2  1  1  6
  2  3  1  0
  3  4  1  0
  5  6  2  0
  5  2  1  0
  7  5  1  0
  8  7  1  0
  8  9  1  1
 10  9  1  0
 11 10  2  0
 12 11  1  0
 13 12  2  0
 13 14  1  0
 14 15  2  0
 15 10  1  0
 16  8  1  0
 16 18  1  0
 17 16  2  0
 19 18  1  0
 19 25  1  0
 19 20  1  6
 21 20  1  0
 22 21  1  0
 23 24  1  0
 23 22  1  0
 25 26  1  0
 27 25  2  0
M  END
$$$$
