CFK.pdb
     RDKit          3D

 27 27  0  0  1  0  0  0  0  0999 V2000
    9.9814  -16.3210   18.7587 N   0  0  0  0  0  0  0  0  0  0  0  0
    8.8022  -16.3428   19.5828 C   0  0  1  0  0  0  0  0  0  0  0  0
    8.1349  -17.6969   19.6289 C   0  0  0  0  0  0  0  0  0  0  0  0
    9.2865  -18.8233   20.4879 S   0  0  0  0  0  0  0  0  0  0  0  0
    9.0888  -15.7926   20.9153 C   0  0  0  0  0  0  0  0  0  0  0  0
   10.2338  -15.8548   21.4490 O   0  0  0  0  0  0  0  0  0  0  0  0
    8.0621  -15.1665   21.6456 N   0  0  0  0  0  0  0  0  0  0  0  0
    8.1979  -14.6812   23.0088 C   0  0  1  0  0  0  0  0  0  0  0  0
    6.9933  -13.8499   23.3945 C   0  0  0  0  0  0  0  0  0  0  0  0
    7.0470  -13.3470   24.7764 C   0  0  0  0  0  0  0  0  0  0  0  0
    7.9832  -12.3841   25.1227 C   0  0  0  0  0  0  0  0  0  0  0  0
    8.0826  -11.8771   26.3951 C   0  0  0  0  0  0  0  0  0  0  0  0
    7.2396  -12.3158   27.3911 C   0  0  0  0  0  0  0  0  0  0  0  0
    6.3027  -13.2734   27.0631 C   0  0  0  0  0  0  0  0  0  0  0  0
    6.2030  -13.7890   25.7656 C   0  0  0  0  0  0  0  0  0  0  0  0
    8.4475  -15.7398   23.9793 C   0  0  0  0  0  0  0  0  0  0  0  0
    7.6045  -16.6952   24.0660 O   0  0  0  0  0  0  0  0  0  0  0  0
    9.5579  -15.8108   24.8482 N   0  0  0  0  0  0  0  0  0  0  0  0
    9.8407  -16.9600   25.6871 C   0  0  1  0  0  0  0  0  0  0  0  0
   11.3057  -17.3822   25.5274 C   0  0  0  0  0  0  0  0  0  0  0  0
   11.6352  -18.5136   26.4591 C   0  0  0  0  0  0  0  0  0  0  0  0
   13.0698  -18.9196   26.3119 C   0  0  0  0  0  0  0  0  0  0  0  0
   13.4041  -20.0440   27.2255 C   0  0  0  0  0  0  0  0  0  0  0  0
   14.8252  -20.3569   27.1043 N   0  0  0  0  0  0  0  0  0  0  0  0
    9.6851  -16.5622   27.1037 C   0  0  0  0  0  0  0  0  0  0  0  0
    9.2356  -17.5085   28.0470 O   0  0  0  0  0  0  0  0  0  0  0  0
    9.9338  -15.4074   27.5303 O   0  0  0  0  0  0  0  0  0  0  0  0
  2  1  1  6
  2  3  1  0
  3  4  1  0
  5  6  2  0
  5  2  1  0
  7  5  1  0
  8  7  1  0
  8  9  1  1
 10  9  1  0
 11 10  2  0
 12 11  1  0
 13 12  2  0
 13 14  1  0
 14 15  2  0
 15 10  1  0
 16  8  1  0
 16 18  1  0
 17 16  2  0
 19 18  1  0
 19 25  1  0
 19 20  1  1
 21 20  1  0
 22 21  1  0
 23 24  1  0
 23 22  1  0
 25 26  1  0
 27 25  2  0
M  END
$$$$
