CFK.pdb
     RDKit          3D

 27 27  0  0  1  0  0  0  0  0999 V2000
   10.3758  -16.4444   19.1028 N   0  0  0  0  0  0  0  0  0  0  0  0
    9.1949  -16.5896   19.9117 C   0  0  1  0  0  0  0  0  0  0  0  0
    8.6803  -18.0086   19.9621 C   0  0  0  0  0  0  0  0  0  0  0  0
    7.9385  -18.3587   18.3311 S   0  0  0  0  0  0  0  0  0  0  0  0
    9.4006  -16.0005   21.2426 C   0  0  0  0  0  0  0  0  0  0  0  0
   10.4600  -16.1748   21.9112 O   0  0  0  0  0  0  0  0  0  0  0  0
    8.3907  -15.2063   21.8161 N   0  0  0  0  0  0  0  0  0  0  0  0
    8.4044  -14.7166   23.1844 C   0  0  1  0  0  0  0  0  0  0  0  0
    7.2452  -13.7716   23.4173 C   0  0  0  0  0  0  0  0  0  0  0  0
    7.1787  -13.2544   24.7934 C   0  0  0  0  0  0  0  0  0  0  0  0
    8.0890  -12.2959   25.2133 C   0  0  0  0  0  0  0  0  0  0  0  0
    8.0778  -11.7762   26.4844 C   0  0  0  0  0  0  0  0  0  0  0  0
    7.1442  -12.1968   27.4044 C   0  0  0  0  0  0  0  0  0  0  0  0
    6.2316  -13.1498   27.0026 C   0  0  0  0  0  0  0  0  0  0  0  0
    6.2446  -13.6784   25.7065 C   0  0  0  0  0  0  0  0  0  0  0  0
    8.4335  -15.7800   24.1809 C   0  0  0  0  0  0  0  0  0  0  0  0
    7.6509  -16.7776   24.0274 O   0  0  0  0  0  0  0  0  0  0  0  0
    9.2645  -15.8126   25.3217 N   0  0  0  0  0  0  0  0  0  0  0  0
    9.5162  -17.0172   26.0897 C   0  0  1  0  0  0  0  0  0  0  0  0
   10.5398  -17.8999   25.3666 C   0  0  0  0  0  0  0  0  0  0  0  0
   10.8844  -19.1019   26.1992 C   0  0  0  0  0  0  0  0  0  0  0  0
   11.8306  -20.0012   25.4640 C   0  0  0  0  0  0  0  0  0  0  0  0
   12.1991  -21.1807   26.2908 C   0  0  0  0  0  0  0  0  0  0  0  0
   13.0890  -22.0477   25.5236 N   0  0  0  0  0  0  0  0  0  0  0  0
   10.1437  -16.6373   27.3747 C   0  0  0  0  0  0  0  0  0  0  0  0
   10.3182  -17.6114   28.3788 O   0  0  0  0  0  0  0  0  0  0  0  0
   10.5406  -15.4745   27.6348 O   0  0  0  0  0  0  0  0  0  0  0  0
  2  1  1  1
  2  3  1  0
  3  4  1  0
  5  6  2  0
  5  2  1  0
  7  5  1  0
  8  7  1  0
  8  9  1  1
 10  9  1  0
 11 10  2  0
 12 11  1  0
 13 12  2  0
 13 14  1  0
 14 15  2  0
 15 10  1  0
 16  8  1  0
 16 18  1  0
 17 16  2  0
 19 18  1  0
 19 25  1  0
 19 20  1  6
 21 20  1  0
 22 21  1  0
 23 24  1  0
 23 22  1  0
 25 26  1  0
 27 25  2  0
M  END
$$$$
