CFK.pdb
     RDKit          3D

 27 27  0  0  1  0  0  0  0  0999 V2000
    4.7282  -20.3169   22.8460 N   0  0  0  0  0  0  0  0  0  0  0  0
    5.6035  -20.0595   23.9585 C   0  0  1  0  0  0  0  0  0  0  0  0
    6.6196  -21.1547   24.1805 C   0  0  0  0  0  0  0  0  0  0  0  0
    6.0134  -22.1611   25.5777 S   0  0  0  0  0  0  0  0  0  0  0  0
    6.2066  -18.7237   23.8475 C   0  0  0  0  0  0  0  0  0  0  0  0
    6.7076  -18.2870   22.7714 O   0  0  0  0  0  0  0  0  0  0  0  0
    6.2391  -17.8787   24.9720 N   0  0  0  0  0  0  0  0  0  0  0  0
    6.9216  -16.5965   25.0203 C   0  0  1  0  0  0  0  0  0  0  0  0
    6.2852  -15.6999   26.0606 C   0  0  0  0  0  0  0  0  0  0  0  0
    6.8110  -14.3255   26.0496 C   0  0  0  0  0  0  0  0  0  0  0  0
    7.8494  -13.9789   26.9012 C   0  0  0  0  0  0  0  0  0  0  0  0
    8.3813  -12.7133   26.9373 C   0  0  0  0  0  0  0  0  0  0  0  0
    7.8926  -11.7249   26.1132 C   0  0  0  0  0  0  0  0  0  0  0  0
    6.8597  -12.0533   25.2602 C   0  0  0  0  0  0  0  0  0  0  0  0
    6.3189  -13.3439   25.2248 C   0  0  0  0  0  0  0  0  0  0  0  0
    8.3602  -16.7125   25.2250 C   0  0  0  0  0  0  0  0  0  0  0  0
    8.7803  -17.4519   26.1778 O   0  0  0  0  0  0  0  0  0  0  0  0
    9.3529  -16.0731   24.4513 N   0  0  0  0  0  0  0  0  0  0  0  0
   10.7250  -16.5377   24.3743 C   0  0  1  0  0  0  0  0  0  0  0  0
   11.3830  -16.0287   23.0868 C   0  0  0  0  0  0  0  0  0  0  0  0
   11.0115  -16.9012   21.9217 C   0  0  0  0  0  0  0  0  0  0  0  0
   11.6651  -16.4127   20.6652 C   0  0  0  0  0  0  0  0  0  0  0  0
   11.2938  -17.2630   19.5034 C   0  0  0  0  0  0  0  0  0  0  0  0
   11.9682  -16.7659   18.3075 N   0  0  0  0  0  0  0  0  0  0  0  0
   11.4919  -15.9361   25.4874 C   0  0  0  0  0  0  0  0  0  0  0  0
   12.8305  -16.3240   25.6998 O   0  0  0  0  0  0  0  0  0  0  0  0
   11.0155  -15.0812   26.2745 O   0  0  0  0  0  0  0  0  0  0  0  0
  2  1  1  6
  2  3  1  0
  3  4  1  0
  5  6  2  0
  5  2  1  0
  7  5  1  0
  8  7  1  0
  8  9  1  1
 10  9  1  0
 11 10  2  0
 12 11  1  0
 13 12  2  0
 13 14  1  0
 14 15  2  0
 15 10  1  0
 16  8  1  0
 16 18  1  0
 17 16  2  0
 19 18  1  0
 19 25  1  0
 19 20  1  6
 21 20  1  0
 22 21  1  0
 23 24  1  0
 23 22  1  0
 25 26  1  0
 27 25  2  0
M  END
$$$$
