CFK.pdb
     RDKit          3D

 27 27  0  0  1  0  0  0  0  0999 V2000
    9.5102  -16.1793   18.4256 N   0  0  0  0  0  0  0  0  0  0  0  0
    8.4141  -16.2914   19.3509 C   0  0  1  0  0  0  0  0  0  0  0  0
    7.8384  -17.6857   19.4235 C   0  0  0  0  0  0  0  0  0  0  0  0
    9.1548  -18.7662   20.0811 S   0  0  0  0  0  0  0  0  0  0  0  0
    8.7860  -15.7491   20.6655 C   0  0  0  0  0  0  0  0  0  0  0  0
    9.9822  -15.7061   21.0740 O   0  0  0  0  0  0  0  0  0  0  0  0
    7.7863  -15.2518   21.5217 N   0  0  0  0  0  0  0  0  0  0  0  0
    8.0263  -14.7454   22.8626 C   0  0  1  0  0  0  0  0  0  0  0  0
    6.8317  -13.9528   23.3480 C   0  0  0  0  0  0  0  0  0  0  0  0
    7.0172  -13.3764   24.6892 C   0  0  0  0  0  0  0  0  0  0  0  0
    7.8726  -12.2985   24.8630 C   0  0  0  0  0  0  0  0  0  0  0  0
    8.0873  -11.7186   26.0891 C   0  0  0  0  0  0  0  0  0  0  0  0
    7.4482  -12.1963   27.2109 C   0  0  0  0  0  0  0  0  0  0  0  0
    6.5940  -13.2680   27.0551 C   0  0  0  0  0  0  0  0  0  0  0  0
    6.3765  -13.8578   25.8044 C   0  0  0  0  0  0  0  0  0  0  0  0
    8.4007  -15.7825   23.8160 C   0  0  0  0  0  0  0  0  0  0  0  0
    7.6650  -16.8229   23.9016 O   0  0  0  0  0  0  0  0  0  0  0  0
    9.5249  -15.7452   24.6692 N   0  0  0  0  0  0  0  0  0  0  0  0
   10.0150  -16.9034   25.3922 C   0  0  1  0  0  0  0  0  0  0  0  0
   11.4988  -17.1304   25.0816 C   0  0  0  0  0  0  0  0  0  0  0  0
   12.0393  -18.2765   25.8884 C   0  0  0  0  0  0  0  0  0  0  0  0
   13.4862  -18.5077   25.5759 C   0  0  0  0  0  0  0  0  0  0  0  0
   14.0166  -19.6745   26.3295 C   0  0  0  0  0  0  0  0  0  0  0  0
   15.4487  -19.8020   26.0746 N   0  0  0  0  0  0  0  0  0  0  0  0
    9.9424  -16.6218   26.8429 C   0  0  0  0  0  0  0  0  0  0  0  0
    9.8395  -15.2884   27.2888 O   0  0  0  0  0  0  0  0  0  0  0  0
    9.9673  -17.5162   27.7243 O   0  0  0  0  0  0  0  0  0  0  0  0
  2  1  1  6
  2  3  1  0
  3  4  1  0
  5  6  2  0
  5  2  1  0
  7  5  1  0
  8  7  1  0
  8  9  1  1
 10  9  1  0
 11 10  2  0
 12 11  1  0
 13 12  2  0
 13 14  1  0
 14 15  2  0
 15 10  1  0
 16  8  1  0
 16 18  1  0
 17 16  2  0
 19 18  1  0
 19 25  1  0
 19 20  1  6
 21 20  1  0
 22 21  1  0
 23 24  1  0
 23 22  1  0
 25 26  1  0
 27 25  2  0
M  END
$$$$
