CFK.pdb
     RDKit          3D

 27 27  0  0  1  0  0  0  0  0999 V2000
    7.8040  -13.4408   19.6806 N   0  0  0  0  0  0  0  0  0  0  0  0
    7.5386  -14.6892   20.3447 C   0  0  1  0  0  0  0  0  0  0  0  0
    7.8045  -15.8937   19.4732 C   0  0  0  0  0  0  0  0  0  0  0  0
    6.3571  -16.0810   18.3766 S   0  0  0  0  0  0  0  0  0  0  0  0
    8.2315  -14.7469   21.6397 C   0  0  0  0  0  0  0  0  0  0  0  0
    9.4722  -14.5338   21.7614 O   0  0  0  0  0  0  0  0  0  0  0  0
    7.5044  -15.0500   22.8055 N   0  0  0  0  0  0  0  0  0  0  0  0
    8.0895  -15.1932   24.1281 C   0  0  1  0  0  0  0  0  0  0  0  0
    7.0389  -14.9738   25.1954 C   0  0  0  0  0  0  0  0  0  0  0  0
    7.0304  -13.6053   25.7362 C   0  0  0  0  0  0  0  0  0  0  0  0
    5.8228  -12.9814   26.0119 C   0  0  0  0  0  0  0  0  0  0  0  0
    5.7506  -11.7062   26.5164 C   0  0  0  0  0  0  0  0  0  0  0  0
    6.8972  -10.9883   26.7711 C   0  0  0  0  0  0  0  0  0  0  0  0
    8.1066  -11.5945   26.5023 C   0  0  0  0  0  0  0  0  0  0  0  0
    8.1782  -12.8944   25.9881 C   0  0  0  0  0  0  0  0  0  0  0  0
    8.7876  -16.4584   24.3197 C   0  0  0  0  0  0  0  0  0  0  0  0
    8.1675  -17.5414   24.0480 O   0  0  0  0  0  0  0  0  0  0  0  0
   10.1129  -16.6017   24.7845 N   0  0  0  0  0  0  0  0  0  0  0  0
   10.8264  -17.8647   24.7802 C   0  0  1  0  0  0  0  0  0  0  0  0
   12.1631  -17.7132   24.0452 C   0  0  0  0  0  0  0  0  0  0  0  0
   12.8729  -19.0344   23.9595 C   0  0  0  0  0  0  0  0  0  0  0  0
   14.1531  -18.8987   23.1932 C   0  0  0  0  0  0  0  0  0  0  0  0
   14.7528  -20.2300   22.9131 C   0  0  0  0  0  0  0  0  0  0  0  0
   15.9702  -20.0540   22.1263 N   0  0  0  0  0  0  0  0  0  0  0  0
   11.1682  -18.2205   26.1751 C   0  0  0  0  0  0  0  0  0  0  0  0
   10.7614  -17.3763   27.2283 O   0  0  0  0  0  0  0  0  0  0  0  0
   11.8132  -19.2514   26.4889 O   0  0  0  0  0  0  0  0  0  0  0  0
  2  1  1  6
  2  3  1  0
  3  4  1  0
  5  6  2  0
  5  2  1  0
  7  5  1  0
  8  7  1  0
  8  9  1  1
 10  9  1  0
 11 10  2  0
 12 11  1  0
 13 12  2  0
 13 14  1  0
 14 15  2  0
 15 10  1  0
 16  8  1  0
 16 18  1  0
 17 16  2  0
 19 18  1  0
 19 25  1  0
 19 20  1  6
 21 20  1  0
 22 21  1  0
 23 24  1  0
 23 22  1  0
 25 26  1  0
 27 25  2  0
M  END
$$$$
