CFK.pdb
     RDKit          3D

 27 27  0  0  1  0  0  0  0  0999 V2000
    9.4490  -16.6663   18.6334 N   0  0  0  0  0  0  0  0  0  0  0  0
    8.3151  -16.5609   19.5127 C   0  0  1  0  0  0  0  0  0  0  0  0
    7.4975  -17.8288   19.5822 C   0  0  0  0  0  0  0  0  0  0  0  0
    8.5531  -19.0944   20.3676 S   0  0  0  0  0  0  0  0  0  0  0  0
    8.7257  -16.0633   20.8334 C   0  0  0  0  0  0  0  0  0  0  0  0
    9.8903  -16.2337   21.2965 O   0  0  0  0  0  0  0  0  0  0  0  0
    7.8017  -15.3659   21.6329 N   0  0  0  0  0  0  0  0  0  0  0  0
    8.0709  -14.8893   22.9792 C   0  0  1  0  0  0  0  0  0  0  0  0
    7.0230  -13.8818   23.4008 C   0  0  0  0  0  0  0  0  0  0  0  0
    7.2404  -13.3415   24.7522 C   0  0  0  0  0  0  0  0  0  0  0  0
    6.3511  -13.6536   25.7697 C   0  0  0  0  0  0  0  0  0  0  0  0
    6.5003  -13.1794   27.0499 C   0  0  0  0  0  0  0  0  0  0  0  0
    7.5590  -12.3615   27.3743 C   0  0  0  0  0  0  0  0  0  0  0  0
    8.4526  -12.0415   26.3736 C   0  0  0  0  0  0  0  0  0  0  0  0
    8.2988  -12.5258   25.0693 C   0  0  0  0  0  0  0  0  0  0  0  0
    8.2041  -15.9610   23.9582 C   0  0  0  0  0  0  0  0  0  0  0  0
    7.2098  -16.7408   24.1439 O   0  0  0  0  0  0  0  0  0  0  0  0
    9.3534  -16.2248   24.7344 N   0  0  0  0  0  0  0  0  0  0  0  0
    9.4690  -17.3642   25.6249 C   0  0  1  0  0  0  0  0  0  0  0  0
   10.9308  -17.8167   25.7158 C   0  0  0  0  0  0  0  0  0  0  0  0
   11.0743  -18.9504   26.6910 C   0  0  0  0  0  0  0  0  0  0  0  0
   12.5051  -19.3830   26.7926 C   0  0  0  0  0  0  0  0  0  0  0  0
   12.6441  -20.5679   27.6798 C   0  0  0  0  0  0  0  0  0  0  0  0
   14.0520  -20.9469   27.7604 N   0  0  0  0  0  0  0  0  0  0  0  0
    9.0901  -16.9386   26.9903 C   0  0  0  0  0  0  0  0  0  0  0  0
    8.2318  -17.7506   27.7593 O   0  0  0  0  0  0  0  0  0  0  0  0
    9.4937  -15.8745   27.5213 O   0  0  0  0  0  0  0  0  0  0  0  0
  2  1  1  6
  2  3  1  0
  3  4  1  0
  5  6  2  0
  5  2  1  0
  7  5  1  0
  8  7  1  0
  8  9  1  1
 10  9  1  0
 11 10  2  0
 12 11  1  0
 13 12  2  0
 13 14  1  0
 14 15  2  0
 15 10  1  0
 16  8  1  0
 16 18  1  0
 17 16  2  0
 19 18  1  0
 19 25  1  0
 19 20  1  1
 21 20  1  0
 22 21  1  0
 23 24  1  0
 23 22  1  0
 25 26  1  0
 27 25  2  0
M  END
$$$$
