CFK.pdb
     RDKit          3D

 27 27  0  0  1  0  0  0  0  0999 V2000
    9.9033  -16.0528   18.6319 N   0  0  0  0  0  0  0  0  0  0  0  0
    8.9149  -16.4741   19.5888 C   0  0  1  0  0  0  0  0  0  0  0  0
    8.7236  -17.9718   19.6249 C   0  0  0  0  0  0  0  0  0  0  0  0
    7.1839  -18.2845   20.5544 S   0  0  0  0  0  0  0  0  0  0  0  0
    9.1902  -15.8933   20.9107 C   0  0  0  0  0  0  0  0  0  0  0  0
   10.3487  -15.8649   21.4173 O   0  0  0  0  0  0  0  0  0  0  0  0
    8.1365  -15.3404   21.6614 N   0  0  0  0  0  0  0  0  0  0  0  0
    8.2768  -14.7931   23.0004 C   0  0  1  0  0  0  0  0  0  0  0  0
    7.0741  -13.9437   23.3511 C   0  0  0  0  0  0  0  0  0  0  0  0
    7.1255  -13.3900   24.7136 C   0  0  0  0  0  0  0  0  0  0  0  0
    6.3241  -13.9318   25.7075 C   0  0  0  0  0  0  0  0  0  0  0  0
    6.3272  -13.4579   26.9964 C   0  0  0  0  0  0  0  0  0  0  0  0
    7.1422  -12.4077   27.3540 C   0  0  0  0  0  0  0  0  0  0  0  0
    7.9455  -11.8575   26.3771 C   0  0  0  0  0  0  0  0  0  0  0  0
    7.9409  -12.3419   25.0638 C   0  0  0  0  0  0  0  0  0  0  0  0
    8.5284  -15.8063   24.0178 C   0  0  0  0  0  0  0  0  0  0  0  0
    7.6911  -16.7627   24.1424 O   0  0  0  0  0  0  0  0  0  0  0  0
    9.6347  -15.8316   24.8943 N   0  0  0  0  0  0  0  0  0  0  0  0
    9.9577  -16.9673   25.7370 C   0  0  1  0  0  0  0  0  0  0  0  0
   11.4412  -17.3256   25.5940 C   0  0  0  0  0  0  0  0  0  0  0  0
   11.8103  -18.4377   26.5341 C   0  0  0  0  0  0  0  0  0  0  0  0
   12.6489  -19.4644   25.8360 C   0  0  0  0  0  0  0  0  0  0  0  0
   13.0572  -20.5467   26.7701 C   0  0  0  0  0  0  0  0  0  0  0  0
   13.9570  -21.4657   26.0786 N   0  0  0  0  0  0  0  0  0  0  0  0
    9.7690  -16.5765   27.1515 C   0  0  0  0  0  0  0  0  0  0  0  0
    9.4319  -17.5580   28.1057 O   0  0  0  0  0  0  0  0  0  0  0  0
    9.8928  -15.3979   27.5670 O   0  0  0  0  0  0  0  0  0  0  0  0
  2  1  1  6
  2  3  1  0
  3  4  1  0
  5  6  2  0
  5  2  1  0
  7  5  1  0
  8  7  1  0
  8  9  1  1
 10  9  1  0
 11 10  2  0
 12 11  1  0
 13 12  2  0
 13 14  1  0
 14 15  2  0
 15 10  1  0
 16  8  1  0
 16 18  1  0
 17 16  2  0
 19 18  1  0
 19 25  1  0
 19 20  1  1
 21 20  1  0
 22 21  1  0
 23 24  1  0
 23 22  1  0
 25 26  1  0
 27 25  2  0
M  END
$$$$
