CFK.pdb
     RDKit          3D

 27 27  0  0  1  0  0  0  0  0999 V2000
    9.9193  -17.1991   19.7514 N   0  0  0  0  0  0  0  0  0  0  0  0
    8.8283  -17.2756   20.6862 C   0  0  1  0  0  0  0  0  0  0  0  0
    8.4611  -18.6932   21.0557 C   0  0  0  0  0  0  0  0  0  0  0  0
    6.7631  -18.6410   21.7242 S   0  0  0  0  0  0  0  0  0  0  0  0
    9.0832  -16.4201   21.8540 C   0  0  0  0  0  0  0  0  0  0  0  0
   10.2497  -16.1328   22.2495 O   0  0  0  0  0  0  0  0  0  0  0  0
    7.9999  -15.8877   22.5768 N   0  0  0  0  0  0  0  0  0  0  0  0
    8.1285  -15.0035   23.7230 C   0  0  1  0  0  0  0  0  0  0  0  0
    6.9080  -14.1165   23.8437 C   0  0  0  0  0  0  0  0  0  0  0  0
    6.9702  -13.1867   24.9826 C   0  0  0  0  0  0  0  0  0  0  0  0
    6.1066  -13.3530   26.0550 C   0  0  0  0  0  0  0  0  0  0  0  0
    6.1163  -12.5178   27.1451 C   0  0  0  0  0  0  0  0  0  0  0  0
    7.0012  -11.4654   27.2127 C   0  0  0  0  0  0  0  0  0  0  0  0
    7.8669  -11.2862   26.1540 C   0  0  0  0  0  0  0  0  0  0  0  0
    7.8555  -12.1386   25.0437 C   0  0  0  0  0  0  0  0  0  0  0  0
    8.4017  -15.7066   24.9703 C   0  0  0  0  0  0  0  0  0  0  0  0
    8.5812  -15.0163   26.0298 O   0  0  0  0  0  0  0  0  0  0  0  0
    8.4855  -17.1078   25.1207 N   0  0  0  0  0  0  0  0  0  0  0  0
    8.7291  -17.7592   26.3937 C   0  0  1  0  0  0  0  0  0  0  0  0
    8.5796  -19.2777   26.2466 C   0  0  0  0  0  0  0  0  0  0  0  0
    7.4231  -19.6113   25.3478 C   0  0  0  0  0  0  0  0  0  0  0  0
    7.3910  -21.0791   25.0494 C   0  0  0  0  0  0  0  0  0  0  0  0
    6.3114  -21.4046   24.0802 C   0  0  0  0  0  0  0  0  0  0  0  0
    6.8674  -21.4294   22.7303 N   0  0  0  0  0  0  0  0  0  0  0  0
   10.1372  -17.5259   26.7835 C   0  0  0  0  0  0  0  0  0  0  0  0
   10.9919  -16.8182   25.9140 O   0  0  0  0  0  0  0  0  0  0  0  0
   10.6321  -17.9275   27.8657 O   0  0  0  0  0  0  0  0  0  0  0  0
  2  1  1  6
  2  3  1  0
  3  4  1  0
  5  6  2  0
  5  2  1  0
  7  5  1  0
  8  7  1  0
  8  9  1  1
 10  9  1  0
 11 10  2  0
 12 11  1  0
 13 12  2  0
 13 14  1  0
 14 15  2  0
 15 10  1  0
 16  8  1  0
 16 18  1  0
 17 16  2  0
 19 18  1  0
 19 25  1  0
 19 20  1  6
 21 20  1  0
 22 21  1  0
 23 24  1  0
 23 22  1  0
 25 26  1  0
 27 25  2  0
M  END
$$$$
