CFK.pdb
     RDKit          3D

 27 27  0  0  1  0  0  0  0  0999 V2000
    6.2392  -17.7678   19.5172 N   0  0  0  0  0  0  0  0  0  0  0  0
    6.5878  -18.2522   20.8264 C   0  0  1  0  0  0  0  0  0  0  0  0
    7.4005  -19.5247   20.7918 C   0  0  0  0  0  0  0  0  0  0  0  0
    7.8171  -19.9314   22.5221 S   0  0  0  0  0  0  0  0  0  0  0  0
    7.2117  -17.1879   21.6255 C   0  0  0  0  0  0  0  0  0  0  0  0
    8.1939  -16.5078   21.2104 O   0  0  0  0  0  0  0  0  0  0  0  0
    6.7121  -16.8965   22.9081 N   0  0  0  0  0  0  0  0  0  0  0  0
    7.3049  -15.9377   23.8254 C   0  0  1  0  0  0  0  0  0  0  0  0
    6.2683  -15.4401   24.8097 C   0  0  0  0  0  0  0  0  0  0  0  0
    6.7528  -14.3474   25.6680 C   0  0  0  0  0  0  0  0  0  0  0  0
    6.5495  -13.0298   25.2857 C   0  0  0  0  0  0  0  0  0  0  0  0
    6.9789  -11.9681   26.0434 C   0  0  0  0  0  0  0  0  0  0  0  0
    7.6395  -12.1788   27.2327 C   0  0  0  0  0  0  0  0  0  0  0  0
    7.8497  -13.4836   27.6274 C   0  0  0  0  0  0  0  0  0  0  0  0
    7.4112  -14.5645   26.8536 C   0  0  0  0  0  0  0  0  0  0  0  0
    8.4887  -16.4442   24.5088 C   0  0  0  0  0  0  0  0  0  0  0  0
    8.3883  -17.5304   25.1730 O   0  0  0  0  0  0  0  0  0  0  0  0
    9.7624  -15.8354   24.5030 N   0  0  0  0  0  0  0  0  0  0  0  0
   10.9674  -16.5049   24.9550 C   0  0  1  0  0  0  0  0  0  0  0  0
   12.2054  -15.7074   24.5295 C   0  0  0  0  0  0  0  0  0  0  0  0
   13.4619  -16.4220   24.9386 C   0  0  0  0  0  0  0  0  0  0  0  0
   14.6166  -15.9921   24.0863 C   0  0  0  0  0  0  0  0  0  0  0  0
   15.8755  -16.6559   24.5166 C   0  0  0  0  0  0  0  0  0  0  0  0
   16.9435  -16.3161   23.5805 N   0  0  0  0  0  0  0  0  0  0  0  0
   10.9783  -16.5129   26.4345 C   0  0  0  0  0  0  0  0  0  0  0  0
   11.7744  -17.4534   27.1195 O   0  0  0  0  0  0  0  0  0  0  0  0
   10.3077  -15.7163   27.1365 O   0  0  0  0  0  0  0  0  0  0  0  0
  2  1  1  6
  2  3  1  0
  3  4  1  0
  5  6  2  0
  5  2  1  0
  7  5  1  0
  8  7  1  0
  8  9  1  1
 10  9  1  0
 11 10  2  0
 12 11  1  0
 13 12  2  0
 13 14  1  0
 14 15  2  0
 15 10  1  0
 16  8  1  0
 16 18  1  0
 17 16  2  0
 19 18  1  0
 19 25  1  0
 19 20  1  1
 21 20  1  0
 22 21  1  0
 23 24  1  0
 23 22  1  0
 25 26  1  0
 27 25  2  0
M  END
$$$$
