CFK.pdb
     RDKit          3D

 27 27  0  0  1  0  0  0  0  0999 V2000
    9.7184  -15.8604   18.9740 N   0  0  0  0  0  0  0  0  0  0  0  0
    9.0188  -16.4956   20.0589 C   0  0  1  0  0  0  0  0  0  0  0  0
    9.3125  -17.9728   20.1709 C   0  0  0  0  0  0  0  0  0  0  0  0
    8.2338  -18.6263   21.4908 S   0  0  0  0  0  0  0  0  0  0  0  0
    9.2353  -15.7651   21.3159 C   0  0  0  0  0  0  0  0  0  0  0  0
   10.3884  -15.5022   21.7640 O   0  0  0  0  0  0  0  0  0  0  0  0
    8.1286  -15.3307   22.0683 N   0  0  0  0  0  0  0  0  0  0  0  0
    8.2157  -14.7082   23.3786 C   0  0  1  0  0  0  0  0  0  0  0  0
    6.9347  -13.9670   23.6959 C   0  0  0  0  0  0  0  0  0  0  0  0
    6.9224  -13.3677   25.0398 C   0  0  0  0  0  0  0  0  0  0  0  0
    7.7043  -12.2530   25.3038 C   0  0  0  0  0  0  0  0  0  0  0  0
    7.7356  -11.6504   26.5373 C   0  0  0  0  0  0  0  0  0  0  0  0
    6.9768  -12.1415   27.5757 C   0  0  0  0  0  0  0  0  0  0  0  0
    6.1936  -13.2498   27.3297 C   0  0  0  0  0  0  0  0  0  0  0  0
    6.1630  -13.8627   26.0716 C   0  0  0  0  0  0  0  0  0  0  0  0
    8.5689  -15.6409   24.4417 C   0  0  0  0  0  0  0  0  0  0  0  0
    7.8076  -16.6458   24.6455 O   0  0  0  0  0  0  0  0  0  0  0  0
    9.6982  -15.5367   25.2825 N   0  0  0  0  0  0  0  0  0  0  0  0
   10.0746  -16.5586   26.2409 C   0  0  1  0  0  0  0  0  0  0  0  0
   11.4978  -17.0512   25.9554 C   0  0  0  0  0  0  0  0  0  0  0  0
   11.6055  -17.5737   24.5510 C   0  0  0  0  0  0  0  0  0  0  0  0
   12.9912  -18.0731   24.2770 C   0  0  0  0  0  0  0  0  0  0  0  0
   13.1435  -18.4746   22.8535 C   0  0  0  0  0  0  0  0  0  0  0  0
   14.5404  -18.8119   22.5950 N   0  0  0  0  0  0  0  0  0  0  0  0
   10.1184  -15.9505   27.5890 C   0  0  0  0  0  0  0  0  0  0  0  0
    9.8802  -14.5690   27.7374 O   0  0  0  0  0  0  0  0  0  0  0  0
   10.3599  -16.6019   28.6353 O   0  0  0  0  0  0  0  0  0  0  0  0
  2  1  1  6
  2  3  1  0
  3  4  1  0
  5  6  2  0
  5  2  1  0
  7  5  1  0
  8  7  1  0
  8  9  1  1
 10  9  1  0
 11 10  2  0
 12 11  1  0
 13 12  2  0
 13 14  1  0
 14 15  2  0
 15 10  1  0
 16  8  1  0
 16 18  1  0
 17 16  2  0
 19 18  1  0
 19 25  1  0
 19 20  1  6
 21 20  1  0
 22 21  1  0
 23 24  1  0
 23 22  1  0
 25 26  1  0
 27 25  2  0
M  END
$$$$
