CFK.pdb
     RDKit          3D

 27 27  0  0  1  0  0  0  0  0999 V2000
   10.7594  -16.4223   19.6807 N   0  0  0  0  0  0  0  0  0  0  0  0
    9.5740  -16.6131   20.4736 C   0  0  1  0  0  0  0  0  0  0  0  0
    9.1998  -18.0665   20.6421 C   0  0  0  0  0  0  0  0  0  0  0  0
    8.8270  -18.7117   18.9755 S   0  0  0  0  0  0  0  0  0  0  0  0
    9.6798  -15.8905   21.7492 C   0  0  0  0  0  0  0  0  0  0  0  0
   10.7878  -15.6554   22.3120 O   0  0  0  0  0  0  0  0  0  0  0  0
    8.5133  -15.4321   22.3886 N   0  0  0  0  0  0  0  0  0  0  0  0
    8.4864  -14.7848   23.6895 C   0  0  1  0  0  0  0  0  0  0  0  0
    7.1853  -14.0347   23.8778 C   0  0  0  0  0  0  0  0  0  0  0  0
    7.0657  -13.3916   25.1960 C   0  0  0  0  0  0  0  0  0  0  0  0
    6.1296  -13.8578   26.1070 C   0  0  0  0  0  0  0  0  0  0  0  0
    5.9704  -13.2987   27.3512 C   0  0  0  0  0  0  0  0  0  0  0  0
    6.7500  -12.2348   27.7454 C   0  0  0  0  0  0  0  0  0  0  0  0
    7.6859  -11.7591   26.8509 C   0  0  0  0  0  0  0  0  0  0  0  0
    7.8466  -12.3303   25.5831 C   0  0  0  0  0  0  0  0  0  0  0  0
    8.7403  -15.6977   24.7971 C   0  0  0  0  0  0  0  0  0  0  0  0
    7.9148  -16.6510   24.9997 O   0  0  0  0  0  0  0  0  0  0  0  0
    9.8369  -15.6271   25.6833 N   0  0  0  0  0  0  0  0  0  0  0  0
   10.0663  -16.5887   26.7450 C   0  0  1  0  0  0  0  0  0  0  0  0
   11.3913  -17.3241   26.5138 C   0  0  0  0  0  0  0  0  0  0  0  0
   11.3211  -18.1630   25.2696 C   0  0  0  0  0  0  0  0  0  0  0  0
   12.5921  -18.9327   25.0779 C   0  0  0  0  0  0  0  0  0  0  0  0
   12.4869  -19.8596   23.9202 C   0  0  0  0  0  0  0  0  0  0  0  0
   13.7816  -20.4955   23.6931 N   0  0  0  0  0  0  0  0  0  0  0  0
   10.2256  -15.8567   28.0209 C   0  0  0  0  0  0  0  0  0  0  0  0
   10.3380  -16.5773   29.2274 O   0  0  0  0  0  0  0  0  0  0  0  0
   10.2682  -14.6040   28.1003 O   0  0  0  0  0  0  0  0  0  0  0  0
  2  1  1  1
  2  3  1  0
  3  4  1  0
  5  6  2  0
  5  2  1  0
  7  5  1  0
  8  7  1  0
  8  9  1  1
 10  9  1  0
 11 10  2  0
 12 11  1  0
 13 12  2  0
 13 14  1  0
 14 15  2  0
 15 10  1  0
 16  8  1  0
 16 18  1  0
 17 16  2  0
 19 18  1  0
 19 25  1  0
 19 20  1  6
 21 20  1  0
 22 21  1  0
 23 24  1  0
 23 22  1  0
 25 26  1  0
 27 25  2  0
M  END
$$$$
