CFK.pdb
     RDKit          3D

 27 27  0  0  1  0  0  0  0  0999 V2000
    7.6887  -12.8007   19.8257 N   0  0  0  0  0  0  0  0  0  0  0  0
    7.3679  -14.0566   20.4500 C   0  0  1  0  0  0  0  0  0  0  0  0
    7.5104  -15.2366   19.5182 C   0  0  0  0  0  0  0  0  0  0  0  0
    7.0073  -16.7168   20.4609 S   0  0  0  0  0  0  0  0  0  0  0  0
    8.1128  -14.2178   21.7068 C   0  0  0  0  0  0  0  0  0  0  0  0
    9.3509  -13.9780   21.8034 O   0  0  0  0  0  0  0  0  0  0  0  0
    7.4413  -14.6559   22.8630 N   0  0  0  0  0  0  0  0  0  0  0  0
    8.0891  -14.9558   24.1289 C   0  0  1  0  0  0  0  0  0  0  0  0
    7.0961  -14.8518   25.2665 C   0  0  0  0  0  0  0  0  0  0  0  0
    6.9284  -13.4807   25.7738 C   0  0  0  0  0  0  0  0  0  0  0  0
    8.0301  -12.7803   26.2420 C   0  0  0  0  0  0  0  0  0  0  0  0
    7.9367  -11.4994   26.7281 C   0  0  0  0  0  0  0  0  0  0  0  0
    6.7220  -10.8529   26.7684 C   0  0  0  0  0  0  0  0  0  0  0  0
    5.6162  -11.5358   26.3065 C   0  0  0  0  0  0  0  0  0  0  0  0
    5.7135  -12.8414   25.8113 C   0  0  0  0  0  0  0  0  0  0  0  0
    8.7774  -16.2407   24.1382 C   0  0  0  0  0  0  0  0  0  0  0  0
    8.0860  -17.3012   23.9692 O   0  0  0  0  0  0  0  0  0  0  0  0
   10.1653  -16.4265   24.3175 N   0  0  0  0  0  0  0  0  0  0  0  0
   10.8117  -17.7230   24.2431 C   0  0  1  0  0  0  0  0  0  0  0  0
   12.2397  -17.5708   23.7069 C   0  0  0  0  0  0  0  0  0  0  0  0
   12.9259  -18.9056   23.6419 C   0  0  0  0  0  0  0  0  0  0  0  0
   13.8772  -18.9558   22.4855 C   0  0  0  0  0  0  0  0  0  0  0  0
   14.5396  -20.2837   22.3949 C   0  0  0  0  0  0  0  0  0  0  0  0
   15.6129  -20.2202   21.4069 N   0  0  0  0  0  0  0  0  0  0  0  0
   10.9482  -18.2637   25.6135 C   0  0  0  0  0  0  0  0  0  0  0  0
   10.5262  -17.4884   26.7128 O   0  0  0  0  0  0  0  0  0  0  0  0
   11.4274  -19.3966   25.8668 O   0  0  0  0  0  0  0  0  0  0  0  0
  2  1  1  6
  2  3  1  0
  3  4  1  0
  5  6  2  0
  5  2  1  0
  7  5  1  0
  8  7  1  0
  8  9  1  1
 10  9  1  0
 11 10  2  0
 12 11  1  0
 13 12  2  0
 13 14  1  0
 14 15  2  0
 15 10  1  0
 16  8  1  0
 16 18  1  0
 17 16  2  0
 19 18  1  0
 19 25  1  0
 19 20  1  1
 21 20  1  0
 22 21  1  0
 23 24  1  0
 23 22  1  0
 25 26  1  0
 27 25  2  0
M  END
$$$$
