CFK.pdb
     RDKit          3D

 27 27  0  0  1  0  0  0  0  0999 V2000
    7.7881  -13.8203   19.8115 N   0  0  0  0  0  0  0  0  0  0  0  0
    7.0659  -14.5264   20.8361 C   0  0  1  0  0  0  0  0  0  0  0  0
    6.4566  -15.8197   20.3493 C   0  0  0  0  0  0  0  0  0  0  0  0
    7.8429  -16.9399   19.9544 S   0  0  0  0  0  0  0  0  0  0  0  0
    7.8969  -14.6935   22.0369 C   0  0  0  0  0  0  0  0  0  0  0  0
    9.1570  -14.5862   22.0168 O   0  0  0  0  0  0  0  0  0  0  0  0
    7.2869  -14.9852   23.2708 N   0  0  0  0  0  0  0  0  0  0  0  0
    8.0063  -15.2102   24.5134 C   0  0  1  0  0  0  0  0  0  0  0  0
    7.1085  -14.9320   25.6997 C   0  0  0  0  0  0  0  0  0  0  0  0
    7.0615  -13.5107   26.0780 C   0  0  0  0  0  0  0  0  0  0  0  0
    8.2206  -12.8686   26.4874 C   0  0  0  0  0  0  0  0  0  0  0  0
    8.2398  -11.5451   26.8533 C   0  0  0  0  0  0  0  0  0  0  0  0
    7.0861  -10.7946   26.8259 C   0  0  0  0  0  0  0  0  0  0  0  0
    5.9245  -11.4183   26.4209 C   0  0  0  0  0  0  0  0  0  0  0  0
    5.9070  -12.7675   26.0484 C   0  0  0  0  0  0  0  0  0  0  0  0
    8.6116  -16.5333   24.6018 C   0  0  0  0  0  0  0  0  0  0  0  0
    7.8646  -17.5553   24.4328 O   0  0  0  0  0  0  0  0  0  0  0  0
    9.9745  -16.7963   24.8595 N   0  0  0  0  0  0  0  0  0  0  0  0
   10.5505  -18.1270   24.8189 C   0  0  1  0  0  0  0  0  0  0  0  0
   11.9244  -18.0869   24.1401 C   0  0  0  0  0  0  0  0  0  0  0  0
   12.4919  -19.4718   24.0111 C   0  0  0  0  0  0  0  0  0  0  0  0
   13.8625  -19.4280   23.4078 C   0  0  0  0  0  0  0  0  0  0  0  0
   14.4144  -20.7975   23.2333 C   0  0  0  0  0  0  0  0  0  0  0  0
   15.8008  -20.7047   22.7847 N   0  0  0  0  0  0  0  0  0  0  0  0
   10.7963  -18.5794   26.2060 C   0  0  0  0  0  0  0  0  0  0  0  0
   10.5418  -17.7019   27.2796 O   0  0  0  0  0  0  0  0  0  0  0  0
   11.2275  -19.7228   26.4957 O   0  0  0  0  0  0  0  0  0  0  0  0
  2  1  1  6
  2  3  1  0
  3  4  1  0
  5  6  2  0
  5  2  1  0
  7  5  1  0
  8  7  1  0
  8  9  1  1
 10  9  1  0
 11 10  2  0
 12 11  1  0
 13 12  2  0
 13 14  1  0
 14 15  2  0
 15 10  1  0
 16  8  1  0
 16 18  1  0
 17 16  2  0
 19 18  1  0
 19 25  1  0
 19 20  1  6
 21 20  1  0
 22 21  1  0
 23 24  1  0
 23 22  1  0
 25 26  1  0
 27 25  2  0
M  END
$$$$
