APE.pdb
     RDKit          3D

 22 22  0  0  1  0  0  0  0  0999 V2000
   27.5103  -18.2147  -15.0811 C   0  0  0  0  0  0  0  0  0  0  0  0
   27.6427  -19.7203  -15.1464 C   0  0  2  0  0  0  0  0  0  0  0  0
   28.0303  -20.1053  -16.4634 N   0  0  0  0  0  0  0  0  0  0  0  0
   26.3860  -20.3312  -14.6638 C   0  0  0  0  0  0  0  0  0  0  0  0
   25.4721  -20.4369  -15.5496 O   0  0  0  0  0  0  0  0  0  0  0  0
   26.1367  -20.7825  -13.3624 N   0  0  0  0  0  0  0  0  0  0  0  0
   27.1196  -20.7964  -12.3021 C   0  0  0  0  0  0  0  0  0  0  0  0
   26.5508  -21.5046  -11.1215 C   0  0  0  0  0  0  0  0  0  0  0  0
   25.0784  -21.5736  -11.3989 C   0  0  0  0  0  0  0  0  0  0  0  0
   24.9007  -21.2934  -12.8579 C   0  0  1  0  0  0  0  0  0  0  0  0
   23.7573  -20.3809  -13.0807 C   0  0  0  0  0  0  0  0  0  0  0  0
   23.7941  -19.2027  -12.6513 O   0  0  0  0  0  0  0  0  0  0  0  0
   22.5977  -20.7865  -13.7722 N   0  0  0  0  0  0  0  0  0  0  0  0
   21.4102  -19.9087  -13.9285 C   0  0  1  0  0  0  0  0  0  0  0  0
   21.3182  -19.5437  -15.3521 C   0  0  0  0  0  0  0  0  0  0  0  0
   22.4479  -18.9883  -16.0923 C   0  0  0  0  0  0  0  0  0  0  0  0
   22.3915  -18.8832  -17.5387 C   0  0  0  0  0  0  0  0  0  0  0  0
   21.4148  -19.3089  -18.2067 O   0  0  0  0  0  0  0  0  0  0  0  0
   20.2350  -20.5652  -13.3760 C   0  0  0  0  0  0  0  0  0  0  0  0
   19.1461  -19.9020  -13.2468 O   0  0  0  0  0  0  0  0  0  0  0  0
   23.4201  -18.3025  -18.2749 O   0  0  0  0  0  0  0  0  0  0  0  0
   20.1408  -21.8857  -12.9602 O   0  0  0  0  0  0  0  0  0  0  0  0
  2  1  1  6
  2  3  1  0
  4  2  1  0
  5  4  2  0
  6  4  1  0
  6  7  1  0
  8  7  1  0
  9 10  1  0
  9  8  1  0
 10  6  1  0
 10 11  1  1
 11 13  1  0
 12 11  2  0
 13 14  1  0
 14 19  1  0
 14 15  1  6
 15 16  1  0
 16 17  1  0
 17 18  2  0
 19 22  1  0
 20 19  2  0
 21 17  1  0
M  END
$$$$
