APE.pdb
     RDKit          3D

 22 22  0  0  1  0  0  0  0  0999 V2000
   23.2218  -12.3841  -19.3880 C   0  0  0  0  0  0  0  0  0  0  0  0
   23.5323  -12.9093  -18.0036 C   0  0  2  0  0  0  0  0  0  0  0  0
   22.5967  -13.9299  -17.6630 N   0  0  0  0  0  0  0  0  0  0  0  0
   23.5823  -11.7712  -17.0615 C   0  0  0  0  0  0  0  0  0  0  0  0
   22.4396  -11.3370  -16.6916 O   0  0  0  0  0  0  0  0  0  0  0  0
   24.7416  -11.1618  -16.5674 N   0  0  0  0  0  0  0  0  0  0  0  0
   26.0860  -11.5727  -16.9055 C   0  0  0  0  0  0  0  0  0  0  0  0
   27.0520  -10.8186  -16.0586 C   0  0  0  0  0  0  0  0  0  0  0  0
   26.2465   -9.6917  -15.4833 C   0  0  0  0  0  0  0  0  0  0  0  0
   24.8062  -10.0528  -15.6679 C   0  0  1  0  0  0  0  0  0  0  0  0
   24.0273   -8.8818  -16.1279 C   0  0  0  0  0  0  0  0  0  0  0  0
   23.7224   -8.7598  -17.3388 O   0  0  0  0  0  0  0  0  0  0  0  0
   23.6009   -7.8702  -15.2434 N   0  0  0  0  0  0  0  0  0  0  0  0
   22.6588   -6.7964  -15.6492 C   0  0  1  0  0  0  0  0  0  0  0  0
   21.4165   -7.4481  -16.0968 C   0  0  0  0  0  0  0  0  0  0  0  0
   20.1938   -6.6978  -16.3705 C   0  0  0  0  0  0  0  0  0  0  0  0
   18.9889   -7.3927  -16.7846 C   0  0  0  0  0  0  0  0  0  0  0  0
   18.9466   -8.6419  -16.9237 O   0  0  0  0  0  0  0  0  0  0  0  0
   22.5046   -5.8393  -14.5641 C   0  0  0  0  0  0  0  0  0  0  0  0
   22.2795   -4.6079  -14.8385 O   0  0  0  0  0  0  0  0  0  0  0  0
   17.8037   -6.7141  -17.0535 O   0  0  0  0  0  0  0  0  0  0  0  0
   22.5654   -6.1094  -13.2044 O   0  0  0  0  0  0  0  0  0  0  0  0
  2  1  1  6
  2  3  1  0
  4  2  1  0
  5  4  2  0
  6  4  1  0
  6  7  1  0
  8  7  1  0
  9 10  1  0
  9  8  1  0
 10  6  1  0
 10 11  1  6
 11 13  1  0
 12 11  2  0
 13 14  1  0
 14 19  1  0
 14 15  1  1
 15 16  1  0
 16 17  1  0
 17 18  2  0
 19 22  1  0
 20 19  2  0
 21 17  1  0
M  END
$$$$
