APE.pdb
     RDKit          3D

 22 22  0  0  1  0  0  0  0  0999 V2000
   27.2639  -17.8002  -15.2206 C   0  0  0  0  0  0  0  0  0  0  0  0
   27.5102  -19.2926  -15.2531 C   0  0  2  0  0  0  0  0  0  0  0  0
   27.8506  -19.6879  -16.5801 N   0  0  0  0  0  0  0  0  0  0  0  0
   26.3353  -19.9828  -14.6801 C   0  0  0  0  0  0  0  0  0  0  0  0
   25.3528  -20.1168  -15.4850 O   0  0  0  0  0  0  0  0  0  0  0  0
   26.2269  -20.4783  -13.3754 N   0  0  0  0  0  0  0  0  0  0  0  0
   27.2645  -20.3717  -12.3740 C   0  0  0  0  0  0  0  0  0  0  0  0
   26.8672  -21.1636  -11.1765 C   0  0  0  0  0  0  0  0  0  0  0  0
   25.4034  -21.4273  -11.3697 C   0  0  0  0  0  0  0  0  0  0  0  0
   25.1029  -21.1570  -12.8104 C   0  0  1  0  0  0  0  0  0  0  0  0
   23.8363  -20.4046  -12.9492 C   0  0  0  0  0  0  0  0  0  0  0  0
   23.7810  -19.1928  -12.6285 O   0  0  0  0  0  0  0  0  0  0  0  0
   22.6577  -21.0036  -13.4384 N   0  0  0  0  0  0  0  0  0  0  0  0
   21.3698  -20.2713  -13.5404 C   0  0  1  0  0  0  0  0  0  0  0  0
   21.0802  -20.0897  -14.9727 C   0  0  0  0  0  0  0  0  0  0  0  0
   21.8244  -19.1520  -15.8091 C   0  0  0  0  0  0  0  0  0  0  0  0
   21.5119  -19.0271  -17.2208 C   0  0  0  0  0  0  0  0  0  0  0  0
   21.1494  -17.9387  -17.7361 O   0  0  0  0  0  0  0  0  0  0  0  0
   20.3438  -20.9691  -12.7805 C   0  0  0  0  0  0  0  0  0  0  0  0
   19.3274  -20.3180  -12.3501 O   0  0  0  0  0  0  0  0  0  0  0  0
   21.5954  -20.1098  -18.0914 O   0  0  0  0  0  0  0  0  0  0  0  0
   20.3247  -22.3182  -12.4564 O   0  0  0  0  0  0  0  0  0  0  0  0
  2  1  1  6
  2  3  1  0
  4  2  1  0
  5  4  2  0
  6  4  1  0
  6  7  1  0
  8  7  1  0
  9 10  1  0
  9  8  1  0
 10  6  1  0
 10 11  1  1
 11 13  1  0
 12 11  2  0
 13 14  1  0
 14 19  1  0
 14 15  1  6
 15 16  1  0
 16 17  1  0
 17 18  2  0
 19 22  1  0
 20 19  2  0
 21 17  1  0
M  END
$$$$
