APE.pdb
     RDKit          3D

 22 22  0  0  1  0  0  0  0  0999 V2000
   22.1604  -10.7776  -19.2848 C   0  0  0  0  0  0  0  0  0  0  0  0
   21.5136  -11.4898  -18.1172 C   0  0  2  0  0  0  0  0  0  0  0  0
   20.3637  -12.1992  -18.5729 N   0  0  0  0  0  0  0  0  0  0  0  0
   21.2538  -10.5075  -17.0435 C   0  0  0  0  0  0  0  0  0  0  0  0
   20.4598   -9.5616  -17.3693 O   0  0  0  0  0  0  0  0  0  0  0  0
   21.7922  -10.5381  -15.7517 N   0  0  0  0  0  0  0  0  0  0  0  0
   22.5790  -11.6295  -15.2222 C   0  0  0  0  0  0  0  0  0  0  0  0
   22.8235  -11.3932  -13.7718 C   0  0  0  0  0  0  0  0  0  0  0  0
   22.4720   -9.9502  -13.5623 C   0  0  0  0  0  0  0  0  0  0  0  0
   21.6691   -9.5248  -14.7512 C   0  0  1  0  0  0  0  0  0  0  0  0
   22.0948   -8.1872  -15.2194 C   0  0  0  0  0  0  0  0  0  0  0  0
   23.0642   -8.0707  -16.0073 O   0  0  0  0  0  0  0  0  0  0  0  0
   21.4429   -7.0064  -14.8092 N   0  0  0  0  0  0  0  0  0  0  0  0
   21.9232   -5.6533  -15.1883 C   0  0  1  0  0  0  0  0  0  0  0  0
   20.9615   -5.1014  -16.1573 C   0  0  0  0  0  0  0  0  0  0  0  0
   20.8039   -5.6487  -17.5021 C   0  0  0  0  0  0  0  0  0  0  0  0
   19.8167   -5.0886  -18.4064 C   0  0  0  0  0  0  0  0  0  0  0  0
   19.0484   -4.1524  -18.0678 O   0  0  0  0  0  0  0  0  0  0  0  0
   22.1333   -4.8512  -13.9926 C   0  0  0  0  0  0  0  0  0  0  0  0
   21.4945   -5.1414  -12.9201 O   0  0  0  0  0  0  0  0  0  0  0  0
   19.6616   -5.5570  -19.7079 O   0  0  0  0  0  0  0  0  0  0  0  0
   22.9867   -3.7650  -13.8613 O   0  0  0  0  0  0  0  0  0  0  0  0
  2  1  1  6
  2  3  1  0
  4  2  1  0
  5  4  2  0
  6  4  1  0
  6  7  1  0
  8  7  1  0
  9 10  1  0
  9  8  1  0
 10  6  1  0
 10 11  1  6
 11 13  1  0
 12 11  2  0
 13 14  1  0
 14 19  1  0
 14 15  1  6
 15 16  1  0
 16 17  1  0
 17 18  2  0
 19 22  1  0
 20 19  2  0
 21 17  1  0
M  END
$$$$
