APE.pdb
     RDKit          3D

 22 22  0  0  1  0  0  0  0  0999 V2000
   30.8098  -20.5205  -10.5662 C   0  0  0  0  0  0  0  0  0  0  0  0
   30.4787  -21.5381   -9.4968 C   0  0  2  0  0  0  0  0  0  0  0  0
   30.9507  -22.8213   -9.9013 N   0  0  0  0  0  0  0  0  0  0  0  0
   29.0308  -21.4709   -9.2060 C   0  0  0  0  0  0  0  0  0  0  0  0
   28.3042  -22.2112   -9.9511 O   0  0  0  0  0  0  0  0  0  0  0  0
   28.4255  -20.6882   -8.2158 N   0  0  0  0  0  0  0  0  0  0  0  0
   29.1495  -19.9300   -7.2200 C   0  0  0  0  0  0  0  0  0  0  0  0
   28.1812  -19.3731   -6.2345 C   0  0  0  0  0  0  0  0  0  0  0  0
   26.8442  -19.5205   -6.8979 C   0  0  0  0  0  0  0  0  0  0  0  0
   27.0229  -20.4982   -8.0164 C   0  0  1  0  0  0  0  0  0  0  0  0
   26.3173  -20.0375   -9.2327 C   0  0  0  0  0  0  0  0  0  0  0  0
   26.8498  -19.1928   -9.9923 O   0  0  0  0  0  0  0  0  0  0  0  0
   25.0398  -20.5177   -9.5860 N   0  0  0  0  0  0  0  0  0  0  0  0
   24.4108  -20.2290  -10.8998 C   0  0  1  0  0  0  0  0  0  0  0  0
   25.2718  -20.8194  -11.9382 C   0  0  0  0  0  0  0  0  0  0  0  0
   24.9002  -20.8296  -13.3505 C   0  0  0  0  0  0  0  0  0  0  0  0
   25.8261  -21.3400  -14.3447 C   0  0  0  0  0  0  0  0  0  0  0  0
   26.9500  -21.8130  -14.0375 O   0  0  0  0  0  0  0  0  0  0  0  0
   23.0307  -20.6900  -10.8981 C   0  0  0  0  0  0  0  0  0  0  0  0
   22.2461  -20.3306  -11.8455 O   0  0  0  0  0  0  0  0  0  0  0  0
   25.5230  -21.3357  -15.7032 O   0  0  0  0  0  0  0  0  0  0  0  0
   22.4332  -21.5169   -9.9576 O   0  0  0  0  0  0  0  0  0  0  0  0
  2  1  1  6
  2  3  1  0
  4  2  1  0
  5  4  2  0
  6  4  1  0
  6  7  1  0
  8  7  1  0
  9 10  1  0
  9  8  1  0
 10  6  1  0
 10 11  1  6
 11 13  1  0
 12 11  2  0
 13 14  1  0
 14 19  1  0
 14 15  1  6
 15 16  1  0
 16 17  1  0
 17 18  2  0
 19 22  1  0
 20 19  2  0
 21 17  1  0
M  END
$$$$
