APE.pdb
     RDKit          3D

 22 22  0  0  1  0  0  0  0  0999 V2000
   19.7277  -11.2408  -18.8755 C   0  0  0  0  0  0  0  0  0  0  0  0
   20.0761  -12.0762  -17.6633 C   0  0  2  0  0  0  0  0  0  0  0  0
   18.9674  -12.9066  -17.3254 N   0  0  0  0  0  0  0  0  0  0  0  0
   20.5344  -11.1792  -16.5813 C   0  0  0  0  0  0  0  0  0  0  0  0
   19.6292  -10.4132  -16.1069 O   0  0  0  0  0  0  0  0  0  0  0  0
   21.8326  -11.1120  -16.0621 N   0  0  0  0  0  0  0  0  0  0  0  0
   22.9195  -11.9738  -16.4703 C   0  0  0  0  0  0  0  0  0  0  0  0
   24.0906  -11.7330  -15.5817 C   0  0  0  0  0  0  0  0  0  0  0  0
   23.7737  -10.4433  -14.8848 C   0  0  0  0  0  0  0  0  0  0  0  0
   22.3078  -10.2038  -15.0658 C   0  0  1  0  0  0  0  0  0  0  0  0
   22.0454   -8.7855  -15.3959 C   0  0  0  0  0  0  0  0  0  0  0  0
   21.6414   -8.4655  -16.5398 O   0  0  0  0  0  0  0  0  0  0  0  0
   22.2340   -7.7499  -14.4581 N   0  0  0  0  0  0  0  0  0  0  0  0
   21.8212   -6.3476  -14.7197 C   0  0  1  0  0  0  0  0  0  0  0  0
   20.3687   -6.3553  -14.9620 C   0  0  0  0  0  0  0  0  0  0  0  0
   19.5837   -5.1271  -15.0520 C   0  0  0  0  0  0  0  0  0  0  0  0
   18.1516   -5.1917  -15.2783 C   0  0  0  0  0  0  0  0  0  0  0  0
   17.3798   -5.8380  -14.5248 O   0  0  0  0  0  0  0  0  0  0  0  0
   22.2671   -5.4907  -13.6315 C   0  0  0  0  0  0  0  0  0  0  0  0
   22.5062   -4.2531  -13.8626 O   0  0  0  0  0  0  0  0  0  0  0  0
   17.5456   -4.5390  -16.3479 O   0  0  0  0  0  0  0  0  0  0  0  0
   22.4664   -5.8638  -12.3099 O   0  0  0  0  0  0  0  0  0  0  0  0
  2  1  1  6
  2  3  1  0
  4  2  1  0
  5  4  2  0
  6  4  1  0
  6  7  1  0
  8  7  1  0
  9 10  1  0
  9  8  1  0
 10  6  1  0
 10 11  1  6
 11 13  1  0
 12 11  2  0
 13 14  1  0
 14 19  1  0
 14 15  1  1
 15 16  1  0
 16 17  1  0
 17 18  2  0
 19 22  1  0
 20 19  2  0
 21 17  1  0
M  END
$$$$
