APE.pdb
     RDKit          3D

 22 22  0  0  1  0  0  0  0  0999 V2000
   20.6015  -11.7703  -18.5453 C   0  0  0  0  0  0  0  0  0  0  0  0
   20.5702  -12.4556  -17.1969 C   0  0  2  0  0  0  0  0  0  0  0  0
   19.3593  -13.1976  -17.0704 N   0  0  0  0  0  0  0  0  0  0  0  0
   20.7935  -11.4442  -16.1422 C   0  0  0  0  0  0  0  0  0  0  0  0
   19.8076  -10.6571  -15.9434 O   0  0  0  0  0  0  0  0  0  0  0  0
   21.9574  -11.2936  -15.3791 N   0  0  0  0  0  0  0  0  0  0  0  0
   23.0982  -12.1793  -15.4489 C   0  0  0  0  0  0  0  0  0  0  0  0
   24.0628  -11.8146  -14.3740 C   0  0  0  0  0  0  0  0  0  0  0  0
   23.6194  -10.4567  -13.9168 C   0  0  0  0  0  0  0  0  0  0  0  0
   22.2242  -10.2655  -14.4227 C   0  0  1  0  0  0  0  0  0  0  0  0
   22.0468   -8.9011  -14.9672 C   0  0  0  0  0  0  0  0  0  0  0  0
   22.3599   -8.6476  -16.1554 O   0  0  0  0  0  0  0  0  0  0  0  0
   21.5280   -7.8451  -14.1906 N   0  0  0  0  0  0  0  0  0  0  0  0
   21.4418   -6.4498  -14.6915 C   0  0  1  0  0  0  0  0  0  0  0  0
   20.0155   -6.1408  -14.8872 C   0  0  0  0  0  0  0  0  0  0  0  0
   19.1788   -6.8727  -15.8344 C   0  0  0  0  0  0  0  0  0  0  0  0
   17.7518   -6.6158  -15.8971 C   0  0  0  0  0  0  0  0  0  0  0  0
   16.9183   -7.2817  -15.2313 O   0  0  0  0  0  0  0  0  0  0  0  0
   22.1551   -5.5571  -13.7907 C   0  0  0  0  0  0  0  0  0  0  0  0
   22.3058   -5.8911  -12.5626 O   0  0  0  0  0  0  0  0  0  0  0  0
   17.2195   -5.6126  -16.7019 O   0  0  0  0  0  0  0  0  0  0  0  0
   22.7272   -4.3351  -14.1144 O   0  0  0  0  0  0  0  0  0  0  0  0
  2  1  1  6
  2  3  1  0
  4  2  1  0
  5  4  2  0
  6  4  1  0
  6  7  1  0
  8  7  1  0
  9 10  1  0
  9  8  1  0
 10  6  1  0
 10 11  1  6
 11 13  1  0
 12 11  2  0
 13 14  1  0
 14 19  1  0
 14 15  1  1
 15 16  1  0
 16 17  1  0
 17 18  2  0
 19 22  1  0
 20 19  2  0
 21 17  1  0
M  END
$$$$
