APE.pdb
     RDKit          3D

 22 22  0  0  1  0  0  0  0  0999 V2000
   25.7739  -28.7086  -18.0771 C   0  0  0  0  0  0  0  0  0  0  0  0
   26.5301  -28.0553  -16.9412 C   0  0  2  0  0  0  0  0  0  0  0  0
   27.4326  -28.9988  -16.3682 N   0  0  0  0  0  0  0  0  0  0  0  0
   25.5573  -27.4703  -15.9944 C   0  0  0  0  0  0  0  0  0  0  0  0
   24.9958  -28.3159  -15.2192 O   0  0  0  0  0  0  0  0  0  0  0  0
   25.2219  -26.1152  -15.8909 N   0  0  0  0  0  0  0  0  0  0  0  0
   25.7676  -25.0738  -16.7326 C   0  0  0  0  0  0  0  0  0  0  0  0
   25.3217  -23.7491  -16.2173 C   0  0  0  0  0  0  0  0  0  0  0  0
   24.1999  -24.0712  -15.2754 C   0  0  0  0  0  0  0  0  0  0  0  0
   24.3033  -25.5312  -14.9645 C   0  0  1  0  0  0  0  0  0  0  0  0
   22.9676  -26.1676  -14.9868 C   0  0  0  0  0  0  0  0  0  0  0  0
   22.5336  -26.6926  -16.0404 O   0  0  0  0  0  0  0  0  0  0  0  0
   22.1387  -26.2117  -13.8474 N   0  0  0  0  0  0  0  0  0  0  0  0
   20.7842  -26.8203  -13.8655 C   0  0  1  0  0  0  0  0  0  0  0  0
   20.7152  -27.7716  -12.7436 C   0  0  0  0  0  0  0  0  0  0  0  0
   20.7266  -27.3390  -11.3487 C   0  0  0  0  0  0  0  0  0  0  0  0
   20.5349  -28.3059  -10.2836 C   0  0  0  0  0  0  0  0  0  0  0  0
   21.4852  -28.7204   -9.5719 O   0  0  0  0  0  0  0  0  0  0  0  0
   19.7729  -25.7741  -13.8587 C   0  0  0  0  0  0  0  0  0  0  0  0
   18.5463  -26.0833  -14.0640 O   0  0  0  0  0  0  0  0  0  0  0  0
   19.2818  -28.8339   -9.9859 O   0  0  0  0  0  0  0  0  0  0  0  0
   19.9813  -24.4201  -13.6384 O   0  0  0  0  0  0  0  0  0  0  0  0
  2  1  1  6
  2  3  1  0
  4  2  1  0
  5  4  2  0
  6  4  1  0
  6  7  1  0
  8  7  1  0
  9 10  1  0
  9  8  1  0
 10  6  1  0
 10 11  1  6
 11 13  1  0
 12 11  2  0
 13 14  1  0
 14 19  1  0
 14 15  1  1
 15 16  1  0
 16 17  1  0
 17 18  2  0
 19 22  1  0
 20 19  2  0
 21 17  1  0
M  END
$$$$
