APE.pdb
     RDKit          3D

 22 22  0  0  1  0  0  0  0  0999 V2000
   18.5724  -12.3844  -13.6697 C   0  0  0  0  0  0  0  0  0  0  0  0
   17.5400  -11.5866  -14.4355 C   0  0  2  0  0  0  0  0  0  0  0  0
   18.0474  -11.2751  -15.7311 N   0  0  0  0  0  0  0  0  0  0  0  0
   17.1435  -10.4161  -13.6244 C   0  0  0  0  0  0  0  0  0  0  0  0
   17.8711   -9.3804  -13.7948 O   0  0  0  0  0  0  0  0  0  0  0  0
   16.0744  -10.3637  -12.7223 N   0  0  0  0  0  0  0  0  0  0  0  0
   15.1785  -11.4667  -12.4550 C   0  0  0  0  0  0  0  0  0  0  0  0
   14.0672  -10.9901  -11.5849 C   0  0  0  0  0  0  0  0  0  0  0  0
   14.5462   -9.6722  -11.0527 C   0  0  0  0  0  0  0  0  0  0  0  0
   15.6868   -9.2448  -11.9217 C   0  0  1  0  0  0  0  0  0  0  0  0
   16.7933   -8.7007  -11.1038 C   0  0  0  0  0  0  0  0  0  0  0  0
   17.4735   -9.4603  -10.3727 O   0  0  0  0  0  0  0  0  0  0  0  0
   17.1267   -7.3310  -11.1091 N   0  0  0  0  0  0  0  0  0  0  0  0
   18.1272   -6.7466  -10.1801 C   0  0  1  0  0  0  0  0  0  0  0  0
   19.1156   -6.0234  -10.9976 C   0  0  0  0  0  0  0  0  0  0  0  0
   19.9969   -6.7030  -11.9433 C   0  0  0  0  0  0  0  0  0  0  0  0
   20.9846   -5.9480  -12.6919 C   0  0  0  0  0  0  0  0  0  0  0  0
   21.7908   -5.1586  -12.1366 O   0  0  0  0  0  0  0  0  0  0  0  0
   17.4530   -5.9491   -9.1669 C   0  0  0  0  0  0  0  0  0  0  0  0
   16.2809   -5.4890   -9.4052 O   0  0  0  0  0  0  0  0  0  0  0  0
   21.0980   -6.0537  -14.0751 O   0  0  0  0  0  0  0  0  0  0  0  0
   17.9420   -5.6168   -7.9115 O   0  0  0  0  0  0  0  0  0  0  0  0
  2  1  1  1
  2  3  1  0
  4  2  1  0
  5  4  2  0
  6  4  1  0
  6  7  1  0
  8  7  1  0
  9 10  1  0
  9  8  1  0
 10  6  1  0
 10 11  1  1
 11 13  1  0
 12 11  2  0
 13 14  1  0
 14 19  1  0
 14 15  1  6
 15 16  1  0
 16 17  1  0
 17 18  2  0
 19 22  1  0
 20 19  2  0
 21 17  1  0
M  END
$$$$
