APE.pdb
     RDKit          3D

 22 22  0  0  1  0  0  0  0  0999 V2000
   19.5064  -10.4301  -18.6283 C   0  0  0  0  0  0  0  0  0  0  0  0
   19.4979  -11.2336  -17.3464 C   0  0  2  0  0  0  0  0  0  0  0  0
   18.1807  -11.7215  -17.1017 N   0  0  0  0  0  0  0  0  0  0  0  0
   20.0669  -10.4068  -16.2611 C   0  0  0  0  0  0  0  0  0  0  0  0
   19.2858   -9.4976  -15.8203 O   0  0  0  0  0  0  0  0  0  0  0  0
   21.3449  -10.5428  -15.7062 N   0  0  0  0  0  0  0  0  0  0  0  0
   22.2705  -11.6019  -16.0412 C   0  0  0  0  0  0  0  0  0  0  0  0
   23.4460  -11.5262  -15.1293 C   0  0  0  0  0  0  0  0  0  0  0  0
   23.3474  -10.1673  -14.5021 C   0  0  0  0  0  0  0  0  0  0  0  0
   21.9515   -9.6833  -14.7386 C   0  0  1  0  0  0  0  0  0  0  0  0
   21.9518   -8.2594  -15.1412 C   0  0  0  0  0  0  0  0  0  0  0  0
   21.8290   -7.9425  -16.3489 O   0  0  0  0  0  0  0  0  0  0  0  0
   22.0875   -7.2150  -14.2040 N   0  0  0  0  0  0  0  0  0  0  0  0
   22.0370   -5.7817  -14.5892 C   0  0  1  0  0  0  0  0  0  0  0  0
   20.7643   -5.5616  -15.2963 C   0  0  0  0  0  0  0  0  0  0  0  0
   19.4744   -5.5842  -14.6118 C   0  0  0  0  0  0  0  0  0  0  0  0
   18.2582   -5.2657  -15.3367 C   0  0  0  0  0  0  0  0  0  0  0  0
   17.3804   -6.1296  -15.5908 O   0  0  0  0  0  0  0  0  0  0  0  0
   22.2508   -4.9477  -13.4162 C   0  0  0  0  0  0  0  0  0  0  0  0
   22.5165   -3.7033  -13.5689 O   0  0  0  0  0  0  0  0  0  0  0  0
   17.9908   -3.9792  -15.7957 O   0  0  0  0  0  0  0  0  0  0  0  0
   22.1909   -5.3504  -12.0897 O   0  0  0  0  0  0  0  0  0  0  0  0
  2  1  1  6
  2  3  1  0
  4  2  1  0
  5  4  2  0
  6  4  1  0
  6  7  1  0
  8  7  1  0
  9 10  1  0
  9  8  1  0
 10  6  1  0
 10 11  1  6
 11 13  1  0
 12 11  2  0
 13 14  1  0
 14 19  1  0
 14 15  1  1
 15 16  1  0
 16 17  1  0
 17 18  2  0
 19 22  1  0
 20 19  2  0
 21 17  1  0
M  END
$$$$
