APE.pdb
     RDKit          3D

 22 22  0  0  1  0  0  0  0  0999 V2000
   20.8415  -10.6310  -19.5156 C   0  0  0  0  0  0  0  0  0  0  0  0
   20.6668  -11.5367  -18.3164 C   0  0  2  0  0  0  0  0  0  0  0  0
   19.3869  -12.1622  -18.3774 N   0  0  0  0  0  0  0  0  0  0  0  0
   20.9197  -10.7554  -17.0873 C   0  0  0  0  0  0  0  0  0  0  0  0
   19.9706   -9.9689  -16.7529 O   0  0  0  0  0  0  0  0  0  0  0  0
   22.0744  -10.8129  -16.2981 N   0  0  0  0  0  0  0  0  0  0  0  0
   23.1497  -11.7594  -16.4947 C   0  0  0  0  0  0  0  0  0  0  0  0
   24.1145  -11.6399  -15.3659 C   0  0  0  0  0  0  0  0  0  0  0  0
   23.7600  -10.3408  -14.7053 C   0  0  0  0  0  0  0  0  0  0  0  0
   22.3936   -9.9696  -15.1891 C   0  0  1  0  0  0  0  0  0  0  0  0
   22.3267   -8.5275  -15.5140 C   0  0  0  0  0  0  0  0  0  0  0  0
   22.2156   -8.1511  -16.7056 O   0  0  0  0  0  0  0  0  0  0  0  0
   22.3837   -7.5310  -14.5185 N   0  0  0  0  0  0  0  0  0  0  0  0
   22.1665   -6.0917  -14.8126 C   0  0  1  0  0  0  0  0  0  0  0  0
   20.8434   -5.9679  -15.4471 C   0  0  0  0  0  0  0  0  0  0  0  0
   20.2007   -4.6758  -15.6715 C   0  0  0  0  0  0  0  0  0  0  0  0
   18.8773   -4.6126  -16.2637 C   0  0  0  0  0  0  0  0  0  0  0  0
   18.2577   -5.6408  -16.6382 O   0  0  0  0  0  0  0  0  0  0  0  0
   22.3529   -5.3069  -13.6017 C   0  0  0  0  0  0  0  0  0  0  0  0
   22.7097   -4.0796  -13.6959 O   0  0  0  0  0  0  0  0  0  0  0  0
   18.2129   -3.4042  -16.4528 O   0  0  0  0  0  0  0  0  0  0  0  0
   22.1752   -5.7412  -12.2958 O   0  0  0  0  0  0  0  0  0  0  0  0
  2  1  1  6
  2  3  1  0
  4  2  1  0
  5  4  2  0
  6  4  1  0
  6  7  1  0
  8  7  1  0
  9 10  1  0
  9  8  1  0
 10  6  1  0
 10 11  1  6
 11 13  1  0
 12 11  2  0
 13 14  1  0
 14 19  1  0
 14 15  1  1
 15 16  1  0
 16 17  1  0
 17 18  2  0
 19 22  1  0
 20 19  2  0
 21 17  1  0
M  END
$$$$
