APE.pdb
     RDKit          3D

 22 22  0  0  1  0  0  0  0  0999 V2000
   16.8776   -9.5816  -14.1600 C   0  0  0  0  0  0  0  0  0  0  0  0
   17.6897   -9.5840  -12.8836 C   0  0  2  0  0  0  0  0  0  0  0  0
   16.8614   -9.1841  -11.7941 N   0  0  0  0  0  0  0  0  0  0  0  0
   18.8970   -8.7549  -13.0845 C   0  0  0  0  0  0  0  0  0  0  0  0
   18.6907   -7.4954  -13.0366 O   0  0  0  0  0  0  0  0  0  0  0  0
   20.1935   -9.2304  -13.3137 N   0  0  0  0  0  0  0  0  0  0  0  0
   20.5607  -10.6289  -13.3137 C   0  0  0  0  0  0  0  0  0  0  0  0
   22.0428  -10.7420  -13.4124 C   0  0  0  0  0  0  0  0  0  0  0  0
   22.4952   -9.3787  -13.8440 C   0  0  0  0  0  0  0  0  0  0  0  0
   21.3558   -8.4440  -13.5850 C   0  0  1  0  0  0  0  0  0  0  0  0
   21.1770   -7.5093  -14.7181 C   0  0  0  0  0  0  0  0  0  0  0  0
   20.4302   -7.8142  -15.6790 O   0  0  0  0  0  0  0  0  0  0  0  0
   21.8251   -6.2583  -14.7679 N   0  0  0  0  0  0  0  0  0  0  0  0
   21.6504   -5.3102  -15.8975 C   0  0  1  0  0  0  0  0  0  0  0  0
   20.2231   -4.9525  -15.9539 C   0  0  0  0  0  0  0  0  0  0  0  0
   19.5498   -4.2455  -14.8677 C   0  0  0  0  0  0  0  0  0  0  0  0
   18.1577   -3.8582  -15.0020 C   0  0  0  0  0  0  0  0  0  0  0  0
   17.7248   -3.2414  -16.0087 O   0  0  0  0  0  0  0  0  0  0  0  0
   22.5681   -4.1909  -15.7487 C   0  0  0  0  0  0  0  0  0  0  0  0
   23.1931   -4.0326  -14.6412 O   0  0  0  0  0  0  0  0  0  0  0  0
   17.2153   -4.1481  -14.0195 O   0  0  0  0  0  0  0  0  0  0  0  0
   22.8712   -3.2335  -16.7063 O   0  0  0  0  0  0  0  0  0  0  0  0
  2  1  1  6
  2  3  1  0
  4  2  1  0
  5  4  2  0
  6  4  1  0
  6  7  1  0
  8  7  1  0
  9 10  1  0
  9  8  1  0
 10  6  1  0
 10 11  1  6
 11 13  1  0
 12 11  2  0
 13 14  1  0
 14 19  1  0
 14 15  1  1
 15 16  1  0
 16 17  1  0
 17 18  2  0
 19 22  1  0
 20 19  2  0
 21 17  1  0
M  END
$$$$
