APE.pdb
     RDKit          3D

 22 22  0  0  1  0  0  0  0  0999 V2000
   20.6116  -11.5394  -19.1698 C   0  0  0  0  0  0  0  0  0  0  0  0
   20.5616  -12.2826  -17.8530 C   0  0  2  0  0  0  0  0  0  0  0  0
   19.2735  -12.8718  -17.6900 N   0  0  0  0  0  0  0  0  0  0  0  0
   20.9664  -11.3618  -16.7697 C   0  0  0  0  0  0  0  0  0  0  0  0
   20.0538  -10.5525  -16.3914 O   0  0  0  0  0  0  0  0  0  0  0  0
   22.2235  -11.3153  -16.1556 N   0  0  0  0  0  0  0  0  0  0  0  0
   23.3018  -12.2373  -16.4348 C   0  0  0  0  0  0  0  0  0  0  0  0
   24.4115  -11.9932  -15.4714 C   0  0  0  0  0  0  0  0  0  0  0  0
   24.0961  -10.6574  -14.8666 C   0  0  0  0  0  0  0  0  0  0  0  0
   22.6592  -10.3738  -15.1723 C   0  0  1  0  0  0  0  0  0  0  0  0
   22.4808   -8.9662  -15.5924 C   0  0  0  0  0  0  0  0  0  0  0  0
   22.3498   -8.6792  -16.8067 O   0  0  0  0  0  0  0  0  0  0  0  0
   22.4506   -7.9048  -14.6651 N   0  0  0  0  0  0  0  0  0  0  0  0
   22.1108   -6.5121  -15.0526 C   0  0  1  0  0  0  0  0  0  0  0  0
   20.8034   -6.5511  -15.7290 C   0  0  0  0  0  0  0  0  0  0  0  0
   20.0477   -5.3412  -16.0420 C   0  0  0  0  0  0  0  0  0  0  0  0
   19.0492   -5.3569  -17.0950 C   0  0  0  0  0  0  0  0  0  0  0  0
   17.8531   -5.6827  -16.8835 O   0  0  0  0  0  0  0  0  0  0  0  0
   22.1841   -5.6438  -13.8873 C   0  0  0  0  0  0  0  0  0  0  0  0
   22.5662   -4.4290  -14.0308 O   0  0  0  0  0  0  0  0  0  0  0  0
   19.3583   -5.0106  -18.4072 O   0  0  0  0  0  0  0  0  0  0  0  0
   21.8680   -5.9821  -12.5792 O   0  0  0  0  0  0  0  0  0  0  0  0
  2  1  1  6
  2  3  1  0
  4  2  1  0
  5  4  2  0
  6  4  1  0
  6  7  1  0
  8  7  1  0
  9 10  1  0
  9  8  1  0
 10  6  1  0
 10 11  1  6
 11 13  1  0
 12 11  2  0
 13 14  1  0
 14 19  1  0
 14 15  1  1
 15 16  1  0
 16 17  1  0
 17 18  2  0
 19 22  1  0
 20 19  2  0
 21 17  1  0
M  END
$$$$
