SKW.pdb
     RDKit          3D

 30 31  0  0  1  0  0  0  0  0999 V2000
   28.8664  -19.0699  -17.1289 O   0  0  0  0  0  0  0  0  0  0  0  0
   27.8663  -18.6914  -17.9984 C   0  0  0  0  0  0  0  0  0  0  0  0
   27.0758  -19.8624  -18.5288 C   0  0  2  0  0  0  0  0  0  0  0  0
   26.1069  -19.4602  -19.5218 N   0  0  0  0  0  0  0  0  0  0  0  0
   26.4338  -20.6451  -17.4434 C   0  0  0  0  0  0  0  0  0  0  0  0
   25.3668  -20.2151  -16.8871 O   0  0  0  0  0  0  0  0  0  0  0  0
   26.9902  -21.8766  -17.0073 N   0  0  0  0  0  0  0  0  0  0  0  0
   26.4802  -22.6500  -15.9118 C   0  0  1  0  0  0  0  0  0  0  0  0
   26.8437  -24.1016  -15.9560 C   0  0  0  0  0  0  0  0  0  0  0  0
   26.5327  -24.7511  -17.2747 C   0  0  0  0  0  0  0  0  0  0  0  0
   27.6271  -25.7408  -17.6067 C   0  0  0  0  0  0  0  0  0  0  0  0
   27.4523  -26.9244  -16.6755 C   0  0  0  0  0  0  0  0  0  0  0  0
   28.4376  -27.9551  -16.9299 N   0  0  0  0  0  0  0  0  0  0  0  0
   26.7944  -22.0328  -14.5881 C   0  0  0  0  0  0  0  0  0  0  0  0
   27.8209  -21.3124  -14.5016 O   0  0  0  0  0  0  0  0  0  0  0  0
   26.0008  -22.2216  -13.4479 N   0  0  0  0  0  0  0  0  0  0  0  0
   26.3060  -21.5292  -12.2016 C   0  0  1  0  0  0  0  0  0  0  0  0
   25.8779  -20.0915  -12.2451 C   0  0  0  0  0  0  0  0  0  0  0  0
   24.4111  -20.0058  -12.4713 C   0  0  0  0  0  0  0  0  0  0  0  0
   23.3858  -20.2143  -11.5726 C   0  0  0  0  0  0  0  0  0  0  0  0
   22.1976  -20.0347  -12.1743 N   0  0  0  0  0  0  0  0  0  0  0  0
   22.4510  -19.7071  -13.4731 C   0  0  0  0  0  0  0  0  0  0  0  0
   21.5803  -19.4226  -14.5192 C   0  0  0  0  0  0  0  0  0  0  0  0
   22.0605  -19.1145  -15.7708 C   0  0  0  0  0  0  0  0  0  0  0  0
   23.4291  -19.0977  -15.9504 C   0  0  0  0  0  0  0  0  0  0  0  0
   24.3127  -19.3775  -14.9229 C   0  0  0  0  0  0  0  0  0  0  0  0
   23.8073  -19.6835  -13.6781 C   0  0  0  0  0  0  0  0  0  0  0  0
   25.4897  -22.2010  -11.1354 C   0  0  0  0  0  0  0  0  0  0  0  0
   25.6580  -21.8939   -9.8026 O   0  0  0  0  0  0  0  0  0  0  0  0
   24.6168  -23.0723  -11.4020 O   0  0  0  0  0  0  0  0  0  0  0  0
  1  2  1  0
  2  3  1  0
  3  4  1  6
  5  3  1  0
  6  5  2  0
  7  5  1  0
  8 14  1  0
  8  7  1  0
  8  9  1  1
 10 11  1  0
 10  9  1  0
 11 12  1  0
 13 12  1  0
 14 15  2  0
 16 17  1  0
 16 14  1  0
 17 18  1  6
 19 18  1  0
 20 19  2  0
 21 20  1  0
 22 21  1  0
 22 27  2  0
 23 22  1  0
 24 23  2  0
 24 25  1  0
 25 26  2  0
 26 27  1  0
 27 19  1  0
 28 29  1  0
 28 17  1  0
 30 28  2  0
M  END
$$$$
