SKW.pdb
     RDKit          3D

 30 31  0  0  1  0  0  0  0  0999 V2000
   32.3265  -23.9305  -13.0398 O   0  0  0  0  0  0  0  0  0  0  0  0
   31.1533  -23.2301  -12.8588 C   0  0  0  0  0  0  0  0  0  0  0  0
   31.3582  -21.7349  -12.8510 C   0  0  2  0  0  0  0  0  0  0  0  0
   32.4236  -21.3359  -11.9610 N   0  0  0  0  0  0  0  0  0  0  0  0
   30.1060  -20.9976  -12.5485 C   0  0  0  0  0  0  0  0  0  0  0  0
   30.0299  -20.2636  -11.5052 O   0  0  0  0  0  0  0  0  0  0  0  0
   28.9791  -21.0942  -13.4069 N   0  0  0  0  0  0  0  0  0  0  0  0
   27.7495  -20.3822  -13.2084 C   0  0  1  0  0  0  0  0  0  0  0  0
   26.8569  -20.3401  -14.4095 C   0  0  0  0  0  0  0  0  0  0  0  0
   25.5436  -19.6584  -14.1489 C   0  0  0  0  0  0  0  0  0  0  0  0
   24.7231  -19.6677  -15.4195 C   0  0  0  0  0  0  0  0  0  0  0  0
   23.5178  -18.7809  -15.1757 C   0  0  0  0  0  0  0  0  0  0  0  0
   22.5728  -18.8499  -16.2711 N   0  0  0  0  0  0  0  0  0  0  0  0
   27.0229  -20.8370  -11.9848 C   0  0  0  0  0  0  0  0  0  0  0  0
   26.7712  -22.0632  -11.8695 O   0  0  0  0  0  0  0  0  0  0  0  0
   26.6125  -19.9624  -10.9688 N   0  0  0  0  0  0  0  0  0  0  0  0
   26.3725  -20.4487   -9.6155 C   0  0  1  0  0  0  0  0  0  0  0  0
   26.7697  -19.4357   -8.5821 C   0  0  0  0  0  0  0  0  0  0  0  0
   26.6088  -20.0103   -7.2205 C   0  0  0  0  0  0  0  0  0  0  0  0
   25.6481  -20.8875   -6.7621 C   0  0  0  0  0  0  0  0  0  0  0  0
   25.8566  -21.1673   -5.4644 N   0  0  0  0  0  0  0  0  0  0  0  0
   26.9601  -20.4678   -5.0752 C   0  0  0  0  0  0  0  0  0  0  0  0
   27.5979  -20.4000   -3.8416 C   0  0  0  0  0  0  0  0  0  0  0  0
   28.7141  -19.6151   -3.6683 C   0  0  0  0  0  0  0  0  0  0  0  0
   29.1760  -18.9015   -4.7561 C   0  0  0  0  0  0  0  0  0  0  0  0
   28.5562  -18.9552   -5.9921 C   0  0  0  0  0  0  0  0  0  0  0  0
   27.4395  -19.7486   -6.1406 C   0  0  0  0  0  0  0  0  0  0  0  0
   24.8888  -20.6444   -9.4947 C   0  0  0  0  0  0  0  0  0  0  0  0
   24.3562  -21.5836   -8.6385 O   0  0  0  0  0  0  0  0  0  0  0  0
   24.0617  -19.9662  -10.1642 O   0  0  0  0  0  0  0  0  0  0  0  0
  1  2  1  0
  2  3  1  0
  3  4  1  1
  5  3  1  0
  6  5  2  0
  7  5  1  0
  8 14  1  0
  8  7  1  0
  8  9  1  6
 10 11  1  0
 10  9  1  0
 11 12  1  0
 13 12  1  0
 14 15  2  0
 16 17  1  0
 16 14  1  0
 17 18  1  1
 19 18  1  0
 20 19  2  0
 21 20  1  0
 22 21  1  0
 22 27  2  0
 23 22  1  0
 24 23  2  0
 24 25  1  0
 25 26  2  0
 26 27  1  0
 27 19  1  0
 28 29  1  0
 28 17  1  0
 30 28  2  0
M  END
$$$$
