SKW.pdb
     RDKit          3D

 30 31  0  0  1  0  0  0  0  0999 V2000
   17.0939  -22.8721  -10.8123 O   0  0  0  0  0  0  0  0  0  0  0  0
   17.7268  -24.0190  -10.3837 C   0  0  0  0  0  0  0  0  0  0  0  0
   18.5786  -24.6543  -11.4553 C   0  0  2  0  0  0  0  0  0  0  0  0
   19.1441  -25.9124  -11.0266 N   0  0  0  0  0  0  0  0  0  0  0  0
   19.6341  -23.7366  -11.9520 C   0  0  0  0  0  0  0  0  0  0  0  0
   20.6365  -23.4518  -11.2125 O   0  0  0  0  0  0  0  0  0  0  0  0
   19.5489  -23.1632  -13.2482 N   0  0  0  0  0  0  0  0  0  0  0  0
   20.5518  -22.3132  -13.8226 C   0  0  1  0  0  0  0  0  0  0  0  0
   21.3243  -22.9362  -14.9435 C   0  0  0  0  0  0  0  0  0  0  0  0
   22.5966  -23.5958  -14.4922 C   0  0  0  0  0  0  0  0  0  0  0  0
   23.3768  -24.0446  -15.7078 C   0  0  0  0  0  0  0  0  0  0  0  0
   24.6776  -24.6395  -15.2051 C   0  0  0  0  0  0  0  0  0  0  0  0
   25.4685  -25.1875  -16.2877 N   0  0  0  0  0  0  0  0  0  0  0  0
   20.0122  -20.9699  -14.1916 C   0  0  0  0  0  0  0  0  0  0  0  0
   18.8593  -20.9134  -14.6894 O   0  0  0  0  0  0  0  0  0  0  0  0
   20.7305  -19.7799  -14.0087 N   0  0  0  0  0  0  0  0  0  0  0  0
   20.1816  -18.5010  -14.4432 C   0  0  1  0  0  0  0  0  0  0  0  0
   21.0508  -17.3517  -14.0242 C   0  0  0  0  0  0  0  0  0  0  0  0
   20.4846  -16.0754  -14.5343 C   0  0  0  0  0  0  0  0  0  0  0  0
   19.5112  -15.2769  -13.9709 C   0  0  0  0  0  0  0  0  0  0  0  0
   19.2844  -14.2038  -14.7474 N   0  0  0  0  0  0  0  0  0  0  0  0
   20.1155  -14.3041  -15.8233 C   0  0  0  0  0  0  0  0  0  0  0  0
   20.2793  -13.4645  -16.9194 C   0  0  0  0  0  0  0  0  0  0  0  0
   21.1887  -13.7650  -17.9067 C   0  0  0  0  0  0  0  0  0  0  0  0
   21.9287  -14.9225  -17.7715 C   0  0  0  0  0  0  0  0  0  0  0  0
   21.7811  -15.7715  -16.6887 C   0  0  0  0  0  0  0  0  0  0  0  0
   20.8635  -15.4488  -15.7128 C   0  0  0  0  0  0  0  0  0  0  0  0
   20.1816  -18.5304  -15.9444 C   0  0  0  0  0  0  0  0  0  0  0  0
   19.1609  -17.9597  -16.6733 O   0  0  0  0  0  0  0  0  0  0  0  0
   21.1065  -19.0737  -16.6089 O   0  0  0  0  0  0  0  0  0  0  0  0
  1  2  1  0
  2  3  1  0
  3  4  1  1
  5  3  1  0
  6  5  2  0
  7  5  1  0
  8 14  1  0
  8  7  1  0
  8  9  1  6
 10 11  1  0
 10  9  1  0
 11 12  1  0
 13 12  1  0
 14 15  2  0
 16 17  1  0
 16 14  1  0
 17 18  1  6
 19 18  1  0
 20 19  2  0
 21 20  1  0
 22 21  1  0
 22 27  2  0
 23 22  1  0
 24 23  2  0
 24 25  1  0
 25 26  2  0
 26 27  1  0
 27 19  1  0
 28 29  1  0
 28 17  1  0
 30 28  2  0
M  END
$$$$
