SKW.pdb
     RDKit          3D

 30 31  0  0  1  0  0  0  0  0999 V2000
   29.1177  -22.0359  -14.8707 O   0  0  0  0  0  0  0  0  0  0  0  0
   28.2135  -21.9272  -15.9053 C   0  0  0  0  0  0  0  0  0  0  0  0
   27.5181  -20.5882  -15.9383 C   0  0  2  0  0  0  0  0  0  0  0  0
   28.4021  -19.5259  -16.3583 N   0  0  0  0  0  0  0  0  0  0  0  0
   26.8672  -20.2608  -14.6452 C   0  0  0  0  0  0  0  0  0  0  0  0
   27.2402  -19.2348  -13.9810 O   0  0  0  0  0  0  0  0  0  0  0  0
   25.8264  -21.0760  -14.1274 N   0  0  0  0  0  0  0  0  0  0  0  0
   24.9183  -20.6670  -13.0946 C   0  0  1  0  0  0  0  0  0  0  0  0
   23.4878  -21.0279  -13.3487 C   0  0  0  0  0  0  0  0  0  0  0  0
   22.5912  -20.7618  -12.1728 C   0  0  0  0  0  0  0  0  0  0  0  0
   21.4197  -19.9199  -12.6271 C   0  0  0  0  0  0  0  0  0  0  0  0
   20.5683  -19.6470  -11.4027 C   0  0  0  0  0  0  0  0  0  0  0  0
   19.3572  -18.9290  -11.7427 N   0  0  0  0  0  0  0  0  0  0  0  0
   25.3732  -21.0965  -11.7380 C   0  0  0  0  0  0  0  0  0  0  0  0
   25.5959  -22.3193  -11.5498 O   0  0  0  0  0  0  0  0  0  0  0  0
   25.5598  -20.2021  -10.6746 N   0  0  0  0  0  0  0  0  0  0  0  0
   26.0076  -20.6747   -9.3700 C   0  0  1  0  0  0  0  0  0  0  0  0
   26.8563  -19.6540   -8.6702 C   0  0  0  0  0  0  0  0  0  0  0  0
   27.3157  -20.1881   -7.3611 C   0  0  0  0  0  0  0  0  0  0  0  0
   27.1023  -21.4369   -6.8158 C   0  0  0  0  0  0  0  0  0  0  0  0
   27.6898  -21.5234   -5.6102 N   0  0  0  0  0  0  0  0  0  0  0  0
   28.2897  -20.3233   -5.3691 C   0  0  0  0  0  0  0  0  0  0  0  0
   29.0256  -19.8852   -4.2737 C   0  0  0  0  0  0  0  0  0  0  0  0
   29.5453  -18.6121   -4.2383 C   0  0  0  0  0  0  0  0  0  0  0  0
   29.3120  -17.7898   -5.3223 C   0  0  0  0  0  0  0  0  0  0  0  0
   28.5826  -18.2062   -6.4221 C   0  0  0  0  0  0  0  0  0  0  0  0
   28.0722  -19.4860   -6.4340 C   0  0  0  0  0  0  0  0  0  0  0  0
   24.7692  -20.8621   -8.5418 C   0  0  0  0  0  0  0  0  0  0  0  0
   24.6460  -21.9171   -7.6639 O   0  0  0  0  0  0  0  0  0  0  0  0
   23.7878  -20.0717   -8.6064 O   0  0  0  0  0  0  0  0  0  0  0  0
  1  2  1  0
  2  3  1  0
  3  4  1  1
  5  3  1  0
  6  5  2  0
  7  5  1  0
  8 14  1  0
  8  7  1  0
  8  9  1  6
 10 11  1  0
 10  9  1  0
 11 12  1  0
 13 12  1  0
 14 15  2  0
 16 17  1  0
 16 14  1  0
 17 18  1  1
 19 18  1  0
 20 19  2  0
 21 20  1  0
 22 21  1  0
 22 27  2  0
 23 22  1  0
 24 23  2  0
 24 25  1  0
 25 26  2  0
 26 27  1  0
 27 19  1  0
 28 29  1  0
 28 17  1  0
 30 28  2  0
M  END
$$$$
