SKW.pdb
     RDKit          3D

 30 31  0  0  1  0  0  0  0  0999 V2000
   29.1866  -20.8036  -15.0808 O   0  0  0  0  0  0  0  0  0  0  0  0
   28.1378  -21.0029  -15.9526 C   0  0  0  0  0  0  0  0  0  0  0  0
   27.1804  -19.8372  -15.9947 C   0  0  2  0  0  0  0  0  0  0  0  0
   27.8240  -18.6195  -16.4299 N   0  0  0  0  0  0  0  0  0  0  0  0
   26.4803  -19.6377  -14.7012 C   0  0  0  0  0  0  0  0  0  0  0  0
   26.7597  -18.6278  -13.9697 O   0  0  0  0  0  0  0  0  0  0  0  0
   25.4952  -20.5588  -14.2573 N   0  0  0  0  0  0  0  0  0  0  0  0
   24.6819  -20.3712  -13.0903 C   0  0  1  0  0  0  0  0  0  0  0  0
   23.2759  -20.8661  -13.2288 C   0  0  0  0  0  0  0  0  0  0  0  0
   22.4436  -20.6402  -11.9985 C   0  0  0  0  0  0  0  0  0  0  0  0
   21.0389  -21.1385  -12.2555 C   0  0  0  0  0  0  0  0  0  0  0  0
   20.2094  -20.7733  -11.0401 C   0  0  0  0  0  0  0  0  0  0  0  0
   18.8289  -21.1848  -11.1916 N   0  0  0  0  0  0  0  0  0  0  0  0
   25.3397  -20.8884  -11.8526 C   0  0  0  0  0  0  0  0  0  0  0  0
   25.8298  -22.0456  -11.8842 O   0  0  0  0  0  0  0  0  0  0  0  0
   25.4322  -20.1453  -10.6674 N   0  0  0  0  0  0  0  0  0  0  0  0
   26.1243  -20.6809   -9.5013 C   0  0  1  0  0  0  0  0  0  0  0  0
   26.8077  -19.6005   -8.7154 C   0  0  0  0  0  0  0  0  0  0  0  0
   27.5188  -20.1923   -7.5519 C   0  0  0  0  0  0  0  0  0  0  0  0
   27.8639  -21.5092   -7.3301 C   0  0  0  0  0  0  0  0  0  0  0  0
   28.5037  -21.6297   -6.1545 N   0  0  0  0  0  0  0  0  0  0  0  0
   28.5758  -20.3832   -5.6072 C   0  0  0  0  0  0  0  0  0  0  0  0
   29.1309  -19.9545   -4.4067 C   0  0  0  0  0  0  0  0  0  0  0  0
   29.0884  -18.6280   -4.0453 C   0  0  0  0  0  0  0  0  0  0  0  0
   28.4789  -17.7427   -4.9115 C   0  0  0  0  0  0  0  0  0  0  0  0
   27.9206  -18.1486   -6.1109 C   0  0  0  0  0  0  0  0  0  0  0  0
   27.9757  -19.4827   -6.4506 C   0  0  0  0  0  0  0  0  0  0  0  0
   25.0642  -21.2685   -8.6150 C   0  0  0  0  0  0  0  0  0  0  0  0
   25.3495  -22.2900   -7.7353 O   0  0  0  0  0  0  0  0  0  0  0  0
   23.8700  -20.8614   -8.6299 O   0  0  0  0  0  0  0  0  0  0  0  0
  1  2  1  0
  2  3  1  0
  3  4  1  1
  5  3  1  0
  6  5  2  0
  7  5  1  0
  8 14  1  0
  8  7  1  0
  8  9  1  6
 10 11  1  0
 10  9  1  0
 11 12  1  0
 13 12  1  0
 14 15  2  0
 16 17  1  0
 16 14  1  0
 17 18  1  1
 19 18  1  0
 20 19  2  0
 21 20  1  0
 22 21  1  0
 22 27  2  0
 23 22  1  0
 24 23  2  0
 24 25  1  0
 25 26  2  0
 26 27  1  0
 27 19  1  0
 28 29  1  0
 28 17  1  0
 30 28  2  0
M  END
$$$$
