SKW.pdb
     RDKit          3D

 30 31  0  0  1  0  0  0  0  0999 V2000
   27.3636  -23.9561  -15.8928 O   0  0  0  0  0  0  0  0  0  0  0  0
   27.3026  -23.1300  -16.9944 C   0  0  0  0  0  0  0  0  0  0  0  0
   28.0269  -21.8223  -16.7877 C   0  0  2  0  0  0  0  0  0  0  0  0
   29.4609  -21.9931  -16.7566 N   0  0  0  0  0  0  0  0  0  0  0  0
   27.5494  -21.0996  -15.5824 C   0  0  0  0  0  0  0  0  0  0  0  0
   28.2775  -21.0507  -14.5334 O   0  0  0  0  0  0  0  0  0  0  0  0
   26.2845  -20.4545  -15.5741 N   0  0  0  0  0  0  0  0  0  0  0  0
   25.7954  -19.6503  -14.4913 C   0  0  1  0  0  0  0  0  0  0  0  0
   24.8328  -18.5793  -14.9006 C   0  0  0  0  0  0  0  0  0  0  0  0
   23.4134  -19.0625  -14.9960 C   0  0  0  0  0  0  0  0  0  0  0  0
   22.5649  -17.9782  -15.6222 C   0  0  0  0  0  0  0  0  0  0  0  0
   21.1355  -18.4834  -15.6315 C   0  0  0  0  0  0  0  0  0  0  0  0
   20.2284  -17.5109  -16.2055 N   0  0  0  0  0  0  0  0  0  0  0  0
   25.2687  -20.4777  -13.3644 C   0  0  0  0  0  0  0  0  0  0  0  0
   24.6306  -21.5230  -13.6477 O   0  0  0  0  0  0  0  0  0  0  0  0
   25.4532  -20.1407  -12.0160 N   0  0  0  0  0  0  0  0  0  0  0  0
   24.9520  -21.0049  -10.9541 C   0  0  1  0  0  0  0  0  0  0  0  0
   25.4300  -20.5598   -9.6030 C   0  0  0  0  0  0  0  0  0  0  0  0
   26.8430  -20.9757   -9.4027 C   0  0  0  0  0  0  0  0  0  0  0  0
   27.6148  -21.8128  -10.1811 C   0  0  0  0  0  0  0  0  0  0  0  0
   28.8465  -21.9299   -9.6564 N   0  0  0  0  0  0  0  0  0  0  0  0
   28.8768  -21.1641   -8.5290 C   0  0  0  0  0  0  0  0  0  0  0  0
   29.9027  -20.9377   -7.6182 C   0  0  0  0  0  0  0  0  0  0  0  0
   29.7109  -20.1166   -6.5314 C   0  0  0  0  0  0  0  0  0  0  0  0
   28.4714  -19.5287   -6.3781 C   0  0  0  0  0  0  0  0  0  0  0  0
   27.4373  -19.7406   -7.2729 C   0  0  0  0  0  0  0  0  0  0  0  0
   27.6540  -20.5674   -8.3536 C   0  0  0  0  0  0  0  0  0  0  0  0
   23.4575  -20.8608  -10.9634 C   0  0  0  0  0  0  0  0  0  0  0  0
   22.6465  -21.7518  -10.2947 O   0  0  0  0  0  0  0  0  0  0  0  0
   22.8732  -19.9263  -11.5778 O   0  0  0  0  0  0  0  0  0  0  0  0
  1  2  1  0
  2  3  1  0
  3  4  1  1
  5  3  1  0
  6  5  2  0
  7  5  1  0
  8 14  1  0
  8  7  1  0
  8  9  1  6
 10 11  1  0
 10  9  1  0
 11 12  1  0
 13 12  1  0
 14 15  2  0
 16 17  1  0
 16 14  1  0
 17 18  1  1
 19 18  1  0
 20 19  2  0
 21 20  1  0
 22 21  1  0
 22 27  2  0
 23 22  1  0
 24 23  2  0
 24 25  1  0
 25 26  2  0
 26 27  1  0
 27 19  1  0
 28 29  1  0
 28 17  1  0
 30 28  2  0
M  END
$$$$
