SKW.pdb
     RDKit          3D

 30 31  0  0  1  0  0  0  0  0999 V2000
   28.8376  -20.2077  -17.9376 O   0  0  0  0  0  0  0  0  0  0  0  0
   27.8227  -20.6003  -17.0917 C   0  0  0  0  0  0  0  0  0  0  0  0
   26.6454  -19.6564  -17.1103 C   0  0  2  0  0  0  0  0  0  0  0  0
   26.9993  -18.3547  -17.6266 N   0  0  0  0  0  0  0  0  0  0  0  0
   25.9938  -19.5442  -15.7815 C   0  0  0  0  0  0  0  0  0  0  0  0
   26.3388  -18.6156  -14.9742 O   0  0  0  0  0  0  0  0  0  0  0  0
   24.9831  -20.4601  -15.3869 N   0  0  0  0  0  0  0  0  0  0  0  0
   24.3247  -20.4362  -14.1123 C   0  0  1  0  0  0  0  0  0  0  0  0
   22.9818  -21.0974  -14.0962 C   0  0  0  0  0  0  0  0  0  0  0  0
   22.3309  -21.0852  -12.7421 C   0  0  0  0  0  0  0  0  0  0  0  0
   20.9267  -20.5390  -12.8753 C   0  0  0  0  0  0  0  0  0  0  0  0
   20.3338  -20.4949  -11.4806 C   0  0  0  0  0  0  0  0  0  0  0  0
   18.9606  -20.0343  -11.4977 N   0  0  0  0  0  0  0  0  0  0  0  0
   25.2058  -20.9278  -13.0105 C   0  0  0  0  0  0  0  0  0  0  0  0
   25.7133  -22.0720  -13.1267 O   0  0  0  0  0  0  0  0  0  0  0  0
   25.4877  -20.1747  -11.8621 N   0  0  0  0  0  0  0  0  0  0  0  0
   26.2879  -20.7338  -10.7792 C   0  0  1  0  0  0  0  0  0  0  0  0
   27.2805  -19.7400  -10.2509 C   0  0  0  0  0  0  0  0  0  0  0  0
   28.0885  -20.3577   -9.1667 C   0  0  0  0  0  0  0  0  0  0  0  0
   29.0198  -21.3712   -9.2549 C   0  0  0  0  0  0  0  0  0  0  0  0
   29.5316  -21.6380   -8.0413 N   0  0  0  0  0  0  0  0  0  0  0  0
   28.9297  -20.7928   -7.1572 C   0  0  0  0  0  0  0  0  0  0  0  0
   29.0944  -20.6558   -5.7834 C   0  0  0  0  0  0  0  0  0  0  0  0
   28.3698  -19.7242   -5.0769 C   0  0  0  0  0  0  0  0  0  0  0  0
   27.4788  -18.9348   -5.7759 C   0  0  0  0  0  0  0  0  0  0  0  0
   27.3001  -19.0549   -7.1429 C   0  0  0  0  0  0  0  0  0  0  0  0
   28.0375  -19.9955   -7.8284 C   0  0  0  0  0  0  0  0  0  0  0  0
   25.3316  -21.0390   -9.6626 C   0  0  0  0  0  0  0  0  0  0  0  0
   24.1762  -20.3087   -9.4876 O   0  0  0  0  0  0  0  0  0  0  0  0
   25.5345  -21.9701   -8.8355 O   0  0  0  0  0  0  0  0  0  0  0  0
  1  2  1  0
  2  3  1  0
  3  4  1  1
  5  3  1  0
  6  5  2  0
  7  5  1  0
  8 14  1  0
  8  7  1  0
  8  9  1  6
 10 11  1  0
 10  9  1  0
 11 12  1  0
 13 12  1  0
 14 15  2  0
 16 17  1  0
 16 14  1  0
 17 18  1  1
 19 18  1  0
 20 19  2  0
 21 20  1  0
 22 21  1  0
 22 27  2  0
 23 22  1  0
 24 23  2  0
 24 25  1  0
 25 26  2  0
 26 27  1  0
 27 19  1  0
 28 29  1  0
 28 17  1  0
 30 28  2  0
M  END
$$$$
