SKW.pdb
     RDKit          3D

 30 31  0  0  1  0  0  0  0  0999 V2000
   23.9897  -17.9380  -17.0402 O   0  0  0  0  0  0  0  0  0  0  0  0
   23.2460  -18.7744  -16.2359 C   0  0  0  0  0  0  0  0  0  0  0  0
   23.6883  -18.7471  -14.7933 C   0  0  2  0  0  0  0  0  0  0  0  0
   23.9401  -17.4036  -14.3264 N   0  0  0  0  0  0  0  0  0  0  0  0
   24.8591  -19.6255  -14.5476 C   0  0  0  0  0  0  0  0  0  0  0  0
   24.7490  -20.8921  -14.6762 O   0  0  0  0  0  0  0  0  0  0  0  0
   26.1130  -19.0777  -14.1681 N   0  0  0  0  0  0  0  0  0  0  0  0
   27.2781  -19.8594  -13.8682 C   0  0  1  0  0  0  0  0  0  0  0  0
   28.5742  -19.1297  -14.0376 C   0  0  0  0  0  0  0  0  0  0  0  0
   28.7005  -18.4465  -15.3698 C   0  0  0  0  0  0  0  0  0  0  0  0
   28.4702  -19.4611  -16.4676 C   0  0  0  0  0  0  0  0  0  0  0  0
   28.6445  -18.7345  -17.7868 C   0  0  0  0  0  0  0  0  0  0  0  0
   28.3600  -19.5978  -18.9145 N   0  0  0  0  0  0  0  0  0  0  0  0
   27.1820  -20.5314  -12.5373 C   0  0  0  0  0  0  0  0  0  0  0  0
   27.9427  -21.5065  -12.3123 O   0  0  0  0  0  0  0  0  0  0  0  0
   26.2871  -20.1250  -11.5376 N   0  0  0  0  0  0  0  0  0  0  0  0
   26.1743  -20.8679  -10.2882 C   0  0  1  0  0  0  0  0  0  0  0  0
   27.3262  -20.5871   -9.3683 C   0  0  0  0  0  0  0  0  0  0  0  0
   26.8550  -20.5623   -7.9586 C   0  0  0  0  0  0  0  0  0  0  0  0
   25.6101  -20.8832   -7.4591 C   0  0  0  0  0  0  0  0  0  0  0  0
   25.5929  -20.7326   -6.1238 N   0  0  0  0  0  0  0  0  0  0  0  0
   26.8346  -20.3109   -5.7515 C   0  0  0  0  0  0  0  0  0  0  0  0
   27.3459  -20.0061   -4.4949 C   0  0  0  0  0  0  0  0  0  0  0  0
   28.6485  -19.5894   -4.3470 C   0  0  0  0  0  0  0  0  0  0  0  0
   29.4254  -19.4855   -5.4833 C   0  0  0  0  0  0  0  0  0  0  0  0
   28.9361  -19.7841   -6.7428 C   0  0  0  0  0  0  0  0  0  0  0  0
   27.6280  -20.1993   -6.8652 C   0  0  0  0  0  0  0  0  0  0  0  0
   24.9336  -20.3642   -9.6088 C   0  0  0  0  0  0  0  0  0  0  0  0
   24.2486  -21.1398   -8.6988 O   0  0  0  0  0  0  0  0  0  0  0  0
   24.4592  -19.2168   -9.8338 O   0  0  0  0  0  0  0  0  0  0  0  0
  1  2  1  0
  2  3  1  0
  3  4  1  6
  5  3  1  0
  6  5  2  0
  7  5  1  0
  8 14  1  0
  8  7  1  0
  8  9  1  1
 10 11  1  0
 10  9  1  0
 11 12  1  0
 13 12  1  0
 14 15  2  0
 16 17  1  0
 16 14  1  0
 17 18  1  1
 19 18  1  0
 20 19  2  0
 21 20  1  0
 22 21  1  0
 22 27  2  0
 23 22  1  0
 24 23  2  0
 24 25  1  0
 25 26  2  0
 26 27  1  0
 27 19  1  0
 28 29  1  0
 28 17  1  0
 30 28  2  0
M  END
$$$$
