SKW.pdb
     RDKit          3D

 30 31  0  0  1  0  0  0  0  0999 V2000
   19.9969  -12.6382  -15.0585 O   0  0  0  0  0  0  0  0  0  0  0  0
   19.8824  -11.2716  -15.1956 C   0  0  0  0  0  0  0  0  0  0  0  0
   19.4019  -10.8576  -16.5649 C   0  0  2  0  0  0  0  0  0  0  0  0
   20.3615  -11.1738  -17.5973 N   0  0  0  0  0  0  0  0  0  0  0  0
   19.0158   -9.4254  -16.6160 C   0  0  0  0  0  0  0  0  0  0  0  0
   19.9036   -8.5284  -16.8166 O   0  0  0  0  0  0  0  0  0  0  0  0
   17.6630   -9.0298  -16.4441 N   0  0  0  0  0  0  0  0  0  0  0  0
   17.2003   -7.6747  -16.5345 C   0  0  1  0  0  0  0  0  0  0  0  0
   15.7418   -7.5373  -16.8429 C   0  0  0  0  0  0  0  0  0  0  0  0
   15.3090   -6.1121  -17.0402 C   0  0  0  0  0  0  0  0  0  0  0  0
   13.8399   -6.0885  -17.3990 C   0  0  0  0  0  0  0  0  0  0  0  0
   13.4449   -4.6332  -17.5562 C   0  0  0  0  0  0  0  0  0  0  0  0
   12.1163   -4.4973  -18.1168 N   0  0  0  0  0  0  0  0  0  0  0  0
   17.6029   -6.8586  -15.3497 C   0  0  0  0  0  0  0  0  0  0  0  0
   17.2272   -7.2427  -14.2133 O   0  0  0  0  0  0  0  0  0  0  0  0
   18.3744   -5.6923  -15.4502 N   0  0  0  0  0  0  0  0  0  0  0  0
   18.7407   -4.9335  -14.2604 C   0  0  1  0  0  0  0  0  0  0  0  0
   20.1569   -5.2027  -13.8434 C   0  0  0  0  0  0  0  0  0  0  0  0
   20.2491   -6.5362  -13.1929 C   0  0  0  0  0  0  0  0  0  0  0  0
   19.4353   -7.0806  -12.2214 C   0  0  0  0  0  0  0  0  0  0  0  0
   19.8563   -8.3162  -11.9023 N   0  0  0  0  0  0  0  0  0  0  0  0
   20.9513   -8.5782  -12.6709 C   0  0  0  0  0  0  0  0  0  0  0  0
   21.7631   -9.7053  -12.7322 C   0  0  0  0  0  0  0  0  0  0  0  0
   22.8349   -9.7550  -13.5930 C   0  0  0  0  0  0  0  0  0  0  0  0
   23.0744   -8.6530  -14.3890 C   0  0  0  0  0  0  0  0  0  0  0  0
   22.2788   -7.5217  -14.3436 C   0  0  0  0  0  0  0  0  0  0  0  0
   21.2111   -7.4959  -13.4731 C   0  0  0  0  0  0  0  0  0  0  0  0
   18.6613   -3.4839  -14.6439 C   0  0  0  0  0  0  0  0  0  0  0  0
   18.9053   -2.4847  -13.7269 O   0  0  0  0  0  0  0  0  0  0  0  0
   18.3699   -3.1100  -15.8133 O   0  0  0  0  0  0  0  0  0  0  0  0
  1  2  1  0
  2  3  1  0
  3  4  1  6
  5  3  1  0
  6  5  2  0
  7  5  1  0
  8 14  1  0
  8  7  1  0
  8  9  1  1
 10 11  1  0
 10  9  1  0
 11 12  1  0
 13 12  1  0
 14 15  2  0
 16 17  1  0
 16 14  1  0
 17 18  1  6
 19 18  1  0
 20 19  2  0
 21 20  1  0
 22 21  1  0
 22 27  2  0
 23 22  1  0
 24 23  2  0
 24 25  1  0
 25 26  2  0
 26 27  1  0
 27 19  1  0
 28 29  1  0
 28 17  1  0
 30 28  2  0
M  END
$$$$
