SKW.pdb
     RDKit          3D

 30 31  0  0  1  0  0  0  0  0999 V2000
   23.9548  -25.6590  -17.9681 O   0  0  0  0  0  0  0  0  0  0  0  0
   24.8225  -26.6629  -17.5957 C   0  0  0  0  0  0  0  0  0  0  0  0
   26.2640  -26.2165  -17.5800 C   0  0  2  0  0  0  0  0  0  0  0  0
   27.1670  -27.3025  -17.2770 N   0  0  0  0  0  0  0  0  0  0  0  0
   26.4867  -25.0671  -16.6677 C   0  0  0  0  0  0  0  0  0  0  0  0
   26.6132  -25.2608  -15.4110 O   0  0  0  0  0  0  0  0  0  0  0  0
   26.5624  -23.7419  -17.1719 N   0  0  0  0  0  0  0  0  0  0  0  0
   26.7887  -22.5809  -16.3600 C   0  0  1  0  0  0  0  0  0  0  0  0
   27.3041  -21.3917  -17.1092 C   0  0  0  0  0  0  0  0  0  0  0  0
   27.5281  -20.1909  -16.2344 C   0  0  0  0  0  0  0  0  0  0  0  0
   27.9449  -19.0222  -17.0993 C   0  0  0  0  0  0  0  0  0  0  0  0
   28.1081  -17.8268  -16.1811 C   0  0  0  0  0  0  0  0  0  0  0  0
   28.5915  -16.6644  -16.8973 N   0  0  0  0  0  0  0  0  0  0  0  0
   25.6048  -22.2416  -15.5144 C   0  0  0  0  0  0  0  0  0  0  0  0
   24.5077  -22.0328  -16.0915 O   0  0  0  0  0  0  0  0  0  0  0  0
   25.6644  -22.1461  -14.1169 N   0  0  0  0  0  0  0  0  0  0  0  0
   24.4460  -22.0622  -13.3206 C   0  0  1  0  0  0  0  0  0  0  0  0
   24.6705  -22.5240  -11.9105 C   0  0  0  0  0  0  0  0  0  0  0  0
   25.6069  -21.6005  -11.2176 C   0  0  0  0  0  0  0  0  0  0  0  0
   25.3167  -20.4813  -10.4656 C   0  0  0  0  0  0  0  0  0  0  0  0
   26.4501  -19.9233  -10.0073 N   0  0  0  0  0  0  0  0  0  0  0  0
   27.4850  -20.6841  -10.4638 C   0  0  0  0  0  0  0  0  0  0  0  0
   28.8566  -20.5459  -10.2820 C   0  0  0  0  0  0  0  0  0  0  0  0
   29.7352  -21.4421  -10.8450 C   0  0  0  0  0  0  0  0  0  0  0  0
   29.2104  -22.4773  -11.5923 C   0  0  0  0  0  0  0  0  0  0  0  0
   27.8489  -22.6329  -11.7854 C   0  0  0  0  0  0  0  0  0  0  0  0
   26.9890  -21.7222  -11.2112 C   0  0  0  0  0  0  0  0  0  0  0  0
   24.0839  -20.6065  -13.2563 C   0  0  0  0  0  0  0  0  0  0  0  0
   24.9753  -19.6277  -13.6387 O   0  0  0  0  0  0  0  0  0  0  0  0
   22.9565  -20.2085  -12.8529 O   0  0  0  0  0  0  0  0  0  0  0  0
  1  2  1  0
  2  3  1  0
  3  4  1  1
  5  3  1  0
  6  5  2  0
  7  5  1  0
  8 14  1  0
  8  7  1  0
  8  9  1  6
 10 11  1  0
 10  9  1  0
 11 12  1  0
 13 12  1  0
 14 15  2  0
 16 17  1  0
 16 14  1  0
 17 18  1  1
 19 18  1  0
 20 19  2  0
 21 20  1  0
 22 21  1  0
 22 27  2  0
 23 22  1  0
 24 23  2  0
 24 25  1  0
 25 26  2  0
 26 27  1  0
 27 19  1  0
 28 29  1  0
 28 17  1  0
 30 28  2  0
M  END
$$$$
