SKW.pdb
     RDKit          3D

 30 31  0  0  1  0  0  0  0  0999 V2000
   27.6379  -30.2529  -20.1356 O   0  0  0  0  0  0  0  0  0  0  0  0
   28.9681  -30.3893  -20.4696 C   0  0  0  0  0  0  0  0  0  0  0  0
   29.8950  -30.1145  -19.3108 C   0  0  2  0  0  0  0  0  0  0  0  0
   29.6782  -31.0266  -18.2120 N   0  0  0  0  0  0  0  0  0  0  0  0
   29.8225  -28.7037  -18.8553 C   0  0  0  0  0  0  0  0  0  0  0  0
   29.2698  -28.4176  -17.7391 O   0  0  0  0  0  0  0  0  0  0  0  0
   30.3620  -27.6550  -19.6460 N   0  0  0  0  0  0  0  0  0  0  0  0
   30.4192  -26.2815  -19.2352 C   0  0  1  0  0  0  0  0  0  0  0  0
   31.6427  -25.5489  -19.6910 C   0  0  0  0  0  0  0  0  0  0  0  0
   31.7891  -24.1914  -19.0641 C   0  0  0  0  0  0  0  0  0  0  0  0
   33.0700  -23.5563  -19.5577 C   0  0  0  0  0  0  0  0  0  0  0  0
   33.2352  -22.2495  -18.8069 C   0  0  0  0  0  0  0  0  0  0  0  0
   34.4005  -21.5172  -19.2582 N   0  0  0  0  0  0  0  0  0  0  0  0
   29.1653  -25.5392  -19.5646 C   0  0  0  0  0  0  0  0  0  0  0  0
   28.7400  -25.5942  -20.7463 O   0  0  0  0  0  0  0  0  0  0  0  0
   28.4491  -24.7897  -18.6207 N   0  0  0  0  0  0  0  0  0  0  0  0
   27.2890  -24.0006  -19.0170 C   0  0  1  0  0  0  0  0  0  0  0  0
   26.2462  -23.9648  -17.9384 C   0  0  0  0  0  0  0  0  0  0  0  0
   25.1116  -23.1011  -18.3586 C   0  0  0  0  0  0  0  0  0  0  0  0
   24.5146  -22.0654  -17.6707 C   0  0  0  0  0  0  0  0  0  0  0  0
   23.5201  -21.5346  -18.4023 N   0  0  0  0  0  0  0  0  0  0  0  0
   23.4692  -22.2293  -19.5741 C   0  0  0  0  0  0  0  0  0  0  0  0
   22.6276  -22.0882  -20.6719 C   0  0  0  0  0  0  0  0  0  0  0  0
   22.7527  -22.9131  -21.7655 C   0  0  0  0  0  0  0  0  0  0  0  0
   23.7375  -23.8800  -21.7348 C   0  0  0  0  0  0  0  0  0  0  0  0
   24.5853  -24.0370  -20.6525 C   0  0  0  0  0  0  0  0  0  0  0  0
   24.4402  -23.1985  -19.5688 C   0  0  0  0  0  0  0  0  0  0  0  0
   27.7798  -22.5940  -19.2037 C   0  0  0  0  0  0  0  0  0  0  0  0
   28.9971  -22.1863  -18.7029 O   0  0  0  0  0  0  0  0  0  0  0  0
   27.1099  -21.7218  -19.8223 O   0  0  0  0  0  0  0  0  0  0  0  0
  1  2  1  0
  2  3  1  0
  3  4  1  1
  5  3  1  0
  6  5  2  0
  7  5  1  0
  8 14  1  0
  8  7  1  0
  8  9  1  6
 10 11  1  0
 10  9  1  0
 11 12  1  0
 13 12  1  0
 14 15  2  0
 16 17  1  0
 16 14  1  0
 17 18  1  1
 19 18  1  0
 20 19  2  0
 21 20  1  0
 22 21  1  0
 22 27  2  0
 23 22  1  0
 24 23  2  0
 24 25  1  0
 25 26  2  0
 26 27  1  0
 27 19  1  0
 28 29  1  0
 28 17  1  0
 30 28  2  0
M  END
$$$$
