SKW.pdb
     RDKit          3D

 30 31  0  0  1  0  0  0  0  0999 V2000
   23.9897  -15.2322  -14.2452 O   0  0  0  0  0  0  0  0  0  0  0  0
   23.8822  -15.9597  -15.4109 C   0  0  0  0  0  0  0  0  0  0  0  0
   22.7931  -17.0028  -15.3529 C   0  0  2  0  0  0  0  0  0  0  0  0
   21.4792  -16.4126  -15.2440 N   0  0  0  0  0  0  0  0  0  0  0  0
   23.0228  -17.9961  -14.2742 C   0  0  0  0  0  0  0  0  0  0  0  0
   22.4851  -17.8327  -13.1266 O   0  0  0  0  0  0  0  0  0  0  0  0
   23.8383  -19.1369  -14.4971 N   0  0  0  0  0  0  0  0  0  0  0  0
   23.9979  -20.2110  -13.5593 C   0  0  1  0  0  0  0  0  0  0  0  0
   24.1128  -21.5667  -14.1837 C   0  0  0  0  0  0  0  0  0  0  0  0
   24.0947  -22.6852  -13.1806 C   0  0  0  0  0  0  0  0  0  0  0  0
   24.2996  -23.9981  -13.9029 C   0  0  0  0  0  0  0  0  0  0  0  0
   24.2144  -25.0958  -12.8606 C   0  0  0  0  0  0  0  0  0  0  0  0
   24.4226  -26.4049  -13.4444 N   0  0  0  0  0  0  0  0  0  0  0  0
   25.0953  -19.9492  -12.5799 C   0  0  0  0  0  0  0  0  0  0  0  0
   26.1716  -19.4667  -13.0146 O   0  0  0  0  0  0  0  0  0  0  0  0
   24.9775  -20.2171  -11.2088 N   0  0  0  0  0  0  0  0  0  0  0  0
   26.0791  -19.9385  -10.2953 C   0  0  1  0  0  0  0  0  0  0  0  0
   25.5964  -19.7282   -8.8900 C   0  0  0  0  0  0  0  0  0  0  0  0
   26.7371  -19.3565   -8.0123 C   0  0  0  0  0  0  0  0  0  0  0  0
   27.6468  -18.3314   -8.1672 C   0  0  0  0  0  0  0  0  0  0  0  0
   28.5241  -18.3316   -7.1492 N   0  0  0  0  0  0  0  0  0  0  0  0
   28.1835  -19.3636   -6.3262 C   0  0  0  0  0  0  0  0  0  0  0  0
   28.7626  -19.8024   -5.1407 C   0  0  0  0  0  0  0  0  0  0  0  0
   28.2488  -20.8844   -4.4644 C   0  0  0  0  0  0  0  0  0  0  0  0
   27.1443  -21.5152   -5.0010 C   0  0  0  0  0  0  0  0  0  0  0  0
   26.5528  -21.0944   -6.1792 C   0  0  0  0  0  0  0  0  0  0  0  0
   27.0860  -20.0082   -6.8382 C   0  0  0  0  0  0  0  0  0  0  0  0
   26.9409  -21.1680  -10.2869 C   0  0  0  0  0  0  0  0  0  0  0  0
   26.3901  -22.4301  -10.2363 O   0  0  0  0  0  0  0  0  0  0  0  0
   28.2008  -21.1095  -10.3251 O   0  0  0  0  0  0  0  0  0  0  0  0
  1  2  1  0
  2  3  1  0
  3  4  1  1
  5  3  1  0
  6  5  2  0
  7  5  1  0
  8 14  1  0
  8  7  1  0
  8  9  1  6
 10 11  1  0
 10  9  1  0
 11 12  1  0
 13 12  1  0
 14 15  2  0
 16 17  1  0
 16 14  1  0
 17 18  1  1
 19 18  1  0
 20 19  2  0
 21 20  1  0
 22 21  1  0
 22 27  2  0
 23 22  1  0
 24 23  2  0
 24 25  1  0
 25 26  2  0
 26 27  1  0
 27 19  1  0
 28 29  1  0
 28 17  1  0
 30 28  2  0
M  END
$$$$
