SKW.pdb
     RDKit          3D

 30 31  0  0  1  0  0  0  0  0999 V2000
   23.2433  -24.8973  -13.9011 O   0  0  0  0  0  0  0  0  0  0  0  0
   23.3605  -24.5265  -15.2234 C   0  0  0  0  0  0  0  0  0  0  0  0
   24.7958  -24.3990  -15.6718 C   0  0  2  0  0  0  0  0  0  0  0  0
   25.4623  -25.6789  -15.7346 N   0  0  0  0  0  0  0  0  0  0  0  0
   25.5619  -23.4389  -14.8386 C   0  0  0  0  0  0  0  0  0  0  0  0
   26.3475  -23.8663  -13.9258 O   0  0  0  0  0  0  0  0  0  0  0  0
   25.4361  -22.0390  -15.0397 N   0  0  0  0  0  0  0  0  0  0  0  0
   26.1643  -21.0483  -14.3002 C   0  0  1  0  0  0  0  0  0  0  0  0
   26.1182  -19.6744  -14.8930 C   0  0  0  0  0  0  0  0  0  0  0  0
   26.9695  -18.6809  -14.1544 C   0  0  0  0  0  0  0  0  0  0  0  0
   26.8496  -17.3322  -14.8284 C   0  0  0  0  0  0  0  0  0  0  0  0
   27.7399  -16.3730  -14.0628 C   0  0  0  0  0  0  0  0  0  0  0  0
   27.5843  -15.0107  -14.5297 N   0  0  0  0  0  0  0  0  0  0  0  0
   25.8048  -21.0463  -12.8501 C   0  0  0  0  0  0  0  0  0  0  0  0
   24.5858  -21.0176  -12.5444 O   0  0  0  0  0  0  0  0  0  0  0  0
   26.7603  -21.0740  -11.8246 N   0  0  0  0  0  0  0  0  0  0  0  0
   26.3775  -21.3931  -10.4544 C   0  0  1  0  0  0  0  0  0  0  0  0
   27.5578  -21.3717   -9.5280 C   0  0  0  0  0  0  0  0  0  0  0  0
   27.3299  -20.3858   -8.4390 C   0  0  0  0  0  0  0  0  0  0  0  0
   26.3774  -19.3913   -8.3608 C   0  0  0  0  0  0  0  0  0  0  0  0
   26.5051  -18.7162   -7.2058 N   0  0  0  0  0  0  0  0  0  0  0  0
   27.5473  -19.2749   -6.5275 C   0  0  0  0  0  0  0  0  0  0  0  0
   28.0954  -18.9546   -5.2905 C   0  0  0  0  0  0  0  0  0  0  0  0
   29.1651  -19.6601   -4.7905 C   0  0  0  0  0  0  0  0  0  0  0  0
   29.6721  -20.6912   -5.5555 C   0  0  0  0  0  0  0  0  0  0  0  0
   29.1413  -21.0263   -6.7888 C   0  0  0  0  0  0  0  0  0  0  0  0
   28.0699  -20.3047   -7.2683 C   0  0  0  0  0  0  0  0  0  0  0  0
   25.4482  -20.3003  -10.0111 C   0  0  0  0  0  0  0  0  0  0  0  0
   24.3535  -20.5671   -9.2177 O   0  0  0  0  0  0  0  0  0  0  0  0
   25.6198  -19.0939  -10.3387 O   0  0  0  0  0  0  0  0  0  0  0  0
  1  2  1  0
  2  3  1  0
  3  4  1  1
  5  3  1  0
  6  5  2  0
  7  5  1  0
  8 14  1  0
  8  7  1  0
  8  9  1  6
 10 11  1  0
 10  9  1  0
 11 12  1  0
 13 12  1  0
 14 15  2  0
 16 17  1  0
 16 14  1  0
 17 18  1  1
 19 18  1  0
 20 19  2  0
 21 20  1  0
 22 21  1  0
 22 27  2  0
 23 22  1  0
 24 23  2  0
 24 25  1  0
 25 26  2  0
 26 27  1  0
 27 19  1  0
 28 29  1  0
 28 17  1  0
 30 28  2  0
M  END
$$$$
