SKW.pdb
     RDKit          3D

 30 31  0  0  1  0  0  0  0  0999 V2000
   17.4070  -26.0382    2.6607 O   0  0  0  0  0  0  0  0  0  0  0  0
   16.2928  -25.2270    2.6733 C   0  0  0  0  0  0  0  0  0  0  0  0
   15.7807  -24.9125    1.2890 C   0  0  2  0  0  0  0  0  0  0  0  0
   16.6069  -25.4951    0.2574 N   0  0  0  0  0  0  0  0  0  0  0  0
   15.6054  -23.4546    1.0723 C   0  0  0  0  0  0  0  0  0  0  0  0
   16.2675  -22.8581    0.1565 O   0  0  0  0  0  0  0  0  0  0  0  0
   14.7054  -22.7029    1.8730 N   0  0  0  0  0  0  0  0  0  0  0  0
   14.4228  -21.3097    1.6792 C   0  0  1  0  0  0  0  0  0  0  0  0
   12.9660  -20.9819    1.5728 C   0  0  0  0  0  0  0  0  0  0  0  0
   12.7054  -19.5433    1.2266 C   0  0  0  0  0  0  0  0  0  0  0  0
   11.2134  -19.3293    1.1007 C   0  0  0  0  0  0  0  0  0  0  0  0
   11.0052  -17.8821    0.6997 C   0  0  0  0  0  0  0  0  0  0  0  0
    9.6093  -17.5942    0.4420 N   0  0  0  0  0  0  0  0  0  0  0  0
   15.1210  -20.4459    2.6784 C   0  0  0  0  0  0  0  0  0  0  0  0
   15.2074  -20.8630    3.8610 O   0  0  0  0  0  0  0  0  0  0  0  0
   15.6783  -19.2004    2.3565 N   0  0  0  0  0  0  0  0  0  0  0  0
   16.4060  -18.4264    3.3551 C   0  0  1  0  0  0  0  0  0  0  0  0
   17.4884  -17.5938    2.7328 C   0  0  0  0  0  0  0  0  0  0  0  0
   17.9888  -16.5964    3.7150 C   0  0  0  0  0  0  0  0  0  0  0  0
   18.2492  -16.7644    5.0590 C   0  0  0  0  0  0  0  0  0  0  0  0
   18.6937  -15.6140    5.5929 N   0  0  0  0  0  0  0  0  0  0  0  0
   18.7228  -14.6910    4.5901 C   0  0  0  0  0  0  0  0  0  0  0  0
   19.0989  -13.3525    4.6051 C   0  0  0  0  0  0  0  0  0  0  0  0
   19.0467  -12.5936    3.4591 C   0  0  0  0  0  0  0  0  0  0  0  0
   18.6105  -13.2043    2.3004 C   0  0  0  0  0  0  0  0  0  0  0  0
   18.2319  -14.5348    2.2639 C   0  0  0  0  0  0  0  0  0  0  0  0
   18.2929  -15.2741    3.4250 C   0  0  0  0  0  0  0  0  0  0  0  0
   15.4117  -17.4778    3.9599 C   0  0  0  0  0  0  0  0  0  0  0  0
   14.4645  -16.8420    3.1869 O   0  0  0  0  0  0  0  0  0  0  0  0
   15.3923  -17.2165    5.1942 O   0  0  0  0  0  0  0  0  0  0  0  0
  1  2  1  0
  2  3  1  0
  3  4  1  6
  5  3  1  0
  6  5  2  0
  7  5  1  0
  8 14  1  0
  8  7  1  0
  8  9  1  1
 10 11  1  0
 10  9  1  0
 11 12  1  0
 13 12  1  0
 14 15  2  0
 16 17  1  0
 16 14  1  0
 17 18  1  6
 19 18  1  0
 20 19  2  0
 21 20  1  0
 22 21  1  0
 22 27  2  0
 23 22  1  0
 24 23  2  0
 24 25  1  0
 25 26  2  0
 26 27  1  0
 27 19  1  0
 28 29  1  0
 28 17  1  0
 30 28  2  0
M  END
$$$$
