IWY.pdb
     RDKit          3D

 35 37  0  0  1  0  0  0  0  0999 V2000
    7.9848  -12.9239   16.4297 C   0  0  0  0  0  0  0  0  0  0  0  0
    7.9919  -14.3490   17.0095 C   0  0  0  0  0  0  0  0  0  0  0  0
    8.1299  -14.2047   18.4811 C   0  0  2  0  0  0  0  0  0  0  0  0
    9.2564  -13.2480   18.7883 C   0  0  0  0  0  0  0  0  0  0  0  0
    8.1776  -15.4713   19.2744 C   0  0  2  0  0  0  0  0  0  0  0  0
    6.9230  -16.1757   18.9508 N   0  0  0  0  0  0  0  0  0  0  0  0
    8.2129  -15.3029   20.7361 C   0  0  0  0  0  0  0  0  0  0  0  0
    7.9810  -14.1702   21.2859 O   0  0  0  0  0  0  0  0  0  0  0  0
    8.4976  -16.3464   21.6598 N   0  0  0  0  0  0  0  0  0  0  0  0
    8.7904  -16.1367   23.0571 C   0  0  1  0  0  0  0  0  0  0  0  0
    7.9129  -16.9622   23.9808 C   0  0  0  0  0  0  0  0  0  0  0  0
    7.2723  -16.1787   25.0581 C   0  0  0  0  0  0  0  0  0  0  0  0
    6.2858  -16.5909   25.9517 C   0  0  0  0  0  0  0  0  0  0  0  0
    5.9459  -15.5801   26.7720 N   0  0  0  0  0  0  0  0  0  0  0  0
    6.6758  -14.4984   26.4566 C   0  0  0  0  0  0  0  0  0  0  0  0
    6.7018  -13.2324   27.0014 C   0  0  0  0  0  0  0  0  0  0  0  0
    7.5480  -12.2730   26.5165 C   0  0  0  0  0  0  0  0  0  0  0  0
    8.3769  -12.5970   25.4699 C   0  0  0  0  0  0  0  0  0  0  0  0
    8.3379  -13.8650   24.9379 C   0  0  0  0  0  0  0  0  0  0  0  0
    7.5024  -14.8614   25.3934 C   0  0  0  0  0  0  0  0  0  0  0  0
   10.2270  -16.2735   23.3627 C   0  0  0  0  0  0  0  0  0  0  0  0
   10.9785  -17.1020   22.7695 O   0  0  0  0  0  0  0  0  0  0  0  0
    9.1327  -15.8287   30.4259 O   0  0  0  0  0  0  0  0  0  0  0  0
    9.9057  -15.4944   29.3044 C   0  0  0  0  0  0  0  0  0  0  0  0
   11.0188  -16.2651   28.9897 C   0  0  0  0  0  0  0  0  0  0  0  0
   11.8087  -15.9785   27.9008 C   0  0  0  0  0  0  0  0  0  0  0  0
   11.5065  -14.9056   27.0891 C   0  0  0  0  0  0  0  0  0  0  0  0
   12.3663  -14.6013   25.9294 C   0  0  0  0  0  0  0  0  0  0  0  0
   12.1996  -15.6123   24.7882 C   0  0  2  0  0  0  0  0  0  0  0  0
   10.8149  -15.4513   24.3599 N   0  0  0  0  0  0  0  0  0  0  0  0
   12.3679  -16.9624   25.3344 C   0  0  0  0  0  0  0  0  0  0  0  0
   11.3760  -17.6805   25.5782 O   0  0  0  0  0  0  0  0  0  0  0  0
   10.3877  -14.1337   27.4084 C   0  0  0  0  0  0  0  0  0  0  0  0
    9.6049  -14.4299   28.5002 C   0  0  0  0  0  0  0  0  0  0  0  0
   13.6277  -17.4567   25.5857 O   0  0  0  0  0  0  0  0  0  0  0  0
  2  1  1  0
  3  4  1  6
  3  5  1  0
  3  2  1  0
  5  6  1  1
  7  8  2  0
  7  5  1  0
  9  7  1  0
 10 21  1  0
 10  9  1  0
 10 11  1  1
 12 11  1  0
 13 12  2  0
 14 15  1  0
 14 13  1  0
 15 20  2  0
 16 15  1  0
 16 17  2  0
 17 18  1  0
 18 19  2  0
 20 12  1  0
 20 19  1  0
 21 30  1  0
 22 21  2  0
 23 24  1  0
 24 25  2  0
 24 34  1  0
 25 26  1  0
 26 27  2  0
 27 28  1  0
 29 28  1  1
 29 31  1  0
 30 29  1  0
 31 32  2  0
 31 35  1  0
 33 27  1  0
 34 33  2  0
M  END
$$$$
