IWY.pdb
     RDKit          3D

 35 37  0  0  1  0  0  0  0  0999 V2000
    6.4027  -12.9788   17.4784 C   0  0  0  0  0  0  0  0  0  0  0  0
    7.3513  -14.1766   17.6581 C   0  0  0  0  0  0  0  0  0  0  0  0
    7.9242  -14.0594   19.0233 C   0  0  2  0  0  0  0  0  0  0  0  0
    8.5560  -12.6984   19.1876 C   0  0  0  0  0  0  0  0  0  0  0  0
    8.7899  -15.1887   19.4831 C   0  0  2  0  0  0  0  0  0  0  0  0
    7.9642  -16.3992   19.3166 N   0  0  0  0  0  0  0  0  0  0  0  0
    9.2008  -15.1380   20.8954 C   0  0  0  0  0  0  0  0  0  0  0  0
   10.1247  -14.3476   21.2966 O   0  0  0  0  0  0  0  0  0  0  0  0
    8.6326  -15.9344   21.9279 N   0  0  0  0  0  0  0  0  0  0  0  0
    9.0202  -15.8619   23.3160 C   0  0  1  0  0  0  0  0  0  0  0  0
    8.0119  -16.5050   24.2512 C   0  0  0  0  0  0  0  0  0  0  0  0
    7.2265  -15.5359   25.0442 C   0  0  0  0  0  0  0  0  0  0  0  0
    6.1716  -15.7932   25.9174 C   0  0  0  0  0  0  0  0  0  0  0  0
    5.7015  -14.6436   26.4347 N   0  0  0  0  0  0  0  0  0  0  0  0
    6.4103  -13.6187   25.9349 C   0  0  0  0  0  0  0  0  0  0  0  0
    6.3210  -12.2613   26.1575 C   0  0  0  0  0  0  0  0  0  0  0  0
    7.1686  -11.3869   25.5341 C   0  0  0  0  0  0  0  0  0  0  0  0
    8.1167  -11.8903   24.6767 C   0  0  0  0  0  0  0  0  0  0  0  0
    8.1919  -13.2475   24.4657 C   0  0  0  0  0  0  0  0  0  0  0  0
    7.3596  -14.1639   25.0706 C   0  0  0  0  0  0  0  0  0  0  0  0
   10.3967  -16.3394   23.5465 C   0  0  0  0  0  0  0  0  0  0  0  0
   10.7563  -17.5317   23.3184 O   0  0  0  0  0  0  0  0  0  0  0  0
   10.8320  -17.3625   31.3138 O   0  0  0  0  0  0  0  0  0  0  0  0
   10.9650  -16.7014   30.0840 C   0  0  0  0  0  0  0  0  0  0  0  0
   12.0003  -17.0572   29.2275 C   0  0  0  0  0  0  0  0  0  0  0  0
   12.1732  -16.4392   28.0110 C   0  0  0  0  0  0  0  0  0  0  0  0
   11.3099  -15.4406   27.6126 C   0  0  0  0  0  0  0  0  0  0  0  0
   11.5106  -14.7775   26.3099 C   0  0  0  0  0  0  0  0  0  0  0  0
   12.1339  -15.7083   25.2624 C   0  0  2  0  0  0  0  0  0  0  0  0
   11.3779  -15.4418   24.0441 N   0  0  0  0  0  0  0  0  0  0  0  0
   11.8925  -17.0957   25.6704 C   0  0  0  0  0  0  0  0  0  0  0  0
   12.8347  -17.8233   26.0472 O   0  0  0  0  0  0  0  0  0  0  0  0
   10.2712  -15.0859   28.4755 C   0  0  0  0  0  0  0  0  0  0  0  0
   10.1081  -15.7111   29.6900 C   0  0  0  0  0  0  0  0  0  0  0  0
   10.6180  -17.6148   25.6430 O   0  0  0  0  0  0  0  0  0  0  0  0
  2  1  1  0
  3  4  1  6
  3  5  1  0
  3  2  1  0
  5  6  1  1
  7  8  2  0
  7  5  1  0
  9  7  1  0
 10 21  1  0
 10  9  1  0
 10 11  1  1
 12 11  1  0
 13 12  2  0
 14 15  1  0
 14 13  1  0
 15 20  2  0
 16 15  1  0
 16 17  2  0
 17 18  1  0
 18 19  2  0
 20 12  1  0
 20 19  1  0
 21 30  1  0
 22 21  2  0
 23 24  1  0
 24 25  2  0
 24 34  1  0
 25 26  1  0
 26 27  2  0
 27 28  1  0
 29 28  1  1
 29 31  1  0
 30 29  1  0
 31 32  2  0
 31 35  1  0
 33 27  1  0
 34 33  2  0
M  END
$$$$
