IWY.pdb
     RDKit          3D

 35 37  0  0  1  0  0  0  0  0999 V2000
    9.7779  -16.8426   15.1045 C   0  0  0  0  0  0  0  0  0  0  0  0
   10.0414  -17.6809   16.3674 C   0  0  0  0  0  0  0  0  0  0  0  0
    9.8830  -16.7625   17.5237 C   0  0  2  0  0  0  0  0  0  0  0  0
   10.6774  -15.5029   17.2769 C   0  0  0  0  0  0  0  0  0  0  0  0
   10.0930  -17.3550   18.8804 C   0  0  2  0  0  0  0  0  0  0  0  0
    9.1706  -18.5039   18.9457 N   0  0  0  0  0  0  0  0  0  0  0  0
    9.7663  -16.4749   20.0140 C   0  0  0  0  0  0  0  0  0  0  0  0
   10.4607  -15.4312   20.2738 O   0  0  0  0  0  0  0  0  0  0  0  0
    8.6805  -16.6845   20.9086 N   0  0  0  0  0  0  0  0  0  0  0  0
    8.5206  -15.9966   22.1670 C   0  0  1  0  0  0  0  0  0  0  0  0
    7.0705  -15.8722   22.5987 C   0  0  0  0  0  0  0  0  0  0  0  0
    6.8931  -15.2785   23.9407 C   0  0  0  0  0  0  0  0  0  0  0  0
    6.6064  -15.9300   25.1385 C   0  0  0  0  0  0  0  0  0  0  0  0
    6.5011  -15.0396   26.1417 N   0  0  0  0  0  0  0  0  0  0  0  0
    6.7093  -13.8064   25.6536 C   0  0  0  0  0  0  0  0  0  0  0  0
    6.7150  -12.5753   26.2737 C   0  0  0  0  0  0  0  0  0  0  0  0
    6.9638  -11.4306   25.5671 C   0  0  0  0  0  0  0  0  0  0  0  0
    7.2095  -11.5315   24.2193 C   0  0  0  0  0  0  0  0  0  0  0  0
    7.1997  -12.7677   23.6161 C   0  0  0  0  0  0  0  0  0  0  0  0
    6.9537  -13.9456   24.2874 C   0  0  0  0  0  0  0  0  0  0  0  0
    9.3861  -16.5456   23.2279 C   0  0  0  0  0  0  0  0  0  0  0  0
    9.0664  -17.5571   23.9189 O   0  0  0  0  0  0  0  0  0  0  0  0
   11.0695  -15.4794   31.2801 O   0  0  0  0  0  0  0  0  0  0  0  0
   10.7765  -15.6071   29.9145 C   0  0  0  0  0  0  0  0  0  0  0  0
   10.7058  -14.4667   29.1231 C   0  0  0  0  0  0  0  0  0  0  0  0
   10.4218  -14.5391   27.7793 C   0  0  0  0  0  0  0  0  0  0  0  0
   10.1987  -15.7624   27.1834 C   0  0  0  0  0  0  0  0  0  0  0  0
    9.8850  -15.8276   25.7433 C   0  0  0  0  0  0  0  0  0  0  0  0
   11.1378  -15.7559   24.8613 C   0  0  2  0  0  0  0  0  0  0  0  0
   10.6362  -15.9311   23.5032 N   0  0  0  0  0  0  0  0  0  0  0  0
   12.0048  -16.8912   25.1915 C   0  0  0  0  0  0  0  0  0  0  0  0
   12.9470  -16.7606   26.0002 O   0  0  0  0  0  0  0  0  0  0  0  0
   10.2704  -16.9057   27.9816 C   0  0  0  0  0  0  0  0  0  0  0  0
   10.5553  -16.8211   29.3248 C   0  0  0  0  0  0  0  0  0  0  0  0
   11.7887  -18.1205   24.6111 O   0  0  0  0  0  0  0  0  0  0  0  0
  2  1  1  0
  3  4  1  6
  3  5  1  0
  3  2  1  0
  5  6  1  6
  7  8  2  0
  7  5  1  0
  9  7  1  0
 10 21  1  0
 10  9  1  0
 10 11  1  1
 12 11  1  0
 13 12  2  0
 14 15  1  0
 14 13  1  0
 15 20  2  0
 16 15  1  0
 16 17  2  0
 17 18  1  0
 18 19  2  0
 20 12  1  0
 20 19  1  0
 21 30  1  0
 22 21  2  0
 23 24  1  0
 24 25  2  0
 24 34  1  0
 25 26  1  0
 26 27  2  0
 27 28  1  0
 29 28  1  1
 29 31  1  0
 30 29  1  0
 31 32  2  0
 31 35  1  0
 33 27  1  0
 34 33  2  0
M  END
$$$$
