IWY.pdb
     RDKit          3D

 35 37  0  0  1  0  0  0  0  0999 V2000
    7.3454  -12.1033   17.5232 C   0  0  0  0  0  0  0  0  0  0  0  0
    7.5869  -13.5790   17.8850 C   0  0  0  0  0  0  0  0  0  0  0  0
    7.7867  -13.6251   19.3559 C   0  0  2  0  0  0  0  0  0  0  0  0
    8.7906  -12.5726   19.7595 C   0  0  0  0  0  0  0  0  0  0  0  0
    8.0477  -14.9714   19.9522 C   0  0  2  0  0  0  0  0  0  0  0  0
    6.8986  -15.8017   19.5458 N   0  0  0  0  0  0  0  0  0  0  0  0
    8.1106  -15.0122   21.4220 C   0  0  0  0  0  0  0  0  0  0  0  0
    7.2782  -14.3634   22.1467 O   0  0  0  0  0  0  0  0  0  0  0  0
    9.0701  -15.7530   22.1662 N   0  0  0  0  0  0  0  0  0  0  0  0
    9.2908  -15.6022   23.5842 C   0  0  1  0  0  0  0  0  0  0  0  0
    8.2656  -16.3374   24.4288 C   0  0  0  0  0  0  0  0  0  0  0  0
    7.2349  -15.4586   25.0206 C   0  0  0  0  0  0  0  0  0  0  0  0
    5.8494  -15.5819   24.9394 C   0  0  0  0  0  0  0  0  0  0  0  0
    5.2506  -14.5708   25.5946 N   0  0  0  0  0  0  0  0  0  0  0  0
    6.1937  -13.7698   26.1154 C   0  0  0  0  0  0  0  0  0  0  0  0
    6.0911  -12.6201   26.8691 C   0  0  0  0  0  0  0  0  0  0  0  0
    7.2074  -11.9615   27.3068 C   0  0  0  0  0  0  0  0  0  0  0  0
    8.4406  -12.4707   26.9794 C   0  0  0  0  0  0  0  0  0  0  0  0
    8.5251  -13.6188   26.2264 C   0  0  0  0  0  0  0  0  0  0  0  0
    7.4289  -14.3139   25.7640 C   0  0  0  0  0  0  0  0  0  0  0  0
   10.6789  -15.9081   23.9783 C   0  0  0  0  0  0  0  0  0  0  0  0
   11.4128  -16.7144   23.3346 O   0  0  0  0  0  0  0  0  0  0  0  0
   12.6385  -18.5189   31.9894 O   0  0  0  0  0  0  0  0  0  0  0  0
   12.4732  -17.7282   30.8429 C   0  0  0  0  0  0  0  0  0  0  0  0
   11.3800  -16.8743   30.7557 C   0  0  0  0  0  0  0  0  0  0  0  0
   11.1736  -16.0789   29.6529 C   0  0  0  0  0  0  0  0  0  0  0  0
   12.0605  -16.1141   28.5977 C   0  0  0  0  0  0  0  0  0  0  0  0
   11.8241  -15.2640   27.4153 C   0  0  0  0  0  0  0  0  0  0  0  0
   12.0461  -16.0123   26.0950 C   0  0  2  0  0  0  0  0  0  0  0  0
   11.2381  -15.2833   25.1242 N   0  0  0  0  0  0  0  0  0  0  0  0
   11.5052  -17.3681   26.2320 C   0  0  0  0  0  0  0  0  0  0  0  0
   10.2724  -17.5654   26.2422 O   0  0  0  0  0  0  0  0  0  0  0  0
   13.1574  -16.9732   28.6888 C   0  0  0  0  0  0  0  0  0  0  0  0
   13.3536  -17.7642   29.7969 C   0  0  0  0  0  0  0  0  0  0  0  0
   12.3545  -18.4447   26.3511 O   0  0  0  0  0  0  0  0  0  0  0  0
  2  1  1  0
  3  4  1  6
  3  5  1  0
  3  2  1  0
  5  6  1  1
  7  8  2  0
  7  5  1  0
  9  7  1  0
 10 21  1  0
 10  9  1  0
 10 11  1  1
 12 11  1  0
 13 12  2  0
 14 15  1  0
 14 13  1  0
 15 20  2  0
 16 15  1  0
 16 17  2  0
 17 18  1  0
 18 19  2  0
 20 12  1  0
 20 19  1  0
 21 30  1  0
 22 21  2  0
 23 24  1  0
 24 25  2  0
 24 34  1  0
 25 26  1  0
 26 27  2  0
 27 28  1  0
 29 28  1  1
 29 31  1  0
 30 29  1  0
 31 32  2  0
 31 35  1  0
 33 27  1  0
 34 33  2  0
M  END
$$$$
