IWY.pdb
     RDKit          3D

 35 37  0  0  1  0  0  0  0  0999 V2000
   12.5749  -16.1136   16.4071 C   0  0  0  0  0  0  0  0  0  0  0  0
   11.8373  -17.1275   17.2988 C   0  0  0  0  0  0  0  0  0  0  0  0
   11.7093  -16.4968   18.6373 C   0  0  2  0  0  0  0  0  0  0  0  0
   13.0625  -16.0074   19.0932 C   0  0  0  0  0  0  0  0  0  0  0  0
   10.9663  -17.2769   19.6743 C   0  0  2  0  0  0  0  0  0  0  0  0
    9.7215  -17.7093   19.0123 N   0  0  0  0  0  0  0  0  0  0  0  0
   10.5758  -16.5222   20.8761 C   0  0  0  0  0  0  0  0  0  0  0  0
   11.4457  -15.9445   21.6168 O   0  0  0  0  0  0  0  0  0  0  0  0
    9.2356  -16.3604   21.3245 N   0  0  0  0  0  0  0  0  0  0  0  0
    8.8686  -15.7884   22.5975 C   0  0  1  0  0  0  0  0  0  0  0  0
    7.3726  -15.5787   22.7480 C   0  0  0  0  0  0  0  0  0  0  0  0
    6.9736  -15.0250   24.0591 C   0  0  0  0  0  0  0  0  0  0  0  0
    6.4199  -15.6995   25.1454 C   0  0  0  0  0  0  0  0  0  0  0  0
    6.1756  -14.8423   26.1531 N   0  0  0  0  0  0  0  0  0  0  0  0
    6.5495  -13.6091   25.7768 C   0  0  0  0  0  0  0  0  0  0  0  0
    6.5092  -12.4055   26.4477 C   0  0  0  0  0  0  0  0  0  0  0  0
    6.9601  -11.2551   25.8605 C   0  0  0  0  0  0  0  0  0  0  0  0
    7.4571  -11.3221   24.5815 C   0  0  0  0  0  0  0  0  0  0  0  0
    7.4899  -12.5311   23.9263 C   0  0  0  0  0  0  0  0  0  0  0  0
    7.0465  -13.7135   24.4777 C   0  0  0  0  0  0  0  0  0  0  0  0
    9.4600  -16.5142   23.7374 C   0  0  0  0  0  0  0  0  0  0  0  0
    9.5899  -17.7735   23.7558 O   0  0  0  0  0  0  0  0  0  0  0  0
   12.6981  -17.0153   32.0448 O   0  0  0  0  0  0  0  0  0  0  0  0
   12.3073  -16.6112   30.7600 C   0  0  0  0  0  0  0  0  0  0  0  0
   11.2529  -15.7167   30.6182 C   0  0  0  0  0  0  0  0  0  0  0  0
   10.8320  -15.2900   29.3803 C   0  0  0  0  0  0  0  0  0  0  0  0
   11.4574  -15.7483   28.2401 C   0  0  0  0  0  0  0  0  0  0  0  0
   10.9913  -15.2917   26.9168 C   0  0  0  0  0  0  0  0  0  0  0  0
   10.5186  -16.4469   26.0254 C   0  0  2  0  0  0  0  0  0  0  0  0
    9.9109  -15.7912   24.8732 N   0  0  0  0  0  0  0  0  0  0  0  0
    9.4801  -17.1930   26.7425 C   0  0  0  0  0  0  0  0  0  0  0  0
    8.2905  -16.8143   26.7187 O   0  0  0  0  0  0  0  0  0  0  0  0
   12.5161  -16.6467   28.3864 C   0  0  0  0  0  0  0  0  0  0  0  0
   12.9284  -17.0666   29.6299 C   0  0  0  0  0  0  0  0  0  0  0  0
    9.8059  -18.3256   27.4537 O   0  0  0  0  0  0  0  0  0  0  0  0
  2  1  1  0
  3  4  1  1
  3  5  1  0
  3  2  1  0
  5  6  1  6
  7  8  2  0
  7  5  1  0
  9  7  1  0
 10 21  1  0
 10  9  1  0
 10 11  1  1
 12 11  1  0
 13 12  2  0
 14 15  1  0
 14 13  1  0
 15 20  2  0
 16 15  1  0
 16 17  2  0
 17 18  1  0
 18 19  2  0
 20 12  1  0
 20 19  1  0
 21 30  1  0
 22 21  2  0
 23 24  1  0
 24 25  2  0
 24 34  1  0
 25 26  1  0
 26 27  2  0
 27 28  1  0
 29 28  1  1
 29 31  1  0
 30 29  1  0
 31 32  2  0
 31 35  1  0
 33 27  1  0
 34 33  2  0
M  END
$$$$
