IWY.pdb
     RDKit          3D

 35 37  0  0  1  0  0  0  0  0999 V2000
    5.9529  -16.4620   18.5248 C   0  0  0  0  0  0  0  0  0  0  0  0
    6.8593  -17.3623   19.3821 C   0  0  0  0  0  0  0  0  0  0  0  0
    7.7029  -16.4543   20.2003 C   0  0  2  0  0  0  0  0  0  0  0  0
    8.3348  -15.4148   19.3066 C   0  0  0  0  0  0  0  0  0  0  0  0
    8.6624  -17.1051   21.1447 C   0  0  2  0  0  0  0  0  0  0  0  0
    7.8478  -18.0509   21.9300 N   0  0  0  0  0  0  0  0  0  0  0  0
    9.3187  -16.2020   22.1038 C   0  0  0  0  0  0  0  0  0  0  0  0
   10.0330  -15.2139   21.7130 O   0  0  0  0  0  0  0  0  0  0  0  0
    9.2301  -16.3277   23.5178 N   0  0  0  0  0  0  0  0  0  0  0  0
    9.8696  -15.4353   24.4542 C   0  0  1  0  0  0  0  0  0  0  0  0
    9.1607  -15.3699   25.7951 C   0  0  0  0  0  0  0  0  0  0  0  0
    7.7822  -14.8420   25.7195 C   0  0  0  0  0  0  0  0  0  0  0  0
    6.5925  -15.5572   25.5992 C   0  0  0  0  0  0  0  0  0  0  0  0
    5.5444  -14.7155   25.5416 N   0  0  0  0  0  0  0  0  0  0  0  0
    5.9944  -13.4531   25.6200 C   0  0  0  0  0  0  0  0  0  0  0  0
    5.3227  -12.2493   25.6116 C   0  0  0  0  0  0  0  0  0  0  0  0
    5.9979  -11.0639   25.7135 C   0  0  0  0  0  0  0  0  0  0  0  0
    7.3668  -11.0957   25.8252 C   0  0  0  0  0  0  0  0  0  0  0  0
    8.0215  -12.3055   25.8317 C   0  0  0  0  0  0  0  0  0  0  0  0
    7.3831  -13.5224   25.7309 C   0  0  0  0  0  0  0  0  0  0  0  0
   11.3161  -15.6925   24.5862 C   0  0  0  0  0  0  0  0  0  0  0  0
   12.1955  -14.8280   24.2995 O   0  0  0  0  0  0  0  0  0  0  0  0
    9.8182  -17.0098   30.7920 O   0  0  0  0  0  0  0  0  0  0  0  0
   10.7464  -16.8889   29.7476 C   0  0  0  0  0  0  0  0  0  0  0  0
   10.8233  -15.6955   29.0390 C   0  0  0  0  0  0  0  0  0  0  0  0
   11.7165  -15.5272   28.0068 C   0  0  0  0  0  0  0  0  0  0  0  0
   12.5648  -16.5542   27.6503 C   0  0  0  0  0  0  0  0  0  0  0  0
   13.5120  -16.3662   26.5350 C   0  0  0  0  0  0  0  0  0  0  0  0
   13.1722  -17.2353   25.3177 C   0  0  2  0  0  0  0  0  0  0  0  0
   11.7655  -16.9558   25.0535 N   0  0  0  0  0  0  0  0  0  0  0  0
   13.3070  -18.6443   25.6998 C   0  0  0  0  0  0  0  0  0  0  0  0
   12.3109  -19.3966   25.7260 O   0  0  0  0  0  0  0  0  0  0  0  0
   12.4845  -17.7514   28.3643 C   0  0  0  0  0  0  0  0  0  0  0  0
   11.5871  -17.9083   29.3951 C   0  0  0  0  0  0  0  0  0  0  0  0
   14.5396  -19.1568   26.0354 O   0  0  0  0  0  0  0  0  0  0  0  0
  2  1  1  0
  3  4  1  6
  3  5  1  0
  3  2  1  0
  5  6  1  1
  7  8  2  0
  7  5  1  0
  9  7  1  0
 10 21  1  0
 10  9  1  0
 10 11  1  1
 12 11  1  0
 13 12  2  0
 14 15  1  0
 14 13  1  0
 15 20  2  0
 16 15  1  0
 16 17  2  0
 17 18  1  0
 18 19  2  0
 20 12  1  0
 20 19  1  0
 21 30  1  0
 22 21  2  0
 23 24  1  0
 24 25  2  0
 24 34  1  0
 25 26  1  0
 26 27  2  0
 27 28  1  0
 29 28  1  1
 29 31  1  0
 30 29  1  0
 31 32  2  0
 31 35  1  0
 33 27  1  0
 34 33  2  0
M  END
$$$$
