IWY.pdb
     RDKit          3D

 35 37  0  0  1  0  0  0  0  0999 V2000
    7.8408  -12.0316   18.9596 C   0  0  0  0  0  0  0  0  0  0  0  0
    7.4012  -13.1358   19.9365 C   0  0  0  0  0  0  0  0  0  0  0  0
    8.0340  -14.3934   19.4636 C   0  0  2  0  0  0  0  0  0  0  0  0
    7.7213  -14.5935   18.0004 C   0  0  0  0  0  0  0  0  0  0  0  0
    7.8092  -15.6104   20.3029 C   0  0  2  0  0  0  0  0  0  0  0  0
    6.3794  -15.9324   20.1389 N   0  0  0  0  0  0  0  0  0  0  0  0
    8.0499  -15.4393   21.7448 C   0  0  0  0  0  0  0  0  0  0  0  0
    7.5488  -14.4575   22.3960 O   0  0  0  0  0  0  0  0  0  0  0  0
    8.8374  -16.3181   22.5390 N   0  0  0  0  0  0  0  0  0  0  0  0
    9.3517  -15.9899   23.8467 C   0  0  1  0  0  0  0  0  0  0  0  0
    8.5171  -16.5644   24.9773 C   0  0  0  0  0  0  0  0  0  0  0  0
    7.4095  -15.6869   25.4108 C   0  0  0  0  0  0  0  0  0  0  0  0
    6.0589  -16.0050   25.5372 C   0  0  0  0  0  0  0  0  0  0  0  0
    5.3604  -14.9282   25.9405 N   0  0  0  0  0  0  0  0  0  0  0  0
    6.2025  -13.8933   26.0898 C   0  0  0  0  0  0  0  0  0  0  0  0
    5.9781  -12.5923   26.4864 C   0  0  0  0  0  0  0  0  0  0  0  0
    7.0068  -11.6950   26.5769 C   0  0  0  0  0  0  0  0  0  0  0  0
    8.2758  -12.1174   26.2632 C   0  0  0  0  0  0  0  0  0  0  0  0
    8.4821  -13.4191   25.8690 C   0  0  0  0  0  0  0  0  0  0  0  0
    7.4772  -14.3558   25.7632 C   0  0  0  0  0  0  0  0  0  0  0  0
   10.7878  -16.2971   23.9853 C   0  0  0  0  0  0  0  0  0  0  0  0
   11.3488  -17.2475   23.3648 O   0  0  0  0  0  0  0  0  0  0  0  0
    9.6538  -16.3769   30.5894 O   0  0  0  0  0  0  0  0  0  0  0  0
   10.5330  -16.0252   29.5548 C   0  0  0  0  0  0  0  0  0  0  0  0
   11.5582  -16.8966   29.2061 C   0  0  0  0  0  0  0  0  0  0  0  0
   12.4460  -16.5978   28.1989 C   0  0  0  0  0  0  0  0  0  0  0  0
   12.3338  -15.4108   27.5063 C   0  0  0  0  0  0  0  0  0  0  0  0
   13.2976  -15.0960   26.4345 C   0  0  0  0  0  0  0  0  0  0  0  0
   12.9888  -15.8341   25.1260 C   0  0  2  0  0  0  0  0  0  0  0  0
   11.5959  -15.5066   24.8444 N   0  0  0  0  0  0  0  0  0  0  0  0
   13.0918  -17.2761   25.3698 C   0  0  0  0  0  0  0  0  0  0  0  0
   14.2029  -17.8138   25.5580 O   0  0  0  0  0  0  0  0  0  0  0  0
   11.3028  -14.5380   27.8595 C   0  0  0  0  0  0  0  0  0  0  0  0
   10.4207  -14.8476   28.8687 C   0  0  0  0  0  0  0  0  0  0  0  0
   11.9592  -18.0579   25.3946 O   0  0  0  0  0  0  0  0  0  0  0  0
  2  1  1  0
  3  4  1  6
  3  5  1  0
  3  2  1  0
  5  6  1  1
  7  8  2  0
  7  5  1  0
  9  7  1  0
 10 21  1  0
 10  9  1  0
 10 11  1  1
 12 11  1  0
 13 12  2  0
 14 15  1  0
 14 13  1  0
 15 20  2  0
 16 15  1  0
 16 17  2  0
 17 18  1  0
 18 19  2  0
 20 12  1  0
 20 19  1  0
 21 30  1  0
 22 21  2  0
 23 24  1  0
 24 25  2  0
 24 34  1  0
 25 26  1  0
 26 27  2  0
 27 28  1  0
 29 28  1  1
 29 31  1  0
 30 29  1  0
 31 32  2  0
 31 35  1  0
 33 27  1  0
 34 33  2  0
M  END
$$$$
