IWY.pdb
     RDKit          3D

 35 37  0  0  1  0  0  0  0  0999 V2000
    7.7476  -12.0508   20.4009 C   0  0  0  0  0  0  0  0  0  0  0  0
    7.7201  -13.4892   20.9461 C   0  0  0  0  0  0  0  0  0  0  0  0
    8.7904  -14.2311   20.2323 C   0  0  2  0  0  0  0  0  0  0  0  0
    8.5253  -14.1895   18.7468 C   0  0  0  0  0  0  0  0  0  0  0  0
    9.1173  -15.5949   20.7512 C   0  0  2  0  0  0  0  0  0  0  0  0
    7.8963  -16.3926   20.5332 N   0  0  0  0  0  0  0  0  0  0  0  0
    9.4296  -15.6684   22.1876 C   0  0  0  0  0  0  0  0  0  0  0  0
   10.4184  -15.0305   22.6920 O   0  0  0  0  0  0  0  0  0  0  0  0
    8.6893  -16.4297   23.1341 N   0  0  0  0  0  0  0  0  0  0  0  0
    8.9289  -16.4110   24.5570 C   0  0  1  0  0  0  0  0  0  0  0  0
    7.6714  -16.6390   25.3765 C   0  0  0  0  0  0  0  0  0  0  0  0
    6.9263  -15.4012   25.6883 C   0  0  0  0  0  0  0  0  0  0  0  0
    5.5816  -15.1236   25.4511 C   0  0  0  0  0  0  0  0  0  0  0  0
    5.2821  -13.8772   25.8597 N   0  0  0  0  0  0  0  0  0  0  0  0
    6.3871  -13.3071   26.3659 C   0  0  0  0  0  0  0  0  0  0  0  0
    6.5935  -12.0586   26.9126 C   0  0  0  0  0  0  0  0  0  0  0  0
    7.8242  -11.6886   27.3817 C   0  0  0  0  0  0  0  0  0  0  0  0
    8.8572  -12.5903   27.2973 C   0  0  0  0  0  0  0  0  0  0  0  0
    8.6340  -13.8319   26.7486 C   0  0  0  0  0  0  0  0  0  0  0  0
    7.4128  -14.2467   26.2637 C   0  0  0  0  0  0  0  0  0  0  0  0
   10.0385  -17.2966   24.9573 C   0  0  0  0  0  0  0  0  0  0  0  0
   10.2640  -18.4096   24.3976 O   0  0  0  0  0  0  0  0  0  0  0  0
   14.7410  -16.9159   20.7763 O   0  0  0  0  0  0  0  0  0  0  0  0
   14.3803  -16.9764   22.1303 C   0  0  0  0  0  0  0  0  0  0  0  0
   13.9450  -15.8227   22.7718 C   0  0  0  0  0  0  0  0  0  0  0  0
   13.5801  -15.8301   24.0978 C   0  0  0  0  0  0  0  0  0  0  0  0
   13.6401  -16.9994   24.8263 C   0  0  0  0  0  0  0  0  0  0  0  0
   13.2558  -16.9938   26.2507 C   0  0  0  0  0  0  0  0  0  0  0  0
   11.9620  -17.7732   26.5172 C   0  0  2  0  0  0  0  0  0  0  0  0
   10.9047  -16.9051   26.0122 N   0  0  0  0  0  0  0  0  0  0  0  0
   11.7971  -17.9193   27.9666 C   0  0  0  0  0  0  0  0  0  0  0  0
   12.5710  -18.6428   28.6274 O   0  0  0  0  0  0  0  0  0  0  0  0
   14.0780  -18.1562   24.1785 C   0  0  0  0  0  0  0  0  0  0  0  0
   14.4405  -18.1367   22.8516 C   0  0  0  0  0  0  0  0  0  0  0  0
   10.7822  -17.2569   28.6193 O   0  0  0  0  0  0  0  0  0  0  0  0
  2  1  1  0
  3  4  1  6
  3  5  1  0
  3  2  1  0
  5  6  1  1
  7  8  2  0
  7  5  1  0
  9  7  1  0
 10 21  1  0
 10  9  1  0
 10 11  1  1
 12 11  1  0
 13 12  2  0
 14 15  1  0
 14 13  1  0
 15 20  2  0
 16 15  1  0
 16 17  2  0
 17 18  1  0
 18 19  2  0
 20 12  1  0
 20 19  1  0
 21 30  1  0
 22 21  2  0
 23 24  1  0
 24 25  2  0
 24 34  1  0
 25 26  1  0
 26 27  2  0
 27 28  1  0
 29 28  1  1
 29 31  1  0
 30 29  1  0
 31 32  2  0
 31 35  1  0
 33 27  1  0
 34 33  2  0
M  END
$$$$
