IWY.pdb
     RDKit          3D

 35 37  0  0  1  0  0  0  0  0999 V2000
    7.6563  -16.4398   16.1950 C   0  0  0  0  0  0  0  0  0  0  0  0
    7.7919  -16.6232   17.7166 C   0  0  0  0  0  0  0  0  0  0  0  0
    9.1220  -17.2413   17.9498 C   0  0  2  0  0  0  0  0  0  0  0  0
    9.2305  -18.5163   17.1490 C   0  0  0  0  0  0  0  0  0  0  0  0
    9.5516  -17.3829   19.3750 C   0  0  2  0  0  0  0  0  0  0  0  0
    8.5903  -18.3267   19.9749 N   0  0  0  0  0  0  0  0  0  0  0  0
    9.5028  -16.1498   20.1772 C   0  0  0  0  0  0  0  0  0  0  0  0
   10.3949  -15.2389   20.0609 O   0  0  0  0  0  0  0  0  0  0  0  0
    8.4924  -15.8509   21.1328 N   0  0  0  0  0  0  0  0  0  0  0  0
    8.4468  -14.6386   21.9141 C   0  0  1  0  0  0  0  0  0  0  0  0
    7.0425  -14.2648   22.3535 C   0  0  0  0  0  0  0  0  0  0  0  0
    6.8168  -14.3880   23.8090 C   0  0  0  0  0  0  0  0  0  0  0  0
    6.6048  -15.5477   24.5517 C   0  0  0  0  0  0  0  0  0  0  0  0
    6.4190  -15.2448   25.8493 N   0  0  0  0  0  0  0  0  0  0  0  0
    6.5002  -13.9135   26.0021 C   0  0  0  0  0  0  0  0  0  0  0  0
    6.3883  -13.1217   27.1250 C   0  0  0  0  0  0  0  0  0  0  0  0
    6.5173  -11.7620   27.0451 C   0  0  0  0  0  0  0  0  0  0  0  0
    6.7620  -11.1969   25.8171 C   0  0  0  0  0  0  0  0  0  0  0  0
    6.8706  -12.0016   24.7067 C   0  0  0  0  0  0  0  0  0  0  0  0
    6.7474  -13.3736   24.7401 C   0  0  0  0  0  0  0  0  0  0  0  0
    9.4103  -14.6465   23.0310 C   0  0  0  0  0  0  0  0  0  0  0  0
    9.6919  -13.6100   23.7013 O   0  0  0  0  0  0  0  0  0  0  0  0
   11.3988  -16.5392   31.0397 O   0  0  0  0  0  0  0  0  0  0  0  0
   10.9490  -16.3694   29.7222 C   0  0  0  0  0  0  0  0  0  0  0  0
   10.5741  -17.4840   28.9811 C   0  0  0  0  0  0  0  0  0  0  0  0
   10.1264  -17.3702   27.6857 C   0  0  0  0  0  0  0  0  0  0  0  0
   10.0398  -16.1300   27.0892 C   0  0  0  0  0  0  0  0  0  0  0  0
    9.5677  -16.0205   25.6957 C   0  0  0  0  0  0  0  0  0  0  0  0
   10.7160  -16.0390   24.6791 C   0  0  2  0  0  0  0  0  0  0  0  0
   10.0615  -15.8565   23.3887 N   0  0  0  0  0  0  0  0  0  0  0  0
   11.3395  -17.3657   24.7056 C   0  0  0  0  0  0  0  0  0  0  0  0
   10.9353  -18.2760   23.9527 O   0  0  0  0  0  0  0  0  0  0  0  0
   10.4173  -15.0128   27.8366 C   0  0  0  0  0  0  0  0  0  0  0  0
   10.8637  -15.1388   29.1317 C   0  0  0  0  0  0  0  0  0  0  0  0
   12.3832  -17.6244   25.5649 O   0  0  0  0  0  0  0  0  0  0  0  0
  2  1  1  0
  3  4  1  1
  3  5  1  0
  3  2  1  0
  5  6  1  1
  7  8  2  0
  7  5  1  0
  9  7  1  0
 10 21  1  0
 10  9  1  0
 10 11  1  1
 12 11  1  0
 13 12  2  0
 14 15  1  0
 14 13  1  0
 15 20  2  0
 16 15  1  0
 16 17  2  0
 17 18  1  0
 18 19  2  0
 20 12  1  0
 20 19  1  0
 21 30  1  0
 22 21  2  0
 23 24  1  0
 24 25  2  0
 24 34  1  0
 25 26  1  0
 26 27  2  0
 27 28  1  0
 29 28  1  1
 29 31  1  0
 30 29  1  0
 31 32  2  0
 31 35  1  0
 33 27  1  0
 34 33  2  0
M  END
$$$$
