IWY.pdb
     RDKit          3D

 35 37  0  0  1  0  0  0  0  0999 V2000
    7.0250  -13.9523   15.7910 C   0  0  0  0  0  0  0  0  0  0  0  0
    8.2616  -14.5979   16.4398 C   0  0  0  0  0  0  0  0  0  0  0  0
    8.1833  -14.2936   17.8913 C   0  0  2  0  0  0  0  0  0  0  0  0
    8.1631  -12.7975   18.0903 C   0  0  0  0  0  0  0  0  0  0  0  0
    9.1528  -15.0094   18.7766 C   0  0  2  0  0  0  0  0  0  0  0  0
    8.8713  -16.4431   18.5759 N   0  0  0  0  0  0  0  0  0  0  0  0
    9.0140  -14.7403   20.2169 C   0  0  0  0  0  0  0  0  0  0  0  0
    9.3565  -13.6161   20.7246 O   0  0  0  0  0  0  0  0  0  0  0  0
    8.5007  -15.6698   21.1634 N   0  0  0  0  0  0  0  0  0  0  0  0
    8.3453  -15.3933   22.5712 C   0  0  1  0  0  0  0  0  0  0  0  0
    6.9374  -15.6504   23.0775 C   0  0  0  0  0  0  0  0  0  0  0  0
    6.7187  -15.2338   24.4787 C   0  0  0  0  0  0  0  0  0  0  0  0
    6.4005  -16.0337   25.5744 C   0  0  0  0  0  0  0  0  0  0  0  0
    6.2623  -15.2793   26.6798 N   0  0  0  0  0  0  0  0  0  0  0  0
    6.4787  -13.9936   26.3600 C   0  0  0  0  0  0  0  0  0  0  0  0
    6.4609  -12.8522   27.1327 C   0  0  0  0  0  0  0  0  0  0  0  0
    6.7247  -11.6261   26.5862 C   0  0  0  0  0  0  0  0  0  0  0  0
    7.0097  -11.5532   25.2442 C   0  0  0  0  0  0  0  0  0  0  0  0
    7.0230  -12.7019   24.4876 C   0  0  0  0  0  0  0  0  0  0  0  0
    6.7631  -13.9563   24.9950 C   0  0  0  0  0  0  0  0  0  0  0  0
    9.3766  -16.0506   23.3959 C   0  0  0  0  0  0  0  0  0  0  0  0
    9.7655  -17.2378   23.1901 O   0  0  0  0  0  0  0  0  0  0  0  0
   12.3180  -17.5370   31.4917 O   0  0  0  0  0  0  0  0  0  0  0  0
   12.0109  -16.9269   30.2668 C   0  0  0  0  0  0  0  0  0  0  0  0
   10.8822  -16.1215   30.1706 C   0  0  0  0  0  0  0  0  0  0  0  0
   10.5383  -15.5012   28.9922 C   0  0  0  0  0  0  0  0  0  0  0  0
   11.3184  -15.6692   27.8677 C   0  0  0  0  0  0  0  0  0  0  0  0
   10.9347  -15.0073   26.6062 C   0  0  0  0  0  0  0  0  0  0  0  0
   10.8770  -15.9799   25.4217 C   0  0  2  0  0  0  0  0  0  0  0  0
    9.9738  -15.3414   24.4713 N   0  0  0  0  0  0  0  0  0  0  0  0
   10.2685  -17.2333   25.8781 C   0  0  0  0  0  0  0  0  0  0  0  0
    9.0318  -17.3270   26.0221 O   0  0  0  0  0  0  0  0  0  0  0  0
   12.4513  -16.4791   27.9681 C   0  0  0  0  0  0  0  0  0  0  0  0
   12.7854  -17.0945   29.1521 C   0  0  0  0  0  0  0  0  0  0  0  0
   11.0574  -18.3269   26.1542 O   0  0  0  0  0  0  0  0  0  0  0  0
  2  1  1  0
  3  4  1  6
  3  5  1  0
  3  2  1  0
  5  6  1  1
  7  8  2  0
  7  5  1  0
  9  7  1  0
 10 21  1  0
 10  9  1  0
 10 11  1  1
 12 11  1  0
 13 12  2  0
 14 15  1  0
 14 13  1  0
 15 20  2  0
 16 15  1  0
 16 17  2  0
 17 18  1  0
 18 19  2  0
 20 12  1  0
 20 19  1  0
 21 30  1  0
 22 21  2  0
 23 24  1  0
 24 25  2  0
 24 34  1  0
 25 26  1  0
 26 27  2  0
 27 28  1  0
 29 28  1  1
 29 31  1  0
 30 29  1  0
 31 32  2  0
 31 35  1  0
 33 27  1  0
 34 33  2  0
M  END
$$$$
