IWY.pdb
     RDKit          3D

 35 37  0  0  1  0  0  0  0  0999 V2000
    6.1320  -12.6241   18.6286 C   0  0  0  0  0  0  0  0  0  0  0  0
    6.7388  -14.0309   18.7688 C   0  0  0  0  0  0  0  0  0  0  0  0
    7.6602  -13.9785   19.9324 C   0  0  2  0  0  0  0  0  0  0  0  0
    8.5978  -12.8057   19.7780 C   0  0  0  0  0  0  0  0  0  0  0  0
    8.3441  -15.2564   20.3002 C   0  0  2  0  0  0  0  0  0  0  0  0
    7.2555  -16.2286   20.5117 N   0  0  0  0  0  0  0  0  0  0  0  0
    9.1347  -15.2178   21.5411 C   0  0  0  0  0  0  0  0  0  0  0  0
   10.1792  -14.4851   21.6477 O   0  0  0  0  0  0  0  0  0  0  0  0
    8.8305  -15.9647   22.7127 N   0  0  0  0  0  0  0  0  0  0  0  0
    9.6694  -16.0128   23.8859 C   0  0  1  0  0  0  0  0  0  0  0  0
    8.9057  -16.3598   25.1513 C   0  0  0  0  0  0  0  0  0  0  0  0
    7.7169  -15.5133   25.3854 C   0  0  0  0  0  0  0  0  0  0  0  0
    6.3743  -15.8817   25.3315 C   0  0  0  0  0  0  0  0  0  0  0  0
    5.5874  -14.8204   25.5855 N   0  0  0  0  0  0  0  0  0  0  0  0
    6.3620  -13.7471   25.8095 C   0  0  0  0  0  0  0  0  0  0  0  0
    6.0370  -12.4428   26.1150 C   0  0  0  0  0  0  0  0  0  0  0  0
    7.0096  -11.5013   26.3132 C   0  0  0  0  0  0  0  0  0  0  0  0
    8.3247  -11.8825   26.2015 C   0  0  0  0  0  0  0  0  0  0  0  0
    8.6315  -13.1881   25.8958 C   0  0  0  0  0  0  0  0  0  0  0  0
    7.6860  -14.1685   25.6875 C   0  0  0  0  0  0  0  0  0  0  0  0
   10.8662  -16.8535   23.6937 C   0  0  0  0  0  0  0  0  0  0  0  0
   10.8078  -18.0399   23.2557 O   0  0  0  0  0  0  0  0  0  0  0  0
   10.9314  -16.8745   31.5066 O   0  0  0  0  0  0  0  0  0  0  0  0
   11.2293  -16.5249   30.1815 C   0  0  0  0  0  0  0  0  0  0  0  0
   10.5282  -15.4886   29.5760 C   0  0  0  0  0  0  0  0  0  0  0  0
   10.7830  -15.1079   28.2792 C   0  0  0  0  0  0  0  0  0  0  0  0
   11.7531  -15.7567   27.5447 C   0  0  0  0  0  0  0  0  0  0  0  0
   12.0113  -15.3468   26.1512 C   0  0  0  0  0  0  0  0  0  0  0  0
   12.7301  -16.4315   25.3392 C   0  0  2  0  0  0  0  0  0  0  0  0
   12.1492  -16.3312   24.0054 N   0  0  0  0  0  0  0  0  0  0  0  0
   12.3860  -17.7400   25.9039 C   0  0  0  0  0  0  0  0  0  0  0  0
   11.2309  -18.2003   25.7904 O   0  0  0  0  0  0  0  0  0  0  0  0
   12.4552  -16.7972   28.1563 C   0  0  0  0  0  0  0  0  0  0  0  0
   12.1917  -17.1692   29.4541 C   0  0  0  0  0  0  0  0  0  0  0  0
   13.3372  -18.4802   26.5687 O   0  0  0  0  0  0  0  0  0  0  0  0
  2  1  1  0
  3  4  1  6
  3  5  1  0
  3  2  1  0
  5  6  1  1
  7  8  2  0
  7  5  1  0
  9  7  1  0
 10 21  1  0
 10  9  1  0
 10 11  1  1
 12 11  1  0
 13 12  2  0
 14 15  1  0
 14 13  1  0
 15 20  2  0
 16 15  1  0
 16 17  2  0
 17 18  1  0
 18 19  2  0
 20 12  1  0
 20 19  1  0
 21 30  1  0
 22 21  2  0
 23 24  1  0
 24 25  2  0
 24 34  1  0
 25 26  1  0
 26 27  2  0
 27 28  1  0
 29 28  1  1
 29 31  1  0
 30 29  1  0
 31 32  2  0
 31 35  1  0
 33 27  1  0
 34 33  2  0
M  END
$$$$
