IWY.pdb
     RDKit          3D

 35 37  0  0  1  0  0  0  0  0999 V2000
   11.9505  -18.2331   16.4928 C   0  0  0  0  0  0  0  0  0  0  0  0
   10.8382  -18.6479   17.4715 C   0  0  0  0  0  0  0  0  0  0  0  0
   11.1565  -18.0012   18.7700 C   0  0  2  0  0  0  0  0  0  0  0  0
   12.6188  -18.2023   19.0860 C   0  0  0  0  0  0  0  0  0  0  0  0
   10.2419  -18.3108   19.9118 C   0  0  2  0  0  0  0  0  0  0  0  0
    8.8923  -18.3658   19.3199 N   0  0  0  0  0  0  0  0  0  0  0  0
   10.2020  -17.3026   20.9833 C   0  0  0  0  0  0  0  0  0  0  0  0
   11.2498  -16.9910   21.6496 O   0  0  0  0  0  0  0  0  0  0  0  0
    9.0342  -16.5919   21.3765 N   0  0  0  0  0  0  0  0  0  0  0  0
    8.9714  -15.6933   22.5038 C   0  0  1  0  0  0  0  0  0  0  0  0
    7.7679  -14.7688   22.4631 C   0  0  0  0  0  0  0  0  0  0  0  0
    7.8110  -13.6838   23.4660 C   0  0  0  0  0  0  0  0  0  0  0  0
    8.4689  -12.4586   23.3801 C   0  0  0  0  0  0  0  0  0  0  0  0
    8.2861  -11.7493   24.5087 N   0  0  0  0  0  0  0  0  0  0  0  0
    7.5231  -12.4620   25.3526 C   0  0  0  0  0  0  0  0  0  0  0  0
    7.0560  -12.1722   26.6168 C   0  0  0  0  0  0  0  0  0  0  0  0
    6.2719  -13.0609   27.3001 C   0  0  0  0  0  0  0  0  0  0  0  0
    5.9565  -14.2553   26.6990 C   0  0  0  0  0  0  0  0  0  0  0  0
    6.4312  -14.5287   25.4372 C   0  0  0  0  0  0  0  0  0  0  0  0
    7.2234  -13.6647   24.7130 C   0  0  0  0  0  0  0  0  0  0  0  0
    9.1097  -16.3924   23.7953 C   0  0  0  0  0  0  0  0  0  0  0  0
    8.4262  -17.4139   24.0989 O   0  0  0  0  0  0  0  0  0  0  0  0
   13.3132  -18.9890   31.1551 O   0  0  0  0  0  0  0  0  0  0  0  0
   12.8836  -18.4015   29.9562 C   0  0  0  0  0  0  0  0  0  0  0  0
   13.8280  -17.9663   29.0338 C   0  0  0  0  0  0  0  0  0  0  0  0
   13.4576  -17.3840   27.8441 C   0  0  0  0  0  0  0  0  0  0  0  0
   12.1230  -17.2187   27.5398 C   0  0  0  0  0  0  0  0  0  0  0  0
   11.7371  -16.5838   26.2651 C   0  0  0  0  0  0  0  0  0  0  0  0
   10.2180  -16.5553   26.0548 C   0  0  2  0  0  0  0  0  0  0  0  0
   10.0435  -15.9187   24.7544 N   0  0  0  0  0  0  0  0  0  0  0  0
    9.6222  -15.6954   27.0820 C   0  0  0  0  0  0  0  0  0  0  0  0
    8.6765  -16.1047   27.7870 O   0  0  0  0  0  0  0  0  0  0  0  0
   11.1773  -17.6570   28.4688 C   0  0  0  0  0  0  0  0  0  0  0  0
   11.5595  -18.2381   29.6556 C   0  0  0  0  0  0  0  0  0  0  0  0
   10.1011  -14.4206   27.2823 O   0  0  0  0  0  0  0  0  0  0  0  0
  2  1  1  0
  3  4  1  1
  3  5  1  0
  3  2  1  0
  5  6  1  6
  7  8  2  0
  7  5  1  0
  9  7  1  0
 10 21  1  0
 10  9  1  0
 10 11  1  1
 12 11  1  0
 13 12  2  0
 14 15  1  0
 14 13  1  0
 15 20  2  0
 16 15  1  0
 16 17  2  0
 17 18  1  0
 18 19  2  0
 20 12  1  0
 20 19  1  0
 21 30  1  0
 22 21  2  0
 23 24  1  0
 24 25  2  0
 24 34  1  0
 25 26  1  0
 26 27  2  0
 27 28  1  0
 29 28  1  1
 29 31  1  0
 30 29  1  0
 31 32  2  0
 31 35  1  0
 33 27  1  0
 34 33  2  0
M  END
$$$$
