IWY.pdb
     RDKit          3D

 35 37  0  0  1  0  0  0  0  0999 V2000
    6.4490  -12.6165   19.2673 C   0  0  0  0  0  0  0  0  0  0  0  0
    7.0367  -13.7714   20.0967 C   0  0  0  0  0  0  0  0  0  0  0  0
    8.3398  -14.1171   19.4738 C   0  0  2  0  0  0  0  0  0  0  0  0
    8.1409  -14.3661   17.9984 C   0  0  0  0  0  0  0  0  0  0  0  0
    9.1503  -15.1688   20.1617 C   0  0  2  0  0  0  0  0  0  0  0  0
    8.3791  -16.4155   20.0011 N   0  0  0  0  0  0  0  0  0  0  0  0
    9.3522  -14.9698   21.6060 C   0  0  0  0  0  0  0  0  0  0  0  0
    9.8174  -13.8721   22.0727 O   0  0  0  0  0  0  0  0  0  0  0  0
    9.0602  -15.9434   22.6010 N   0  0  0  0  0  0  0  0  0  0  0  0
    9.3066  -15.7625   24.0113 C   0  0  1  0  0  0  0  0  0  0  0  0
    8.1998  -16.3224   24.8867 C   0  0  0  0  0  0  0  0  0  0  0  0
    7.2105  -15.3137   25.3210 C   0  0  0  0  0  0  0  0  0  0  0  0
    5.8210  -15.4172   25.3244 C   0  0  0  0  0  0  0  0  0  0  0  0
    5.2680  -14.2765   25.7750 N   0  0  0  0  0  0  0  0  0  0  0  0
    6.2458  -13.4072   26.0758 C   0  0  0  0  0  0  0  0  0  0  0  0
    6.1950  -12.1225   26.5729 C   0  0  0  0  0  0  0  0  0  0  0  0
    7.3399  -11.4141   26.8156 C   0  0  0  0  0  0  0  0  0  0  0  0
    8.5491  -12.0109   26.5531 C   0  0  0  0  0  0  0  0  0  0  0  0
    8.5819  -13.2935   26.0570 C   0  0  0  0  0  0  0  0  0  0  0  0
    7.4554  -14.0432   25.7971 C   0  0  0  0  0  0  0  0  0  0  0  0
   10.6457  -16.2285   24.4178 C   0  0  0  0  0  0  0  0  0  0  0  0
   11.2018  -17.2456   23.9086 O   0  0  0  0  0  0  0  0  0  0  0  0
   12.5177  -19.0270   32.2666 O   0  0  0  0  0  0  0  0  0  0  0  0
   12.2488  -18.2222   31.1499 C   0  0  0  0  0  0  0  0  0  0  0  0
   10.9315  -18.0294   30.7503 C   0  0  0  0  0  0  0  0  0  0  0  0
   10.6159  -17.2494   29.6623 C   0  0  0  0  0  0  0  0  0  0  0  0
   11.6150  -16.6352   28.9371 C   0  0  0  0  0  0  0  0  0  0  0  0
   11.2658  -15.8089   27.7658 C   0  0  0  0  0  0  0  0  0  0  0  0
   12.0541  -16.2004   26.5097 C   0  0  2  0  0  0  0  0  0  0  0  0
   11.3614  -15.5221   25.4203 N   0  0  0  0  0  0  0  0  0  0  0  0
   11.9303  -17.6482   26.3152 C   0  0  0  0  0  0  0  0  0  0  0  0
   12.9453  -18.3725   26.2497 O   0  0  0  0  0  0  0  0  0  0  0  0
   12.9369  -16.8314   29.3415 C   0  0  0  0  0  0  0  0  0  0  0  0
   13.2407  -17.6137   30.4315 C   0  0  0  0  0  0  0  0  0  0  0  0
   10.6875  -18.2290   26.2023 O   0  0  0  0  0  0  0  0  0  0  0  0
  2  1  1  0
  3  4  1  6
  3  5  1  0
  3  2  1  0
  5  6  1  1
  7  8  2  0
  7  5  1  0
  9  7  1  0
 10 21  1  0
 10  9  1  0
 10 11  1  1
 12 11  1  0
 13 12  2  0
 14 15  1  0
 14 13  1  0
 15 20  2  0
 16 15  1  0
 16 17  2  0
 17 18  1  0
 18 19  2  0
 20 12  1  0
 20 19  1  0
 21 30  1  0
 22 21  2  0
 23 24  1  0
 24 25  2  0
 24 34  1  0
 25 26  1  0
 26 27  2  0
 27 28  1  0
 29 28  1  1
 29 31  1  0
 30 29  1  0
 31 32  2  0
 31 35  1  0
 33 27  1  0
 34 33  2  0
M  END
$$$$
