IWY.pdb
     RDKit          3D

 35 37  0  0  1  0  0  0  0  0999 V2000
    6.8412  -12.9214   17.1423 C   0  0  0  0  0  0  0  0  0  0  0  0
    7.8610  -14.0400   17.4180 C   0  0  0  0  0  0  0  0  0  0  0  0
    8.1230  -14.0207   18.8797 C   0  0  2  0  0  0  0  0  0  0  0  0
    8.4275  -12.6083   19.3167 C   0  0  0  0  0  0  0  0  0  0  0  0
    9.0898  -15.0368   19.3980 C   0  0  2  0  0  0  0  0  0  0  0  0
    8.5295  -16.3408   18.9973 N   0  0  0  0  0  0  0  0  0  0  0  0
    9.2528  -15.0687   20.8604 C   0  0  0  0  0  0  0  0  0  0  0  0
   10.0092  -14.2339   21.4687 O   0  0  0  0  0  0  0  0  0  0  0  0
    8.6075  -15.9985   21.7219 N   0  0  0  0  0  0  0  0  0  0  0  0
    8.8253  -16.0720   23.1466 C   0  0  1  0  0  0  0  0  0  0  0  0
    7.6912  -16.7559   23.8887 C   0  0  0  0  0  0  0  0  0  0  0  0
    7.0374  -15.9023   24.9030 C   0  0  0  0  0  0  0  0  0  0  0  0
    5.9987  -16.2373   25.7691 C   0  0  0  0  0  0  0  0  0  0  0  0
    5.6650  -15.1795   26.5306 N   0  0  0  0  0  0  0  0  0  0  0  0
    6.4500  -14.1411   26.2023 C   0  0  0  0  0  0  0  0  0  0  0  0
    6.5034  -12.8544   26.6939 C   0  0  0  0  0  0  0  0  0  0  0  0
    7.4068  -11.9499   26.2067 C   0  0  0  0  0  0  0  0  0  0  0  0
    8.2654  -12.3506   25.2118 C   0  0  0  0  0  0  0  0  0  0  0  0
    8.1985  -13.6382   24.7324 C   0  0  0  0  0  0  0  0  0  0  0  0
    7.3055  -14.5813   25.1924 C   0  0  0  0  0  0  0  0  0  0  0  0
   10.1481  -16.6268   23.4906 C   0  0  0  0  0  0  0  0  0  0  0  0
   10.9076  -17.1698   22.6355 O   0  0  0  0  0  0  0  0  0  0  0  0
    9.4945  -13.0525   29.6381 O   0  0  0  0  0  0  0  0  0  0  0  0
   10.0772  -14.0929   28.8998 C   0  0  0  0  0  0  0  0  0  0  0  0
    9.6256  -15.3946   29.0830 C   0  0  0  0  0  0  0  0  0  0  0  0
   10.1643  -16.4490   28.3833 C   0  0  0  0  0  0  0  0  0  0  0  0
   11.1773  -16.2312   27.4735 C   0  0  0  0  0  0  0  0  0  0  0  0
   11.7548  -17.3708   26.7357 C   0  0  0  0  0  0  0  0  0  0  0  0
   11.9090  -17.0875   25.2362 C   0  0  2  0  0  0  0  0  0  0  0  0
   10.6112  -16.5597   24.8312 N   0  0  0  0  0  0  0  0  0  0  0  0
   12.1353  -18.3595   24.5433 C   0  0  0  0  0  0  0  0  0  0  0  0
   11.1763  -19.0949   24.2296 O   0  0  0  0  0  0  0  0  0  0  0  0
   11.6285  -14.9223   27.2923 C   0  0  0  0  0  0  0  0  0  0  0  0
   11.0820  -13.8755   27.9979 C   0  0  0  0  0  0  0  0  0  0  0  0
   13.4142  -18.7597   24.2285 O   0  0  0  0  0  0  0  0  0  0  0  0
  2  1  1  0
  3  4  1  6
  3  5  1  0
  3  2  1  0
  5  6  1  1
  7  8  2  0
  7  5  1  0
  9  7  1  0
 10 21  1  0
 10  9  1  0
 10 11  1  1
 12 11  1  0
 13 12  2  0
 14 15  1  0
 14 13  1  0
 15 20  2  0
 16 15  1  0
 16 17  2  0
 17 18  1  0
 18 19  2  0
 20 12  1  0
 20 19  1  0
 21 30  1  0
 22 21  2  0
 23 24  1  0
 24 25  2  0
 24 34  1  0
 25 26  1  0
 26 27  2  0
 27 28  1  0
 29 28  1  1
 29 31  1  0
 30 29  1  0
 31 32  2  0
 31 35  1  0
 33 27  1  0
 34 33  2  0
M  END
$$$$
