IWY.pdb
     RDKit          3D

 35 37  0  0  1  0  0  0  0  0999 V2000
    6.8674  -12.5587   19.1856 C   0  0  0  0  0  0  0  0  0  0  0  0
    7.4107  -13.9939   19.2948 C   0  0  0  0  0  0  0  0  0  0  0  0
    8.1272  -14.0758   20.5931 C   0  0  2  0  0  0  0  0  0  0  0  0
    9.1376  -12.9577   20.6803 C   0  0  0  0  0  0  0  0  0  0  0  0
    8.6726  -15.4158   20.9711 C   0  0  2  0  0  0  0  0  0  0  0  0
    7.5362  -16.3459   20.8363 N   0  0  0  0  0  0  0  0  0  0  0  0
    9.1642  -15.5331   22.3534 C   0  0  0  0  0  0  0  0  0  0  0  0
   10.1932  -14.8865   22.7559 O   0  0  0  0  0  0  0  0  0  0  0  0
    8.5666  -16.3491   23.3535 N   0  0  0  0  0  0  0  0  0  0  0  0
    9.0586  -16.4691   24.7047 C   0  0  1  0  0  0  0  0  0  0  0  0
    7.9499  -16.5972   25.7339 C   0  0  0  0  0  0  0  0  0  0  0  0
    7.0598  -15.4193   25.8062 C   0  0  0  0  0  0  0  0  0  0  0  0
    5.6887  -15.3611   25.5653 C   0  0  0  0  0  0  0  0  0  0  0  0
    5.2407  -14.1012   25.7140 N   0  0  0  0  0  0  0  0  0  0  0  0
    6.2713  -13.3088   26.0487 C   0  0  0  0  0  0  0  0  0  0  0  0
    6.3265  -11.9571   26.3136 C   0  0  0  0  0  0  0  0  0  0  0  0
    7.5064  -11.3515   26.6493 C   0  0  0  0  0  0  0  0  0  0  0  0
    8.6426  -12.1207   26.7183 C   0  0  0  0  0  0  0  0  0  0  0  0
    8.5700  -13.4681   26.4507 C   0  0  0  0  0  0  0  0  0  0  0  0
    7.4049  -14.1193   26.1085 C   0  0  0  0  0  0  0  0  0  0  0  0
   10.0884  -17.5161   24.8429 C   0  0  0  0  0  0  0  0  0  0  0  0
   10.5417  -18.1667   23.8559 O   0  0  0  0  0  0  0  0  0  0  0  0
   14.6724  -17.0549   20.6936 O   0  0  0  0  0  0  0  0  0  0  0  0
   14.2609  -17.0736   22.0342 C   0  0  0  0  0  0  0  0  0  0  0  0
   13.3744  -18.0553   22.4613 C   0  0  0  0  0  0  0  0  0  0  0  0
   12.9410  -18.1164   23.7652 C   0  0  0  0  0  0  0  0  0  0  0  0
   13.3845  -17.1914   24.6865 C   0  0  0  0  0  0  0  0  0  0  0  0
   12.9055  -17.2602   26.0803 C   0  0  0  0  0  0  0  0  0  0  0  0
   11.9279  -18.4190   26.3130 C   0  0  2  0  0  0  0  0  0  0  0  0
   10.6093  -17.8244   26.1273 N   0  0  0  0  0  0  0  0  0  0  0  0
   12.0521  -18.8598   27.7057 C   0  0  0  0  0  0  0  0  0  0  0  0
   11.2267  -18.4922   28.5675 O   0  0  0  0  0  0  0  0  0  0  0  0
   14.2749  -16.2067   24.2539 C   0  0  0  0  0  0  0  0  0  0  0  0
   14.7015  -16.1555   22.9470 C   0  0  0  0  0  0  0  0  0  0  0  0
   13.0849  -19.6886   28.0813 O   0  0  0  0  0  0  0  0  0  0  0  0
  2  1  1  0
  3  4  1  6
  3  5  1  0
  3  2  1  0
  5  6  1  1
  7  8  2  0
  7  5  1  0
  9  7  1  0
 10 21  1  0
 10  9  1  0
 10 11  1  1
 12 11  1  0
 13 12  2  0
 14 15  1  0
 14 13  1  0
 15 20  2  0
 16 15  1  0
 16 17  2  0
 17 18  1  0
 18 19  2  0
 20 12  1  0
 20 19  1  0
 21 30  1  0
 22 21  2  0
 23 24  1  0
 24 25  2  0
 24 34  1  0
 25 26  1  0
 26 27  2  0
 27 28  1  0
 29 28  1  1
 29 31  1  0
 30 29  1  0
 31 32  2  0
 31 35  1  0
 33 27  1  0
 34 33  2  0
M  END
$$$$
