YHS.pdb
     RDKit          3D

 29 30  0  0  1  0  0  0  0  0999 V2000
    5.5660  -10.2935   27.5591 O   0  0  0  0  0  0  0  0  0  0  0  0
    6.1572  -11.4277   27.0301 C   0  0  0  0  0  0  0  0  0  0  0  0
    5.7946  -12.6729   27.5116 C   0  0  0  0  0  0  0  0  0  0  0  0
    6.3828  -13.7970   26.9856 C   0  0  0  0  0  0  0  0  0  0  0  0
    7.3269  -13.7588   25.9921 C   0  0  0  0  0  0  0  0  0  0  0  0
    7.9759  -14.9392   25.4029 C   0  0  0  0  0  0  0  0  0  0  0  0
    7.2748  -15.3351   24.1544 C   0  0  2  0  0  0  0  0  0  0  0  0
    6.1777  -16.2175   24.4720 N   0  0  0  0  0  0  0  0  0  0  0  0
    8.1352  -15.9316   23.1329 C   0  0  0  0  0  0  0  0  0  0  0  0
    8.1279  -17.2092   23.0556 O   0  0  0  0  0  0  0  0  0  0  0  0
    7.6800  -12.4966   25.5194 C   0  0  0  0  0  0  0  0  0  0  0  0
    7.0910  -11.3550   26.0444 C   0  0  0  0  0  0  0  0  0  0  0  0
    8.9777  -15.2786   22.2175 N   0  0  0  0  0  0  0  0  0  0  0  0
    9.8007  -15.9241   21.2489 C   0  0  1  0  0  0  0  0  0  0  0  0
   10.1238  -15.1947   20.0149 C   0  0  0  0  0  0  0  0  0  0  0  0
    8.9566  -14.6983   19.2555 C   0  0  0  0  0  0  0  0  0  0  0  0
    8.7002  -13.3366   19.1117 C   0  0  0  0  0  0  0  0  0  0  0  0
    7.5917  -13.1927   18.3894 N   0  0  0  0  0  0  0  0  0  0  0  0
    7.1536  -14.4100   18.0821 C   0  0  0  0  0  0  0  0  0  0  0  0
    7.9929  -15.3474   18.6143 N   0  0  0  0  0  0  0  0  0  0  0  0
   11.0054  -16.4753   21.9287 C   0  0  0  0  0  0  0  0  0  0  0  0
   11.6633  -15.7132   22.6729 O   0  0  0  0  0  0  0  0  0  0  0  0
   11.4640  -20.1981   23.3807 O   0  0  0  0  0  0  0  0  0  0  0  0
   12.5344  -19.8408   22.6020 C   0  0  0  0  0  0  0  0  0  0  0  0
   12.6492  -18.3493   22.3746 C   0  0  2  0  0  0  0  0  0  0  0  0
   11.4471  -17.8004   21.7856 N   0  0  0  0  0  0  0  0  0  0  0  0
   13.8701  -17.9925   21.6274 C   0  0  0  0  0  0  0  0  0  0  0  0
   13.8573  -17.3515   20.5610 O   0  0  0  0  0  0  0  0  0  0  0  0
   15.1218  -18.3923   22.1380 O   0  0  0  0  0  0  0  0  0  0  0  0
  2  1  1  0
  3  2  2  0
  4  3  1  0
  5 11  1  0
  5  4  2  0
  6  7  1  0
  6  5  1  0
  7  9  1  0
  7  8  1  1
  9 10  2  0
 11 12  2  0
 12  2  1  0
 13 14  1  0
 13  9  1  0
 14 21  1  0
 15 16  1  0
 14 15  1  6
 16 17  2  0
 17 18  1  0
 19 18  1  0
 20 16  1  0
 20 19  2  0
 21 26  1  0
 22 21  2  0
 24 23  1  0
 25 24  1  6
 26 25  1  0
 27 29  1  0
 27 25  1  0
 28 27  2  0
M  END
$$$$
