YHS.pdb
     RDKit          3D

 29 30  0  0  1  0  0  0  0  0999 V2000
    8.6373  -12.9780   28.3709 O   0  0  0  0  0  0  0  0  0  0  0  0
    7.9399  -13.4712   27.2818 C   0  0  0  0  0  0  0  0  0  0  0  0
    7.1375  -14.5877   27.4350 C   0  0  0  0  0  0  0  0  0  0  0  0
    6.4468  -15.0757   26.3529 C   0  0  0  0  0  0  0  0  0  0  0  0
    6.5058  -14.5119   25.1046 C   0  0  0  0  0  0  0  0  0  0  0  0
    5.7797  -15.0036   23.9245 C   0  0  0  0  0  0  0  0  0  0  0  0
    6.2978  -16.3383   23.5279 C   0  0  2  0  0  0  0  0  0  0  0  0
    6.7916  -17.0336   24.6923 N   0  0  0  0  0  0  0  0  0  0  0  0
    7.3134  -16.3119   22.4756 C   0  0  0  0  0  0  0  0  0  0  0  0
    6.9894  -16.8418   21.3564 O   0  0  0  0  0  0  0  0  0  0  0  0
    7.3187  -13.3886   24.9685 C   0  0  0  0  0  0  0  0  0  0  0  0
    8.0203  -12.8879   26.0562 C   0  0  0  0  0  0  0  0  0  0  0  0
    8.6112  -15.7768   22.5343 N   0  0  0  0  0  0  0  0  0  0  0  0
    9.5547  -15.7829   21.4656 C   0  0  1  0  0  0  0  0  0  0  0  0
    9.7771  -14.5315   20.7282 C   0  0  0  0  0  0  0  0  0  0  0  0
    8.8601  -14.3013   19.5917 C   0  0  0  0  0  0  0  0  0  0  0  0
    8.0784  -13.1519   19.5012 C   0  0  0  0  0  0  0  0  0  0  0  0
    7.3575  -13.2220   18.3847 N   0  0  0  0  0  0  0  0  0  0  0  0
    7.6623  -14.3680   17.7830 C   0  0  0  0  0  0  0  0  0  0  0  0
    8.5918  -15.0418   18.5237 N   0  0  0  0  0  0  0  0  0  0  0  0
   10.8197  -16.4079   21.9414 C   0  0  0  0  0  0  0  0  0  0  0  0
   11.3007  -16.0130   23.0278 O   0  0  0  0  0  0  0  0  0  0  0  0
   12.2233  -20.0242   20.3706 O   0  0  0  0  0  0  0  0  0  0  0  0
   12.6205  -19.5699   21.6017 C   0  0  0  0  0  0  0  0  0  0  0  0
   12.7201  -18.0626   21.6898 C   0  0  2  0  0  0  0  0  0  0  0  0
   11.5050  -17.4159   21.2443 N   0  0  0  0  0  0  0  0  0  0  0  0
   13.9268  -17.5442   21.0179 C   0  0  0  0  0  0  0  0  0  0  0  0
   13.8958  -16.6673   20.1357 O   0  0  0  0  0  0  0  0  0  0  0  0
   15.1857  -18.0608   21.3860 O   0  0  0  0  0  0  0  0  0  0  0  0
  2  1  1  0
  3  2  2  0
  4  3  1  0
  5 11  1  0
  5  4  2  0
  6  7  1  0
  6  5  1  0
  7  9  1  0
  7  8  1  1
  9 10  2  0
 11 12  2  0
 12  2  1  0
 13 14  1  0
 13  9  1  0
 14 21  1  0
 15 16  1  0
 14 15  1  1
 16 17  2  0
 17 18  1  0
 19 18  1  0
 20 16  1  0
 20 19  2  0
 21 26  1  0
 22 21  2  0
 24 23  1  0
 25 24  1  6
 26 25  1  0
 27 29  1  0
 27 25  1  0
 28 27  2  0
M  END
$$$$
