YHS.pdb
     RDKit          3D

 29 30  0  0  1  0  0  0  0  0999 V2000
   22.8862  -14.3969   26.4132 O   0  0  0  0  0  0  0  0  0  0  0  0
   21.5340  -14.5596   26.1662 C   0  0  0  0  0  0  0  0  0  0  0  0
   20.9696  -15.8186   26.2667 C   0  0  0  0  0  0  0  0  0  0  0  0
   19.6278  -15.9780   26.0207 C   0  0  0  0  0  0  0  0  0  0  0  0
   18.7971  -14.9436   25.6743 C   0  0  0  0  0  0  0  0  0  0  0  0
   17.3575  -15.0747   25.4065 C   0  0  0  0  0  0  0  0  0  0  0  0
   17.1402  -15.8698   24.1705 C   0  0  2  0  0  0  0  0  0  0  0  0
   17.1800  -14.9997   23.0197 N   0  0  0  0  0  0  0  0  0  0  0  0
   15.9171  -16.6719   24.1666 C   0  0  0  0  0  0  0  0  0  0  0  0
   14.8743  -16.1202   23.6702 O   0  0  0  0  0  0  0  0  0  0  0  0
   19.3825  -13.6830   25.5777 C   0  0  0  0  0  0  0  0  0  0  0  0
   20.7374  -13.5120   25.8247 C   0  0  0  0  0  0  0  0  0  0  0  0
   15.7357  -17.9815   24.6425 N   0  0  0  0  0  0  0  0  0  0  0  0
   14.5189  -18.7214   24.5772 C   0  0  1  0  0  0  0  0  0  0  0  0
   14.4465  -19.8587   23.6496 C   0  0  0  0  0  0  0  0  0  0  0  0
   14.3032  -19.4971   22.2233 C   0  0  0  0  0  0  0  0  0  0  0  0
   14.1743  -18.1725   21.8118 C   0  0  0  0  0  0  0  0  0  0  0  0
   14.0597  -18.1546   20.4861 N   0  0  0  0  0  0  0  0  0  0  0  0
   14.1123  -19.4141   20.0629 C   0  0  0  0  0  0  0  0  0  0  0  0
   14.2630  -20.2511   21.1321 N   0  0  0  0  0  0  0  0  0  0  0  0
   14.0925  -19.0730   25.9598 C   0  0  0  0  0  0  0  0  0  0  0  0
   14.9652  -19.4763   26.7619 O   0  0  0  0  0  0  0  0  0  0  0  0
    9.9745  -18.9284   27.3247 O   0  0  0  0  0  0  0  0  0  0  0  0
   11.0414  -18.5822   28.1130 C   0  0  0  0  0  0  0  0  0  0  0  0
   12.3213  -19.3055   27.7547 C   0  0  2  0  0  0  0  0  0  0  0  0
   12.7688  -18.9777   26.4185 N   0  0  0  0  0  0  0  0  0  0  0  0
   12.2235  -20.7588   27.9880 C   0  0  0  0  0  0  0  0  0  0  0  0
   12.2216  -21.6006   27.0717 O   0  0  0  0  0  0  0  0  0  0  0  0
   12.1271  -21.2305   29.3129 O   0  0  0  0  0  0  0  0  0  0  0  0
  2  1  1  0
  3  2  2  0
  4  3  1  0
  5 11  1  0
  5  4  2  0
  6  7  1  0
  6  5  1  0
  7  9  1  0
  7  8  1  6
  9 10  2  0
 11 12  2  0
 12  2  1  0
 13 14  1  0
 13  9  1  0
 14 21  1  0
 15 16  1  0
 14 15  1  6
 16 17  2  0
 17 18  1  0
 19 18  1  0
 20 16  1  0
 20 19  2  0
 21 26  1  0
 22 21  2  0
 24 23  1  0
 25 24  1  6
 26 25  1  0
 27 29  1  0
 27 25  1  0
 28 27  2  0
M  END
$$$$
