YHS.pdb
     RDKit          3D

 29 30  0  0  1  0  0  0  0  0999 V2000
   -1.6112  -19.7983   21.2492 O   0  0  0  0  0  0  0  0  0  0  0  0
   -0.2573  -19.7634   21.5344 C   0  0  0  0  0  0  0  0  0  0  0  0
    0.6347  -19.3575   20.5578 C   0  0  0  0  0  0  0  0  0  0  0  0
    1.9778  -19.3240   20.8428 C   0  0  0  0  0  0  0  0  0  0  0  0
    2.4986  -19.6760   22.0612 C   0  0  0  0  0  0  0  0  0  0  0  0
    3.9281  -19.6504   22.4038 C   0  0  0  0  0  0  0  0  0  0  0  0
    4.6908  -20.5183   21.4700 C   0  0  2  0  0  0  0  0  0  0  0  0
    4.2487  -21.8854   21.6064 N   0  0  0  0  0  0  0  0  0  0  0  0
    6.1447  -20.4323   21.6048 C   0  0  0  0  0  0  0  0  0  0  0  0
    6.7096  -21.3518   22.2930 O   0  0  0  0  0  0  0  0  0  0  0  0
    1.5860  -20.0824   23.0325 C   0  0  0  0  0  0  0  0  0  0  0  0
    0.2270  -20.1191   22.7541 C   0  0  0  0  0  0  0  0  0  0  0  0
    7.0103  -19.4615   21.0731 N   0  0  0  0  0  0  0  0  0  0  0  0
    8.4318  -19.4770   21.1800 C   0  0  1  0  0  0  0  0  0  0  0  0
    9.2108  -18.7133   20.1956 C   0  0  0  0  0  0  0  0  0  0  0  0
   10.6776  -18.7801   20.3677 C   0  0  0  0  0  0  0  0  0  0  0  0
   11.2995  -18.3466   21.5364 C   0  0  0  0  0  0  0  0  0  0  0  0
   12.6118  -18.5230   21.4032 N   0  0  0  0  0  0  0  0  0  0  0  0
   12.8249  -19.0472   20.1999 C   0  0  0  0  0  0  0  0  0  0  0  0
   11.6328  -19.2096   19.5527 N   0  0  0  0  0  0  0  0  0  0  0  0
    8.8139  -19.1698   22.5860 C   0  0  0  0  0  0  0  0  0  0  0  0
    8.5488  -18.0312   23.0341 O   0  0  0  0  0  0  0  0  0  0  0  0
    8.1441  -21.3493   25.3170 O   0  0  0  0  0  0  0  0  0  0  0  0
    9.2172  -20.6548   25.8128 C   0  0  0  0  0  0  0  0  0  0  0  0
    9.9114  -19.7921   24.7817 C   0  0  2  0  0  0  0  0  0  0  0  0
    9.4532  -20.0824   23.4404 N   0  0  0  0  0  0  0  0  0  0  0  0
   11.3801  -19.8431   24.9111 C   0  0  0  0  0  0  0  0  0  0  0  0
   11.9766  -19.7153   25.9956 O   0  0  0  0  0  0  0  0  0  0  0  0
   12.1586  -20.0470   23.7537 O   0  0  0  0  0  0  0  0  0  0  0  0
  2  1  1  0
  3  2  2  0
  4  3  1  0
  5 11  1  0
  5  4  2  0
  6  7  1  0
  6  5  1  0
  7  9  1  0
  7  8  1  1
  9 10  2  0
 11 12  2  0
 12  2  1  0
 13 14  1  0
 13  9  1  0
 14 21  1  0
 15 16  1  0
 14 15  1  6
 16 17  2  0
 17 18  1  0
 19 18  1  0
 20 16  1  0
 20 19  2  0
 21 26  1  0
 22 21  2  0
 24 23  1  0
 25 24  1  1
 26 25  1  0
 27 29  1  0
 27 25  1  0
 28 27  2  0
M  END
$$$$
