YHS.pdb
     RDKit          3D

 29 30  0  0  1  0  0  0  0  0999 V2000
    5.8543  -10.3063   27.8190 O   0  0  0  0  0  0  0  0  0  0  0  0
    6.3507  -11.5264   27.3940 C   0  0  0  0  0  0  0  0  0  0  0  0
    5.8232  -12.6951   27.9135 C   0  0  0  0  0  0  0  0  0  0  0  0
    6.3175  -13.9047   27.4907 C   0  0  0  0  0  0  0  0  0  0  0  0
    7.3228  -14.0264   26.5664 C   0  0  0  0  0  0  0  0  0  0  0  0
    7.8753  -15.3021   26.0879 C   0  0  0  0  0  0  0  0  0  0  0  0
    7.2517  -15.6724   24.7914 C   0  0  2  0  0  0  0  0  0  0  0  0
    6.1449  -16.5693   25.0231 N   0  0  0  0  0  0  0  0  0  0  0  0
    8.1750  -16.2384   23.8083 C   0  0  0  0  0  0  0  0  0  0  0  0
    8.2028  -17.5151   23.7203 O   0  0  0  0  0  0  0  0  0  0  0  0
    7.8422  -12.8394   26.0542 C   0  0  0  0  0  0  0  0  0  0  0  0
    7.3490  -11.6124   26.4749 C   0  0  0  0  0  0  0  0  0  0  0  0
    9.0449  -15.5568   22.9406 N   0  0  0  0  0  0  0  0  0  0  0  0
    9.9903  -16.1728   22.0694 C   0  0  1  0  0  0  0  0  0  0  0  0
   10.4322  -15.4254   20.8839 C   0  0  0  0  0  0  0  0  0  0  0  0
    9.3477  -14.8097   20.0900 C   0  0  0  0  0  0  0  0  0  0  0  0
    8.1078  -15.4266   19.9393 C   0  0  0  0  0  0  0  0  0  0  0  0
    7.3425  -14.6489   19.1774 N   0  0  0  0  0  0  0  0  0  0  0  0
    8.0597  -13.5777   18.8515 C   0  0  0  0  0  0  0  0  0  0  0  0
    9.3019  -13.6694   19.4126 N   0  0  0  0  0  0  0  0  0  0  0  0
   11.1241  -16.6971   22.8799 C   0  0  0  0  0  0  0  0  0  0  0  0
   11.9632  -15.8785   23.3195 O   0  0  0  0  0  0  0  0  0  0  0  0
   10.8903  -20.0127   25.2764 O   0  0  0  0  0  0  0  0  0  0  0  0
   11.8665  -19.0530   25.3510 C   0  0  0  0  0  0  0  0  0  0  0  0
   12.3720  -18.5943   24.0005 C   0  0  2  0  0  0  0  0  0  0  0  0
   11.3075  -18.0560   23.1818 N   0  0  0  0  0  0  0  0  0  0  0  0
   13.1525  -19.6408   23.3136 C   0  0  0  0  0  0  0  0  0  0  0  0
   12.8391  -20.1123   22.2055 O   0  0  0  0  0  0  0  0  0  0  0  0
   14.3156  -20.1401   23.9341 O   0  0  0  0  0  0  0  0  0  0  0  0
  2  1  1  0
  3  2  2  0
  4  3  1  0
  5 11  1  0
  5  4  2  0
  6  7  1  0
  6  5  1  0
  7  9  1  0
  7  8  1  1
  9 10  2  0
 11 12  2  0
 12  2  1  0
 13 14  1  0
 13  9  1  0
 14 21  1  0
 15 16  1  0
 14 15  1  6
 16 17  2  0
 17 18  1  0
 19 18  1  0
 20 16  1  0
 20 19  2  0
 21 26  1  0
 22 21  2  0
 24 23  1  0
 25 24  1  1
 26 25  1  0
 27 29  1  0
 27 25  1  0
 28 27  2  0
M  END
$$$$
