YHS.pdb
     RDKit          3D

 29 30  0  0  1  0  0  0  0  0999 V2000
    6.3275  -10.7705   26.8154 O   0  0  0  0  0  0  0  0  0  0  0  0
    6.4915  -12.1448   26.8057 C   0  0  0  0  0  0  0  0  0  0  0  0
    5.3782  -12.9643   26.8589 C   0  0  0  0  0  0  0  0  0  0  0  0
    5.5431  -14.3278   26.8496 C   0  0  0  0  0  0  0  0  0  0  0  0
    6.7693  -14.9381   26.7899 C   0  0  0  0  0  0  0  0  0  0  0  0
    6.9851  -16.3923   26.7753 C   0  0  0  0  0  0  0  0  0  0  0  0
    6.4829  -16.9685   25.5014 C   0  0  2  0  0  0  0  0  0  0  0  0
    6.4693  -18.4089   25.5916 N   0  0  0  0  0  0  0  0  0  0  0  0
    7.2070  -16.5350   24.3068 C   0  0  0  0  0  0  0  0  0  0  0  0
    8.1594  -17.2926   23.9103 O   0  0  0  0  0  0  0  0  0  0  0  0
    7.8792  -14.0975   26.7371 C   0  0  0  0  0  0  0  0  0  0  0  0
    7.7227  -12.7187   26.7456 C   0  0  0  0  0  0  0  0  0  0  0  0
    6.9919  -15.3834   23.5310 N   0  0  0  0  0  0  0  0  0  0  0  0
    7.6203  -15.1008   22.2829 C   0  0  1  0  0  0  0  0  0  0  0  0
    7.2069  -13.8933   21.5547 C   0  0  0  0  0  0  0  0  0  0  0  0
    7.8754  -13.6861   20.2526 C   0  0  0  0  0  0  0  0  0  0  0  0
    7.3195  -14.1468   19.0612 C   0  0  0  0  0  0  0  0  0  0  0  0
    8.1382  -13.8220   18.0635 N   0  0  0  0  0  0  0  0  0  0  0  0
    9.1766  -13.1802   18.5907 C   0  0  0  0  0  0  0  0  0  0  0  0
    9.0214  -13.0918   19.9452 N   0  0  0  0  0  0  0  0  0  0  0  0
    9.0965  -15.1988   22.4520 C   0  0  0  0  0  0  0  0  0  0  0  0
    9.6054  -14.7113   23.4868 O   0  0  0  0  0  0  0  0  0  0  0  0
   13.0836  -17.2930   22.7424 O   0  0  0  0  0  0  0  0  0  0  0  0
   11.7382  -17.0429   22.6580 C   0  0  0  0  0  0  0  0  0  0  0  0
   11.3838  -15.9532   21.6698 C   0  0  2  0  0  0  0  0  0  0  0  0
    9.9522  -15.8074   21.5198 N   0  0  0  0  0  0  0  0  0  0  0  0
   12.0827  -16.1211   20.3816 C   0  0  0  0  0  0  0  0  0  0  0  0
   11.4920  -16.2541   19.2945 O   0  0  0  0  0  0  0  0  0  0  0  0
   13.4923  -16.1327   20.3684 O   0  0  0  0  0  0  0  0  0  0  0  0
  2  1  1  0
  3  2  2  0
  4  3  1  0
  5 11  1  0
  5  4  2  0
  6  7  1  0
  6  5  1  0
  7  9  1  0
  7  8  1  1
  9 10  2  0
 11 12  2  0
 12  2  1  0
 13 14  1  0
 13  9  1  0
 14 21  1  0
 15 16  1  0
 14 15  1  1
 16 17  2  0
 17 18  1  0
 19 18  1  0
 20 16  1  0
 20 19  2  0
 21 26  1  0
 22 21  2  0
 24 23  1  0
 25 24  1  1
 26 25  1  0
 27 29  1  0
 27 25  1  0
 28 27  2  0
M  END
$$$$
