YHS.pdb
     RDKit          3D

 29 30  0  0  1  0  0  0  0  0999 V2000
    7.6668  -11.7418   18.2311 O   0  0  0  0  0  0  0  0  0  0  0  0
    8.0812  -12.6336   19.2052 C   0  0  0  0  0  0  0  0  0  0  0  0
    9.4251  -12.9409   19.3206 C   0  0  0  0  0  0  0  0  0  0  0  0
    9.8340  -13.8264   20.2875 C   0  0  0  0  0  0  0  0  0  0  0  0
    8.9733  -14.4366   21.1630 C   0  0  0  0  0  0  0  0  0  0  0  0
    9.3735  -15.3863   22.2115 C   0  0  0  0  0  0  0  0  0  0  0  0
   10.1120  -16.5266   21.6103 C   0  0  2  0  0  0  0  0  0  0  0  0
    9.2724  -17.1944   20.6447 N   0  0  0  0  0  0  0  0  0  0  0  0
   10.6478  -17.4855   22.5761 C   0  0  0  0  0  0  0  0  0  0  0  0
    9.8163  -18.3248   23.0685 O   0  0  0  0  0  0  0  0  0  0  0  0
    7.6238  -14.1156   21.0322 C   0  0  0  0  0  0  0  0  0  0  0  0
    7.2010  -13.2218   20.0585 C   0  0  0  0  0  0  0  0  0  0  0  0
   11.9689  -17.6056   23.0393 N   0  0  0  0  0  0  0  0  0  0  0  0
   12.4450  -18.6211   23.9193 C   0  0  1  0  0  0  0  0  0  0  0  0
   13.7961  -19.1546   23.6980 C   0  0  0  0  0  0  0  0  0  0  0  0
   14.0127  -19.7876   22.3797 C   0  0  0  0  0  0  0  0  0  0  0  0
   12.9951  -20.4713   21.7182 C   0  0  0  0  0  0  0  0  0  0  0  0
   13.4791  -20.9327   20.5676 N   0  0  0  0  0  0  0  0  0  0  0  0
   14.7539  -20.5620   20.4925 C   0  0  0  0  0  0  0  0  0  0  0  0
   15.0919  -19.8527   21.6101 N   0  0  0  0  0  0  0  0  0  0  0  0
   12.2159  -18.1882   25.3255 C   0  0  0  0  0  0  0  0  0  0  0  0
   12.4557  -16.9958   25.6222 O   0  0  0  0  0  0  0  0  0  0  0  0
    9.3507  -19.4969   27.9325 O   0  0  0  0  0  0  0  0  0  0  0  0
   10.1768  -18.4187   28.1190 C   0  0  0  0  0  0  0  0  0  0  0  0
   11.6165  -18.6829   27.7356 C   0  0  2  0  0  0  0  0  0  0  0  0
   11.7450  -19.0383   26.3390 N   0  0  0  0  0  0  0  0  0  0  0  0
   12.2635  -19.6543   28.6379 C   0  0  0  0  0  0  0  0  0  0  0  0
   12.7543  -20.7292   28.2481 O   0  0  0  0  0  0  0  0  0  0  0  0
   12.3363  -19.3605   30.0147 O   0  0  0  0  0  0  0  0  0  0  0  0
  2  1  1  0
  3  2  2  0
  4  3  1  0
  5 11  1  0
  5  4  2  0
  6  7  1  0
  6  5  1  0
  7  9  1  0
  7  8  1  6
  9 10  2  0
 11 12  2  0
 12  2  1  0
 13 14  1  0
 13  9  1  0
 14 21  1  0
 15 16  1  0
 14 15  1  1
 16 17  2  0
 17 18  1  0
 19 18  1  0
 20 16  1  0
 20 19  2  0
 21 26  1  0
 22 21  2  0
 24 23  1  0
 25 24  1  1
 26 25  1  0
 27 29  1  0
 27 25  1  0
 28 27  2  0
M  END
$$$$
