YHS.pdb
     RDKit          3D

 29 30  0  0  1  0  0  0  0  0999 V2000
    5.6944  -10.5555   28.4926 O   0  0  0  0  0  0  0  0  0  0  0  0
    6.3186  -11.4692   27.6612 C   0  0  0  0  0  0  0  0  0  0  0  0
    7.2056  -12.3847   28.1987 C   0  0  0  0  0  0  0  0  0  0  0  0
    7.8242  -13.2902   27.3718 C   0  0  0  0  0  0  0  0  0  0  0  0
    7.6116  -13.3425   26.0184 C   0  0  0  0  0  0  0  0  0  0  0  0
    8.2523  -14.2978   25.1027 C   0  0  0  0  0  0  0  0  0  0  0  0
    7.2194  -15.0191   24.3154 C   0  0  2  0  0  0  0  0  0  0  0  0
    6.8769  -16.2541   24.9792 N   0  0  0  0  0  0  0  0  0  0  0  0
    7.5778  -15.2680   22.9194 C   0  0  0  0  0  0  0  0  0  0  0  0
    7.5829  -16.4906   22.5407 O   0  0  0  0  0  0  0  0  0  0  0  0
    6.7155  -12.4132   25.4944 C   0  0  0  0  0  0  0  0  0  0  0  0
    6.0853  -11.4946   26.3219 C   0  0  0  0  0  0  0  0  0  0  0  0
    7.9218  -14.3308   21.9306 N   0  0  0  0  0  0  0  0  0  0  0  0
    8.1393  -14.6275   20.5533 C   0  0  1  0  0  0  0  0  0  0  0  0
    8.1893  -13.5093   19.6013 C   0  0  0  0  0  0  0  0  0  0  0  0
    8.3728  -13.8972   18.1867 C   0  0  0  0  0  0  0  0  0  0  0  0
    7.4583  -13.5318   17.2014 C   0  0  0  0  0  0  0  0  0  0  0  0
    7.8789  -14.0203   16.0371 N   0  0  0  0  0  0  0  0  0  0  0  0
    9.0151  -14.6726   16.2640 C   0  0  0  0  0  0  0  0  0  0  0  0
    9.3278  -14.6010   17.5920 N   0  0  0  0  0  0  0  0  0  0  0  0
    9.3083  -15.5423   20.4349 C   0  0  0  0  0  0  0  0  0  0  0  0
   10.3661  -15.2274   21.0260 O   0  0  0  0  0  0  0  0  0  0  0  0
    8.9314  -19.5064   19.1723 O   0  0  0  0  0  0  0  0  0  0  0  0
   10.0370  -19.0703   19.8558 C   0  0  0  0  0  0  0  0  0  0  0  0
   10.4168  -17.6386   19.5466 C   0  0  2  0  0  0  0  0  0  0  0  0
    9.2943  -16.7388   19.7003 N   0  0  0  0  0  0  0  0  0  0  0  0
   11.0816  -17.5098   18.2360 C   0  0  0  0  0  0  0  0  0  0  0  0
   12.1237  -18.1191   17.9341 O   0  0  0  0  0  0  0  0  0  0  0  0
   10.5165  -16.6558   17.2672 O   0  0  0  0  0  0  0  0  0  0  0  0
  2  1  1  0
  3  2  2  0
  4  3  1  0
  5 11  1  0
  5  4  2  0
  6  7  1  0
  6  5  1  0
  7  9  1  0
  7  8  1  1
  9 10  2  0
 11 12  2  0
 12  2  1  0
 13 14  1  0
 13  9  1  0
 14 21  1  0
 15 16  1  0
 14 15  1  6
 16 17  2  0
 17 18  1  0
 19 18  1  0
 20 16  1  0
 20 19  2  0
 21 26  1  0
 22 21  2  0
 24 23  1  0
 25 24  1  6
 26 25  1  0
 27 29  1  0
 27 25  1  0
 28 27  2  0
M  END
$$$$
