YHS.pdb
     RDKit          3D

 29 30  0  0  1  0  0  0  0  0999 V2000
    7.8466  -11.7004   17.6894 O   0  0  0  0  0  0  0  0  0  0  0  0
    7.7891  -12.7472   18.5931 C   0  0  0  0  0  0  0  0  0  0  0  0
    8.9053  -13.5408   18.7887 C   0  0  0  0  0  0  0  0  0  0  0  0
    8.8458  -14.5793   19.6856 C   0  0  0  0  0  0  0  0  0  0  0  0
    7.7243  -14.8832   20.4134 C   0  0  0  0  0  0  0  0  0  0  0  0
    7.6239  -15.9835   21.3833 C   0  0  0  0  0  0  0  0  0  0  0  0
    7.4237  -17.2722   20.6719 C   0  0  2  0  0  0  0  0  0  0  0  0
    6.1190  -17.2892   20.0549 N   0  0  0  0  0  0  0  0  0  0  0  0
    7.6171  -18.4634   21.4985 C   0  0  0  0  0  0  0  0  0  0  0  0
    6.8050  -18.6180   22.4757 O   0  0  0  0  0  0  0  0  0  0  0  0
    6.6099  -14.0738   20.2035 C   0  0  0  0  0  0  0  0  0  0  0  0
    6.6604  -13.0219   19.2997 C   0  0  0  0  0  0  0  0  0  0  0  0
    8.5884  -19.4690   21.3589 N   0  0  0  0  0  0  0  0  0  0  0  0
    8.7649  -20.5732   22.2431 C   0  0  1  0  0  0  0  0  0  0  0  0
    8.2312  -21.8807   21.8369 C   0  0  0  0  0  0  0  0  0  0  0  0
    8.5194  -22.9927   22.7673 C   0  0  0  0  0  0  0  0  0  0  0  0
    9.2292  -22.7948   23.9495 C   0  0  0  0  0  0  0  0  0  0  0  0
    9.3374  -23.9647   24.5744 N   0  0  0  0  0  0  0  0  0  0  0  0
    8.7238  -24.8765   23.8258 C   0  0  0  0  0  0  0  0  0  0  0  0
    8.2147  -24.2828   22.7056 N   0  0  0  0  0  0  0  0  0  0  0  0
   10.1929  -20.6345   22.6607 C   0  0  0  0  0  0  0  0  0  0  0  0
   11.0424  -20.0584   21.9438 O   0  0  0  0  0  0  0  0  0  0  0  0
   14.1626  -20.2496   24.0041 O   0  0  0  0  0  0  0  0  0  0  0  0
   12.8606  -20.2791   23.5758 C   0  0  0  0  0  0  0  0  0  0  0  0
   12.0051  -21.2944   24.3017 C   0  0  2  0  0  0  0  0  0  0  0  0
   10.6436  -21.2992   23.8124 N   0  0  0  0  0  0  0  0  0  0  0  0
   12.0889  -21.1468   25.7671 C   0  0  0  0  0  0  0  0  0  0  0  0
   13.1564  -21.2180   26.4024 O   0  0  0  0  0  0  0  0  0  0  0  0
   10.9055  -20.9122   26.4963 O   0  0  0  0  0  0  0  0  0  0  0  0
  2  1  1  0
  3  2  2  0
  4  3  1  0
  5 11  1  0
  5  4  2  0
  6  7  1  0
  6  5  1  0
  7  9  1  0
  7  8  1  1
  9 10  2  0
 11 12  2  0
 12  2  1  0
 13 14  1  0
 13  9  1  0
 14 21  1  0
 15 16  1  0
 14 15  1  6
 16 17  2  0
 17 18  1  0
 19 18  1  0
 20 16  1  0
 20 19  2  0
 21 26  1  0
 22 21  2  0
 24 23  1  0
 25 24  1  6
 26 25  1  0
 27 29  1  0
 27 25  1  0
 28 27  2  0
M  END
$$$$
