YHS.pdb
     RDKit          3D

 29 30  0  0  1  0  0  0  0  0999 V2000
    7.5082  -11.6410   17.9821 O   0  0  0  0  0  0  0  0  0  0  0  0
    7.7949  -12.5550   18.9811 C   0  0  0  0  0  0  0  0  0  0  0  0
    9.0756  -12.6175   19.5006 C   0  0  0  0  0  0  0  0  0  0  0  0
    9.3581  -13.5256   20.4915 C   0  0  0  0  0  0  0  0  0  0  0  0
    8.4287  -14.3917   21.0072 C   0  0  0  0  0  0  0  0  0  0  0  0
    8.6927  -15.3742   22.0685 C   0  0  0  0  0  0  0  0  0  0  0  0
    9.5495  -16.4697   21.5461 C   0  0  2  0  0  0  0  0  0  0  0  0
    8.8725  -17.1418   20.4630 N   0  0  0  0  0  0  0  0  0  0  0  0
    9.9911  -17.4339   22.5535 C   0  0  0  0  0  0  0  0  0  0  0  0
    9.2999  -18.5060   22.6591 O   0  0  0  0  0  0  0  0  0  0  0  0
    7.1446  -14.3149   20.4722 C   0  0  0  0  0  0  0  0  0  0  0  0
    6.8494  -13.4004   19.4711 C   0  0  0  0  0  0  0  0  0  0  0  0
   11.0851  -17.3350   23.4296 N   0  0  0  0  0  0  0  0  0  0  0  0
   11.4989  -18.3429   24.3490 C   0  0  1  0  0  0  0  0  0  0  0  0
   12.9052  -18.7683   24.3267 C   0  0  0  0  0  0  0  0  0  0  0  0
   13.3707  -19.3298   23.0409 C   0  0  0  0  0  0  0  0  0  0  0  0
   12.6477  -20.3093   22.3636 C   0  0  0  0  0  0  0  0  0  0  0  0
   13.3060  -20.6213   21.2499 N   0  0  0  0  0  0  0  0  0  0  0  0
   14.4057  -19.8747   21.2126 C   0  0  0  0  0  0  0  0  0  0  0  0
   14.4530  -19.0725   22.3174 N   0  0  0  0  0  0  0  0  0  0  0  0
   11.0256  -17.9769   25.7125 C   0  0  0  0  0  0  0  0  0  0  0  0
   11.3328  -16.8489   26.1607 O   0  0  0  0  0  0  0  0  0  0  0  0
    7.5068  -18.7235   27.1037 O   0  0  0  0  0  0  0  0  0  0  0  0
    8.3909  -19.0229   28.1078 C   0  0  0  0  0  0  0  0  0  0  0  0
    9.7906  -18.5046   27.8594 C   0  0  2  0  0  0  0  0  0  0  0  0
   10.2532  -18.8217   26.5258 N   0  0  0  0  0  0  0  0  0  0  0  0
   10.7352  -18.9266   28.9110 C   0  0  0  0  0  0  0  0  0  0  0  0
   11.7954  -19.5340   28.6754 O   0  0  0  0  0  0  0  0  0  0  0  0
   10.4326  -18.6318   30.2559 O   0  0  0  0  0  0  0  0  0  0  0  0
  2  1  1  0
  3  2  2  0
  4  3  1  0
  5 11  1  0
  5  4  2  0
  6  7  1  0
  6  5  1  0
  7  9  1  0
  7  8  1  6
  9 10  2  0
 11 12  2  0
 12  2  1  0
 13 14  1  0
 13  9  1  0
 14 21  1  0
 15 16  1  0
 14 15  1  1
 16 17  2  0
 17 18  1  0
 19 18  1  0
 20 16  1  0
 20 19  2  0
 21 26  1  0
 22 21  2  0
 24 23  1  0
 25 24  1  1
 26 25  1  0
 27 29  1  0
 27 25  1  0
 28 27  2  0
M  END
$$$$
