RRQ.pdb
     RDKit          3D

 32 31  0  0  1  0  0  0  0  0999 V2000
    9.3220  -12.4745   20.5930 N   0  0  0  0  0  0  0  0  0  0  0  0
    8.0422  -12.0352   21.0116 C   0  0  0  0  0  0  0  0  0  0  0  0
    7.9112  -10.9225   21.6708 N   0  0  0  0  0  0  0  0  0  0  0  0
    6.8601  -12.7710   20.7389 N   0  0  0  0  0  0  0  0  0  0  0  0
    6.4998  -13.1607   19.3758 C   0  0  0  0  0  0  0  0  0  0  0  0
    6.3105  -14.6650   19.3960 C   0  0  0  0  0  0  0  0  0  0  0  0
    7.7105  -15.2661   19.2992 C   0  0  0  0  0  0  0  0  0  0  0  0
    7.6195  -16.7887   19.1902 C   0  0  2  0  0  0  0  0  0  0  0  0
    6.9528  -17.3279   20.3538 N   0  0  0  0  0  0  0  0  0  0  0  0
    9.0095  -17.3016   19.0873 C   0  0  0  0  0  0  0  0  0  0  0  0
    9.5855  -17.8506   20.0750 O   0  0  0  0  0  0  0  0  0  0  0  0
    6.9640  -10.6014   21.9492 N   0  0  0  0  0  0  0  0  0  0  0  0
   16.3226  -17.5080   14.5603 C   0  0  0  0  0  0  0  0  0  0  0  0
   15.3725  -18.4281   14.0326 N   0  0  0  0  0  0  0  0  0  0  0  0
   15.7783  -19.4873   13.4097 N   0  0  0  0  0  0  0  0  0  0  0  0
   13.9743  -18.2419   14.1566 C   0  0  0  0  0  0  0  0  0  0  0  0
   13.3927  -17.0662   14.7601 C   0  0  0  0  0  0  0  0  0  0  0  0
   13.1093  -17.2860   16.2289 C   0  0  0  0  0  0  0  0  0  0  0  0
   11.5889  -17.2031   16.3752 C   0  0  1  0  0  0  0  0  0  0  0  0
   11.1726  -17.2877   17.8159 N   0  0  0  0  0  0  0  0  0  0  0  0
    9.7278  -17.1850   17.8661 C   0  0  0  0  0  0  0  0  0  0  0  0
   11.8583  -16.3344   18.6866 O   0  0  0  0  0  0  0  0  0  0  0  0
   11.6963  -15.1078   18.5206 N   0  0  0  0  0  0  0  0  0  0  0  0
   15.1197  -20.1787   13.0072 C   0  0  0  0  0  0  0  0  0  0  0  0
   14.0428  -16.1211   24.7283 O   0  0  0  0  0  0  0  0  0  0  0  0
   12.8409  -16.6992   24.2910 C   0  0  0  0  0  0  0  0  0  0  0  0
   12.0593  -17.1670   25.1440 C   0  0  0  0  0  0  0  0  0  0  0  0
   12.5058  -16.7554   22.8533 C   0  0  2  0  0  0  0  0  0  0  0  0
   13.6684  -16.6172   21.9356 N   0  0  0  0  0  0  0  0  0  0  0  0
   13.4164  -15.9316   20.6372 C   0  0  0  0  0  0  0  0  0  0  0  0
   12.6964  -16.7952   19.7064 O   0  0  0  0  0  0  0  0  0  0  0  0
   14.6936  -15.5594   19.9945 O   0  0  0  0  0  0  0  0  0  0  0  0
  2  1  1  0
  2  3  2  0
  4  2  1  0
  4  5  1  0
  6  5  1  0
  7  6  1  0
  8  7  1  0
  8  9  1  1
  8 10  1  0
 10 11  2  0
 13 12  1  0
 14 13  2  0
 15 13  1  0
 16 17  1  0
 16 15  1  0
 17 18  1  0
 19 18  1  6
 19 21  1  0
 20 10  1  0
 20 19  1  0
 21 29  1  0
 22 21  2  0
 24 25  2  0
 24 23  1  0
 26 24  1  0
 27 26  1  0
 28 27  1  1
 28 30  1  0
 29 28  1  0
 30 31  1  0
 32 30  2  0
M  END
$$$$
