RRQ.pdb
     RDKit          3D

 32 31  0  0  1  0  0  0  0  0999 V2000
    7.8673  -12.1154   18.5756 N   0  0  0  0  0  0  0  0  0  0  0  0
    8.2906  -13.2697   17.8724 C   0  0  0  0  0  0  0  0  0  0  0  0
    7.9424  -13.4500   16.6330 N   0  0  0  0  0  0  0  0  0  0  0  0
    9.1006  -14.2691   18.4710 N   0  0  0  0  0  0  0  0  0  0  0  0
    8.5298  -15.5244   18.9591 C   0  0  0  0  0  0  0  0  0  0  0  0
    7.0313  -15.3093   19.0441 C   0  0  0  0  0  0  0  0  0  0  0  0
    6.5489  -16.1684   20.2103 C   0  0  0  0  0  0  0  0  0  0  0  0
    7.7457  -16.7837   20.9368 C   0  0  2  0  0  0  0  0  0  0  0  0
    7.9462  -18.1446   20.4931 N   0  0  0  0  0  0  0  0  0  0  0  0
    7.4442  -16.7361   22.3902 C   0  0  0  0  0  0  0  0  0  0  0  0
    7.1012  -15.6552   22.9582 O   0  0  0  0  0  0  0  0  0  0  0  0
    8.2559  -14.3040   16.1328 N   0  0  0  0  0  0  0  0  0  0  0  0
   10.3174  -19.7047   28.7525 C   0  0  0  0  0  0  0  0  0  0  0  0
    9.3918  -20.7268   29.1080 N   0  0  0  0  0  0  0  0  0  0  0  0
    9.6809  -21.5560   30.0585 N   0  0  0  0  0  0  0  0  0  0  0  0
    8.1420  -20.8876   28.4622 C   0  0  0  0  0  0  0  0  0  0  0  0
    7.9742  -20.7383   27.0359 C   0  0  0  0  0  0  0  0  0  0  0  0
    7.7016  -19.2988   26.6627 C   0  0  0  0  0  0  0  0  0  0  0  0
    7.6064  -19.2766   25.1362 C   0  0  1  0  0  0  0  0  0  0  0  0
    7.3915  -17.8818   24.6219 N   0  0  0  0  0  0  0  0  0  0  0  0
    7.5357  -17.9145   23.1800 C   0  0  0  0  0  0  0  0  0  0  0  0
    8.2300  -16.8761   25.2718 O   0  0  0  0  0  0  0  0  0  0  0  0
    9.4527  -16.8272   25.0247 N   0  0  0  0  0  0  0  0  0  0  0  0
    9.0375  -22.3164   30.3440 C   0  0  0  0  0  0  0  0  0  0  0  0
    5.5582  -10.9596   25.9890 O   0  0  0  0  0  0  0  0  0  0  0  0
    6.5135  -11.4126   26.9120 C   0  0  0  0  0  0  0  0  0  0  0  0
    6.4777  -10.9639   28.0759 C   0  0  0  0  0  0  0  0  0  0  0  0
    7.5410  -12.3981   26.5177 C   0  0  2  0  0  0  0  0  0  0  0  0
    7.3832  -13.7439   27.1316 N   0  0  0  0  0  0  0  0  0  0  0  0
    8.3494  -14.7924   26.6996 C   0  0  0  0  0  0  0  0  0  0  0  0
    7.6637  -15.9675   26.1710 O   0  0  0  0  0  0  0  0  0  0  0  0
    9.1706  -15.2392   27.8437 O   0  0  0  0  0  0  0  0  0  0  0  0
  2  1  1  0
  2  3  2  0
  4  2  1  0
  4  5  1  0
  6  5  1  0
  7  6  1  0
  8  7  1  0
  8  9  1  6
  8 10  1  0
 10 11  2  0
 13 12  1  0
 14 13  2  0
 15 13  1  0
 16 17  1  0
 16 15  1  0
 17 18  1  0
 19 18  1  6
 19 21  1  0
 20 10  1  0
 20 19  1  0
 21 29  1  0
 22 21  2  0
 24 25  2  0
 24 23  1  0
 26 24  1  0
 27 26  1  0
 28 27  1  1
 28 30  1  0
 29 28  1  0
 30 31  1  0
 32 30  2  0
M  END
$$$$
