RRQ.pdb
     RDKit          3D

 32 31  0  0  1  0  0  0  0  0999 V2000
    7.2697  -12.8408   13.5227 N   0  0  0  0  0  0  0  0  0  0  0  0
    8.1627  -13.2566   14.5405 C   0  0  0  0  0  0  0  0  0  0  0  0
    9.4348  -13.3653   14.2962 N   0  0  0  0  0  0  0  0  0  0  0  0
    7.7249  -13.5695   15.8534 N   0  0  0  0  0  0  0  0  0  0  0  0
    7.6290  -14.9534   16.3176 C   0  0  0  0  0  0  0  0  0  0  0  0
    9.0471  -15.4100   16.5998 C   0  0  0  0  0  0  0  0  0  0  0  0
    8.9352  -16.8529   17.0859 C   0  0  0  0  0  0  0  0  0  0  0  0
    8.7670  -17.7951   15.8932 C   0  0  2  0  0  0  0  0  0  0  0  0
    7.7112  -18.7454   16.1599 N   0  0  0  0  0  0  0  0  0  0  0  0
   10.0675  -18.4848   15.6965 C   0  0  0  0  0  0  0  0  0  0  0  0
   10.4618  -19.3898   16.4927 O   0  0  0  0  0  0  0  0  0  0  0  0
   10.0608  -13.7741   15.0164 N   0  0  0  0  0  0  0  0  0  0  0  0
   14.8808  -22.2564   13.5705 C   0  0  0  0  0  0  0  0  0  0  0  0
   15.5288  -21.7756   12.3972 N   0  0  0  0  0  0  0  0  0  0  0  0
   16.5805  -22.3810   11.9478 N   0  0  0  0  0  0  0  0  0  0  0  0
   15.0728  -20.6439   11.6787 C   0  0  0  0  0  0  0  0  0  0  0  0
   13.8767  -19.9194   12.0383 C   0  0  0  0  0  0  0  0  0  0  0  0
   14.1968  -18.7349   12.9217 C   0  0  0  0  0  0  0  0  0  0  0  0
   12.8534  -18.0711   13.2289 C   0  0  2  0  0  0  0  0  0  0  0  0
   12.2903  -18.5549   14.5346 N   0  0  0  0  0  0  0  0  0  0  0  0
   10.9034  -18.1390   14.5999 C   0  0  0  0  0  0  0  0  0  0  0  0
   13.0765  -18.1575   15.7012 O   0  0  0  0  0  0  0  0  0  0  0  0
   12.5388  -17.5191   16.6295 N   0  0  0  0  0  0  0  0  0  0  0  0
   17.0905  -22.0535   11.1073 C   0  0  0  0  0  0  0  0  0  0  0  0
   13.4699  -20.5255   20.3267 O   0  0  0  0  0  0  0  0  0  0  0  0
   14.7910  -20.0652   20.4389 C   0  0  0  0  0  0  0  0  0  0  0  0
   15.4498  -20.3843   21.4495 C   0  0  0  0  0  0  0  0  0  0  0  0
   15.3913  -19.2203   19.3861 C   0  0  2  0  0  0  0  0  0  0  0  0
   14.6220  -19.1675   18.1140 N   0  0  0  0  0  0  0  0  0  0  0  0
   15.2364  -18.4019   16.9934 C   0  0  0  0  0  0  0  0  0  0  0  0
   14.4319  -18.4918   15.7788 O   0  0  0  0  0  0  0  0  0  0  0  0
   16.5755  -18.9392   16.6754 O   0  0  0  0  0  0  0  0  0  0  0  0
  2  1  1  0
  2  3  2  0
  4  2  1  0
  4  5  1  0
  6  5  1  0
  7  6  1  0
  8  7  1  0
  8  9  1  1
  8 10  1  0
 10 11  2  0
 13 12  1  0
 14 13  2  0
 15 13  1  0
 16 17  1  0
 16 15  1  0
 17 18  1  0
 19 18  1  6
 19 21  1  0
 20 10  1  0
 20 19  1  0
 21 29  1  0
 22 21  2  0
 24 25  2  0
 24 23  1  0
 26 24  1  0
 27 26  1  0
 28 27  1  6
 28 30  1  0
 29 28  1  0
 30 31  1  0
 32 30  2  0
M  END
$$$$
