RRQ.pdb
     RDKit          3D

 32 31  0  0  1  0  0  0  0  0999 V2000
    8.2979  -15.3250   16.0613 N   0  0  0  0  0  0  0  0  0  0  0  0
    8.1508  -13.9163   16.0563 C   0  0  0  0  0  0  0  0  0  0  0  0
    7.9288  -13.2816   14.9439 N   0  0  0  0  0  0  0  0  0  0  0  0
    8.2357  -13.1399   17.2408 N   0  0  0  0  0  0  0  0  0  0  0  0
    8.4533  -13.7605   18.5475 C   0  0  0  0  0  0  0  0  0  0  0  0
    7.1117  -13.7536   19.2539 C   0  0  0  0  0  0  0  0  0  0  0  0
    7.4108  -14.0219   20.7267 C   0  0  0  0  0  0  0  0  0  0  0  0
    8.3830  -15.1951   20.8577 C   0  0  2  0  0  0  0  0  0  0  0  0
    8.0622  -16.2132   19.8831 N   0  0  0  0  0  0  0  0  0  0  0  0
    8.2482  -15.7199   22.2405 C   0  0  0  0  0  0  0  0  0  0  0  0
    8.4049  -14.9683   23.2500 O   0  0  0  0  0  0  0  0  0  0  0  0
    7.8709  -12.2450   14.9493 N   0  0  0  0  0  0  0  0  0  0  0  0
    2.7111  -20.3847   23.3159 C   0  0  0  0  0  0  0  0  0  0  0  0
    3.2421  -20.3175   21.9963 N   0  0  0  0  0  0  0  0  0  0  0  0
    2.5144  -19.8547   21.0315 N   0  0  0  0  0  0  0  0  0  0  0  0
    4.5552  -20.7396   21.6760 C   0  0  0  0  0  0  0  0  0  0  0  0
    5.6756  -20.5532   22.5674 C   0  0  0  0  0  0  0  0  0  0  0  0
    5.9391  -19.0858   22.8187 C   0  0  0  0  0  0  0  0  0  0  0  0
    7.2238  -19.0307   23.6472 C   0  0  2  0  0  0  0  0  0  0  0  0
    7.7218  -17.6210   23.7911 N   0  0  0  0  0  0  0  0  0  0  0  0
    7.9377  -17.0896   22.4600 C   0  0  0  0  0  0  0  0  0  0  0  0
    8.8832  -17.4908   24.6692 O   0  0  0  0  0  0  0  0  0  0  0  0
   10.0097  -17.8560   24.2742 N   0  0  0  0  0  0  0  0  0  0  0  0
    2.8795  -19.7416   20.0684 C   0  0  0  0  0  0  0  0  0  0  0  0
    9.5320  -13.1515   29.3516 O   0  0  0  0  0  0  0  0  0  0  0  0
    9.1630  -13.0951   27.9987 C   0  0  0  0  0  0  0  0  0  0  0  0
    8.5963  -12.0662   27.5776 C   0  0  0  0  0  0  0  0  0  0  0  0
    9.4368  -14.2276   27.0904 C   0  0  1  0  0  0  0  0  0  0  0  0
    9.5657  -15.5489   27.7615 N   0  0  0  0  0  0  0  0  0  0  0  0
    9.8345  -16.7211   26.8823 C   0  0  0  0  0  0  0  0  0  0  0  0
    8.7340  -16.9570   25.9528 O   0  0  0  0  0  0  0  0  0  0  0  0
    9.9972  -17.9462   27.6921 O   0  0  0  0  0  0  0  0  0  0  0  0
  2  1  1  0
  2  3  2  0
  4  2  1  0
  4  5  1  0
  6  5  1  0
  7  6  1  0
  8  7  1  0
  8  9  1  6
  8 10  1  0
 10 11  2  0
 13 12  1  0
 14 13  2  0
 15 13  1  0
 16 17  1  0
 16 15  1  0
 17 18  1  0
 19 18  1  6
 19 21  1  0
 20 10  1  0
 20 19  1  0
 21 29  1  0
 22 21  2  0
 24 25  2  0
 24 23  1  0
 26 24  1  0
 27 26  1  0
 28 27  1  1
 28 30  1  0
 29 28  1  0
 30 31  1  0
 32 30  2  0
M  END
$$$$
