RRQ.pdb
     RDKit          3D

 32 31  0  0  1  0  0  0  0  0999 V2000
   10.9371  -15.6841   12.8122 N   0  0  0  0  0  0  0  0  0  0  0  0
   10.7062  -15.8849   14.1952 C   0  0  0  0  0  0  0  0  0  0  0  0
    9.7545  -15.2418   14.8038 N   0  0  0  0  0  0  0  0  0  0  0  0
   11.4850  -16.7803   14.9729 N   0  0  0  0  0  0  0  0  0  0  0  0
   10.9174  -18.0150   15.5142 C   0  0  0  0  0  0  0  0  0  0  0  0
   10.5440  -17.7198   16.9539 C   0  0  0  0  0  0  0  0  0  0  0  0
   11.4285  -18.6221   17.8109 C   0  0  0  0  0  0  0  0  0  0  0  0
   10.6628  -19.0766   19.0542 C   0  0  2  0  0  0  0  0  0  0  0  0
    9.2847  -19.3483   18.7134 N   0  0  0  0  0  0  0  0  0  0  0  0
   10.7590  -17.9790   20.0500 C   0  0  0  0  0  0  0  0  0  0  0  0
   11.8158  -17.7914   20.7258 O   0  0  0  0  0  0  0  0  0  0  0  0
    9.6222  -15.3706   15.8254 N   0  0  0  0  0  0  0  0  0  0  0  0
    6.8024  -14.6922   16.3002 C   0  0  0  0  0  0  0  0  0  0  0  0
    7.3275  -13.7677   17.2475 N   0  0  0  0  0  0  0  0  0  0  0  0
    8.1378  -12.8368   16.8585 N   0  0  0  0  0  0  0  0  0  0  0  0
    7.0021  -13.8133   18.6249 C   0  0  0  0  0  0  0  0  0  0  0  0
    7.8475  -13.2432   19.6471 C   0  0  0  0  0  0  0  0  0  0  0  0
    9.0428  -14.1259   19.9264 C   0  0  0  0  0  0  0  0  0  0  0  0
    8.5895  -15.1088   21.0073 C   0  0  2  0  0  0  0  0  0  0  0  0
    9.6626  -16.1124   21.3188 N   0  0  0  0  0  0  0  0  0  0  0  0
    9.6557  -17.1090   20.2664 C   0  0  0  0  0  0  0  0  0  0  0  0
    9.5700  -16.6793   22.6630 O   0  0  0  0  0  0  0  0  0  0  0  0
    8.4772  -17.1094   23.0862 N   0  0  0  0  0  0  0  0  0  0  0  0
    8.6440  -12.2289   17.5278 C   0  0  0  0  0  0  0  0  0  0  0  0
   10.2541  -20.9614   25.3915 O   0  0  0  0  0  0  0  0  0  0  0  0
   10.8582  -20.2045   26.4075 C   0  0  0  0  0  0  0  0  0  0  0  0
   10.4822  -20.3788   27.5845 C   0  0  0  0  0  0  0  0  0  0  0  0
   11.9154  -19.2215   26.0938 C   0  0  1  0  0  0  0  0  0  0  0  0
   11.7401  -18.5077   24.8005 N   0  0  0  0  0  0  0  0  0  0  0  0
   10.7521  -17.3928   24.7816 C   0  0  0  0  0  0  0  0  0  0  0  0
   10.7054  -16.7406   23.4766 O   0  0  0  0  0  0  0  0  0  0  0  0
   11.1181  -16.3630   25.7758 O   0  0  0  0  0  0  0  0  0  0  0  0
  2  1  1  0
  2  3  2  0
  4  2  1  0
  4  5  1  0
  6  5  1  0
  7  6  1  0
  8  7  1  0
  8  9  1  6
  8 10  1  0
 10 11  2  0
 13 12  1  0
 14 13  2  0
 15 13  1  0
 16 17  1  0
 16 15  1  0
 17 18  1  0
 19 18  1  6
 19 21  1  0
 20 10  1  0
 20 19  1  0
 21 29  1  0
 22 21  2  0
 24 25  2  0
 24 23  1  0
 26 24  1  0
 27 26  1  0
 28 27  1  1
 28 30  1  0
 29 28  1  0
 30 31  1  0
 32 30  2  0
M  END
$$$$
