RRQ.pdb
     RDKit          3D

 32 31  0  0  1  0  0  0  0  0999 V2000
    8.6150  -13.3621   17.1064 N   0  0  0  0  0  0  0  0  0  0  0  0
    8.4077  -13.0753   18.4778 C   0  0  0  0  0  0  0  0  0  0  0  0
    8.5352  -11.8607   18.9230 N   0  0  0  0  0  0  0  0  0  0  0  0
    8.0568  -14.0778   19.4186 N   0  0  0  0  0  0  0  0  0  0  0  0
    6.8224  -14.8515   19.2865 C   0  0  0  0  0  0  0  0  0  0  0  0
    6.0826  -14.7060   20.6020 C   0  0  0  0  0  0  0  0  0  0  0  0
    7.0517  -15.1771   21.6835 C   0  0  0  0  0  0  0  0  0  0  0  0
    7.3818  -16.6566   21.4815 C   0  0  2  0  0  0  0  0  0  0  0  0
    6.1678  -17.4407   21.5037 N   0  0  0  0  0  0  0  0  0  0  0  0
    8.2930  -17.0539   22.5849 C   0  0  0  0  0  0  0  0  0  0  0  0
    7.8456  -17.3722   23.7283 O   0  0  0  0  0  0  0  0  0  0  0  0
    8.5483  -11.6900   19.9469 N   0  0  0  0  0  0  0  0  0  0  0  0
   12.6628  -15.5736   18.6790 C   0  0  0  0  0  0  0  0  0  0  0  0
   13.8824  -15.2884   19.3566 N   0  0  0  0  0  0  0  0  0  0  0  0
   14.6788  -14.3789   18.8950 N   0  0  0  0  0  0  0  0  0  0  0  0
   14.2793  -15.9625   20.5369 C   0  0  0  0  0  0  0  0  0  0  0  0
   13.5524  -17.0872   21.0769 C   0  0  0  0  0  0  0  0  0  0  0  0
   12.2145  -16.6590   21.6361 C   0  0  0  0  0  0  0  0  0  0  0  0
   11.9890  -17.5215   22.8792 C   0  0  1  0  0  0  0  0  0  0  0  0
   10.6293  -17.2830   23.4709 N   0  0  0  0  0  0  0  0  0  0  0  0
    9.6990  -17.0849   22.3773 C   0  0  0  0  0  0  0  0  0  0  0  0
   10.5973  -16.2143   24.4679 O   0  0  0  0  0  0  0  0  0  0  0  0
   11.1391  -15.1162   24.2249 N   0  0  0  0  0  0  0  0  0  0  0  0
   15.5353  -14.0860   19.3992 C   0  0  0  0  0  0  0  0  0  0  0  0
    6.0734  -13.4218   26.8225 O   0  0  0  0  0  0  0  0  0  0  0  0
    7.2327  -12.6447   26.6738 C   0  0  0  0  0  0  0  0  0  0  0  0
    7.1105  -11.4089   26.5509 C   0  0  0  0  0  0  0  0  0  0  0  0
    8.5698  -13.2727   26.6614 C   0  0  1  0  0  0  0  0  0  0  0  0
    8.5651  -14.7538   26.8003 N   0  0  0  0  0  0  0  0  0  0  0  0
    9.8911  -15.4319   26.7666 C   0  0  0  0  0  0  0  0  0  0  0  0
    9.9600  -16.4208   25.6951 O   0  0  0  0  0  0  0  0  0  0  0  0
   10.1391  -16.1424   28.0381 O   0  0  0  0  0  0  0  0  0  0  0  0
  2  1  1  0
  2  3  2  0
  4  2  1  0
  4  5  1  0
  6  5  1  0
  7  6  1  0
  8  7  1  0
  8  9  1  1
  8 10  1  0
 10 11  2  0
 13 12  1  0
 14 13  2  0
 15 13  1  0
 16 17  1  0
 16 15  1  0
 17 18  1  0
 19 18  1  6
 19 21  1  0
 20 10  1  0
 20 19  1  0
 21 29  1  0
 22 21  2  0
 24 25  2  0
 24 23  1  0
 26 24  1  0
 27 26  1  0
 28 27  1  1
 28 30  1  0
 29 28  1  0
 30 31  1  0
 32 30  2  0
M  END
$$$$
