RRQ.pdb
     RDKit          3D

 32 31  0  0  1  0  0  0  0  0999 V2000
   10.5416  -21.4685   11.5271 N   0  0  0  0  0  0  0  0  0  0  0  0
   10.8780  -21.0787   12.8466 C   0  0  0  0  0  0  0  0  0  0  0  0
   12.0616  -20.6123   13.1136 N   0  0  0  0  0  0  0  0  0  0  0  0
    9.9598  -21.1745   13.9240 N   0  0  0  0  0  0  0  0  0  0  0  0
   10.1000  -20.3490   15.1234 C   0  0  0  0  0  0  0  0  0  0  0  0
   10.8814  -21.1772   16.1247 C   0  0  0  0  0  0  0  0  0  0  0  0
   10.8623  -20.3861   17.4303 C   0  0  0  0  0  0  0  0  0  0  0  0
   10.8439  -18.8862   17.1328 C   0  0  2  0  0  0  0  0  0  0  0  0
   11.9937  -18.5273   16.3339 N   0  0  0  0  0  0  0  0  0  0  0  0
   10.8633  -18.1827   18.4407 C   0  0  0  0  0  0  0  0  0  0  0  0
   11.9120  -18.1424   19.1531 O   0  0  0  0  0  0  0  0  0  0  0  0
   12.2761  -20.2812   14.0739 N   0  0  0  0  0  0  0  0  0  0  0  0
    9.7000  -12.5501   19.4893 C   0  0  0  0  0  0  0  0  0  0  0  0
    8.5677  -12.3523   20.3299 N   0  0  0  0  0  0  0  0  0  0  0  0
    8.5479  -11.3613   21.1619 N   0  0  0  0  0  0  0  0  0  0  0  0
    7.4351  -13.2018   20.3030 C   0  0  0  0  0  0  0  0  0  0  0  0
    7.1873  -14.2063   21.3101 C   0  0  0  0  0  0  0  0  0  0  0  0
    8.3819  -15.1168   21.4832 C   0  0  0  0  0  0  0  0  0  0  0  0
    8.4407  -15.9700   20.2149 C   0  0  2  0  0  0  0  0  0  0  0  0
    9.6823  -16.8146   20.1811 N   0  0  0  0  0  0  0  0  0  0  0  0
    9.6938  -17.5347   18.9233 C   0  0  0  0  0  0  0  0  0  0  0  0
    9.8434  -17.6763   21.3508 O   0  0  0  0  0  0  0  0  0  0  0  0
    9.2564  -18.7769   21.4022 N   0  0  0  0  0  0  0  0  0  0  0  0
    7.7681  -11.2140   21.8282 C   0  0  0  0  0  0  0  0  0  0  0  0
   14.7092  -20.6469   25.3009 O   0  0  0  0  0  0  0  0  0  0  0  0
   14.1797  -19.3539   25.1672 C   0  0  0  0  0  0  0  0  0  0  0  0
   14.9628  -18.3828   25.1979 C   0  0  0  0  0  0  0  0  0  0  0  0
   12.7276  -19.1435   24.9950 C   0  0  2  0  0  0  0  0  0  0  0  0
   12.3512  -18.3334   23.8055 N   0  0  0  0  0  0  0  0  0  0  0  0
   10.8991  -18.0593   23.6166 C   0  0  0  0  0  0  0  0  0  0  0  0
   10.6552  -17.2691   22.4138 O   0  0  0  0  0  0  0  0  0  0  0  0
   10.3658  -17.2936   24.7622 O   0  0  0  0  0  0  0  0  0  0  0  0
  2  1  1  0
  2  3  2  0
  4  2  1  0
  4  5  1  0
  6  5  1  0
  7  6  1  0
  8  7  1  0
  8  9  1  6
  8 10  1  0
 10 11  2  0
 13 12  1  0
 14 13  2  0
 15 13  1  0
 16 17  1  0
 16 15  1  0
 17 18  1  0
 19 18  1  6
 19 21  1  0
 20 10  1  0
 20 19  1  0
 21 29  1  0
 22 21  2  0
 24 25  2  0
 24 23  1  0
 26 24  1  0
 27 26  1  0
 28 27  1  1
 28 30  1  0
 29 28  1  0
 30 31  1  0
 32 30  2  0
M  END
$$$$
