RRQ.pdb
     RDKit          3D

 32 31  0  0  1  0  0  0  0  0999 V2000
   13.0516  -15.3430   17.8466 N   0  0  0  0  0  0  0  0  0  0  0  0
   13.7437  -14.5594   18.8021 C   0  0  0  0  0  0  0  0  0  0  0  0
   15.0377  -14.6331   18.9011 N   0  0  0  0  0  0  0  0  0  0  0  0
   13.0750  -13.6706   19.6831 N   0  0  0  0  0  0  0  0  0  0  0  0
   11.7607  -13.9912   20.2398 C   0  0  0  0  0  0  0  0  0  0  0  0
   10.7522  -13.1758   19.4542 C   0  0  0  0  0  0  0  0  0  0  0  0
    9.9180  -14.1838   18.6676 C   0  0  0  0  0  0  0  0  0  0  0  0
    8.4291  -13.9330   18.9102 C   0  0  2  0  0  0  0  0  0  0  0  0
    8.1170  -12.5425   18.6691 N   0  0  0  0  0  0  0  0  0  0  0  0
    8.1490  -14.3051   20.3205 C   0  0  0  0  0  0  0  0  0  0  0  0
    8.0098  -13.4228   21.2209 O   0  0  0  0  0  0  0  0  0  0  0  0
   15.5346  -14.0215   19.5770 N   0  0  0  0  0  0  0  0  0  0  0  0
    9.3103  -21.5991   22.8729 C   0  0  0  0  0  0  0  0  0  0  0  0
    9.2361  -21.2507   21.4942 N   0  0  0  0  0  0  0  0  0  0  0  0
   10.3000  -21.2989   20.7591 N   0  0  0  0  0  0  0  0  0  0  0  0
    8.0317  -20.8454   20.8696 C   0  0  0  0  0  0  0  0  0  0  0  0
    7.2209  -19.7587   21.3662 C   0  0  0  0  0  0  0  0  0  0  0  0
    8.0456  -18.5087   21.5742 C   0  0  0  0  0  0  0  0  0  0  0  0
    7.0528  -17.4201   21.9855 C   0  0  1  0  0  0  0  0  0  0  0  0
    7.7134  -16.0726   22.0473 N   0  0  0  0  0  0  0  0  0  0  0  0
    8.0308  -15.6725   20.6909 C   0  0  0  0  0  0  0  0  0  0  0  0
    8.8559  -16.0152   22.9575 O   0  0  0  0  0  0  0  0  0  0  0  0
   10.0117  -16.1969   22.5222 N   0  0  0  0  0  0  0  0  0  0  0  0
   10.2881  -21.0554   19.7520 C   0  0  0  0  0  0  0  0  0  0  0  0
    8.5626  -13.6568   28.9198 O   0  0  0  0  0  0  0  0  0  0  0  0
    9.7392  -14.4217   28.9384 C   0  0  0  0  0  0  0  0  0  0  0  0
   10.3753  -14.5112   30.0083 C   0  0  0  0  0  0  0  0  0  0  0  0
   10.2178  -15.1061   27.7198 C   0  0  2  0  0  0  0  0  0  0  0  0
    9.2847  -15.0458   26.5629 N   0  0  0  0  0  0  0  0  0  0  0  0
    9.7155  -15.7458   25.3204 C   0  0  0  0  0  0  0  0  0  0  0  0
    8.6556  -15.7568   24.3169 O   0  0  0  0  0  0  0  0  0  0  0  0
   10.0585  -17.1526   25.6140 O   0  0  0  0  0  0  0  0  0  0  0  0
  2  1  1  0
  2  3  2  0
  4  2  1  0
  4  5  1  0
  6  5  1  0
  7  6  1  0
  8  7  1  0
  8  9  1  1
  8 10  1  0
 10 11  2  0
 13 12  1  0
 14 13  2  0
 15 13  1  0
 16 17  1  0
 16 15  1  0
 17 18  1  0
 19 18  1  6
 19 21  1  0
 20 10  1  0
 20 19  1  0
 21 29  1  0
 22 21  2  0
 24 25  2  0
 24 23  1  0
 26 24  1  0
 27 26  1  0
 28 27  1  1
 28 30  1  0
 29 28  1  0
 30 31  1  0
 32 30  2  0
M  END
$$$$
