RRQ.pdb
     RDKit          3D

 32 31  0  0  1  0  0  0  0  0999 V2000
   17.3096  -23.8245   21.2282 N   0  0  0  0  0  0  0  0  0  0  0  0
   16.4487  -24.8906   20.8700 C   0  0  0  0  0  0  0  0  0  0  0  0
   16.8823  -25.8661   20.1283 N   0  0  0  0  0  0  0  0  0  0  0  0
   15.0957  -24.9491   21.2933 N   0  0  0  0  0  0  0  0  0  0  0  0
   14.6617  -24.3424   22.5517 C   0  0  0  0  0  0  0  0  0  0  0  0
   14.7779  -22.8419   22.3664 C   0  0  0  0  0  0  0  0  0  0  0  0
   14.4401  -22.2239   23.7209 C   0  0  0  0  0  0  0  0  0  0  0  0
   13.0053  -21.6950   23.7112 C   0  0  2  0  0  0  0  0  0  0  0  0
   12.9812  -20.3422   23.2027 N   0  0  0  0  0  0  0  0  0  0  0  0
   12.5128  -21.7466   25.1114 C   0  0  0  0  0  0  0  0  0  0  0  0
   12.8421  -20.8634   25.9600 O   0  0  0  0  0  0  0  0  0  0  0  0
   16.2419  -26.6453   19.8824 N   0  0  0  0  0  0  0  0  0  0  0  0
   10.2946  -26.9919   30.4976 C   0  0  0  0  0  0  0  0  0  0  0  0
    8.9797  -26.4721   30.6670 N   0  0  0  0  0  0  0  0  0  0  0  0
    8.3785  -26.5985   31.8060 N   0  0  0  0  0  0  0  0  0  0  0  0
    8.2784  -25.8082   29.6314 C   0  0  0  0  0  0  0  0  0  0  0  0
    8.8686  -25.5250   28.3445 C   0  0  0  0  0  0  0  0  0  0  0  0
    9.6862  -24.2538   28.3830 C   0  0  0  0  0  0  0  0  0  0  0  0
   10.2618  -24.0877   26.9756 C   0  0  2  0  0  0  0  0  0  0  0  0
   11.1689  -22.8934   26.8931 N   0  0  0  0  0  0  0  0  0  0  0  0
   11.6538  -22.7989   25.5305 C   0  0  0  0  0  0  0  0  0  0  0  0
   12.2333  -22.8888   27.8952 O   0  0  0  0  0  0  0  0  0  0  0  0
   13.3314  -23.4265   27.6433 N   0  0  0  0  0  0  0  0  0  0  0  0
    7.4266  -26.2250   31.9735 C   0  0  0  0  0  0  0  0  0  0  0  0
   15.6273  -25.6710   30.2086 O   0  0  0  0  0  0  0  0  0  0  0  0
   14.5027  -25.6938   31.0481 C   0  0  0  0  0  0  0  0  0  0  0  0
   14.2982  -26.7097   31.7433 C   0  0  0  0  0  0  0  0  0  0  0  0
   13.5787  -24.5427   31.1089 C   0  0  1  0  0  0  0  0  0  0  0  0
   13.9060  -23.4298   30.1777 N   0  0  0  0  0  0  0  0  0  0  0  0
   13.0071  -22.2423   30.2143 C   0  0  0  0  0  0  0  0  0  0  0  0
   12.0227  -22.2822   29.1372 O   0  0  0  0  0  0  0  0  0  0  0  0
   13.7886  -20.9992   30.0507 O   0  0  0  0  0  0  0  0  0  0  0  0
  2  1  1  0
  2  3  2  0
  4  2  1  0
  4  5  1  0
  6  5  1  0
  7  6  1  0
  8  7  1  0
  8  9  1  1
  8 10  1  0
 10 11  2  0
 13 12  1  0
 14 13  2  0
 15 13  1  0
 16 17  1  0
 16 15  1  0
 17 18  1  0
 19 18  1  6
 19 21  1  0
 20 10  1  0
 20 19  1  0
 21 29  1  0
 22 21  2  0
 24 25  2  0
 24 23  1  0
 26 24  1  0
 27 26  1  0
 28 27  1  1
 28 30  1  0
 29 28  1  0
 30 31  1  0
 32 30  2  0
M  END
$$$$
