RRQ.pdb
     RDKit          3D

 32 31  0  0  1  0  0  0  0  0999 V2000
   14.3251  -19.3426   11.1740 N   0  0  0  0  0  0  0  0  0  0  0  0
   15.5724  -19.3876   11.8436 C   0  0  0  0  0  0  0  0  0  0  0  0
   16.5045  -20.2013   11.4451 N   0  0  0  0  0  0  0  0  0  0  0  0
   15.8643  -18.5638   12.9613 N   0  0  0  0  0  0  0  0  0  0  0  0
   14.8762  -17.6299   13.5012 C   0  0  0  0  0  0  0  0  0  0  0  0
   14.2772  -18.2989   14.7231 C   0  0  0  0  0  0  0  0  0  0  0  0
   15.3379  -18.2032   15.8169 C   0  0  0  0  0  0  0  0  0  0  0  0
   14.8300  -18.8675   17.0974 C   0  0  2  0  0  0  0  0  0  0  0  0
   13.7113  -19.7314   16.7951 N   0  0  0  0  0  0  0  0  0  0  0  0
   14.4270  -17.7780   18.0227 C   0  0  0  0  0  0  0  0  0  0  0  0
   15.2249  -16.8394   18.3247 O   0  0  0  0  0  0  0  0  0  0  0  0
   17.3941  -20.2598   11.9770 N   0  0  0  0  0  0  0  0  0  0  0  0
    6.7759  -13.7634   18.9074 C   0  0  0  0  0  0  0  0  0  0  0  0
    7.7526  -13.0365   19.6458 N   0  0  0  0  0  0  0  0  0  0  0  0
    7.4936  -11.8339   20.0476 N   0  0  0  0  0  0  0  0  0  0  0  0
    9.0222  -13.5721   19.9723 C   0  0  0  0  0  0  0  0  0  0  0  0
    9.4079  -14.9242   19.6441 C   0  0  0  0  0  0  0  0  0  0  0  0
   10.8195  -15.2183   20.0990 C   0  0  0  0  0  0  0  0  0  0  0  0
   11.2761  -16.4271   19.2804 C   0  0  2  0  0  0  0  0  0  0  0  0
   12.7169  -16.7564   19.5483 N   0  0  0  0  0  0  0  0  0  0  0  0
   13.1250  -17.7672   18.5931 C   0  0  0  0  0  0  0  0  0  0  0  0
   12.9925  -17.1179   20.9376 O   0  0  0  0  0  0  0  0  0  0  0  0
   12.7900  -18.2850   21.3318 N   0  0  0  0  0  0  0  0  0  0  0  0
    8.1762  -11.2723   20.5884 C   0  0  0  0  0  0  0  0  0  0  0  0
   12.8039  -18.7168   26.3246 O   0  0  0  0  0  0  0  0  0  0  0  0
   11.7035  -18.0607   25.7514 C   0  0  0  0  0  0  0  0  0  0  0  0
   10.6312  -18.0268   26.3887 C   0  0  0  0  0  0  0  0  0  0  0  0
   11.8084  -17.4243   24.4223 C   0  0  2  0  0  0  0  0  0  0  0  0
   13.1088  -17.6338   23.7309 N   0  0  0  0  0  0  0  0  0  0  0  0
   13.8017  -16.4147   23.2279 C   0  0  0  0  0  0  0  0  0  0  0  0
   13.4832  -16.1571   21.8269 O   0  0  0  0  0  0  0  0  0  0  0  0
   15.2670  -16.5783   23.3234 O   0  0  0  0  0  0  0  0  0  0  0  0
  2  1  1  0
  2  3  2  0
  4  2  1  0
  4  5  1  0
  6  5  1  0
  7  6  1  0
  8  7  1  0
  8  9  1  6
  8 10  1  0
 10 11  2  0
 13 12  1  0
 14 13  2  0
 15 13  1  0
 16 17  1  0
 16 15  1  0
 17 18  1  0
 19 18  1  6
 19 21  1  0
 20 10  1  0
 20 19  1  0
 21 29  1  0
 22 21  2  0
 24 25  2  0
 24 23  1  0
 26 24  1  0
 27 26  1  0
 28 27  1  1
 28 30  1  0
 29 28  1  0
 30 31  1  0
 32 30  2  0
M  END
$$$$
