RRQ.pdb
     RDKit          3D

 32 31  0  0  1  0  0  0  0  0999 V2000
   16.2334  -19.8881   19.0000 N   0  0  0  0  0  0  0  0  0  0  0  0
   17.3805  -19.1814   18.5629 C   0  0  0  0  0  0  0  0  0  0  0  0
   18.5627  -19.5205   18.9838 N   0  0  0  0  0  0  0  0  0  0  0  0
   17.3012  -18.0890   17.6609 N   0  0  0  0  0  0  0  0  0  0  0  0
   16.0174  -17.6187   17.1410 C   0  0  0  0  0  0  0  0  0  0  0  0
   15.4646  -16.6546   18.1726 C   0  0  0  0  0  0  0  0  0  0  0  0
   14.4484  -15.7866   17.4346 C   0  0  0  0  0  0  0  0  0  0  0  0
   14.3426  -14.4178   18.1082 C   0  0  2  0  0  0  0  0  0  0  0  0
   15.6619  -13.9226   18.4298 N   0  0  0  0  0  0  0  0  0  0  0  0
   13.5275  -14.5989   19.3365 C   0  0  0  0  0  0  0  0  0  0  0  0
   14.0551  -14.5674   20.4895 O   0  0  0  0  0  0  0  0  0  0  0  0
   19.3912  -18.9774   18.6735 N   0  0  0  0  0  0  0  0  0  0  0  0
    7.0313  -12.1061   20.0945 C   0  0  0  0  0  0  0  0  0  0  0  0
    7.3150  -13.0202   19.0401 N   0  0  0  0  0  0  0  0  0  0  0  0
    7.4006  -12.5925   17.8218 N   0  0  0  0  0  0  0  0  0  0  0  0
    7.5137  -14.4051   19.2589 C   0  0  0  0  0  0  0  0  0  0  0  0
    7.5150  -14.9961   20.5762 C   0  0  0  0  0  0  0  0  0  0  0  0
    8.9075  -15.0235   21.1644 C   0  0  0  0  0  0  0  0  0  0  0  0
    9.8630  -15.0040   19.9701 C   0  0  2  0  0  0  0  0  0  0  0  0
   11.2969  -14.9890   20.4171 N   0  0  0  0  0  0  0  0  0  0  0  0
   12.1255  -14.8134   19.2410 C   0  0  0  0  0  0  0  0  0  0  0  0
   11.6742  -16.1420   21.2327 O   0  0  0  0  0  0  0  0  0  0  0  0
   12.1119  -17.1766   20.6881 N   0  0  0  0  0  0  0  0  0  0  0  0
    7.6779  -13.2097   17.0370 C   0  0  0  0  0  0  0  0  0  0  0  0
   10.4445  -18.2451   28.1473 O   0  0  0  0  0  0  0  0  0  0  0  0
   11.3497  -17.5456   27.3341 C   0  0  0  0  0  0  0  0  0  0  0  0
   11.9517  -16.5655   27.8181 C   0  0  0  0  0  0  0  0  0  0  0  0
   11.5863  -17.9572   25.9351 C   0  0  1  0  0  0  0  0  0  0  0  0
   11.4839  -16.8599   24.9360 N   0  0  0  0  0  0  0  0  0  0  0  0
   11.7742  -17.2176   23.5192 C   0  0  0  0  0  0  0  0  0  0  0  0
   11.5454  -16.0877   22.6238 O   0  0  0  0  0  0  0  0  0  0  0  0
   10.8934  -18.3173   23.0745 O   0  0  0  0  0  0  0  0  0  0  0  0
  2  1  1  0
  2  3  2  0
  4  2  1  0
  4  5  1  0
  6  5  1  0
  7  6  1  0
  8  7  1  0
  8  9  1  1
  8 10  1  0
 10 11  2  0
 13 12  1  0
 14 13  2  0
 15 13  1  0
 16 17  1  0
 16 15  1  0
 17 18  1  0
 19 18  1  1
 19 21  1  0
 20 10  1  0
 20 19  1  0
 21 29  1  0
 22 21  2  0
 24 25  2  0
 24 23  1  0
 26 24  1  0
 27 26  1  0
 28 27  1  6
 28 30  1  0
 29 28  1  0
 30 31  1  0
 32 30  2  0
M  END
$$$$
