RRQ.pdb
     RDKit          3D

 32 31  0  0  1  0  0  0  0  0999 V2000
    9.1591  -13.5876   17.1365 N   0  0  0  0  0  0  0  0  0  0  0  0
    9.6845  -13.3852   18.4361 C   0  0  0  0  0  0  0  0  0  0  0  0
   10.9695  -13.3489   18.6284 N   0  0  0  0  0  0  0  0  0  0  0  0
    8.8530  -13.2144   19.5731 N   0  0  0  0  0  0  0  0  0  0  0  0
    7.3946  -13.2512   19.4658 C   0  0  0  0  0  0  0  0  0  0  0  0
    6.9900  -14.7043   19.6205 C   0  0  0  0  0  0  0  0  0  0  0  0
    7.3107  -15.0783   21.0655 C   0  0  0  0  0  0  0  0  0  0  0  0
    6.9529  -16.5435   21.3182 C   0  0  2  0  0  0  0  0  0  0  0  0
    5.5716  -16.7821   20.9658 N   0  0  0  0  0  0  0  0  0  0  0  0
    7.1877  -16.8064   22.7609 C   0  0  0  0  0  0  0  0  0  0  0  0
    6.3140  -16.5204   23.6348 O   0  0  0  0  0  0  0  0  0  0  0  0
   11.3393  -13.2188   19.5897 N   0  0  0  0  0  0  0  0  0  0  0  0
   10.4084  -19.4045   29.0171 C   0  0  0  0  0  0  0  0  0  0  0  0
   10.2071  -20.7698   28.6663 N   0  0  0  0  0  0  0  0  0  0  0  0
   10.1220  -21.6680   29.5940 N   0  0  0  0  0  0  0  0  0  0  0  0
   10.0916  -21.2076   27.3245 C   0  0  0  0  0  0  0  0  0  0  0  0
   10.3898  -20.3572   26.1964 C   0  0  0  0  0  0  0  0  0  0  0  0
    9.3678  -19.2518   26.0567 C   0  0  0  0  0  0  0  0  0  0  0  0
    9.7894  -18.4502   24.8240 C   0  0  2  0  0  0  0  0  0  0  0  0
    8.8529  -17.3035   24.5708 N   0  0  0  0  0  0  0  0  0  0  0  0
    8.4098  -17.3896   23.1935 C   0  0  0  0  0  0  0  0  0  0  0  0
    9.4061  -15.9983   24.9276 O   0  0  0  0  0  0  0  0  0  0  0  0
    9.5923  -15.1356   24.0446 N   0  0  0  0  0  0  0  0  0  0  0  0
   10.0011  -22.6746   29.3800 C   0  0  0  0  0  0  0  0  0  0  0  0
    5.5323  -12.2923   26.3761 O   0  0  0  0  0  0  0  0  0  0  0  0
    6.8163  -11.7678   26.5911 C   0  0  0  0  0  0  0  0  0  0  0  0
    7.0631  -10.6122   26.1903 C   0  0  0  0  0  0  0  0  0  0  0  0
    7.8555  -12.5640   27.2757 C   0  0  1  0  0  0  0  0  0  0  0  0
    8.1946  -13.8509   26.6110 N   0  0  0  0  0  0  0  0  0  0  0  0
    9.5459  -14.4119   26.8919 C   0  0  0  0  0  0  0  0  0  0  0  0
    9.7274  -15.7142   26.2583 O   0  0  0  0  0  0  0  0  0  0  0  0
    9.7342  -14.5991   28.3453 O   0  0  0  0  0  0  0  0  0  0  0  0
  2  1  1  0
  2  3  2  0
  4  2  1  0
  4  5  1  0
  6  5  1  0
  7  6  1  0
  8  7  1  0
  8  9  1  1
  8 10  1  0
 10 11  2  0
 13 12  1  0
 14 13  2  0
 15 13  1  0
 16 17  1  0
 16 15  1  0
 17 18  1  0
 19 18  1  1
 19 21  1  0
 20 10  1  0
 20 19  1  0
 21 29  1  0
 22 21  2  0
 24 25  2  0
 24 23  1  0
 26 24  1  0
 27 26  1  0
 28 27  1  1
 28 30  1  0
 29 28  1  0
 30 31  1  0
 32 30  2  0
M  END
$$$$
