RRQ.pdb
     RDKit          3D

 32 31  0  0  1  0  0  0  0  0999 V2000
   15.2853  -19.6820   16.4205 N   0  0  0  0  0  0  0  0  0  0  0  0
   15.9868  -19.3270   15.2424 C   0  0  0  0  0  0  0  0  0  0  0  0
   17.2769  -19.1695   15.2666 N   0  0  0  0  0  0  0  0  0  0  0  0
   15.3320  -19.1290   13.9993 N   0  0  0  0  0  0  0  0  0  0  0  0
   13.8752  -19.1935   13.8840 C   0  0  0  0  0  0  0  0  0  0  0  0
   13.3802  -17.7604   13.8993 C   0  0  0  0  0  0  0  0  0  0  0  0
   11.8582  -17.8405   13.8113 C   0  0  0  0  0  0  0  0  0  0  0  0
   11.2593  -16.4334   13.8160 C   0  0  2  0  0  0  0  0  0  0  0  0
   11.8192  -15.6550   12.7344 N   0  0  0  0  0  0  0  0  0  0  0  0
   11.5832  -15.8267   15.1323 C   0  0  0  0  0  0  0  0  0  0  0  0
   12.6549  -15.1726   15.3119 O   0  0  0  0  0  0  0  0  0  0  0  0
   17.7799  -18.9342   14.3895 N   0  0  0  0  0  0  0  0  0  0  0  0
    6.8976  -12.2417   18.7854 C   0  0  0  0  0  0  0  0  0  0  0  0
    7.1076  -13.0641   19.9288 N   0  0  0  0  0  0  0  0  0  0  0  0
    7.0138  -12.5550   21.1149 N   0  0  0  0  0  0  0  0  0  0  0  0
    7.4203  -14.4419   19.8351 C   0  0  0  0  0  0  0  0  0  0  0  0
    7.3700  -15.1721   18.5905 C   0  0  0  0  0  0  0  0  0  0  0  0
    8.5654  -14.8570   17.7202 C   0  0  0  0  0  0  0  0  0  0  0  0
    9.7558  -15.5530   18.3822 C   0  0  2  0  0  0  0  0  0  0  0  0
   10.9942  -15.4379   17.5401 N   0  0  0  0  0  0  0  0  0  0  0  0
   10.6880  -15.9700   16.2272 C   0  0  0  0  0  0  0  0  0  0  0  0
   12.1820  -16.0324   18.1506 O   0  0  0  0  0  0  0  0  0  0  0  0
   12.7718  -16.9746   17.5825 N   0  0  0  0  0  0  0  0  0  0  0  0
    7.1741  -13.1154   21.9716 C   0  0  0  0  0  0  0  0  0  0  0  0
   17.0767  -13.2220   17.4819 O   0  0  0  0  0  0  0  0  0  0  0  0
   17.1050  -13.4681   18.8634 C   0  0  0  0  0  0  0  0  0  0  0  0
   17.7933  -12.7210   19.5882 C   0  0  0  0  0  0  0  0  0  0  0  0
   16.3388  -14.5868   19.4500 C   0  0  2  0  0  0  0  0  0  0  0  0
   14.8867  -14.5855   19.1275 N   0  0  0  0  0  0  0  0  0  0  0  0
   14.0519  -15.6189   19.8020 C   0  0  0  0  0  0  0  0  0  0  0  0
   12.6590  -15.5466   19.3718 O   0  0  0  0  0  0  0  0  0  0  0  0
   14.0714  -15.4219   21.2662 O   0  0  0  0  0  0  0  0  0  0  0  0
  2  1  1  0
  2  3  2  0
  4  2  1  0
  4  5  1  0
  6  5  1  0
  7  6  1  0
  8  7  1  0
  8  9  1  6
  8 10  1  0
 10 11  2  0
 13 12  1  0
 14 13  2  0
 15 13  1  0
 16 17  1  0
 16 15  1  0
 17 18  1  0
 19 18  1  6
 19 21  1  0
 20 10  1  0
 20 19  1  0
 21 29  1  0
 22 21  2  0
 24 25  2  0
 24 23  1  0
 26 24  1  0
 27 26  1  0
 28 27  1  1
 28 30  1  0
 29 28  1  0
 30 31  1  0
 32 30  2  0
M  END
$$$$
