RRQ.pdb
     RDKit          3D

 32 31  0  0  1  0  0  0  0  0999 V2000
   14.0904  -21.9191   19.1037 N   0  0  0  0  0  0  0  0  0  0  0  0
   14.6904  -20.7848   19.7032 C   0  0  0  0  0  0  0  0  0  0  0  0
   15.9631  -20.7756   19.9674 N   0  0  0  0  0  0  0  0  0  0  0  0
   13.9493  -19.6226   20.0396 N   0  0  0  0  0  0  0  0  0  0  0  0
   12.9432  -19.0687   19.1335 C   0  0  0  0  0  0  0  0  0  0  0  0
   13.6195  -17.9389   18.3815 C   0  0  0  0  0  0  0  0  0  0  0  0
   12.5432  -17.3239   17.4904 C   0  0  0  0  0  0  0  0  0  0  0  0
   12.5715  -15.7997   17.6122 C   0  0  2  0  0  0  0  0  0  0  0  0
   13.9139  -15.3117   17.3913 N   0  0  0  0  0  0  0  0  0  0  0  0
   12.1009  -15.4636   18.9802 C   0  0  0  0  0  0  0  0  0  0  0  0
   12.9174  -15.2873   19.9345 O   0  0  0  0  0  0  0  0  0  0  0  0
   16.3838  -19.9460   20.4284 N   0  0  0  0  0  0  0  0  0  0  0  0
    7.4024  -14.8775   16.5615 C   0  0  0  0  0  0  0  0  0  0  0  0
    7.1767  -13.4729   16.4969 N   0  0  0  0  0  0  0  0  0  0  0  0
    7.1014  -12.8844   15.3468 N   0  0  0  0  0  0  0  0  0  0  0  0
    7.0262  -12.6667   17.6513 C   0  0  0  0  0  0  0  0  0  0  0  0
    7.3626  -13.1292   18.9770 C   0  0  0  0  0  0  0  0  0  0  0  0
    8.7247  -13.7850   19.0007 C   0  0  0  0  0  0  0  0  0  0  0  0
    8.9097  -14.3063   20.4268 C   0  0  2  0  0  0  0  0  0  0  0  0
   10.2122  -15.0391   20.5766 N   0  0  0  0  0  0  0  0  0  0  0  0
   10.7109  -15.3319   19.2476 C   0  0  0  0  0  0  0  0  0  0  0  0
   10.1342  -16.2127   21.4447 O   0  0  0  0  0  0  0  0  0  0  0  0
   10.0483  -17.3541   20.9465 N   0  0  0  0  0  0  0  0  0  0  0  0
    7.0148  -11.8558   15.2564 C   0  0  0  0  0  0  0  0  0  0  0  0
   15.2248  -16.1813   23.0049 O   0  0  0  0  0  0  0  0  0  0  0  0
   14.8355  -16.8794   24.1585 C   0  0  0  0  0  0  0  0  0  0  0  0
   15.7110  -17.1892   24.9920 C   0  0  0  0  0  0  0  0  0  0  0  0
   13.4212  -17.2421   24.3839 C   0  0  2  0  0  0  0  0  0  0  0  0
   12.4511  -16.5594   23.4864 N   0  0  0  0  0  0  0  0  0  0  0  0
   11.0071  -16.8262   23.7374 C   0  0  0  0  0  0  0  0  0  0  0  0
   10.1556  -16.0583   22.8341 O   0  0  0  0  0  0  0  0  0  0  0  0
   10.6444  -16.4423   25.1173 O   0  0  0  0  0  0  0  0  0  0  0  0
  2  1  1  0
  2  3  2  0
  4  2  1  0
  4  5  1  0
  6  5  1  0
  7  6  1  0
  8  7  1  0
  8  9  1  1
  8 10  1  0
 10 11  2  0
 13 12  1  0
 14 13  2  0
 15 13  1  0
 16 17  1  0
 16 15  1  0
 17 18  1  0
 19 18  1  6
 19 21  1  0
 20 10  1  0
 20 19  1  0
 21 29  1  0
 22 21  2  0
 24 25  2  0
 24 23  1  0
 26 24  1  0
 27 26  1  0
 28 27  1  1
 28 30  1  0
 29 28  1  0
 30 31  1  0
 32 30  2  0
M  END
$$$$
