RRQ.pdb
     RDKit          3D

 32 31  0  0  1  0  0  0  0  0999 V2000
    8.8187  -12.6523   13.8561 N   0  0  0  0  0  0  0  0  0  0  0  0
    8.2552  -13.4848   14.8538 C   0  0  0  0  0  0  0  0  0  0  0  0
    8.1810  -14.7700   14.6741 N   0  0  0  0  0  0  0  0  0  0  0  0
    7.7527  -12.9704   16.0770 N   0  0  0  0  0  0  0  0  0  0  0  0
    7.1924  -13.8496   17.1031 C   0  0  0  0  0  0  0  0  0  0  0  0
    8.3719  -14.4615   17.8336 C   0  0  0  0  0  0  0  0  0  0  0  0
    8.1769  -14.1184   19.3083 C   0  0  0  0  0  0  0  0  0  0  0  0
    9.3356  -14.6795   20.1336 C   0  0  2  0  0  0  0  0  0  0  0  0
    9.9369  -15.7981   19.4434 N   0  0  0  0  0  0  0  0  0  0  0  0
    8.7741  -15.1005   21.4425 C   0  0  0  0  0  0  0  0  0  0  0  0
    8.1158  -14.2950   22.1681 O   0  0  0  0  0  0  0  0  0  0  0  0
    7.8544  -15.3770   15.4504 N   0  0  0  0  0  0  0  0  0  0  0  0
    6.1686  -22.0749   25.2549 C   0  0  0  0  0  0  0  0  0  0  0  0
    7.0199  -21.5258   26.2557 N   0  0  0  0  0  0  0  0  0  0  0  0
    6.6527  -21.5462   27.4964 N   0  0  0  0  0  0  0  0  0  0  0  0
    8.2769  -20.9453   25.9587 C   0  0  0  0  0  0  0  0  0  0  0  0
    8.5745  -20.3344   24.6848 C   0  0  0  0  0  0  0  0  0  0  0  0
    8.3416  -18.8410   24.7242 C   0  0  0  0  0  0  0  0  0  0  0  0
    8.7045  -18.3274   23.3298 C   0  0  1  0  0  0  0  0  0  0  0  0
    8.5714  -16.8337   23.2454 N   0  0  0  0  0  0  0  0  0  0  0  0
    8.9667  -16.4287   21.9110 C   0  0  0  0  0  0  0  0  0  0  0  0
    9.2743  -16.1164   24.3076 O   0  0  0  0  0  0  0  0  0  0  0  0
   10.5166  -16.0005   24.2676 N   0  0  0  0  0  0  0  0  0  0  0  0
    7.2285  -21.1298   28.2506 C   0  0  0  0  0  0  0  0  0  0  0  0
    6.3485  -10.6110   26.1076 O   0  0  0  0  0  0  0  0  0  0  0  0
    6.6896  -11.8226   26.7284 C   0  0  0  0  0  0  0  0  0  0  0  0
    6.1273  -12.1217   27.8016 C   0  0  0  0  0  0  0  0  0  0  0  0
    7.6926  -12.7260   26.1281 C   0  0  1  0  0  0  0  0  0  0  0  0
    8.1720  -13.8109   27.0258 N   0  0  0  0  0  0  0  0  0  0  0  0
    9.1508  -14.7733   26.4467 C   0  0  0  0  0  0  0  0  0  0  0  0
    8.5561  -15.5591   25.3699 O   0  0  0  0  0  0  0  0  0  0  0  0
    9.6140  -15.7220   27.4802 O   0  0  0  0  0  0  0  0  0  0  0  0
  2  1  1  0
  2  3  2  0
  4  2  1  0
  4  5  1  0
  6  5  1  0
  7  6  1  0
  8  7  1  0
  8  9  1  6
  8 10  1  0
 10 11  2  0
 13 12  1  0
 14 13  2  0
 15 13  1  0
 16 17  1  0
 16 15  1  0
 17 18  1  0
 19 18  1  6
 19 21  1  0
 20 10  1  0
 20 19  1  0
 21 29  1  0
 22 21  2  0
 24 25  2  0
 24 23  1  0
 26 24  1  0
 27 26  1  0
 28 27  1  1
 28 30  1  0
 29 28  1  0
 30 31  1  0
 32 30  2  0
M  END
$$$$
