RRQ.pdb
     RDKit          3D

 32 31  0  0  1  0  0  0  0  0999 V2000
    9.1257  -14.9752   16.1814 N   0  0  0  0  0  0  0  0  0  0  0  0
    8.7445  -13.7522   16.7857 C   0  0  0  0  0  0  0  0  0  0  0  0
    8.7489  -12.6489   16.0984 N   0  0  0  0  0  0  0  0  0  0  0  0
    8.3456  -13.6687   18.1447 N   0  0  0  0  0  0  0  0  0  0  0  0
    8.8994  -14.5642   19.1603 C   0  0  0  0  0  0  0  0  0  0  0  0
    7.8397  -15.6149   19.4289 C   0  0  0  0  0  0  0  0  0  0  0  0
    7.7010  -15.6934   20.9472 C   0  0  0  0  0  0  0  0  0  0  0  0
    7.5676  -17.1525   21.3854 C   0  0  2  0  0  0  0  0  0  0  0  0
    6.2774  -17.6706   20.9905 N   0  0  0  0  0  0  0  0  0  0  0  0
    7.7233  -17.1794   22.8622 C   0  0  0  0  0  0  0  0  0  0  0  0
    6.7848  -16.8108   23.6317 O   0  0  0  0  0  0  0  0  0  0  0  0
    8.5304  -11.7509   16.5712 N   0  0  0  0  0  0  0  0  0  0  0  0
   14.4967  -19.7725   28.0215 C   0  0  0  0  0  0  0  0  0  0  0  0
   13.2730  -19.0913   28.2793 N   0  0  0  0  0  0  0  0  0  0  0  0
   13.2887  -17.8390   28.6050 N   0  0  0  0  0  0  0  0  0  0  0  0
   12.0100  -19.7260   28.1959 C   0  0  0  0  0  0  0  0  0  0  0  0
   11.3083  -19.9096   26.9475 C   0  0  0  0  0  0  0  0  0  0  0  0
   10.2646  -18.8353   26.7410 C   0  0  0  0  0  0  0  0  0  0  0  0
   10.1407  -18.6626   25.2262 C   0  0  2  0  0  0  0  0  0  0  0  0
    9.1641  -17.5760   24.8777 N   0  0  0  0  0  0  0  0  0  0  0  0
    8.9406  -17.6238   23.4465 C   0  0  0  0  0  0  0  0  0  0  0  0
    9.5513  -16.2537   25.3662 O   0  0  0  0  0  0  0  0  0  0  0  0
   10.4571  -15.6154   24.7912 N   0  0  0  0  0  0  0  0  0  0  0  0
   12.4265  -17.3218   28.8560 C   0  0  0  0  0  0  0  0  0  0  0  0
    5.4768  -12.2030   27.2632 O   0  0  0  0  0  0  0  0  0  0  0  0
    6.4056  -11.8324   26.2783 C   0  0  0  0  0  0  0  0  0  0  0  0
    6.1369  -10.8630   25.5400 C   0  0  0  0  0  0  0  0  0  0  0  0
    7.6739  -12.5722   26.1159 C   0  0  2  0  0  0  0  0  0  0  0  0
    7.9551  -13.5707   27.1821 N   0  0  0  0  0  0  0  0  0  0  0  0
    9.1957  -14.3809   27.0279 C   0  0  0  0  0  0  0  0  0  0  0  0
    8.9078  -15.7021   26.4782 O   0  0  0  0  0  0  0  0  0  0  0  0
    9.8463  -14.5818   28.3391 O   0  0  0  0  0  0  0  0  0  0  0  0
  2  1  1  0
  2  3  2  0
  4  2  1  0
  4  5  1  0
  6  5  1  0
  7  6  1  0
  8  7  1  0
  8  9  1  1
  8 10  1  0
 10 11  2  0
 13 12  1  0
 14 13  2  0
 15 13  1  0
 16 17  1  0
 16 15  1  0
 17 18  1  0
 19 18  1  1
 19 21  1  0
 20 10  1  0
 20 19  1  0
 21 29  1  0
 22 21  2  0
 24 25  2  0
 24 23  1  0
 26 24  1  0
 27 26  1  0
 28 27  1  1
 28 30  1  0
 29 28  1  0
 30 31  1  0
 32 30  2  0
M  END
$$$$
