RRQ.pdb
     RDKit          3D

 32 31  0  0  1  0  0  0  0  0999 V2000
   12.0232  -20.7115   15.6885 N   0  0  0  0  0  0  0  0  0  0  0  0
   12.4559  -22.0601   15.6969 C   0  0  0  0  0  0  0  0  0  0  0  0
   12.6430  -22.6984   14.5801 N   0  0  0  0  0  0  0  0  0  0  0  0
   12.7031  -22.7707   16.8999 N   0  0  0  0  0  0  0  0  0  0  0  0
   12.3308  -22.2202   18.2030 C   0  0  0  0  0  0  0  0  0  0  0  0
   11.2667  -21.1732   17.9377 C   0  0  0  0  0  0  0  0  0  0  0  0
   10.8241  -20.6670   19.3084 C   0  0  0  0  0  0  0  0  0  0  0  0
    9.7015  -19.6408   19.1495 C   0  0  2  0  0  0  0  0  0  0  0  0
    9.4313  -19.4179   17.7472 N   0  0  0  0  0  0  0  0  0  0  0  0
   10.1577  -18.3910   19.8095 C   0  0  0  0  0  0  0  0  0  0  0  0
   11.2816  -17.8715   19.5345 O   0  0  0  0  0  0  0  0  0  0  0  0
   12.9403  -23.6928   14.6029 N   0  0  0  0  0  0  0  0  0  0  0  0
    6.6709  -14.5523   18.8871 C   0  0  0  0  0  0  0  0  0  0  0  0
    7.0408  -13.1880   19.0592 N   0  0  0  0  0  0  0  0  0  0  0  0
    6.6611  -12.3032   18.1946 N   0  0  0  0  0  0  0  0  0  0  0  0
    7.8200  -12.7369   20.1522 C   0  0  0  0  0  0  0  0  0  0  0  0
    7.7012  -13.2934   21.4792 C   0  0  0  0  0  0  0  0  0  0  0  0
    8.8884  -14.1665   21.8169 C   0  0  0  0  0  0  0  0  0  0  0  0
    8.5353  -15.5637   21.3040 C   0  0  2  0  0  0  0  0  0  0  0  0
    9.7141  -16.4908   21.3869 N   0  0  0  0  0  0  0  0  0  0  0  0
    9.3336  -17.7470   20.7723 C   0  0  0  0  0  0  0  0  0  0  0  0
   10.2559  -16.6395   22.7365 O   0  0  0  0  0  0  0  0  0  0  0  0
    9.4875  -16.6554   23.7203 N   0  0  0  0  0  0  0  0  0  0  0  0
    6.8628  -11.2936   18.3112 C   0  0  0  0  0  0  0  0  0  0  0  0
   10.5387  -18.7871   26.8344 O   0  0  0  0  0  0  0  0  0  0  0  0
   11.9099  -19.0498   26.9789 C   0  0  0  0  0  0  0  0  0  0  0  0
   12.3332  -19.4115   28.0957 C   0  0  0  0  0  0  0  0  0  0  0  0
   12.8347  -18.9012   25.8365 C   0  0  1  0  0  0  0  0  0  0  0  0
   12.1902  -18.4865   24.5615 N   0  0  0  0  0  0  0  0  0  0  0  0
   12.2697  -17.0404   24.2125 C   0  0  0  0  0  0  0  0  0  0  0  0
   11.6353  -16.7639   22.9273 O   0  0  0  0  0  0  0  0  0  0  0  0
   13.6799  -16.6121   24.1088 O   0  0  0  0  0  0  0  0  0  0  0  0
  2  1  1  0
  2  3  2  0
  4  2  1  0
  4  5  1  0
  6  5  1  0
  7  6  1  0
  8  7  1  0
  8  9  1  6
  8 10  1  0
 10 11  2  0
 13 12  1  0
 14 13  2  0
 15 13  1  0
 16 17  1  0
 16 15  1  0
 17 18  1  0
 19 18  1  6
 19 21  1  0
 20 10  1  0
 20 19  1  0
 21 29  1  0
 22 21  2  0
 24 25  2  0
 24 23  1  0
 26 24  1  0
 27 26  1  0
 28 27  1  6
 28 30  1  0
 29 28  1  0
 30 31  1  0
 32 30  2  0
M  END
$$$$
