DVA.pdb
     RDKit          3D

 21 20  0  0  1  0  0  0  0  0999 V2000
    8.3989  -14.8712   20.6239 N   0  0  0  0  0  0  0  0  0  0  0  0
    7.8787  -15.5015   21.8001 C   0  0  1  0  0  0  0  0  0  0  0  0
    8.1156  -16.9707   21.7179 C   0  0  0  0  0  0  0  0  0  0  0  0
    7.4106  -17.4824   20.5143 C   0  0  0  0  0  0  0  0  0  0  0  0
    6.1685  -17.6715   20.4765 O   0  0  0  0  0  0  0  0  0  0  0  0
    8.3537  -14.8817   23.0508 C   0  0  0  0  0  0  0  0  0  0  0  0
    9.5953  -14.7212   23.1740 O   0  0  0  0  0  0  0  0  0  0  0  0
    8.1322  -17.7750   19.3599 O   0  0  0  0  0  0  0  0  0  0  0  0
    7.4061  -12.5800   27.3649 C   0  0  0  0  0  0  0  0  0  0  0  0
    6.9461  -13.1044   26.0391 C   0  0  1  0  0  0  0  0  0  0  0  0
    6.4744  -11.9103   25.2327 C   0  0  0  0  0  0  0  0  0  0  0  0
    8.0263  -13.8737   25.3635 C   0  0  2  0  0  0  0  0  0  0  0  0
    7.5254  -14.4602   24.1079 N   0  0  0  0  0  0  0  0  0  0  0  0
    8.5638  -14.9204   26.2333 C   0  0  0  0  0  0  0  0  0  0  0  0
    7.8198  -15.9359   26.5205 O   0  0  0  0  0  0  0  0  0  0  0  0
   11.5573  -16.6623   27.1143 C   0  0  0  0  0  0  0  0  0  0  0  0
   10.2626  -16.0896   27.6463 C   0  0  2  0  0  0  0  0  0  0  0  0
    9.8453  -14.9633   26.8174 N   0  0  0  0  0  0  0  0  0  0  0  0
   10.3906  -15.6980   29.0705 C   0  0  0  0  0  0  0  0  0  0  0  0
   10.3198  -14.4576   29.3107 O   0  0  0  0  0  0  0  0  0  0  0  0
   10.5750  -16.5642   30.1130 O   0  0  0  0  0  0  0  0  0  0  0  0
  2  1  1  6
  2  6  1  0
  3  4  1  0
  3  2  1  0
  4  5  2  0
  6 13  1  0
  6  7  2  0
  8  4  1  0
 10  9  1  1
 10 12  1  0
 11 10  1  0
 12 14  1  0
 12 13  1  6
 14 18  1  0
 15 14  2  0
 17 16  1  6
 18 17  1  0
 19 17  1  0
 19 21  1  0
 20 19  2  0
M  END
$$$$
