DVA.pdb
     RDKit          3D

 21 20  0  0  1  0  0  0  0  0999 V2000
    8.0603  -15.1960   20.6108 N   0  0  0  0  0  0  0  0  0  0  0  0
    7.4917  -15.5156   21.8859 C   0  0  1  0  0  0  0  0  0  0  0  0
    7.4057  -16.9965   22.0301 C   0  0  0  0  0  0  0  0  0  0  0  0
    6.6596  -17.5288   20.8607 C   0  0  0  0  0  0  0  0  0  0  0  0
    5.6638  -16.9471   20.3607 O   0  0  0  0  0  0  0  0  0  0  0  0
    8.1636  -14.8369   23.0092 C   0  0  0  0  0  0  0  0  0  0  0  0
    9.4204  -14.8830   23.0361 O   0  0  0  0  0  0  0  0  0  0  0  0
    7.0581  -18.7251   20.2698 O   0  0  0  0  0  0  0  0  0  0  0  0
    6.0520  -13.2399   26.3809 C   0  0  0  0  0  0  0  0  0  0  0  0
    7.3015  -12.5766   25.8876 C   0  0  1  0  0  0  0  0  0  0  0  0
    7.9522  -11.9157   27.0869 C   0  0  0  0  0  0  0  0  0  0  0  0
    8.1931  -13.5538   25.2057 C   0  0  2  0  0  0  0  0  0  0  0  0
    7.5060  -14.1469   24.0448 N   0  0  0  0  0  0  0  0  0  0  0  0
    8.6387  -14.6037   26.1222 C   0  0  0  0  0  0  0  0  0  0  0  0
    7.8004  -15.5198   26.4762 O   0  0  0  0  0  0  0  0  0  0  0  0
   11.5242  -16.5224   27.1250 C   0  0  0  0  0  0  0  0  0  0  0  0
   10.2372  -15.8658   27.5720 C   0  0  2  0  0  0  0  0  0  0  0  0
    9.9213  -14.7491   26.6871 N   0  0  0  0  0  0  0  0  0  0  0  0
   10.3160  -15.4320   28.9874 C   0  0  0  0  0  0  0  0  0  0  0  0
   10.3080  -14.1818   29.1832 O   0  0  0  0  0  0  0  0  0  0  0  0
   10.3945  -16.2698   30.0658 O   0  0  0  0  0  0  0  0  0  0  0  0
  2  1  1  6
  2  6  1  0
  3  4  1  0
  3  2  1  0
  4  5  2  0
  6 13  1  0
  6  7  2  0
  8  4  1  0
 10  9  1  1
 10 12  1  0
 11 10  1  0
 12 14  1  0
 12 13  1  6
 14 18  1  0
 15 14  2  0
 17 16  1  6
 18 17  1  0
 19 17  1  0
 19 21  1  0
 20 19  2  0
M  END
$$$$
