DVA.pdb
     RDKit          3D

 21 20  0  0  1  0  0  0  0  0999 V2000
    8.7884  -18.0298   16.0771 N   0  0  0  0  0  0  0  0  0  0  0  0
    7.9173  -17.6251   17.1395 C   0  0  1  0  0  0  0  0  0  0  0  0
    7.2733  -18.8299   17.7352 C   0  0  0  0  0  0  0  0  0  0  0  0
    6.2701  -19.3405   16.7655 C   0  0  0  0  0  0  0  0  0  0  0  0
    6.2147  -18.9555   15.5702 O   0  0  0  0  0  0  0  0  0  0  0  0
    8.5701  -16.7405   18.1220 C   0  0  0  0  0  0  0  0  0  0  0  0
    9.7893  -16.9450   18.3544 O   0  0  0  0  0  0  0  0  0  0  0  0
    5.3350  -20.2898   17.1701 O   0  0  0  0  0  0  0  0  0  0  0  0
    6.4630  -14.3064   20.9418 C   0  0  0  0  0  0  0  0  0  0  0  0
    7.6838  -13.7613   20.2659 C   0  0  1  0  0  0  0  0  0  0  0  0
    8.3357  -12.8012   21.2416 C   0  0  0  0  0  0  0  0  0  0  0  0
    8.5916  -14.8586   19.8337 C   0  0  2  0  0  0  0  0  0  0  0  0
    7.9331  -15.6926   18.8129 N   0  0  0  0  0  0  0  0  0  0  0  0
    9.0142  -15.6826   20.9665 C   0  0  0  0  0  0  0  0  0  0  0  0
    8.1473  -16.4515   21.5364 O   0  0  0  0  0  0  0  0  0  0  0  0
   11.2984  -17.8510   22.2365 C   0  0  0  0  0  0  0  0  0  0  0  0
   10.5788  -16.5995   22.6874 C   0  0  2  0  0  0  0  0  0  0  0  0
   10.3020  -15.7486   21.5345 N   0  0  0  0  0  0  0  0  0  0  0  0
   11.3533  -15.8753   23.7236 C   0  0  0  0  0  0  0  0  0  0  0  0
   11.5010  -16.4795   24.8256 O   0  0  0  0  0  0  0  0  0  0  0  0
   11.9034  -14.6322   23.5719 O   0  0  0  0  0  0  0  0  0  0  0  0
  2  1  1  6
  2  6  1  0
  3  4  1  0
  3  2  1  0
  4  5  2  0
  6 13  1  0
  6  7  2  0
  8  4  1  0
 10  9  1  1
 10 12  1  0
 11 10  1  0
 12 14  1  0
 12 13  1  6
 14 18  1  0
 15 14  2  0
 17 16  1  6
 18 17  1  0
 19 17  1  0
 19 21  1  0
 20 19  2  0
M  END
$$$$
