DVA.pdb
     RDKit          3D

 21 20  0  0  1  0  0  0  0  0999 V2000
    8.6883  -15.4431   20.7954 N   0  0  0  0  0  0  0  0  0  0  0  0
    8.0979  -15.9287   22.0065 C   0  0  1  0  0  0  0  0  0  0  0  0
    8.2330  -17.4119   22.0607 C   0  0  0  0  0  0  0  0  0  0  0  0
    7.2699  -17.9960   21.0917 C   0  0  0  0  0  0  0  0  0  0  0  0
    7.1785  -17.6095   19.8991 O   0  0  0  0  0  0  0  0  0  0  0  0
    8.5859  -15.2329   23.2114 C   0  0  0  0  0  0  0  0  0  0  0  0
    9.8253  -15.0337   23.2943 O   0  0  0  0  0  0  0  0  0  0  0  0
    6.4162  -19.0200   21.4940 O   0  0  0  0  0  0  0  0  0  0  0  0
    7.6894  -12.5761   27.3172 C   0  0  0  0  0  0  0  0  0  0  0  0
    7.1920  -13.2950   26.1005 C   0  0  1  0  0  0  0  0  0  0  0  0
    6.5928  -12.2465   25.1837 C   0  0  0  0  0  0  0  0  0  0  0  0
    8.2827  -14.0768   25.4571 C   0  0  2  0  0  0  0  0  0  0  0  0
    7.7724  -14.7793   24.2665 N   0  0  0  0  0  0  0  0  0  0  0  0
    8.8816  -15.0308   26.3910 C   0  0  0  0  0  0  0  0  0  0  0  0
    8.1131  -15.8622   27.0119 O   0  0  0  0  0  0  0  0  0  0  0  0
   12.1627  -16.4769   27.4272 C   0  0  0  0  0  0  0  0  0  0  0  0
   10.7072  -16.1523   27.6792 C   0  0  2  0  0  0  0  0  0  0  0  0
   10.2480  -15.1646   26.7079 N   0  0  0  0  0  0  0  0  0  0  0  0
   10.4909  -15.6877   29.0703 C   0  0  0  0  0  0  0  0  0  0  0  0
   10.4837  -16.5888   29.9587 O   0  0  0  0  0  0  0  0  0  0  0  0
   10.3038  -14.3861   29.4469 O   0  0  0  0  0  0  0  0  0  0  0  0
  2  1  1  6
  2  6  1  0
  3  4  1  0
  3  2  1  0
  4  5  2  0
  6 13  1  0
  6  7  2  0
  8  4  1  0
 10  9  1  1
 10 12  1  0
 11 10  1  0
 12 14  1  0
 12 13  1  6
 14 18  1  0
 15 14  2  0
 17 16  1  1
 18 17  1  0
 19 17  1  0
 19 21  1  0
 20 19  2  0
M  END
$$$$
