DVA.pdb
     RDKit          3D

 21 20  0  0  1  0  0  0  0  0999 V2000
    9.2426  -18.5178   19.6728 N   0  0  0  0  0  0  0  0  0  0  0  0
   10.4091  -17.6919   19.7654 C   0  0  1  0  0  0  0  0  0  0  0  0
   10.9865  -17.5001   18.4049 C   0  0  0  0  0  0  0  0  0  0  0  0
   12.2236  -18.3178   18.3121 C   0  0  0  0  0  0  0  0  0  0  0  0
   12.9915  -18.5117   19.2882 O   0  0  0  0  0  0  0  0  0  0  0  0
   10.1770  -16.4382   20.5059 C   0  0  0  0  0  0  0  0  0  0  0  0
   11.1734  -15.6950   20.6986 O   0  0  0  0  0  0  0  0  0  0  0  0
   12.5749  -18.9092   17.1014 O   0  0  0  0  0  0  0  0  0  0  0  0
    7.8177  -13.6287   19.7079 C   0  0  0  0  0  0  0  0  0  0  0  0
    7.5526  -14.0198   21.1296 C   0  0  1  0  0  0  0  0  0  0  0  0
    6.2823  -14.8475   21.1292 C   0  0  0  0  0  0  0  0  0  0  0  0
    8.7171  -14.7401   21.7129 C   0  0  2  0  0  0  0  0  0  0  0  0
    8.9318  -16.0165   21.0085 N   0  0  0  0  0  0  0  0  0  0  0  0
    8.5392  -14.9754   23.1461 C   0  0  0  0  0  0  0  0  0  0  0  0
    7.6803  -15.8593   23.5313 O   0  0  0  0  0  0  0  0  0  0  0  0
    7.5407  -14.4256   25.9579 C   0  0  0  0  0  0  0  0  0  0  0  0
    8.9805  -14.7095   25.5924 C   0  0  2  0  0  0  0  0  0  0  0  0
    9.2182  -14.3354   24.2019 N   0  0  0  0  0  0  0  0  0  0  0  0
    9.3307  -16.1284   25.8408 C   0  0  0  0  0  0  0  0  0  0  0  0
    9.5432  -16.8332   24.8115 O   0  0  0  0  0  0  0  0  0  0  0  0
    9.4365  -16.7103   27.0742 O   0  0  0  0  0  0  0  0  0  0  0  0
  2  1  1  6
  2  6  1  0
  3  4  1  0
  3  2  1  0
  4  5  2  0
  6 13  1  0
  6  7  2  0
  8  4  1  0
 10  9  1  6
 10 12  1  0
 11 10  1  0
 12 14  1  0
 12 13  1  6
 14 18  1  0
 15 14  2  0
 17 16  1  6
 18 17  1  0
 19 17  1  0
 19 21  1  0
 20 19  2  0
M  END
$$$$
