DVA.pdb
     RDKit          3D

 21 20  0  0  1  0  0  0  0  0999 V2000
    8.7441  -17.3507   16.0285 N   0  0  0  0  0  0  0  0  0  0  0  0
    7.9839  -17.1711   17.2290 C   0  0  1  0  0  0  0  0  0  0  0  0
    7.4532  -18.4892   17.6784 C   0  0  0  0  0  0  0  0  0  0  0  0
    6.5446  -19.0026   16.6209 C   0  0  0  0  0  0  0  0  0  0  0  0
    6.9559  -19.6066   15.5981 O   0  0  0  0  0  0  0  0  0  0  0  0
    8.7113  -16.4248   18.2721 C   0  0  0  0  0  0  0  0  0  0  0  0
    9.9598  -16.5722   18.3154 O   0  0  0  0  0  0  0  0  0  0  0  0
    5.1691  -18.8215   16.7402 O   0  0  0  0  0  0  0  0  0  0  0  0
    7.7140  -12.7454   19.7392 C   0  0  0  0  0  0  0  0  0  0  0  0
    8.0442  -13.7373   20.8123 C   0  0  1  0  0  0  0  0  0  0  0  0
    6.7279  -14.1937   21.4103 C   0  0  0  0  0  0  0  0  0  0  0  0
    8.8589  -14.8594   20.2720 C   0  0  2  0  0  0  0  0  0  0  0  0
    8.1148  -15.5667   19.2149 N   0  0  0  0  0  0  0  0  0  0  0  0
    9.2519  -15.7936   21.3274 C   0  0  0  0  0  0  0  0  0  0  0  0
    8.3311  -16.4228   21.9782 O   0  0  0  0  0  0  0  0  0  0  0  0
   11.3284  -18.3364   22.3349 C   0  0  0  0  0  0  0  0  0  0  0  0
   10.8101  -17.0141   22.8546 C   0  0  2  0  0  0  0  0  0  0  0  0
   10.5627  -16.1089   21.7369 N   0  0  0  0  0  0  0  0  0  0  0  0
   11.7438  -16.4182   23.8399 C   0  0  0  0  0  0  0  0  0  0  0  0
   11.9268  -17.0841   24.9003 O   0  0  0  0  0  0  0  0  0  0  0  0
   12.4024  -15.2295   23.6835 O   0  0  0  0  0  0  0  0  0  0  0  0
  2  1  1  6
  2  6  1  0
  3  4  1  0
  3  2  1  0
  4  5  2  0
  6 13  1  0
  6  7  2  0
  8  4  1  0
 10  9  1  6
 10 12  1  0
 11 10  1  0
 12 14  1  0
 12 13  1  6
 14 18  1  0
 15 14  2  0
 17 16  1  6
 18 17  1  0
 19 17  1  0
 19 21  1  0
 20 19  2  0
M  END
$$$$
