DVA.pdb
     RDKit          3D

 21 20  0  0  1  0  0  0  0  0999 V2000
    8.9750  -16.5216   19.4844 N   0  0  0  0  0  0  0  0  0  0  0  0
    9.0620  -17.5012   20.5257 C   0  0  1  0  0  0  0  0  0  0  0  0
    9.8094  -18.6890   20.0240 C   0  0  0  0  0  0  0  0  0  0  0  0
    9.0655  -19.2420   18.8627 C   0  0  0  0  0  0  0  0  0  0  0  0
    8.3539  -18.5351   18.1052 O   0  0  0  0  0  0  0  0  0  0  0  0
    9.5756  -16.9561   21.7958 C   0  0  0  0  0  0  0  0  0  0  0  0
   10.8212  -16.8095   21.8932 O   0  0  0  0  0  0  0  0  0  0  0  0
    9.1405  -20.6025   18.5751 O   0  0  0  0  0  0  0  0  0  0  0  0
    8.2035  -13.8609   23.6205 C   0  0  0  0  0  0  0  0  0  0  0  0
    8.3901  -14.9428   24.6398 C   0  0  1  0  0  0  0  0  0  0  0  0
    7.0101  -15.4714   24.9787 C   0  0  0  0  0  0  0  0  0  0  0  0
    9.3113  -15.9984   24.1377 C   0  0  2  0  0  0  0  0  0  0  0  0
    8.7797  -16.5911   22.8978 N   0  0  0  0  0  0  0  0  0  0  0  0
    9.5335  -17.0386   25.1425 C   0  0  0  0  0  0  0  0  0  0  0  0
    8.5897  -17.8869   25.3814 O   0  0  0  0  0  0  0  0  0  0  0  0
   12.0622  -19.0769   26.7324 C   0  0  0  0  0  0  0  0  0  0  0  0
   10.7716  -18.3076   26.9051 C   0  0  2  0  0  0  0  0  0  0  0  0
   10.6970  -17.2420   25.9107 N   0  0  0  0  0  0  0  0  0  0  0  0
   10.6407  -17.7754   28.2826 C   0  0  0  0  0  0  0  0  0  0  0  0
   10.6055  -16.5147   28.3866 O   0  0  0  0  0  0  0  0  0  0  0  0
   10.5577  -18.5352   29.4170 O   0  0  0  0  0  0  0  0  0  0  0  0
  2  1  1  6
  2  6  1  0
  3  4  1  0
  3  2  1  0
  4  5  2  0
  6 13  1  0
  6  7  2  0
  8  4  1  0
 10  9  1  6
 10 12  1  0
 11 10  1  0
 12 14  1  0
 12 13  1  6
 14 18  1  0
 15 14  2  0
 17 16  1  1
 18 17  1  0
 19 17  1  0
 19 21  1  0
 20 19  2  0
M  END
$$$$
