DVA.pdb
     RDKit          3D

 21 20  0  0  1  0  0  0  0  0999 V2000
    8.6441  -17.1414   16.2351 N   0  0  0  0  0  0  0  0  0  0  0  0
    8.1540  -17.3422   17.5658 C   0  0  1  0  0  0  0  0  0  0  0  0
    8.1363  -18.8011   17.8699 C   0  0  0  0  0  0  0  0  0  0  0  0
    7.1141  -19.4386   17.0003 C   0  0  0  0  0  0  0  0  0  0  0  0
    7.4044  -20.2343   16.0716 O   0  0  0  0  0  0  0  0  0  0  0  0
    8.8531  -16.5233   18.5731 C   0  0  0  0  0  0  0  0  0  0  0  0
   10.1083  -16.4794   18.5034 O   0  0  0  0  0  0  0  0  0  0  0  0
    5.7640  -19.1611   17.1989 O   0  0  0  0  0  0  0  0  0  0  0  0
    7.6830  -12.9305   19.9700 C   0  0  0  0  0  0  0  0  0  0  0  0
    8.0559  -13.8710   21.0750 C   0  0  1  0  0  0  0  0  0  0  0  0
    6.7604  -14.3869   21.6702 C   0  0  0  0  0  0  0  0  0  0  0  0
    8.9418  -14.9582   20.5767 C   0  0  2  0  0  0  0  0  0  0  0  0
    8.2229  -15.7933   19.5983 N   0  0  0  0  0  0  0  0  0  0  0  0
    9.4468  -15.7838   21.6741 C   0  0  0  0  0  0  0  0  0  0  0  0
    8.7163  -16.7544   22.1120 O   0  0  0  0  0  0  0  0  0  0  0  0
   12.6087  -16.6964   23.3869 C   0  0  0  0  0  0  0  0  0  0  0  0
   11.0995  -16.6025   23.3619 C   0  0  2  0  0  0  0  0  0  0  0  0
   10.6826  -15.6501   22.3377 N   0  0  0  0  0  0  0  0  0  0  0  0
   10.5592  -16.2392   24.6938 C   0  0  0  0  0  0  0  0  0  0  0  0
   10.0312  -15.0925   24.7816 O   0  0  0  0  0  0  0  0  0  0  0  0
   10.5925  -17.0387   25.8032 O   0  0  0  0  0  0  0  0  0  0  0  0
  2  1  1  6
  2  6  1  0
  3  4  1  0
  3  2  1  0
  4  5  2  0
  6 13  1  0
  6  7  2  0
  8  4  1  0
 10  9  1  6
 10 12  1  0
 11 10  1  0
 12 14  1  0
 12 13  1  6
 14 18  1  0
 15 14  2  0
 17 16  1  1
 18 17  1  0
 19 17  1  0
 19 21  1  0
 20 19  2  0
M  END
$$$$
