DVA.pdb
     RDKit          3D

 21 20  0  0  1  0  0  0  0  0999 V2000
   10.6166  -18.4632   18.6190 N   0  0  0  0  0  0  0  0  0  0  0  0
    9.4592  -18.1652   19.4082 C   0  0  1  0  0  0  0  0  0  0  0  0
    9.2067  -19.2870   20.3563 C   0  0  0  0  0  0  0  0  0  0  0  0
    8.8913  -20.5000   19.5583 C   0  0  0  0  0  0  0  0  0  0  0  0
    8.2269  -20.4649   18.4918 O   0  0  0  0  0  0  0  0  0  0  0  0
    9.5155  -16.8366   20.0449 C   0  0  0  0  0  0  0  0  0  0  0  0
   10.6073  -16.5006   20.5716 O   0  0  0  0  0  0  0  0  0  0  0  0
    9.3385  -21.7474   19.9862 O   0  0  0  0  0  0  0  0  0  0  0  0
    7.4979  -12.3872   20.9745 C   0  0  0  0  0  0  0  0  0  0  0  0
    7.4780  -13.7007   20.2542 C   0  0  1  0  0  0  0  0  0  0  0  0
    7.6744  -13.3984   18.7815 C   0  0  0  0  0  0  0  0  0  0  0  0
    8.5066  -14.6270   20.8010 C   0  0  2  0  0  0  0  0  0  0  0  0
    8.4450  -15.9247   20.1057 N   0  0  0  0  0  0  0  0  0  0  0  0
    8.3457  -14.8161   22.2430 C   0  0  0  0  0  0  0  0  0  0  0  0
    7.4434  -15.6363   22.6679 O   0  0  0  0  0  0  0  0  0  0  0  0
    7.3621  -14.4833   24.9579 C   0  0  0  0  0  0  0  0  0  0  0  0
    8.8472  -14.5101   24.6730 C   0  0  2  0  0  0  0  0  0  0  0  0
    9.0846  -14.1932   23.2683 N   0  0  0  0  0  0  0  0  0  0  0  0
    9.4445  -15.8153   25.0440 C   0  0  0  0  0  0  0  0  0  0  0  0
    9.3824  -16.1225   26.2700 O   0  0  0  0  0  0  0  0  0  0  0  0
   10.0415  -16.6853   24.1735 O   0  0  0  0  0  0  0  0  0  0  0  0
  2  1  1  1
  2  6  1  0
  3  4  1  0
  3  2  1  0
  4  5  2  0
  6 13  1  0
  6  7  2  0
  8  4  1  0
 10  9  1  1
 10 12  1  0
 11 10  1  0
 12 14  1  0
 12 13  1  6
 14 18  1  0
 15 14  2  0
 17 16  1  6
 18 17  1  0
 19 17  1  0
 19 21  1  0
 20 19  2  0
M  END
$$$$
