DVA.pdb
     RDKit          3D

 21 20  0  0  1  0  0  0  0  0999 V2000
    8.3292  -15.0527   20.4483 N   0  0  0  0  0  0  0  0  0  0  0  0
    7.8735  -15.6177   21.6830 C   0  0  1  0  0  0  0  0  0  0  0  0
    8.0660  -17.0952   21.6498 C   0  0  0  0  0  0  0  0  0  0  0  0
    6.8093  -17.7105   21.1502 C   0  0  0  0  0  0  0  0  0  0  0  0
    5.8362  -17.0354   20.7290 O   0  0  0  0  0  0  0  0  0  0  0  0
    8.4479  -14.9599   22.8709 C   0  0  0  0  0  0  0  0  0  0  0  0
    9.6993  -14.8365   22.9075 O   0  0  0  0  0  0  0  0  0  0  0  0
    6.6734  -19.0963   21.1359 O   0  0  0  0  0  0  0  0  0  0  0  0
    6.1426  -13.7721   26.3058 C   0  0  0  0  0  0  0  0  0  0  0  0
    7.2689  -12.9292   25.7905 C   0  0  1  0  0  0  0  0  0  0  0  0
    7.8188  -12.1577   26.9742 C   0  0  0  0  0  0  0  0  0  0  0  0
    8.2963  -13.7652   25.1118 C   0  0  2  0  0  0  0  0  0  0  0  0
    7.7036  -14.4641   23.9578 N   0  0  0  0  0  0  0  0  0  0  0  0
    8.8983  -14.7287   26.0338 C   0  0  0  0  0  0  0  0  0  0  0  0
    8.2522  -15.8108   26.3150 O   0  0  0  0  0  0  0  0  0  0  0  0
   12.1624  -15.7451   27.4415 C   0  0  0  0  0  0  0  0  0  0  0  0
   10.6536  -15.6912   27.5314 C   0  0  2  0  0  0  0  0  0  0  0  0
   10.1476  -14.6220   26.6766 N   0  0  0  0  0  0  0  0  0  0  0  0
   10.2020  -15.5255   28.9337 C   0  0  0  0  0  0  0  0  0  0  0  0
    9.7730  -14.3760   29.2436 O   0  0  0  0  0  0  0  0  0  0  0  0
   10.2178  -16.5051   29.8882 O   0  0  0  0  0  0  0  0  0  0  0  0
  2  1  1  6
  2  6  1  0
  3  4  1  0
  3  2  1  0
  4  5  2  0
  6 13  1  0
  6  7  2  0
  8  4  1  0
 10  9  1  1
 10 12  1  0
 11 10  1  0
 12 14  1  0
 12 13  1  6
 14 18  1  0
 15 14  2  0
 17 16  1  1
 18 17  1  0
 19 17  1  0
 19 21  1  0
 20 19  2  0
M  END
$$$$
