DVA.pdb
     RDKit          3D

 21 20  0  0  1  0  0  0  0  0999 V2000
    7.7993  -15.3653   20.5983 N   0  0  0  0  0  0  0  0  0  0  0  0
    7.2608  -15.6760   21.8885 C   0  0  1  0  0  0  0  0  0  0  0  0
    7.0873  -17.1514   22.0081 C   0  0  0  0  0  0  0  0  0  0  0  0
    6.0028  -17.5625   21.0794 C   0  0  0  0  0  0  0  0  0  0  0  0
    6.2207  -17.9845   19.9156 O   0  0  0  0  0  0  0  0  0  0  0  0
    8.0165  -15.0644   22.9971 C   0  0  0  0  0  0  0  0  0  0  0  0
    9.2707  -15.1492   22.9496 O   0  0  0  0  0  0  0  0  0  0  0  0
    4.6738  -17.4880   21.4886 O   0  0  0  0  0  0  0  0  0  0  0  0
    6.1001  -13.3899   26.3997 C   0  0  0  0  0  0  0  0  0  0  0  0
    7.4117  -12.8251   25.9467 C   0  0  1  0  0  0  0  0  0  0  0  0
    8.1095  -12.2875   27.1807 C   0  0  0  0  0  0  0  0  0  0  0  0
    8.2141  -13.8484   25.2228 C   0  0  2  0  0  0  0  0  0  0  0  0
    7.4410  -14.3982   24.0953 N   0  0  0  0  0  0  0  0  0  0  0  0
    8.6426  -14.9247   26.1167 C   0  0  0  0  0  0  0  0  0  0  0  0
    7.7669  -15.7801   26.5277 O   0  0  0  0  0  0  0  0  0  0  0  0
   11.5511  -16.9404   26.9830 C   0  0  0  0  0  0  0  0  0  0  0  0
   10.2479  -16.3184   27.4323 C   0  0  2  0  0  0  0  0  0  0  0  0
    9.9448  -15.1571   26.6019 N   0  0  0  0  0  0  0  0  0  0  0  0
   10.2874  -15.9623   28.8708 C   0  0  0  0  0  0  0  0  0  0  0  0
   10.3211  -14.7247   29.1328 O   0  0  0  0  0  0  0  0  0  0  0  0
   10.2898  -16.8575   29.9051 O   0  0  0  0  0  0  0  0  0  0  0  0
  2  1  1  6
  2  6  1  0
  3  4  1  0
  3  2  1  0
  4  5  2  0
  6 13  1  0
  6  7  2  0
  8  4  1  0
 10  9  1  1
 10 12  1  0
 11 10  1  0
 12 14  1  0
 12 13  1  6
 14 18  1  0
 15 14  2  0
 17 16  1  6
 18 17  1  0
 19 17  1  0
 19 21  1  0
 20 19  2  0
M  END
$$$$
