DVA.pdb
     RDKit          3D

 21 20  0  0  1  0  0  0  0  0999 V2000
   11.5316  -16.9231   19.9501 N   0  0  0  0  0  0  0  0  0  0  0  0
   11.7488  -17.2195   21.3344 C   0  0  1  0  0  0  0  0  0  0  0  0
   13.2057  -17.4247   21.5720 C   0  0  0  0  0  0  0  0  0  0  0  0
   13.6221  -18.6482   20.8390 C   0  0  0  0  0  0  0  0  0  0  0  0
   12.8150  -19.5476   20.4928 O   0  0  0  0  0  0  0  0  0  0  0  0
   11.1195  -16.2443   22.2439 C   0  0  0  0  0  0  0  0  0  0  0  0
   11.3571  -15.0275   22.0308 O   0  0  0  0  0  0  0  0  0  0  0  0
   14.9612  -18.8354   20.5063 O   0  0  0  0  0  0  0  0  0  0  0  0
    7.5450  -15.5720   22.7807 C   0  0  0  0  0  0  0  0  0  0  0  0
    8.1171  -15.8259   24.1418 C   0  0  1  0  0  0  0  0  0  0  0  0
    7.7497  -17.2486   24.5156 C   0  0  0  0  0  0  0  0  0  0  0  0
    9.5846  -15.5791   24.1604 C   0  0  2  0  0  0  0  0  0  0  0  0
   10.2794  -16.5736   23.3240 N   0  0  0  0  0  0  0  0  0  0  0  0
   10.1153  -15.6034   25.5238 C   0  0  0  0  0  0  0  0  0  0  0  0
   10.7889  -16.6342   25.9127 O   0  0  0  0  0  0  0  0  0  0  0  0
   10.2976  -13.5257   28.6611 C   0  0  0  0  0  0  0  0  0  0  0  0
   10.4892  -14.7936   27.8593 C   0  0  2  0  0  0  0  0  0  0  0  0
    9.9819  -14.6007   26.5046 N   0  0  0  0  0  0  0  0  0  0  0  0
    9.8446  -15.9532   28.5208 C   0  0  0  0  0  0  0  0  0  0  0  0
    8.7397  -16.3257   28.0291 O   0  0  0  0  0  0  0  0  0  0  0  0
   10.3505  -16.6285   29.5974 O   0  0  0  0  0  0  0  0  0  0  0  0
  2  1  1  6
  2  6  1  0
  3  4  1  0
  3  2  1  0
  4  5  2  0
  6 13  1  0
  6  7  2  0
  8  4  1  0
 10  9  1  6
 10 12  1  0
 11 10  1  0
 12 14  1  0
 12 13  1  6
 14 18  1  0
 15 14  2  0
 17 16  1  1
 18 17  1  0
 19 17  1  0
 19 21  1  0
 20 19  2  0
M  END
$$$$
