DVA.pdb
     RDKit          3D

 21 20  0  0  1  0  0  0  0  0999 V2000
    8.8978  -17.7813   16.5214 N   0  0  0  0  0  0  0  0  0  0  0  0
    8.0310  -17.6105   17.6487 C   0  0  1  0  0  0  0  0  0  0  0  0
    7.5385  -18.9434   18.0983 C   0  0  0  0  0  0  0  0  0  0  0  0
    6.4662  -19.3749   17.1648 C   0  0  0  0  0  0  0  0  0  0  0  0
    6.5885  -19.3333   15.9144 O   0  0  0  0  0  0  0  0  0  0  0  0
    8.6262  -16.7927   18.7215 C   0  0  0  0  0  0  0  0  0  0  0  0
    9.8641  -16.9110   18.9110 O   0  0  0  0  0  0  0  0  0  0  0  0
    5.2587  -19.8520   17.6684 O   0  0  0  0  0  0  0  0  0  0  0  0
    8.1723  -13.2442   22.1968 C   0  0  0  0  0  0  0  0  0  0  0  0
    7.6236  -13.9896   21.0188 C   0  0  1  0  0  0  0  0  0  0  0  0
    7.4067  -12.9722   19.9159 C   0  0  0  0  0  0  0  0  0  0  0  0
    8.5305  -15.0994   20.6176 C   0  0  2  0  0  0  0  0  0  0  0  0
    7.9153  -15.8967   19.5419 N   0  0  0  0  0  0  0  0  0  0  0  0
    8.8659  -15.9559   21.7555 C   0  0  0  0  0  0  0  0  0  0  0  0
    7.9096  -16.5183   22.4163 O   0  0  0  0  0  0  0  0  0  0  0  0
   11.0667  -18.3906   22.9690 C   0  0  0  0  0  0  0  0  0  0  0  0
   10.3442  -17.1315   23.3934 C   0  0  2  0  0  0  0  0  0  0  0  0
   10.1542  -16.2600   22.2382 N   0  0  0  0  0  0  0  0  0  0  0  0
   11.0671  -16.4365   24.4852 C   0  0  0  0  0  0  0  0  0  0  0  0
   11.6700  -15.3729   24.1590 O   0  0  0  0  0  0  0  0  0  0  0  0
   11.1241  -16.8567   25.7857 O   0  0  0  0  0  0  0  0  0  0  0  0
  2  1  1  6
  2  6  1  0
  3  4  1  0
  3  2  1  0
  4  5  2  0
  6 13  1  0
  6  7  2  0
  8  4  1  0
 10  9  1  1
 10 12  1  0
 11 10  1  0
 12 14  1  0
 12 13  1  6
 14 18  1  0
 15 14  2  0
 17 16  1  6
 18 17  1  0
 19 17  1  0
 19 21  1  0
 20 19  2  0
M  END
$$$$
