MIS.pdb
     RDKit          3D

 23 22  0  0  1  0  0  0  0  0999 V2000
    7.6864  -11.0241   26.7544 C   0  0  0  0  0  0  0  0  0  0  0  0
    6.5622  -11.9391   27.8340 S   0  0  0  0  0  0  0  0  0  0  0  0
    5.8654  -13.3082   26.8428 C   0  0  0  0  0  0  0  0  0  0  0  0
    6.9475  -13.9164   25.9598 C   0  0  0  0  0  0  0  0  0  0  0  0
    6.3006  -14.9738   25.0910 C   0  0  2  0  0  0  0  0  0  0  0  0
    5.8615  -16.0899   25.9062 N   0  0  0  0  0  0  0  0  0  0  0  0
    7.2355  -15.4826   24.0576 C   0  0  0  0  0  0  0  0  0  0  0  0
    7.5984  -16.6841   24.0730 O   0  0  0  0  0  0  0  0  0  0  0  0
    7.3727  -12.5873   19.5898 C   0  0  0  0  0  0  0  0  0  0  0  0
    7.2253  -13.9823   20.2442 C   0  0  0  0  0  0  0  0  0  0  0  0
    8.6056  -14.2815   20.7683 C   0  0  2  0  0  0  0  0  0  0  0  0
    9.3527  -14.9272   19.6092 C   0  0  0  0  0  0  0  0  0  0  0  0
    8.6498  -15.1863   21.9696 C   0  0  2  0  0  0  0  0  0  0  0  0
    7.7627  -14.6743   23.0205 N   0  0  0  0  0  0  0  0  0  0  0  0
    9.9788  -15.3785   22.5581 C   0  0  0  0  0  0  0  0  0  0  0  0
   10.3123  -14.7761   23.6373 O   0  0  0  0  0  0  0  0  0  0  0  0
   11.9292  -18.6095   24.4995 O   0  0  0  0  0  0  0  0  0  0  0  0
   11.0410  -17.8891   23.6955 C   0  0  0  0  0  0  0  0  0  0  0  0
   11.9166  -16.9543   22.8466 C   0  0  2  0  0  0  0  0  0  0  0  0
   10.9626  -16.2205   22.0004 N   0  0  0  0  0  0  0  0  0  0  0  0
   12.8813  -17.7002   22.0444 C   0  0  0  0  0  0  0  0  0  0  0  0
   14.1864  -17.8238   22.4686 O   0  0  0  0  0  0  0  0  0  0  0  0
   12.5351  -18.2330   20.9676 O   0  0  0  0  0  0  0  0  0  0  0  0
  1  2  1  0
  2  3  1  0
  4  3  1  0
  5  4  1  0
  5  6  1  1
  7  5  1  0
  7  8  2  0
  9 10  1  0
 10 11  1  0
 11 13  1  0
 11 12  1  6
 13 14  1  1
 14  7  1  0
 15 13  1  0
 16 15  2  0
 18 17  1  0
 19 18  1  1
 19 20  1  0
 20 15  1  0
 21 19  1  0
 22 21  1  0
 23 21  2  0
M  END
$$$$
