MIS.pdb
     RDKit          3D

 23 22  0  0  1  0  0  0  0  0999 V2000
    6.4804  -12.0343   26.2098 C   0  0  0  0  0  0  0  0  0  0  0  0
    7.5808  -12.7643   27.4437 S   0  0  0  0  0  0  0  0  0  0  0  0
    8.3256  -14.2507   26.6828 C   0  0  0  0  0  0  0  0  0  0  0  0
    7.4267  -15.4593   26.9104 C   0  0  0  0  0  0  0  0  0  0  0  0
    6.5479  -15.6233   25.6888 C   0  0  2  0  0  0  0  0  0  0  0  0
    5.5854  -16.6863   25.9050 N   0  0  0  0  0  0  0  0  0  0  0  0
    7.3437  -15.9454   24.4790 C   0  0  0  0  0  0  0  0  0  0  0  0
    7.7885  -17.1067   24.3083 O   0  0  0  0  0  0  0  0  0  0  0  0
    7.2362  -12.3310   20.2450 C   0  0  0  0  0  0  0  0  0  0  0  0
    7.0036  -13.7230   20.8810 C   0  0  0  0  0  0  0  0  0  0  0  0
    8.3817  -14.1599   21.3045 C   0  0  2  0  0  0  0  0  0  0  0  0
    9.1056  -14.5354   20.0186 C   0  0  0  0  0  0  0  0  0  0  0  0
    8.4172  -15.3173   22.2653 C   0  0  2  0  0  0  0  0  0  0  0  0
    7.6446  -14.9967   23.4710 N   0  0  0  0  0  0  0  0  0  0  0  0
    9.7566  -15.7367   22.6885 C   0  0  0  0  0  0  0  0  0  0  0  0
   10.4677  -14.9927   23.4498 O   0  0  0  0  0  0  0  0  0  0  0  0
   10.9945  -19.3268   21.7871 O   0  0  0  0  0  0  0  0  0  0  0  0
   11.7281  -18.8151   22.8614 C   0  0  0  0  0  0  0  0  0  0  0  0
   11.7333  -17.2904   22.6699 C   0  0  2  0  0  0  0  0  0  0  0  0
   10.3471  -16.9584   22.3053 N   0  0  0  0  0  0  0  0  0  0  0  0
   12.6736  -16.8807   21.6314 C   0  0  0  0  0  0  0  0  0  0  0  0
   14.0307  -16.9466   21.8607 O   0  0  0  0  0  0  0  0  0  0  0  0
   12.2594  -16.4670   20.5266 O   0  0  0  0  0  0  0  0  0  0  0  0
  1  2  1  0
  2  3  1  0
  4  3  1  0
  5  4  1  0
  5  6  1  1
  7  5  1  0
  7  8  2  0
  9 10  1  0
 10 11  1  0
 11 13  1  0
 11 12  1  6
 13 14  1  1
 14  7  1  0
 15 13  1  0
 16 15  2  0
 18 17  1  0
 19 18  1  6
 19 20  1  0
 20 15  1  0
 21 19  1  0
 22 21  1  0
 23 21  2  0
M  END
$$$$
