MIS.pdb
     RDKit          3D

 23 22  0  0  1  0  0  0  0  0999 V2000
    6.6929  -11.4362   26.6188 C   0  0  0  0  0  0  0  0  0  0  0  0
    6.9954  -12.7088   27.8660 S   0  0  0  0  0  0  0  0  0  0  0  0
    6.4350  -14.2974   27.1554 C   0  0  0  0  0  0  0  0  0  0  0  0
    7.3641  -14.7198   26.0245 C   0  0  0  0  0  0  0  0  0  0  0  0
    6.5987  -15.6607   25.1189 C   0  0  2  0  0  0  0  0  0  0  0  0
    6.3872  -16.9321   25.7837 N   0  0  0  0  0  0  0  0  0  0  0  0
    7.3209  -15.9071   23.8467 C   0  0  0  0  0  0  0  0  0  0  0  0
    7.5049  -17.0817   23.4440 O   0  0  0  0  0  0  0  0  0  0  0  0
    7.0978  -11.9181   20.1363 C   0  0  0  0  0  0  0  0  0  0  0  0
    6.9095  -13.3764   20.6202 C   0  0  0  0  0  0  0  0  0  0  0  0
    8.3155  -13.8583   20.8661 C   0  0  2  0  0  0  0  0  0  0  0  0
    8.9072  -14.1159   19.4869 C   0  0  0  0  0  0  0  0  0  0  0  0
    8.4263  -15.1005   21.7077 C   0  0  2  0  0  0  0  0  0  0  0  0
    7.8334  -14.8692   23.0300 N   0  0  0  0  0  0  0  0  0  0  0  0
    9.7901  -15.5995   21.9081 C   0  0  0  0  0  0  0  0  0  0  0  0
   10.4932  -16.0046   20.9180 O   0  0  0  0  0  0  0  0  0  0  0  0
   11.1981  -16.7182   25.5331 O   0  0  0  0  0  0  0  0  0  0  0  0
   12.1222  -15.9658   24.8023 C   0  0  0  0  0  0  0  0  0  0  0  0
   11.7763  -16.2075   23.3248 C   0  0  2  0  0  0  0  0  0  0  0  0
   10.4172  -15.6659   23.1692 N   0  0  0  0  0  0  0  0  0  0  0  0
   11.8306  -17.6257   22.9834 C   0  0  0  0  0  0  0  0  0  0  0  0
   13.0361  -18.2930   22.9856 O   0  0  0  0  0  0  0  0  0  0  0  0
   10.7876  -18.2480   22.6864 O   0  0  0  0  0  0  0  0  0  0  0  0
  1  2  1  0
  2  3  1  0
  4  3  1  0
  5  4  1  0
  5  6  1  1
  7  5  1  0
  7  8  2  0
  9 10  1  0
 10 11  1  0
 11 13  1  0
 11 12  1  6
 13 14  1  1
 14  7  1  0
 15 13  1  0
 16 15  2  0
 18 17  1  0
 19 18  1  1
 19 20  1  0
 20 15  1  0
 21 19  1  0
 22 21  1  0
 23 21  2  0
M  END
$$$$
