MIS.pdb
     RDKit          3D

 23 22  0  0  1  0  0  0  0  0999 V2000
    6.0833  -12.1826   26.2918 C   0  0  0  0  0  0  0  0  0  0  0  0
    5.5685  -12.1649   24.5595 S   0  0  0  0  0  0  0  0  0  0  0  0
    6.9140  -12.9397   23.5941 C   0  0  0  0  0  0  0  0  0  0  0  0
    7.5454  -14.0715   24.3946 C   0  0  0  0  0  0  0  0  0  0  0  0
    8.7864  -14.5280   23.6576 C   0  0  2  0  0  0  0  0  0  0  0  0
    8.4308  -15.0315   22.3449 N   0  0  0  0  0  0  0  0  0  0  0  0
    9.5013  -15.5977   24.3961 C   0  0  0  0  0  0  0  0  0  0  0  0
   10.3029  -16.3522   23.7929 O   0  0  0  0  0  0  0  0  0  0  0  0
   10.3226  -13.3653   29.1770 C   0  0  0  0  0  0  0  0  0  0  0  0
   10.5870  -13.9452   27.7663 C   0  0  0  0  0  0  0  0  0  0  0  0
   10.3857  -15.4276   27.9431 C   0  0  2  0  0  0  0  0  0  0  0  0
   11.4969  -15.8831   28.8793 C   0  0  0  0  0  0  0  0  0  0  0  0
   10.4278  -16.2334   26.6732 C   0  0  2  0  0  0  0  0  0  0  0  0
    9.3327  -15.8309   25.7832 N   0  0  0  0  0  0  0  0  0  0  0  0
   10.3499  -17.6863   26.8525 C   0  0  0  0  0  0  0  0  0  0  0  0
    9.2816  -18.2371   27.2931 O   0  0  0  0  0  0  0  0  0  0  0  0
   11.7553  -20.0535   24.4340 O   0  0  0  0  0  0  0  0  0  0  0  0
   12.1831  -20.6202   25.6382 C   0  0  0  0  0  0  0  0  0  0  0  0
   11.2752  -20.0205   26.7232 C   0  0  2  0  0  0  0  0  0  0  0  0
   11.4125  -18.5650   26.5581 N   0  0  0  0  0  0  0  0  0  0  0  0
   11.6769  -20.4487   28.0596 C   0  0  0  0  0  0  0  0  0  0  0  0
   11.4897  -21.7556   28.4536 O   0  0  0  0  0  0  0  0  0  0  0  0
   12.1932  -19.6370   28.8583 O   0  0  0  0  0  0  0  0  0  0  0  0
  1  2  1  0
  2  3  1  0
  4  3  1  0
  5  4  1  0
  5  6  1  6
  7  5  1  0
  7  8  2  0
  9 10  1  0
 10 11  1  0
 11 13  1  0
 11 12  1  1
 13 14  1  6
 14  7  1  0
 15 13  1  0
 16 15  2  0
 18 17  1  0
 19 18  1  6
 19 20  1  0
 20 15  1  0
 21 19  1  0
 22 21  1  0
 23 21  2  0
M  END
$$$$
