MIS.pdb
     RDKit          3D

 23 22  0  0  1  0  0  0  0  0999 V2000
    6.3680  -11.1003   27.8272 C   0  0  0  0  0  0  0  0  0  0  0  0
    7.2846  -12.1409   26.6681 S   0  0  0  0  0  0  0  0  0  0  0  0
    6.9200  -13.8782   27.1061 C   0  0  0  0  0  0  0  0  0  0  0  0
    7.7072  -14.8199   26.2038 C   0  0  0  0  0  0  0  0  0  0  0  0
    6.7568  -15.3705   25.1621 C   0  0  2  0  0  0  0  0  0  0  0  0
    6.0099  -16.4872   25.7081 N   0  0  0  0  0  0  0  0  0  0  0  0
    7.4776  -15.8315   23.9503 C   0  0  0  0  0  0  0  0  0  0  0  0
    7.6914  -17.0555   23.7718 O   0  0  0  0  0  0  0  0  0  0  0  0
    7.2579  -12.7785   19.5727 C   0  0  0  0  0  0  0  0  0  0  0  0
    7.2102  -14.1901   20.2061 C   0  0  0  0  0  0  0  0  0  0  0  0
    8.6253  -14.4265   20.6652 C   0  0  2  0  0  0  0  0  0  0  0  0
    9.3680  -14.9572   19.4464 C   0  0  0  0  0  0  0  0  0  0  0  0
    8.7720  -15.3911   21.8106 C   0  0  2  0  0  0  0  0  0  0  0  0
    7.9564  -14.9516   22.9486 N   0  0  0  0  0  0  0  0  0  0  0  0
   10.1434  -15.5873   22.2901 C   0  0  0  0  0  0  0  0  0  0  0  0
   10.5248  -15.0940   23.4081 O   0  0  0  0  0  0  0  0  0  0  0  0
   12.3333  -18.9596   23.6819 O   0  0  0  0  0  0  0  0  0  0  0  0
   11.3689  -18.1319   23.0996 C   0  0  0  0  0  0  0  0  0  0  0  0
   12.1534  -17.0976   22.2775 C   0  0  2  0  0  0  0  0  0  0  0  0
   11.1192  -16.3170   21.5806 N   0  0  0  0  0  0  0  0  0  0  0  0
   13.0670  -17.7378   21.3362 C   0  0  0  0  0  0  0  0  0  0  0  0
   14.3750  -17.9791   21.6958 O   0  0  0  0  0  0  0  0  0  0  0  0
   12.6740  -18.0729   20.1975 O   0  0  0  0  0  0  0  0  0  0  0  0
  1  2  1  0
  2  3  1  0
  4  3  1  0
  5  4  1  0
  5  6  1  1
  7  5  1  0
  7  8  2  0
  9 10  1  0
 10 11  1  0
 11 13  1  0
 11 12  1  6
 13 14  1  1
 14  7  1  0
 15 13  1  0
 16 15  2  0
 18 17  1  0
 19 18  1  6
 19 20  1  0
 20 15  1  0
 21 19  1  0
 22 21  1  0
 23 21  2  0
M  END
$$$$
