MIS.pdb
     RDKit          3D

 23 22  0  0  1  0  0  0  0  0999 V2000
   10.2253  -13.9943   29.9008 C   0  0  0  0  0  0  0  0  0  0  0  0
   10.6242  -15.6705   30.4466 S   0  0  0  0  0  0  0  0  0  0  0  0
    9.5153  -16.8061   29.5391 C   0  0  0  0  0  0  0  0  0  0  0  0
    9.3564  -16.3392   28.0979 C   0  0  0  0  0  0  0  0  0  0  0  0
    8.2453  -17.1494   27.4650 C   0  0  2  0  0  0  0  0  0  0  0  0
    8.4701  -18.5647   27.6877 N   0  0  0  0  0  0  0  0  0  0  0  0
    8.1547  -16.9096   26.0039 C   0  0  0  0  0  0  0  0  0  0  0  0
    7.8841  -17.8566   25.2256 O   0  0  0  0  0  0  0  0  0  0  0  0
    7.0606  -11.8170   24.4230 C   0  0  0  0  0  0  0  0  0  0  0  0
    6.7903  -13.3411   24.4394 C   0  0  0  0  0  0  0  0  0  0  0  0
    7.9791  -13.9250   23.7217 C   0  0  2  0  0  0  0  0  0  0  0  0
    7.7188  -13.6907   22.2399 C   0  0  0  0  0  0  0  0  0  0  0  0
    8.2191  -15.3893   23.9711 C   0  0  2  0  0  0  0  0  0  0  0  0
    8.3604  -15.6400   25.4101 N   0  0  0  0  0  0  0  0  0  0  0  0
    9.3942  -15.9528   23.2996 C   0  0  0  0  0  0  0  0  0  0  0  0
   10.5663  -15.4938   23.5322 O   0  0  0  0  0  0  0  0  0  0  0  0
    8.8093  -18.6499   20.5707 O   0  0  0  0  0  0  0  0  0  0  0  0
   10.1045  -18.8410   21.0609 C   0  0  0  0  0  0  0  0  0  0  0  0
   10.5231  -17.4899   21.6612 C   0  0  2  0  0  0  0  0  0  0  0  0
    9.3276  -17.0159   22.3759 N   0  0  0  0  0  0  0  0  0  0  0  0
   10.9392  -16.5466   20.6280 C   0  0  0  0  0  0  0  0  0  0  0  0
   12.1062  -16.7578   19.9266 O   0  0  0  0  0  0  0  0  0  0  0  0
   10.2436  -15.5404   20.3691 O   0  0  0  0  0  0  0  0  0  0  0  0
  1  2  1  0
  2  3  1  0
  4  3  1  0
  5  4  1  0
  5  6  1  6
  7  5  1  0
  7  8  2  0
  9 10  1  0
 10 11  1  0
 11 13  1  0
 11 12  1  6
 13 14  1  1
 14  7  1  0
 15 13  1  0
 16 15  2  0
 18 17  1  0
 19 18  1  6
 19 20  1  0
 20 15  1  0
 21 19  1  0
 22 21  1  0
 23 21  2  0
M  END
$$$$
