MIS.pdb
     RDKit          3D

 23 22  0  0  1  0  0  0  0  0999 V2000
    8.7102  -22.8914   15.8314 C   0  0  0  0  0  0  0  0  0  0  0  0
    9.2797  -21.8568   17.1996 S   0  0  0  0  0  0  0  0  0  0  0  0
    9.2269  -20.1244   16.6176 C   0  0  0  0  0  0  0  0  0  0  0  0
    9.7141  -19.1896   17.7172 C   0  0  0  0  0  0  0  0  0  0  0  0
    9.5287  -17.7665   17.2355 C   0  0  2  0  0  0  0  0  0  0  0  0
   10.3648  -17.5186   16.0768 N   0  0  0  0  0  0  0  0  0  0  0  0
    9.8761  -16.7808   18.2883 C   0  0  0  0  0  0  0  0  0  0  0  0
   11.0009  -16.2237   18.2834 O   0  0  0  0  0  0  0  0  0  0  0  0
    6.5680  -12.9029   20.1288 C   0  0  0  0  0  0  0  0  0  0  0  0
    7.8514  -13.5981   19.6133 C   0  0  0  0  0  0  0  0  0  0  0  0
    8.2009  -14.5683   20.7114 C   0  0  2  0  0  0  0  0  0  0  0  0
    8.5289  -13.7110   21.9263 C   0  0  0  0  0  0  0  0  0  0  0  0
    9.3546  -15.4856   20.4092 C   0  0  2  0  0  0  0  0  0  0  0  0
    8.9921  -16.4153   19.3332 N   0  0  0  0  0  0  0  0  0  0  0  0
    9.8360  -16.2784   21.5445 C   0  0  0  0  0  0  0  0  0  0  0  0
    9.0663  -17.1128   22.1361 O   0  0  0  0  0  0  0  0  0  0  0  0
   13.5018  -15.6976   23.0406 O   0  0  0  0  0  0  0  0  0  0  0  0
   13.1466  -17.0495   23.0183 C   0  0  0  0  0  0  0  0  0  0  0  0
   11.6144  -17.0765   23.1325 C   0  0  2  0  0  0  0  0  0  0  0  0
   11.1471  -16.1898   22.0555 N   0  0  0  0  0  0  0  0  0  0  0  0
   11.1631  -16.6141   24.4414 C   0  0  0  0  0  0  0  0  0  0  0  0
   10.3766  -15.4875   24.5446 O   0  0  0  0  0  0  0  0  0  0  0  0
   11.4843  -17.2330   25.4792 O   0  0  0  0  0  0  0  0  0  0  0  0
  1  2  1  0
  2  3  1  0
  4  3  1  0
  5  4  1  0
  5  6  1  6
  7  5  1  0
  7  8  2  0
  9 10  1  0
 10 11  1  0
 11 13  1  0
 11 12  1  1
 13 14  1  6
 14  7  1  0
 15 13  1  0
 16 15  2  0
 18 17  1  0
 19 18  1  1
 19 20  1  0
 20 15  1  0
 21 19  1  0
 22 21  1  0
 23 21  2  0
M  END
$$$$
