MIS.pdb
     RDKit          3D

 23 22  0  0  1  0  0  0  0  0999 V2000
    5.7248  -19.0335   17.9171 C   0  0  0  0  0  0  0  0  0  0  0  0
    7.0077  -18.3160   18.9686 S   0  0  0  0  0  0  0  0  0  0  0  0
    6.3545  -18.3043   20.6762 C   0  0  0  0  0  0  0  0  0  0  0  0
    7.4197  -17.7952   21.6388 C   0  0  0  0  0  0  0  0  0  0  0  0
    7.4479  -16.2846   21.5466 C   0  0  2  0  0  0  0  0  0  0  0  0
    8.1098  -15.8710   20.3243 N   0  0  0  0  0  0  0  0  0  0  0  0
    8.1595  -15.6774   22.6979 C   0  0  0  0  0  0  0  0  0  0  0  0
    9.3887  -15.4346   22.6220 O   0  0  0  0  0  0  0  0  0  0  0  0
    6.0494  -11.8948   25.9411 C   0  0  0  0  0  0  0  0  0  0  0  0
    7.0853  -12.6269   25.0540 C   0  0  0  0  0  0  0  0  0  0  0  0
    7.4324  -13.8590   25.8483 C   0  0  2  0  0  0  0  0  0  0  0  0
    8.2093  -13.3603   27.0592 C   0  0  0  0  0  0  0  0  0  0  0  0
    8.2460  -14.8865   25.1093 C   0  0  2  0  0  0  0  0  0  0  0  0
    7.5213  -15.3427   23.9176 N   0  0  0  0  0  0  0  0  0  0  0  0
    8.6155  -16.0705   25.8909 C   0  0  0  0  0  0  0  0  0  0  0  0
    7.7175  -16.8337   26.3907 O   0  0  0  0  0  0  0  0  0  0  0  0
   11.4540  -17.7379   24.8976 O   0  0  0  0  0  0  0  0  0  0  0  0
   11.4781  -18.2757   26.1877 C   0  0  0  0  0  0  0  0  0  0  0  0
   10.2705  -17.6629   26.9139 C   0  0  2  0  0  0  0  0  0  0  0  0
    9.9493  -16.4524   26.1419 N   0  0  0  0  0  0  0  0  0  0  0  0
   10.5817  -17.3452   28.3042 C   0  0  0  0  0  0  0  0  0  0  0  0
   10.8941  -18.3519   29.1915 O   0  0  0  0  0  0  0  0  0  0  0  0
   10.5682  -16.1604   28.7035 O   0  0  0  0  0  0  0  0  0  0  0  0
  1  2  1  0
  2  3  1  0
  4  3  1  0
  5  4  1  0
  5  6  1  6
  7  5  1  0
  7  8  2  0
  9 10  1  0
 10 11  1  0
 11 13  1  0
 11 12  1  1
 13 14  1  6
 14  7  1  0
 15 13  1  0
 16 15  2  0
 18 17  1  0
 19 18  1  6
 19 20  1  0
 20 15  1  0
 21 19  1  0
 22 21  1  0
 23 21  2  0
M  END
$$$$
