MIS.pdb
     RDKit          3D

 23 22  0  0  1  0  0  0  0  0999 V2000
    4.8992  -20.7083   18.5320 C   0  0  0  0  0  0  0  0  0  0  0  0
    6.0426  -21.2795   17.2542 S   0  0  0  0  0  0  0  0  0  0  0  0
    6.9692  -19.8146   16.6726 C   0  0  0  0  0  0  0  0  0  0  0  0
    7.6272  -19.1111   17.8527 C   0  0  0  0  0  0  0  0  0  0  0  0
    8.2660  -17.8383   17.3396 C   0  0  2  0  0  0  0  0  0  0  0  0
    9.3093  -18.1535   16.3830 N   0  0  0  0  0  0  0  0  0  0  0  0
    8.8594  -17.0396   18.4399 C   0  0  0  0  0  0  0  0  0  0  0  0
   10.0814  -17.1452   18.7070 O   0  0  0  0  0  0  0  0  0  0  0  0
    6.7872  -12.1041   19.8968 C   0  0  0  0  0  0  0  0  0  0  0  0
    7.8843  -13.1160   19.4860 C   0  0  0  0  0  0  0  0  0  0  0  0
    7.8725  -14.1311   20.5990 C   0  0  2  0  0  0  0  0  0  0  0  0
    8.4087  -13.4024   21.8237 C   0  0  0  0  0  0  0  0  0  0  0  0
    8.6908  -15.3677   20.3436 C   0  0  2  0  0  0  0  0  0  0  0  0
    8.1124  -16.1359   19.2351 N   0  0  0  0  0  0  0  0  0  0  0  0
    8.8324  -16.2706   21.4899 C   0  0  0  0  0  0  0  0  0  0  0  0
    7.9369  -17.1478   21.7492 O   0  0  0  0  0  0  0  0  0  0  0  0
   11.1580  -19.6120   22.6326 O   0  0  0  0  0  0  0  0  0  0  0  0
   10.7350  -18.4538   21.9739 C   0  0  0  0  0  0  0  0  0  0  0  0
   10.3741  -17.4548   23.0843 C   0  0  2  0  0  0  0  0  0  0  0  0
    9.9356  -16.2470   22.3676 N   0  0  0  0  0  0  0  0  0  0  0  0
   11.5146  -17.1786   23.9524 C   0  0  0  0  0  0  0  0  0  0  0  0
   12.1381  -15.9507   23.9073 O   0  0  0  0  0  0  0  0  0  0  0  0
   11.9365  -18.0500   24.7435 O   0  0  0  0  0  0  0  0  0  0  0  0
  1  2  1  0
  2  3  1  0
  4  3  1  0
  5  4  1  0
  5  6  1  6
  7  5  1  0
  7  8  2  0
  9 10  1  0
 10 11  1  0
 11 13  1  0
 11 12  1  1
 13 14  1  6
 14  7  1  0
 15 13  1  0
 16 15  2  0
 18 17  1  0
 19 18  1  6
 19 20  1  0
 20 15  1  0
 21 19  1  0
 22 21  1  0
 23 21  2  0
M  END
$$$$
