MIS.pdb
     RDKit          3D

 23 22  0  0  1  0  0  0  0  0999 V2000
   10.1740  -14.3011   29.1751 C   0  0  0  0  0  0  0  0  0  0  0  0
    8.7266  -15.3523   29.4326 S   0  0  0  0  0  0  0  0  0  0  0  0
    9.3351  -17.0684   29.5989 C   0  0  0  0  0  0  0  0  0  0  0  0
    9.1772  -17.8083   28.2768 C   0  0  0  0  0  0  0  0  0  0  0  0
    7.7343  -17.6772   27.8385 C   0  0  2  0  0  0  0  0  0  0  0  0
    7.1158  -18.9864   27.7579 N   0  0  0  0  0  0  0  0  0  0  0  0
    7.6204  -17.0185   26.5141 C   0  0  0  0  0  0  0  0  0  0  0  0
    7.4931  -17.7110   25.4749 O   0  0  0  0  0  0  0  0  0  0  0  0
    6.1136  -11.8340   26.4145 C   0  0  0  0  0  0  0  0  0  0  0  0
    5.9448  -13.1975   25.7012 C   0  0  0  0  0  0  0  0  0  0  0  0
    7.3224  -13.4994   25.1717 C   0  0  2  0  0  0  0  0  0  0  0  0
    7.3977  -12.8165   23.8128 C   0  0  0  0  0  0  0  0  0  0  0  0
    7.6432  -14.9621   25.0248 C   0  0  2  0  0  0  0  0  0  0  0  0
    7.6470  -15.6129   26.3400 N   0  0  0  0  0  0  0  0  0  0  0  0
    8.9227  -15.2584   24.3734 C   0  0  0  0  0  0  0  0  0  0  0  0
   10.0169  -14.7680   24.8218 O   0  0  0  0  0  0  0  0  0  0  0  0
    9.4917  -18.4078   22.5217 O   0  0  0  0  0  0  0  0  0  0  0  0
   10.6918  -17.7049   22.6626 C   0  0  0  0  0  0  0  0  0  0  0  0
   10.3212  -16.2206   22.5188 C   0  0  2  0  0  0  0  0  0  0  0  0
    9.0452  -16.0861   23.2385 N   0  0  0  0  0  0  0  0  0  0  0  0
   10.1904  -15.8309   21.1182 C   0  0  0  0  0  0  0  0  0  0  0  0
   11.2841  -15.8766   20.2814 O   0  0  0  0  0  0  0  0  0  0  0  0
    9.0884  -15.4528   20.6642 O   0  0  0  0  0  0  0  0  0  0  0  0
  1  2  1  0
  2  3  1  0
  4  3  1  0
  5  4  1  0
  5  6  1  6
  7  5  1  0
  7  8  2  0
  9 10  1  0
 10 11  1  0
 11 13  1  0
 11 12  1  6
 13 14  1  1
 14  7  1  0
 15 13  1  0
 16 15  2  0
 18 17  1  0
 19 18  1  6
 19 20  1  0
 20 15  1  0
 21 19  1  0
 22 21  1  0
 23 21  2  0
M  END
$$$$
