MIS.pdb
     RDKit          3D

 23 22  0  0  1  0  0  0  0  0999 V2000
   10.5679  -14.5068   30.8336 C   0  0  0  0  0  0  0  0  0  0  0  0
   10.5776  -15.4238   29.2762 S   0  0  0  0  0  0  0  0  0  0  0  0
    9.5994  -16.9448   29.5454 C   0  0  0  0  0  0  0  0  0  0  0  0
    9.4340  -17.6980   28.2317 C   0  0  0  0  0  0  0  0  0  0  0  0
    7.9578  -17.7359   27.8986 C   0  0  2  0  0  0  0  0  0  0  0  0
    7.4799  -19.1050   27.9026 N   0  0  0  0  0  0  0  0  0  0  0  0
    7.6799  -17.1423   26.5678 C   0  0  0  0  0  0  0  0  0  0  0  0
    7.1772  -17.8448   25.6571 O   0  0  0  0  0  0  0  0  0  0  0  0
    6.4986  -11.9700   26.1669 C   0  0  0  0  0  0  0  0  0  0  0  0
    6.2362  -13.3765   25.5759 C   0  0  0  0  0  0  0  0  0  0  0  0
    7.5563  -13.7598   24.9596 C   0  0  2  0  0  0  0  0  0  0  0  0
    7.5367  -13.1762   23.5534 C   0  0  0  0  0  0  0  0  0  0  0  0
    7.8240  -15.2389   24.8933 C   0  0  2  0  0  0  0  0  0  0  0  0
    7.9539  -15.7899   26.2471 N   0  0  0  0  0  0  0  0  0  0  0  0
    9.0183  -15.6240   24.1352 C   0  0  0  0  0  0  0  0  0  0  0  0
   10.1843  -15.2587   24.5170 O   0  0  0  0  0  0  0  0  0  0  0  0
    8.6061  -17.6000   20.7553 O   0  0  0  0  0  0  0  0  0  0  0  0
    9.7812  -18.0060   21.3945 C   0  0  0  0  0  0  0  0  0  0  0  0
   10.2083  -16.8170   22.2692 C   0  0  2  0  0  0  0  0  0  0  0  0
    8.9776  -16.4074   22.9636 N   0  0  0  0  0  0  0  0  0  0  0  0
   10.7593  -15.7286   21.4678 C   0  0  0  0  0  0  0  0  0  0  0  0
   12.0288  -15.8296   20.9418 O   0  0  0  0  0  0  0  0  0  0  0  0
   10.0877  -14.6965   21.2507 O   0  0  0  0  0  0  0  0  0  0  0  0
  1  2  1  0
  2  3  1  0
  4  3  1  0
  5  4  1  0
  5  6  1  6
  7  5  1  0
  7  8  2  0
  9 10  1  0
 10 11  1  0
 11 13  1  0
 11 12  1  6
 13 14  1  1
 14  7  1  0
 15 13  1  0
 16 15  2  0
 18 17  1  0
 19 18  1  6
 19 20  1  0
 20 15  1  0
 21 19  1  0
 22 21  1  0
 23 21  2  0
M  END
$$$$
