MIS.pdb
     RDKit          3D

 23 22  0  0  1  0  0  0  0  0999 V2000
    5.8067  -21.1630   25.5165 C   0  0  0  0  0  0  0  0  0  0  0  0
    5.0331  -21.5129   23.9210 S   0  0  0  0  0  0  0  0  0  0  0  0
    4.9490  -19.9304   23.0093 C   0  0  0  0  0  0  0  0  0  0  0  0
    6.1144  -19.0349   23.4099 C   0  0  0  0  0  0  0  0  0  0  0  0
    5.8463  -17.6487   22.8641 C   0  0  2  0  0  0  0  0  0  0  0  0
    5.8971  -17.6641   21.4148 N   0  0  0  0  0  0  0  0  0  0  0  0
    6.8363  -16.6620   23.3610 C   0  0  0  0  0  0  0  0  0  0  0  0
    7.8929  -16.4506   22.7171 O   0  0  0  0  0  0  0  0  0  0  0  0
    5.6409  -12.2989   26.5113 C   0  0  0  0  0  0  0  0  0  0  0  0
    6.3472  -13.0672   25.3680 C   0  0  0  0  0  0  0  0  0  0  0  0
    7.1796  -14.0967   26.0869 C   0  0  2  0  0  0  0  0  0  0  0  0
    8.3125  -13.3206   26.7447 C   0  0  0  0  0  0  0  0  0  0  0  0
    7.7465  -15.1824   25.2130 C   0  0  2  0  0  0  0  0  0  0  0  0
    6.6614  -15.9185   24.5541 N   0  0  0  0  0  0  0  0  0  0  0  0
    8.5974  -16.1577   25.9016 C   0  0  0  0  0  0  0  0  0  0  0  0
    8.1276  -16.8932   26.8381 O   0  0  0  0  0  0  0  0  0  0  0  0
   12.3271  -16.7294   24.6592 O   0  0  0  0  0  0  0  0  0  0  0  0
   11.7228  -17.8922   25.1460 C   0  0  0  0  0  0  0  0  0  0  0  0
   10.7433  -17.4249   26.2339 C   0  0  2  0  0  0  0  0  0  0  0  0
    9.9581  -16.3590   25.5921 N   0  0  0  0  0  0  0  0  0  0  0  0
   11.4447  -16.9359   27.4169 C   0  0  0  0  0  0  0  0  0  0  0  0
   12.1758  -17.8049   28.1972 O   0  0  0  0  0  0  0  0  0  0  0  0
   11.3899  -15.7277   27.7339 O   0  0  0  0  0  0  0  0  0  0  0  0
  1  2  1  0
  2  3  1  0
  4  3  1  0
  5  4  1  0
  5  6  1  6
  7  5  1  0
  7  8  2  0
  9 10  1  0
 10 11  1  0
 11 13  1  0
 11 12  1  6
 13 14  1  1
 14  7  1  0
 15 13  1  0
 16 15  2  0
 18 17  1  0
 19 18  1  6
 19 20  1  0
 20 15  1  0
 21 19  1  0
 22 21  1  0
 23 21  2  0
M  END
$$$$
