MIS.pdb
     RDKit          3D

 23 22  0  0  1  0  0  0  0  0999 V2000
    7.9538  -11.6639   19.2241 C   0  0  0  0  0  0  0  0  0  0  0  0
    7.4569  -13.1177   18.2722 S   0  0  0  0  0  0  0  0  0  0  0  0
    7.6294  -14.5643   19.3769 C   0  0  0  0  0  0  0  0  0  0  0  0
    8.0803  -14.1135   20.7603 C   0  0  0  0  0  0  0  0  0  0  0  0
    8.2157  -15.3445   21.6307 C   0  0  2  0  0  0  0  0  0  0  0  0
    6.9232  -15.9795   21.8023 N   0  0  0  0  0  0  0  0  0  0  0  0
    8.7605  -15.0128   22.9701 C   0  0  0  0  0  0  0  0  0  0  0  0
    9.9391  -14.5963   23.0853 O   0  0  0  0  0  0  0  0  0  0  0  0
    6.0029  -12.1173   26.3716 C   0  0  0  0  0  0  0  0  0  0  0  0
    7.1819  -12.6617   25.5291 C   0  0  0  0  0  0  0  0  0  0  0  0
    7.5735  -13.9324   26.2371 C   0  0  2  0  0  0  0  0  0  0  0  0
    8.1845  -13.4924   27.5605 C   0  0  0  0  0  0  0  0  0  0  0  0
    8.5472  -14.8042   25.4917 C   0  0  2  0  0  0  0  0  0  0  0  0
    8.0130  -15.1397   24.1667 N   0  0  0  0  0  0  0  0  0  0  0  0
    8.9035  -16.0579   26.1629 C   0  0  0  0  0  0  0  0  0  0  0  0
    8.0089  -16.9297   26.4433 O   0  0  0  0  0  0  0  0  0  0  0  0
   11.5749  -18.2185   25.2352 O   0  0  0  0  0  0  0  0  0  0  0  0
   11.8298  -18.1458   26.6078 C   0  0  0  0  0  0  0  0  0  0  0  0
   10.5235  -17.6470   27.2452 C   0  0  2  0  0  0  0  0  0  0  0  0
   10.2208  -16.3936   26.5368 N   0  0  0  0  0  0  0  0  0  0  0  0
   10.6731  -17.4289   28.6807 C   0  0  0  0  0  0  0  0  0  0  0  0
   10.8385  -18.5006   29.5307 O   0  0  0  0  0  0  0  0  0  0  0  0
   10.6528  -16.2713   29.1529 O   0  0  0  0  0  0  0  0  0  0  0  0
  1  2  1  0
  2  3  1  0
  4  3  1  0
  5  4  1  0
  5  6  1  1
  7  5  1  0
  7  8  2  0
  9 10  1  0
 10 11  1  0
 11 13  1  0
 11 12  1  1
 13 14  1  6
 14  7  1  0
 15 13  1  0
 16 15  2  0
 18 17  1  0
 19 18  1  6
 19 20  1  0
 20 15  1  0
 21 19  1  0
 22 21  1  0
 23 21  2  0
M  END
$$$$
