CNK.pdb
     RDKit          3D

 24 23  0  0  1  0  0  0  0  0999 V2000
   15.9827  -13.6691  -16.8796 N   0  0  0  0  0  0  0  0  0  0  0  0
   16.7742  -13.1274  -15.8273 C   0  0  1  0  0  0  0  0  0  0  0  0
   17.8369  -14.0758  -15.3261 C   0  0  0  0  0  0  0  0  0  0  0  0
   17.1340  -15.3653  -14.2679 S   0  0  0  0  0  0  0  0  0  0  0  0
   17.3364  -11.8180  -16.2226 C   0  0  0  0  0  0  0  0  0  0  0  0
   17.9349  -11.7206  -17.3116 O   0  0  0  0  0  0  0  0  0  0  0  0
   17.1096   -6.3235  -16.9391 N   0  0  0  0  0  0  0  0  0  0  0  0
   17.3998   -6.9078  -15.6900 C   0  0  0  0  0  0  0  0  0  0  0  0
   18.1081   -6.2857  -14.8760 O   0  0  0  0  0  0  0  0  0  0  0  0
   16.8540   -8.2493  -15.3769 C   0  0  0  0  0  0  0  0  0  0  0  0
   17.7847   -9.3642  -15.7604 C   0  0  2  0  0  0  0  0  0  0  0  0
   17.2244  -10.6528  -15.4085 N   0  0  0  0  0  0  0  0  0  0  0  0
   19.1388   -9.1827  -15.1657 C   0  0  0  0  0  0  0  0  0  0  0  0
   19.3543   -9.6145  -13.9878 O   0  0  0  0  0  0  0  0  0  0  0  0
   20.1949   -8.5579  -15.8381 N   0  0  0  0  0  0  0  0  0  0  0  0
   21.5570   -8.4558  -15.1531 C   0  0  1  0  0  0  0  0  0  0  0  0
   22.4733   -9.2688  -15.9836 C   0  0  0  0  0  0  0  0  0  0  0  0
   23.8491   -9.5403  -15.6083 C   0  0  0  0  0  0  0  0  0  0  0  0
   24.7192  -10.4334  -16.4079 C   0  0  0  0  0  0  0  0  0  0  0  0
   26.0356  -10.6467  -15.5829 C   0  0  0  0  0  0  0  0  0  0  0  0
   26.9310  -11.4510  -16.3599 N   0  0  0  0  0  0  0  0  0  0  0  0
   21.7779   -6.9992  -15.1218 C   0  0  0  0  0  0  0  0  0  0  0  0
   21.2785   -6.2992  -16.0817 O   0  0  0  0  0  0  0  0  0  0  0  0
   22.4630   -6.3441  -14.1531 O   0  0  0  0  0  0  0  0  0  0  0  0
  2  1  1  6
  3  2  1  0
  3  4  1  0
  5  2  1  0
  5  6  2  0
  7  8  1  0
  8 10  1  0
  8  9  2  0
 11 10  1  1
 11 13  1  0
 11 12  1  0
 12  5  1  0
 13 15  1  0
 14 13  2  0
 15 16  1  0
 16 22  1  0
 17 18  1  0
 16 17  1  6
 19 18  1  0
 19 20  1  0
 21 20  1  0
 22 23  2  0
 22 24  1  0
M  END
$$$$
