CNK.pdb
     RDKit          3D

 24 23  0  0  1  0  0  0  0  0999 V2000
   16.2058  -12.8040  -12.7932 N   0  0  0  0  0  0  0  0  0  0  0  0
   15.0218  -12.1461  -13.2320 C   0  0  1  0  0  0  0  0  0  0  0  0
   13.7633  -12.9397  -12.9743 C   0  0  0  0  0  0  0  0  0  0  0  0
   14.0897  -14.7201  -12.9578 S   0  0  0  0  0  0  0  0  0  0  0  0
   14.9467  -10.7818  -12.6665 C   0  0  0  0  0  0  0  0  0  0  0  0
   14.0286  -10.0237  -13.0355 O   0  0  0  0  0  0  0  0  0  0  0  0
   15.4184   -6.8006   -8.7268 N   0  0  0  0  0  0  0  0  0  0  0  0
   16.5129   -7.4749   -9.3040 C   0  0  0  0  0  0  0  0  0  0  0  0
   17.6106   -6.8927   -9.3903 O   0  0  0  0  0  0  0  0  0  0  0  0
   16.3292   -8.8611   -9.7941 C   0  0  0  0  0  0  0  0  0  0  0  0
   15.9103   -8.9221  -11.2352 C   0  0  2  0  0  0  0  0  0  0  0  0
   15.8839  -10.2899  -11.7112 N   0  0  0  0  0  0  0  0  0  0  0  0
   16.7724   -8.0659  -12.0978 C   0  0  0  0  0  0  0  0  0  0  0  0
   17.8752   -8.5380  -12.5238 O   0  0  0  0  0  0  0  0  0  0  0  0
   16.4321   -6.7600  -12.4677 N   0  0  0  0  0  0  0  0  0  0  0  0
   17.3176   -6.0139  -13.4648 C   0  0  1  0  0  0  0  0  0  0  0  0
   16.9941   -6.5966  -14.7861 C   0  0  0  0  0  0  0  0  0  0  0  0
   17.5129   -6.0645  -16.0330 C   0  0  0  0  0  0  0  0  0  0  0  0
   17.2774   -6.7368  -17.3318 C   0  0  0  0  0  0  0  0  0  0  0  0
   17.9095   -5.8243  -18.4395 C   0  0  0  0  0  0  0  0  0  0  0  0
   17.7659   -6.4824  -19.7038 N   0  0  0  0  0  0  0  0  0  0  0  0
   16.9350   -4.6109  -13.2271 C   0  0  0  0  0  0  0  0  0  0  0  0
   15.8158   -4.3910  -12.6273 O   0  0  0  0  0  0  0  0  0  0  0  0
   17.6788   -3.5372  -13.5889 O   0  0  0  0  0  0  0  0  0  0  0  0
  2  1  1  1
  3  2  1  0
  3  4  1  0
  5  2  1  0
  5  6  2  0
  7  8  1  0
  8 10  1  0
  8  9  2  0
 11 10  1  1
 11 13  1  0
 11 12  1  0
 12  5  1  0
 13 15  1  0
 14 13  2  0
 15 16  1  0
 16 22  1  0
 17 18  1  0
 16 17  1  6
 19 18  1  0
 19 20  1  0
 21 20  1  0
 22 23  2  0
 22 24  1  0
M  END
$$$$
