CNK.pdb
     RDKit          3D

 24 23  0  0  1  0  0  0  0  0999 V2000
   26.3154  -20.6007  -10.3044 N   0  0  0  0  0  0  0  0  0  0  0  0
   25.2261  -20.6335  -11.2207 C   0  0  1  0  0  0  0  0  0  0  0  0
   23.8760  -20.5299  -10.5525 C   0  0  0  0  0  0  0  0  0  0  0  0
   23.6364  -21.8409   -9.3274 S   0  0  0  0  0  0  0  0  0  0  0  0
   25.4058  -19.6138  -12.2765 C   0  0  0  0  0  0  0  0  0  0  0  0
   25.5519  -18.4206  -11.9466 O   0  0  0  0  0  0  0  0  0  0  0  0
   28.3438  -18.4586  -17.3387 N   0  0  0  0  0  0  0  0  0  0  0  0
   27.2725  -18.2298  -16.4522 C   0  0  0  0  0  0  0  0  0  0  0  0
   26.6562  -17.1489  -16.5073 O   0  0  0  0  0  0  0  0  0  0  0  0
   26.9065  -19.2827  -15.4760 C   0  0  0  0  0  0  0  0  0  0  0  0
   25.6494  -18.9663  -14.7172 C   0  0  2  0  0  0  0  0  0  0  0  0
   25.4195  -19.9354  -13.6655 N   0  0  0  0  0  0  0  0  0  0  0  0
   24.4702  -18.8600  -15.6218 C   0  0  0  0  0  0  0  0  0  0  0  0
   24.0112  -19.9192  -16.1583 O   0  0  0  0  0  0  0  0  0  0  0  0
   23.8349  -17.6483  -15.9155 N   0  0  0  0  0  0  0  0  0  0  0  0
   22.6378  -17.6464  -16.8652 C   0  0  1  0  0  0  0  0  0  0  0  0
   21.5724  -16.9106  -16.1484 C   0  0  0  0  0  0  0  0  0  0  0  0
   20.1823  -17.3289  -16.1533 C   0  0  0  0  0  0  0  0  0  0  0  0
   19.7885  -18.7416  -16.3616 C   0  0  0  0  0  0  0  0  0  0  0  0
   18.2257  -18.7658  -16.4893 C   0  0  0  0  0  0  0  0  0  0  0  0
   17.8191  -20.1007  -16.8132 N   0  0  0  0  0  0  0  0  0  0  0  0
   23.2035  -17.0203  -18.0732 C   0  0  0  0  0  0  0  0  0  0  0  0
   24.1956  -16.2125  -17.9178 O   0  0  0  0  0  0  0  0  0  0  0  0
   22.7587  -17.2382  -19.3348 O   0  0  0  0  0  0  0  0  0  0  0  0
  2  1  1  1
  3  2  1  0
  3  4  1  0
  5  2  1  0
  5  6  2  0
  7  8  1  0
  8 10  1  0
  8  9  2  0
 11 10  1  6
 11 13  1  0
 11 12  1  0
 12  5  1  0
 13 15  1  0
 14 13  2  0
 15 16  1  0
 16 22  1  0
 17 18  1  0
 16 17  1  1
 19 18  1  0
 19 20  1  0
 21 20  1  0
 22 23  2  0
 22 24  1  0
M  END
$$$$
