CNK.pdb
     RDKit          3D

 24 23  0  0  1  0  0  0  0  0999 V2000
   18.5205  -14.9494  -16.5427 N   0  0  0  0  0  0  0  0  0  0  0  0
   18.7132  -13.7385  -17.2664 C   0  0  1  0  0  0  0  0  0  0  0  0
   17.5331  -13.3602  -18.1291 C   0  0  0  0  0  0  0  0  0  0  0  0
   17.3541  -14.4786  -19.5411 S   0  0  0  0  0  0  0  0  0  0  0  0
   19.1093  -12.6455  -16.3524 C   0  0  0  0  0  0  0  0  0  0  0  0
   18.4724  -12.4818  -15.2936 O   0  0  0  0  0  0  0  0  0  0  0  0
   22.7383   -9.6015  -13.4639 N   0  0  0  0  0  0  0  0  0  0  0  0
   22.4600   -9.3656  -14.8250 C   0  0  0  0  0  0  0  0  0  0  0  0
   22.5682   -8.2104  -15.2778 O   0  0  0  0  0  0  0  0  0  0  0  0
   22.0452  -10.4998  -15.6836 C   0  0  0  0  0  0  0  0  0  0  0  0
   20.5534  -10.6361  -15.7934 C   0  0  2  0  0  0  0  0  0  0  0  0
   20.1949  -11.7635  -16.6292 N   0  0  0  0  0  0  0  0  0  0  0  0
   19.9181   -9.3790  -16.2794 C   0  0  0  0  0  0  0  0  0  0  0  0
   19.9517   -9.1164  -17.5246 O   0  0  0  0  0  0  0  0  0  0  0  0
   19.2813   -8.4640  -15.4337 N   0  0  0  0  0  0  0  0  0  0  0  0
   18.7285   -7.1665  -16.0218 C   0  0  1  0  0  0  0  0  0  0  0  0
   17.2754   -7.1999  -15.7432 C   0  0  0  0  0  0  0  0  0  0  0  0
   16.4151   -6.0403  -15.8930 C   0  0  0  0  0  0  0  0  0  0  0  0
   14.9619   -6.1689  -16.1495 C   0  0  0  0  0  0  0  0  0  0  0  0
   14.3702   -4.7167  -16.1621 C   0  0  0  0  0  0  0  0  0  0  0  0
   14.5428   -4.1466  -14.8592 N   0  0  0  0  0  0  0  0  0  0  0  0
   19.5320   -6.1458  -15.3262 C   0  0  0  0  0  0  0  0  0  0  0  0
   19.6397   -4.9890  -15.8842 O   0  0  0  0  0  0  0  0  0  0  0  0
   20.1597   -6.3353  -14.1401 O   0  0  0  0  0  0  0  0  0  0  0  0
  2  1  1  1
  3  2  1  0
  3  4  1  0
  5  2  1  0
  5  6  2  0
  7  8  1  0
  8 10  1  0
  8  9  2  0
 11 10  1  6
 11 13  1  0
 11 12  1  0
 12  5  1  0
 13 15  1  0
 14 13  2  0
 15 16  1  0
 16 22  1  0
 17 18  1  0
 16 17  1  1
 19 18  1  0
 19 20  1  0
 21 20  1  0
 22 23  2  0
 22 24  1  0
M  END
$$$$
