CNK.pdb
     RDKit          3D

 24 23  0  0  1  0  0  0  0  0999 V2000
   17.0548  -29.3158   -1.5399 N   0  0  0  0  0  0  0  0  0  0  0  0
   18.0025  -28.5175   -2.2413 C   0  0  1  0  0  0  0  0  0  0  0  0
   19.2395  -29.2782   -2.6548 C   0  0  0  0  0  0  0  0  0  0  0  0
   20.4526  -29.3573   -1.3135 S   0  0  0  0  0  0  0  0  0  0  0  0
   17.3597  -27.8339   -3.3843 C   0  0  0  0  0  0  0  0  0  0  0  0
   16.7468  -28.5149   -4.2295 O   0  0  0  0  0  0  0  0  0  0  0  0
   15.0424  -24.4521   -6.3994 N   0  0  0  0  0  0  0  0  0  0  0  0
   15.2933  -23.7838   -5.1844 C   0  0  0  0  0  0  0  0  0  0  0  0
   14.7413  -22.6889   -4.9659 O   0  0  0  0  0  0  0  0  0  0  0  0
   16.2086  -24.4021   -4.1967 C   0  0  0  0  0  0  0  0  0  0  0  0
   16.7598  -25.7219   -4.6552 C   0  0  2  0  0  0  0  0  0  0  0  0
   17.4095  -26.4205   -3.5652 N   0  0  0  0  0  0  0  0  0  0  0  0
   17.6769  -25.5634   -5.8188 C   0  0  0  0  0  0  0  0  0  0  0  0
   18.8772  -25.1955   -5.6081 O   0  0  0  0  0  0  0  0  0  0  0  0
   17.2863  -25.7990   -7.1417 N   0  0  0  0  0  0  0  0  0  0  0  0
   18.3196  -25.6609   -8.2589 C   0  0  1  0  0  0  0  0  0  0  0  0
   18.2621  -26.9385   -9.0036 C   0  0  0  0  0  0  0  0  0  0  0  0
   19.1935  -27.2778  -10.0641 C   0  0  0  0  0  0  0  0  0  0  0  0
   20.0945  -28.4499   -9.9722 C   0  0  0  0  0  0  0  0  0  0  0  0
   20.9092  -28.5056  -11.3110 C   0  0  0  0  0  0  0  0  0  0  0  0
   21.7216  -29.6855  -11.2973 N   0  0  0  0  0  0  0  0  0  0  0  0
   17.8608  -24.4458   -8.9548 C   0  0  0  0  0  0  0  0  0  0  0  0
   16.6236  -24.1114   -8.8186 O   0  0  0  0  0  0  0  0  0  0  0  0
   18.6481  -23.6530   -9.7218 O   0  0  0  0  0  0  0  0  0  0  0  0
  2  1  1  6
  3  2  1  0
  3  4  1  0
  5  2  1  0
  5  6  2  0
  7  8  1  0
  8 10  1  0
  8  9  2  0
 11 10  1  1
 11 13  1  0
 11 12  1  0
 12  5  1  0
 13 15  1  0
 14 13  2  0
 15 16  1  0
 16 22  1  0
 17 18  1  0
 16 17  1  6
 19 18  1  0
 19 20  1  0
 21 20  1  0
 22 23  2  0
 22 24  1  0
M  END
$$$$
