CNK.pdb
     RDKit          3D

 24 23  0  0  1  0  0  0  0  0999 V2000
   28.0580  -21.2231  -10.8171 N   0  0  0  0  0  0  0  0  0  0  0  0
   26.6555  -21.3945  -10.6413 C   0  0  1  0  0  0  0  0  0  0  0  0
   26.1108  -20.6803   -9.4275 C   0  0  0  0  0  0  0  0  0  0  0  0
   24.3299  -20.9460   -9.2414 S   0  0  0  0  0  0  0  0  0  0  0  0
   25.9295  -21.0287  -11.8765 C   0  0  0  0  0  0  0  0  0  0  0  0
   26.1992  -19.9499  -12.4397 O   0  0  0  0  0  0  0  0  0  0  0  0
   23.2719  -21.1524  -16.2495 N   0  0  0  0  0  0  0  0  0  0  0  0
   23.7581  -22.4469  -15.9781 C   0  0  0  0  0  0  0  0  0  0  0  0
   23.7369  -23.3070  -16.8787 O   0  0  0  0  0  0  0  0  0  0  0  0
   24.2828  -22.7517  -14.6263 C   0  0  0  0  0  0  0  0  0  0  0  0
   24.2563  -21.5645  -13.7065 C   0  0  2  0  0  0  0  0  0  0  0  0
   24.9273  -21.8600  -12.4573 N   0  0  0  0  0  0  0  0  0  0  0  0
   22.8675  -21.0778  -13.4725 C   0  0  0  0  0  0  0  0  0  0  0  0
   22.1787  -21.6119  -12.5448 O   0  0  0  0  0  0  0  0  0  0  0  0
   22.2751  -20.0569  -14.2240 N   0  0  0  0  0  0  0  0  0  0  0  0
   20.8839  -19.5581  -13.8358 C   0  0  1  0  0  0  0  0  0  0  0  0
   20.7489  -18.2348  -14.4846 C   0  0  0  0  0  0  0  0  0  0  0  0
   20.7670  -18.0552  -15.9250 C   0  0  0  0  0  0  0  0  0  0  0  0
   20.5877  -16.7255  -16.5525 C   0  0  0  0  0  0  0  0  0  0  0  0
   20.6516  -16.9407  -18.1045 C   0  0  0  0  0  0  0  0  0  0  0  0
   20.4135  -15.6821  -18.7458 N   0  0  0  0  0  0  0  0  0  0  0  0
   20.0188  -20.6469  -14.3232 C   0  0  0  0  0  0  0  0  0  0  0  0
   20.4397  -21.3407  -15.3244 O   0  0  0  0  0  0  0  0  0  0  0  0
   18.8164  -20.9735  -13.7899 O   0  0  0  0  0  0  0  0  0  0  0  0
  2  1  1  6
  3  2  1  0
  3  4  1  0
  5  2  1  0
  5  6  2  0
  7  8  1  0
  8 10  1  0
  8  9  2  0
 11 10  1  6
 11 13  1  0
 11 12  1  0
 12  5  1  0
 13 15  1  0
 14 13  2  0
 15 16  1  0
 16 22  1  0
 17 18  1  0
 16 17  1  6
 19 18  1  0
 19 20  1  0
 21 20  1  0
 22 23  2  0
 22 24  1  0
M  END
$$$$
