CNK.pdb
     RDKit          3D

 24 23  0  0  1  0  0  0  0  0999 V2000
   23.1851  -13.1709  -19.2409 N   0  0  0  0  0  0  0  0  0  0  0  0
   22.3732  -12.0726  -19.6432 C   0  0  1  0  0  0  0  0  0  0  0  0
   20.9000  -12.2928  -19.3959 C   0  0  0  0  0  0  0  0  0  0  0  0
   20.2398  -13.6173  -20.4383 S   0  0  0  0  0  0  0  0  0  0  0  0
   22.8599  -10.8168  -19.0327 C   0  0  0  0  0  0  0  0  0  0  0  0
   22.7237  -10.6485  -17.8051 O   0  0  0  0  0  0  0  0  0  0  0  0
   26.7732   -6.1386  -20.1336 N   0  0  0  0  0  0  0  0  0  0  0  0
   25.7939   -6.8425  -19.4047 C   0  0  0  0  0  0  0  0  0  0  0  0
   25.4740   -6.4419  -18.2695 O   0  0  0  0  0  0  0  0  0  0  0  0
   25.1690   -8.0427  -20.0085 C   0  0  0  0  0  0  0  0  0  0  0  0
   24.0054   -8.5604  -19.2121 C   0  0  2  0  0  0  0  0  0  0  0  0
   23.4827   -9.7816  -19.7898 N   0  0  0  0  0  0  0  0  0  0  0  0
   22.9372   -7.5324  -19.0626 C   0  0  0  0  0  0  0  0  0  0  0  0
   22.2301   -7.2307  -20.0772 O   0  0  0  0  0  0  0  0  0  0  0  0
   22.6674   -6.8755  -17.8569 N   0  0  0  0  0  0  0  0  0  0  0  0
   21.5610   -5.8225  -17.8142 C   0  0  1  0  0  0  0  0  0  0  0  0
   20.3081   -6.5617  -18.0865 C   0  0  0  0  0  0  0  0  0  0  0  0
   18.9923   -6.0185  -17.8025 C   0  0  0  0  0  0  0  0  0  0  0  0
   17.7515   -6.7699  -18.1024 C   0  0  0  0  0  0  0  0  0  0  0  0
   16.5525   -5.8851  -17.6135 C   0  0  0  0  0  0  0  0  0  0  0  0
   15.3332   -6.5877  -17.8814 N   0  0  0  0  0  0  0  0  0  0  0  0
   21.7338   -5.2481  -16.4682 C   0  0  0  0  0  0  0  0  0  0  0  0
   22.6321   -5.7719  -15.7068 O   0  0  0  0  0  0  0  0  0  0  0  0
   21.0202   -4.2056  -15.9775 O   0  0  0  0  0  0  0  0  0  0  0  0
  2  1  1  1
  3  2  1  0
  3  4  1  0
  5  2  1  0
  5  6  2  0
  7  8  1  0
  8 10  1  0
  8  9  2  0
 11 10  1  6
 11 13  1  0
 11 12  1  0
 12  5  1  0
 13 15  1  0
 14 13  2  0
 15 16  1  0
 16 22  1  0
 17 18  1  0
 16 17  1  1
 19 18  1  0
 19 20  1  0
 21 20  1  0
 22 23  2  0
 22 24  1  0
M  END
$$$$
