CNK.pdb
     RDKit          3D

 24 23  0  0  1  0  0  0  0  0999 V2000
   21.5436  -14.3526  -17.9270 N   0  0  0  0  0  0  0  0  0  0  0  0
   20.5075  -13.4493  -18.2982 C   0  0  1  0  0  0  0  0  0  0  0  0
   19.1345  -14.0779  -18.2985 C   0  0  0  0  0  0  0  0  0  0  0  0
   18.8123  -14.9742  -19.8378 S   0  0  0  0  0  0  0  0  0  0  0  0
   20.5617  -12.2279  -17.4664 C   0  0  0  0  0  0  0  0  0  0  0  0
   20.7671  -12.3385  -16.2419 O   0  0  0  0  0  0  0  0  0  0  0  0
   22.4107   -6.9216  -16.7613 N   0  0  0  0  0  0  0  0  0  0  0  0
   21.1939   -7.3054  -17.3596 C   0  0  0  0  0  0  0  0  0  0  0  0
   20.2078   -6.5493  -17.2744 O   0  0  0  0  0  0  0  0  0  0  0  0
   21.1190   -8.6005  -18.0756 C   0  0  0  0  0  0  0  0  0  0  0  0
   20.5387   -9.7017  -17.2349 C   0  0  2  0  0  0  0  0  0  0  0  0
   20.3884  -10.9192  -18.0051 N   0  0  0  0  0  0  0  0  0  0  0  0
   19.2497   -9.2965  -16.6069 C   0  0  0  0  0  0  0  0  0  0  0  0
   18.1734   -9.4330  -17.2727 O   0  0  0  0  0  0  0  0  0  0  0  0
   19.1580   -8.7696  -15.3138 N   0  0  0  0  0  0  0  0  0  0  0  0
   17.7874   -8.3737  -14.7666 C   0  0  1  0  0  0  0  0  0  0  0  0
   17.5947   -9.2056  -13.5579 C   0  0  0  0  0  0  0  0  0  0  0  0
   16.3525   -9.2333  -12.8073 C   0  0  0  0  0  0  0  0  0  0  0  0
   16.1949  -10.0478  -11.5802 C   0  0  0  0  0  0  0  0  0  0  0  0
   14.8257   -9.6393  -10.9338 C   0  0  0  0  0  0  0  0  0  0  0  0
   14.6774  -10.3523   -9.7002 N   0  0  0  0  0  0  0  0  0  0  0  0
   17.9395   -6.9205  -14.5759 C   0  0  0  0  0  0  0  0  0  0  0  0
   19.1144   -6.4763  -14.2877 O   0  0  0  0  0  0  0  0  0  0  0  0
   16.9338   -6.0189  -14.6881 O   0  0  0  0  0  0  0  0  0  0  0  0
  2  1  1  1
  3  2  1  0
  3  4  1  0
  5  2  1  0
  5  6  2  0
  7  8  1  0
  8 10  1  0
  8  9  2  0
 11 10  1  6
 11 13  1  0
 11 12  1  0
 12  5  1  0
 13 15  1  0
 14 13  2  0
 15 16  1  0
 16 22  1  0
 17 18  1  0
 16 17  1  1
 19 18  1  0
 19 20  1  0
 21 20  1  0
 22 23  2  0
 22 24  1  0
M  END
$$$$
