CNK.pdb
     RDKit          3D

 24 23  0  0  1  0  0  0  0  0999 V2000
   20.1443  -12.6904  -17.0189 N   0  0  0  0  0  0  0  0  0  0  0  0
   19.6617  -11.3653  -17.2149 C   0  0  1  0  0  0  0  0  0  0  0  0
   18.1994  -11.2025  -16.8756 C   0  0  0  0  0  0  0  0  0  0  0  0
   17.1349  -11.7709  -18.2249 S   0  0  0  0  0  0  0  0  0  0  0  0
   20.5127  -10.3920  -16.4970 C   0  0  0  0  0  0  0  0  0  0  0  0
   20.6825  -10.5268  -15.2695 O   0  0  0  0  0  0  0  0  0  0  0  0
   23.7722   -6.5228  -15.3904 N   0  0  0  0  0  0  0  0  0  0  0  0
   23.8942   -6.7527  -16.7754 C   0  0  0  0  0  0  0  0  0  0  0  0
   24.7767   -6.1525  -17.4173 O   0  0  0  0  0  0  0  0  0  0  0  0
   22.9680   -7.7042  -17.4330 C   0  0  0  0  0  0  0  0  0  0  0  0
   22.0011   -8.3378  -16.4739 C   0  0  2  0  0  0  0  0  0  0  0  0
   21.1527   -9.2978  -17.1497 N   0  0  0  0  0  0  0  0  0  0  0  0
   21.1924   -7.3171  -15.7498 C   0  0  0  0  0  0  0  0  0  0  0  0
   20.2643   -6.7122  -16.3768 O   0  0  0  0  0  0  0  0  0  0  0  0
   21.4001   -6.9850  -14.4064 N   0  0  0  0  0  0  0  0  0  0  0  0
   20.4490   -6.0006  -13.7272 C   0  0  1  0  0  0  0  0  0  0  0  0
   19.7194   -6.7977  -12.7160 C   0  0  0  0  0  0  0  0  0  0  0  0
   18.7738   -6.2144  -11.7818 C   0  0  0  0  0  0  0  0  0  0  0  0
   18.1349   -7.0129  -10.7102 C   0  0  0  0  0  0  0  0  0  0  0  0
   17.2515   -6.0261   -9.8705 C   0  0  0  0  0  0  0  0  0  0  0  0
   16.4209   -6.7969   -8.9939 N   0  0  0  0  0  0  0  0  0  0  0  0
   21.3754   -4.9641  -13.2384 C   0  0  0  0  0  0  0  0  0  0  0  0
   22.5831   -5.3231  -12.9672 O   0  0  0  0  0  0  0  0  0  0  0  0
   21.0492   -3.6608  -13.0600 O   0  0  0  0  0  0  0  0  0  0  0  0
  2  1  1  1
  3  2  1  0
  3  4  1  0
  5  2  1  0
  5  6  2  0
  7  8  1  0
  8 10  1  0
  8  9  2  0
 11 10  1  6
 11 13  1  0
 11 12  1  0
 12  5  1  0
 13 15  1  0
 14 13  2  0
 15 16  1  0
 16 22  1  0
 17 18  1  0
 16 17  1  1
 19 18  1  0
 19 20  1  0
 21 20  1  0
 22 23  2  0
 22 24  1  0
M  END
$$$$
