CNK.pdb
     RDKit          3D

 24 23  0  0  1  0  0  0  0  0999 V2000
   35.3913   -8.3235  -16.6385 N   0  0  0  0  0  0  0  0  0  0  0  0
   34.0843   -8.0323  -16.1545 C   0  0  1  0  0  0  0  0  0  0  0  0
   33.9243   -6.6089  -15.6767 C   0  0  0  0  0  0  0  0  0  0  0  0
   34.9481   -6.2753  -14.2216 S   0  0  0  0  0  0  0  0  0  0  0  0
   33.0648   -8.4012  -17.1602 C   0  0  0  0  0  0  0  0  0  0  0  0
   33.3461   -8.3036  -18.3706 O   0  0  0  0  0  0  0  0  0  0  0  0
   29.0783  -11.6335  -19.3242 N   0  0  0  0  0  0  0  0  0  0  0  0
   28.8430  -10.7191  -18.2782 C   0  0  0  0  0  0  0  0  0  0  0  0
   27.7138  -10.2073  -18.1586 O   0  0  0  0  0  0  0  0  0  0  0  0
   29.9468  -10.3897  -17.3461 C   0  0  0  0  0  0  0  0  0  0  0  0
   30.7275   -9.1778  -17.7680 C   0  0  2  0  0  0  0  0  0  0  0  0
   31.7647   -8.8671  -16.8058 N   0  0  0  0  0  0  0  0  0  0  0  0
   29.8405   -8.0042  -18.0050 C   0  0  0  0  0  0  0  0  0  0  0  0
   29.4987   -7.2835  -17.0129 O   0  0  0  0  0  0  0  0  0  0  0  0
   29.3591   -7.6488  -19.2698 N   0  0  0  0  0  0  0  0  0  0  0  0
   28.4697   -6.4140  -19.4081 C   0  0  1  0  0  0  0  0  0  0  0  0
   28.8416   -5.8087  -20.7064 C   0  0  0  0  0  0  0  0  0  0  0  0
   28.2472   -4.5821  -21.2057 C   0  0  0  0  0  0  0  0  0  0  0  0
   28.6848   -3.9582  -22.4759 C   0  0  0  0  0  0  0  0  0  0  0  0
   27.7929   -2.6864  -22.6908 C   0  0  0  0  0  0  0  0  0  0  0  0
   28.2600   -1.9983  -23.8573 N   0  0  0  0  0  0  0  0  0  0  0  0
   27.1194   -6.9916  -19.2879 C   0  0  0  0  0  0  0  0  0  0  0  0
   26.9536   -8.2079  -19.6803 O   0  0  0  0  0  0  0  0  0  0  0  0
   26.0426   -6.3370  -18.7890 O   0  0  0  0  0  0  0  0  0  0  0  0
  2  1  1  6
  3  2  1  0
  3  4  1  0
  5  2  1  0
  5  6  2  0
  7  8  1  0
  8 10  1  0
  8  9  2  0
 11 10  1  1
 11 13  1  0
 11 12  1  0
 12  5  1  0
 13 15  1  0
 14 13  2  0
 15 16  1  0
 16 22  1  0
 17 18  1  0
 16 17  1  6
 19 18  1  0
 19 20  1  0
 21 20  1  0
 22 23  2  0
 22 24  1  0
M  END
$$$$
