CNK.pdb
     RDKit          3D

 24 23  0  0  1  0  0  0  0  0999 V2000
   26.3476  -16.7496  -18.5281 N   0  0  0  0  0  0  0  0  0  0  0  0
   26.4500  -15.5838  -19.3391 C   0  0  1  0  0  0  0  0  0  0  0  0
   25.6334  -15.6607  -20.6069 C   0  0  0  0  0  0  0  0  0  0  0  0
   26.2425  -16.9565  -21.7144 S   0  0  0  0  0  0  0  0  0  0  0  0
   26.1402  -14.3732  -18.5484 C   0  0  0  0  0  0  0  0  0  0  0  0
   25.0208  -14.2730  -18.0092 O   0  0  0  0  0  0  0  0  0  0  0  0
   26.4426   -9.8805  -16.0305 N   0  0  0  0  0  0  0  0  0  0  0  0
   27.7719  -10.2123  -16.3600 C   0  0  0  0  0  0  0  0  0  0  0  0
   28.7005   -9.4946  -15.9428 O   0  0  0  0  0  0  0  0  0  0  0  0
   28.0310  -11.4083  -17.1954 C   0  0  0  0  0  0  0  0  0  0  0  0
   26.7716  -12.0828  -17.6591 C   0  0  2  0  0  0  0  0  0  0  0  0
   27.0704  -13.3070  -18.3733 N   0  0  0  0  0  0  0  0  0  0  0  0
   25.9263  -11.1705  -18.4797 C   0  0  0  0  0  0  0  0  0  0  0  0
   26.3226  -10.8510  -19.6464 O   0  0  0  0  0  0  0  0  0  0  0  0
   24.7102  -10.6417  -18.0330 N   0  0  0  0  0  0  0  0  0  0  0  0
   23.8535   -9.8253  -18.9996 C   0  0  1  0  0  0  0  0  0  0  0  0
   22.5784  -10.5679  -19.1135 C   0  0  0  0  0  0  0  0  0  0  0  0
   21.5317  -10.2021  -20.0505 C   0  0  0  0  0  0  0  0  0  0  0  0
   20.2580  -10.9533  -20.1369 C   0  0  0  0  0  0  0  0  0  0  0  0
   19.4221  -10.3030  -21.2934 C   0  0  0  0  0  0  0  0  0  0  0  0
   18.1722  -10.9959  -21.3929 N   0  0  0  0  0  0  0  0  0  0  0  0
   23.8174   -8.5072  -18.3418 C   0  0  0  0  0  0  0  0  0  0  0  0
   24.0338   -8.4679  -17.0719 O   0  0  0  0  0  0  0  0  0  0  0  0
   23.5792   -7.3344  -18.9780 O   0  0  0  0  0  0  0  0  0  0  0  0
  2  1  1  1
  3  2  1  0
  3  4  1  0
  5  2  1  0
  5  6  2  0
  7  8  1  0
  8 10  1  0
  8  9  2  0
 11 10  1  6
 11 13  1  0
 11 12  1  0
 12  5  1  0
 13 15  1  0
 14 13  2  0
 15 16  1  0
 16 22  1  0
 17 18  1  0
 16 17  1  1
 19 18  1  0
 19 20  1  0
 21 20  1  0
 22 23  2  0
 22 24  1  0
M  END
$$$$
