CNK.pdb
     RDKit          3D

 24 23  0  0  1  0  0  0  0  0999 V2000
   26.7717  -20.1034   -9.8460 N   0  0  0  0  0  0  0  0  0  0  0  0
   25.5697  -20.7976  -10.1633 C   0  0  1  0  0  0  0  0  0  0  0  0
   24.4911  -20.6393   -9.1186 C   0  0  0  0  0  0  0  0  0  0  0  0
   25.1300  -20.9349   -7.4509 S   0  0  0  0  0  0  0  0  0  0  0  0
   25.0971  -20.4253  -11.5142 C   0  0  0  0  0  0  0  0  0  0  0  0
   24.6586  -19.2742  -11.7057 O   0  0  0  0  0  0  0  0  0  0  0  0
   28.1923  -20.9899  -14.4087 N   0  0  0  0  0  0  0  0  0  0  0  0
   26.9631  -20.3589  -14.6855 C   0  0  0  0  0  0  0  0  0  0  0  0
   26.9057  -19.1148  -14.6969 O   0  0  0  0  0  0  0  0  0  0  0  0
   25.7688  -21.1932  -14.9562 C   0  0  0  0  0  0  0  0  0  0  0  0
   24.6717  -20.9890  -13.9508 C   0  0  2  0  0  0  0  0  0  0  0  0
   25.1201  -21.3297  -12.6162 N   0  0  0  0  0  0  0  0  0  0  0  0
   23.4399  -21.7434  -14.3164 C   0  0  0  0  0  0  0  0  0  0  0  0
   23.4893  -23.0147  -14.3596 O   0  0  0  0  0  0  0  0  0  0  0  0
   22.2216  -21.1243  -14.6174 N   0  0  0  0  0  0  0  0  0  0  0  0
   20.9978  -21.9916  -14.9088 C   0  0  1  0  0  0  0  0  0  0  0  0
   20.4680  -22.3773  -13.5818 C   0  0  0  0  0  0  0  0  0  0  0  0
   19.3330  -23.2663  -13.4118 C   0  0  0  0  0  0  0  0  0  0  0  0
   18.8048  -23.6177  -12.0733 C   0  0  0  0  0  0  0  0  0  0  0  0
   17.5798  -24.5697  -12.3015 C   0  0  0  0  0  0  0  0  0  0  0  0
   17.0127  -24.8907  -11.0257 N   0  0  0  0  0  0  0  0  0  0  0  0
   20.1733  -21.0934  -15.7363 C   0  0  0  0  0  0  0  0  0  0  0  0
   20.4421  -19.8335  -15.6991 O   0  0  0  0  0  0  0  0  0  0  0  0
   19.1577  -21.4986  -16.5370 O   0  0  0  0  0  0  0  0  0  0  0  0
  2  1  1  1
  3  2  1  0
  3  4  1  0
  5  2  1  0
  5  6  2  0
  7  8  1  0
  8 10  1  0
  8  9  2  0
 11 10  1  6
 11 13  1  0
 11 12  1  0
 12  5  1  0
 13 15  1  0
 14 13  2  0
 15 16  1  0
 16 22  1  0
 17 18  1  0
 16 17  1  1
 19 18  1  0
 19 20  1  0
 21 20  1  0
 22 23  2  0
 22 24  1  0
M  END
$$$$
