CNK.pdb
     RDKit          3D

 24 23  0  0  1  0  0  0  0  0999 V2000
   25.4521  -20.8037  -10.2513 N   0  0  0  0  0  0  0  0  0  0  0  0
   24.5276  -20.8272  -11.3338 C   0  0  1  0  0  0  0  0  0  0  0  0
   23.1484  -20.3423  -10.9562 C   0  0  0  0  0  0  0  0  0  0  0  0
   22.5358  -21.1690   -9.4669 S   0  0  0  0  0  0  0  0  0  0  0  0
   25.0751  -20.0999  -12.4992 C   0  0  0  0  0  0  0  0  0  0  0  0
   24.9297  -18.8636  -12.5635 O   0  0  0  0  0  0  0  0  0  0  0  0
   28.7795  -18.9344  -13.0597 N   0  0  0  0  0  0  0  0  0  0  0  0
   28.6143  -20.2442  -13.5525 C   0  0  0  0  0  0  0  0  0  0  0  0
   29.1221  -21.1973  -12.9321 O   0  0  0  0  0  0  0  0  0  0  0  0
   27.8394  -20.4540  -14.7980 C   0  0  0  0  0  0  0  0  0  0  0  0
   26.3969  -20.0572  -14.6640 C   0  0  2  0  0  0  0  0  0  0  0  0
   25.7669  -20.7533  -13.5610 N   0  0  0  0  0  0  0  0  0  0  0  0
   25.6464  -20.2656  -15.9343 C   0  0  0  0  0  0  0  0  0  0  0  0
   25.0046  -21.3530  -16.0962 O   0  0  0  0  0  0  0  0  0  0  0  0
   25.6090  -19.3225  -16.9673 N   0  0  0  0  0  0  0  0  0  0  0  0
   24.7194  -19.5836  -18.1819 C   0  0  1  0  0  0  0  0  0  0  0  0
   23.3948  -19.0307  -17.8215 C   0  0  0  0  0  0  0  0  0  0  0  0
   23.0703  -17.6201  -17.9325 C   0  0  0  0  0  0  0  0  0  0  0  0
   21.7052  -17.1061  -17.6751 C   0  0  0  0  0  0  0  0  0  0  0  0
   21.7543  -15.5532  -17.8886 C   0  0  0  0  0  0  0  0  0  0  0  0
   20.4402  -15.0253  -17.6725 N   0  0  0  0  0  0  0  0  0  0  0  0
   25.4663  -18.9135  -19.2610 C   0  0  0  0  0  0  0  0  0  0  0  0
   25.0796  -19.1214  -20.4727 O   0  0  0  0  0  0  0  0  0  0  0  0
   26.5258  -18.0903  -19.0691 O   0  0  0  0  0  0  0  0  0  0  0  0
  2  1  1  1
  3  2  1  0
  3  4  1  0
  5  2  1  0
  5  6  2  0
  7  8  1  0
  8 10  1  0
  8  9  2  0
 11 10  1  6
 11 13  1  0
 11 12  1  0
 12  5  1  0
 13 15  1  0
 14 13  2  0
 15 16  1  0
 16 22  1  0
 17 18  1  0
 16 17  1  1
 19 18  1  0
 19 20  1  0
 21 20  1  0
 22 23  2  0
 22 24  1  0
M  END
$$$$
