FTI.pdb
     RDKit          3D

 27 27  0  0  1  0  0  0  0  0999 V2000
   28.7459  -21.3069  -19.0156 N   0  0  0  0  0  0  0  0  0  0  0  0
   27.5613  -21.2909  -18.2295 C   0  0  1  0  0  0  0  0  0  0  0  0
   26.8778  -22.6407  -18.4145 C   0  0  0  0  0  0  0  0  0  0  0  0
   26.0282  -22.5288  -19.6264 C   0  0  0  0  0  0  0  0  0  0  0  0
   24.8228  -21.8665  -19.6505 C   0  0  0  0  0  0  0  0  0  0  0  0
   24.0888  -21.7996  -20.8250 C   0  0  0  0  0  0  0  0  0  0  0  0
   24.5121  -22.3760  -22.0035 C   0  0  0  0  0  0  0  0  0  0  0  0
   25.7304  -23.0425  -21.9712 C   0  0  0  0  0  0  0  0  0  0  0  0
   26.4862  -23.1222  -20.7989 C   0  0  0  0  0  0  0  0  0  0  0  0
   27.6981  -20.9322  -16.8186 C   0  0  0  0  0  0  0  0  0  0  0  0
   28.8779  -20.9336  -16.3123 O   0  0  0  0  0  0  0  0  0  0  0  0
   27.7274  -17.8228  -15.4155 C   0  0  0  0  0  0  0  0  0  0  0  0
   26.8056  -18.5750  -14.5152 C   0  0  1  0  0  0  0  0  0  0  0  0
   25.5068  -18.2167  -14.8246 O   0  0  0  0  0  0  0  0  0  0  0  0
   26.9316  -20.0719  -14.5730 C   0  0  2  0  0  0  0  0  0  0  0  0
   26.6946  -20.5748  -15.9134 N   0  0  0  0  0  0  0  0  0  0  0  0
   26.0764  -20.7156  -13.5687 C   0  0  0  0  0  0  0  0  0  0  0  0
   25.1682  -21.5626  -13.9111 O   0  0  0  0  0  0  0  0  0  0  0  0
   27.2883  -20.1921   -8.1474 C   0  0  0  0  0  0  0  0  0  0  0  0
   26.8358  -20.9123   -9.3859 C   0  0  0  0  0  0  0  0  0  0  0  0
   25.4737  -20.5246   -9.8674 C   0  0  2  0  0  0  0  0  0  0  0  0
   24.4880  -21.0200   -8.8324 C   0  0  0  0  0  0  0  0  0  0  0  0
   25.1442  -21.0354  -11.2616 C   0  0  2  0  0  0  0  0  0  0  0  0
   26.1570  -20.4847  -12.1679 N   0  0  0  0  0  0  0  0  0  0  0  0
   23.7980  -20.5304  -11.6149 C   0  0  0  0  0  0  0  0  0  0  0  0
   22.7462  -21.2208  -11.5753 O   0  0  0  0  0  0  0  0  0  0  0  0
   23.6840  -19.2059  -12.0161 O   0  0  0  0  0  0  0  0  0  0  0  0
  2  3  1  0
  2  1  1  1
  4  9  2  0
  4  3  1  0
  5  4  1  0
  6  7  1  0
  6  5  2  0
  7  8  2  0
  8  9  1  0
 10  2  1  0
 11 10  2  0
 13 12  1  6
 14 13  1  0
 15 13  1  0
 15 16  1  6
 16 10  1  0
 17 18  2  0
 17 15  1  0
 19 20  1  0
 20 21  1  0
 21 23  1  0
 21 22  1  1
 23 24  1  6
 24 17  1  0
 25 23  1  0
 25 27  1  0
 26 25  2  0
M  END
$$$$
