FTI.pdb
     RDKit          3D

 27 27  0  0  1  0  0  0  0  0999 V2000
   33.4775  -27.6967  -18.8212 N   0  0  0  0  0  0  0  0  0  0  0  0
   32.1280  -27.6677  -19.2681 C   0  0  1  0  0  0  0  0  0  0  0  0
   32.0403  -28.5620  -20.4993 C   0  0  0  0  0  0  0  0  0  0  0  0
   32.2262  -27.6839  -21.6814 C   0  0  0  0  0  0  0  0  0  0  0  0
   31.2394  -26.8680  -22.1843 C   0  0  0  0  0  0  0  0  0  0  0  0
   31.4923  -26.0703  -23.2899 C   0  0  0  0  0  0  0  0  0  0  0  0
   32.7123  -26.0484  -23.9312 C   0  0  0  0  0  0  0  0  0  0  0  0
   33.7037  -26.8746  -23.4171 C   0  0  0  0  0  0  0  0  0  0  0  0
   33.4706  -27.6864  -22.3043 C   0  0  0  0  0  0  0  0  0  0  0  0
   31.0902  -27.9795  -18.2864 C   0  0  0  0  0  0  0  0  0  0  0  0
   31.4526  -28.1545  -17.0673 O   0  0  0  0  0  0  0  0  0  0  0  0
   29.3235  -26.1352  -16.2872 C   0  0  0  0  0  0  0  0  0  0  0  0
   28.2605  -26.9975  -16.8808 C   0  0  1  0  0  0  0  0  0  0  0  0
   27.6275  -26.2821  -17.8800 O   0  0  0  0  0  0  0  0  0  0  0  0
   28.7358  -28.3099  -17.4389 C   0  0  2  0  0  0  0  0  0  0  0  0
   29.7145  -28.1171  -18.4929 N   0  0  0  0  0  0  0  0  0  0  0  0
   27.6067  -29.1465  -17.8626 C   0  0  0  0  0  0  0  0  0  0  0  0
   27.4301  -29.4496  -19.1021 O   0  0  0  0  0  0  0  0  0  0  0  0
   24.5407  -34.0977  -16.3226 C   0  0  0  0  0  0  0  0  0  0  0  0
   24.4799  -32.7860  -17.0527 C   0  0  0  0  0  0  0  0  0  0  0  0
   25.5488  -31.8119  -16.6703 C   0  0  2  0  0  0  0  0  0  0  0  0
   25.3689  -31.5235  -15.1964 C   0  0  0  0  0  0  0  0  0  0  0  0
   25.5520  -30.5409  -17.5057 C   0  0  2  0  0  0  0  0  0  0  0  0
   26.6287  -29.6917  -16.9861 N   0  0  0  0  0  0  0  0  0  0  0  0
   24.2368  -29.8852  -17.3250 C   0  0  0  0  0  0  0  0  0  0  0  0
   24.0089  -28.9638  -16.4983 O   0  0  0  0  0  0  0  0  0  0  0  0
   23.1817  -30.3122  -18.1204 O   0  0  0  0  0  0  0  0  0  0  0  0
  2  3  1  0
  2  1  1  1
  4  9  2  0
  4  3  1  0
  5  4  1  0
  6  7  1  0
  6  5  2  0
  7  8  2  0
  8  9  1  0
 10  2  1  0
 11 10  2  0
 13 12  1  6
 14 13  1  0
 15 13  1  0
 15 16  1  6
 16 10  1  0
 17 18  2  0
 17 15  1  0
 19 20  1  0
 20 21  1  0
 21 23  1  0
 21 22  1  1
 23 24  1  1
 24 17  1  0
 25 23  1  0
 25 27  1  0
 26 25  2  0
M  END
$$$$
