FTI.pdb
     RDKit          3D

 27 27  0  0  1  0  0  0  0  0999 V2000
   30.8265  -23.5810  -16.3898 N   0  0  0  0  0  0  0  0  0  0  0  0
   30.3507  -22.7529  -15.3364 C   0  0  1  0  0  0  0  0  0  0  0  0
   31.4587  -21.7596  -15.0065 C   0  0  0  0  0  0  0  0  0  0  0  0
   32.0852  -22.2200  -13.7422 C   0  0  0  0  0  0  0  0  0  0  0  0
   32.9867  -23.2568  -13.6748 C   0  0  0  0  0  0  0  0  0  0  0  0
   33.5346  -23.6245  -12.4553 C   0  0  0  0  0  0  0  0  0  0  0  0
   33.2173  -22.9906  -11.2730 C   0  0  0  0  0  0  0  0  0  0  0  0
   32.3066  -21.9444  -11.3494 C   0  0  0  0  0  0  0  0  0  0  0  0
   31.7424  -21.5574  -12.5674 C   0  0  0  0  0  0  0  0  0  0  0  0
   29.0607  -22.0931  -15.5332 C   0  0  0  0  0  0  0  0  0  0  0  0
   28.9098  -21.3763  -16.5875 O   0  0  0  0  0  0  0  0  0  0  0  0
   27.1493  -20.8696  -17.3256 C   0  0  0  0  0  0  0  0  0  0  0  0
   26.2180  -21.3291  -16.2544 C   0  0  1  0  0  0  0  0  0  0  0  0
   25.8313  -22.6250  -16.5405 O   0  0  0  0  0  0  0  0  0  0  0  0
   26.7704  -21.2760  -14.8573 C   0  0  2  0  0  0  0  0  0  0  0  0
   27.9311  -22.1344  -14.7108 N   0  0  0  0  0  0  0  0  0  0  0  0
   25.7284  -21.5603  -13.8635 C   0  0  0  0  0  0  0  0  0  0  0  0
   25.4730  -22.7672  -13.4924 O   0  0  0  0  0  0  0  0  0  0  0  0
   26.1105  -20.2260   -9.1455 C   0  0  0  0  0  0  0  0  0  0  0  0
   25.6220  -20.8929  -10.4000 C   0  0  0  0  0  0  0  0  0  0  0  0
   24.3186  -20.3697  -10.9147 C   0  0  2  0  0  0  0  0  0  0  0  0
   23.2902  -20.6221   -9.8345 C   0  0  0  0  0  0  0  0  0  0  0  0
   23.9012  -20.9625  -12.2517 C   0  0  2  0  0  0  0  0  0  0  0  0
   24.9240  -20.5746  -13.2283 N   0  0  0  0  0  0  0  0  0  0  0  0
   22.5893  -20.3764  -12.6093 C   0  0  0  0  0  0  0  0  0  0  0  0
   21.4872  -20.7564  -12.1346 O   0  0  0  0  0  0  0  0  0  0  0  0
   22.5699  -19.3362  -13.5290 O   0  0  0  0  0  0  0  0  0  0  0  0
  2  3  1  0
  2  1  1  6
  4  9  2  0
  4  3  1  0
  5  4  1  0
  6  7  1  0
  6  5  2  0
  7  8  2  0
  8  9  1  0
 10  2  1  0
 11 10  2  0
 13 12  1  6
 14 13  1  0
 15 13  1  0
 15 16  1  6
 16 10  1  0
 17 18  2  0
 17 15  1  0
 19 20  1  0
 20 21  1  0
 21 23  1  0
 21 22  1  1
 23 24  1  6
 24 17  1  0
 25 23  1  0
 25 27  1  0
 26 25  2  0
M  END
$$$$
