FTI.pdb
     RDKit          3D

 27 27  0  0  1  0  0  0  0  0999 V2000
   16.8226  -19.2300    2.2214 N   0  0  0  0  0  0  0  0  0  0  0  0
   17.8032  -18.4102    2.8443 C   0  0  1  0  0  0  0  0  0  0  0  0
   18.1602  -17.3039    1.8583 C   0  0  0  0  0  0  0  0  0  0  0  0
   19.3967  -17.7347    1.1595 C   0  0  0  0  0  0  0  0  0  0  0  0
   19.3959  -18.5042    0.0192 C   0  0  0  0  0  0  0  0  0  0  0  0
   20.5942  -18.8610   -0.5804 C   0  0  0  0  0  0  0  0  0  0  0  0
   21.8211  -18.4763   -0.0835 C   0  0  0  0  0  0  0  0  0  0  0  0
   21.8135  -17.6991    1.0679 C   0  0  0  0  0  0  0  0  0  0  0  0
   20.6180  -17.3282    1.6883 C   0  0  0  0  0  0  0  0  0  0  0  0
   17.4914  -17.8840    4.1724 C   0  0  0  0  0  0  0  0  0  0  0  0
   16.3528  -18.1853    4.6834 O   0  0  0  0  0  0  0  0  0  0  0  0
   16.6472  -18.8392    6.7347 C   0  0  0  0  0  0  0  0  0  0  0  0
   17.7167  -17.9161    7.2144 C   0  0  1  0  0  0  0  0  0  0  0  0
   18.8943  -18.6323    7.3206 O   0  0  0  0  0  0  0  0  0  0  0  0
   17.9517  -16.7046    6.3559 C   0  0  2  0  0  0  0  0  0  0  0  0
   18.2829  -17.0746    4.9923 N   0  0  0  0  0  0  0  0  0  0  0  0
   18.9503  -15.8132    6.9579 C   0  0  0  0  0  0  0  0  0  0  0  0
   20.2033  -16.1119    6.9463 O   0  0  0  0  0  0  0  0  0  0  0  0
   18.7646  -11.3467    4.8382 C   0  0  0  0  0  0  0  0  0  0  0  0
   19.2222  -12.5552    5.6047 C   0  0  0  0  0  0  0  0  0  0  0  0
   19.3641  -12.3395    7.0781 C   0  0  2  0  0  0  0  0  0  0  0  0
   20.3972  -11.2500    7.2618 C   0  0  0  0  0  0  0  0  0  0  0  0
   19.7167  -13.5990    7.8543 C   0  0  2  0  0  0  0  0  0  0  0  0
   18.6541  -14.5744    7.5901 N   0  0  0  0  0  0  0  0  0  0  0  0
   19.7521  -13.2422    9.2909 C   0  0  0  0  0  0  0  0  0  0  0  0
   20.7384  -12.7155    9.8690 O   0  0  0  0  0  0  0  0  0  0  0  0
   18.6222  -13.5034   10.0546 O   0  0  0  0  0  0  0  0  0  0  0  0
  2  3  1  0
  2  1  1  6
  4  9  2  0
  4  3  1  0
  5  4  1  0
  6  7  1  0
  6  5  2  0
  7  8  2  0
  8  9  1  0
 10  2  1  0
 11 10  2  0
 13 12  1  6
 14 13  1  0
 15 13  1  0
 15 16  1  6
 16 10  1  0
 17 18  2  0
 17 15  1  0
 19 20  1  0
 20 21  1  0
 21 23  1  0
 21 22  1  6
 23 24  1  1
 24 17  1  0
 25 23  1  0
 25 27  1  0
 26 25  2  0
M  END
$$$$
