FTI.pdb
     RDKit          3D

 27 27  0  0  1  0  0  0  0  0999 V2000
   22.3889   -5.4970  -17.7207 N   0  0  0  0  0  0  0  0  0  0  0  0
   21.6708   -5.7990  -16.5312 C   0  0  1  0  0  0  0  0  0  0  0  0
   21.4813   -4.4904  -15.7730 C   0  0  0  0  0  0  0  0  0  0  0  0
   22.7855   -3.7826  -15.8062 C   0  0  0  0  0  0  0  0  0  0  0  0
   23.0614   -2.7381  -16.6577 C   0  0  0  0  0  0  0  0  0  0  0  0
   24.3033   -2.1224  -16.6243 C   0  0  0  0  0  0  0  0  0  0  0  0
   25.3054   -2.5096  -15.7604 C   0  0  0  0  0  0  0  0  0  0  0  0
   25.0189   -3.5647  -14.9035 C   0  0  0  0  0  0  0  0  0  0  0  0
   23.7744   -4.1993  -14.9203 C   0  0  0  0  0  0  0  0  0  0  0  0
   20.4175   -6.5385  -16.6745 C   0  0  0  0  0  0  0  0  0  0  0  0
   19.6364   -6.2111  -17.6393 O   0  0  0  0  0  0  0  0  0  0  0  0
   19.9396  -10.4897  -16.6157 C   0  0  0  0  0  0  0  0  0  0  0  0
   18.8759   -9.7874  -15.8404 C   0  0  1  0  0  0  0  0  0  0  0  0
   19.1483   -9.9372  -14.4934 O   0  0  0  0  0  0  0  0  0  0  0  0
   18.7137   -8.3256  -16.1515 C   0  0  2  0  0  0  0  0  0  0  0  0
   19.9338   -7.5863  -15.8858 N   0  0  0  0  0  0  0  0  0  0  0  0
   17.5492   -7.7616  -15.4588 C   0  0  0  0  0  0  0  0  0  0  0  0
   17.6896   -7.0177  -14.4165 O   0  0  0  0  0  0  0  0  0  0  0  0
   12.2269   -5.1065  -16.3824 C   0  0  0  0  0  0  0  0  0  0  0  0
   13.0378   -5.9541  -15.4436 C   0  0  0  0  0  0  0  0  0  0  0  0
   14.2545   -6.5710  -16.0572 C   0  0  2  0  0  0  0  0  0  0  0  0
   13.7772   -7.4148  -17.2183 C   0  0  0  0  0  0  0  0  0  0  0  0
   15.1004   -7.3708  -15.0784 C   0  0  2  0  0  0  0  0  0  0  0  0
   16.1971   -7.9653  -15.8492 N   0  0  0  0  0  0  0  0  0  0  0  0
   14.2366   -8.4257  -14.5010 C   0  0  0  0  0  0  0  0  0  0  0  0
   14.1949   -9.6148  -14.9116 O   0  0  0  0  0  0  0  0  0  0  0  0
   13.4169   -8.0840  -13.4335 O   0  0  0  0  0  0  0  0  0  0  0  0
  2  3  1  0
  2  1  1  6
  4  9  2  0
  4  3  1  0
  5  4  1  0
  6  7  1  0
  6  5  2  0
  7  8  2  0
  8  9  1  0
 10  2  1  0
 11 10  2  0
 13 12  1  6
 14 13  1  0
 15 13  1  0
 15 16  1  1
 16 10  1  0
 17 18  2  0
 17 15  1  0
 19 20  1  0
 20 21  1  0
 21 23  1  0
 21 22  1  6
 23 24  1  6
 24 17  1  0
 25 23  1  0
 25 27  1  0
 26 25  2  0
M  END
$$$$
