FTI.pdb
     RDKit          3D

 27 27  0  0  1  0  0  0  0  0999 V2000
   16.1290  -16.8094  -19.9456 N   0  0  0  0  0  0  0  0  0  0  0  0
   15.7285  -17.0477  -18.6023 C   0  0  1  0  0  0  0  0  0  0  0  0
   14.6065  -16.0662  -18.2842 C   0  0  0  0  0  0  0  0  0  0  0  0
   15.1860  -14.7037  -18.3886 C   0  0  0  0  0  0  0  0  0  0  0  0
   16.0446  -14.1700  -17.4557 C   0  0  0  0  0  0  0  0  0  0  0  0
   16.5502  -12.8903  -17.6270 C   0  0  0  0  0  0  0  0  0  0  0  0
   16.2315  -12.1008  -18.7111 C   0  0  0  0  0  0  0  0  0  0  0  0
   15.3643  -12.6469  -19.6489 C   0  0  0  0  0  0  0  0  0  0  0  0
   14.8432  -13.9341  -19.4961 C   0  0  0  0  0  0  0  0  0  0  0  0
   15.3776  -18.4204  -18.2411 C   0  0  0  0  0  0  0  0  0  0  0  0
   14.6624  -19.0928  -19.0684 O   0  0  0  0  0  0  0  0  0  0  0  0
   17.1089  -21.6174  -18.1084 C   0  0  0  0  0  0  0  0  0  0  0  0
   16.4295  -21.4479  -16.7911 C   0  0  1  0  0  0  0  0  0  0  0  0
   17.3724  -21.0457  -15.8637 O   0  0  0  0  0  0  0  0  0  0  0  0
   15.2818  -20.4769  -16.7809 C   0  0  2  0  0  0  0  0  0  0  0  0
   15.7227  -19.1285  -17.0863 N   0  0  0  0  0  0  0  0  0  0  0  0
   14.5321  -20.5546  -15.5215 C   0  0  0  0  0  0  0  0  0  0  0  0
   14.8875  -19.8682  -14.4910 O   0  0  0  0  0  0  0  0  0  0  0  0
    9.3174  -22.0014  -15.6658 C   0  0  0  0  0  0  0  0  0  0  0  0
   10.4855  -21.2398  -15.1065 C   0  0  0  0  0  0  0  0  0  0  0  0
   11.3655  -22.0339  -14.1941 C   0  0  2  0  0  0  0  0  0  0  0  0
   10.6155  -22.1876  -12.8895 C   0  0  0  0  0  0  0  0  0  0  0  0
   12.7473  -21.4314  -13.9919 C   0  0  2  0  0  0  0  0  0  0  0  0
   13.3792  -21.3606  -15.3133 N   0  0  0  0  0  0  0  0  0  0  0  0
   13.5036  -22.3395  -13.0999 C   0  0  0  0  0  0  0  0  0  0  0  0
   14.1093  -23.3734  -13.4851 O   0  0  0  0  0  0  0  0  0  0  0  0
   13.5510  -22.0321  -11.7465 O   0  0  0  0  0  0  0  0  0  0  0  0
  2  3  1  0
  2  1  1  6
  4  9  2  0
  4  3  1  0
  5  4  1  0
  6  7  1  0
  6  5  2  0
  7  8  2  0
  8  9  1  0
 10  2  1  0
 11 10  2  0
 13 12  1  6
 14 13  1  0
 15 13  1  0
 15 16  1  1
 16 10  1  0
 17 18  2  0
 17 15  1  0
 19 20  1  0
 20 21  1  0
 21 23  1  0
 21 22  1  1
 23 24  1  6
 24 17  1  0
 25 23  1  0
 25 27  1  0
 26 25  2  0
M  END
$$$$
