FTI.pdb
     RDKit          3D

 27 27  0  0  1  0  0  0  0  0999 V2000
   22.4109  -21.5959  -13.5895 N   0  0  0  0  0  0  0  0  0  0  0  0
   23.2371  -20.6819  -12.8797 C   0  0  1  0  0  0  0  0  0  0  0  0
   22.3794  -19.4694  -12.5371 C   0  0  0  0  0  0  0  0  0  0  0  0
   22.1396  -18.7407  -13.8078 C   0  0  0  0  0  0  0  0  0  0  0  0
   23.1333  -18.1129  -14.5225 C   0  0  0  0  0  0  0  0  0  0  0  0
   22.8311  -17.4574  -15.7064 C   0  0  0  0  0  0  0  0  0  0  0  0
   21.5539  -17.3984  -16.2219 C   0  0  0  0  0  0  0  0  0  0  0  0
   20.5562  -18.0352  -15.4947 C   0  0  0  0  0  0  0  0  0  0  0  0
   20.8384  -18.7014  -14.2996 C   0  0  0  0  0  0  0  0  0  0  0  0
   23.9559  -21.1945  -11.7142 C   0  0  0  0  0  0  0  0  0  0  0  0
   24.1260  -22.4640  -11.6264 O   0  0  0  0  0  0  0  0  0  0  0  0
   26.5918  -21.8745  -12.0259 C   0  0  0  0  0  0  0  0  0  0  0  0
   26.8612  -21.1002  -10.7794 C   0  0  1  0  0  0  0  0  0  0  0  0
   27.3903  -19.8736  -11.1349 O   0  0  0  0  0  0  0  0  0  0  0  0
   25.6702  -20.8842   -9.8878 C   0  0  2  0  0  0  0  0  0  0  0  0
   24.5035  -20.4754  -10.6478 N   0  0  0  0  0  0  0  0  0  0  0  0
   25.9864  -19.9564   -8.7954 C   0  0  0  0  0  0  0  0  0  0  0  0
   25.5601  -18.7409   -8.8090 O   0  0  0  0  0  0  0  0  0  0  0  0
   29.9295  -20.9865   -4.6834 C   0  0  0  0  0  0  0  0  0  0  0  0
   29.1532  -20.3883   -5.8222 C   0  0  0  0  0  0  0  0  0  0  0  0
   27.7491  -20.0012   -5.4814 C   0  0  2  0  0  0  0  0  0  0  0  0
   27.0400  -21.2663   -5.0517 C   0  0  0  0  0  0  0  0  0  0  0  0
   27.0157  -19.2884   -6.6072 C   0  0  2  0  0  0  0  0  0  0  0  0
   26.7630  -20.2870   -7.6509 N   0  0  0  0  0  0  0  0  0  0  0  0
   27.9063  -18.2190   -7.1127 C   0  0  0  0  0  0  0  0  0  0  0  0
   28.6142  -18.3135   -8.1492 O   0  0  0  0  0  0  0  0  0  0  0  0
   27.9660  -17.0297   -6.3985 O   0  0  0  0  0  0  0  0  0  0  0  0
  2  3  1  0
  2  1  1  1
  4  9  2  0
  4  3  1  0
  5  4  1  0
  6  7  1  0
  6  5  2  0
  7  8  2  0
  8  9  1  0
 10  2  1  0
 11 10  2  0
 13 12  1  6
 14 13  1  0
 15 13  1  0
 15 16  1  6
 16 10  1  0
 17 18  2  0
 17 15  1  0
 19 20  1  0
 20 21  1  0
 21 23  1  0
 21 22  1  6
 23 24  1  6
 24 17  1  0
 25 23  1  0
 25 27  1  0
 26 25  2  0
M  END
$$$$
