FTI.pdb
     RDKit          3D

 27 27  0  0  1  0  0  0  0  0999 V2000
   37.1312  -25.5647  -14.3742 N   0  0  0  0  0  0  0  0  0  0  0  0
   35.8643  -25.9489  -14.8930 C   0  0  1  0  0  0  0  0  0  0  0  0
   35.0692  -24.6714  -15.1361 C   0  0  0  0  0  0  0  0  0  0  0  0
   34.7755  -24.0886  -13.8030 C   0  0  0  0  0  0  0  0  0  0  0  0
   33.7358  -24.5051  -13.0044 C   0  0  0  0  0  0  0  0  0  0  0  0
   33.5295  -23.9152  -11.7666 C   0  0  0  0  0  0  0  0  0  0  0  0
   34.3314  -22.9061  -11.2778 C   0  0  0  0  0  0  0  0  0  0  0  0
   35.3794  -22.4915  -12.0898 C   0  0  0  0  0  0  0  0  0  0  0  0
   35.6054  -23.0719  -13.3404 C   0  0  0  0  0  0  0  0  0  0  0  0
   35.8572  -26.8317  -16.0585 C   0  0  0  0  0  0  0  0  0  0  0  0
   36.8332  -26.7369  -16.8872 O   0  0  0  0  0  0  0  0  0  0  0  0
   36.4789  -30.5795  -18.4539 C   0  0  0  0  0  0  0  0  0  0  0  0
   36.3410  -29.4695  -17.4667 C   0  0  1  0  0  0  0  0  0  0  0  0
   37.3853  -28.5843  -17.6585 O   0  0  0  0  0  0  0  0  0  0  0  0
   35.0403  -28.7179  -17.5232 C   0  0  2  0  0  0  0  0  0  0  0  0
   34.9089  -27.7969  -16.4095 N   0  0  0  0  0  0  0  0  0  0  0  0
   33.9009  -29.6365  -17.6340 C   0  0  0  0  0  0  0  0  0  0  0  0
   33.4060  -30.2129  -16.5937 O   0  0  0  0  0  0  0  0  0  0  0  0
   29.9470  -28.8779  -19.5487 C   0  0  0  0  0  0  0  0  0  0  0  0
   30.9406  -29.4163  -20.5387 C   0  0  0  0  0  0  0  0  0  0  0  0
   31.4528  -30.7857  -20.2229 C   0  0  2  0  0  0  0  0  0  0  0  0
   30.2837  -31.7338  -20.3724 C   0  0  0  0  0  0  0  0  0  0  0  0
   32.1092  -30.8981  -18.8554 C   0  0  2  0  0  0  0  0  0  0  0  0
   33.2468  -29.9729  -18.8511 N   0  0  0  0  0  0  0  0  0  0  0  0
   32.5723  -32.2955  -18.6966 C   0  0  0  0  0  0  0  0  0  0  0  0
   33.4255  -32.8506  -19.4370 O   0  0  0  0  0  0  0  0  0  0  0  0
   32.0321  -33.0467  -17.6612 O   0  0  0  0  0  0  0  0  0  0  0  0
  2  3  1  0
  2  1  1  6
  4  9  2  0
  4  3  1  0
  5  4  1  0
  6  7  1  0
  6  5  2  0
  7  8  2  0
  8  9  1  0
 10  2  1  0
 11 10  2  0
 13 12  1  6
 14 13  1  0
 15 13  1  0
 15 16  1  1
 16 10  1  0
 17 18  2  0
 17 15  1  0
 19 20  1  0
 20 21  1  0
 21 23  1  0
 21 22  1  1
 23 24  1  6
 24 17  1  0
 25 23  1  0
 25 27  1  0
 26 25  2  0
M  END
$$$$
