FTI.pdb
     RDKit          3D

 27 27  0  0  1  0  0  0  0  0999 V2000
   28.5274  -21.0250   -8.5360 N   0  0  0  0  0  0  0  0  0  0  0  0
   27.1315  -20.7654   -8.6121 C   0  0  1  0  0  0  0  0  0  0  0  0
   26.8618  -19.5024   -7.8025 C   0  0  0  0  0  0  0  0  0  0  0  0
   27.5527  -19.6721   -6.4999 C   0  0  0  0  0  0  0  0  0  0  0  0
   27.1811  -20.6040   -5.5587 C   0  0  0  0  0  0  0  0  0  0  0  0
   27.8815  -20.7064   -4.3664 C   0  0  0  0  0  0  0  0  0  0  0  0
   28.9604  -19.9037   -4.0633 C   0  0  0  0  0  0  0  0  0  0  0  0
   29.3298  -18.9656   -5.0189 C   0  0  0  0  0  0  0  0  0  0  0  0
   28.6382  -18.8452   -6.2268 C   0  0  0  0  0  0  0  0  0  0  0  0
   26.5332  -20.7031   -9.9448 C   0  0  0  0  0  0  0  0  0  0  0  0
   27.0788  -19.9276  -10.8102 O   0  0  0  0  0  0  0  0  0  0  0  0
   24.7659  -22.4179  -14.0206 C   0  0  0  0  0  0  0  0  0  0  0  0
   25.1067  -22.5186  -12.5716 C   0  0  1  0  0  0  0  0  0  0  0  0
   26.4312  -22.8985  -12.4615 O   0  0  0  0  0  0  0  0  0  0  0  0
   24.8845  -21.2656  -11.7712 C   0  0  2  0  0  0  0  0  0  0  0  0
   25.4161  -21.3915  -10.4268 N   0  0  0  0  0  0  0  0  0  0  0  0
   23.4710  -20.8706  -11.7852 C   0  0  0  0  0  0  0  0  0  0  0  0
   22.7233  -21.0336  -10.7489 O   0  0  0  0  0  0  0  0  0  0  0  0
   19.6896  -16.6237  -13.9302 C   0  0  0  0  0  0  0  0  0  0  0  0
   19.8316  -18.0348  -13.4343 C   0  0  0  0  0  0  0  0  0  0  0  0
   21.2299  -18.5653  -13.4617 C   0  0  2  0  0  0  0  0  0  0  0  0
   21.6657  -18.5712  -14.9102 C   0  0  0  0  0  0  0  0  0  0  0  0
   21.3835  -19.9322  -12.8125 C   0  0  2  0  0  0  0  0  0  0  0  0
   22.8036  -20.2875  -12.8973 N   0  0  0  0  0  0  0  0  0  0  0  0
   20.5592  -20.8884  -13.5862 C   0  0  0  0  0  0  0  0  0  0  0  0
   20.9637  -21.5215  -14.5961 O   0  0  0  0  0  0  0  0  0  0  0  0
   19.2517  -21.1048  -13.1718 O   0  0  0  0  0  0  0  0  0  0  0  0
  2  3  1  0
  2  1  1  6
  4  9  2  0
  4  3  1  0
  5  4  1  0
  6  7  1  0
  6  5  2  0
  7  8  2  0
  8  9  1  0
 10  2  1  0
 11 10  2  0
 13 12  1  6
 14 13  1  0
 15 13  1  0
 15 16  1  1
 16 10  1  0
 17 18  2  0
 17 15  1  0
 19 20  1  0
 20 21  1  0
 21 23  1  0
 21 22  1  6
 23 24  1  6
 24 17  1  0
 25 23  1  0
 25 27  1  0
 26 25  2  0
M  END
$$$$
