FTI.pdb
     RDKit          3D

 27 27  0  0  1  0  0  0  0  0999 V2000
   21.3456  -15.9335  -19.2147 N   0  0  0  0  0  0  0  0  0  0  0  0
   20.6208  -14.9892  -18.4370 C   0  0  1  0  0  0  0  0  0  0  0  0
   20.4628  -15.5798  -17.0407 C   0  0  0  0  0  0  0  0  0  0  0  0
   19.5556  -16.7475  -17.1691 C   0  0  0  0  0  0  0  0  0  0  0  0
   19.9974  -18.0482  -17.2418 C   0  0  0  0  0  0  0  0  0  0  0  0
   19.0863  -19.0874  -17.3541 C   0  0  0  0  0  0  0  0  0  0  0  0
   17.7236  -18.8839  -17.3979 C   0  0  0  0  0  0  0  0  0  0  0  0
   17.2853  -17.5678  -17.3234 C   0  0  0  0  0  0  0  0  0  0  0  0
   18.1858  -16.5056  -17.2100 C   0  0  0  0  0  0  0  0  0  0  0  0
   21.1304  -13.6192  -18.4006 C   0  0  0  0  0  0  0  0  0  0  0  0
   22.4023  -13.4550  -18.3408 O   0  0  0  0  0  0  0  0  0  0  0  0
   20.2419  -10.5947  -20.7652 C   0  0  0  0  0  0  0  0  0  0  0  0
   20.2837  -10.1620  -19.3381 C   0  0  1  0  0  0  0  0  0  0  0  0
   18.9850   -9.9853  -18.8987 O   0  0  0  0  0  0  0  0  0  0  0  0
   20.9976  -11.0987  -18.4038 C   0  0  2  0  0  0  0  0  0  0  0  0
   20.4062  -12.4237  -18.4239 N   0  0  0  0  0  0  0  0  0  0  0  0
   21.0803  -10.5373  -17.0502 C   0  0  0  0  0  0  0  0  0  0  0  0
   20.2944  -10.9404  -16.1125 O   0  0  0  0  0  0  0  0  0  0  0  0
   25.2567  -10.8763  -14.3297 C   0  0  0  0  0  0  0  0  0  0  0  0
   23.8158  -10.6647  -14.6992 C   0  0  0  0  0  0  0  0  0  0  0  0
   23.3789   -9.2341  -14.7027 C   0  0  2  0  0  0  0  0  0  0  0  0
   23.4951   -8.7392  -13.2780 C   0  0  0  0  0  0  0  0  0  0  0  0
   21.9854   -9.0166  -15.2720 C   0  0  2  0  0  0  0  0  0  0  0  0
   22.0004   -9.5317  -16.6449 N   0  0  0  0  0  0  0  0  0  0  0  0
   21.7231   -7.5594  -15.2642 C   0  0  0  0  0  0  0  0  0  0  0  0
   21.3180   -6.9148  -14.2619 O   0  0  0  0  0  0  0  0  0  0  0  0
   21.9387   -6.8527  -16.4400 O   0  0  0  0  0  0  0  0  0  0  0  0
  2  3  1  0
  2  1  1  6
  4  9  2  0
  4  3  1  0
  5  4  1  0
  6  7  1  0
  6  5  2  0
  7  8  2  0
  8  9  1  0
 10  2  1  0
 11 10  2  0
 13 12  1  6
 14 13  1  0
 15 13  1  0
 15 16  1  1
 16 10  1  0
 17 18  2  0
 17 15  1  0
 19 20  1  0
 20 21  1  0
 21 23  1  0
 21 22  1  1
 23 24  1  6
 24 17  1  0
 25 23  1  0
 25 27  1  0
 26 25  2  0
M  END
$$$$
