FTI.pdb
     RDKit          3D

 27 27  0  0  1  0  0  0  0  0999 V2000
   28.8793  -22.6620  -18.8571 N   0  0  0  0  0  0  0  0  0  0  0  0
   27.8685  -22.9058  -17.8873 C   0  0  1  0  0  0  0  0  0  0  0  0
   27.9884  -24.3659  -17.4666 C   0  0  0  0  0  0  0  0  0  0  0  0
   27.5074  -25.1824  -18.6090 C   0  0  0  0  0  0  0  0  0  0  0  0
   28.3408  -25.7211  -19.5617 C   0  0  0  0  0  0  0  0  0  0  0  0
   27.8158  -26.4795  -20.5969 C   0  0  0  0  0  0  0  0  0  0  0  0
   26.4668  -26.7312  -20.7281 C   0  0  0  0  0  0  0  0  0  0  0  0
   25.6319  -26.1843  -19.7619 C   0  0  0  0  0  0  0  0  0  0  0  0
   26.1395  -25.4170  -18.7105 C   0  0  0  0  0  0  0  0  0  0  0  0
   27.8119  -22.0046  -16.7372 C   0  0  0  0  0  0  0  0  0  0  0  0
   28.6181  -21.0057  -16.7194 O   0  0  0  0  0  0  0  0  0  0  0  0
   24.7640  -19.0444  -15.1054 C   0  0  0  0  0  0  0  0  0  0  0  0
   25.5646  -20.0930  -15.8021 C   0  0  1  0  0  0  0  0  0  0  0  0
   26.3481  -19.4774  -16.7602 O   0  0  0  0  0  0  0  0  0  0  0  0
   26.4404  -20.9295  -14.9114 C   0  0  2  0  0  0  0  0  0  0  0  0
   26.9768  -22.0776  -15.6186 N   0  0  0  0  0  0  0  0  0  0  0  0
   25.7395  -21.3031  -13.6772 C   0  0  0  0  0  0  0  0  0  0  0  0
   24.7566  -22.1357  -13.6950 O   0  0  0  0  0  0  0  0  0  0  0  0
   25.8989  -20.3225   -7.4882 C   0  0  0  0  0  0  0  0  0  0  0  0
   25.2766  -20.9546   -8.7008 C   0  0  0  0  0  0  0  0  0  0  0  0
   25.9283  -20.5878   -9.9963 C   0  0  2  0  0  0  0  0  0  0  0  0
   25.9620  -19.0767  -10.0549 C   0  0  0  0  0  0  0  0  0  0  0  0
   25.2545  -21.1928  -11.2183 C   0  0  2  0  0  0  0  0  0  0  0  0
   26.0585  -20.8084  -12.3828 N   0  0  0  0  0  0  0  0  0  0  0  0
   23.8944  -20.6149  -11.3094 C   0  0  0  0  0  0  0  0  0  0  0  0
   23.6308  -19.4921  -11.8136 O   0  0  0  0  0  0  0  0  0  0  0  0
   22.8355  -21.3597  -10.8072 O   0  0  0  0  0  0  0  0  0  0  0  0
  2  3  1  0
  2  1  1  6
  4  9  2  0
  4  3  1  0
  5  4  1  0
  6  7  1  0
  6  5  2  0
  7  8  2  0
  8  9  1  0
 10  2  1  0
 11 10  2  0
 13 12  1  1
 14 13  1  0
 15 13  1  0
 15 16  1  6
 16 10  1  0
 17 18  2  0
 17 15  1  0
 19 20  1  0
 20 21  1  0
 21 23  1  0
 21 22  1  6
 23 24  1  6
 24 17  1  0
 25 23  1  0
 25 27  1  0
 26 25  2  0
M  END
$$$$
