FTI.pdb
     RDKit          3D

 27 27  0  0  1  0  0  0  0  0999 V2000
   25.9747  -16.7963  -17.5365 N   0  0  0  0  0  0  0  0  0  0  0  0
   26.5361  -17.3370  -16.3473 C   0  0  1  0  0  0  0  0  0  0  0  0
   27.5287  -16.3127  -15.8097 C   0  0  0  0  0  0  0  0  0  0  0  0
   28.6425  -16.2402  -16.7881 C   0  0  0  0  0  0  0  0  0  0  0  0
   28.8950  -15.1378  -17.5712 C   0  0  0  0  0  0  0  0  0  0  0  0
   29.9605  -15.1437  -18.4585 C   0  0  0  0  0  0  0  0  0  0  0  0
   30.8050  -16.2236  -18.6036 C   0  0  0  0  0  0  0  0  0  0  0  0
   30.5437  -17.3327  -17.8091 C   0  0  0  0  0  0  0  0  0  0  0  0
   29.4757  -17.3482  -16.9085 C   0  0  0  0  0  0  0  0  0  0  0  0
   25.6066  -17.7963  -15.3162 C   0  0  0  0  0  0  0  0  0  0  0  0
   24.7137  -16.9708  -14.9046 O   0  0  0  0  0  0  0  0  0  0  0  0
   22.3807  -20.6791  -13.3891 C   0  0  0  0  0  0  0  0  0  0  0  0
   23.3830  -20.1195  -14.3421 C   0  0  1  0  0  0  0  0  0  0  0  0
   22.7375  -19.2285  -15.1790 O   0  0  0  0  0  0  0  0  0  0  0  0
   24.5607  -19.4348  -13.7064 C   0  0  2  0  0  0  0  0  0  0  0  0
   25.5491  -19.0476  -14.6957 N   0  0  0  0  0  0  0  0  0  0  0  0
   25.1306  -20.2512  -12.6279 C   0  0  0  0  0  0  0  0  0  0  0  0
   25.8255  -21.3048  -12.8858 O   0  0  0  0  0  0  0  0  0  0  0  0
   26.9377  -18.0773   -8.1678 C   0  0  0  0  0  0  0  0  0  0  0  0
   26.8662  -19.1506   -9.2167 C   0  0  0  0  0  0  0  0  0  0  0  0
   25.7961  -20.1709   -8.9897 C   0  0  2  0  0  0  0  0  0  0  0  0
   26.2824  -21.0727   -7.8769 C   0  0  0  0  0  0  0  0  0  0  0  0
   25.4172  -20.9546  -10.2369 C   0  0  2  0  0  0  0  0  0  0  0  0
   24.9848  -19.9765  -11.2403 N   0  0  0  0  0  0  0  0  0  0  0  0
   24.3016  -21.8580   -9.8741 C   0  0  0  0  0  0  0  0  0  0  0  0
   23.0996  -21.4985   -9.7716 O   0  0  0  0  0  0  0  0  0  0  0  0
   24.5974  -23.1928   -9.6311 O   0  0  0  0  0  0  0  0  0  0  0  0
  2  3  1  0
  2  1  1  6
  4  9  2  0
  4  3  1  0
  5  4  1  0
  6  7  1  0
  6  5  2  0
  7  8  2  0
  8  9  1  0
 10  2  1  0
 11 10  2  0
 13 12  1  1
 14 13  1  0
 15 13  1  0
 15 16  1  6
 16 10  1  0
 17 18  2  0
 17 15  1  0
 19 20  1  0
 20 21  1  0
 21 23  1  0
 21 22  1  1
 23 24  1  6
 24 17  1  0
 25 23  1  0
 25 27  1  0
 26 25  2  0
M  END
$$$$
