FTI.pdb
     RDKit          3D

 27 27  0  0  1  0  0  0  0  0999 V2000
   24.4389  -16.7234  -17.6544 N   0  0  0  0  0  0  0  0  0  0  0  0
   25.0008  -16.7898  -16.3499 C   0  0  1  0  0  0  0  0  0  0  0  0
   24.3385  -15.6991  -15.5163 C   0  0  0  0  0  0  0  0  0  0  0  0
   25.0406  -14.4306  -15.8338 C   0  0  0  0  0  0  0  0  0  0  0  0
   26.2572  -14.0806  -15.2955 C   0  0  0  0  0  0  0  0  0  0  0  0
   26.8540  -12.8794  -15.6469 C   0  0  0  0  0  0  0  0  0  0  0  0
   26.2798  -11.9911  -16.5310 C   0  0  0  0  0  0  0  0  0  0  0  0
   25.0517  -12.3519  -17.0705 C   0  0  0  0  0  0  0  0  0  0  0  0
   24.4325  -13.5573  -16.7304 C   0  0  0  0  0  0  0  0  0  0  0  0
   24.9787  -18.0873  -15.6761 C   0  0  0  0  0  0  0  0  0  0  0  0
   24.4795  -19.0840  -16.3128 O   0  0  0  0  0  0  0  0  0  0  0  0
   26.5670  -20.2753  -16.3574 C   0  0  0  0  0  0  0  0  0  0  0  0
   26.9356  -20.2689  -14.9117 C   0  0  1  0  0  0  0  0  0  0  0  0
   28.0968  -19.5340  -14.7620 O   0  0  0  0  0  0  0  0  0  0  0  0
   25.8848  -19.7260  -13.9838 C   0  0  2  0  0  0  0  0  0  0  0  0
   25.4402  -18.4076  -14.3961 N   0  0  0  0  0  0  0  0  0  0  0  0
   26.3408  -19.7579  -12.5890 C   0  0  0  0  0  0  0  0  0  0  0  0
   26.2419  -18.7206  -11.8317 O   0  0  0  0  0  0  0  0  0  0  0  0
   23.0952  -19.9927  -10.1007 C   0  0  0  0  0  0  0  0  0  0  0  0
   24.5783  -19.8816  -10.3135 C   0  0  0  0  0  0  0  0  0  0  0  0
   25.3244  -21.1705  -10.1741 C   0  0  2  0  0  0  0  0  0  0  0  0
   25.0841  -21.6631   -8.7642 C   0  0  0  0  0  0  0  0  0  0  0  0
   26.8066  -21.0630  -10.4977 C   0  0  2  0  0  0  0  0  0  0  0  0
   26.9147  -20.8912  -11.9500 N   0  0  0  0  0  0  0  0  0  0  0  0
   27.4487  -22.3275  -10.0725 C   0  0  0  0  0  0  0  0  0  0  0  0
   28.2930  -22.4194   -9.1434 O   0  0  0  0  0  0  0  0  0  0  0  0
   27.0972  -23.4930  -10.7406 O   0  0  0  0  0  0  0  0  0  0  0  0
  2  3  1  0
  2  1  1  6
  4  9  2  0
  4  3  1  0
  5  4  1  0
  6  7  1  0
  6  5  2  0
  7  8  2  0
  8  9  1  0
 10  2  1  0
 11 10  2  0
 13 12  1  6
 14 13  1  0
 15 13  1  0
 15 16  1  6
 16 10  1  0
 17 18  2  0
 17 15  1  0
 19 20  1  0
 20 21  1  0
 21 23  1  0
 21 22  1  1
 23 24  1  6
 24 17  1  0
 25 23  1  0
 25 27  1  0
 26 25  2  0
M  END
$$$$
