FTI.pdb
     RDKit          3D

 27 27  0  0  1  0  0  0  0  0999 V2000
   24.8975  -20.7617   -6.6619 N   0  0  0  0  0  0  0  0  0  0  0  0
   25.8609  -20.4131   -7.6479 C   0  0  1  0  0  0  0  0  0  0  0  0
   27.1927  -21.0113   -7.2100 C   0  0  0  0  0  0  0  0  0  0  0  0
   27.6962  -20.1684   -6.0968 C   0  0  0  0  0  0  0  0  0  0  0  0
   27.5370  -18.8030   -6.0459 C   0  0  0  0  0  0  0  0  0  0  0  0
   28.0303  -18.0846   -4.9674 C   0  0  0  0  0  0  0  0  0  0  0  0
   28.6900  -18.6794   -3.9133 C   0  0  0  0  0  0  0  0  0  0  0  0
   28.8464  -20.0585   -3.9718 C   0  0  0  0  0  0  0  0  0  0  0  0
   28.3573  -20.8018   -5.0488 C   0  0  0  0  0  0  0  0  0  0  0  0
   25.5435  -20.7354   -9.0383 C   0  0  0  0  0  0  0  0  0  0  0  0
   24.6945  -21.6734   -9.2565 O   0  0  0  0  0  0  0  0  0  0  0  0
   23.5280  -20.5403  -13.0164 C   0  0  0  0  0  0  0  0  0  0  0  0
   24.0998  -20.2373  -11.6721 C   0  0  1  0  0  0  0  0  0  0  0  0
   23.4519  -21.0223  -10.7366 O   0  0  0  0  0  0  0  0  0  0  0  0
   25.5837  -20.4414  -11.5448 C   0  0  2  0  0  0  0  0  0  0  0  0
   26.0482  -20.1474  -10.2018 N   0  0  0  0  0  0  0  0  0  0  0  0
   26.3130  -19.6885  -12.5722 C   0  0  0  0  0  0  0  0  0  0  0  0
   27.0165  -18.6536  -12.2665 O   0  0  0  0  0  0  0  0  0  0  0  0
   30.2552  -21.3226  -12.7007 C   0  0  0  0  0  0  0  0  0  0  0  0
   29.1804  -20.3484  -13.0922 C   0  0  0  0  0  0  0  0  0  0  0  0
   28.6021  -20.5750  -14.4529 C   0  0  2  0  0  0  0  0  0  0  0  0
   29.7470  -20.4711  -15.4361 C   0  0  0  0  0  0  0  0  0  0  0  0
   27.4607  -19.6325  -14.8023 C   0  0  2  0  0  0  0  0  0  0  0  0
   26.3228  -20.0091  -13.9576 N   0  0  0  0  0  0  0  0  0  0  0  0
   27.1378  -19.8344  -16.2332 C   0  0  0  0  0  0  0  0  0  0  0  0
   27.7837  -19.3267  -17.1868 O   0  0  0  0  0  0  0  0  0  0  0  0
   26.0505  -20.6387  -16.5480 O   0  0  0  0  0  0  0  0  0  0  0  0
  2  3  1  0
  2  1  1  1
  4  9  2  0
  4  3  1  0
  5  4  1  0
  6  7  1  0
  6  5  2  0
  7  8  2  0
  8  9  1  0
 10  2  1  0
 11 10  2  0
 13 12  1  6
 14 13  1  0
 15 13  1  0
 15 16  1  1
 16 10  1  0
 17 18  2  0
 17 15  1  0
 19 20  1  0
 20 21  1  0
 21 23  1  0
 21 22  1  6
 23 24  1  1
 24 17  1  0
 25 23  1  0
 25 27  1  0
 26 25  2  0
M  END
$$$$
