FTI.pdb
     RDKit          3D

 27 27  0  0  1  0  0  0  0  0999 V2000
   26.3598  -18.3786  -18.8818 N   0  0  0  0  0  0  0  0  0  0  0  0
   25.8395  -18.3623  -17.5586 C   0  0  1  0  0  0  0  0  0  0  0  0
   26.3871  -17.1161  -16.8729 C   0  0  0  0  0  0  0  0  0  0  0  0
   27.8534  -17.3067  -16.7437 C   0  0  0  0  0  0  0  0  0  0  0  0
   28.4317  -18.1455  -15.8195 C   0  0  0  0  0  0  0  0  0  0  0  0
   29.8111  -18.2755  -15.7648 C   0  0  0  0  0  0  0  0  0  0  0  0
   30.6593  -17.5918  -16.6094 C   0  0  0  0  0  0  0  0  0  0  0  0
   30.0677  -16.7472  -17.5402 C   0  0  0  0  0  0  0  0  0  0  0  0
   28.6801  -16.6011  -17.6126 C   0  0  0  0  0  0  0  0  0  0  0  0
   24.3901  -18.4820  -17.4070 C   0  0  0  0  0  0  0  0  0  0  0  0
   23.6468  -17.8506  -18.2418 O   0  0  0  0  0  0  0  0  0  0  0  0
   20.2866  -20.3193  -17.7585 C   0  0  0  0  0  0  0  0  0  0  0  0
   21.7477  -20.0211  -17.7149 C   0  0  1  0  0  0  0  0  0  0  0  0
   22.0576  -19.2054  -18.7870 O   0  0  0  0  0  0  0  0  0  0  0  0
   22.2336  -19.3756  -16.4471 C   0  0  2  0  0  0  0  0  0  0  0  0
   23.6754  -19.2111  -16.4522 N   0  0  0  0  0  0  0  0  0  0  0  0
   21.7517  -20.0993  -15.2646 C   0  0  0  0  0  0  0  0  0  0  0  0
   22.2983  -21.2043  -14.8910 O   0  0  0  0  0  0  0  0  0  0  0  0
   18.1379  -19.2913  -10.2383 C   0  0  0  0  0  0  0  0  0  0  0  0
   18.8648  -20.2088  -11.1801 C   0  0  0  0  0  0  0  0  0  0  0  0
   19.4561  -19.5310  -12.3752 C   0  0  2  0  0  0  0  0  0  0  0  0
   18.3063  -18.9131  -13.1395 C   0  0  0  0  0  0  0  0  0  0  0  0
   20.2978  -20.4473  -13.2500 C   0  0  2  0  0  0  0  0  0  0  0  0
   20.6759  -19.6744  -14.4374 N   0  0  0  0  0  0  0  0  0  0  0  0
   19.4530  -21.6034  -13.6270 C   0  0  0  0  0  0  0  0  0  0  0  0
   19.3508  -22.6603  -12.9511 O   0  0  0  0  0  0  0  0  0  0  0  0
   18.7216  -21.5188  -14.8044 O   0  0  0  0  0  0  0  0  0  0  0  0
  2  3  1  0
  2  1  1  6
  4  9  2  0
  4  3  1  0
  5  4  1  0
  6  7  1  0
  6  5  2  0
  7  8  2  0
  8  9  1  0
 10  2  1  0
 11 10  2  0
 13 12  1  1
 14 13  1  0
 15 13  1  0
 15 16  1  6
 16 10  1  0
 17 18  2  0
 17 15  1  0
 19 20  1  0
 20 21  1  0
 21 23  1  0
 21 22  1  6
 23 24  1  6
 24 17  1  0
 25 23  1  0
 25 27  1  0
 26 25  2  0
M  END
$$$$
