SFH.pdb
     RDKit          3D

 28 29  0  0  1  0  0  0  0  0999 V2000
    9.3480  -18.5034   21.3577 O   0  0  0  0  0  0  0  0  0  0  0  0
    8.7001  -17.7856   20.3791 C   0  0  0  0  0  0  0  0  0  0  0  0
    9.1936  -16.3629   20.2600 C   0  0  2  0  0  0  0  0  0  0  0  0
   10.4938  -16.3638   19.6285 N   0  0  0  0  0  0  0  0  0  0  0  0
    9.2374  -15.6809   21.5738 C   0  0  0  0  0  0  0  0  0  0  0  0
   10.3531  -15.3546   22.0484 O   0  0  0  0  0  0  0  0  0  0  0  0
    8.1013  -15.3637   22.3490 N   0  0  0  0  0  0  0  0  0  0  0  0
    8.1191  -14.6710   23.6079 C   0  0  1  0  0  0  0  0  0  0  0  0
    6.8483  -14.0881   24.0438 C   0  0  0  0  0  0  0  0  0  0  0  0
    6.9009  -13.2840   25.2769 C   0  0  0  0  0  0  0  0  0  0  0  0
    6.2398  -12.0905   25.4250 C   0  0  0  0  0  0  0  0  0  0  0  0
    6.3154  -11.3724   26.6225 C   0  0  0  0  0  0  0  0  0  0  0  0
    7.0660  -11.8625   27.6808 C   0  0  0  0  0  0  0  0  0  0  0  0
    7.7195  -13.0407   27.5332 C   0  0  0  0  0  0  0  0  0  0  0  0
    7.6430  -13.7623   26.3297 C   0  0  0  0  0  0  0  0  0  0  0  0
    8.7017  -15.4896   24.6922 C   0  0  0  0  0  0  0  0  0  0  0  0
    8.7792  -15.0427   25.8569 O   0  0  0  0  0  0  0  0  0  0  0  0
    9.1664  -16.7778   24.4056 N   0  0  0  0  0  0  0  0  0  0  0  0
    9.7071  -17.6691   25.4410 C   0  0  1  0  0  0  0  0  0  0  0  0
   10.2133  -18.8848   24.6673 C   0  0  0  0  0  0  0  0  0  0  0  0
   10.9142  -19.8321   25.5412 C   0  0  0  0  0  0  0  0  0  0  0  0
   12.0300  -19.5130   26.3189 C   0  0  0  0  0  0  0  0  0  0  0  0
   12.3933  -20.6233   26.9866 N   0  0  0  0  0  0  0  0  0  0  0  0
   11.5587  -21.6287   26.6648 C   0  0  0  0  0  0  0  0  0  0  0  0
   10.6661  -21.1301   25.7863 N   0  0  0  0  0  0  0  0  0  0  0  0
   10.8147  -16.9742   26.1316 C   0  0  0  0  0  0  0  0  0  0  0  0
   11.7092  -16.2528   25.3586 O   0  0  0  0  0  0  0  0  0  0  0  0
   11.0039  -16.9910   27.3737 O   0  0  0  0  0  0  0  0  0  0  0  0
  1  2  1  0
  3  5  1  0
  3  2  1  0
  3  4  1  1
  5  6  2  0
  5  7  1  0
  7  8  1  0
  8  9  1  1
  9 10  1  0
 10 15  1  0
 11 10  2  0
 11 12  1  0
 12 13  2  0
 13 14  1  0
 15 14  2  0
 16 17  2  0
 16  8  1  0
 18 16  1  0
 19 18  1  0
 19 20  1  6
 21 25  1  0
 21 20  1  0
 22 21  2  0
 23 22  1  0
 23 24  1  0
 24 25  2  0
 26 19  1  0
 27 26  1  0
 28 26  2  0
M  END
$$$$
