SFH.pdb
     RDKit          3D

 28 29  0  0  1  0  0  0  0  0999 V2000
    8.6870  -19.1684   21.1563 O   0  0  0  0  0  0  0  0  0  0  0  0
    9.1644  -18.5865   20.0047 C   0  0  0  0  0  0  0  0  0  0  0  0
    8.6449  -17.1847   19.7874 C   0  0  2  0  0  0  0  0  0  0  0  0
    9.2972  -16.6115   18.6319 N   0  0  0  0  0  0  0  0  0  0  0  0
    8.8324  -16.3336   20.9847 C   0  0  0  0  0  0  0  0  0  0  0  0
    9.9874  -15.9266   21.2620 O   0  0  0  0  0  0  0  0  0  0  0  0
    7.7944  -15.9373   21.8552 N   0  0  0  0  0  0  0  0  0  0  0  0
    7.9699  -15.2200   23.0881 C   0  0  1  0  0  0  0  0  0  0  0  0
    6.7825  -14.5484   23.6205 C   0  0  0  0  0  0  0  0  0  0  0  0
    6.9769  -13.8004   24.8745 C   0  0  0  0  0  0  0  0  0  0  0  0
    6.5508  -14.2575   26.0965 C   0  0  0  0  0  0  0  0  0  0  0  0
    6.7711  -13.5110   27.2582 C   0  0  0  0  0  0  0  0  0  0  0  0
    7.4268  -12.2909   27.1867 C   0  0  0  0  0  0  0  0  0  0  0  0
    7.8461  -11.8398   25.9793 C   0  0  0  0  0  0  0  0  0  0  0  0
    7.6249  -12.5905   24.8121 C   0  0  0  0  0  0  0  0  0  0  0  0
    8.5981  -16.0503   24.1374 C   0  0  0  0  0  0  0  0  0  0  0  0
    8.1042  -17.1525   24.4589 O   0  0  0  0  0  0  0  0  0  0  0  0
    9.7588  -15.5932   24.7711 N   0  0  0  0  0  0  0  0  0  0  0  0
   10.6727  -16.4938   25.4870 C   0  0  1  0  0  0  0  0  0  0  0  0
   12.0667  -16.0022   25.1027 C   0  0  0  0  0  0  0  0  0  0  0  0
   13.1191  -16.7717   25.7756 C   0  0  0  0  0  0  0  0  0  0  0  0
   12.8927  -17.9160   26.5442 C   0  0  0  0  0  0  0  0  0  0  0  0
   14.0850  -18.3483   26.9938 N   0  0  0  0  0  0  0  0  0  0  0  0
   15.0532  -17.5285   26.5451 C   0  0  0  0  0  0  0  0  0  0  0  0
   14.4487  -16.5768   25.8063 N   0  0  0  0  0  0  0  0  0  0  0  0
   10.4356  -16.3508   26.9396 C   0  0  0  0  0  0  0  0  0  0  0  0
   10.0395  -15.1109   27.4126 O   0  0  0  0  0  0  0  0  0  0  0  0
   10.5680  -17.2764   27.7791 O   0  0  0  0  0  0  0  0  0  0  0  0
  1  2  1  0
  3  5  1  0
  3  2  1  0
  3  4  1  6
  5  6  2  0
  5  7  1  0
  7  8  1  0
  8  9  1  1
  9 10  1  0
 10 15  1  0
 11 10  2  0
 11 12  1  0
 12 13  2  0
 13 14  1  0
 15 14  2  0
 16 17  2  0
 16  8  1  0
 18 16  1  0
 19 18  1  0
 19 20  1  1
 21 25  1  0
 21 20  1  0
 22 21  2  0
 23 22  1  0
 23 24  1  0
 24 25  2  0
 26 19  1  0
 27 26  1  0
 28 26  2  0
M  END
$$$$
