SFH.pdb
     RDKit          3D

 28 29  0  0  1  0  0  0  0  0999 V2000
    9.1108  -19.3138   21.0667 O   0  0  0  0  0  0  0  0  0  0  0  0
    8.2331  -18.6008   20.2831 C   0  0  0  0  0  0  0  0  0  0  0  0
    8.7478  -17.2307   19.9093 C   0  0  2  0  0  0  0  0  0  0  0  0
    9.9796  -17.3737   19.1667 N   0  0  0  0  0  0  0  0  0  0  0  0
    8.9367  -16.3676   21.0979 C   0  0  0  0  0  0  0  0  0  0  0  0
   10.0936  -16.2277   21.5654 O   0  0  0  0  0  0  0  0  0  0  0  0
    7.8979  -15.6777   21.7590 N   0  0  0  0  0  0  0  0  0  0  0  0
    8.0076  -15.0372   23.0408 C   0  0  1  0  0  0  0  0  0  0  0  0
    6.8746  -14.2027   23.4462 C   0  0  0  0  0  0  0  0  0  0  0  0
    7.0481  -13.4512   24.7011 C   0  0  0  0  0  0  0  0  0  0  0  0
    7.8432  -12.3374   24.8069 C   0  0  0  0  0  0  0  0  0  0  0  0
    7.9638  -11.6549   26.0213 C   0  0  0  0  0  0  0  0  0  0  0  0
    7.2765  -12.1006   27.1406 C   0  0  0  0  0  0  0  0  0  0  0  0
    6.4925  -13.2013   27.0354 C   0  0  0  0  0  0  0  0  0  0  0  0
    6.3712  -13.8867   25.8146 C   0  0  0  0  0  0  0  0  0  0  0  0
    8.3488  -15.9899   24.1183 C   0  0  0  0  0  0  0  0  0  0  0  0
    7.8047  -17.1139   24.1712 O   0  0  0  0  0  0  0  0  0  0  0  0
    9.2934  -15.6247   25.0837 N   0  0  0  0  0  0  0  0  0  0  0  0
    9.9539  -16.6089   25.9520 C   0  0  1  0  0  0  0  0  0  0  0  0
    9.5537  -17.9607   25.3647 C   0  0  0  0  0  0  0  0  0  0  0  0
    8.5615  -18.6446   26.2015 C   0  0  0  0  0  0  0  0  0  0  0  0
    8.0606  -18.1414   27.4044 C   0  0  0  0  0  0  0  0  0  0  0  0
    7.1743  -19.0337   27.8828 N   0  0  0  0  0  0  0  0  0  0  0  0
    7.0941  -20.0776   27.0374 C   0  0  0  0  0  0  0  0  0  0  0  0
    7.9429  -19.8243   26.0214 N   0  0  0  0  0  0  0  0  0  0  0  0
   11.4161  -16.4022   25.8737 C   0  0  0  0  0  0  0  0  0  0  0  0
   11.8800  -15.3284   25.1323 O   0  0  0  0  0  0  0  0  0  0  0  0
   12.2713  -17.1333   26.4332 O   0  0  0  0  0  0  0  0  0  0  0  0
  1  2  1  0
  3  5  1  0
  3  2  1  0
  3  4  1  1
  5  6  2  0
  5  7  1  0
  7  8  1  0
  8  9  1  1
  9 10  1  0
 10 15  1  0
 11 10  2  0
 11 12  1  0
 12 13  2  0
 13 14  1  0
 15 14  2  0
 16 17  2  0
 16  8  1  0
 18 16  1  0
 19 18  1  0
 19 20  1  6
 21 25  1  0
 21 20  1  0
 22 21  2  0
 23 22  1  0
 23 24  1  0
 24 25  2  0
 26 19  1  0
 27 26  1  0
 28 26  2  0
M  END
$$$$
