SFH.pdb
     RDKit          3D

 28 29  0  0  1  0  0  0  0  0999 V2000
    9.4218  -19.1047   19.7296 O   0  0  0  0  0  0  0  0  0  0  0  0
    8.5099  -18.1406   20.0925 C   0  0  0  0  0  0  0  0  0  0  0  0
    9.0135  -16.7334   19.8735 C   0  0  2  0  0  0  0  0  0  0  0  0
   10.2790  -16.7861   19.1771 N   0  0  0  0  0  0  0  0  0  0  0  0
    9.1336  -15.9846   21.1455 C   0  0  0  0  0  0  0  0  0  0  0  0
   10.2763  -15.7966   21.6306 O   0  0  0  0  0  0  0  0  0  0  0  0
    8.0428  -15.4563   21.8690 N   0  0  0  0  0  0  0  0  0  0  0  0
    8.1199  -14.8598   23.1741 C   0  0  1  0  0  0  0  0  0  0  0  0
    6.9747  -14.0427   23.5808 C   0  0  0  0  0  0  0  0  0  0  0  0
    7.1195  -13.3267   24.8599 C   0  0  0  0  0  0  0  0  0  0  0  0
    7.9647  -12.2593   25.0327 C   0  0  0  0  0  0  0  0  0  0  0  0
    8.0553  -11.6086   26.2671 C   0  0  0  0  0  0  0  0  0  0  0  0
    7.2866  -12.0394   27.3381 C   0  0  0  0  0  0  0  0  0  0  0  0
    6.4531  -13.0944   27.1669 C   0  0  0  0  0  0  0  0  0  0  0  0
    6.3620  -13.7478   25.9261 C   0  0  0  0  0  0  0  0  0  0  0  0
    8.4389  -15.8479   24.2263 C   0  0  0  0  0  0  0  0  0  0  0  0
    7.6611  -16.7963   24.4669 O   0  0  0  0  0  0  0  0  0  0  0  0
    9.6264  -15.7161   24.9544 N   0  0  0  0  0  0  0  0  0  0  0  0
   10.0416  -16.6944   25.9689 C   0  0  1  0  0  0  0  0  0  0  0  0
   11.5113  -16.9655   25.6541 C   0  0  0  0  0  0  0  0  0  0  0  0
   11.6638  -17.8922   24.5270 C   0  0  0  0  0  0  0  0  0  0  0  0
   10.6029  -18.5278   23.8773 C   0  0  0  0  0  0  0  0  0  0  0  0
   11.1221  -19.2915   22.8986 N   0  0  0  0  0  0  0  0  0  0  0  0
   12.4621  -19.1679   22.9019 C   0  0  0  0  0  0  0  0  0  0  0  0
   12.7738  -18.3137   23.8970 N   0  0  0  0  0  0  0  0  0  0  0  0
    9.8838  -16.0840   27.3066 C   0  0  0  0  0  0  0  0  0  0  0  0
   10.0349  -16.9019   28.4139 O   0  0  0  0  0  0  0  0  0  0  0  0
    9.6216  -14.8724   27.5120 O   0  0  0  0  0  0  0  0  0  0  0  0
  1  2  1  0
  3  5  1  0
  3  2  1  0
  3  4  1  1
  5  6  2  0
  5  7  1  0
  7  8  1  0
  8  9  1  1
  9 10  1  0
 10 15  1  0
 11 10  2  0
 11 12  1  0
 12 13  2  0
 13 14  1  0
 15 14  2  0
 16 17  2  0
 16  8  1  0
 18 16  1  0
 19 18  1  0
 19 20  1  6
 21 25  1  0
 21 20  1  0
 22 21  2  0
 23 22  1  0
 23 24  1  0
 24 25  2  0
 26 19  1  0
 27 26  1  0
 28 26  2  0
M  END
$$$$
