SFH.pdb
     RDKit          3D

 28 29  0  0  1  0  0  0  0  0999 V2000
    7.5678  -17.2806   20.5599 O   0  0  0  0  0  0  0  0  0  0  0  0
    6.4955  -16.4626   20.8316 C   0  0  0  0  0  0  0  0  0  0  0  0
    6.9017  -15.0678   21.2457 C   0  0  2  0  0  0  0  0  0  0  0  0
    7.5408  -14.4093   20.1288 N   0  0  0  0  0  0  0  0  0  0  0  0
    7.7829  -15.0786   22.4358 C   0  0  0  0  0  0  0  0  0  0  0  0
    8.9975  -14.7952   22.2911 O   0  0  0  0  0  0  0  0  0  0  0  0
    7.3558  -15.3893   23.7448 N   0  0  0  0  0  0  0  0  0  0  0  0
    8.1989  -15.4313   24.9078 C   0  0  1  0  0  0  0  0  0  0  0  0
    7.5814  -15.0189   26.1699 C   0  0  0  0  0  0  0  0  0  0  0  0
    7.3832  -13.5696   26.3436 C   0  0  0  0  0  0  0  0  0  0  0  0
    6.1512  -12.9972   26.5392 C   0  0  0  0  0  0  0  0  0  0  0  0
    6.0211  -11.6154   26.7094 C   0  0  0  0  0  0  0  0  0  0  0  0
    7.1447  -10.8026   26.6811 C   0  0  0  0  0  0  0  0  0  0  0  0
    8.3607  -11.3687   26.4866 C   0  0  0  0  0  0  0  0  0  0  0  0
    8.4911  -12.7575   26.3161 C   0  0  0  0  0  0  0  0  0  0  0  0
    8.8661  -16.7402   25.0719 C   0  0  0  0  0  0  0  0  0  0  0  0
    8.2094  -17.8021   25.0140 O   0  0  0  0  0  0  0  0  0  0  0  0
   10.2473  -16.7839   25.2909 N   0  0  0  0  0  0  0  0  0  0  0  0
   10.9699  -18.0428   25.5180 C   0  0  1  0  0  0  0  0  0  0  0  0
   12.4135  -17.7254   25.1333 C   0  0  0  0  0  0  0  0  0  0  0  0
   12.5639  -17.5496   23.6845 C   0  0  0  0  0  0  0  0  0  0  0  0
   11.5227  -17.6719   22.7613 C   0  0  0  0  0  0  0  0  0  0  0  0
   12.0323  -17.4394   21.5379 N   0  0  0  0  0  0  0  0  0  0  0  0
   13.3477  -17.1773   21.6467 C   0  0  0  0  0  0  0  0  0  0  0  0
   13.6535  -17.2479   22.9577 N   0  0  0  0  0  0  0  0  0  0  0  0
   10.8625  -18.3979   26.9495 C   0  0  0  0  0  0  0  0  0  0  0  0
   11.4395  -19.5854   27.3676 O   0  0  0  0  0  0  0  0  0  0  0  0
   10.2834  -17.6975   27.8172 O   0  0  0  0  0  0  0  0  0  0  0  0
  1  2  1  0
  3  5  1  0
  3  2  1  0
  3  4  1  6
  5  6  2  0
  5  7  1  0
  7  8  1  0
  8  9  1  1
  9 10  1  0
 10 15  1  0
 11 10  2  0
 11 12  1  0
 12 13  2  0
 13 14  1  0
 15 14  2  0
 16 17  2  0
 16  8  1  0
 18 16  1  0
 19 18  1  0
 19 20  1  1
 21 25  1  0
 21 20  1  0
 22 21  2  0
 23 22  1  0
 23 24  1  0
 24 25  2  0
 26 19  1  0
 27 26  1  0
 28 26  2  0
M  END
$$$$
