SFH.pdb
     RDKit          3D

 28 29  0  0  1  0  0  0  0  0999 V2000
    9.6958  -18.6550   20.4931 O   0  0  0  0  0  0  0  0  0  0  0  0
    8.6490  -18.0177   19.8680 C   0  0  0  0  0  0  0  0  0  0  0  0
    8.8539  -16.5268   19.7364 C   0  0  2  0  0  0  0  0  0  0  0  0
   10.0235  -16.2792   18.9239 N   0  0  0  0  0  0  0  0  0  0  0  0
    8.9698  -15.8657   21.0565 C   0  0  0  0  0  0  0  0  0  0  0  0
   10.1071  -15.5220   21.4625 O   0  0  0  0  0  0  0  0  0  0  0  0
    7.8809  -15.5874   21.9104 N   0  0  0  0  0  0  0  0  0  0  0  0
    7.9773  -14.9998   23.2183 C   0  0  1  0  0  0  0  0  0  0  0  0
    6.7500  -14.4062   23.7530 C   0  0  0  0  0  0  0  0  0  0  0  0
    6.8834  -13.7122   25.0454 C   0  0  0  0  0  0  0  0  0  0  0  0
    6.4723  -14.2557   26.2367 C   0  0  0  0  0  0  0  0  0  0  0  0
    6.6327  -13.5570   27.4373 C   0  0  0  0  0  0  0  0  0  0  0  0
    7.2127  -12.2971   27.4362 C   0  0  0  0  0  0  0  0  0  0  0  0
    7.6172  -11.7607   26.2591 C   0  0  0  0  0  0  0  0  0  0  0  0
    7.4562  -12.4634   25.0528 C   0  0  0  0  0  0  0  0  0  0  0  0
    8.5682  -15.9249   24.2084 C   0  0  0  0  0  0  0  0  0  0  0  0
    8.0781  -17.0599   24.3920 O   0  0  0  0  0  0  0  0  0  0  0  0
    9.6890  -15.5207   24.9419 N   0  0  0  0  0  0  0  0  0  0  0  0
   10.3394  -16.3909   25.9310 C   0  0  1  0  0  0  0  0  0  0  0  0
   11.8194  -16.0243   25.8427 C   0  0  0  0  0  0  0  0  0  0  0  0
   12.4373  -16.5488   24.6198 C   0  0  0  0  0  0  0  0  0  0  0  0
   11.8049  -17.4131   23.7229 C   0  0  0  0  0  0  0  0  0  0  0  0
   12.6714  -17.6733   22.7268 N   0  0  0  0  0  0  0  0  0  0  0  0
   13.8220  -17.0138   22.9549 C   0  0  0  0  0  0  0  0  0  0  0  0
   13.6619  -16.3353   24.1086 N   0  0  0  0  0  0  0  0  0  0  0  0
    9.7892  -16.0804   27.2681 C   0  0  0  0  0  0  0  0  0  0  0  0
    9.0406  -17.0570   27.9036 O   0  0  0  0  0  0  0  0  0  0  0  0
    9.9523  -14.9904   27.8716 O   0  0  0  0  0  0  0  0  0  0  0  0
  1  2  1  0
  3  5  1  0
  3  2  1  0
  3  4  1  6
  5  6  2  0
  5  7  1  0
  7  8  1  0
  8  9  1  1
  9 10  1  0
 10 15  1  0
 11 10  2  0
 11 12  1  0
 12 13  2  0
 13 14  1  0
 15 14  2  0
 16 17  2  0
 16  8  1  0
 18 16  1  0
 19 18  1  0
 19 20  1  1
 21 25  1  0
 21 20  1  0
 22 21  2  0
 23 22  1  0
 23 24  1  0
 24 25  2  0
 26 19  1  0
 27 26  1  0
 28 26  2  0
M  END
$$$$
