SFH.pdb
     RDKit          3D

 28 29  0  0  1  0  0  0  0  0999 V2000
    8.5959  -18.8653   20.4085 O   0  0  0  0  0  0  0  0  0  0  0  0
    7.9865  -17.9142   19.6232 C   0  0  0  0  0  0  0  0  0  0  0  0
    8.7675  -16.6239   19.5381 C   0  0  2  0  0  0  0  0  0  0  0  0
   10.0437  -16.8832   18.9110 N   0  0  0  0  0  0  0  0  0  0  0  0
    8.9425  -15.9946   20.8672 C   0  0  0  0  0  0  0  0  0  0  0  0
   10.0113  -16.1953   21.4948 O   0  0  0  0  0  0  0  0  0  0  0  0
    7.9830  -15.1719   21.4956 N   0  0  0  0  0  0  0  0  0  0  0  0
    8.0483  -14.7036   22.8526 C   0  0  1  0  0  0  0  0  0  0  0  0
    7.0044  -13.7622   23.2632 C   0  0  0  0  0  0  0  0  0  0  0  0
    7.1380  -13.2088   24.6217 C   0  0  0  0  0  0  0  0  0  0  0  0
    8.0160  -12.2034   24.9412 C   0  0  0  0  0  0  0  0  0  0  0  0
    8.0944  -11.7073   26.2462 C   0  0  0  0  0  0  0  0  0  0  0  0
    7.2798  -12.2310   27.2391 C   0  0  0  0  0  0  0  0  0  0  0  0
    6.4140  -13.2246   26.9229 C   0  0  0  0  0  0  0  0  0  0  0  0
    6.3351  -13.7227   25.6112 C   0  0  0  0  0  0  0  0  0  0  0  0
    8.1452  -15.8119   23.8260 C   0  0  0  0  0  0  0  0  0  0  0  0
    7.4316  -16.8308   23.7049 O   0  0  0  0  0  0  0  0  0  0  0  0
    9.0491  -15.7141   24.8896 N   0  0  0  0  0  0  0  0  0  0  0  0
    9.6066  -16.8960   25.5613 C   0  0  1  0  0  0  0  0  0  0  0  0
   10.8137  -17.2816   24.7087 C   0  0  0  0  0  0  0  0  0  0  0  0
   11.5222  -18.4408   25.2625 C   0  0  0  0  0  0  0  0  0  0  0  0
   11.1817  -19.0781   26.4580 C   0  0  0  0  0  0  0  0  0  0  0  0
   12.0443  -20.0948   26.6389 N   0  0  0  0  0  0  0  0  0  0  0  0
   12.9145  -20.1274   25.6130 C   0  0  0  0  0  0  0  0  0  0  0  0
   12.5823  -19.1161   24.7860 N   0  0  0  0  0  0  0  0  0  0  0  0
   10.0172  -16.5125   26.9292 C   0  0  0  0  0  0  0  0  0  0  0  0
    9.7527  -17.4010   27.9581 O   0  0  0  0  0  0  0  0  0  0  0  0
   10.5907  -15.4348   27.2266 O   0  0  0  0  0  0  0  0  0  0  0  0
  1  2  1  0
  3  5  1  0
  3  2  1  0
  3  4  1  1
  5  6  2  0
  5  7  1  0
  7  8  1  0
  8  9  1  1
  9 10  1  0
 10 15  1  0
 11 10  2  0
 11 12  1  0
 12 13  2  0
 13 14  1  0
 15 14  2  0
 16 17  2  0
 16  8  1  0
 18 16  1  0
 19 18  1  0
 19 20  1  6
 21 25  1  0
 21 20  1  0
 22 21  2  0
 23 22  1  0
 23 24  1  0
 24 25  2  0
 26 19  1  0
 27 26  1  0
 28 26  2  0
M  END
$$$$
