SFH.pdb
     RDKit          3D

 28 29  0  0  1  0  0  0  0  0999 V2000
    9.4659  -20.2594   17.9702 O   0  0  0  0  0  0  0  0  0  0  0  0
    8.3627  -19.4604   17.7773 C   0  0  0  0  0  0  0  0  0  0  0  0
    8.6992  -17.9896   17.7040 C   0  0  2  0  0  0  0  0  0  0  0  0
    9.6568  -17.7751   16.6426 N   0  0  0  0  0  0  0  0  0  0  0  0
    9.2076  -17.4735   18.9956 C   0  0  0  0  0  0  0  0  0  0  0  0
   10.4370  -17.2477   19.1144 O   0  0  0  0  0  0  0  0  0  0  0  0
    8.4027  -17.2114   20.1250 N   0  0  0  0  0  0  0  0  0  0  0  0
    8.8739  -16.7010   21.3831 C   0  0  1  0  0  0  0  0  0  0  0  0
    7.9551  -15.8225   22.1100 C   0  0  0  0  0  0  0  0  0  0  0  0
    7.7370  -14.4915   21.5180 C   0  0  0  0  0  0  0  0  0  0  0  0
    7.1042  -14.2978   20.3157 C   0  0  0  0  0  0  0  0  0  0  0  0
    6.9139  -13.0102   19.8044 C   0  0  0  0  0  0  0  0  0  0  0  0
    7.3671  -11.9071   20.5125 C   0  0  0  0  0  0  0  0  0  0  0  0
    7.9931  -12.0994   21.6992 C   0  0  0  0  0  0  0  0  0  0  0  0
    8.1838  -13.3935   22.2128 C   0  0  0  0  0  0  0  0  0  0  0  0
    9.3669  -17.7716   22.2753 C   0  0  0  0  0  0  0  0  0  0  0  0
    9.2781  -18.9723   21.9396 O   0  0  0  0  0  0  0  0  0  0  0  0
    9.9401  -17.4304   23.5052 N   0  0  0  0  0  0  0  0  0  0  0  0
   11.2908  -17.8605   23.8916 C   0  0  1  0  0  0  0  0  0  0  0  0
   12.2095  -17.1753   22.8820 C   0  0  0  0  0  0  0  0  0  0  0  0
   12.7843  -18.1342   21.9320 C   0  0  0  0  0  0  0  0  0  0  0  0
   12.4808  -19.4974   21.9038 C   0  0  0  0  0  0  0  0  0  0  0  0
   13.1886  -20.0528   20.9032 N   0  0  0  0  0  0  0  0  0  0  0  0
   13.9259  -19.1025   20.2996 C   0  0  0  0  0  0  0  0  0  0  0  0
   13.6675  -17.9432   20.9370 N   0  0  0  0  0  0  0  0  0  0  0  0
   11.5611  -17.3903   25.2673 C   0  0  0  0  0  0  0  0  0  0  0  0
   12.2479  -18.2393   26.1190 O   0  0  0  0  0  0  0  0  0  0  0  0
   11.2114  -16.2720   25.7212 O   0  0  0  0  0  0  0  0  0  0  0  0
  1  2  1  0
  3  5  1  0
  3  2  1  0
  3  4  1  6
  5  6  2  0
  5  7  1  0
  7  8  1  0
  8  9  1  1
  9 10  1  0
 10 15  1  0
 11 10  2  0
 11 12  1  0
 12 13  2  0
 13 14  1  0
 15 14  2  0
 16 17  2  0
 16  8  1  0
 18 16  1  0
 19 18  1  0
 19 20  1  6
 21 25  1  0
 21 20  1  0
 22 21  2  0
 23 22  1  0
 23 24  1  0
 24 25  2  0
 26 19  1  0
 27 26  1  0
 28 26  2  0
M  END
$$$$
