SFH.pdb
     RDKit          3D

 28 29  0  0  1  0  0  0  0  0999 V2000
    8.7278  -18.6757   20.5844 O   0  0  0  0  0  0  0  0  0  0  0  0
    8.2112  -17.6949   19.7697 C   0  0  0  0  0  0  0  0  0  0  0  0
    9.0200  -16.4191   19.7888 C   0  0  2  0  0  0  0  0  0  0  0  0
   10.3405  -16.6875   19.2657 N   0  0  0  0  0  0  0  0  0  0  0  0
    9.0916  -15.8299   21.1456 C   0  0  0  0  0  0  0  0  0  0  0  0
   10.1068  -16.0548   21.8493 O   0  0  0  0  0  0  0  0  0  0  0  0
    8.0882  -15.0205   21.7204 N   0  0  0  0  0  0  0  0  0  0  0  0
    8.0429  -14.5999   23.0938 C   0  0  1  0  0  0  0  0  0  0  0  0
    6.9305  -13.7231   23.4656 C   0  0  0  0  0  0  0  0  0  0  0  0
    6.9494  -13.2139   24.8477 C   0  0  0  0  0  0  0  0  0  0  0  0
    6.0318  -13.5852   25.7984 C   0  0  0  0  0  0  0  0  0  0  0  0
    6.1026  -13.0789   27.1000 C   0  0  0  0  0  0  0  0  0  0  0  0
    7.1084  -12.1887   27.4458 C   0  0  0  0  0  0  0  0  0  0  0  0
    8.0133  -11.8217   26.5059 C   0  0  0  0  0  0  0  0  0  0  0  0
    7.9421  -12.3310   25.1981 C   0  0  0  0  0  0  0  0  0  0  0  0
    8.1299  -15.7376   24.0336 C   0  0  0  0  0  0  0  0  0  0  0  0
    7.2547  -16.6299   24.0370 O   0  0  0  0  0  0  0  0  0  0  0  0
    9.2069  -15.8117   24.9237 N   0  0  0  0  0  0  0  0  0  0  0  0
    9.4502  -16.9876   25.7704 C   0  0  1  0  0  0  0  0  0  0  0  0
   10.6670  -17.6624   25.1405 C   0  0  0  0  0  0  0  0  0  0  0  0
   11.1221  -18.8108   25.9319 C   0  0  0  0  0  0  0  0  0  0  0  0
   10.9852  -20.1447   25.5401 C   0  0  0  0  0  0  0  0  0  0  0  0
   11.5182  -20.9116   26.5088 N   0  0  0  0  0  0  0  0  0  0  0  0
   11.9839  -20.1228   27.4945 C   0  0  0  0  0  0  0  0  0  0  0  0
   11.7355  -18.8498   27.1273 N   0  0  0  0  0  0  0  0  0  0  0  0
    9.7439  -16.5278   27.1448 C   0  0  0  0  0  0  0  0  0  0  0  0
    9.8378  -15.1639   27.3657 O   0  0  0  0  0  0  0  0  0  0  0  0
    9.9152  -17.2880   28.1305 O   0  0  0  0  0  0  0  0  0  0  0  0
  1  2  1  0
  3  5  1  0
  3  2  1  0
  3  4  1  1
  5  6  2  0
  5  7  1  0
  7  8  1  0
  8  9  1  6
  9 10  1  0
 10 15  1  0
 11 10  2  0
 11 12  1  0
 12 13  2  0
 13 14  1  0
 15 14  2  0
 16 17  2  0
 16  8  1  0
 18 16  1  0
 19 18  1  0
 19 20  1  6
 21 25  1  0
 21 20  1  0
 22 21  2  0
 23 22  1  0
 23 24  1  0
 24 25  2  0
 26 19  1  0
 27 26  1  0
 28 26  2  0
M  END
$$$$
