SFH.pdb
     RDKit          3D

 28 29  0  0  1  0  0  0  0  0999 V2000
    7.6715  -17.4348   20.5057 O   0  0  0  0  0  0  0  0  0  0  0  0
    6.5677  -16.6551   20.7631 C   0  0  0  0  0  0  0  0  0  0  0  0
    6.9160  -15.2245   21.1008 C   0  0  2  0  0  0  0  0  0  0  0  0
    7.5628  -14.6130   19.9619 N   0  0  0  0  0  0  0  0  0  0  0  0
    7.7646  -15.1327   22.3110 C   0  0  0  0  0  0  0  0  0  0  0  0
    8.9680  -14.7988   22.1814 O   0  0  0  0  0  0  0  0  0  0  0  0
    7.3177  -15.3970   23.6235 N   0  0  0  0  0  0  0  0  0  0  0  0
    8.1496  -15.4343   24.7947 C   0  0  1  0  0  0  0  0  0  0  0  0
    7.4855  -15.1536   26.0693 C   0  0  0  0  0  0  0  0  0  0  0  0
    7.1051  -13.7492   26.2989 C   0  0  0  0  0  0  0  0  0  0  0  0
    5.8185  -13.3525   26.5648 C   0  0  0  0  0  0  0  0  0  0  0  0
    5.5143  -12.0057   26.7858 C   0  0  0  0  0  0  0  0  0  0  0  0
    6.5176  -11.0493   26.7371 C   0  0  0  0  0  0  0  0  0  0  0  0
    7.7877  -11.4419   26.4732 C   0  0  0  0  0  0  0  0  0  0  0  0
    8.0931  -12.7956   26.2516 C   0  0  0  0  0  0  0  0  0  0  0  0
    8.9282  -16.6871   24.8919 C   0  0  0  0  0  0  0  0  0  0  0  0
    8.3546  -17.7807   25.0848 O   0  0  0  0  0  0  0  0  0  0  0  0
   10.3207  -16.6416   24.7628 N   0  0  0  0  0  0  0  0  0  0  0  0
   11.1634  -17.8386   24.8878 C   0  0  1  0  0  0  0  0  0  0  0  0
   12.4253  -17.4973   24.0980 C   0  0  0  0  0  0  0  0  0  0  0  0
   12.1476  -17.3557   22.6644 C   0  0  0  0  0  0  0  0  0  0  0  0
   12.4867  -16.2364   21.9005 C   0  0  0  0  0  0  0  0  0  0  0  0
   12.0825  -16.4661   20.6377 N   0  0  0  0  0  0  0  0  0  0  0  0
   11.5027  -17.6786   20.5702 C   0  0  0  0  0  0  0  0  0  0  0  0
   11.5514  -18.2051   21.8101 N   0  0  0  0  0  0  0  0  0  0  0  0
   11.4686  -18.0546   26.3185 C   0  0  0  0  0  0  0  0  0  0  0  0
   11.1362  -17.0491   27.2109 O   0  0  0  0  0  0  0  0  0  0  0  0
   12.0099  -19.0882   26.7848 O   0  0  0  0  0  0  0  0  0  0  0  0
  1  2  1  0
  3  5  1  0
  3  2  1  0
  3  4  1  6
  5  6  2  0
  5  7  1  0
  7  8  1  0
  8  9  1  1
  9 10  1  0
 10 15  1  0
 11 10  2  0
 11 12  1  0
 12 13  2  0
 13 14  1  0
 15 14  2  0
 16 17  2  0
 16  8  1  0
 18 16  1  0
 19 18  1  0
 19 20  1  6
 21 25  1  0
 21 20  1  0
 22 21  2  0
 23 22  1  0
 23 24  1  0
 24 25  2  0
 26 19  1  0
 27 26  1  0
 28 26  2  0
M  END
$$$$
