SFH.pdb
     RDKit          3D

 28 29  0  0  1  0  0  0  0  0999 V2000
    9.1215  -18.8358   20.7984 O   0  0  0  0  0  0  0  0  0  0  0  0
    8.5726  -17.9257   19.9249 C   0  0  0  0  0  0  0  0  0  0  0  0
    9.2744  -16.5881   19.9411 C   0  0  2  0  0  0  0  0  0  0  0  0
   10.6159  -16.7507   19.4282 N   0  0  0  0  0  0  0  0  0  0  0  0
    9.2882  -15.9871   21.2945 C   0  0  0  0  0  0  0  0  0  0  0  0
   10.3589  -15.9993   21.9502 O   0  0  0  0  0  0  0  0  0  0  0  0
    8.1703  -15.3911   21.9168 N   0  0  0  0  0  0  0  0  0  0  0  0
    8.1578  -14.8188   23.2350 C   0  0  1  0  0  0  0  0  0  0  0  0
    6.9955  -13.9939   23.5712 C   0  0  0  0  0  0  0  0  0  0  0  0
    7.0661  -13.2803   24.8579 C   0  0  0  0  0  0  0  0  0  0  0  0
    6.3024  -13.6171   25.9474 C   0  0  0  0  0  0  0  0  0  0  0  0
    6.4172  -12.9121   27.1495 C   0  0  0  0  0  0  0  0  0  0  0  0
    7.3104  -11.8561   27.2535 C   0  0  0  0  0  0  0  0  0  0  0  0
    8.0632  -11.5234   26.1767 C   0  0  0  0  0  0  0  0  0  0  0  0
    7.9479  -12.2325   24.9689 C   0  0  0  0  0  0  0  0  0  0  0  0
    8.3863  -15.8295   24.2892 C   0  0  0  0  0  0  0  0  0  0  0  0
    7.5884  -16.7787   24.4459 O   0  0  0  0  0  0  0  0  0  0  0  0
    9.5106  -15.7181   25.1147 N   0  0  0  0  0  0  0  0  0  0  0  0
    9.8833  -16.7581   26.0833 C   0  0  1  0  0  0  0  0  0  0  0  0
   11.3664  -17.0086   25.8178 C   0  0  0  0  0  0  0  0  0  0  0  0
   11.5706  -17.8884   24.6616 C   0  0  0  0  0  0  0  0  0  0  0  0
   10.5438  -18.5345   23.9690 C   0  0  0  0  0  0  0  0  0  0  0  0
   11.1063  -19.2449   22.9742 N   0  0  0  0  0  0  0  0  0  0  0  0
   12.4411  -19.0776   23.0082 C   0  0  0  0  0  0  0  0  0  0  0  0
   12.7055  -18.2502   24.0390 N   0  0  0  0  0  0  0  0  0  0  0  0
    9.6645  -16.2331   27.4482 C   0  0  0  0  0  0  0  0  0  0  0  0
    9.2217  -14.9272   27.5769 O   0  0  0  0  0  0  0  0  0  0  0  0
    9.8519  -16.8885   28.5038 O   0  0  0  0  0  0  0  0  0  0  0  0
  1  2  1  0
  3  5  1  0
  3  2  1  0
  3  4  1  1
  5  6  2  0
  5  7  1  0
  7  8  1  0
  8  9  1  1
  9 10  1  0
 10 15  1  0
 11 10  2  0
 11 12  1  0
 12 13  2  0
 13 14  1  0
 15 14  2  0
 16 17  2  0
 16  8  1  0
 18 16  1  0
 19 18  1  0
 19 20  1  1
 21 25  1  0
 21 20  1  0
 22 21  2  0
 23 22  1  0
 23 24  1  0
 24 25  2  0
 26 19  1  0
 27 26  1  0
 28 26  2  0
M  END
$$$$
