PIA.pdb
     RDKit          3D

 21 21  0  0  1  0  0  0  0  0999 V2000
    7.2614  -14.9147   20.7826 N   0  0  0  0  0  0  0  0  0  0  0  0
    6.5624  -14.4007   19.6390 C   0  0  0  0  0  0  0  0  0  0  0  0
    7.2724  -13.1288   19.2142 C   0  0  0  0  0  0  0  0  0  0  0  0
    7.9746  -12.7498   20.5255 C   0  0  0  0  0  0  0  0  0  0  0  0
    8.4515  -14.1191   20.9682 C   0  0  1  0  0  0  0  0  0  0  0  0
    8.9164  -14.1133   22.3699 C   0  0  0  0  0  0  0  0  0  0  0  0
   10.1352  -13.9071   22.5825 O   0  0  0  0  0  0  0  0  0  0  0  0
    6.0448  -11.8500   26.1985 C   0  0  0  0  0  0  0  0  0  0  0  0
    7.1522  -12.3298   25.2739 C   0  0  0  0  0  0  0  0  0  0  0  0
    7.5137  -13.7277   25.6983 C   0  0  2  0  0  0  0  0  0  0  0  0
    8.0365  -13.6745   27.1164 C   0  0  0  0  0  0  0  0  0  0  0  0
    8.5400  -14.3545   24.7881 C   0  0  2  0  0  0  0  0  0  0  0  0
    8.0410  -14.3286   23.4366 N   0  0  0  0  0  0  0  0  0  0  0  0
    8.7439  -15.7739   25.2294 C   0  0  0  0  0  0  0  0  0  0  0  0
    7.7448  -16.5197   25.3872 O   0  0  0  0  0  0  0  0  0  0  0  0
   11.5436  -18.1644   25.2913 C   0  0  0  0  0  0  0  0  0  0  0  0
   10.2599  -17.6021   25.8693 C   0  0  2  0  0  0  0  0  0  0  0  0
   10.0665  -16.2457   25.4601 N   0  0  0  0  0  0  0  0  0  0  0  0
   10.3294  -17.7335   27.3500 C   0  0  0  0  0  0  0  0  0  0  0  0
   10.2906  -16.7257   28.1097 O   0  0  0  0  0  0  0  0  0  0  0  0
   10.4388  -18.9916   27.8910 O   0  0  0  0  0  0  0  0  0  0  0  0
  2  1  1  0
  3  4  1  0
  3  2  1  0
  4  5  1  0
  5  1  1  0
  5  6  1  1
  7  6  2  0
  9  8  1  0
 10  9  1  0
 10 11  1  1
 12 10  1  0
 12 13  1  6
 13  6  1  0
 14 12  1  0
 15 14  2  0
 17 16  1  6
 17 18  1  0
 18 14  1  0
 19 17  1  0
 19 21  1  0
 20 19  2  0
M  END
$$$$
