PIA.pdb
     RDKit          3D

 21 21  0  0  1  0  0  0  0  0999 V2000
    8.1540  -15.2062   19.7270 N   0  0  0  0  0  0  0  0  0  0  0  0
    7.6130  -16.1297   18.7704 C   0  0  0  0  0  0  0  0  0  0  0  0
    6.5295  -16.9230   19.4766 C   0  0  0  0  0  0  0  0  0  0  0  0
    6.9626  -16.7469   20.9386 C   0  0  0  0  0  0  0  0  0  0  0  0
    7.3447  -15.2799   20.9200 C   0  0  1  0  0  0  0  0  0  0  0  0
    8.0885  -14.8894   22.1345 C   0  0  0  0  0  0  0  0  0  0  0  0
    9.3417  -14.9049   22.0849 O   0  0  0  0  0  0  0  0  0  0  0  0
    7.2485  -11.7972   27.3015 C   0  0  0  0  0  0  0  0  0  0  0  0
    8.1356  -12.7890   26.5658 C   0  0  0  0  0  0  0  0  0  0  0  0
    7.3923  -13.2219   25.3309 C   0  0  2  0  0  0  0  0  0  0  0  0
    6.0923  -13.8655   25.7588 C   0  0  0  0  0  0  0  0  0  0  0  0
    8.1947  -14.1800   24.4867 C   0  0  2  0  0  0  0  0  0  0  0  0
    7.4338  -14.5122   23.3091 N   0  0  0  0  0  0  0  0  0  0  0  0
    8.4424  -15.4165   25.2996 C   0  0  0  0  0  0  0  0  0  0  0  0
    7.4658  -16.1117   25.6769 O   0  0  0  0  0  0  0  0  0  0  0  0
   11.3809  -17.5923   25.7982 C   0  0  0  0  0  0  0  0  0  0  0  0
   10.0315  -17.0495   26.2258 C   0  0  2  0  0  0  0  0  0  0  0  0
    9.7799  -15.7760   25.6263 N   0  0  0  0  0  0  0  0  0  0  0  0
   10.0177  -16.9789   27.7123 C   0  0  0  0  0  0  0  0  0  0  0  0
    9.9473  -15.8772   28.3251 O   0  0  0  0  0  0  0  0  0  0  0  0
   10.0839  -18.1521   28.4239 O   0  0  0  0  0  0  0  0  0  0  0  0
  2  1  1  0
  3  4  1  0
  3  2  1  0
  4  5  1  0
  5  1  1  0
  5  6  1  1
  7  6  2  0
  9  8  1  0
 10  9  1  0
 10 11  1  1
 12 10  1  0
 12 13  1  6
 13  6  1  0
 14 12  1  0
 15 14  2  0
 17 16  1  6
 17 18  1  0
 18 14  1  0
 19 17  1  0
 19 21  1  0
 20 19  2  0
M  END
$$$$
