PIA.pdb
     RDKit          3D

 21 21  0  0  1  0  0  0  0  0999 V2000
    8.2399  -14.9885   20.0922 N   0  0  0  0  0  0  0  0  0  0  0  0
    7.6758  -15.7194   18.9929 C   0  0  0  0  0  0  0  0  0  0  0  0
    6.5231  -16.5380   19.5436 C   0  0  0  0  0  0  0  0  0  0  0  0
    6.9171  -16.6137   21.0252 C   0  0  0  0  0  0  0  0  0  0  0  0
    7.3883  -15.1888   21.2403 C   0  0  1  0  0  0  0  0  0  0  0  0
    8.1136  -15.0359   22.5175 C   0  0  0  0  0  0  0  0  0  0  0  0
    9.3522  -15.2342   22.5158 O   0  0  0  0  0  0  0  0  0  0  0  0
    5.9433  -11.7204   26.3186 C   0  0  0  0  0  0  0  0  0  0  0  0
    6.9172  -12.3245   25.3195 C   0  0  0  0  0  0  0  0  0  0  0  0
    7.3462  -13.6597   25.8657 C   0  0  2  0  0  0  0  0  0  0  0  0
    8.0897  -13.4270   27.1620 C   0  0  0  0  0  0  0  0  0  0  0  0
    8.2148  -14.4218   24.8966 C   0  0  2  0  0  0  0  0  0  0  0  0
    7.4577  -14.6825   23.6988 N   0  0  0  0  0  0  0  0  0  0  0  0
    8.6050  -15.7171   25.5455 C   0  0  0  0  0  0  0  0  0  0  0  0
    7.7078  -16.4948   25.9572 O   0  0  0  0  0  0  0  0  0  0  0  0
   11.6740  -17.7772   25.5715 C   0  0  0  0  0  0  0  0  0  0  0  0
   10.3545  -17.3297   26.1691 C   0  0  2  0  0  0  0  0  0  0  0  0
    9.9849  -16.0374   25.6810 N   0  0  0  0  0  0  0  0  0  0  0  0
   10.4945  -17.3473   27.6506 C   0  0  0  0  0  0  0  0  0  0  0  0
   10.3428  -16.3040   28.3454 O   0  0  0  0  0  0  0  0  0  0  0  0
   10.7971  -18.5380   28.2652 O   0  0  0  0  0  0  0  0  0  0  0  0
  2  1  1  0
  3  4  1  0
  3  2  1  0
  4  5  1  0
  5  1  1  0
  5  6  1  1
  7  6  2  0
  9  8  1  0
 10  9  1  0
 10 11  1  1
 12 10  1  0
 12 13  1  6
 13  6  1  0
 14 12  1  0
 15 14  2  0
 17 16  1  6
 17 18  1  0
 18 14  1  0
 19 17  1  0
 19 21  1  0
 20 19  2  0
M  END
$$$$
