PIA.pdb
     RDKit          3D

 21 21  0  0  1  0  0  0  0  0999 V2000
    5.6247  -12.8938   26.4883 N   0  0  0  0  0  0  0  0  0  0  0  0
    5.6946  -11.9770   27.5907 C   0  0  0  0  0  0  0  0  0  0  0  0
    7.0071  -11.2260   27.4664 C   0  0  0  0  0  0  0  0  0  0  0  0
    7.8109  -12.2093   26.6044 C   0  0  0  0  0  0  0  0  0  0  0  0
    6.7395  -12.6195   25.6133 C   0  0  1  0  0  0  0  0  0  0  0  0
    7.1436  -13.7999   24.8232 C   0  0  0  0  0  0  0  0  0  0  0  0
    7.0265  -14.9298   25.3552 O   0  0  0  0  0  0  0  0  0  0  0  0
    8.6803  -13.0032   19.5148 C   0  0  0  0  0  0  0  0  0  0  0  0
    8.7650  -13.2617   21.0107 C   0  0  0  0  0  0  0  0  0  0  0  0
    7.9657  -14.5049   21.2947 C   0  0  2  0  0  0  0  0  0  0  0  0
    6.5514  -14.2833   20.8071 C   0  0  0  0  0  0  0  0  0  0  0  0
    7.9617  -14.8598   22.7605 C   0  0  2  0  0  0  0  0  0  0  0  0
    7.6420  -13.6805   23.5240 N   0  0  0  0  0  0  0  0  0  0  0  0
    9.3344  -15.3453   23.1225 C   0  0  0  0  0  0  0  0  0  0  0  0
   10.2108  -14.5136   23.4683 O   0  0  0  0  0  0  0  0  0  0  0  0
   10.9066  -18.6327   23.8651 C   0  0  0  0  0  0  0  0  0  0  0  0
   10.9330  -17.1970   23.3787 C   0  0  2  0  0  0  0  0  0  0  0  0
    9.6148  -16.7393   23.0662 N   0  0  0  0  0  0  0  0  0  0  0  0
   11.8404  -17.1302   22.2010 C   0  0  0  0  0  0  0  0  0  0  0  0
   11.3998  -16.9533   21.0311 O   0  0  0  0  0  0  0  0  0  0  0  0
   13.1917  -17.2662   22.4076 O   0  0  0  0  0  0  0  0  0  0  0  0
  2  1  1  0
  3  4  1  0
  3  2  1  0
  4  5  1  0
  5  1  1  0
  5  6  1  1
  7  6  2  0
  9  8  1  0
 10  9  1  0
 10 11  1  1
 12 10  1  0
 12 13  1  1
 13  6  1  0
 14 12  1  0
 15 14  2  0
 17 16  1  6
 17 18  1  0
 18 14  1  0
 19 17  1  0
 19 21  1  0
 20 19  2  0
M  END
$$$$
