PIA.pdb
     RDKit          3D

 21 21  0  0  1  0  0  0  0  0999 V2000
    8.5873  -15.6049   20.5115 N   0  0  0  0  0  0  0  0  0  0  0  0
    8.1199  -16.4789   19.4730 C   0  0  0  0  0  0  0  0  0  0  0  0
    7.0427  -17.3589   20.0790 C   0  0  0  0  0  0  0  0  0  0  0  0
    7.4127  -17.2692   21.5660 C   0  0  0  0  0  0  0  0  0  0  0  0
    7.7369  -15.7913   21.6628 C   0  0  1  0  0  0  0  0  0  0  0  0
    8.4181  -15.4592   22.9303 C   0  0  0  0  0  0  0  0  0  0  0  0
    9.6669  -15.5695   22.9712 O   0  0  0  0  0  0  0  0  0  0  0  0
    6.1279  -11.9073   26.3554 C   0  0  0  0  0  0  0  0  0  0  0  0
    7.1872  -12.5798   25.4968 C   0  0  0  0  0  0  0  0  0  0  0  0
    7.5320  -13.8879   26.1564 C   0  0  2  0  0  0  0  0  0  0  0  0
    8.2273  -13.5917   27.4664 C   0  0  0  0  0  0  0  0  0  0  0  0
    8.4078  -14.7540   25.2861 C   0  0  2  0  0  0  0  0  0  0  0  0
    7.7103  -15.0344   24.0569 N   0  0  0  0  0  0  0  0  0  0  0  0
    8.6735  -16.0326   26.0249 C   0  0  0  0  0  0  0  0  0  0  0  0
    7.7049  -16.7136   26.4460 O   0  0  0  0  0  0  0  0  0  0  0  0
   11.4400  -18.4145   26.1938 C   0  0  0  0  0  0  0  0  0  0  0  0
   10.2694  -17.7114   26.8523 C   0  0  2  0  0  0  0  0  0  0  0  0
   10.0188  -16.4471   26.2330 N   0  0  0  0  0  0  0  0  0  0  0  0
   10.5771  -17.5714   28.3016 C   0  0  0  0  0  0  0  0  0  0  0  0
   10.7720  -18.5766   29.0403 O   0  0  0  0  0  0  0  0  0  0  0  0
   10.6479  -16.3080   28.8365 O   0  0  0  0  0  0  0  0  0  0  0  0
  2  1  1  0
  3  4  1  0
  3  2  1  0
  4  5  1  0
  5  1  1  0
  5  6  1  1
  7  6  2  0
  9  8  1  0
 10  9  1  0
 10 11  1  1
 12 10  1  0
 12 13  1  6
 13  6  1  0
 14 12  1  0
 15 14  2  0
 17 16  1  6
 17 18  1  0
 18 14  1  0
 19 17  1  0
 19 21  1  0
 20 19  2  0
M  END
$$$$
