PIA.pdb
     RDKit          3D

 21 21  0  0  1  0  0  0  0  0999 V2000
    8.4108  -14.8204   20.1186 N   0  0  0  0  0  0  0  0  0  0  0  0
    7.8492  -15.5504   19.0175 C   0  0  0  0  0  0  0  0  0  0  0  0
    6.5914  -16.2301   19.5253 C   0  0  0  0  0  0  0  0  0  0  0  0
    6.8829  -16.2672   21.0319 C   0  0  0  0  0  0  0  0  0  0  0  0
    7.4738  -14.8830   21.2148 C   0  0  1  0  0  0  0  0  0  0  0  0
    8.1291  -14.7337   22.5298 C   0  0  0  0  0  0  0  0  0  0  0  0
    9.3696  -14.9090   22.5900 O   0  0  0  0  0  0  0  0  0  0  0  0
    5.8993  -11.5221   26.3467 C   0  0  0  0  0  0  0  0  0  0  0  0
    6.9284  -12.1356   25.4107 C   0  0  0  0  0  0  0  0  0  0  0  0
    7.2038  -13.5309   25.9031 C   0  0  2  0  0  0  0  0  0  0  0  0
    7.8659  -13.4350   27.2594 C   0  0  0  0  0  0  0  0  0  0  0  0
    8.0758  -14.3114   24.9518 C   0  0  2  0  0  0  0  0  0  0  0  0
    7.4063  -14.4081   23.6796 N   0  0  0  0  0  0  0  0  0  0  0  0
    8.2768  -15.6821   25.5278 C   0  0  0  0  0  0  0  0  0  0  0  0
    7.2752  -16.4004   25.7732 O   0  0  0  0  0  0  0  0  0  0  0  0
   10.8108  -18.2228   25.4898 C   0  0  0  0  0  0  0  0  0  0  0  0
    9.7907  -17.4565   26.3087 C   0  0  2  0  0  0  0  0  0  0  0  0
    9.5996  -16.1400   25.7844 N   0  0  0  0  0  0  0  0  0  0  0  0
   10.2630  -17.4317   27.7198 C   0  0  0  0  0  0  0  0  0  0  0  0
   10.5758  -16.3535   28.2976 O   0  0  0  0  0  0  0  0  0  0  0  0
   10.3563  -18.6218   28.3997 O   0  0  0  0  0  0  0  0  0  0  0  0
  2  1  1  0
  3  4  1  0
  3  2  1  0
  4  5  1  0
  5  1  1  0
  5  6  1  1
  7  6  2  0
  9  8  1  0
 10  9  1  0
 10 11  1  1
 12 10  1  0
 12 13  1  6
 13  6  1  0
 14 12  1  0
 15 14  2  0
 17 16  1  6
 17 18  1  0
 18 14  1  0
 19 17  1  0
 19 21  1  0
 20 19  2  0
M  END
$$$$
