PIA.pdb
     RDKit          3D

 21 21  0  0  1  0  0  0  0  0999 V2000
    8.6567  -15.4325   19.8423 N   0  0  0  0  0  0  0  0  0  0  0  0
    8.0883  -16.1854   18.7602 C   0  0  0  0  0  0  0  0  0  0  0  0
    6.7682  -16.7493   19.2515 C   0  0  0  0  0  0  0  0  0  0  0  0
    6.9991  -16.7193   20.7687 C   0  0  0  0  0  0  0  0  0  0  0  0
    7.6767  -15.3694   20.9002 C   0  0  1  0  0  0  0  0  0  0  0  0
    8.2903  -15.1890   22.2313 C   0  0  0  0  0  0  0  0  0  0  0  0
    9.4855  -15.5400   22.3784 O   0  0  0  0  0  0  0  0  0  0  0  0
    7.1892  -11.8799   27.2438 C   0  0  0  0  0  0  0  0  0  0  0  0
    8.0888  -12.9176   26.5915 C   0  0  0  0  0  0  0  0  0  0  0  0
    7.4208  -13.3469   25.3130 C   0  0  2  0  0  0  0  0  0  0  0  0
    6.0764  -13.9481   25.6570 C   0  0  0  0  0  0  0  0  0  0  0  0
    8.2521  -14.3387   24.5384 C   0  0  2  0  0  0  0  0  0  0  0  0
    7.5776  -14.6466   23.3030 N   0  0  0  0  0  0  0  0  0  0  0  0
    8.3848  -15.5802   25.3703 C   0  0  0  0  0  0  0  0  0  0  0  0
    7.3558  -16.2417   25.6585 O   0  0  0  0  0  0  0  0  0  0  0  0
   10.9919  -18.0194   25.9111 C   0  0  0  0  0  0  0  0  0  0  0  0
    9.8212  -17.2411   26.4785 C   0  0  2  0  0  0  0  0  0  0  0  0
    9.6750  -15.9826   25.8157 N   0  0  0  0  0  0  0  0  0  0  0  0
   10.0461  -17.0787   27.9406 C   0  0  0  0  0  0  0  0  0  0  0  0
   10.1459  -15.9394   28.4757 O   0  0  0  0  0  0  0  0  0  0  0  0
   10.1460  -18.2078   28.7168 O   0  0  0  0  0  0  0  0  0  0  0  0
  2  1  1  0
  3  4  1  0
  3  2  1  0
  4  5  1  0
  5  1  1  0
  5  6  1  1
  7  6  2  0
  9  8  1  0
 10  9  1  0
 10 11  1  1
 12 10  1  0
 12 13  1  6
 13  6  1  0
 14 12  1  0
 15 14  2  0
 17 16  1  6
 17 18  1  0
 18 14  1  0
 19 17  1  0
 19 21  1  0
 20 19  2  0
M  END
$$$$
