PIA.pdb
     RDKit          3D

 21 21  0  0  1  0  0  0  0  0999 V2000
    8.6048  -15.9231   20.8491 N   0  0  0  0  0  0  0  0  0  0  0  0
    8.4366  -17.1284   20.0876 C   0  0  0  0  0  0  0  0  0  0  0  0
    7.7926  -18.1515   21.0045 C   0  0  0  0  0  0  0  0  0  0  0  0
    8.1827  -17.5823   22.3756 C   0  0  0  0  0  0  0  0  0  0  0  0
    7.9454  -16.1069   22.1199 C   0  0  1  0  0  0  0  0  0  0  0  0
    8.5236  -15.2638   23.1856 C   0  0  0  0  0  0  0  0  0  0  0  0
    9.6959  -14.8452   23.0310 O   0  0  0  0  0  0  0  0  0  0  0  0
    5.5227  -11.6431   25.7261 C   0  0  0  0  0  0  0  0  0  0  0  0
    6.6610  -12.3409   24.9988 C   0  0  0  0  0  0  0  0  0  0  0  0
    7.3246  -13.2612   25.9875 C   0  0  2  0  0  0  0  0  0  0  0  0
    7.9095  -12.4217   27.1012 C   0  0  0  0  0  0  0  0  0  0  0  0
    8.4007  -14.1046   25.3509 C   0  0  2  0  0  0  0  0  0  0  0  0
    7.8026  -14.9331   24.3351 N   0  0  0  0  0  0  0  0  0  0  0  0
    9.0064  -14.9655   26.4200 C   0  0  0  0  0  0  0  0  0  0  0  0
    8.2801  -15.7857   27.0357 O   0  0  0  0  0  0  0  0  0  0  0  0
   10.2727  -14.2851   29.0754 C   0  0  0  0  0  0  0  0  0  0  0  0
   10.8646  -15.1930   28.0154 C   0  0  2  0  0  0  0  0  0  0  0  0
   10.3925  -14.8346   26.7141 N   0  0  0  0  0  0  0  0  0  0  0  0
   10.5154  -16.5959   28.3686 C   0  0  0  0  0  0  0  0  0  0  0  0
   10.8358  -17.1012   29.4805 O   0  0  0  0  0  0  0  0  0  0  0  0
    9.8258  -17.3497   27.4502 O   0  0  0  0  0  0  0  0  0  0  0  0
  2  1  1  0
  3  4  1  0
  3  2  1  0
  4  5  1  0
  5  1  1  0
  5  6  1  1
  7  6  2  0
  9  8  1  0
 10  9  1  0
 10 11  1  1
 12 10  1  0
 12 13  1  6
 13  6  1  0
 14 12  1  0
 15 14  2  0
 17 16  1  1
 17 18  1  0
 18 14  1  0
 19 17  1  0
 19 21  1  0
 20 19  2  0
M  END
$$$$
