PIA.pdb
     RDKit          3D

 21 21  0  0  1  0  0  0  0  0999 V2000
    6.9742  -14.8416   20.8200 N   0  0  0  0  0  0  0  0  0  0  0  0
    6.3509  -14.2854   19.6526 C   0  0  0  0  0  0  0  0  0  0  0  0
    7.2224  -13.1350   19.1844 C   0  0  0  0  0  0  0  0  0  0  0  0
    7.9655  -12.8004   20.4851 C   0  0  0  0  0  0  0  0  0  0  0  0
    8.2579  -14.2021   20.9835 C   0  0  1  0  0  0  0  0  0  0  0  0
    8.7166  -14.2025   22.3872 C   0  0  0  0  0  0  0  0  0  0  0  0
    9.9395  -14.0267   22.6045 O   0  0  0  0  0  0  0  0  0  0  0  0
    5.8951  -11.8017   26.1742 C   0  0  0  0  0  0  0  0  0  0  0  0
    6.9772  -12.3336   25.2480 C   0  0  0  0  0  0  0  0  0  0  0  0
    7.2991  -13.7340   25.6956 C   0  0  2  0  0  0  0  0  0  0  0  0
    7.8066  -13.6740   27.1190 C   0  0  0  0  0  0  0  0  0  0  0  0
    8.3200  -14.3983   24.8063 C   0  0  2  0  0  0  0  0  0  0  0  0
    7.8314  -14.3912   23.4509 N   0  0  0  0  0  0  0  0  0  0  0  0
    8.4944  -15.8118   25.2782 C   0  0  0  0  0  0  0  0  0  0  0  0
    7.4795  -16.5309   25.4581 O   0  0  0  0  0  0  0  0  0  0  0  0
   11.0666  -18.3213   25.0082 C   0  0  0  0  0  0  0  0  0  0  0  0
    9.9794  -17.6865   25.8528 C   0  0  2  0  0  0  0  0  0  0  0  0
    9.8072  -16.3084   25.5123 N   0  0  0  0  0  0  0  0  0  0  0  0
   10.3490  -17.8656   27.2832 C   0  0  0  0  0  0  0  0  0  0  0  0
   10.4935  -19.0111   27.7944 O   0  0  0  0  0  0  0  0  0  0  0  0
   10.5346  -16.7453   28.0564 O   0  0  0  0  0  0  0  0  0  0  0  0
  2  1  1  0
  3  4  1  0
  3  2  1  0
  4  5  1  0
  5  1  1  0
  5  6  1  1
  7  6  2  0
  9  8  1  0
 10  9  1  0
 10 11  1  1
 12 10  1  0
 12 13  1  6
 13  6  1  0
 14 12  1  0
 15 14  2  0
 17 16  1  6
 17 18  1  0
 18 14  1  0
 19 17  1  0
 19 21  1  0
 20 19  2  0
M  END
$$$$
