PIA.pdb
     RDKit          3D

 21 21  0  0  1  0  0  0  0  0999 V2000
    9.1412  -15.5681   20.5075 N   0  0  0  0  0  0  0  0  0  0  0  0
    8.7200  -16.5035   19.5034 C   0  0  0  0  0  0  0  0  0  0  0  0
    7.3918  -17.0800   19.9569 C   0  0  0  0  0  0  0  0  0  0  0  0
    7.4755  -16.8194   21.4673 C   0  0  0  0  0  0  0  0  0  0  0  0
    8.0631  -15.4218   21.4561 C   0  0  1  0  0  0  0  0  0  0  0  0
    8.5368  -15.0133   22.7938 C   0  0  0  0  0  0  0  0  0  0  0  0
    9.7561  -15.1541   23.0524 O   0  0  0  0  0  0  0  0  0  0  0  0
    6.6685  -11.3105   27.2540 C   0  0  0  0  0  0  0  0  0  0  0  0
    7.7260  -12.3053   26.8029 C   0  0  0  0  0  0  0  0  0  0  0  0
    7.2142  -12.9634   25.5499 C   0  0  2  0  0  0  0  0  0  0  0  0
    5.8959  -13.6328   25.8683 C   0  0  0  0  0  0  0  0  0  0  0  0
    8.1890  -13.9709   24.9938 C   0  0  2  0  0  0  0  0  0  0  0  0
    7.6691  -14.4853   23.7524 N   0  0  0  0  0  0  0  0  0  0  0  0
    8.3229  -15.0839   25.9909 C   0  0  0  0  0  0  0  0  0  0  0  0
    8.6375  -14.8138   27.1773 O   0  0  0  0  0  0  0  0  0  0  0  0
    7.5758  -18.7541   26.0137 C   0  0  0  0  0  0  0  0  0  0  0  0
    8.2323  -17.4845   26.5192 C   0  0  2  0  0  0  0  0  0  0  0  0
    8.0903  -16.4236   25.5711 N   0  0  0  0  0  0  0  0  0  0  0  0
    9.6605  -17.7907   26.8040 C   0  0  0  0  0  0  0  0  0  0  0  0
   10.5995  -17.2282   26.1747 O   0  0  0  0  0  0  0  0  0  0  0  0
    9.9501  -18.7124   27.7806 O   0  0  0  0  0  0  0  0  0  0  0  0
  2  1  1  0
  3  4  1  0
  3  2  1  0
  4  5  1  0
  5  1  1  0
  5  6  1  1
  7  6  2  0
  9  8  1  0
 10  9  1  0
 10 11  1  1
 12 10  1  0
 12 13  1  6
 13  6  1  0
 14 12  1  0
 15 14  2  0
 17 16  1  6
 17 18  1  0
 18 14  1  0
 19 17  1  0
 19 21  1  0
 20 19  2  0
M  END
$$$$
