PIA.pdb
     RDKit          3D

 21 21  0  0  1  0  0  0  0  0999 V2000
    8.4304  -15.2298   19.7839 N   0  0  0  0  0  0  0  0  0  0  0  0
    7.8938  -16.1234   18.7968 C   0  0  0  0  0  0  0  0  0  0  0  0
    6.6976  -16.8161   19.4225 C   0  0  0  0  0  0  0  0  0  0  0  0
    7.0269  -16.6504   20.9125 C   0  0  0  0  0  0  0  0  0  0  0  0
    7.5262  -15.2189   20.9091 C   0  0  1  0  0  0  0  0  0  0  0  0
    8.2009  -14.8683   22.1750 C   0  0  0  0  0  0  0  0  0  0  0  0
    9.4544  -14.9074   22.2018 O   0  0  0  0  0  0  0  0  0  0  0  0
    7.0043  -11.9690   27.4014 C   0  0  0  0  0  0  0  0  0  0  0  0
    7.9182  -12.9654   26.7059 C   0  0  0  0  0  0  0  0  0  0  0  0
    7.3323  -13.2347   25.3461 C   0  0  2  0  0  0  0  0  0  0  0  0
    5.9406  -13.7974   25.5304 C   0  0  0  0  0  0  0  0  0  0  0  0
    8.1767  -14.1879   24.5381 C   0  0  2  0  0  0  0  0  0  0  0  0
    7.4823  -14.5028   23.3155 N   0  0  0  0  0  0  0  0  0  0  0  0
    8.3716  -15.4347   25.3496 C   0  0  0  0  0  0  0  0  0  0  0  0
    7.3704  -16.1212   25.6746 O   0  0  0  0  0  0  0  0  0  0  0  0
   11.1900  -17.7205   25.7378 C   0  0  0  0  0  0  0  0  0  0  0  0
    9.9065  -17.1191   26.2755 C   0  0  2  0  0  0  0  0  0  0  0  0
    9.6882  -15.8136   25.7343 N   0  0  0  0  0  0  0  0  0  0  0  0
    9.9984  -17.0991   27.7607 C   0  0  0  0  0  0  0  0  0  0  0  0
    9.9640  -16.0195   28.4146 O   0  0  0  0  0  0  0  0  0  0  0  0
   10.1237  -18.2951   28.4248 O   0  0  0  0  0  0  0  0  0  0  0  0
  2  1  1  0
  3  4  1  0
  3  2  1  0
  4  5  1  0
  5  1  1  0
  5  6  1  1
  7  6  2  0
  9  8  1  0
 10  9  1  0
 10 11  1  1
 12 10  1  0
 12 13  1  6
 13  6  1  0
 14 12  1  0
 15 14  2  0
 17 16  1  6
 17 18  1  0
 18 14  1  0
 19 17  1  0
 19 21  1  0
 20 19  2  0
M  END
$$$$
