PIA.pdb
     RDKit          3D

 21 21  0  0  1  0  0  0  0  0999 V2000
    6.9657  -14.7436   20.9467 N   0  0  0  0  0  0  0  0  0  0  0  0
    6.3782  -14.1136   19.7984 C   0  0  0  0  0  0  0  0  0  0  0  0
    7.3947  -13.1234   19.2614 C   0  0  0  0  0  0  0  0  0  0  0  0
    8.2479  -12.8910   20.5161 C   0  0  0  0  0  0  0  0  0  0  0  0
    8.3410  -14.3135   21.0323 C   0  0  1  0  0  0  0  0  0  0  0  0
    8.8662  -14.3652   22.4115 C   0  0  0  0  0  0  0  0  0  0  0  0
   10.1035  -14.2367   22.5730 O   0  0  0  0  0  0  0  0  0  0  0  0
    6.1093  -11.9026   26.1288 C   0  0  0  0  0  0  0  0  0  0  0  0
    7.1873  -12.4548   25.2097 C   0  0  0  0  0  0  0  0  0  0  0  0
    7.5856  -13.8025   25.7484 C   0  0  2  0  0  0  0  0  0  0  0  0
    8.1857  -13.6074   27.1228 C   0  0  0  0  0  0  0  0  0  0  0  0
    8.5660  -14.5114   24.8479 C   0  0  2  0  0  0  0  0  0  0  0  0
    8.0269  -14.5505   23.5123 N   0  0  0  0  0  0  0  0  0  0  0  0
    8.7445  -15.9077   25.3670 C   0  0  0  0  0  0  0  0  0  0  0  0
    7.7328  -16.6294   25.5542 O   0  0  0  0  0  0  0  0  0  0  0  0
   11.3932  -18.4006   25.4204 C   0  0  0  0  0  0  0  0  0  0  0  0
   10.2272  -17.7230   26.1129 C   0  0  2  0  0  0  0  0  0  0  0  0
   10.0575  -16.3854   25.6367 N   0  0  0  0  0  0  0  0  0  0  0  0
   10.4792  -17.7653   27.5790 C   0  0  0  0  0  0  0  0  0  0  0  0
   10.6150  -16.7116   28.2612 O   0  0  0  0  0  0  0  0  0  0  0  0
   10.5640  -18.9912   28.1933 O   0  0  0  0  0  0  0  0  0  0  0  0
  2  1  1  0
  3  4  1  0
  3  2  1  0
  4  5  1  0
  5  1  1  0
  5  6  1  1
  7  6  2  0
  9  8  1  0
 10  9  1  0
 10 11  1  1
 12 10  1  0
 12 13  1  6
 13  6  1  0
 14 12  1  0
 15 14  2  0
 17 16  1  6
 17 18  1  0
 18 14  1  0
 19 17  1  0
 19 21  1  0
 20 19  2  0
M  END
$$$$
