PIA.pdb
     RDKit          3D

 21 21  0  0  1  0  0  0  0  0999 V2000
    6.9343  -14.6043   20.8417 N   0  0  0  0  0  0  0  0  0  0  0  0
    6.3886  -13.9310   19.6973 C   0  0  0  0  0  0  0  0  0  0  0  0
    7.4218  -12.9194   19.2376 C   0  0  0  0  0  0  0  0  0  0  0  0
    8.2265  -12.7347   20.5316 C   0  0  0  0  0  0  0  0  0  0  0  0
    8.3041  -14.1759   20.9955 C   0  0  1  0  0  0  0  0  0  0  0  0
    8.7773  -14.2803   22.3905 C   0  0  0  0  0  0  0  0  0  0  0  0
   10.0132  -14.2205   22.5965 O   0  0  0  0  0  0  0  0  0  0  0  0
    5.8959  -11.8653   26.1328 C   0  0  0  0  0  0  0  0  0  0  0  0
    6.9953  -12.3857   25.2205 C   0  0  0  0  0  0  0  0  0  0  0  0
    7.3537  -13.7676   25.6969 C   0  0  2  0  0  0  0  0  0  0  0  0
    7.8729  -13.6630   27.1135 C   0  0  0  0  0  0  0  0  0  0  0  0
    8.3815  -14.4287   24.8131 C   0  0  2  0  0  0  0  0  0  0  0  0
    7.8914  -14.4408   23.4582 N   0  0  0  0  0  0  0  0  0  0  0  0
    8.5729  -15.8353   25.2988 C   0  0  0  0  0  0  0  0  0  0  0  0
    7.5653  -16.5513   25.5256 O   0  0  0  0  0  0  0  0  0  0  0  0
   11.2428  -18.3293   25.2291 C   0  0  0  0  0  0  0  0  0  0  0  0
   10.0743  -17.6751   25.9397 C   0  0  2  0  0  0  0  0  0  0  0  0
    9.8934  -16.3290   25.4926 N   0  0  0  0  0  0  0  0  0  0  0  0
   10.3318  -17.7467   27.4037 C   0  0  0  0  0  0  0  0  0  0  0  0
   10.4380  -18.8508   28.0071 O   0  0  0  0  0  0  0  0  0  0  0  0
   10.4550  -16.5717   28.1048 O   0  0  0  0  0  0  0  0  0  0  0  0
  2  1  1  0
  3  4  1  0
  3  2  1  0
  4  5  1  0
  5  1  1  0
  5  6  1  1
  7  6  2  0
  9  8  1  0
 10  9  1  0
 10 11  1  1
 12 10  1  0
 12 13  1  6
 13  6  1  0
 14 12  1  0
 15 14  2  0
 17 16  1  6
 17 18  1  0
 18 14  1  0
 19 17  1  0
 19 21  1  0
 20 19  2  0
M  END
$$$$
