PIA.pdb
     RDKit          3D

 21 21  0  0  1  0  0  0  0  0999 V2000
    7.1781  -14.8257   20.6658 N   0  0  0  0  0  0  0  0  0  0  0  0
    6.5672  -14.2716   19.4909 C   0  0  0  0  0  0  0  0  0  0  0  0
    7.4693  -13.1542   19.0013 C   0  0  0  0  0  0  0  0  0  0  0  0
    8.2254  -12.8191   20.2944 C   0  0  0  0  0  0  0  0  0  0  0  0
    8.4797  -14.2199   20.8154 C   0  0  1  0  0  0  0  0  0  0  0  0
    8.9425  -14.2100   22.2177 C   0  0  0  0  0  0  0  0  0  0  0  0
   10.1723  -14.0811   22.4285 O   0  0  0  0  0  0  0  0  0  0  0  0
    6.9970  -12.0442   27.3963 C   0  0  0  0  0  0  0  0  0  0  0  0
    7.9933  -13.0243   26.7976 C   0  0  0  0  0  0  0  0  0  0  0  0
    7.5225  -13.3443   25.4045 C   0  0  2  0  0  0  0  0  0  0  0  0
    6.2017  -14.0743   25.5043 C   0  0  0  0  0  0  0  0  0  0  0  0
    8.5212  -14.1768   24.6403 C   0  0  2  0  0  0  0  0  0  0  0  0
    8.0535  -14.3388   23.2872 N   0  0  0  0  0  0  0  0  0  0  0  0
    8.6164  -15.5156   25.3108 C   0  0  0  0  0  0  0  0  0  0  0  0
    7.5698  -16.1840   25.5035 O   0  0  0  0  0  0  0  0  0  0  0  0
   11.2268  -18.0253   25.6141 C   0  0  0  0  0  0  0  0  0  0  0  0
   10.0056  -17.3417   26.1971 C   0  0  2  0  0  0  0  0  0  0  0  0
    9.8919  -16.0005   25.7146 N   0  0  0  0  0  0  0  0  0  0  0  0
   10.1174  -17.3934   27.6801 C   0  0  0  0  0  0  0  0  0  0  0  0
   10.1713  -18.4891   28.3052 O   0  0  0  0  0  0  0  0  0  0  0  0
   10.1622  -16.2090   28.3747 O   0  0  0  0  0  0  0  0  0  0  0  0
  2  1  1  0
  3  4  1  0
  3  2  1  0
  4  5  1  0
  5  1  1  0
  5  6  1  1
  7  6  2  0
  9  8  1  0
 10  9  1  0
 10 11  1  1
 12 10  1  0
 12 13  1  6
 13  6  1  0
 14 12  1  0
 15 14  2  0
 17 16  1  6
 17 18  1  0
 18 14  1  0
 19 17  1  0
 19 21  1  0
 20 19  2  0
M  END
$$$$
