PIA.pdb
     RDKit          3D

 21 21  0  0  1  0  0  0  0  0999 V2000
    7.0942  -15.6925   21.3408 N   0  0  0  0  0  0  0  0  0  0  0  0
    6.4453  -15.3784   20.0994 C   0  0  0  0  0  0  0  0  0  0  0  0
    7.2870  -14.3216   19.4087 C   0  0  0  0  0  0  0  0  0  0  0  0
    8.0388  -13.7338   20.6109 C   0  0  0  0  0  0  0  0  0  0  0  0
    8.3662  -15.0105   21.3602 C   0  0  1  0  0  0  0  0  0  0  0  0
    8.8420  -14.7373   22.7313 C   0  0  0  0  0  0  0  0  0  0  0  0
   10.0275  -14.3535   22.8750 O   0  0  0  0  0  0  0  0  0  0  0  0
    5.9758  -12.0666   26.2024 C   0  0  0  0  0  0  0  0  0  0  0  0
    7.0759  -12.6630   25.3388 C   0  0  0  0  0  0  0  0  0  0  0  0
    7.5052  -13.9506   25.9890 C   0  0  2  0  0  0  0  0  0  0  0  0
    8.0595  -13.6303   27.3592 C   0  0  0  0  0  0  0  0  0  0  0  0
    8.5342  -14.6894   25.1706 C   0  0  2  0  0  0  0  0  0  0  0  0
    8.0124  -14.8960   23.8436 N   0  0  0  0  0  0  0  0  0  0  0  0
    8.7869  -16.0127   25.8310 C   0  0  0  0  0  0  0  0  0  0  0  0
    7.8110  -16.7230   26.1810 O   0  0  0  0  0  0  0  0  0  0  0  0
   11.6384  -18.3360   26.0399 C   0  0  0  0  0  0  0  0  0  0  0  0
   10.3686  -17.7302   26.6047 C   0  0  2  0  0  0  0  0  0  0  0  0
   10.1283  -16.4356   26.0470 N   0  0  0  0  0  0  0  0  0  0  0  0
   10.5042  -17.6831   28.0859 C   0  0  0  0  0  0  0  0  0  0  0  0
   10.5944  -16.5899   28.7111 O   0  0  0  0  0  0  0  0  0  0  0  0
   10.5306  -18.8692   28.7787 O   0  0  0  0  0  0  0  0  0  0  0  0
  2  1  1  0
  3  4  1  0
  3  2  1  0
  4  5  1  0
  5  1  1  0
  5  6  1  1
  7  6  2  0
  9  8  1  0
 10  9  1  0
 10 11  1  1
 12 10  1  0
 12 13  1  6
 13  6  1  0
 14 12  1  0
 15 14  2  0
 17 16  1  6
 17 18  1  0
 18 14  1  0
 19 17  1  0
 19 21  1  0
 20 19  2  0
M  END
$$$$
