HCQ.pdb
     RDKit          3D

 26 26  0  0  1  0  0  0  0  0999 V2000
   10.1175  -15.8851   17.4545 N   0  0  0  0  0  0  0  0  0  0  0  0
   10.9375  -14.7851   17.8953 C   0  0  1  0  0  0  0  0  0  0  0  0
   10.2266  -14.1500   19.0889 C   0  0  0  0  0  0  0  0  0  0  0  0
    8.9684  -13.4960   18.6560 C   0  0  0  0  0  0  0  0  0  0  0  0
    8.4619  -13.4645   17.3754 C   0  0  0  0  0  0  0  0  0  0  0  0
    7.3067  -12.7871   17.3457 N   0  0  0  0  0  0  0  0  0  0  0  0
    7.0679  -12.3820   18.6051 C   0  0  0  0  0  0  0  0  0  0  0  0
    8.0805  -12.8116   19.4149 N   0  0  0  0  0  0  0  0  0  0  0  0
   12.2839  -15.2552   18.2587 C   0  0  0  0  0  0  0  0  0  0  0  0
   12.4354  -16.4193   18.7354 O   0  0  0  0  0  0  0  0  0  0  0  0
   13.4494  -14.4522   18.0988 N   0  0  0  0  0  0  0  0  0  0  0  0
   14.7607  -14.9039   18.4392 C   0  0  1  0  0  0  0  0  0  0  0  0
   15.7902  -14.2376   17.5588 C   0  0  0  0  0  0  0  0  0  0  0  0
   15.6451  -14.9614   15.9004 S   0  0  0  0  0  0  0  0  0  0  0  0
   15.0677  -14.7475   19.8804 C   0  0  0  0  0  0  0  0  0  0  0  0
   14.7166  -13.7176   20.4702 O   0  0  0  0  0  0  0  0  0  0  0  0
   13.0618  -18.4486   23.9347 N   0  0  0  0  0  0  0  0  0  0  0  0
   12.8192  -17.0564   23.8718 C   0  0  0  0  0  0  0  0  0  0  0  0
   11.7385  -16.6340   24.4020 O   0  0  0  0  0  0  0  0  0  0  0  0
   13.7352  -16.0887   23.2437 C   0  0  0  0  0  0  0  0  0  0  0  0
   14.9984  -16.6534   22.6989 C   0  0  0  0  0  0  0  0  0  0  0  0
   15.9587  -15.7450   22.0363 C   0  0  2  0  0  0  0  0  0  0  0  0
   15.7573  -15.7673   20.5791 N   0  0  0  0  0  0  0  0  0  0  0  0
   17.3491  -15.7984   22.4118 C   0  0  0  0  0  0  0  0  0  0  0  0
   18.2424  -16.1466   21.6020 O   0  0  0  0  0  0  0  0  0  0  0  0
   17.8225  -15.4720   23.6935 O   0  0  0  0  0  0  0  0  0  0  0  0
  2  1  1  1
  3  2  1  0
  4  8  1  0
  4  3  1  0
  5  4  2  0
  6  5  1  0
  6  7  1  0
  7  8  2  0
  9 10  2  0
  9  2  1  0
 11  9  1  0
 12 11  1  0
 12 13  1  6
 14 13  1  0
 15 12  1  0
 16 15  2  0
 17 18  1  0
 18 20  1  0
 19 18  2  0
 21 20  1  0
 22 21  1  1
 22 23  1  0
 23 15  1  0
 24 22  1  0
 24 26  1  0
 25 24  2  0
M  END
$$$$
