HCQ.pdb
     RDKit          3D

 26 26  0  0  1  0  0  0  0  0999 V2000
   11.0524  -16.1059   19.5324 N   0  0  0  0  0  0  0  0  0  0  0  0
    9.9793  -16.5661   20.3769 C   0  0  1  0  0  0  0  0  0  0  0  0
   10.0846  -18.0888   20.4409 C   0  0  0  0  0  0  0  0  0  0  0  0
    9.6602  -18.6930   19.1552 C   0  0  0  0  0  0  0  0  0  0  0  0
   10.3959  -18.7404   17.9917 C   0  0  0  0  0  0  0  0  0  0  0  0
    9.7048  -19.3603   17.0261 N   0  0  0  0  0  0  0  0  0  0  0  0
    8.5248  -19.7123   17.5654 C   0  0  0  0  0  0  0  0  0  0  0  0
    8.4883  -19.3077   18.8695 N   0  0  0  0  0  0  0  0  0  0  0  0
   10.0782  -15.9633   21.7158 C   0  0  0  0  0  0  0  0  0  0  0  0
   11.1660  -16.0407   22.3608 O   0  0  0  0  0  0  0  0  0  0  0  0
    8.9915  -15.2832   22.3366 N   0  0  0  0  0  0  0  0  0  0  0  0
    8.9252  -15.0380   23.7419 C   0  0  1  0  0  0  0  0  0  0  0  0
    7.7171  -14.1948   24.0710 C   0  0  0  0  0  0  0  0  0  0  0  0
    7.6387  -14.0300   25.8771 S   0  0  0  0  0  0  0  0  0  0  0  0
    8.9790  -16.2812   24.5466 C   0  0  0  0  0  0  0  0  0  0  0  0
    8.2084  -17.2127   24.2817 O   0  0  0  0  0  0  0  0  0  0  0  0
   12.6766  -20.4978   24.2648 N   0  0  0  0  0  0  0  0  0  0  0  0
   13.1673  -19.2339   24.6683 C   0  0  0  0  0  0  0  0  0  0  0  0
   14.3755  -18.9596   24.3644 O   0  0  0  0  0  0  0  0  0  0  0  0
   12.3686  -18.2364   25.4012 C   0  0  0  0  0  0  0  0  0  0  0  0
   10.9421  -18.5900   25.6279 C   0  0  0  0  0  0  0  0  0  0  0  0
   10.0837  -17.6474   26.3769 C   0  0  2  0  0  0  0  0  0  0  0  0
    9.9043  -16.4043   25.6107 N   0  0  0  0  0  0  0  0  0  0  0  0
   10.3510  -17.4124   27.7735 C   0  0  0  0  0  0  0  0  0  0  0  0
   10.4160  -16.2537   28.2511 O   0  0  0  0  0  0  0  0  0  0  0  0
   10.5593  -18.4389   28.7097 O   0  0  0  0  0  0  0  0  0  0  0  0
  2  1  1  6
  3  2  1  0
  4  8  1  0
  4  3  1  0
  5  4  2  0
  6  5  1  0
  6  7  1  0
  7  8  2  0
  9 10  2  0
  9  2  1  0
 11  9  1  0
 12 11  1  0
 12 13  1  6
 14 13  1  0
 15 12  1  0
 16 15  2  0
 17 18  1  0
 18 20  1  0
 19 18  2  0
 21 20  1  0
 22 21  1  6
 22 23  1  0
 23 15  1  0
 24 22  1  0
 24 26  1  0
 25 24  2  0
M  END
$$$$
