HCQ.pdb
     RDKit          3D

 26 26  0  0  1  0  0  0  0  0999 V2000
    8.7370  -15.1045   19.7966 N   0  0  0  0  0  0  0  0  0  0  0  0
    8.0038  -15.6572   20.9072 C   0  0  1  0  0  0  0  0  0  0  0  0
    8.0456  -17.1768   20.7565 C   0  0  0  0  0  0  0  0  0  0  0  0
    7.3470  -17.5950   19.5174 C   0  0  0  0  0  0  0  0  0  0  0  0
    5.9975  -17.8343   19.3807 C   0  0  0  0  0  0  0  0  0  0  0  0
    5.7113  -18.1946   18.1227 N   0  0  0  0  0  0  0  0  0  0  0  0
    6.8743  -18.1878   17.4485 C   0  0  0  0  0  0  0  0  0  0  0  0
    7.8821  -17.8217   18.2947 N   0  0  0  0  0  0  0  0  0  0  0  0
    8.5949  -15.2267   22.1844 C   0  0  0  0  0  0  0  0  0  0  0  0
    9.8543  -15.2198   22.3230 O   0  0  0  0  0  0  0  0  0  0  0  0
    7.8078  -14.8088   23.2955 N   0  0  0  0  0  0  0  0  0  0  0  0
    8.3217  -14.7156   24.6246 C   0  0  1  0  0  0  0  0  0  0  0  0
    7.3976  -13.8913   25.4880 C   0  0  0  0  0  0  0  0  0  0  0  0
    5.7601  -14.6734   25.4411 S   0  0  0  0  0  0  0  0  0  0  0  0
    8.6173  -16.0392   25.2219 C   0  0  0  0  0  0  0  0  0  0  0  0
    7.8418  -16.9835   25.0255 O   0  0  0  0  0  0  0  0  0  0  0  0
   13.4753  -19.4388   24.6111 N   0  0  0  0  0  0  0  0  0  0  0  0
   12.4007  -18.8853   23.8764 C   0  0  0  0  0  0  0  0  0  0  0  0
   12.4435  -19.0104   22.6076 O   0  0  0  0  0  0  0  0  0  0  0  0
   11.2550  -18.1914   24.4898 C   0  0  0  0  0  0  0  0  0  0  0  0
   11.2466  -18.1462   25.9762 C   0  0  0  0  0  0  0  0  0  0  0  0
   10.1078  -17.5007   26.6639 C   0  0  2  0  0  0  0  0  0  0  0  0
    9.7774  -16.2240   26.0116 N   0  0  0  0  0  0  0  0  0  0  0  0
   10.1160  -17.4107   28.1022 C   0  0  0  0  0  0  0  0  0  0  0  0
    9.9778  -16.3158   28.6996 O   0  0  0  0  0  0  0  0  0  0  0  0
   10.2762  -18.5189   28.9507 O   0  0  0  0  0  0  0  0  0  0  0  0
  2  1  1  6
  3  2  1  0
  4  8  1  0
  4  3  1  0
  5  4  2  0
  6  5  1  0
  6  7  1  0
  7  8  2  0
  9 10  2  0
  9  2  1  0
 11  9  1  0
 12 11  1  0
 12 13  1  1
 14 13  1  0
 15 12  1  0
 16 15  2  0
 17 18  1  0
 18 20  1  0
 19 18  2  0
 21 20  1  0
 22 21  1  6
 22 23  1  0
 23 15  1  0
 24 22  1  0
 24 26  1  0
 25 24  2  0
M  END
$$$$
