HCQ.pdb
     RDKit          3D

 26 26  0  0  1  0  0  0  0  0999 V2000
   10.2990  -13.4766   20.2424 N   0  0  0  0  0  0  0  0  0  0  0  0
    8.9825  -13.7861   20.7399 C   0  0  1  0  0  0  0  0  0  0  0  0
    8.4378  -14.9252   19.8800 C   0  0  0  0  0  0  0  0  0  0  0  0
    8.1936  -14.4583   18.4941 C   0  0  0  0  0  0  0  0  0  0  0  0
    8.4836  -13.2102   17.9888 C   0  0  0  0  0  0  0  0  0  0  0  0
    8.1303  -13.1341   16.6989 N   0  0  0  0  0  0  0  0  0  0  0  0
    7.6130  -14.3312   16.3723 C   0  0  0  0  0  0  0  0  0  0  0  0
    7.6476  -15.1490   17.4657 N   0  0  0  0  0  0  0  0  0  0  0  0
    9.0412  -14.1652   22.1607 C   0  0  0  0  0  0  0  0  0  0  0  0
    9.9884  -14.8963   22.5773 O   0  0  0  0  0  0  0  0  0  0  0  0
    8.0677  -13.7438   23.1113 N   0  0  0  0  0  0  0  0  0  0  0  0
    8.0610  -14.1854   24.4693 C   0  0  1  0  0  0  0  0  0  0  0  0
    6.9548  -13.5033   25.2375 C   0  0  0  0  0  0  0  0  0  0  0  0
    7.3164  -11.7244   25.2566 S   0  0  0  0  0  0  0  0  0  0  0  0
    8.0054  -15.6608   24.5948 C   0  0  0  0  0  0  0  0  0  0  0  0
    7.4518  -16.3274   23.7112 O   0  0  0  0  0  0  0  0  0  0  0  0
   13.0651  -17.3846   24.1920 N   0  0  0  0  0  0  0  0  0  0  0  0
   12.4322  -18.6464   24.1015 C   0  0  0  0  0  0  0  0  0  0  0  0
   13.1879  -19.6612   23.9389 O   0  0  0  0  0  0  0  0  0  0  0  0
   10.9751  -18.8448   24.1900 C   0  0  0  0  0  0  0  0  0  0  0  0
   10.1709  -17.6224   24.4554 C   0  0  0  0  0  0  0  0  0  0  0  0
    9.2719  -17.6008   25.6291 C   0  0  2  0  0  0  0  0  0  0  0  0
    8.5807  -16.3050   25.7164 N   0  0  0  0  0  0  0  0  0  0  0  0
    9.7682  -18.0592   26.9021 C   0  0  0  0  0  0  0  0  0  0  0  0
    9.5332  -19.2158   27.3287 O   0  0  0  0  0  0  0  0  0  0  0  0
   10.5454  -17.2687   27.7651 O   0  0  0  0  0  0  0  0  0  0  0  0
  2  1  1  6
  3  2  1  0
  4  8  1  0
  4  3  1  0
  5  4  2  0
  6  5  1  0
  6  7  1  0
  7  8  2  0
  9 10  2  0
  9  2  1  0
 11  9  1  0
 12 11  1  0
 12 13  1  1
 14 13  1  0
 15 12  1  0
 16 15  2  0
 17 18  1  0
 18 20  1  0
 19 18  2  0
 21 20  1  0
 22 21  1  6
 22 23  1  0
 23 15  1  0
 24 22  1  0
 24 26  1  0
 25 24  2  0
M  END
$$$$
