HCQ.pdb
     RDKit          3D

 26 26  0  0  1  0  0  0  0  0999 V2000
    9.7801  -14.7977   21.3735 N   0  0  0  0  0  0  0  0  0  0  0  0
    8.6521  -14.1518   21.9957 C   0  0  1  0  0  0  0  0  0  0  0  0
    7.4051  -14.6088   21.2409 C   0  0  0  0  0  0  0  0  0  0  0  0
    7.4924  -14.2225   19.8122 C   0  0  0  0  0  0  0  0  0  0  0  0
    7.5339  -12.9393   19.3132 C   0  0  0  0  0  0  0  0  0  0  0  0
    7.6120  -12.9595   17.9761 N   0  0  0  0  0  0  0  0  0  0  0  0
    7.6209  -14.2538   17.6126 C   0  0  0  0  0  0  0  0  0  0  0  0
    7.5480  -15.0350   18.7307 N   0  0  0  0  0  0  0  0  0  0  0  0
    8.5760  -14.5028   23.4229 C   0  0  0  0  0  0  0  0  0  0  0  0
    9.1577  -15.5463   23.8451 O   0  0  0  0  0  0  0  0  0  0  0  0
    7.8675  -13.7136   24.3736 N   0  0  0  0  0  0  0  0  0  0  0  0
    8.0796  -13.8120   25.7824 C   0  0  1  0  0  0  0  0  0  0  0  0
    7.1394  -12.8900   26.5203 C   0  0  0  0  0  0  0  0  0  0  0  0
    5.4475  -13.4729   26.2150 S   0  0  0  0  0  0  0  0  0  0  0  0
    8.0057  -15.2059   26.2799 C   0  0  0  0  0  0  0  0  0  0  0  0
    7.0573  -15.9249   25.9405 O   0  0  0  0  0  0  0  0  0  0  0  0
    9.3963  -20.0448   24.4439 N   0  0  0  0  0  0  0  0  0  0  0  0
   10.5395  -19.4429   25.0198 C   0  0  0  0  0  0  0  0  0  0  0  0
   11.6738  -19.7930   24.5528 O   0  0  0  0  0  0  0  0  0  0  0  0
   10.4875  -18.4480   26.1051 C   0  0  0  0  0  0  0  0  0  0  0  0
    9.1267  -18.0608   26.5629 C   0  0  0  0  0  0  0  0  0  0  0  0
    8.9959  -17.0856   27.6667 C   0  0  2  0  0  0  0  0  0  0  0  0
    9.0115  -15.7131   27.1371 N   0  0  0  0  0  0  0  0  0  0  0  0
    9.8135  -17.2429   28.8430 C   0  0  0  0  0  0  0  0  0  0  0  0
   10.5152  -16.3052   29.2938 O   0  0  0  0  0  0  0  0  0  0  0  0
    9.8983  -18.4370   29.5782 O   0  0  0  0  0  0  0  0  0  0  0  0
  2  1  1  6
  3  2  1  0
  4  8  1  0
  4  3  1  0
  5  4  2  0
  6  5  1  0
  6  7  1  0
  7  8  2  0
  9 10  2  0
  9  2  1  0
 11  9  1  0
 12 11  1  0
 12 13  1  1
 14 13  1  0
 15 12  1  0
 16 15  2  0
 17 18  1  0
 18 20  1  0
 19 18  2  0
 21 20  1  0
 22 21  1  6
 22 23  1  0
 23 15  1  0
 24 22  1  0
 24 26  1  0
 25 24  2  0
M  END
$$$$
