HCQ.pdb
     RDKit          3D

 26 26  0  0  1  0  0  0  0  0999 V2000
    8.3262  -16.1959   20.8376 N   0  0  0  0  0  0  0  0  0  0  0  0
    7.4719  -15.8160   21.9341 C   0  0  1  0  0  0  0  0  0  0  0  0
    6.7122  -17.0703   22.3621 C   0  0  0  0  0  0  0  0  0  0  0  0
    5.8281  -17.5402   21.2685 C   0  0  0  0  0  0  0  0  0  0  0  0
    6.1689  -17.6699   19.9402 C   0  0  0  0  0  0  0  0  0  0  0  0
    5.1256  -18.1211   19.2315 N   0  0  0  0  0  0  0  0  0  0  0  0
    4.1130  -18.2823   20.1010 C   0  0  0  0  0  0  0  0  0  0  0  0
    4.5340  -17.9289   21.3514 N   0  0  0  0  0  0  0  0  0  0  0  0
    8.2663  -15.2635   23.0430 C   0  0  0  0  0  0  0  0  0  0  0  0
    9.4710  -15.6257   23.1941 O   0  0  0  0  0  0  0  0  0  0  0  0
    7.7396  -14.3233   23.9742 N   0  0  0  0  0  0  0  0  0  0  0  0
    8.3232  -14.0833   25.2553 C   0  0  1  0  0  0  0  0  0  0  0  0
    7.7674  -12.8147   25.8559 C   0  0  0  0  0  0  0  0  0  0  0  0
    5.9685  -13.0156   25.9941 S   0  0  0  0  0  0  0  0  0  0  0  0
    8.1974  -15.2411   26.1716 C   0  0  0  0  0  0  0  0  0  0  0  0
    7.3007  -16.0730   25.9831 O   0  0  0  0  0  0  0  0  0  0  0  0
   11.3963  -18.3581   23.7613 N   0  0  0  0  0  0  0  0  0  0  0  0
   11.8158  -18.8368   25.0246 C   0  0  0  0  0  0  0  0  0  0  0  0
   12.7662  -19.6877   25.0332 O   0  0  0  0  0  0  0  0  0  0  0  0
   11.2272  -18.4069   26.3048 C   0  0  0  0  0  0  0  0  0  0  0  0
   10.4234  -17.1566   26.2596 C   0  0  0  0  0  0  0  0  0  0  0  0
    9.8313  -16.6433   27.5135 C   0  0  2  0  0  0  0  0  0  0  0  0
    9.0951  -15.3961   27.2550 N   0  0  0  0  0  0  0  0  0  0  0  0
   10.6471  -16.5781   28.6998 C   0  0  0  0  0  0  0  0  0  0  0  0
   10.9699  -17.6076   29.3408 O   0  0  0  0  0  0  0  0  0  0  0  0
   11.1460  -15.3796   29.2366 O   0  0  0  0  0  0  0  0  0  0  0  0
  2  1  1  6
  3  2  1  0
  4  8  1  0
  4  3  1  0
  5  4  2  0
  6  5  1  0
  6  7  1  0
  7  8  2  0
  9 10  2  0
  9  2  1  0
 11  9  1  0
 12 11  1  0
 12 13  1  1
 14 13  1  0
 15 12  1  0
 16 15  2  0
 17 18  1  0
 18 20  1  0
 19 18  2  0
 21 20  1  0
 22 21  1  6
 22 23  1  0
 23 15  1  0
 24 22  1  0
 24 26  1  0
 25 24  2  0
M  END
$$$$
