HCQ.pdb
     RDKit          3D

 26 26  0  0  1  0  0  0  0  0999 V2000
   10.2274  -15.7014   19.8771 N   0  0  0  0  0  0  0  0  0  0  0  0
    8.9883  -15.7790   20.6085 C   0  0  1  0  0  0  0  0  0  0  0  0
    8.5317  -17.2359   20.5579 C   0  0  0  0  0  0  0  0  0  0  0  0
    7.9778  -17.5602   19.2213 C   0  0  0  0  0  0  0  0  0  0  0  0
    7.9505  -16.7283   18.1238 C   0  0  0  0  0  0  0  0  0  0  0  0
    7.3769  -17.3460   17.0828 N   0  0  0  0  0  0  0  0  0  0  0  0
    7.0345  -18.5746   17.5077 C   0  0  0  0  0  0  0  0  0  0  0  0
    7.3987  -18.7150   18.8166 N   0  0  0  0  0  0  0  0  0  0  0  0
    9.1749  -15.3215   21.9948 C   0  0  0  0  0  0  0  0  0  0  0  0
   10.2586  -15.5763   22.5998 O   0  0  0  0  0  0  0  0  0  0  0  0
    8.1795  -14.5921   22.7059 N   0  0  0  0  0  0  0  0  0  0  0  0
    8.1967  -14.4281   24.1244 C   0  0  1  0  0  0  0  0  0  0  0  0
    7.0836  -13.5058   24.5596 C   0  0  0  0  0  0  0  0  0  0  0  0
    7.2167  -13.2957   26.3578 S   0  0  0  0  0  0  0  0  0  0  0  0
    8.1752  -15.7180   24.8535 C   0  0  0  0  0  0  0  0  0  0  0  0
    7.4817  -16.6491   24.4249 O   0  0  0  0  0  0  0  0  0  0  0  0
   11.8698  -18.7057   22.9460 N   0  0  0  0  0  0  0  0  0  0  0  0
   11.9647  -19.3140   24.2196 C   0  0  0  0  0  0  0  0  0  0  0  0
   12.8154  -20.2559   24.3478 O   0  0  0  0  0  0  0  0  0  0  0  0
   11.1521  -18.9190   25.3832 C   0  0  0  0  0  0  0  0  0  0  0  0
   10.3448  -17.6811   25.2180 C   0  0  0  0  0  0  0  0  0  0  0  0
    9.6044  -17.1514   26.3831 C   0  0  2  0  0  0  0  0  0  0  0  0
    8.9415  -15.8859   26.0318 N   0  0  0  0  0  0  0  0  0  0  0  0
   10.2563  -17.1060   27.6676 C   0  0  0  0  0  0  0  0  0  0  0  0
   10.4057  -16.0315   28.2985 O   0  0  0  0  0  0  0  0  0  0  0  0
   10.7741  -18.2383   28.3183 O   0  0  0  0  0  0  0  0  0  0  0  0
  2  1  1  6
  3  2  1  0
  4  8  1  0
  4  3  1  0
  5  4  2  0
  6  5  1  0
  6  7  1  0
  7  8  2  0
  9 10  2  0
  9  2  1  0
 11  9  1  0
 12 11  1  0
 12 13  1  1
 14 13  1  0
 15 12  1  0
 16 15  2  0
 17 18  1  0
 18 20  1  0
 19 18  2  0
 21 20  1  0
 22 21  1  6
 22 23  1  0
 23 15  1  0
 24 22  1  0
 24 26  1  0
 25 24  2  0
M  END
$$$$
