HCQ.pdb
     RDKit          3D

 26 26  0  0  1  0  0  0  0  0999 V2000
    9.5500  -15.3410   20.8579 N   0  0  0  0  0  0  0  0  0  0  0  0
    8.3763  -15.4973   21.6791 C   0  0  1  0  0  0  0  0  0  0  0  0
    8.1548  -16.9981   21.8584 C   0  0  0  0  0  0  0  0  0  0  0  0
    7.6567  -17.6033   20.5998 C   0  0  0  0  0  0  0  0  0  0  0  0
    8.4192  -17.9827   19.5173 C   0  0  0  0  0  0  0  0  0  0  0  0
    7.6418  -18.4933   18.5534 N   0  0  0  0  0  0  0  0  0  0  0  0
    6.3794  -18.4434   19.0130 C   0  0  0  0  0  0  0  0  0  0  0  0
    6.3787  -17.8997   20.2660 N   0  0  0  0  0  0  0  0  0  0  0  0
    8.5557  -14.8214   22.9740 C   0  0  0  0  0  0  0  0  0  0  0  0
    9.6726  -14.8889   23.5684 O   0  0  0  0  0  0  0  0  0  0  0  0
    7.5169  -14.0801   23.6065 N   0  0  0  0  0  0  0  0  0  0  0  0
    7.6226  -13.5662   24.9347 C   0  0  1  0  0  0  0  0  0  0  0  0
    6.4004  -12.7504   25.2806 C   0  0  0  0  0  0  0  0  0  0  0  0
    6.5251  -12.2911   27.0324 S   0  0  0  0  0  0  0  0  0  0  0  0
    7.8980  -14.6198   25.9397 C   0  0  0  0  0  0  0  0  0  0  0  0
    7.1040  -15.5601   26.0704 O   0  0  0  0  0  0  0  0  0  0  0  0
   11.4249  -19.0418   26.1373 N   0  0  0  0  0  0  0  0  0  0  0  0
   11.9141  -17.7355   25.9027 C   0  0  0  0  0  0  0  0  0  0  0  0
   12.9525  -17.6308   25.1691 O   0  0  0  0  0  0  0  0  0  0  0  0
   11.2945  -16.5145   26.4462 C   0  0  0  0  0  0  0  0  0  0  0  0
   10.0391  -16.7146   27.2178 C   0  0  0  0  0  0  0  0  0  0  0  0
    9.3627  -15.5348   27.7983 C   0  0  2  0  0  0  0  0  0  0  0  0
    9.0600  -14.5530   26.7453 N   0  0  0  0  0  0  0  0  0  0  0  0
    9.9035  -14.9313   28.9900 C   0  0  0  0  0  0  0  0  0  0  0  0
   10.2538  -15.6170   29.9810 O   0  0  0  0  0  0  0  0  0  0  0  0
   10.0846  -13.5472   29.1484 O   0  0  0  0  0  0  0  0  0  0  0  0
  2  1  1  6
  3  2  1  0
  4  8  1  0
  4  3  1  0
  5  4  2  0
  6  5  1  0
  6  7  1  0
  7  8  2  0
  9 10  2  0
  9  2  1  0
 11  9  1  0
 12 11  1  0
 12 13  1  1
 14 13  1  0
 15 12  1  0
 16 15  2  0
 17 18  1  0
 18 20  1  0
 19 18  2  0
 21 20  1  0
 22 21  1  6
 22 23  1  0
 23 15  1  0
 24 22  1  0
 24 26  1  0
 25 24  2  0
M  END
$$$$
