HCQ.pdb
     RDKit          3D

 26 26  0  0  1  0  0  0  0  0999 V2000
    7.6626  -16.6133   21.4554 N   0  0  0  0  0  0  0  0  0  0  0  0
    9.0551  -16.3497   21.7159 C   0  0  1  0  0  0  0  0  0  0  0  0
    9.6156  -15.6520   20.4778 C   0  0  0  0  0  0  0  0  0  0  0  0
    8.6671  -14.6232   19.9877 C   0  0  0  0  0  0  0  0  0  0  0  0
    7.4609  -14.2843   20.5600 C   0  0  0  0  0  0  0  0  0  0  0  0
    6.8642  -13.3147   19.8542 N   0  0  0  0  0  0  0  0  0  0  0  0
    7.6841  -13.0282   18.8280 C   0  0  0  0  0  0  0  0  0  0  0  0
    8.7912  -13.8248   18.9015 N   0  0  0  0  0  0  0  0  0  0  0  0
    9.2087  -15.5162   22.9190 C   0  0  0  0  0  0  0  0  0  0  0  0
   10.3685  -15.2115   23.3283 O   0  0  0  0  0  0  0  0  0  0  0  0
    8.0978  -15.0242   23.6624 N   0  0  0  0  0  0  0  0  0  0  0  0
    8.2256  -14.4277   24.9535 C   0  0  1  0  0  0  0  0  0  0  0  0
    7.0999  -13.4509   25.1941 C   0  0  0  0  0  0  0  0  0  0  0  0
    7.4159  -12.6301   26.7821 S   0  0  0  0  0  0  0  0  0  0  0  0
    8.3440  -15.4276   26.0407 C   0  0  0  0  0  0  0  0  0  0  0  0
    7.5377  -16.3649   26.0974 O   0  0  0  0  0  0  0  0  0  0  0  0
    9.9332  -20.0253   25.5384 N   0  0  0  0  0  0  0  0  0  0  0  0
   10.8067  -19.9308   26.6470 C   0  0  0  0  0  0  0  0  0  0  0  0
   11.3171  -21.0190   27.0744 O   0  0  0  0  0  0  0  0  0  0  0  0
   11.1548  -18.6649   27.3153 C   0  0  0  0  0  0  0  0  0  0  0  0
   10.4888  -17.4472   26.7814 C   0  0  0  0  0  0  0  0  0  0  0  0
    9.9206  -16.4692   27.7338 C   0  0  2  0  0  0  0  0  0  0  0  0
    9.3709  -15.3134   27.0082 N   0  0  0  0  0  0  0  0  0  0  0  0
   10.6884  -16.0908   28.8932 C   0  0  0  0  0  0  0  0  0  0  0  0
   11.0428  -14.9042   29.0963 O   0  0  0  0  0  0  0  0  0  0  0  0
   11.1023  -16.9979   29.8829 O   0  0  0  0  0  0  0  0  0  0  0  0
  2  1  1  6
  3  2  1  0
  4  8  1  0
  4  3  1  0
  5  4  2  0
  6  5  1  0
  6  7  1  0
  7  8  2  0
  9 10  2  0
  9  2  1  0
 11  9  1  0
 12 11  1  0
 12 13  1  1
 14 13  1  0
 15 12  1  0
 16 15  2  0
 17 18  1  0
 18 20  1  0
 19 18  2  0
 21 20  1  0
 22 21  1  6
 22 23  1  0
 23 15  1  0
 24 22  1  0
 24 26  1  0
 25 24  2  0
M  END
$$$$
