HCQ.pdb
     RDKit          3D

 26 26  0  0  1  0  0  0  0  0999 V2000
   10.2882  -14.0402   20.4058 N   0  0  0  0  0  0  0  0  0  0  0  0
    8.9364  -14.0093   20.9040 C   0  0  1  0  0  0  0  0  0  0  0  0
    8.1723  -15.1215   20.1878 C   0  0  0  0  0  0  0  0  0  0  0  0
    7.8118  -14.7011   18.8125 C   0  0  0  0  0  0  0  0  0  0  0  0
    8.2044  -13.5407   18.1828 C   0  0  0  0  0  0  0  0  0  0  0  0
    7.6947  -13.4844   16.9453 N   0  0  0  0  0  0  0  0  0  0  0  0
    6.9742  -14.6067   16.7765 C   0  0  0  0  0  0  0  0  0  0  0  0
    7.0401  -15.3584   17.9151 N   0  0  0  0  0  0  0  0  0  0  0  0
    8.9173  -14.1970   22.3635 C   0  0  0  0  0  0  0  0  0  0  0  0
    9.8194  -14.8918   22.9194 O   0  0  0  0  0  0  0  0  0  0  0  0
    7.9163  -13.6260   23.2006 N   0  0  0  0  0  0  0  0  0  0  0  0
    7.9016  -13.7859   24.6196 C   0  0  1  0  0  0  0  0  0  0  0  0
    6.7698  -12.9916   25.2255 C   0  0  0  0  0  0  0  0  0  0  0  0
    6.7929  -13.2828   27.0171 S   0  0  0  0  0  0  0  0  0  0  0  0
    7.8784  -15.2070   25.0388 C   0  0  0  0  0  0  0  0  0  0  0  0
    6.9226  -15.9230   24.7139 O   0  0  0  0  0  0  0  0  0  0  0  0
   10.7153  -20.5223   25.5418 N   0  0  0  0  0  0  0  0  0  0  0  0
   11.2532  -19.4452   24.7993 C   0  0  0  0  0  0  0  0  0  0  0  0
   12.4065  -19.6189   24.2825 O   0  0  0  0  0  0  0  0  0  0  0  0
   10.5609  -18.1615   24.5916 C   0  0  0  0  0  0  0  0  0  0  0  0
    9.1932  -18.0638   25.1670 C   0  0  0  0  0  0  0  0  0  0  0  0
    8.9568  -17.1323   26.2908 C   0  0  2  0  0  0  0  0  0  0  0  0
    8.9406  -15.7436   25.8053 N   0  0  0  0  0  0  0  0  0  0  0  0
    9.7132  -17.2932   27.5069 C   0  0  0  0  0  0  0  0  0  0  0  0
   10.4160  -16.3668   27.9789 O   0  0  0  0  0  0  0  0  0  0  0  0
    9.7327  -18.4785   28.2606 O   0  0  0  0  0  0  0  0  0  0  0  0
  2  1  1  6
  3  2  1  0
  4  8  1  0
  4  3  1  0
  5  4  2  0
  6  5  1  0
  6  7  1  0
  7  8  2  0
  9 10  2  0
  9  2  1  0
 11  9  1  0
 12 11  1  0
 12 13  1  6
 14 13  1  0
 15 12  1  0
 16 15  2  0
 17 18  1  0
 18 20  1  0
 19 18  2  0
 21 20  1  0
 22 21  1  6
 22 23  1  0
 23 15  1  0
 24 22  1  0
 24 26  1  0
 25 24  2  0
M  END
$$$$
