HCQ.pdb
     RDKit          3D

 26 26  0  0  1  0  0  0  0  0999 V2000
    7.9191  -15.9928   21.0027 N   0  0  0  0  0  0  0  0  0  0  0  0
    9.3288  -15.9707   21.3004 C   0  0  1  0  0  0  0  0  0  0  0  0
    9.9841  -15.0371   20.2842 C   0  0  0  0  0  0  0  0  0  0  0  0
    8.9522  -14.3265   19.4914 C   0  0  0  0  0  0  0  0  0  0  0  0
    8.2338  -13.2204   19.8886 C   0  0  0  0  0  0  0  0  0  0  0  0
    7.3873  -12.8407   18.9225 N   0  0  0  0  0  0  0  0  0  0  0  0
    7.5590  -13.7003   17.9032 C   0  0  0  0  0  0  0  0  0  0  0  0
    8.5158  -14.6141   18.2425 N   0  0  0  0  0  0  0  0  0  0  0  0
    9.5603  -15.5124   22.6796 C   0  0  0  0  0  0  0  0  0  0  0  0
   10.7456  -15.3535   23.0982 O   0  0  0  0  0  0  0  0  0  0  0  0
    8.4986  -15.2324   23.5868 N   0  0  0  0  0  0  0  0  0  0  0  0
    8.7008  -15.0296   24.9858 C   0  0  1  0  0  0  0  0  0  0  0  0
    7.6339  -14.1188   25.5437 C   0  0  0  0  0  0  0  0  0  0  0  0
    8.1341  -13.6537   27.2256 S   0  0  0  0  0  0  0  0  0  0  0  0
    8.8077  -16.2993   25.7423 C   0  0  0  0  0  0  0  0  0  0  0  0
    7.9694  -17.1910   25.5583 O   0  0  0  0  0  0  0  0  0  0  0  0
   14.0127  -17.8220   29.2856 N   0  0  0  0  0  0  0  0  0  0  0  0
   12.8641  -17.5543   30.0666 C   0  0  0  0  0  0  0  0  0  0  0  0
   13.0514  -17.3127   31.3052 O   0  0  0  0  0  0  0  0  0  0  0  0
   11.4914  -17.5346   29.5323 C   0  0  0  0  0  0  0  0  0  0  0  0
   11.3633  -17.7707   28.0697 C   0  0  0  0  0  0  0  0  0  0  0  0
   10.0193  -17.7263   27.4548 C   0  0  2  0  0  0  0  0  0  0  0  0
    9.8601  -16.4928   26.6690 N   0  0  0  0  0  0  0  0  0  0  0  0
    8.8664  -18.0286   28.2651 C   0  0  0  0  0  0  0  0  0  0  0  0
    7.9922  -17.1661   28.5234 O   0  0  0  0  0  0  0  0  0  0  0  0
    8.6205  -19.2916   28.8288 O   0  0  0  0  0  0  0  0  0  0  0  0
  2  1  1  6
  3  2  1  0
  4  8  1  0
  4  3  1  0
  5  4  2  0
  6  5  1  0
  6  7  1  0
  7  8  2  0
  9 10  2  0
  9  2  1  0
 11  9  1  0
 12 11  1  0
 12 13  1  1
 14 13  1  0
 15 12  1  0
 16 15  2  0
 17 18  1  0
 18 20  1  0
 19 18  2  0
 21 20  1  0
 22 21  1  1
 22 23  1  0
 23 15  1  0
 24 22  1  0
 24 26  1  0
 25 24  2  0
M  END
$$$$
