HCQ.pdb
     RDKit          3D

 26 26  0  0  1  0  0  0  0  0999 V2000
   10.6153  -16.1112   19.5785 N   0  0  0  0  0  0  0  0  0  0  0  0
    9.7669  -16.7063   20.5798 C   0  0  1  0  0  0  0  0  0  0  0  0
    9.9455  -18.2197   20.4728 C   0  0  0  0  0  0  0  0  0  0  0  0
    9.2674  -18.7379   19.2604 C   0  0  0  0  0  0  0  0  0  0  0  0
    9.6923  -18.5880   17.9588 C   0  0  0  0  0  0  0  0  0  0  0  0
    8.8377  -19.1831   17.1163 N   0  0  0  0  0  0  0  0  0  0  0  0
    7.8627  -19.7162   17.8729 C   0  0  0  0  0  0  0  0  0  0  0  0
    8.1174  -19.4486   19.1879 N   0  0  0  0  0  0  0  0  0  0  0  0
   10.1246  -16.2158   21.9205 C   0  0  0  0  0  0  0  0  0  0  0  0
   11.3332  -15.9470   22.1893 O   0  0  0  0  0  0  0  0  0  0  0  0
    9.1620  -16.0237   22.9526 N   0  0  0  0  0  0  0  0  0  0  0  0
    9.5094  -15.6239   24.2789 C   0  0  1  0  0  0  0  0  0  0  0  0
    8.6341  -14.4790   24.7281 C   0  0  0  0  0  0  0  0  0  0  0  0
    6.9069  -15.0171   24.5776 S   0  0  0  0  0  0  0  0  0  0  0  0
    9.4990  -16.7506   25.2413 C   0  0  0  0  0  0  0  0  0  0  0  0
    8.4554  -17.3921   25.4177 O   0  0  0  0  0  0  0  0  0  0  0  0
   14.8596  -20.4938   26.8469 N   0  0  0  0  0  0  0  0  0  0  0  0
   14.2334  -19.5523   25.9969 C   0  0  0  0  0  0  0  0  0  0  0  0
   14.5876  -19.5555   24.7714 O   0  0  0  0  0  0  0  0  0  0  0  0
   13.2096  -18.5923   26.4445 C   0  0  0  0  0  0  0  0  0  0  0  0
   11.8280  -19.1291   26.5643 C   0  0  0  0  0  0  0  0  0  0  0  0
   10.7309  -18.2029   26.9177 C   0  0  2  0  0  0  0  0  0  0  0  0
   10.6729  -17.0922   25.9546 N   0  0  0  0  0  0  0  0  0  0  0  0
   10.5920  -17.7684   28.2848 C   0  0  0  0  0  0  0  0  0  0  0  0
   10.5440  -16.5529   28.5934 O   0  0  0  0  0  0  0  0  0  0  0  0
   10.4994  -18.6485   29.3759 O   0  0  0  0  0  0  0  0  0  0  0  0
  2  1  1  6
  3  2  1  0
  4  8  1  0
  4  3  1  0
  5  4  2  0
  6  5  1  0
  6  7  1  0
  7  8  2  0
  9 10  2  0
  9  2  1  0
 11  9  1  0
 12 11  1  0
 12 13  1  1
 14 13  1  0
 15 12  1  0
 16 15  2  0
 17 18  1  0
 18 20  1  0
 19 18  2  0
 21 20  1  0
 22 21  1  1
 22 23  1  0
 23 15  1  0
 24 22  1  0
 24 26  1  0
 25 24  2  0
M  END
$$$$
