HCQ.pdb
     RDKit          3D

 26 26  0  0  1  0  0  0  0  0999 V2000
   11.8528  -25.2198   27.5753 N   0  0  0  0  0  0  0  0  0  0  0  0
   11.4844  -24.5353   28.7887 C   0  0  1  0  0  0  0  0  0  0  0  0
   11.2336  -25.6083   29.8468 C   0  0  0  0  0  0  0  0  0  0  0  0
   10.0483  -26.4237   29.4884 C   0  0  0  0  0  0  0  0  0  0  0  0
    8.8174  -25.9476   29.0941 C   0  0  0  0  0  0  0  0  0  0  0  0
    7.9798  -26.9636   28.8482 N   0  0  0  0  0  0  0  0  0  0  0  0
    8.6690  -28.0936   29.0835 C   0  0  0  0  0  0  0  0  0  0  0  0
    9.9373  -27.7728   29.4762 N   0  0  0  0  0  0  0  0  0  0  0  0
   12.5489  -23.6080   29.2046 C   0  0  0  0  0  0  0  0  0  0  0  0
   13.7483  -24.0127   29.2601 O   0  0  0  0  0  0  0  0  0  0  0  0
   12.2950  -22.2511   29.5551 N   0  0  0  0  0  0  0  0  0  0  0  0
   13.2783  -21.4008   30.1461 C   0  0  1  0  0  0  0  0  0  0  0  0
   12.8201  -19.9629   30.1079 C   0  0  0  0  0  0  0  0  0  0  0  0
   14.1628  -18.9412   30.7777 S   0  0  0  0  0  0  0  0  0  0  0  0
   13.6668  -21.8308   31.5100 C   0  0  0  0  0  0  0  0  0  0  0  0
   12.8096  -22.3032   32.2676 O   0  0  0  0  0  0  0  0  0  0  0  0
   14.1886  -26.3399   33.8938 N   0  0  0  0  0  0  0  0  0  0  0  0
   14.9543  -25.6603   34.8699 C   0  0  0  0  0  0  0  0  0  0  0  0
   15.2697  -26.3174   35.9168 O   0  0  0  0  0  0  0  0  0  0  0  0
   15.4021  -24.2630   34.7387 C   0  0  0  0  0  0  0  0  0  0  0  0
   15.0343  -23.5824   33.4687 C   0  0  0  0  0  0  0  0  0  0  0  0
   15.4756  -22.1878   33.2529 C   0  0  2  0  0  0  0  0  0  0  0  0
   15.0077  -21.7031   31.9450 N   0  0  0  0  0  0  0  0  0  0  0  0
   16.8463  -21.8352   33.5247 C   0  0  0  0  0  0  0  0  0  0  0  0
   17.7300  -21.8713   32.6345 O   0  0  0  0  0  0  0  0  0  0  0  0
   17.3095  -21.4268   34.7866 O   0  0  0  0  0  0  0  0  0  0  0  0
  2  1  1  6
  3  2  1  0
  4  8  1  0
  4  3  1  0
  5  4  2  0
  6  5  1  0
  6  7  1  0
  7  8  2  0
  9 10  2  0
  9  2  1  0
 11  9  1  0
 12 11  1  0
 12 13  1  1
 14 13  1  0
 15 12  1  0
 16 15  2  0
 17 18  1  0
 18 20  1  0
 19 18  2  0
 21 20  1  0
 22 21  1  6
 22 23  1  0
 23 15  1  0
 24 22  1  0
 24 26  1  0
 25 24  2  0
M  END
$$$$
