HCQ.pdb
     RDKit          3D

 26 26  0  0  1  0  0  0  0  0999 V2000
    9.7003  -15.0054   21.2113 N   0  0  0  0  0  0  0  0  0  0  0  0
    8.5327  -14.3699   21.7673 C   0  0  1  0  0  0  0  0  0  0  0  0
    7.3214  -14.9449   21.0351 C   0  0  0  0  0  0  0  0  0  0  0  0
    7.3518  -14.5638   19.6026 C   0  0  0  0  0  0  0  0  0  0  0  0
    7.2818  -13.2853   19.0950 C   0  0  0  0  0  0  0  0  0  0  0  0
    7.3371  -13.3096   17.7568 N   0  0  0  0  0  0  0  0  0  0  0  0
    7.4425  -14.6018   17.4013 C   0  0  0  0  0  0  0  0  0  0  0  0
    7.4523  -15.3777   18.5254 N   0  0  0  0  0  0  0  0  0  0  0  0
    8.4506  -14.6128   23.2165 C   0  0  0  0  0  0  0  0  0  0  0  0
    9.1207  -15.5552   23.7344 O   0  0  0  0  0  0  0  0  0  0  0  0
    7.6399  -13.8269   24.0847 N   0  0  0  0  0  0  0  0  0  0  0  0
    7.6782  -13.9450   25.5073 C   0  0  1  0  0  0  0  0  0  0  0  0
    6.7595  -12.9297   26.1431 C   0  0  0  0  0  0  0  0  0  0  0  0
    6.8591  -13.1506   27.9422 S   0  0  0  0  0  0  0  0  0  0  0  0
    7.4046  -15.3231   25.9783 C   0  0  0  0  0  0  0  0  0  0  0  0
    6.2763  -15.8076   25.8237 O   0  0  0  0  0  0  0  0  0  0  0  0
    6.2079  -20.2517   24.5351 N   0  0  0  0  0  0  0  0  0  0  0  0
    7.4616  -19.6901   24.1975 C   0  0  0  0  0  0  0  0  0  0  0  0
    7.9684  -20.0386   23.0799 O   0  0  0  0  0  0  0  0  0  0  0  0
    8.1936  -18.7379   25.0506 C   0  0  0  0  0  0  0  0  0  0  0  0
    7.4801  -18.2848   26.2741 C   0  0  0  0  0  0  0  0  0  0  0  0
    8.1833  -17.3934   27.2212 C   0  0  2  0  0  0  0  0  0  0  0  0
    8.4250  -16.0815   26.6008 N   0  0  0  0  0  0  0  0  0  0  0  0
    9.3282  -17.8946   27.9388 C   0  0  0  0  0  0  0  0  0  0  0  0
    9.2957  -18.9823   28.5639 O   0  0  0  0  0  0  0  0  0  0  0  0
   10.5613  -17.2246   28.0029 O   0  0  0  0  0  0  0  0  0  0  0  0
  2  1  1  6
  3  2  1  0
  4  8  1  0
  4  3  1  0
  5  4  2  0
  6  5  1  0
  6  7  1  0
  7  8  2  0
  9 10  2  0
  9  2  1  0
 11  9  1  0
 12 11  1  0
 12 13  1  1
 14 13  1  0
 15 12  1  0
 16 15  2  0
 17 18  1  0
 18 20  1  0
 19 18  2  0
 21 20  1  0
 22 21  1  6
 22 23  1  0
 23 15  1  0
 24 22  1  0
 24 26  1  0
 25 24  2  0
M  END
$$$$
