HCQ.pdb
     RDKit          3D

 26 26  0  0  1  0  0  0  0  0999 V2000
   10.2959  -18.3735   18.8633 N   0  0  0  0  0  0  0  0  0  0  0  0
    9.6939  -18.3476   20.1723 C   0  0  1  0  0  0  0  0  0  0  0  0
   10.4651  -19.3433   21.0369 C   0  0  0  0  0  0  0  0  0  0  0  0
   10.0379  -20.7310   20.7369 C   0  0  0  0  0  0  0  0  0  0  0  0
    8.7409  -21.1812   20.6251 C   0  0  0  0  0  0  0  0  0  0  0  0
    8.7228  -22.4913   20.3466 N   0  0  0  0  0  0  0  0  0  0  0  0
   10.0061  -22.8861   20.2787 C   0  0  0  0  0  0  0  0  0  0  0  0
   10.8190  -21.8145   20.5164 N   0  0  0  0  0  0  0  0  0  0  0  0
    9.7445  -16.9905   20.7394 C   0  0  0  0  0  0  0  0  0  0  0  0
   10.8161  -16.3185   20.6661 O   0  0  0  0  0  0  0  0  0  0  0  0
    8.6277  -16.3811   21.3797 N   0  0  0  0  0  0  0  0  0  0  0  0
    8.6446  -15.0390   21.8676 C   0  0  1  0  0  0  0  0  0  0  0  0
    7.2503  -14.4606   21.8610 C   0  0  0  0  0  0  0  0  0  0  0  0
    6.2069  -15.5322   22.8898 S   0  0  0  0  0  0  0  0  0  0  0  0
    9.2979  -14.9159   23.1920 C   0  0  0  0  0  0  0  0  0  0  0  0
    9.3444  -13.8115   23.7486 O   0  0  0  0  0  0  0  0  0  0  0  0
   10.3586  -13.2540   28.3902 N   0  0  0  0  0  0  0  0  0  0  0  0
    9.2739  -14.1398   28.1908 C   0  0  0  0  0  0  0  0  0  0  0  0
    8.1277  -13.7487   28.5914 O   0  0  0  0  0  0  0  0  0  0  0  0
    9.3971  -15.4613   27.5514 C   0  0  0  0  0  0  0  0  0  0  0  0
    9.2086  -15.4863   26.0765 C   0  0  0  0  0  0  0  0  0  0  0  0
   10.2727  -16.0688   25.2311 C   0  0  2  0  0  0  0  0  0  0  0  0
    9.8653  -16.0520   23.8175 N   0  0  0  0  0  0  0  0  0  0  0  0
   10.8795  -17.3150   25.6257 C   0  0  0  0  0  0  0  0  0  0  0  0
   10.2387  -18.3940   25.6274 O   0  0  0  0  0  0  0  0  0  0  0  0
   12.2177  -17.4337   26.0366 O   0  0  0  0  0  0  0  0  0  0  0  0
  2  1  1  6
  3  2  1  0
  4  8  1  0
  4  3  1  0
  5  4  2  0
  6  5  1  0
  6  7  1  0
  7  8  2  0
  9 10  2  0
  9  2  1  0
 11  9  1  0
 12 11  1  0
 12 13  1  1
 14 13  1  0
 15 12  1  0
 16 15  2  0
 17 18  1  0
 18 20  1  0
 19 18  2  0
 21 20  1  0
 22 21  1  1
 22 23  1  0
 23 15  1  0
 24 22  1  0
 24 26  1  0
 25 24  2  0
M  END
$$$$
