IDY.pdb
     RDKit          3D

 29 29  0  0  1  0  0  0  0  0999 V2000
    5.7720  -11.6619   25.9379 C   0  0  0  0  0  0  0  0  0  0  0  0
    5.6412  -13.1323   25.6266 C   0  0  0  0  0  0  0  0  0  0  0  0
    6.9091  -13.7380   25.0797 C   0  0  2  0  0  0  0  0  0  0  0  0
    7.4630  -12.9526   23.9187 C   0  0  0  0  0  0  0  0  0  0  0  0
    6.7174  -15.1958   24.7615 C   0  0  2  0  0  0  0  0  0  0  0  0
    5.9993  -15.9032   25.7584 N   0  0  0  0  0  0  0  0  0  0  0  0
    7.9810  -15.8143   24.3295 C   0  0  0  0  0  0  0  0  0  0  0  0
    8.4504  -16.7294   25.0659 O   0  0  0  0  0  0  0  0  0  0  0  0
    8.7310  -15.5023   23.1847 N   0  0  0  0  0  0  0  0  0  0  0  0
    9.5709  -16.4201   22.4739 C   0  0  1  0  0  0  0  0  0  0  0  0
    9.2812  -16.3697   21.0008 C   0  0  0  0  0  0  0  0  0  0  0  0
   10.1571  -17.2474   20.1906 C   0  0  0  0  0  0  0  0  0  0  0  0
   11.2528  -16.8076   19.7194 O   0  0  0  0  0  0  0  0  0  0  0  0
   10.9990  -16.2685   22.6976 C   0  0  0  0  0  0  0  0  0  0  0  0
   11.9236  -16.8572   22.0804 O   0  0  0  0  0  0  0  0  0  0  0  0
    9.8829  -18.5709   19.8799 O   0  0  0  0  0  0  0  0  0  0  0  0
   10.2693  -14.8118   30.8680 O   0  0  0  0  0  0  0  0  0  0  0  0
   10.5309  -15.3021   29.5760 C   0  0  0  0  0  0  0  0  0  0  0  0
   11.0747  -16.5572   29.4093 C   0  0  0  0  0  0  0  0  0  0  0  0
   11.3053  -16.9753   28.1147 C   0  0  0  0  0  0  0  0  0  0  0  0
   11.0090  -16.1815   27.0286 C   0  0  0  0  0  0  0  0  0  0  0  0
   11.2801  -16.6862   25.6835 C   0  0  0  0  0  0  0  0  0  0  0  0
   12.2055  -15.8155   24.8629 C   0  0  2  0  0  0  0  0  0  0  0  0
   11.3979  -15.3609   23.7196 N   0  0  0  0  0  0  0  0  0  0  0  0
   13.3712  -16.5578   24.3208 C   0  0  0  0  0  0  0  0  0  0  0  0
   13.2656  -17.4724   23.2873 O   0  0  0  0  0  0  0  0  0  0  0  0
   10.4670  -14.9330   27.2246 C   0  0  0  0  0  0  0  0  0  0  0  0
   10.2305  -14.4998   28.5030 C   0  0  0  0  0  0  0  0  0  0  0  0
   14.5435  -16.3858   24.7884 O   0  0  0  0  0  0  0  0  0  0  0  0
  1  2  1  0
  2  3  1  0
  3  4  1  6
  5  6  1  1
  5  3  1  0
  7  8  2  0
  7  5  1  0
  9  7  1  0
 10  9  1  0
 10 11  1  6
 12 16  1  0
 12 11  1  0
 13 12  2  0
 14 24  1  0
 14 10  1  0
 15 14  2  0
 18 17  1  0
 19 18  2  0
 20 19  1  0
 21 27  1  0
 21 20  2  0
 22 21  1  0
 23 22  1  1
 23 24  1  0
 23 25  1  0
 25 26  1  0
 27 28  2  0
 28 18  1  0
 29 25  2  0
M  END
$$$$
