IDY.pdb
     RDKit          3D

 29 29  0  0  1  0  0  0  0  0999 V2000
    7.2223  -12.1199   19.1394 C   0  0  0  0  0  0  0  0  0  0  0  0
    7.6990  -13.5059   18.7815 C   0  0  0  0  0  0  0  0  0  0  0  0
    7.9461  -14.3778   19.9865 C   0  0  2  0  0  0  0  0  0  0  0  0
    8.7949  -13.6902   21.0250 C   0  0  0  0  0  0  0  0  0  0  0  0
    8.4921  -15.7192   19.5795 C   0  0  2  0  0  0  0  0  0  0  0  0
    7.7932  -16.3099   18.4965 N   0  0  0  0  0  0  0  0  0  0  0  0
    8.6971  -16.5855   20.7513 C   0  0  0  0  0  0  0  0  0  0  0  0
    8.3041  -17.7837   20.6519 O   0  0  0  0  0  0  0  0  0  0  0  0
    9.2836  -16.2315   21.9765 N   0  0  0  0  0  0  0  0  0  0  0  0
   10.2143  -17.0379   22.7087 C   0  0  1  0  0  0  0  0  0  0  0  0
   11.3354  -17.4921   21.8180 C   0  0  0  0  0  0  0  0  0  0  0  0
   12.2615  -18.4493   22.4662 C   0  0  0  0  0  0  0  0  0  0  0  0
   11.8100  -19.4427   23.1182 O   0  0  0  0  0  0  0  0  0  0  0  0
   10.7597  -16.4332   23.9126 C   0  0  0  0  0  0  0  0  0  0  0  0
   11.4303  -15.3712   23.9834 O   0  0  0  0  0  0  0  0  0  0  0  0
   13.6451  -18.3614   22.4292 O   0  0  0  0  0  0  0  0  0  0  0  0
    6.5226  -10.9899   26.6609 O   0  0  0  0  0  0  0  0  0  0  0  0
    7.0049  -12.2888   26.4192 C   0  0  0  0  0  0  0  0  0  0  0  0
    7.9966  -12.8180   27.2163 C   0  0  0  0  0  0  0  0  0  0  0  0
    8.4226  -14.0974   26.9234 C   0  0  0  0  0  0  0  0  0  0  0  0
    7.8874  -14.8234   25.8823 C   0  0  0  0  0  0  0  0  0  0  0  0
    8.3861  -16.1737   25.6262 C   0  0  0  0  0  0  0  0  0  0  0  0
    9.7472  -16.4614   26.2198 C   0  0  2  0  0  0  0  0  0  0  0  0
   10.5118  -17.1083   25.1414 N   0  0  0  0  0  0  0  0  0  0  0  0
    9.6937  -17.4089   27.3614 C   0  0  0  0  0  0  0  0  0  0  0  0
    9.4565  -18.7634   27.2037 O   0  0  0  0  0  0  0  0  0  0  0  0
    6.8987  -14.2701   25.1029 C   0  0  0  0  0  0  0  0  0  0  0  0
    6.4621  -13.0006   25.3781 C   0  0  0  0  0  0  0  0  0  0  0  0
    9.8661  -17.0143   28.5602 O   0  0  0  0  0  0  0  0  0  0  0  0
  1  2  1  0
  2  3  1  0
  3  4  1  1
  5  6  1  6
  5  3  1  0
  7  8  2  0
  7  5  1  0
  9  7  1  0
 10  9  1  0
 10 11  1  6
 12 16  1  0
 12 11  1  0
 13 12  2  0
 14 24  1  0
 14 10  1  0
 15 14  2  0
 18 17  1  0
 19 18  2  0
 20 19  1  0
 21 27  1  0
 21 20  2  0
 22 21  1  0
 23 22  1  6
 23 24  1  0
 23 25  1  0
 25 26  1  0
 27 28  2  0
 28 18  1  0
 29 25  2  0
M  END
$$$$
