IDY.pdb
     RDKit          3D

 29 29  0  0  1  0  0  0  0  0999 V2000
    8.1105  -11.9323   19.9241 C   0  0  0  0  0  0  0  0  0  0  0  0
    7.5699  -13.3205   19.6862 C   0  0  0  0  0  0  0  0  0  0  0  0
    8.5944  -14.4032   19.9139 C   0  0  2  0  0  0  0  0  0  0  0  0
    9.8446  -14.1869   19.1004 C   0  0  0  0  0  0  0  0  0  0  0  0
    7.9929  -15.7670   19.7105 C   0  0  2  0  0  0  0  0  0  0  0  0
    6.6991  -15.9048   20.2739 N   0  0  0  0  0  0  0  0  0  0  0  0
    8.9531  -16.8266   20.0579 C   0  0  0  0  0  0  0  0  0  0  0  0
    9.0114  -17.1686   21.2744 O   0  0  0  0  0  0  0  0  0  0  0  0
    9.8188  -17.5067   19.1870 N   0  0  0  0  0  0  0  0  0  0  0  0
   10.8931  -18.3627   19.5943 C   0  0  1  0  0  0  0  0  0  0  0  0
   11.4642  -19.0934   18.4126 C   0  0  0  0  0  0  0  0  0  0  0  0
   12.5182  -20.0713   18.7688 C   0  0  0  0  0  0  0  0  0  0  0  0
   12.2800  -21.0017   19.6015 O   0  0  0  0  0  0  0  0  0  0  0  0
   11.9643  -17.7184   20.3360 C   0  0  0  0  0  0  0  0  0  0  0  0
   13.0209  -17.2298   19.8594 O   0  0  0  0  0  0  0  0  0  0  0  0
   13.8066  -20.0693   18.2554 O   0  0  0  0  0  0  0  0  0  0  0  0
   15.3367  -13.5873   17.7832 O   0  0  0  0  0  0  0  0  0  0  0  0
   14.6696  -14.0632   18.9264 C   0  0  0  0  0  0  0  0  0  0  0  0
   15.3879  -14.5957   19.9749 C   0  0  0  0  0  0  0  0  0  0  0  0
   14.6701  -15.0435   21.0651 C   0  0  0  0  0  0  0  0  0  0  0  0
   13.2957  -14.9667   21.1143 C   0  0  0  0  0  0  0  0  0  0  0  0
   12.5975  -15.4611   22.3000 C   0  0  0  0  0  0  0  0  0  0  0  0
   12.8026  -16.9335   22.5788 C   0  0  2  0  0  0  0  0  0  0  0  0
   11.8059  -17.6281   21.7481 N   0  0  0  0  0  0  0  0  0  0  0  0
   12.5390  -17.2982   23.9935 C   0  0  0  0  0  0  0  0  0  0  0  0
   11.4937  -18.1211   24.3754 O   0  0  0  0  0  0  0  0  0  0  0  0
   12.6046  -14.4305   20.0532 C   0  0  0  0  0  0  0  0  0  0  0  0
   13.2996  -13.9803   18.9613 C   0  0  0  0  0  0  0  0  0  0  0  0
   13.2739  -16.8641   24.9389 O   0  0  0  0  0  0  0  0  0  0  0  0
  1  2  1  0
  2  3  1  0
  3  4  1  6
  5  6  1  1
  5  3  1  0
  7  8  2  0
  7  5  1  0
  9  7  1  0
 10  9  1  0
 10 11  1  6
 12 16  1  0
 12 11  1  0
 13 12  2  0
 14 24  1  0
 14 10  1  0
 15 14  2  0
 18 17  1  0
 19 18  2  0
 20 19  1  0
 21 27  1  0
 21 20  2  0
 22 21  1  0
 23 22  1  1
 23 24  1  0
 23 25  1  0
 25 26  1  0
 27 28  2  0
 28 18  1  0
 29 25  2  0
M  END
$$$$
