IDY.pdb
     RDKit          3D

 29 29  0  0  1  0  0  0  0  0999 V2000
    7.0649  -12.3070   21.3495 C   0  0  0  0  0  0  0  0  0  0  0  0
    7.3880  -13.6878   20.8345 C   0  0  0  0  0  0  0  0  0  0  0  0
    8.7424  -13.7741   20.1775 C   0  0  2  0  0  0  0  0  0  0  0  0
    8.9502  -12.6892   19.1521 C   0  0  0  0  0  0  0  0  0  0  0  0
    8.9893  -15.1528   19.6287 C   0  0  2  0  0  0  0  0  0  0  0  0
    8.2671  -15.4265   18.4397 N   0  0  0  0  0  0  0  0  0  0  0  0
    8.8819  -16.1709   20.6858 C   0  0  0  0  0  0  0  0  0  0  0  0
    8.1864  -17.1948   20.4246 O   0  0  0  0  0  0  0  0  0  0  0  0
    9.4673  -16.1356   21.9612 N   0  0  0  0  0  0  0  0  0  0  0  0
   10.4472  -17.0624   22.4445 C   0  0  1  0  0  0  0  0  0  0  0  0
   11.5792  -17.1934   21.4658 C   0  0  0  0  0  0  0  0  0  0  0  0
   12.5720  -18.2279   21.8376 C   0  0  0  0  0  0  0  0  0  0  0  0
   13.8164  -18.0041   21.7069 O   0  0  0  0  0  0  0  0  0  0  0  0
   10.9754  -16.7851   23.7699 C   0  0  0  0  0  0  0  0  0  0  0  0
   11.8573  -17.4421   24.3807 O   0  0  0  0  0  0  0  0  0  0  0  0
   12.2587  -19.4822   22.3398 O   0  0  0  0  0  0  0  0  0  0  0  0
    5.8902  -10.8126   25.9631 O   0  0  0  0  0  0  0  0  0  0  0  0
    6.5297  -12.0625   25.8790 C   0  0  0  0  0  0  0  0  0  0  0  0
    7.7876  -12.2334   26.4149 C   0  0  0  0  0  0  0  0  0  0  0  0
    8.3561  -13.4852   26.2972 C   0  0  0  0  0  0  0  0  0  0  0  0
    7.7043  -14.5261   25.6733 C   0  0  0  0  0  0  0  0  0  0  0  0
    8.3652  -15.8270   25.5823 C   0  0  0  0  0  0  0  0  0  0  0  0
    9.8618  -15.7853   25.7971 C   0  0  2  0  0  0  0  0  0  0  0  0
   10.4433  -15.6539   24.4515 N   0  0  0  0  0  0  0  0  0  0  0  0
   10.3969  -17.0336   26.3963 C   0  0  0  0  0  0  0  0  0  0  0  0
   10.7869  -18.1241   25.6383 O   0  0  0  0  0  0  0  0  0  0  0  0
    6.4493  -14.3268   25.1473 C   0  0  0  0  0  0  0  0  0  0  0  0
    5.8679  -13.0906   25.2543 C   0  0  0  0  0  0  0  0  0  0  0  0
   10.5245  -17.1632   27.6569 O   0  0  0  0  0  0  0  0  0  0  0  0
  1  2  1  0
  2  3  1  0
  3  4  1  6
  5  6  1  6
  5  3  1  0
  7  8  2  0
  7  5  1  0
  9  7  1  0
 10  9  1  0
 10 11  1  6
 12 16  1  0
 12 11  1  0
 13 12  2  0
 14 24  1  0
 14 10  1  0
 15 14  2  0
 18 17  1  0
 19 18  2  0
 20 19  1  0
 21 27  1  0
 21 20  2  0
 22 21  1  0
 23 22  1  6
 23 24  1  0
 23 25  1  0
 25 26  1  0
 27 28  2  0
 28 18  1  0
 29 25  2  0
M  END
$$$$
