IDY.pdb
     RDKit          3D

 29 29  0  0  1  0  0  0  0  0999 V2000
    7.2207  -12.7017   23.0549 C   0  0  0  0  0  0  0  0  0  0  0  0
    7.4027  -14.1993   23.0680 C   0  0  0  0  0  0  0  0  0  0  0  0
    7.9962  -14.7360   21.7901 C   0  0  2  0  0  0  0  0  0  0  0  0
    7.3030  -14.1941   20.5664 C   0  0  0  0  0  0  0  0  0  0  0  0
    8.0549  -16.2391   21.8116 C   0  0  2  0  0  0  0  0  0  0  0  0
    6.7801  -16.8543   21.8917 N   0  0  0  0  0  0  0  0  0  0  0  0
    9.0527  -16.7164   22.7823 C   0  0  0  0  0  0  0  0  0  0  0  0
    8.6116  -17.2875   23.8213 O   0  0  0  0  0  0  0  0  0  0  0  0
   10.4491  -16.6096   22.6866 N   0  0  0  0  0  0  0  0  0  0  0  0
   11.3805  -17.0650   23.6754 C   0  0  1  0  0  0  0  0  0  0  0  0
   12.7898  -16.9451   23.1693 C   0  0  0  0  0  0  0  0  0  0  0  0
   13.0114  -17.6038   21.8612 C   0  0  0  0  0  0  0  0  0  0  0  0
   13.6418  -17.0031   20.9351 O   0  0  0  0  0  0  0  0  0  0  0  0
   11.2731  -16.4322   24.9795 C   0  0  0  0  0  0  0  0  0  0  0  0
   11.1104  -15.2062   25.2095 O   0  0  0  0  0  0  0  0  0  0  0  0
   12.5745  -18.8783   21.5320 O   0  0  0  0  0  0  0  0  0  0  0  0
    7.7137  -11.3072   27.0626 O   0  0  0  0  0  0  0  0  0  0  0  0
    8.1314  -12.6492   27.1126 C   0  0  0  0  0  0  0  0  0  0  0  0
    7.6523  -13.5576   26.1938 C   0  0  0  0  0  0  0  0  0  0  0  0
    8.1037  -14.8572   26.3007 C   0  0  0  0  0  0  0  0  0  0  0  0
    8.9942  -15.2414   27.2788 C   0  0  0  0  0  0  0  0  0  0  0  0
    9.4306  -16.6356   27.3357 C   0  0  0  0  0  0  0  0  0  0  0  0
   10.9280  -16.8189   27.4453 C   0  0  2  0  0  0  0  0  0  0  0  0
   11.3602  -17.2835   26.1174 N   0  0  0  0  0  0  0  0  0  0  0  0
   11.3144  -17.8591   28.4314 C   0  0  0  0  0  0  0  0  0  0  0  0
   11.6353  -19.1559   28.0693 O   0  0  0  0  0  0  0  0  0  0  0  0
    9.4558  -14.3135   28.1827 C   0  0  0  0  0  0  0  0  0  0  0  0
    9.0192  -13.0177   28.0930 C   0  0  0  0  0  0  0  0  0  0  0  0
   11.3699  -17.6041   29.6781 O   0  0  0  0  0  0  0  0  0  0  0  0
  1  2  1  0
  2  3  1  0
  3  4  1  6
  5  6  1  1
  5  3  1  0
  7  8  2  0
  7  5  1  0
  9  7  1  0
 10  9  1  0
 10 11  1  6
 12 16  1  0
 12 11  1  0
 13 12  2  0
 14 24  1  0
 14 10  1  0
 15 14  2  0
 18 17  1  0
 19 18  2  0
 20 19  1  0
 21 27  1  0
 21 20  2  0
 22 21  1  0
 23 22  1  6
 23 24  1  0
 23 25  1  0
 25 26  1  0
 27 28  2  0
 28 18  1  0
 29 25  2  0
M  END
$$$$
