IDY.pdb
     RDKit          3D

 29 29  0  0  1  0  0  0  0  0999 V2000
    6.9865  -11.7764   19.7713 C   0  0  0  0  0  0  0  0  0  0  0  0
    6.9943  -13.2594   19.4938 C   0  0  0  0  0  0  0  0  0  0  0  0
    7.8638  -14.0371   20.4491 C   0  0  2  0  0  0  0  0  0  0  0  0
    9.2668  -13.4907   20.5188 C   0  0  0  0  0  0  0  0  0  0  0  0
    7.8240  -15.5087   20.1394 C   0  0  2  0  0  0  0  0  0  0  0  0
    6.5280  -16.0742   20.2433 N   0  0  0  0  0  0  0  0  0  0  0  0
    8.8905  -16.2292   20.8528 C   0  0  0  0  0  0  0  0  0  0  0  0
    8.5806  -16.7605   21.9583 O   0  0  0  0  0  0  0  0  0  0  0  0
   10.2230  -16.3957   20.4440 N   0  0  0  0  0  0  0  0  0  0  0  0
   11.2339  -17.0856   21.1889 C   0  0  1  0  0  0  0  0  0  0  0  0
   12.4793  -17.2484   20.3648 C   0  0  0  0  0  0  0  0  0  0  0  0
   13.5165  -18.0854   21.0111 C   0  0  0  0  0  0  0  0  0  0  0  0
   13.1963  -18.9421   21.8940 O   0  0  0  0  0  0  0  0  0  0  0  0
   11.5720  -16.5050   22.4777 C   0  0  0  0  0  0  0  0  0  0  0  0
   12.0987  -15.3809   22.6814 O   0  0  0  0  0  0  0  0  0  0  0  0
   14.8736  -18.0211   20.7319 O   0  0  0  0  0  0  0  0  0  0  0  0
   10.5106  -14.4394   30.8202 O   0  0  0  0  0  0  0  0  0  0  0  0
   10.4513  -14.8879   29.4884 C   0  0  0  0  0  0  0  0  0  0  0  0
   10.5521  -13.9876   28.4501 C   0  0  0  0  0  0  0  0  0  0  0  0
   10.4863  -14.4958   27.1690 C   0  0  0  0  0  0  0  0  0  0  0  0
   10.3269  -15.8423   26.9262 C   0  0  0  0  0  0  0  0  0  0  0  0
   10.2636  -16.3134   25.5436 C   0  0  0  0  0  0  0  0  0  0  0  0
   11.5863  -16.7852   24.9818 C   0  0  2  0  0  0  0  0  0  0  0  0
   11.2784  -17.2849   23.6322 N   0  0  0  0  0  0  0  0  0  0  0  0
   12.1758  -17.9091   25.7519 C   0  0  0  0  0  0  0  0  0  0  0  0
   13.1464  -17.7282   26.7220 O   0  0  0  0  0  0  0  0  0  0  0  0
   10.2289  -16.7182   27.9819 C   0  0  0  0  0  0  0  0  0  0  0  0
   10.2921  -16.2327   29.2618 C   0  0  0  0  0  0  0  0  0  0  0  0
   11.8110  -19.1132   25.5534 O   0  0  0  0  0  0  0  0  0  0  0  0
  1  2  1  0
  2  3  1  0
  3  4  1  6
  5  6  1  1
  5  3  1  0
  7  8  2  0
  7  5  1  0
  9  7  1  0
 10  9  1  0
 10 11  1  6
 12 16  1  0
 12 11  1  0
 13 12  2  0
 14 24  1  0
 14 10  1  0
 15 14  2  0
 18 17  1  0
 19 18  2  0
 20 19  1  0
 21 27  1  0
 21 20  2  0
 22 21  1  0
 23 22  1  1
 23 24  1  0
 23 25  1  0
 25 26  1  0
 27 28  2  0
 28 18  1  0
 29 25  2  0
M  END
$$$$
