IDY.pdb
     RDKit          3D

 29 29  0  0  1  0  0  0  0  0999 V2000
    5.7369  -12.0658   26.2588 C   0  0  0  0  0  0  0  0  0  0  0  0
    6.3566  -13.3078   26.8500 C   0  0  0  0  0  0  0  0  0  0  0  0
    7.3563  -13.9661   25.9331 C   0  0  2  0  0  0  0  0  0  0  0  0
    8.2098  -12.9613   25.2027 C   0  0  0  0  0  0  0  0  0  0  0  0
    6.6802  -14.9413   25.0084 C   0  0  2  0  0  0  0  0  0  0  0  0
    5.6886  -15.7302   25.6445 N   0  0  0  0  0  0  0  0  0  0  0  0
    7.6671  -15.6847   24.2090 C   0  0  0  0  0  0  0  0  0  0  0  0
    8.2539  -16.6497   24.7788 O   0  0  0  0  0  0  0  0  0  0  0  0
    8.0349  -15.4435   22.8759 N   0  0  0  0  0  0  0  0  0  0  0  0
    9.1922  -15.9863   22.2288 C   0  0  1  0  0  0  0  0  0  0  0  0
    9.2332  -15.5734   20.7851 C   0  0  0  0  0  0  0  0  0  0  0  0
    8.0350  -15.9793   20.0147 C   0  0  0  0  0  0  0  0  0  0  0  0
    7.5549  -17.1498   20.1379 O   0  0  0  0  0  0  0  0  0  0  0  0
   10.4659  -15.6847   22.8608 C   0  0  0  0  0  0  0  0  0  0  0  0
   11.0920  -14.5949   22.8084 O   0  0  0  0  0  0  0  0  0  0  0  0
    7.3513  -15.1636   19.1254 O   0  0  0  0  0  0  0  0  0  0  0  0
   11.4023  -15.2752   31.2362 O   0  0  0  0  0  0  0  0  0  0  0  0
   11.1465  -15.4786   29.8682 C   0  0  0  0  0  0  0  0  0  0  0  0
   10.9246  -16.7508   29.3876 C   0  0  0  0  0  0  0  0  0  0  0  0
   10.6797  -16.8781   28.0356 C   0  0  0  0  0  0  0  0  0  0  0  0
   10.6558  -15.7883   27.1934 C   0  0  0  0  0  0  0  0  0  0  0  0
   10.3914  -15.9946   25.7703 C   0  0  0  0  0  0  0  0  0  0  0  0
   11.5846  -16.4762   24.9753 C   0  0  2  0  0  0  0  0  0  0  0  0
   11.0713  -16.7268   23.6189 N   0  0  0  0  0  0  0  0  0  0  0  0
   12.1443  -17.7530   25.4853 C   0  0  0  0  0  0  0  0  0  0  0  0
   11.6581  -18.9920   25.1052 O   0  0  0  0  0  0  0  0  0  0  0  0
   10.8808  -14.5300   27.7005 C   0  0  0  0  0  0  0  0  0  0  0  0
   11.1257  -14.3831   29.0408 C   0  0  0  0  0  0  0  0  0  0  0  0
   13.1144  -17.7699   26.3106 O   0  0  0  0  0  0  0  0  0  0  0  0
  1  2  1  0
  2  3  1  0
  3  4  1  6
  5  6  1  1
  5  3  1  0
  7  8  2  0
  7  5  1  0
  9  7  1  0
 10  9  1  0
 10 11  1  6
 12 16  1  0
 12 11  1  0
 13 12  2  0
 14 24  1  0
 14 10  1  0
 15 14  2  0
 18 17  1  0
 19 18  2  0
 20 19  1  0
 21 27  1  0
 21 20  2  0
 22 21  1  0
 23 22  1  1
 23 24  1  0
 23 25  1  0
 25 26  1  0
 27 28  2  0
 28 18  1  0
 29 25  2  0
M  END
$$$$
