IDY.pdb
     RDKit          3D

 29 29  0  0  1  0  0  0  0  0999 V2000
    7.4955  -12.0013   18.7967 C   0  0  0  0  0  0  0  0  0  0  0  0
    7.8344  -13.4340   18.4669 C   0  0  0  0  0  0  0  0  0  0  0  0
    8.2357  -14.2420   19.6750 C   0  0  2  0  0  0  0  0  0  0  0  0
    9.3538  -13.5936   20.4503 C   0  0  0  0  0  0  0  0  0  0  0  0
    8.5359  -15.6666   19.2963 C   0  0  2  0  0  0  0  0  0  0  0  0
    7.4763  -16.3031   18.6019 N   0  0  0  0  0  0  0  0  0  0  0  0
    9.0860  -16.4137   20.4386 C   0  0  0  0  0  0  0  0  0  0  0  0
    8.2548  -16.8771   21.2720 O   0  0  0  0  0  0  0  0  0  0  0  0
   10.4384  -16.6728   20.7116 N   0  0  0  0  0  0  0  0  0  0  0  0
   10.9407  -17.2339   21.9305 C   0  0  1  0  0  0  0  0  0  0  0  0
   12.3365  -17.7544   21.7372 C   0  0  0  0  0  0  0  0  0  0  0  0
   12.8903  -18.4332   22.9315 C   0  0  0  0  0  0  0  0  0  0  0  0
   13.7703  -17.8613   23.6486 O   0  0  0  0  0  0  0  0  0  0  0  0
   10.9008  -16.3578   23.0896 C   0  0  0  0  0  0  0  0  0  0  0  0
   11.3418  -15.1818   23.1590 O   0  0  0  0  0  0  0  0  0  0  0  0
   12.5228  -19.6984   23.3651 O   0  0  0  0  0  0  0  0  0  0  0  0
    6.1113  -11.4167   27.8522 O   0  0  0  0  0  0  0  0  0  0  0  0
    6.7511  -12.3781   27.0493 C   0  0  0  0  0  0  0  0  0  0  0  0
    8.1049  -12.2882   26.8085 C   0  0  0  0  0  0  0  0  0  0  0  0
    8.6679  -13.2648   26.0126 C   0  0  0  0  0  0  0  0  0  0  0  0
    7.9194  -14.2894   25.4766 C   0  0  0  0  0  0  0  0  0  0  0  0
    8.5795  -15.2907   24.6404 C   0  0  0  0  0  0  0  0  0  0  0  0
    9.7511  -15.9834   25.3003 C   0  0  2  0  0  0  0  0  0  0  0  0
   10.3015  -16.8799   24.2709 N   0  0  0  0  0  0  0  0  0  0  0  0
    9.3518  -16.8226   26.4579 C   0  0  0  0  0  0  0  0  0  0  0  0
    9.3163  -16.3443   27.7563 O   0  0  0  0  0  0  0  0  0  0  0  0
    6.5699  -14.3542   25.7335 C   0  0  0  0  0  0  0  0  0  0  0  0
    5.9923  -13.3936   26.5218 C   0  0  0  0  0  0  0  0  0  0  0  0
    9.0176  -18.0426   26.3095 O   0  0  0  0  0  0  0  0  0  0  0  0
  1  2  1  0
  2  3  1  0
  3  4  1  6
  5  6  1  1
  5  3  1  0
  7  8  2  0
  7  5  1  0
  9  7  1  0
 10  9  1  0
 10 11  1  6
 12 16  1  0
 12 11  1  0
 13 12  2  0
 14 24  1  0
 14 10  1  0
 15 14  2  0
 18 17  1  0
 19 18  2  0
 20 19  1  0
 21 27  1  0
 21 20  2  0
 22 21  1  0
 23 22  1  6
 23 24  1  0
 23 25  1  0
 25 26  1  0
 27 28  2  0
 28 18  1  0
 29 25  2  0
M  END
$$$$
