IDY.pdb
     RDKit          3D

 29 29  0  0  1  0  0  0  0  0999 V2000
    7.6225  -12.0557   18.3574 C   0  0  0  0  0  0  0  0  0  0  0  0
    7.9197  -13.5235   18.1750 C   0  0  0  0  0  0  0  0  0  0  0  0
    8.3150  -14.2125   19.4566 C   0  0  2  0  0  0  0  0  0  0  0  0
    9.4563  -13.5153   20.1516 C   0  0  0  0  0  0  0  0  0  0  0  0
    8.5778  -15.6754   19.2242 C   0  0  2  0  0  0  0  0  0  0  0  0
    7.5193  -16.3417   18.5566 N   0  0  0  0  0  0  0  0  0  0  0  0
    9.0657  -16.3272   20.4500 C   0  0  0  0  0  0  0  0  0  0  0  0
    8.1906  -16.7720   21.2479 O   0  0  0  0  0  0  0  0  0  0  0  0
   10.4018  -16.5133   20.8385 N   0  0  0  0  0  0  0  0  0  0  0  0
   10.8307  -17.2513   21.9892 C   0  0  1  0  0  0  0  0  0  0  0  0
   12.1850  -17.8572   21.7542 C   0  0  0  0  0  0  0  0  0  0  0  0
   12.6308  -18.7602   22.8404 C   0  0  0  0  0  0  0  0  0  0  0  0
   13.3095  -19.8018   22.5755 O   0  0  0  0  0  0  0  0  0  0  0  0
   10.8341  -16.5159   23.2429 C   0  0  0  0  0  0  0  0  0  0  0  0
   11.4920  -15.4758   23.5029 O   0  0  0  0  0  0  0  0  0  0  0  0
   12.3649  -18.5694   24.1882 O   0  0  0  0  0  0  0  0  0  0  0  0
    6.1797  -11.7047   28.4554 O   0  0  0  0  0  0  0  0  0  0  0  0
    6.7540  -12.6128   27.5480 C   0  0  0  0  0  0  0  0  0  0  0  0
    8.0070  -12.3718   27.0276 C   0  0  0  0  0  0  0  0  0  0  0  0
    8.5101  -13.3039   26.1432 C   0  0  0  0  0  0  0  0  0  0  0  0
    7.8002  -14.4298   25.7885 C   0  0  0  0  0  0  0  0  0  0  0  0
    8.3924  -15.3764   24.8447 C   0  0  0  0  0  0  0  0  0  0  0  0
    9.5697  -16.1524   25.3919 C   0  0  2  0  0  0  0  0  0  0  0  0
   10.0089  -17.0206   24.2877 N   0  0  0  0  0  0  0  0  0  0  0  0
    9.2065  -17.0289   26.5336 C   0  0  0  0  0  0  0  0  0  0  0  0
    9.4328  -16.6772   27.8530 O   0  0  0  0  0  0  0  0  0  0  0  0
    6.5516  -14.6448   26.3234 C   0  0  0  0  0  0  0  0  0  0  0  0
    6.0347  -13.7305   27.2037 C   0  0  0  0  0  0  0  0  0  0  0  0
    8.6607  -18.1651   26.3508 O   0  0  0  0  0  0  0  0  0  0  0  0
  1  2  1  0
  2  3  1  0
  3  4  1  6
  5  6  1  1
  5  3  1  0
  7  8  2  0
  7  5  1  0
  9  7  1  0
 10  9  1  0
 10 11  1  6
 12 16  1  0
 12 11  1  0
 13 12  2  0
 14 24  1  0
 14 10  1  0
 15 14  2  0
 18 17  1  0
 19 18  2  0
 20 19  1  0
 21 27  1  0
 21 20  2  0
 22 21  1  0
 23 22  1  6
 23 24  1  0
 23 25  1  0
 25 26  1  0
 27 28  2  0
 28 18  1  0
 29 25  2  0
M  END
$$$$
