IDY.pdb
     RDKit          3D

 29 29  0  0  1  0  0  0  0  0999 V2000
    7.8660  -12.1068   21.0318 C   0  0  0  0  0  0  0  0  0  0  0  0
    7.7453  -13.6059   20.9112 C   0  0  0  0  0  0  0  0  0  0  0  0
    8.0873  -14.1198   19.5355 C   0  0  2  0  0  0  0  0  0  0  0  0
    7.3405  -13.3877   18.4501 C   0  0  0  0  0  0  0  0  0  0  0  0
    7.9160  -15.6124   19.4588 C   0  0  2  0  0  0  0  0  0  0  0  0
    6.5652  -16.0328   19.5529 N   0  0  0  0  0  0  0  0  0  0  0  0
    8.8592  -16.3006   20.3544 C   0  0  0  0  0  0  0  0  0  0  0  0
    8.4237  -16.6375   21.4933 O   0  0  0  0  0  0  0  0  0  0  0  0
   10.1978  -16.6285   20.0876 N   0  0  0  0  0  0  0  0  0  0  0  0
   11.1052  -17.2182   21.0266 C   0  0  1  0  0  0  0  0  0  0  0  0
   12.4177  -17.5329   20.3673 C   0  0  0  0  0  0  0  0  0  0  0  0
   13.2991  -18.4034   21.1794 C   0  0  0  0  0  0  0  0  0  0  0  0
   14.5577  -18.2252   21.1809 O   0  0  0  0  0  0  0  0  0  0  0  0
   11.3379  -16.4544   22.2411 C   0  0  0  0  0  0  0  0  0  0  0  0
   11.5729  -15.2212   22.3207 O   0  0  0  0  0  0  0  0  0  0  0  0
   12.8613  -19.4485   21.9792 O   0  0  0  0  0  0  0  0  0  0  0  0
   10.3177  -14.2925   30.6130 O   0  0  0  0  0  0  0  0  0  0  0  0
   10.2887  -14.8342   29.3154 C   0  0  0  0  0  0  0  0  0  0  0  0
   10.4599  -16.1884   29.1271 C   0  0  0  0  0  0  0  0  0  0  0  0
   10.4200  -16.6523   27.8281 C   0  0  0  0  0  0  0  0  0  0  0  0
   10.2186  -15.8081   26.7585 C   0  0  0  0  0  0  0  0  0  0  0  0
   10.1887  -16.3661   25.4074 C   0  0  0  0  0  0  0  0  0  0  0  0
   11.5461  -16.4921   24.7520 C   0  0  2  0  0  0  0  0  0  0  0  0
   11.2965  -17.1715   23.4705 N   0  0  0  0  0  0  0  0  0  0  0  0
   12.4896  -17.3344   25.5292 C   0  0  0  0  0  0  0  0  0  0  0  0
   12.4214  -18.7167   25.5496 O   0  0  0  0  0  0  0  0  0  0  0  0
   10.0507  -14.4606   26.9759 C   0  0  0  0  0  0  0  0  0  0  0  0
   10.0871  -13.9807   28.2590 C   0  0  0  0  0  0  0  0  0  0  0  0
   13.4219  -16.8171   26.2259 O   0  0  0  0  0  0  0  0  0  0  0  0
  1  2  1  0
  2  3  1  0
  3  4  1  6
  5  6  1  1
  5  3  1  0
  7  8  2  0
  7  5  1  0
  9  7  1  0
 10  9  1  0
 10 11  1  6
 12 16  1  0
 12 11  1  0
 13 12  2  0
 14 24  1  0
 14 10  1  0
 15 14  2  0
 18 17  1  0
 19 18  2  0
 20 19  1  0
 21 27  1  0
 21 20  2  0
 22 21  1  0
 23 22  1  1
 23 24  1  0
 23 25  1  0
 25 26  1  0
 27 28  2  0
 28 18  1  0
 29 25  2  0
M  END
$$$$
