IDY.pdb
     RDKit          3D

 29 29  0  0  1  0  0  0  0  0999 V2000
    7.7786  -11.7613   19.3609 C   0  0  0  0  0  0  0  0  0  0  0  0
    7.5396  -13.2482   19.2706 C   0  0  0  0  0  0  0  0  0  0  0  0
    7.8823  -13.9824   20.5422 C   0  0  2  0  0  0  0  0  0  0  0  0
    9.2471  -13.6138   21.0647 C   0  0  0  0  0  0  0  0  0  0  0  0
    7.7014  -15.4664   20.3743 C   0  0  2  0  0  0  0  0  0  0  0  0
    6.3931  -15.8352   19.9712 N   0  0  0  0  0  0  0  0  0  0  0  0
    8.2404  -16.2000   21.5306 C   0  0  0  0  0  0  0  0  0  0  0  0
    7.4349  -16.4534   22.4725 O   0  0  0  0  0  0  0  0  0  0  0  0
    9.5565  -16.6542   21.7094 N   0  0  0  0  0  0  0  0  0  0  0  0
   10.0205  -17.4161   22.8306 C   0  0  1  0  0  0  0  0  0  0  0  0
   11.3380  -18.0668   22.5188 C   0  0  0  0  0  0  0  0  0  0  0  0
   11.8089  -18.9948   23.5729 C   0  0  0  0  0  0  0  0  0  0  0  0
   12.7525  -18.6572   24.3549 O   0  0  0  0  0  0  0  0  0  0  0  0
   10.1175  -16.6914   24.0868 C   0  0  0  0  0  0  0  0  0  0  0  0
   10.7534  -15.6259   24.2933 O   0  0  0  0  0  0  0  0  0  0  0  0
   11.2935  -20.2621   23.8005 O   0  0  0  0  0  0  0  0  0  0  0  0
    6.5283  -11.0650   26.0767 O   0  0  0  0  0  0  0  0  0  0  0  0
    6.9535  -12.3842   26.3158 C   0  0  0  0  0  0  0  0  0  0  0  0
    8.1794  -12.6209   26.8989 C   0  0  0  0  0  0  0  0  0  0  0  0
    8.5335  -13.9386   27.1047 C   0  0  0  0  0  0  0  0  0  0  0  0
    7.7060  -14.9801   26.7471 C   0  0  0  0  0  0  0  0  0  0  0  0
    8.1439  -16.3533   26.9926 C   0  0  0  0  0  0  0  0  0  0  0  0
    9.5575  -16.6494   26.5432 C   0  0  2  0  0  0  0  0  0  0  0  0
    9.4224  -17.2398   25.2018 N   0  0  0  0  0  0  0  0  0  0  0  0
   10.2432  -17.6457   27.4040 C   0  0  0  0  0  0  0  0  0  0  0  0
   10.6956  -17.3527   28.6789 O   0  0  0  0  0  0  0  0  0  0  0  0
    6.4879  -14.7145   26.1667 C   0  0  0  0  0  0  0  0  0  0  0  0
    6.1183  -13.4121   25.9541 C   0  0  0  0  0  0  0  0  0  0  0  0
   10.4516  -18.8369   27.0041 O   0  0  0  0  0  0  0  0  0  0  0  0
  1  2  1  0
  2  3  1  0
  3  4  1  6
  5  6  1  1
  5  3  1  0
  7  8  2  0
  7  5  1  0
  9  7  1  0
 10  9  1  0
 10 11  1  6
 12 16  1  0
 12 11  1  0
 13 12  2  0
 14 24  1  0
 14 10  1  0
 15 14  2  0
 18 17  1  0
 19 18  2  0
 20 19  1  0
 21 27  1  0
 21 20  2  0
 22 21  1  0
 23 22  1  1
 23 24  1  0
 23 25  1  0
 25 26  1  0
 27 28  2  0
 28 18  1  0
 29 25  2  0
M  END
$$$$
