IDY.pdb
     RDKit          3D

 29 29  0  0  1  0  0  0  0  0999 V2000
    7.1764  -11.9210   19.4272 C   0  0  0  0  0  0  0  0  0  0  0  0
    7.4659  -13.3765   19.1557 C   0  0  0  0  0  0  0  0  0  0  0  0
    7.8771  -14.1398   20.3893 C   0  0  2  0  0  0  0  0  0  0  0  0
    9.0474  -13.5014   21.0925 C   0  0  0  0  0  0  0  0  0  0  0  0
    8.1058  -15.5928   20.0739 C   0  0  2  0  0  0  0  0  0  0  0  0
    6.9884  -16.2240   19.4714 N   0  0  0  0  0  0  0  0  0  0  0  0
    8.6900  -16.2992   21.2252 C   0  0  0  0  0  0  0  0  0  0  0  0
    7.8821  -16.7649   22.0799 O   0  0  0  0  0  0  0  0  0  0  0  0
   10.0521  -16.5169   21.4856 N   0  0  0  0  0  0  0  0  0  0  0  0
   10.5760  -17.1534   22.6574 C   0  0  1  0  0  0  0  0  0  0  0  0
   12.0355  -17.4634   22.4830 C   0  0  0  0  0  0  0  0  0  0  0  0
   12.6012  -18.2990   23.5673 C   0  0  0  0  0  0  0  0  0  0  0  0
   13.8327  -18.2148   23.8708 O   0  0  0  0  0  0  0  0  0  0  0  0
   10.3733  -16.4376   23.9061 C   0  0  0  0  0  0  0  0  0  0  0  0
   10.5182  -15.2027   24.0971 O   0  0  0  0  0  0  0  0  0  0  0  0
   11.8799  -19.2121   24.3220 O   0  0  0  0  0  0  0  0  0  0  0  0
    6.5721  -10.8929   26.7178 O   0  0  0  0  0  0  0  0  0  0  0  0
    6.9196  -12.2442   26.5404 C   0  0  0  0  0  0  0  0  0  0  0  0
    5.9798  -13.1472   26.0928 C   0  0  0  0  0  0  0  0  0  0  0  0
    6.3885  -14.4563   25.9409 C   0  0  0  0  0  0  0  0  0  0  0  0
    7.6768  -14.8550   26.2214 C   0  0  0  0  0  0  0  0  0  0  0  0
    8.0428  -16.2588   26.0396 C   0  0  0  0  0  0  0  0  0  0  0  0
    9.5074  -16.5588   26.2692 C   0  0  2  0  0  0  0  0  0  0  0  0
    9.9687  -17.2092   25.0322 N   0  0  0  0  0  0  0  0  0  0  0  0
    9.7367  -17.5085   27.3869 C   0  0  0  0  0  0  0  0  0  0  0  0
   10.2025  -18.7976   27.1944 O   0  0  0  0  0  0  0  0  0  0  0  0
    8.5941  -13.9322   26.6669 C   0  0  0  0  0  0  0  0  0  0  0  0
    8.2073  -12.6270   26.8240 C   0  0  0  0  0  0  0  0  0  0  0  0
    9.5120  -17.1773   28.5961 O   0  0  0  0  0  0  0  0  0  0  0  0
  1  2  1  0
  2  3  1  0
  3  4  1  6
  5  6  1  1
  5  3  1  0
  7  8  2  0
  7  5  1  0
  9  7  1  0
 10  9  1  0
 10 11  1  6
 12 16  1  0
 12 11  1  0
 13 12  2  0
 14 24  1  0
 14 10  1  0
 15 14  2  0
 18 17  1  0
 19 18  2  0
 20 19  1  0
 21 27  1  0
 21 20  2  0
 22 21  1  0
 23 22  1  6
 23 24  1  0
 23 25  1  0
 25 26  1  0
 27 28  2  0
 28 18  1  0
 29 25  2  0
M  END
$$$$
