IDY.pdb
     RDKit          3D

 29 29  0  0  1  0  0  0  0  0999 V2000
    8.4492  -12.2879   19.7704 C   0  0  0  0  0  0  0  0  0  0  0  0
    8.8825  -13.7227   19.5978 C   0  0  0  0  0  0  0  0  0  0  0  0
    7.7256  -14.6867   19.5219 C   0  0  2  0  0  0  0  0  0  0  0  0
    6.7515  -14.5007   20.6570 C   0  0  0  0  0  0  0  0  0  0  0  0
    8.2118  -16.1046   19.3949 C   0  0  2  0  0  0  0  0  0  0  0  0
    7.2106  -17.0096   18.9604 N   0  0  0  0  0  0  0  0  0  0  0  0
    8.9640  -16.5159   20.5910 C   0  0  0  0  0  0  0  0  0  0  0  0
    8.2865  -16.8321   21.6114 O   0  0  0  0  0  0  0  0  0  0  0  0
   10.3584  -16.5980   20.7304 N   0  0  0  0  0  0  0  0  0  0  0  0
   11.0477  -16.9314   21.9413 C   0  0  1  0  0  0  0  0  0  0  0  0
   12.5116  -17.1393   21.6763 C   0  0  0  0  0  0  0  0  0  0  0  0
   12.7891  -17.9714   20.4827 C   0  0  0  0  0  0  0  0  0  0  0  0
   12.3671  -19.1687   20.4188 O   0  0  0  0  0  0  0  0  0  0  0  0
   10.8770  -15.9957   23.0404 C   0  0  0  0  0  0  0  0  0  0  0  0
   11.1465  -14.7671   23.0308 O   0  0  0  0  0  0  0  0  0  0  0  0
   13.5024  -17.5486   19.3709 O   0  0  0  0  0  0  0  0  0  0  0  0
    5.7409  -11.2447   27.6090 O   0  0  0  0  0  0  0  0  0  0  0  0
    6.4832  -12.1487   26.8281 C   0  0  0  0  0  0  0  0  0  0  0  0
    7.7562  -11.8220   26.4139 C   0  0  0  0  0  0  0  0  0  0  0  0
    8.4277  -12.7552   25.6508 C   0  0  0  0  0  0  0  0  0  0  0  0
    7.8605  -13.9637   25.3116 C   0  0  0  0  0  0  0  0  0  0  0  0
    8.6276  -14.9065   24.4990 C   0  0  0  0  0  0  0  0  0  0  0  0
    9.7198  -15.6356   25.2495 C   0  0  2  0  0  0  0  0  0  0  0  0
   10.3505  -16.5188   24.2555 N   0  0  0  0  0  0  0  0  0  0  0  0
    9.1989  -16.4929   26.3439 C   0  0  0  0  0  0  0  0  0  0  0  0
    9.3015  -16.1501   27.6809 O   0  0  0  0  0  0  0  0  0  0  0  0
    6.5881  -14.2633   25.7387 C   0  0  0  0  0  0  0  0  0  0  0  0
    5.9050  -13.3494   26.4977 C   0  0  0  0  0  0  0  0  0  0  0  0
    8.6236  -17.6029   26.1009 O   0  0  0  0  0  0  0  0  0  0  0  0
  1  2  1  0
  2  3  1  0
  3  4  1  1
  5  6  1  1
  5  3  1  0
  7  8  2  0
  7  5  1  0
  9  7  1  0
 10  9  1  0
 10 11  1  6
 12 16  1  0
 12 11  1  0
 13 12  2  0
 14 24  1  0
 14 10  1  0
 15 14  2  0
 18 17  1  0
 19 18  2  0
 20 19  1  0
 21 27  1  0
 21 20  2  0
 22 21  1  0
 23 22  1  6
 23 24  1  0
 23 25  1  0
 25 26  1  0
 27 28  2  0
 28 18  1  0
 29 25  2  0
M  END
$$$$
