IDY.pdb
     RDKit          3D

 29 29  0  0  1  0  0  0  0  0999 V2000
    8.5321  -11.8659   22.0551 C   0  0  0  0  0  0  0  0  0  0  0  0
    7.9453  -13.2516   21.9476 C   0  0  0  0  0  0  0  0  0  0  0  0
    8.3893  -13.9896   20.7100 C   0  0  2  0  0  0  0  0  0  0  0  0
    8.1083  -13.2124   19.4497 C   0  0  0  0  0  0  0  0  0  0  0  0
    7.8197  -15.3816   20.6780 C   0  0  2  0  0  0  0  0  0  0  0  0
    6.4200  -15.4156   20.4545 N   0  0  0  0  0  0  0  0  0  0  0  0
    8.3002  -16.1769   21.8192 C   0  0  0  0  0  0  0  0  0  0  0  0
    7.4382  -16.5225   22.6782 O   0  0  0  0  0  0  0  0  0  0  0  0
    9.6160  -16.5993   22.0656 N   0  0  0  0  0  0  0  0  0  0  0  0
   10.0352  -17.3743   23.1954 C   0  0  1  0  0  0  0  0  0  0  0  0
   11.1742  -18.2797   22.8222 C   0  0  0  0  0  0  0  0  0  0  0  0
   11.3949  -19.3866   23.7815 C   0  0  0  0  0  0  0  0  0  0  0  0
   10.5570  -19.6116   24.7106 O   0  0  0  0  0  0  0  0  0  0  0  0
   10.3828  -16.6150   24.3851 C   0  0  0  0  0  0  0  0  0  0  0  0
   11.1324  -15.6064   24.4412 O   0  0  0  0  0  0  0  0  0  0  0  0
   12.4840  -20.2451   23.7634 O   0  0  0  0  0  0  0  0  0  0  0  0
    5.8914  -11.6579   25.2800 O   0  0  0  0  0  0  0  0  0  0  0  0
    6.5607  -12.7787   25.8034 C   0  0  0  0  0  0  0  0  0  0  0  0
    6.1154  -14.0494   25.5106 C   0  0  0  0  0  0  0  0  0  0  0  0
    6.8188  -15.1033   26.0571 C   0  0  0  0  0  0  0  0  0  0  0  0
    7.9194  -14.9060   26.8616 C   0  0  0  0  0  0  0  0  0  0  0  0
    8.6179  -16.0679   27.4090 C   0  0  0  0  0  0  0  0  0  0  0  0
   10.0089  -16.2807   26.8544 C   0  0  2  0  0  0  0  0  0  0  0  0
    9.8189  -17.0538   25.6166 N   0  0  0  0  0  0  0  0  0  0  0  0
   10.8759  -17.0820   27.7543 C   0  0  0  0  0  0  0  0  0  0  0  0
   11.4653  -16.5590   28.8922 O   0  0  0  0  0  0  0  0  0  0  0  0
    8.3415  -13.6266   27.1373 C   0  0  0  0  0  0  0  0  0  0  0  0
    7.6560  -12.5667   26.6037 C   0  0  0  0  0  0  0  0  0  0  0  0
   11.1231  -18.3091   27.5185 O   0  0  0  0  0  0  0  0  0  0  0  0
  1  2  1  0
  2  3  1  0
  3  4  1  6
  5  6  1  1
  5  3  1  0
  7  8  2  0
  7  5  1  0
  9  7  1  0
 10  9  1  0
 10 11  1  6
 12 16  1  0
 12 11  1  0
 13 12  2  0
 14 24  1  0
 14 10  1  0
 15 14  2  0
 18 17  1  0
 19 18  2  0
 20 19  1  0
 21 27  1  0
 21 20  2  0
 22 21  1  0
 23 22  1  1
 23 24  1  0
 23 25  1  0
 25 26  1  0
 27 28  2  0
 28 18  1  0
 29 25  2  0
M  END
$$$$
