IDY.pdb
     RDKit          3D

 29 29  0  0  1  0  0  0  0  0999 V2000
    6.6019  -12.2258   20.1181 C   0  0  0  0  0  0  0  0  0  0  0  0
    7.1924  -13.5710   19.7750 C   0  0  0  0  0  0  0  0  0  0  0  0
    7.7168  -14.3130   20.9783 C   0  0  2  0  0  0  0  0  0  0  0  0
    8.6574  -13.4721   21.8029 C   0  0  0  0  0  0  0  0  0  0  0  0
    8.3117  -15.6360   20.5798 C   0  0  2  0  0  0  0  0  0  0  0  0
    7.4606  -16.4139   19.7547 N   0  0  0  0  0  0  0  0  0  0  0  0
    8.8789  -16.3342   21.7445 C   0  0  0  0  0  0  0  0  0  0  0  0
    8.0660  -16.9486   22.4941 O   0  0  0  0  0  0  0  0  0  0  0  0
   10.2295  -16.3968   22.1219 N   0  0  0  0  0  0  0  0  0  0  0  0
   10.7402  -17.1358   23.2381 C   0  0  1  0  0  0  0  0  0  0  0  0
   12.1357  -17.6170   22.9597 C   0  0  0  0  0  0  0  0  0  0  0  0
   12.2553  -18.4111   21.7151 C   0  0  0  0  0  0  0  0  0  0  0  0
   11.4720  -19.3878   21.4953 O   0  0  0  0  0  0  0  0  0  0  0  0
   10.7059  -16.4469   24.5174 C   0  0  0  0  0  0  0  0  0  0  0  0
   11.3110  -15.3854   24.8166 O   0  0  0  0  0  0  0  0  0  0  0  0
   13.1881  -18.1805   20.7149 O   0  0  0  0  0  0  0  0  0  0  0  0
    6.7048  -11.1383   25.8557 O   0  0  0  0  0  0  0  0  0  0  0  0
    7.1742  -12.4104   26.2295 C   0  0  0  0  0  0  0  0  0  0  0  0
    8.2490  -12.5276   27.0839 C   0  0  0  0  0  0  0  0  0  0  0  0
    8.6570  -13.8050   27.4090 C   0  0  0  0  0  0  0  0  0  0  0  0
    8.0254  -14.9217   26.9076 C   0  0  0  0  0  0  0  0  0  0  0  0
    8.5102  -16.2463   27.2922 C   0  0  0  0  0  0  0  0  0  0  0  0
    9.9510  -16.5179   26.9204 C   0  0  2  0  0  0  0  0  0  0  0  0
    9.9059  -17.0294   25.5412 N   0  0  0  0  0  0  0  0  0  0  0  0
   10.5810  -17.5633   27.7654 C   0  0  0  0  0  0  0  0  0  0  0  0
   11.0210  -17.3228   29.0555 O   0  0  0  0  0  0  0  0  0  0  0  0
    6.9551  -14.7749   26.0566 C   0  0  0  0  0  0  0  0  0  0  0  0
    6.5349  -13.5143   25.7218 C   0  0  0  0  0  0  0  0  0  0  0  0
   10.7496  -18.7508   27.3367 O   0  0  0  0  0  0  0  0  0  0  0  0
  1  2  1  0
  2  3  1  0
  3  4  1  6
  5  6  1  1
  5  3  1  0
  7  8  2  0
  7  5  1  0
  9  7  1  0
 10  9  1  0
 10 11  1  6
 12 16  1  0
 12 11  1  0
 13 12  2  0
 14 24  1  0
 14 10  1  0
 15 14  2  0
 18 17  1  0
 19 18  2  0
 20 19  1  0
 21 27  1  0
 21 20  2  0
 22 21  1  0
 23 22  1  1
 23 24  1  0
 23 25  1  0
 25 26  1  0
 27 28  2  0
 28 18  1  0
 29 25  2  0
M  END
$$$$
