IDY.pdb
     RDKit          3D

 29 29  0  0  1  0  0  0  0  0999 V2000
    5.9961  -12.8463   20.2620 C   0  0  0  0  0  0  0  0  0  0  0  0
    6.8674  -13.9978   19.8249 C   0  0  0  0  0  0  0  0  0  0  0  0
    7.5525  -14.6930   20.9742 C   0  0  2  0  0  0  0  0  0  0  0  0
    8.3049  -13.7308   21.8573 C   0  0  0  0  0  0  0  0  0  0  0  0
    8.4082  -15.8294   20.4850 C   0  0  2  0  0  0  0  0  0  0  0  0
    7.7154  -16.7400   19.6477 N   0  0  0  0  0  0  0  0  0  0  0  0
    9.1676  -16.4348   21.5906 C   0  0  0  0  0  0  0  0  0  0  0  0
    8.7943  -17.5785   21.9814 O   0  0  0  0  0  0  0  0  0  0  0  0
   10.2675  -15.8838   22.2668 N   0  0  0  0  0  0  0  0  0  0  0  0
   11.1235  -16.5973   23.1673 C   0  0  1  0  0  0  0  0  0  0  0  0
   12.4405  -15.8904   23.3167 C   0  0  0  0  0  0  0  0  0  0  0  0
   13.4344  -16.6441   24.1154 C   0  0  0  0  0  0  0  0  0  0  0  0
   13.4337  -17.9153   24.1130 O   0  0  0  0  0  0  0  0  0  0  0  0
   10.5647  -16.8741   24.4802 C   0  0  0  0  0  0  0  0  0  0  0  0
   11.1595  -17.4019   25.4548 O   0  0  0  0  0  0  0  0  0  0  0  0
   14.4162  -16.0671   24.9071 O   0  0  0  0  0  0  0  0  0  0  0  0
    7.4765  -10.5417   26.6999 O   0  0  0  0  0  0  0  0  0  0  0  0
    7.3873  -11.9292   26.4877 C   0  0  0  0  0  0  0  0  0  0  0  0
    6.2625  -12.4685   25.9021 C   0  0  0  0  0  0  0  0  0  0  0  0
    6.2416  -13.8366   25.7236 C   0  0  0  0  0  0  0  0  0  0  0  0
    7.2930  -14.6383   26.1098 C   0  0  0  0  0  0  0  0  0  0  0  0
    7.2047  -16.0814   25.8924 C   0  0  0  0  0  0  0  0  0  0  0  0
    8.5295  -16.8076   25.9644 C   0  0  2  0  0  0  0  0  0  0  0  0
    9.2037  -16.5119   24.6901 N   0  0  0  0  0  0  0  0  0  0  0  0
    8.3788  -18.2814   26.0599 C   0  0  0  0  0  0  0  0  0  0  0  0
    8.8604  -19.1503   25.0961 O   0  0  0  0  0  0  0  0  0  0  0  0
    8.4032  -14.0729   26.6920 C   0  0  0  0  0  0  0  0  0  0  0  0
    8.4429  -12.7157   26.8778 C   0  0  0  0  0  0  0  0  0  0  0  0
    7.7892  -18.8256   27.0491 O   0  0  0  0  0  0  0  0  0  0  0  0
  1  2  1  0
  2  3  1  0
  3  4  1  6
  5  6  1  1
  5  3  1  0
  7  8  2  0
  7  5  1  0
  9  7  1  0
 10  9  1  0
 10 11  1  1
 12 16  1  0
 12 11  1  0
 13 12  2  0
 14 24  1  0
 14 10  1  0
 15 14  2  0
 18 17  1  0
 19 18  2  0
 20 19  1  0
 21 27  1  0
 21 20  2  0
 22 21  1  0
 23 22  1  6
 23 24  1  0
 23 25  1  0
 25 26  1  0
 27 28  2  0
 28 18  1  0
 29 25  2  0
M  END
$$$$
