IDY.pdb
     RDKit          3D

 29 29  0  0  1  0  0  0  0  0999 V2000
    7.3519  -11.9810   20.0745 C   0  0  0  0  0  0  0  0  0  0  0  0
    7.9853  -12.9546   19.1117 C   0  0  0  0  0  0  0  0  0  0  0  0
    8.3578  -14.2669   19.7541 C   0  0  2  0  0  0  0  0  0  0  0  0
    9.2729  -14.0842   20.9376 C   0  0  0  0  0  0  0  0  0  0  0  0
    8.9035  -15.2307   18.7360 C   0  0  2  0  0  0  0  0  0  0  0  0
    8.2942  -15.1128   17.4613 N   0  0  0  0  0  0  0  0  0  0  0  0
    8.9738  -16.5952   19.2827 C   0  0  0  0  0  0  0  0  0  0  0  0
    8.6464  -17.5392   18.5069 O   0  0  0  0  0  0  0  0  0  0  0  0
    9.3657  -16.9721   20.5768 N   0  0  0  0  0  0  0  0  0  0  0  0
   10.6157  -17.5858   20.9139 C   0  0  1  0  0  0  0  0  0  0  0  0
   11.6430  -17.3105   19.8531 C   0  0  0  0  0  0  0  0  0  0  0  0
   11.7195  -18.3599   18.8106 C   0  0  0  0  0  0  0  0  0  0  0  0
   11.4008  -19.5607   19.0795 O   0  0  0  0  0  0  0  0  0  0  0  0
   11.1545  -17.2403   22.2188 C   0  0  0  0  0  0  0  0  0  0  0  0
   12.2977  -17.5248   22.6598 O   0  0  0  0  0  0  0  0  0  0  0  0
   12.1271  -18.1481   17.5019 O   0  0  0  0  0  0  0  0  0  0  0  0
   10.1794  -14.1576   30.4722 O   0  0  0  0  0  0  0  0  0  0  0  0
   10.0481  -14.4599   29.1049 C   0  0  0  0  0  0  0  0  0  0  0  0
   10.2661  -15.7445   28.6564 C   0  0  0  0  0  0  0  0  0  0  0  0
   10.1199  -15.9709   27.3031 C   0  0  0  0  0  0  0  0  0  0  0  0
    9.7717  -14.9648   26.4291 C   0  0  0  0  0  0  0  0  0  0  0  0
    9.6350  -15.2737   25.0066 C   0  0  0  0  0  0  0  0  0  0  0  0
   10.7548  -16.1170   24.4387 C   0  0  2  0  0  0  0  0  0  0  0  0
   10.3046  -16.5034   23.0918 N   0  0  0  0  0  0  0  0  0  0  0  0
   10.9888  -17.3649   25.2079 C   0  0  0  0  0  0  0  0  0  0  0  0
   12.0034  -17.4941   26.1404 O   0  0  0  0  0  0  0  0  0  0  0  0
    9.5603  -13.6918   26.9046 C   0  0  0  0  0  0  0  0  0  0  0  0
    9.7006  -13.4470   28.2456 C   0  0  0  0  0  0  0  0  0  0  0  0
   10.2552  -18.3932   25.0438 O   0  0  0  0  0  0  0  0  0  0  0  0
  1  2  1  0
  2  3  1  0
  3  4  1  1
  5  6  1  6
  5  3  1  0
  7  8  2  0
  7  5  1  0
  9  7  1  0
 10  9  1  0
 10 11  1  6
 12 16  1  0
 12 11  1  0
 13 12  2  0
 14 24  1  0
 14 10  1  0
 15 14  2  0
 18 17  1  0
 19 18  2  0
 20 19  1  0
 21 27  1  0
 21 20  2  0
 22 21  1  0
 23 22  1  1
 23 24  1  0
 23 25  1  0
 25 26  1  0
 27 28  2  0
 28 18  1  0
 29 25  2  0
M  END
$$$$
