RKG.pdb
     RDKit          3D

 25 24  0  0  1  0  0  0  0  0999 V2000
   28.9119  -22.0405  -15.8353 N   0  0  0  0  0  0  0  0  0  0  0  0
   28.3174  -20.9900  -16.6244 C   0  0  0  0  0  0  0  0  0  0  0  0
   28.3165  -21.0538  -17.9090 N   0  0  0  0  0  0  0  0  0  0  0  0
   27.7203  -19.8629  -16.0030 N   0  0  0  0  0  0  0  0  0  0  0  0
   27.7286  -19.7045  -14.5831 C   0  0  0  0  0  0  0  0  0  0  0  0
   26.4060  -19.3910  -13.9635 C   0  0  0  0  0  0  0  0  0  0  0  0
   25.4666  -20.5709  -13.9711 C   0  0  0  0  0  0  0  0  0  0  0  0
   24.1428  -20.2708  -14.6054 C   0  0  2  0  0  0  0  0  0  0  0  0
   23.8281  -18.8790  -14.7200 N   0  0  0  0  0  0  0  0  0  0  0  0
   23.0371  -21.0629  -13.9988 C   0  0  0  0  0  0  0  0  0  0  0  0
   23.1887  -22.3069  -13.8988 O   0  0  0  0  0  0  0  0  0  0  0  0
   27.9465  -20.2397  -18.4490 N   0  0  0  0  0  0  0  0  0  0  0  0
   21.8410  -20.5033  -13.5347 C   0  0  1  0  0  0  0  0  0  0  0  0
   20.6954  -21.3124  -13.1049 C   0  0  0  0  0  0  0  0  0  0  0  0
   20.2392  -20.7053  -11.7974 C   0  0  0  0  0  0  0  0  0  0  0  0
   19.0378  -21.3956  -11.2023 C   0  0  0  0  0  0  0  0  0  0  0  0
   19.5662  -22.5594  -10.3662 C   0  0  0  0  0  0  0  0  0  0  0  0
   18.4288  -23.4352   -9.8859 N   0  0  0  0  0  0  0  0  0  0  0  0
   18.8569  -24.4968   -9.0230 C   0  0  0  0  0  0  0  0  0  0  0  0
   19.6682  -21.2236  -14.1719 O   0  0  0  0  0  0  0  0  0  0  0  0
   19.5404  -20.1650  -14.8376 N   0  0  0  0  0  0  0  0  0  0  0  0
   18.8189  -22.3109  -14.4636 C   0  0  0  0  0  0  0  0  0  0  0  0
   17.7865  -22.2881  -15.4610 C   0  0  0  0  0  0  0  0  0  0  0  0
   16.5074  -21.7769  -14.9640 O   0  0  0  0  0  0  0  0  0  0  0  0
   16.4227  -21.3542  -13.7867 O   0  0  0  0  0  0  0  0  0  0  0  0
  1  2  1  0
  2  3  2  0
  4  2  1  0
  4  5  1  0
  6  5  1  0
  6  7  1  0
  7  8  1  0
  8  9  1  1
 10  8  1  0
 11 10  2  0
 12 10  1  0
 13 19  1  0
 13 12  1  0
 13 14  1  6
 15 14  1  0
 16 15  1  0
 17 16  1  0
 18 17  1  0
 19 21  1  0
 20 19  2  0
 21 22  1  0
 22 23  1  0
 23 24  2  0
 23 25  1  0
M  END
$$$$
