RKG.pdb
     RDKit          3D

 25 24  0  0  1  0  0  0  0  0999 V2000
   24.2863  -24.7117  -16.0825 N   0  0  0  0  0  0  0  0  0  0  0  0
   25.1040  -23.6165  -15.6226 C   0  0  0  0  0  0  0  0  0  0  0  0
   26.3365  -23.5225  -15.9785 N   0  0  0  0  0  0  0  0  0  0  0  0
   24.5691  -22.6184  -14.7679 N   0  0  0  0  0  0  0  0  0  0  0  0
   23.3101  -22.7938  -14.1156 C   0  0  0  0  0  0  0  0  0  0  0  0
   22.1194  -22.8342  -15.0167 C   0  0  0  0  0  0  0  0  0  0  0  0
   20.8246  -23.0010  -14.2614 C   0  0  0  0  0  0  0  0  0  0  0  0
   20.7702  -24.2581  -13.4481 C   0  0  2  0  0  0  0  0  0  0  0  0
   21.0410  -25.4615  -14.1748 N   0  0  0  0  0  0  0  0  0  0  0  0
   19.5273  -24.3457  -12.6323 C   0  0  0  0  0  0  0  0  0  0  0  0
   18.4540  -24.6305  -13.2216 O   0  0  0  0  0  0  0  0  0  0  0  0
   26.9106  -22.7419  -15.5883 N   0  0  0  0  0  0  0  0  0  0  0  0
   19.4853  -24.1292  -11.2501 C   0  0  2  0  0  0  0  0  0  0  0  0
   18.2510  -24.2291  -10.4638 C   0  0  0  0  0  0  0  0  0  0  0  0
   18.6890  -24.6256   -9.0720 C   0  0  0  0  0  0  0  0  0  0  0  0
   17.5413  -24.8064   -8.1106 C   0  0  0  0  0  0  0  0  0  0  0  0
   18.1513  -25.1638   -6.7568 C   0  0  0  0  0  0  0  0  0  0  0  0
   17.0759  -25.2836   -5.6983 N   0  0  0  0  0  0  0  0  0  0  0  0
   17.5807  -25.6982   -4.4223 C   0  0  0  0  0  0  0  0  0  0  0  0
   17.5933  -22.8997  -10.5052 O   0  0  0  0  0  0  0  0  0  0  0  0
   18.2883  -21.8540  -10.5649 N   0  0  0  0  0  0  0  0  0  0  0  0
   16.1888  -22.7760  -10.4790 C   0  0  0  0  0  0  0  0  0  0  0  0
   15.4403  -21.8629  -11.2957 C   0  0  0  0  0  0  0  0  0  0  0  0
   14.5004  -22.5272  -12.2011 O   0  0  0  0  0  0  0  0  0  0  0  0
   13.7509  -21.8384  -12.9330 O   0  0  0  0  0  0  0  0  0  0  0  0
  1  2  1  0
  2  3  2  0
  4  2  1  0
  4  5  1  0
  6  5  1  0
  6  7  1  0
  7  8  1  0
  8  9  1  6
 10  8  1  0
 11 10  2  0
 12 10  1  0
 13 19  1  0
 13 12  1  0
 13 14  1  6
 15 14  1  0
 16 15  1  0
 17 16  1  0
 18 17  1  0
 19 21  1  0
 20 19  2  0
 21 22  1  0
 22 23  1  0
 23 24  2  0
 23 25  1  0
M  END
$$$$
