RKG.pdb
     RDKit          3D

 25 24  0  0  1  0  0  0  0  0999 V2000
   24.7649  -20.5301   -9.0900 N   0  0  0  0  0  0  0  0  0  0  0  0
   26.0457  -20.7675   -9.7091 C   0  0  0  0  0  0  0  0  0  0  0  0
   27.1364  -20.5893   -9.0510 N   0  0  0  0  0  0  0  0  0  0  0  0
   26.1325  -21.2025  -11.0567 N   0  0  0  0  0  0  0  0  0  0  0  0
   27.2865  -20.9303  -11.8537 C   0  0  0  0  0  0  0  0  0  0  0  0
   27.1019  -19.9032  -12.9225 C   0  0  0  0  0  0  0  0  0  0  0  0
   26.0002  -20.2611  -13.8883 C   0  0  0  0  0  0  0  0  0  0  0  0
   26.3689  -21.3721  -14.8234 C   0  0  2  0  0  0  0  0  0  0  0  0
   27.3065  -21.0171  -15.8454 N   0  0  0  0  0  0  0  0  0  0  0  0
   25.1708  -22.0750  -15.3604 C   0  0  0  0  0  0  0  0  0  0  0  0
   24.6509  -21.6320  -16.4158 O   0  0  0  0  0  0  0  0  0  0  0  0
   28.0412  -20.5972   -9.5728 N   0  0  0  0  0  0  0  0  0  0  0  0
   24.5910  -23.1979  -14.7586 C   0  0  2  0  0  0  0  0  0  0  0  0
   23.4211  -23.8865  -15.3146 C   0  0  0  0  0  0  0  0  0  0  0  0
   23.5119  -25.3092  -14.8106 C   0  0  0  0  0  0  0  0  0  0  0  0
   22.3576  -26.1754  -15.2482 C   0  0  0  0  0  0  0  0  0  0  0  0
   22.9585  -27.4675  -15.7980 C   0  0  0  0  0  0  0  0  0  0  0  0
   21.8754  -28.3743  -16.3417 N   0  0  0  0  0  0  0  0  0  0  0  0
   22.3788  -29.6169  -16.8490 C   0  0  0  0  0  0  0  0  0  0  0  0
   22.2158  -23.1753  -14.8216 O   0  0  0  0  0  0  0  0  0  0  0  0
   22.1776  -22.7419  -13.6424 N   0  0  0  0  0  0  0  0  0  0  0  0
   21.0953  -22.9697  -15.6529 C   0  0  0  0  0  0  0  0  0  0  0  0
   19.9401  -22.2028  -15.2809 C   0  0  0  0  0  0  0  0  0  0  0  0
   19.0401  -22.9105  -14.3679 O   0  0  0  0  0  0  0  0  0  0  0  0
   19.2679  -24.1082  -14.0756 O   0  0  0  0  0  0  0  0  0  0  0  0
  1  2  1  0
  2  3  2  0
  4  2  1  0
  4  5  1  0
  6  5  1  0
  6  7  1  0
  7  8  1  0
  8  9  1  6
 10  8  1  0
 11 10  2  0
 12 10  1  0
 13 19  1  0
 13 12  1  0
 13 14  1  6
 15 14  1  0
 16 15  1  0
 17 16  1  0
 18 17  1  0
 19 21  1  0
 20 19  2  0
 21 22  1  0
 22 23  1  0
 23 24  2  0
 23 25  1  0
M  END
$$$$
