RKG.pdb
     RDKit          3D

 25 24  0  0  1  0  0  0  0  0999 V2000
   28.1629  -21.5204  -16.6003 N   0  0  0  0  0  0  0  0  0  0  0  0
   28.1013  -22.8750  -16.1094 C   0  0  0  0  0  0  0  0  0  0  0  0
   28.9872  -23.7404  -16.4568 N   0  0  0  0  0  0  0  0  0  0  0  0
   27.0635  -23.2844  -15.2329 N   0  0  0  0  0  0  0  0  0  0  0  0
   25.9574  -22.4293  -14.9385 C   0  0  0  0  0  0  0  0  0  0  0  0
   26.2690  -21.2486  -14.0781 C   0  0  0  0  0  0  0  0  0  0  0  0
   25.0412  -20.4471  -13.7245 C   0  0  0  0  0  0  0  0  0  0  0  0
   24.2419  -20.0280  -14.9204 C   0  0  2  0  0  0  0  0  0  0  0  0
   24.9228  -19.1550  -15.8280 N   0  0  0  0  0  0  0  0  0  0  0  0
   22.8904  -19.5276  -14.5450 C   0  0  0  0  0  0  0  0  0  0  0  0
   22.8174  -18.4420  -13.9152 O   0  0  0  0  0  0  0  0  0  0  0  0
   28.8978  -24.7176  -16.0987 N   0  0  0  0  0  0  0  0  0  0  0  0
   21.6990  -20.1951  -14.8520 C   0  0  2  0  0  0  0  0  0  0  0  0
   20.3778  -19.6880  -14.4660 C   0  0  0  0  0  0  0  0  0  0  0  0
   19.5950  -19.5764  -15.7548 C   0  0  0  0  0  0  0  0  0  0  0  0
   19.6798  -18.2122  -16.3920 C   0  0  0  0  0  0  0  0  0  0  0  0
   20.7026  -18.3152  -17.5216 C   0  0  0  0  0  0  0  0  0  0  0  0
   20.8914  -16.9746  -18.1987 N   0  0  0  0  0  0  0  0  0  0  0  0
   21.8150  -17.0184  -19.2940 C   0  0  0  0  0  0  0  0  0  0  0  0
   19.7906  -20.6657  -13.5168 O   0  0  0  0  0  0  0  0  0  0  0  0
   20.1583  -21.8675  -13.5417 N   0  0  0  0  0  0  0  0  0  0  0  0
   18.8167  -20.2772  -12.5738 C   0  0  0  0  0  0  0  0  0  0  0  0
   18.1884  -21.1711  -11.6426 C   0  0  0  0  0  0  0  0  0  0  0  0
   17.4399  -22.2523  -12.2870 O   0  0  0  0  0  0  0  0  0  0  0  0
   17.7376  -23.4453  -12.0425 O   0  0  0  0  0  0  0  0  0  0  0  0
  1  2  1  0
  2  3  2  0
  4  2  1  0
  4  5  1  0
  6  5  1  0
  6  7  1  0
  7  8  1  0
  8  9  1  1
 10  8  1  0
 11 10  2  0
 12 10  1  0
 13 19  1  0
 13 12  1  0
 13 14  1  1
 15 14  1  0
 16 15  1  0
 17 16  1  0
 18 17  1  0
 19 21  1  0
 20 19  2  0
 21 22  1  0
 22 23  1  0
 23 24  2  0
 23 25  1  0
M  END
$$$$
