RKG.pdb
     RDKit          3D

 25 24  0  0  1  0  0  0  0  0999 V2000
   32.5989  -22.9430   -9.8504 N   0  0  0  0  0  0  0  0  0  0  0  0
   31.5022  -22.0067   -9.8705 C   0  0  0  0  0  0  0  0  0  0  0  0
   31.0333  -21.5209   -8.7757 N   0  0  0  0  0  0  0  0  0  0  0  0
   30.9155  -21.6001  -11.0966 N   0  0  0  0  0  0  0  0  0  0  0  0
   29.6450  -20.9478  -11.1335 C   0  0  0  0  0  0  0  0  0  0  0  0
   28.4788  -21.8288  -11.4419 C   0  0  0  0  0  0  0  0  0  0  0  0
   27.1683  -21.0823  -11.4331 C   0  0  0  0  0  0  0  0  0  0  0  0
   25.9980  -21.9341  -11.8202 C   0  0  2  0  0  0  0  0  0  0  0  0
   26.2383  -23.3450  -11.7851 N   0  0  0  0  0  0  0  0  0  0  0  0
   25.3769  -21.4876  -13.0980 C   0  0  0  0  0  0  0  0  0  0  0  0
   25.7270  -22.0662  -14.1577 O   0  0  0  0  0  0  0  0  0  0  0  0
   30.2863  -20.7930   -8.8322 N   0  0  0  0  0  0  0  0  0  0  0  0
   24.4279  -20.4625  -13.1869 C   0  0  2  0  0  0  0  0  0  0  0  0
   23.8203  -20.0454  -14.4552 C   0  0  0  0  0  0  0  0  0  0  0  0
   22.3945  -19.6724  -14.1173 C   0  0  0  0  0  0  0  0  0  0  0  0
   21.4978  -20.8651  -13.8997 C   0  0  0  0  0  0  0  0  0  0  0  0
   20.1044  -20.3201  -13.5930 C   0  0  0  0  0  0  0  0  0  0  0  0
   19.1141  -21.4502  -13.4108 N   0  0  0  0  0  0  0  0  0  0  0  0
   17.7857  -20.9977  -13.1184 C   0  0  0  0  0  0  0  0  0  0  0  0
   24.6111  -18.8988  -14.9667 O   0  0  0  0  0  0  0  0  0  0  0  0
   25.0838  -18.0522  -14.1669 N   0  0  0  0  0  0  0  0  0  0  0  0
   24.8501  -18.7310  -16.3463 C   0  0  0  0  0  0  0  0  0  0  0  0
   25.6956  -17.7138  -16.9045 C   0  0  0  0  0  0  0  0  0  0  0  0
   25.8195  -17.7940  -18.3615 O   0  0  0  0  0  0  0  0  0  0  0  0
   26.5336  -16.9628  -18.9707 O   0  0  0  0  0  0  0  0  0  0  0  0
  1  2  1  0
  2  3  2  0
  4  2  1  0
  4  5  1  0
  6  5  1  0
  6  7  1  0
  7  8  1  0
  8  9  1  6
 10  8  1  0
 11 10  2  0
 12 10  1  0
 13 19  1  0
 13 12  1  0
 13 14  1  6
 15 14  1  0
 16 15  1  0
 17 16  1  0
 18 17  1  0
 19 21  1  0
 20 19  2  0
 21 22  1  0
 22 23  1  0
 23 24  2  0
 23 25  1  0
M  END
$$$$
