RKG.pdb
     RDKit          3D

 25 24  0  0  1  0  0  0  0  0999 V2000
   18.6972  -24.4584   -8.4384 N   0  0  0  0  0  0  0  0  0  0  0  0
   18.1663  -25.4895   -9.2954 C   0  0  0  0  0  0  0  0  0  0  0  0
   17.5616  -26.5101   -8.7981 N   0  0  0  0  0  0  0  0  0  0  0  0
   18.2983  -25.4027  -10.7054 N   0  0  0  0  0  0  0  0  0  0  0  0
   19.0127  -24.3296  -11.3213 C   0  0  0  0  0  0  0  0  0  0  0  0
   18.1774  -23.1757  -11.7709 C   0  0  0  0  0  0  0  0  0  0  0  0
   18.9937  -22.0843  -12.4167 C   0  0  0  0  0  0  0  0  0  0  0  0
   20.1189  -21.5969  -11.5558 C   0  0  2  0  0  0  0  0  0  0  0  0
   19.7174  -20.9619  -10.3372 N   0  0  0  0  0  0  0  0  0  0  0  0
   21.1070  -20.7918  -12.3260 C   0  0  0  0  0  0  0  0  0  0  0  0
   21.1446  -19.5519  -12.1220 O   0  0  0  0  0  0  0  0  0  0  0  0
   17.2682  -27.2789   -9.4414 N   0  0  0  0  0  0  0  0  0  0  0  0
   21.9943  -21.3349  -13.2625 C   0  0  2  0  0  0  0  0  0  0  0  0
   23.0061  -20.5345  -13.9608 C   0  0  0  0  0  0  0  0  0  0  0  0
   24.1036  -21.5056  -14.3333 C   0  0  0  0  0  0  0  0  0  0  0  0
   25.2636  -20.8557  -15.0448 C   0  0  0  0  0  0  0  0  0  0  0  0
   26.3154  -21.9424  -15.2587 C   0  0  0  0  0  0  0  0  0  0  0  0
   27.5048  -21.3959  -16.0188 N   0  0  0  0  0  0  0  0  0  0  0  0
   28.5972  -22.3203  -16.1019 C   0  0  0  0  0  0  0  0  0  0  0  0
   22.3478  -19.9263  -15.1432 O   0  0  0  0  0  0  0  0  0  0  0  0
   21.4735  -20.5686  -15.7781 N   0  0  0  0  0  0  0  0  0  0  0  0
   22.6815  -18.6277  -15.5804 C   0  0  0  0  0  0  0  0  0  0  0  0
   22.0109  -17.9330  -16.6428 C   0  0  0  0  0  0  0  0  0  0  0  0
   22.5421  -18.2469  -17.9708 O   0  0  0  0  0  0  0  0  0  0  0  0
   23.4800  -19.0708  -18.0858 O   0  0  0  0  0  0  0  0  0  0  0  0
  1  2  1  0
  2  3  2  0
  4  2  1  0
  4  5  1  0
  6  5  1  0
  6  7  1  0
  7  8  1  0
  8  9  1  1
 10  8  1  0
 11 10  2  0
 12 10  1  0
 13 19  1  0
 13 12  1  0
 13 14  1  1
 15 14  1  0
 16 15  1  0
 17 16  1  0
 18 17  1  0
 19 21  1  0
 20 19  2  0
 21 22  1  0
 22 23  1  0
 23 24  2  0
 23 25  1  0
M  END
$$$$
