RKG.pdb
     RDKit          3D

 25 24  0  0  1  0  0  0  0  0999 V2000
   20.3700  -16.5882  -15.9226 N   0  0  0  0  0  0  0  0  0  0  0  0
   19.5327  -16.2722  -17.0535 C   0  0  0  0  0  0  0  0  0  0  0  0
   19.4590  -17.0702  -18.0595 N   0  0  0  0  0  0  0  0  0  0  0  0
   18.7716  -15.0751  -17.0829 N   0  0  0  0  0  0  0  0  0  0  0  0
   19.1110  -13.9571  -16.2606 C   0  0  0  0  0  0  0  0  0  0  0  0
   18.2656  -12.7401  -16.4495 C   0  0  0  0  0  0  0  0  0  0  0  0
   18.6116  -11.6363  -15.4818 C   0  0  0  0  0  0  0  0  0  0  0  0
   17.4266  -10.8196  -15.0655 C   0  0  2  0  0  0  0  0  0  0  0  0
   16.1920  -11.1800  -15.6943 N   0  0  0  0  0  0  0  0  0  0  0  0
   17.7012   -9.3573  -15.1321 C   0  0  0  0  0  0  0  0  0  0  0  0
   17.8153   -8.8299  -16.2675 O   0  0  0  0  0  0  0  0  0  0  0  0
   18.7867  -16.8456  -18.8267 N   0  0  0  0  0  0  0  0  0  0  0  0
   17.8395   -8.5381  -14.0056 C   0  0  1  0  0  0  0  0  0  0  0  0
   18.0155   -7.0844  -14.0929 C   0  0  0  0  0  0  0  0  0  0  0  0
   16.8344   -6.4893  -13.3601 C   0  0  0  0  0  0  0  0  0  0  0  0
   15.5426   -6.5770  -14.1331 C   0  0  0  0  0  0  0  0  0  0  0  0
   14.4546   -5.9774  -13.2446 C   0  0  0  0  0  0  0  0  0  0  0  0
   13.0902   -6.1479  -13.8776 N   0  0  0  0  0  0  0  0  0  0  0  0
   12.0345   -5.5435  -13.1193 C   0  0  0  0  0  0  0  0  0  0  0  0
   19.3147   -6.7587  -13.4543 O   0  0  0  0  0  0  0  0  0  0  0  0
   19.6084   -7.2511  -12.3357 N   0  0  0  0  0  0  0  0  0  0  0  0
   20.2424   -5.8989  -14.0779 C   0  0  0  0  0  0  0  0  0  0  0  0
   21.5597   -5.6272  -13.5762 C   0  0  0  0  0  0  0  0  0  0  0  0
   22.2945   -4.6417  -14.3719 O   0  0  0  0  0  0  0  0  0  0  0  0
   21.8193   -4.2447  -15.4621 O   0  0  0  0  0  0  0  0  0  0  0  0
  1  2  1  0
  2  3  2  0
  4  2  1  0
  4  5  1  0
  6  5  1  0
  6  7  1  0
  7  8  1  0
  8  9  1  6
 10  8  1  0
 11 10  2  0
 12 10  1  0
 13 19  1  0
 13 12  1  0
 13 14  1  6
 15 14  1  0
 16 15  1  0
 17 16  1  0
 18 17  1  0
 19 21  1  0
 20 19  2  0
 21 22  1  0
 22 23  1  0
 23 24  2  0
 23 25  1  0
M  END
$$$$
