RKG.pdb
     RDKit          3D

 25 24  0  0  1  0  0  0  0  0999 V2000
   26.4714  -20.7541   -8.5659 N   0  0  0  0  0  0  0  0  0  0  0  0
   25.1518  -21.0279   -9.0791 C   0  0  0  0  0  0  0  0  0  0  0  0
   24.1062  -20.7575   -8.3805 N   0  0  0  0  0  0  0  0  0  0  0  0
   24.9761  -21.6011  -10.3650 N   0  0  0  0  0  0  0  0  0  0  0  0
   25.9458  -21.4214  -11.3987 C   0  0  0  0  0  0  0  0  0  0  0  0
   25.9487  -20.0775  -12.0508 C   0  0  0  0  0  0  0  0  0  0  0  0
   26.8962  -20.0019  -13.2218 C   0  0  0  0  0  0  0  0  0  0  0  0
   26.2878  -20.4705  -14.5082 C   0  0  2  0  0  0  0  0  0  0  0  0
   27.2009  -21.0932  -15.4182 N   0  0  0  0  0  0  0  0  0  0  0  0
   25.4603  -19.4148  -15.1553 C   0  0  0  0  0  0  0  0  0  0  0  0
   24.7153  -18.7171  -14.4215 O   0  0  0  0  0  0  0  0  0  0  0  0
   23.1661  -20.9090   -8.8098 N   0  0  0  0  0  0  0  0  0  0  0  0
   25.4640  -19.1555  -16.5308 C   0  0  1  0  0  0  0  0  0  0  0  0
   24.6239  -18.1252  -17.1508 C   0  0  0  0  0  0  0  0  0  0  0  0
   25.3710  -17.6856  -18.3897 C   0  0  0  0  0  0  0  0  0  0  0  0
   26.5291  -16.7651  -18.0968 C   0  0  0  0  0  0  0  0  0  0  0  0
   27.2022  -16.4629  -19.4341 C   0  0  0  0  0  0  0  0  0  0  0  0
   28.3066  -15.4424  -19.2606 N   0  0  0  0  0  0  0  0  0  0  0  0
   28.9433  -15.0817  -20.4932 C   0  0  0  0  0  0  0  0  0  0  0  0
   23.3140  -18.7508  -17.4583 O   0  0  0  0  0  0  0  0  0  0  0  0
   23.2531  -19.9688  -17.7629 N   0  0  0  0  0  0  0  0  0  0  0  0
   22.1181  -18.0047  -17.4174 C   0  0  0  0  0  0  0  0  0  0  0  0
   21.3617  -17.7508  -16.2239 C   0  0  0  0  0  0  0  0  0  0  0  0
   20.6619  -18.9323  -15.7152 O   0  0  0  0  0  0  0  0  0  0  0  0
   21.2139  -20.0562  -15.7784 O   0  0  0  0  0  0  0  0  0  0  0  0
  1  2  1  0
  2  3  2  0
  4  2  1  0
  4  5  1  0
  6  5  1  0
  6  7  1  0
  7  8  1  0
  8  9  1  6
 10  8  1  0
 11 10  2  0
 12 10  1  0
 13 19  1  0
 13 12  1  0
 13 14  1  6
 15 14  1  0
 16 15  1  0
 17 16  1  0
 18 17  1  0
 19 21  1  0
 20 19  2  0
 21 22  1  0
 22 23  1  0
 23 24  2  0
 23 25  1  0
M  END
$$$$
