RKG.pdb
     RDKit          3D

 25 24  0  0  1  0  0  0  0  0999 V2000
   27.2620  -21.0130  -13.5300 N   0  0  0  0  0  0  0  0  0  0  0  0
   26.1511  -21.7213  -12.9436 C   0  0  0  0  0  0  0  0  0  0  0  0
   25.7779  -21.4748  -11.7376 N   0  0  0  0  0  0  0  0  0  0  0  0
   25.4448  -22.7055  -13.6821 N   0  0  0  0  0  0  0  0  0  0  0  0
   25.8065  -23.0298  -15.0257 C   0  0  0  0  0  0  0  0  0  0  0  0
   25.1746  -22.1851  -16.0833 C   0  0  0  0  0  0  0  0  0  0  0  0
   23.6704  -22.2944  -16.0926 C   0  0  0  0  0  0  0  0  0  0  0  0
   22.9794  -20.9883  -15.8450 C   0  0  2  0  0  0  0  0  0  0  0  0
   23.6444  -20.1165  -14.9246 N   0  0  0  0  0  0  0  0  0  0  0  0
   21.5357  -21.1685  -15.5266 C   0  0  0  0  0  0  0  0  0  0  0  0
   20.9669  -22.2115  -15.9375 O   0  0  0  0  0  0  0  0  0  0  0  0
   24.9394  -21.9723  -11.3630 N   0  0  0  0  0  0  0  0  0  0  0  0
   20.7772  -20.2450  -14.7979 C   0  0  2  0  0  0  0  0  0  0  0  0
   19.3598  -20.4501  -14.4806 C   0  0  0  0  0  0  0  0  0  0  0  0
   19.3438  -21.2172  -13.1777 C   0  0  0  0  0  0  0  0  0  0  0  0
   18.5741  -22.5118  -13.2531 C   0  0  0  0  0  0  0  0  0  0  0  0
   18.7361  -23.2015  -11.9000 C   0  0  0  0  0  0  0  0  0  0  0  0
   18.0247  -24.5375  -11.8899 N   0  0  0  0  0  0  0  0  0  0  0  0
   18.1306  -25.2262  -10.6372 C   0  0  0  0  0  0  0  0  0  0  0  0
   18.7347  -19.1091  -14.3685 O   0  0  0  0  0  0  0  0  0  0  0  0
   19.3898  -18.1457  -13.8965 N   0  0  0  0  0  0  0  0  0  0  0  0
   17.4060  -18.8830  -14.7833 C   0  0  0  0  0  0  0  0  0  0  0  0
   16.7038  -19.6985  -15.7335 C   0  0  0  0  0  0  0  0  0  0  0  0
   15.3447  -19.2296  -16.0119 O   0  0  0  0  0  0  0  0  0  0  0  0
   14.6070  -19.8866  -16.7840 O   0  0  0  0  0  0  0  0  0  0  0  0
  1  2  1  0
  2  3  2  0
  4  2  1  0
  4  5  1  0
  6  5  1  0
  6  7  1  0
  7  8  1  0
  8  9  1  1
 10  8  1  0
 11 10  2  0
 12 10  1  0
 13 19  1  0
 13 12  1  0
 13 14  1  6
 15 14  1  0
 16 15  1  0
 17 16  1  0
 18 17  1  0
 19 21  1  0
 20 19  2  0
 21 22  1  0
 22 23  1  0
 23 24  2  0
 23 25  1  0
M  END
$$$$
