RKG.pdb
     RDKit          3D

 25 24  0  0  1  0  0  0  0  0999 V2000
   18.8922  -22.5535  -10.1764 N   0  0  0  0  0  0  0  0  0  0  0  0
   19.6358  -22.3834   -8.9525 C   0  0  0  0  0  0  0  0  0  0  0  0
   19.5251  -23.2332   -7.9933 N   0  0  0  0  0  0  0  0  0  0  0  0
   20.5056  -21.2763   -8.7780 N   0  0  0  0  0  0  0  0  0  0  0  0
   20.6685  -20.2896   -9.7984 C   0  0  0  0  0  0  0  0  0  0  0  0
   22.0788  -20.0126  -10.2054 C   0  0  0  0  0  0  0  0  0  0  0  0
   22.7842  -21.2387  -10.7286 C   0  0  0  0  0  0  0  0  0  0  0  0
   24.1868  -20.9684  -11.1806 C   0  0  2  0  0  0  0  0  0  0  0  0
   25.0570  -20.4429  -10.1726 N   0  0  0  0  0  0  0  0  0  0  0  0
   24.2276  -20.1808  -12.4439 C   0  0  0  0  0  0  0  0  0  0  0  0
   24.3500  -18.9327  -12.3570 O   0  0  0  0  0  0  0  0  0  0  0  0
   20.0326  -23.0461   -7.0997 N   0  0  0  0  0  0  0  0  0  0  0  0
   24.1374  -20.7491  -13.7199 C   0  0  2  0  0  0  0  0  0  0  0  0
   24.3224  -19.9759  -14.9527 C   0  0  0  0  0  0  0  0  0  0  0  0
   25.0120  -20.9130  -15.9183 C   0  0  0  0  0  0  0  0  0  0  0  0
   26.4719  -21.1275  -15.6069 C   0  0  0  0  0  0  0  0  0  0  0  0
   26.9946  -22.1449  -16.6191 C   0  0  0  0  0  0  0  0  0  0  0  0
   28.4732  -22.3954  -16.4137 N   0  0  0  0  0  0  0  0  0  0  0  0
   29.0050  -23.3975  -17.2900 C   0  0  0  0  0  0  0  0  0  0  0  0
   22.9765  -19.5572  -15.4164 O   0  0  0  0  0  0  0  0  0  0  0  0
   21.9942  -20.3295  -15.2799 N   0  0  0  0  0  0  0  0  0  0  0  0
   22.7667  -18.2977  -16.0149 C   0  0  0  0  0  0  0  0  0  0  0  0
   21.5133  -17.8578  -16.5593 C   0  0  0  0  0  0  0  0  0  0  0  0
   20.6753  -17.1466  -15.5917 O   0  0  0  0  0  0  0  0  0  0  0  0
   20.2790  -17.7385  -14.5600 O   0  0  0  0  0  0  0  0  0  0  0  0
  1  2  1  0
  2  3  2  0
  4  2  1  0
  4  5  1  0
  6  5  1  0
  6  7  1  0
  7  8  1  0
  8  9  1  1
 10  8  1  0
 11 10  2  0
 12 10  1  0
 13 19  1  0
 13 12  1  0
 13 14  1  1
 15 14  1  0
 16 15  1  0
 17 16  1  0
 18 17  1  0
 19 21  1  0
 20 19  2  0
 21 22  1  0
 22 23  1  0
 23 24  2  0
 23 25  1  0
M  END
$$$$
