RKG.pdb
     RDKit          3D

 25 24  0  0  1  0  0  0  0  0999 V2000
   18.4242  -22.6624  -14.0388 N   0  0  0  0  0  0  0  0  0  0  0  0
   18.6727  -24.0480  -13.7255 C   0  0  0  0  0  0  0  0  0  0  0  0
   17.7568  -24.7745  -13.1888 N   0  0  0  0  0  0  0  0  0  0  0  0
   19.9314  -24.6416  -14.0015 N   0  0  0  0  0  0  0  0  0  0  0  0
   20.9897  -23.8956  -14.6053 C   0  0  0  0  0  0  0  0  0  0  0  0
   20.9599  -23.8298  -16.0973 C   0  0  0  0  0  0  0  0  0  0  0  0
   22.3378  -23.8774  -16.7087 C   0  0  0  0  0  0  0  0  0  0  0  0
   23.3936  -24.3480  -15.7555 C   0  0  2  0  0  0  0  0  0  0  0  0
   23.5764  -23.5236  -14.5994 N   0  0  0  0  0  0  0  0  0  0  0  0
   24.6747  -24.6618  -16.4471 C   0  0  0  0  0  0  0  0  0  0  0  0
   24.6197  -25.2952  -17.5316 O   0  0  0  0  0  0  0  0  0  0  0  0
   17.9869  -25.7615  -12.9358 N   0  0  0  0  0  0  0  0  0  0  0  0
   25.9341  -24.2933  -15.9598 C   0  0  1  0  0  0  0  0  0  0  0  0
   27.1768  -24.5248  -16.7041 C   0  0  0  0  0  0  0  0  0  0  0  0
   28.0831  -23.3680  -16.3480 C   0  0  0  0  0  0  0  0  0  0  0  0
   27.8174  -22.1256  -17.1604 C   0  0  0  0  0  0  0  0  0  0  0  0
   27.4239  -21.0283  -16.1735 C   0  0  0  0  0  0  0  0  0  0  0  0
   27.1244  -19.7348  -16.9004 N   0  0  0  0  0  0  0  0  0  0  0  0
   26.7815  -18.6567  -16.0202 C   0  0  0  0  0  0  0  0  0  0  0  0
   27.7152  -25.8361  -16.2656 O   0  0  0  0  0  0  0  0  0  0  0  0
   27.2998  -26.3650  -15.2038 N   0  0  0  0  0  0  0  0  0  0  0  0
   28.6951  -26.5148  -17.0193 C   0  0  0  0  0  0  0  0  0  0  0  0
   29.2428  -27.7952  -16.6706 C   0  0  0  0  0  0  0  0  0  0  0  0
   30.1276  -28.3496  -17.6973 O   0  0  0  0  0  0  0  0  0  0  0  0
   30.2932  -27.7304  -18.7748 O   0  0  0  0  0  0  0  0  0  0  0  0
  1  2  1  0
  2  3  2  0
  4  2  1  0
  4  5  1  0
  6  5  1  0
  6  7  1  0
  7  8  1  0
  8  9  1  1
 10  8  1  0
 11 10  2  0
 12 10  1  0
 13 19  1  0
 13 12  1  0
 13 14  1  6
 15 14  1  0
 16 15  1  0
 17 16  1  0
 18 17  1  0
 19 21  1  0
 20 19  2  0
 21 22  1  0
 22 23  1  0
 23 24  2  0
 23 25  1  0
M  END
$$$$
