RKG.pdb
     RDKit          3D

 25 24  0  0  1  0  0  0  0  0999 V2000
   29.6269  -22.4434  -10.0316 N   0  0  0  0  0  0  0  0  0  0  0  0
   30.9086  -21.9846  -10.5076 C   0  0  0  0  0  0  0  0  0  0  0  0
   31.9960  -22.5439  -10.1086 N   0  0  0  0  0  0  0  0  0  0  0  0
   31.0000  -20.9071  -11.4260 N   0  0  0  0  0  0  0  0  0  0  0  0
   29.8629  -20.4637  -12.1688 C   0  0  0  0  0  0  0  0  0  0  0  0
   28.5406  -20.6745  -11.5068 C   0  0  0  0  0  0  0  0  0  0  0  0
   27.3868  -20.1802  -12.3429 C   0  0  0  0  0  0  0  0  0  0  0  0
   27.1413  -21.0112  -13.5652 C   0  0  2  0  0  0  0  0  0  0  0  0
   28.0890  -20.8275  -14.6224 N   0  0  0  0  0  0  0  0  0  0  0  0
   25.7308  -20.9176  -14.0338 C   0  0  0  0  0  0  0  0  0  0  0  0
   25.4803  -20.1555  -15.0017 O   0  0  0  0  0  0  0  0  0  0  0  0
   32.9070  -22.1663  -10.4531 N   0  0  0  0  0  0  0  0  0  0  0  0
   24.6699  -21.6275  -13.4595 C   0  0  2  0  0  0  0  0  0  0  0  0
   23.3002  -21.5769  -13.9822 C   0  0  0  0  0  0  0  0  0  0  0  0
   22.7289  -22.9581  -13.7539 C   0  0  0  0  0  0  0  0  0  0  0  0
   21.3214  -23.1181  -14.2710 C   0  0  0  0  0  0  0  0  0  0  0  0
   21.4189  -23.8876  -15.5867 C   0  0  0  0  0  0  0  0  0  0  0  0
   20.0478  -24.0822  -16.1976 N   0  0  0  0  0  0  0  0  0  0  0  0
   20.0891  -24.6521  -17.5123 C   0  0  0  0  0  0  0  0  0  0  0  0
   22.5793  -20.5222  -13.2276 O   0  0  0  0  0  0  0  0  0  0  0  0
   23.1490  -19.9233  -12.2806 N   0  0  0  0  0  0  0  0  0  0  0  0
   21.2526  -20.1684  -13.5491 C   0  0  0  0  0  0  0  0  0  0  0  0
   20.5217  -19.1058  -12.9184 C   0  0  0  0  0  0  0  0  0  0  0  0
   19.9414  -18.1540  -13.8680 O   0  0  0  0  0  0  0  0  0  0  0  0
   18.7066  -17.9378  -13.8546 O   0  0  0  0  0  0  0  0  0  0  0  0
  1  2  1  0
  2  3  2  0
  4  2  1  0
  4  5  1  0
  6  5  1  0
  6  7  1  0
  7  8  1  0
  8  9  1  6
 10  8  1  0
 11 10  2  0
 12 10  1  0
 13 19  1  0
 13 12  1  0
 13 14  1  6
 15 14  1  0
 16 15  1  0
 17 16  1  0
 18 17  1  0
 19 21  1  0
 20 19  2  0
 21 22  1  0
 22 23  1  0
 23 24  2  0
 23 25  1  0
M  END
$$$$
