RKG.pdb
     RDKit          3D

 25 24  0  0  1  0  0  0  0  0999 V2000
   31.2838  -22.6366  -12.2166 N   0  0  0  0  0  0  0  0  0  0  0  0
   31.6972  -22.0596  -10.9613 C   0  0  0  0  0  0  0  0  0  0  0  0
   32.6144  -22.6172  -10.2525 N   0  0  0  0  0  0  0  0  0  0  0  0
   31.1027  -20.8650  -10.4792 N   0  0  0  0  0  0  0  0  0  0  0  0
   29.9307  -20.3191  -11.0870 C   0  0  0  0  0  0  0  0  0  0  0  0
   28.6735  -21.0966  -10.8722 C   0  0  0  0  0  0  0  0  0  0  0  0
   27.4875  -20.4909  -11.5802 C   0  0  0  0  0  0  0  0  0  0  0  0
   26.1917  -21.1674  -11.2517 C   0  0  2  0  0  0  0  0  0  0  0  0
   26.2783  -22.5845  -11.0672 N   0  0  0  0  0  0  0  0  0  0  0  0
   25.1004  -20.7742  -12.1857 C   0  0  0  0  0  0  0  0  0  0  0  0
   24.9147  -19.5483  -12.3930 O   0  0  0  0  0  0  0  0  0  0  0  0
   32.8579  -22.1942   -9.3290 N   0  0  0  0  0  0  0  0  0  0  0  0
   24.2709  -21.6892  -12.8446 C   0  0  1  0  0  0  0  0  0  0  0  0
   23.2481  -21.2841  -13.8149 C   0  0  0  0  0  0  0  0  0  0  0  0
   23.2051  -22.3915  -14.8434 C   0  0  0  0  0  0  0  0  0  0  0  0
   24.4832  -22.5277  -15.6321 C   0  0  0  0  0  0  0  0  0  0  0  0
   24.6466  -21.2384  -16.4346 C   0  0  0  0  0  0  0  0  0  0  0  0
   25.9074  -21.2830  -17.2710 N   0  0  0  0  0  0  0  0  0  0  0  0
   26.1282  -20.0852  -18.0269 C   0  0  0  0  0  0  0  0  0  0  0  0
   21.9716  -21.1352  -13.0733 O   0  0  0  0  0  0  0  0  0  0  0  0
   21.8681  -21.5773  -11.9012 N   0  0  0  0  0  0  0  0  0  0  0  0
   20.8549  -20.5018  -13.6567 C   0  0  0  0  0  0  0  0  0  0  0  0
   19.6525  -20.1649  -12.9484 C   0  0  0  0  0  0  0  0  0  0  0  0
   18.6222  -19.5675  -13.8005 O   0  0  0  0  0  0  0  0  0  0  0  0
   18.9480  -18.7296  -14.6743 O   0  0  0  0  0  0  0  0  0  0  0  0
  1  2  1  0
  2  3  2  0
  4  2  1  0
  4  5  1  0
  6  5  1  0
  6  7  1  0
  7  8  1  0
  8  9  1  6
 10  8  1  0
 11 10  2  0
 12 10  1  0
 13 19  1  0
 13 12  1  0
 13 14  1  1
 15 14  1  0
 16 15  1  0
 17 16  1  0
 18 17  1  0
 19 21  1  0
 20 19  2  0
 21 22  1  0
 22 23  1  0
 23 24  2  0
 23 25  1  0
M  END
$$$$
