RKG.pdb
     RDKit          3D

 25 24  0  0  1  0  0  0  0  0999 V2000
   29.8478  -24.9971  -15.8127 N   0  0  0  0  0  0  0  0  0  0  0  0
   30.4511  -24.2253  -16.8710 C   0  0  0  0  0  0  0  0  0  0  0  0
   31.5194  -24.6370  -17.4574 N   0  0  0  0  0  0  0  0  0  0  0  0
   29.8812  -22.9953  -17.2897 N   0  0  0  0  0  0  0  0  0  0  0  0
   28.5213  -22.6679  -16.9990 C   0  0  0  0  0  0  0  0  0  0  0  0
   28.3223  -21.5318  -16.0498 C   0  0  0  0  0  0  0  0  0  0  0  0
   27.1822  -21.7684  -15.0912 C   0  0  0  0  0  0  0  0  0  0  0  0
   25.8375  -21.4831  -15.6870 C   0  0  2  0  0  0  0  0  0  0  0  0
   25.6972  -20.1832  -16.2702 N   0  0  0  0  0  0  0  0  0  0  0  0
   24.7270  -21.8178  -14.7528 C   0  0  0  0  0  0  0  0  0  0  0  0
   24.7498  -22.9405  -14.1878 O   0  0  0  0  0  0  0  0  0  0  0  0
   31.8843  -24.0920  -18.2703 N   0  0  0  0  0  0  0  0  0  0  0  0
   23.6612  -20.9561  -14.4685 C   0  0  1  0  0  0  0  0  0  0  0  0
   22.5375  -21.3346  -13.6049 C   0  0  0  0  0  0  0  0  0  0  0  0
   22.1559  -20.0741  -12.8620 C   0  0  0  0  0  0  0  0  0  0  0  0
   20.8892  -20.2133  -12.0556 C   0  0  0  0  0  0  0  0  0  0  0  0
   21.2696  -20.9140  -10.7529 C   0  0  0  0  0  0  0  0  0  0  0  0
   20.0582  -21.0841   -9.8613 N   0  0  0  0  0  0  0  0  0  0  0  0
   20.3641  -21.6930   -8.6002 C   0  0  0  0  0  0  0  0  0  0  0  0
   21.4539  -21.8357  -14.4860 O   0  0  0  0  0  0  0  0  0  0  0  0
   21.1808  -21.2330  -15.5547 N   0  0  0  0  0  0  0  0  0  0  0  0
   20.7112  -22.9869  -14.1516 C   0  0  0  0  0  0  0  0  0  0  0  0
   19.6084  -23.4914  -14.9200 C   0  0  0  0  0  0  0  0  0  0  0  0
   19.0314  -24.7212  -14.3731 O   0  0  0  0  0  0  0  0  0  0  0  0
   19.5114  -25.2215  -13.3285 O   0  0  0  0  0  0  0  0  0  0  0  0
  1  2  1  0
  2  3  2  0
  4  2  1  0
  4  5  1  0
  6  5  1  0
  6  7  1  0
  7  8  1  0
  8  9  1  1
 10  8  1  0
 11 10  2  0
 12 10  1  0
 13 19  1  0
 13 12  1  0
 13 14  1  6
 15 14  1  0
 16 15  1  0
 17 16  1  0
 18 17  1  0
 19 21  1  0
 20 19  2  0
 21 22  1  0
 22 23  1  0
 23 24  2  0
 23 25  1  0
M  END
$$$$
