RKG.pdb
     RDKit          3D

 25 24  0  0  1  0  0  0  0  0999 V2000
   27.0719  -33.9366  -14.7191 N   0  0  0  0  0  0  0  0  0  0  0  0
   28.3575  -34.5584  -14.9200 C   0  0  0  0  0  0  0  0  0  0  0  0
   28.7221  -35.5603  -14.2005 N   0  0  0  0  0  0  0  0  0  0  0  0
   29.2491  -34.0803  -15.9147 N   0  0  0  0  0  0  0  0  0  0  0  0
   28.8961  -32.9907  -16.7688 C   0  0  0  0  0  0  0  0  0  0  0  0
   29.4076  -31.6520  -16.3477 C   0  0  0  0  0  0  0  0  0  0  0  0
   28.2990  -30.6747  -16.0469 C   0  0  0  0  0  0  0  0  0  0  0  0
   27.6027  -30.1715  -17.2744 C   0  0  2  0  0  0  0  0  0  0  0  0
   28.3597  -29.2480  -18.0642 N   0  0  0  0  0  0  0  0  0  0  0  0
   26.2269  -29.6838  -16.9794 C   0  0  0  0  0  0  0  0  0  0  0  0
   25.5321  -30.3380  -16.1611 O   0  0  0  0  0  0  0  0  0  0  0  0
   29.6500  -36.0005  -14.3912 N   0  0  0  0  0  0  0  0  0  0  0  0
   25.6637  -28.5413  -17.5597 C   0  0  1  0  0  0  0  0  0  0  0  0
   24.3051  -28.0791  -17.2562 C   0  0  0  0  0  0  0  0  0  0  0  0
   24.2844  -26.6131  -17.6261 C   0  0  0  0  0  0  0  0  0  0  0  0
   24.9903  -25.7321  -16.6264 C   0  0  0  0  0  0  0  0  0  0  0  0
   26.0377  -24.9355  -17.4018 C   0  0  0  0  0  0  0  0  0  0  0  0
   26.8387  -24.0521  -16.4695 N   0  0  0  0  0  0  0  0  0  0  0  0
   27.8553  -23.2959  -17.1399 C   0  0  0  0  0  0  0  0  0  0  0  0
   23.3701  -28.8933  -18.0713 O   0  0  0  0  0  0  0  0  0  0  0  0
   23.7387  -29.3544  -19.1811 N   0  0  0  0  0  0  0  0  0  0  0  0
   22.0599  -29.1678  -17.6280 C   0  0  0  0  0  0  0  0  0  0  0  0
   21.1521  -30.0633  -18.2876 C   0  0  0  0  0  0  0  0  0  0  0  0
   20.6676  -29.5588  -19.5741 O   0  0  0  0  0  0  0  0  0  0  0  0
   19.8617  -30.2446  -20.2465 O   0  0  0  0  0  0  0  0  0  0  0  0
  1  2  1  0
  2  3  2  0
  4  2  1  0
  4  5  1  0
  6  5  1  0
  6  7  1  0
  7  8  1  0
  8  9  1  1
 10  8  1  0
 11 10  2  0
 12 10  1  0
 13 19  1  0
 13 12  1  0
 13 14  1  1
 15 14  1  0
 16 15  1  0
 17 16  1  0
 18 17  1  0
 19 21  1  0
 20 19  2  0
 21 22  1  0
 22 23  1  0
 23 24  2  0
 23 25  1  0
M  END
$$$$
