HGR.pdb
     RDKit          3D

 26 26  0  0  1  0  0  0  0  0999 V2000
   24.8795  -21.9578  -12.9913 N   0  0  0  0  0  0  0  0  0  0  0  0
   24.6980  -20.5649  -12.7317 C   0  0  1  0  0  0  0  0  0  0  0  0
   25.4915  -20.0246  -11.6048 C   0  0  0  0  0  0  0  0  0  0  0  0
   25.2038  -20.5626  -10.2920 C   0  0  0  0  0  0  0  0  0  0  0  0
   26.0567  -21.2317   -9.4495 C   0  0  0  0  0  0  0  0  0  0  0  0
   25.3993  -21.5637   -8.3266 N   0  0  0  0  0  0  0  0  0  0  0  0
   24.1304  -21.0976   -8.4729 C   0  0  0  0  0  0  0  0  0  0  0  0
   24.0165  -20.4900   -9.6690 N   0  0  0  0  0  0  0  0  0  0  0  0
   25.0935  -19.8160  -13.9720 C   0  0  0  0  0  0  0  0  0  0  0  0
   26.1994  -20.0214  -14.5363 O   0  0  0  0  0  0  0  0  0  0  0  0
   24.2425  -18.8450  -14.5649 N   0  0  0  0  0  0  0  0  0  0  0  0
   24.5738  -18.2850  -15.8615 C   0  0  0  0  0  0  0  0  0  0  0  0
   23.7895  -18.9230  -16.9477 C   0  0  0  0  0  0  0  0  0  0  0  0
   24.0566  -20.1035  -17.2931 O   0  0  0  0  0  0  0  0  0  0  0  0
   16.8317  -14.5282  -18.9898 N   0  0  0  0  0  0  0  0  0  0  0  0
   18.1140  -13.8989  -19.1438 C   0  0  0  0  0  0  0  0  0  0  0  0
   18.2439  -12.6410  -19.2845 N   0  0  0  0  0  0  0  0  0  0  0  0
   19.2608  -14.7318  -19.1353 N   0  0  0  0  0  0  0  0  0  0  0  0
   19.1655  -16.1686  -18.8821 C   0  0  0  0  0  0  0  0  0  0  0  0
   20.5233  -16.8160  -18.9113 C   0  0  0  0  0  0  0  0  0  0  0  0
   20.4578  -18.2654  -18.5172 C   0  0  0  0  0  0  0  0  0  0  0  0
   21.8416  -18.9058  -18.5460 C   0  0  2  0  0  0  0  0  0  0  0  0
   22.7393  -18.2657  -17.6285 N   0  0  0  0  0  0  0  0  0  0  0  0
   22.4239  -18.8433  -19.9158 C   0  0  0  0  0  0  0  0  0  0  0  0
   22.0017  -19.6622  -20.9546 O   0  0  0  0  0  0  0  0  0  0  0  0
   23.3443  -18.0192  -20.1757 O   0  0  0  0  0  0  0  0  0  0  0  0
  2  1  1  6
  3  2  1  0
  4  8  1  0
  4  3  1  0
  5  4  2  0
  6  5  1  0
  6  7  1  0
  7  8  2  0
  9  2  1  0
 10  9  2  0
 11  9  1  0
 12 11  1  0
 13 23  1  0
 13 12  1  0
 14 13  2  0
 16 15  1  0
 17 16  2  0
 18 16  1  0
 19 18  1  0
 20 19  1  0
 21 20  1  0
 22 21  1  6
 22 23  1  0
 24 25  1  0
 24 22  1  0
 26 24  2  0
M  END
$$$$
