HGR.pdb
     RDKit          3D

 26 26  0  0  1  0  0  0  0  0999 V2000
   15.4951  -16.8801    4.0829 N   0  0  0  0  0  0  0  0  0  0  0  0
   16.5838  -16.1546    4.6564 C   0  0  1  0  0  0  0  0  0  0  0  0
   16.3213  -14.7202    4.9114 C   0  0  0  0  0  0  0  0  0  0  0  0
   17.4417  -13.8174    4.7521 C   0  0  0  0  0  0  0  0  0  0  0  0
   18.6756  -14.0912    4.2159 C   0  0  0  0  0  0  0  0  0  0  0  0
   19.4299  -12.9809    4.2517 N   0  0  0  0  0  0  0  0  0  0  0  0
   18.6595  -12.0116    4.8138 C   0  0  0  0  0  0  0  0  0  0  0  0
   17.4521  -12.5249    5.1162 N   0  0  0  0  0  0  0  0  0  0  0  0
   16.9184  -16.8006    5.9704 C   0  0  0  0  0  0  0  0  0  0  0  0
   16.0680  -17.4808    6.6011 O   0  0  0  0  0  0  0  0  0  0  0  0
   18.2042  -16.6754    6.5615 N   0  0  0  0  0  0  0  0  0  0  0  0
   18.4735  -17.2873    7.8490 C   0  0  0  0  0  0  0  0  0  0  0  0
   19.9096  -17.1894    8.2097 C   0  0  0  0  0  0  0  0  0  0  0  0
   20.7626  -16.9874    7.3066 O   0  0  0  0  0  0  0  0  0  0  0  0
   23.3640  -12.0630   13.8570 N   0  0  0  0  0  0  0  0  0  0  0  0
   24.0574  -12.0118   12.5998 C   0  0  0  0  0  0  0  0  0  0  0  0
   24.8437  -11.0596   12.2929 N   0  0  0  0  0  0  0  0  0  0  0  0
   23.8407  -13.0728   11.6853 N   0  0  0  0  0  0  0  0  0  0  0  0
   22.8669  -14.1303   11.9515 C   0  0  0  0  0  0  0  0  0  0  0  0
   22.9141  -15.1921   10.8867 C   0  0  0  0  0  0  0  0  0  0  0  0
   21.9144  -16.2849   11.1452 C   0  0  0  0  0  0  0  0  0  0  0  0
   21.7561  -17.1849    9.9242 C   0  0  2  0  0  0  0  0  0  0  0  0
   20.3811  -17.3130    9.5368 N   0  0  0  0  0  0  0  0  0  0  0  0
   22.3118  -18.5409   10.1921 C   0  0  0  0  0  0  0  0  0  0  0  0
   23.6504  -18.8596   10.0058 O   0  0  0  0  0  0  0  0  0  0  0  0
   21.5572  -19.4636   10.6081 O   0  0  0  0  0  0  0  0  0  0  0  0
  2  1  1  1
  3  2  1  0
  4  8  1  0
  4  3  1  0
  5  4  2  0
  6  5  1  0
  6  7  1  0
  7  8  2  0
  9  2  1  0
 10  9  2  0
 11  9  1  0
 12 11  1  0
 13 23  1  0
 13 12  1  0
 14 13  2  0
 16 15  1  0
 17 16  2  0
 18 16  1  0
 19 18  1  0
 20 19  1  0
 21 20  1  0
 22 21  1  1
 22 23  1  0
 24 25  1  0
 24 22  1  0
 26 24  2  0
M  END
$$$$
