HGR.pdb
     RDKit          3D

 26 26  0  0  1  0  0  0  0  0999 V2000
   24.4174  -24.3762  -16.6058 N   0  0  0  0  0  0  0  0  0  0  0  0
   25.4676  -23.9457  -15.7385 C   0  0  1  0  0  0  0  0  0  0  0  0
   26.8052  -23.8515  -16.3659 C   0  0  0  0  0  0  0  0  0  0  0  0
   27.3591  -25.0778  -16.8998 C   0  0  0  0  0  0  0  0  0  0  0  0
   28.2293  -25.9462  -16.2886 C   0  0  0  0  0  0  0  0  0  0  0  0
   28.4992  -26.9628  -17.1233 N   0  0  0  0  0  0  0  0  0  0  0  0
   27.7921  -26.7240  -18.2600 C   0  0  0  0  0  0  0  0  0  0  0  0
   27.1008  -25.5772  -18.1192 N   0  0  0  0  0  0  0  0  0  0  0  0
   25.1038  -22.5815  -15.2264 C   0  0  0  0  0  0  0  0  0  0  0  0
   24.8405  -21.6354  -16.0132 O   0  0  0  0  0  0  0  0  0  0  0  0
   25.0399  -22.2950  -13.8363 N   0  0  0  0  0  0  0  0  0  0  0  0
   24.7004  -20.9584  -13.3860 C   0  0  0  0  0  0  0  0  0  0  0  0
   23.2348  -20.7275  -13.4190 C   0  0  0  0  0  0  0  0  0  0  0  0
   22.7607  -19.6831  -12.9008 O   0  0  0  0  0  0  0  0  0  0  0  0
   17.0580  -22.0712  -19.5324 N   0  0  0  0  0  0  0  0  0  0  0  0
   16.3248  -21.5554  -18.4097 C   0  0  0  0  0  0  0  0  0  0  0  0
   15.0827  -21.2861  -18.4719 N   0  0  0  0  0  0  0  0  0  0  0  0
   17.0339  -21.3476  -17.2001 N   0  0  0  0  0  0  0  0  0  0  0  0
   18.4562  -21.6636  -17.0789 C   0  0  0  0  0  0  0  0  0  0  0  0
   18.9515  -21.4089  -15.6813 C   0  0  0  0  0  0  0  0  0  0  0  0
   20.4344  -21.6289  -15.5672 C   0  0  0  0  0  0  0  0  0  0  0  0
   20.9155  -21.4001  -14.1382 C   0  0  2  0  0  0  0  0  0  0  0  0
   22.3251  -21.6330  -14.0114 N   0  0  0  0  0  0  0  0  0  0  0  0
   20.1906  -22.2896  -13.1882 C   0  0  0  0  0  0  0  0  0  0  0  0
   20.7738  -23.4054  -12.6026 O   0  0  0  0  0  0  0  0  0  0  0  0
   18.9906  -22.0447  -12.8816 O   0  0  0  0  0  0  0  0  0  0  0  0
  2  1  1  6
  3  2  1  0
  4  8  1  0
  4  3  1  0
  5  4  2  0
  6  5  1  0
  6  7  1  0
  7  8  2  0
  9  2  1  0
 10  9  2  0
 11  9  1  0
 12 11  1  0
 13 23  1  0
 13 12  1  0
 14 13  2  0
 16 15  1  0
 17 16  2  0
 18 16  1  0
 19 18  1  0
 20 19  1  0
 21 20  1  0
 22 21  1  6
 22 23  1  0
 24 25  1  0
 24 22  1  0
 26 24  2  0
M  END
$$$$
