HGR.pdb
     RDKit          3D

 26 26  0  0  1  0  0  0  0  0999 V2000
   26.2361  -17.8243  -18.5223 N   0  0  0  0  0  0  0  0  0  0  0  0
   26.3752  -17.7007  -17.1060 C   0  0  1  0  0  0  0  0  0  0  0  0
   27.1652  -16.5352  -16.6489 C   0  0  0  0  0  0  0  0  0  0  0  0
   28.4483  -16.3306  -17.2874 C   0  0  0  0  0  0  0  0  0  0  0  0
   29.6464  -16.9277  -16.9827 C   0  0  0  0  0  0  0  0  0  0  0  0
   30.5954  -16.4640  -17.8119 N   0  0  0  0  0  0  0  0  0  0  0  0
   29.9825  -15.5734  -18.6366 C   0  0  0  0  0  0  0  0  0  0  0  0
   28.6777  -15.4958  -18.3138 N   0  0  0  0  0  0  0  0  0  0  0  0
   24.9965  -17.5777  -16.5229 C   0  0  0  0  0  0  0  0  0  0  0  0
   24.8147  -17.5152  -15.2793 O   0  0  0  0  0  0  0  0  0  0  0  0
   23.8375  -17.5263  -17.3430 N   0  0  0  0  0  0  0  0  0  0  0  0
   22.5209  -17.4785  -16.7358 C   0  0  0  0  0  0  0  0  0  0  0  0
   22.1032  -18.8109  -16.2335 C   0  0  0  0  0  0  0  0  0  0  0  0
   21.5067  -19.6051  -17.0066 O   0  0  0  0  0  0  0  0  0  0  0  0
   23.9358  -21.0566   -8.5832 N   0  0  0  0  0  0  0  0  0  0  0  0
   24.9030  -20.9527   -9.6405 C   0  0  0  0  0  0  0  0  0  0  0  0
   26.1167  -21.3048   -9.4915 N   0  0  0  0  0  0  0  0  0  0  0  0
   24.4641  -20.4361  -10.8852 N   0  0  0  0  0  0  0  0  0  0  0  0
   23.1337  -19.8524  -11.0491 C   0  0  0  0  0  0  0  0  0  0  0  0
   22.2683  -20.7127  -11.9291 C   0  0  0  0  0  0  0  0  0  0  0  0
   22.9108  -20.9673  -13.2643 C   0  0  0  0  0  0  0  0  0  0  0  0
   21.9931  -20.5419  -14.4057 C   0  0  2  0  0  0  0  0  0  0  0  0
   22.3428  -19.2453  -14.9097 N   0  0  0  0  0  0  0  0  0  0  0  0
   20.5716  -20.5210  -13.9606 C   0  0  0  0  0  0  0  0  0  0  0  0
   19.9276  -19.3643  -13.5421 O   0  0  0  0  0  0  0  0  0  0  0  0
   19.8951  -21.5869  -13.9519 O   0  0  0  0  0  0  0  0  0  0  0  0
  2  1  1  6
  3  2  1  0
  4  8  1  0
  4  3  1  0
  5  4  2  0
  6  5  1  0
  6  7  1  0
  7  8  2  0
  9  2  1  0
 10  9  2  0
 11  9  1  0
 12 11  1  0
 13 23  1  0
 13 12  1  0
 14 13  2  0
 16 15  1  0
 17 16  2  0
 18 16  1  0
 19 18  1  0
 20 19  1  0
 21 20  1  0
 22 21  1  1
 22 23  1  0
 24 25  1  0
 24 22  1  0
 26 24  2  0
M  END
$$$$
