HGR.pdb
     RDKit          3D

 26 26  0  0  1  0  0  0  0  0999 V2000
   22.8742  -19.5683  -18.3446 N   0  0  0  0  0  0  0  0  0  0  0  0
   23.8817  -19.0804  -17.4573 C   0  0  1  0  0  0  0  0  0  0  0  0
   24.5002  -17.7943  -17.8511 C   0  0  0  0  0  0  0  0  0  0  0  0
   25.2192  -17.7781  -19.1075 C   0  0  0  0  0  0  0  0  0  0  0  0
   24.8847  -17.1145  -20.2619 C   0  0  0  0  0  0  0  0  0  0  0  0
   25.8151  -17.3596  -21.1986 N   0  0  0  0  0  0  0  0  0  0  0  0
   26.7330  -18.1806  -20.6221 C   0  0  0  0  0  0  0  0  0  0  0  0
   26.3664  -18.4321  -19.3512 N   0  0  0  0  0  0  0  0  0  0  0  0
   23.2472  -18.8906  -16.1093 C   0  0  0  0  0  0  0  0  0  0  0  0
   22.2649  -18.1203  -15.9505 O   0  0  0  0  0  0  0  0  0  0  0  0
   23.7229  -19.5682  -14.9547 N   0  0  0  0  0  0  0  0  0  0  0  0
   23.0077  -19.4498  -13.6980 C   0  0  0  0  0  0  0  0  0  0  0  0
   21.9602  -20.4927  -13.5662 C   0  0  0  0  0  0  0  0  0  0  0  0
   21.7672  -21.2996  -14.5127 O   0  0  0  0  0  0  0  0  0  0  0  0
   18.7446  -25.4022   -7.1500 N   0  0  0  0  0  0  0  0  0  0  0  0
   17.9732  -25.7094   -8.3224 C   0  0  0  0  0  0  0  0  0  0  0  0
   17.3694  -26.8198   -8.4698 N   0  0  0  0  0  0  0  0  0  0  0  0
   17.8976  -24.7230   -9.3374 N   0  0  0  0  0  0  0  0  0  0  0  0
   18.9799  -23.7659   -9.5612 C   0  0  0  0  0  0  0  0  0  0  0  0
   18.6117  -22.7697  -10.6269 C   0  0  0  0  0  0  0  0  0  0  0  0
   19.6708  -21.7159  -10.7940 C   0  0  0  0  0  0  0  0  0  0  0  0
   20.1659  -21.6582  -12.2354 C   0  0  2  0  0  0  0  0  0  0  0  0
   21.1522  -20.6322  -12.4147 N   0  0  0  0  0  0  0  0  0  0  0  0
   19.0348  -21.4114  -13.1728 C   0  0  0  0  0  0  0  0  0  0  0  0
   18.3858  -22.4292  -13.8589 O   0  0  0  0  0  0  0  0  0  0  0  0
   18.6243  -20.2345  -13.3738 O   0  0  0  0  0  0  0  0  0  0  0  0
  2  1  1  6
  3  2  1  0
  4  8  1  0
  4  3  1  0
  5  4  2  0
  6  5  1  0
  6  7  1  0
  7  8  2  0
  9  2  1  0
 10  9  2  0
 11  9  1  0
 12 11  1  0
 13 23  1  0
 13 12  1  0
 14 13  2  0
 16 15  1  0
 17 16  2  0
 18 16  1  0
 19 18  1  0
 20 19  1  0
 21 20  1  0
 22 21  1  1
 22 23  1  0
 24 25  1  0
 24 22  1  0
 26 24  2  0
M  END
$$$$
