HGR.pdb
     RDKit          3D

 26 26  0  0  1  0  0  0  0  0999 V2000
   29.2000  -18.2531  -18.8944 N   0  0  0  0  0  0  0  0  0  0  0  0
   28.7102  -16.9114  -18.9138 C   0  0  1  0  0  0  0  0  0  0  0  0
   29.3196  -16.0321  -19.9370 C   0  0  0  0  0  0  0  0  0  0  0  0
   30.7552  -15.8579  -19.8708 C   0  0  0  0  0  0  0  0  0  0  0  0
   31.5659  -15.9519  -18.7669 C   0  0  0  0  0  0  0  0  0  0  0  0
   32.8378  -15.7213  -19.1310 N   0  0  0  0  0  0  0  0  0  0  0  0
   32.8163  -15.4826  -20.4695 C   0  0  0  0  0  0  0  0  0  0  0  0
   31.5484  -15.5668  -20.9145 N   0  0  0  0  0  0  0  0  0  0  0  0
   27.2333  -16.9705  -19.1802 C   0  0  0  0  0  0  0  0  0  0  0  0
   26.7655  -17.6553  -20.1266 O   0  0  0  0  0  0  0  0  0  0  0  0
   26.2982  -16.2598  -18.3808 N   0  0  0  0  0  0  0  0  0  0  0  0
   24.8817  -16.3299  -18.6861 C   0  0  0  0  0  0  0  0  0  0  0  0
   24.2251  -17.4537  -17.9731 C   0  0  0  0  0  0  0  0  0  0  0  0
   24.8728  -18.1032  -17.1113 O   0  0  0  0  0  0  0  0  0  0  0  0
   16.7780  -15.3163  -15.9492 N   0  0  0  0  0  0  0  0  0  0  0  0
   16.8398  -15.6171  -17.3526 C   0  0  0  0  0  0  0  0  0  0  0  0
   15.9292  -15.2612  -18.1671 N   0  0  0  0  0  0  0  0  0  0  0  0
   17.9665  -16.3376  -17.8221 N   0  0  0  0  0  0  0  0  0  0  0  0
   18.9116  -16.9704  -16.9035 C   0  0  0  0  0  0  0  0  0  0  0  0
   20.0171  -17.6622  -17.6537 C   0  0  0  0  0  0  0  0  0  0  0  0
   21.0029  -18.3093  -16.7211 C   0  0  0  0  0  0  0  0  0  0  0  0
   22.1977  -18.8685  -17.4864 C   0  0  2  0  0  0  0  0  0  0  0  0
   22.8871  -17.8420  -18.2132 N   0  0  0  0  0  0  0  0  0  0  0  0
   21.7651  -19.9289  -18.4392 C   0  0  0  0  0  0  0  0  0  0  0  0
   21.3380  -21.1849  -18.0293 O   0  0  0  0  0  0  0  0  0  0  0  0
   21.7760  -19.7063  -19.6819 O   0  0  0  0  0  0  0  0  0  0  0  0
  2  1  1  6
  3  2  1  0
  4  8  1  0
  4  3  1  0
  5  4  2  0
  6  5  1  0
  6  7  1  0
  7  8  2  0
  9  2  1  0
 10  9  2  0
 11  9  1  0
 12 11  1  0
 13 23  1  0
 13 12  1  0
 14 13  2  0
 16 15  1  0
 17 16  2  0
 18 16  1  0
 19 18  1  0
 20 19  1  0
 21 20  1  0
 22 21  1  6
 22 23  1  0
 24 25  1  0
 24 22  1  0
 26 24  2  0
M  END
$$$$
