HGR.pdb
     RDKit          3D

 26 26  0  0  1  0  0  0  0  0999 V2000
   27.0397  -18.4216  -17.7474 N   0  0  0  0  0  0  0  0  0  0  0  0
   27.4067  -17.5606  -16.6684 C   0  0  1  0  0  0  0  0  0  0  0  0
   27.0263  -16.1400  -16.8374 C   0  0  0  0  0  0  0  0  0  0  0  0
   27.4446  -15.4981  -18.0657 C   0  0  0  0  0  0  0  0  0  0  0  0
   26.6530  -15.0388  -19.0890 C   0  0  0  0  0  0  0  0  0  0  0  0
   27.4310  -14.5086  -20.0465 N   0  0  0  0  0  0  0  0  0  0  0  0
   28.7138  -14.6396  -19.6149 C   0  0  0  0  0  0  0  0  0  0  0  0
   28.7168  -15.2416  -18.4105 N   0  0  0  0  0  0  0  0  0  0  0  0
   26.7309  -18.0722  -15.4285 C   0  0  0  0  0  0  0  0  0  0  0  0
   26.8293  -17.4646  -14.3309 O   0  0  0  0  0  0  0  0  0  0  0  0
   25.9522  -19.2605  -15.4351 N   0  0  0  0  0  0  0  0  0  0  0  0
   25.2351  -19.6645  -14.2405 C   0  0  0  0  0  0  0  0  0  0  0  0
   23.8139  -19.9734  -14.5357 C   0  0  0  0  0  0  0  0  0  0  0  0
   23.3906  -19.8722  -15.7166 O   0  0  0  0  0  0  0  0  0  0  0  0
   17.2740  -23.7847   -9.6333 N   0  0  0  0  0  0  0  0  0  0  0  0
   16.9010  -23.9882  -11.0057 C   0  0  0  0  0  0  0  0  0  0  0  0
   15.8531  -24.6279  -11.3400 N   0  0  0  0  0  0  0  0  0  0  0  0
   17.7479  -23.4466  -12.0049 N   0  0  0  0  0  0  0  0  0  0  0  0
   18.9875  -22.7490  -11.6666 C   0  0  0  0  0  0  0  0  0  0  0  0
   19.6598  -22.2085  -12.8992 C   0  0  0  0  0  0  0  0  0  0  0  0
   20.9552  -21.5198  -12.5704 C   0  0  0  0  0  0  0  0  0  0  0  0
   21.5910  -20.9197  -13.8200 C   0  0  2  0  0  0  0  0  0  0  0  0
   22.8923  -20.3828  -13.5449 N   0  0  0  0  0  0  0  0  0  0  0  0
   20.7317  -19.8413  -14.3838 C   0  0  0  0  0  0  0  0  0  0  0  0
   19.7785  -20.0707  -15.3669 O   0  0  0  0  0  0  0  0  0  0  0  0
   20.8515  -18.6546  -13.9697 O   0  0  0  0  0  0  0  0  0  0  0  0
  2  1  1  6
  3  2  1  0
  4  8  1  0
  4  3  1  0
  5  4  2  0
  6  5  1  0
  6  7  1  0
  7  8  2  0
  9  2  1  0
 10  9  2  0
 11  9  1  0
 12 11  1  0
 13 23  1  0
 13 12  1  0
 14 13  2  0
 16 15  1  0
 17 16  2  0
 18 16  1  0
 19 18  1  0
 20 19  1  0
 21 20  1  0
 22 21  1  1
 22 23  1  0
 24 25  1  0
 24 22  1  0
 26 24  2  0
M  END
$$$$
