HGR.pdb
     RDKit          3D

 26 26  0  0  1  0  0  0  0  0999 V2000
   25.9648  -15.5784  -18.1693 N   0  0  0  0  0  0  0  0  0  0  0  0
   26.3877  -16.6654  -17.3446 C   0  0  1  0  0  0  0  0  0  0  0  0
   27.6925  -16.4761  -16.6714 C   0  0  0  0  0  0  0  0  0  0  0  0
   28.8562  -16.3805  -17.5271 C   0  0  0  0  0  0  0  0  0  0  0  0
   29.5987  -15.2632  -17.8190 C   0  0  0  0  0  0  0  0  0  0  0  0
   30.5958  -15.6000  -18.6531 N   0  0  0  0  0  0  0  0  0  0  0  0
   30.4715  -16.9348  -18.8804 C   0  0  0  0  0  0  0  0  0  0  0  0
   29.4128  -17.4046  -18.1939 N   0  0  0  0  0  0  0  0  0  0  0  0
   25.3462  -16.8604  -16.2802 C   0  0  0  0  0  0  0  0  0  0  0  0
   25.0855  -15.9555  -15.4455 O   0  0  0  0  0  0  0  0  0  0  0  0
   24.6089  -18.0694  -16.1652 N   0  0  0  0  0  0  0  0  0  0  0  0
   23.5887  -18.2025  -15.1425 C   0  0  0  0  0  0  0  0  0  0  0  0
   22.8308  -19.4698  -15.2897 C   0  0  0  0  0  0  0  0  0  0  0  0
   22.7086  -19.9894  -16.4295 O   0  0  0  0  0  0  0  0  0  0  0  0
   19.0313  -23.0113   -8.4646 N   0  0  0  0  0  0  0  0  0  0  0  0
   18.7486  -23.6495   -9.7203 C   0  0  0  0  0  0  0  0  0  0  0  0
   18.1246  -24.7557   -9.7978 N   0  0  0  0  0  0  0  0  0  0  0  0
   19.1917  -23.0030  -10.9013 N   0  0  0  0  0  0  0  0  0  0  0  0
   19.8654  -21.7060  -10.8612 C   0  0  0  0  0  0  0  0  0  0  0  0
   20.1492  -21.1988  -12.2489 C   0  0  0  0  0  0  0  0  0  0  0  0
   21.2512  -21.9774  -12.9119 C   0  0  0  0  0  0  0  0  0  0  0  0
   21.5716  -21.4104  -14.2910 C   0  0  2  0  0  0  0  0  0  0  0  0
   22.2272  -20.1379  -14.1998 N   0  0  0  0  0  0  0  0  0  0  0  0
   20.3305  -21.2587  -15.1009 C   0  0  0  0  0  0  0  0  0  0  0  0
   19.7663  -22.3024  -15.8222 O   0  0  0  0  0  0  0  0  0  0  0  0
   19.7416  -20.1432  -15.1541 O   0  0  0  0  0  0  0  0  0  0  0  0
  2  1  1  1
  3  2  1  0
  4  8  1  0
  4  3  1  0
  5  4  2  0
  6  5  1  0
  6  7  1  0
  7  8  2  0
  9  2  1  0
 10  9  2  0
 11  9  1  0
 12 11  1  0
 13 23  1  0
 13 12  1  0
 14 13  2  0
 16 15  1  0
 17 16  2  0
 18 16  1  0
 19 18  1  0
 20 19  1  0
 21 20  1  0
 22 21  1  1
 22 23  1  0
 24 25  1  0
 24 22  1  0
 26 24  2  0
M  END
$$$$
