HGR.pdb
     RDKit          3D

 26 26  0  0  1  0  0  0  0  0999 V2000
   12.2172  -12.9781    2.0498 N   0  0  0  0  0  0  0  0  0  0  0  0
   11.4997  -12.9229    3.2838 C   0  0  1  0  0  0  0  0  0  0  0  0
   10.0544  -13.2286    3.1874 C   0  0  0  0  0  0  0  0  0  0  0  0
    9.2768  -12.4083    2.2828 C   0  0  0  0  0  0  0  0  0  0  0  0
    8.8548  -12.7195    1.0140 C   0  0  0  0  0  0  0  0  0  0  0  0
    8.1592  -11.6858    0.5130 N   0  0  0  0  0  0  0  0  0  0  0  0
    8.1493  -10.7269    1.4770 C   0  0  0  0  0  0  0  0  0  0  0  0
    8.8299  -11.1707    2.5506 N   0  0  0  0  0  0  0  0  0  0  0  0
   12.1194  -13.9249    4.2152 C   0  0  0  0  0  0  0  0  0  0  0  0
   11.6817  -14.0914    5.3832 O   0  0  0  0  0  0  0  0  0  0  0  0
   13.2238  -14.7288    3.8245 N   0  0  0  0  0  0  0  0  0  0  0  0
   13.7922  -15.6834    4.7574 C   0  0  0  0  0  0  0  0  0  0  0  0
   14.9607  -16.3874    4.1732 C   0  0  0  0  0  0  0  0  0  0  0  0
   15.3178  -16.1229    2.9957 O   0  0  0  0  0  0  0  0  0  0  0  0
   22.0096  -18.7715    8.0117 N   0  0  0  0  0  0  0  0  0  0  0  0
   21.3801  -17.5623    8.4654 C   0  0  0  0  0  0  0  0  0  0  0  0
   22.0008  -16.6843    9.1458 N   0  0  0  0  0  0  0  0  0  0  0  0
   20.0174  -17.3640    8.1298 N   0  0  0  0  0  0  0  0  0  0  0  0
   19.2643  -18.3514    7.3581 C   0  0  0  0  0  0  0  0  0  0  0  0
   18.4729  -17.6936    6.2607 C   0  0  0  0  0  0  0  0  0  0  0  0
   17.6712  -18.6942    5.4755 C   0  0  0  0  0  0  0  0  0  0  0  0
   16.8764  -18.0128    4.3665 C   0  0  2  0  0  0  0  0  0  0  0  0
   15.7086  -17.3569    4.8799 N   0  0  0  0  0  0  0  0  0  0  0  0
   16.4612  -19.0002    3.3312 C   0  0  0  0  0  0  0  0  0  0  0  0
   15.1441  -19.4037    3.1565 O   0  0  0  0  0  0  0  0  0  0  0  0
   17.3222  -19.5114    2.5623 O   0  0  0  0  0  0  0  0  0  0  0  0
  2  1  1  6
  3  2  1  0
  4  8  1  0
  4  3  1  0
  5  4  2  0
  6  5  1  0
  6  7  1  0
  7  8  2  0
  9  2  1  0
 10  9  2  0
 11  9  1  0
 12 11  1  0
 13 23  1  0
 13 12  1  0
 14 13  2  0
 16 15  1  0
 17 16  2  0
 18 16  1  0
 19 18  1  0
 20 19  1  0
 21 20  1  0
 22 21  1  1
 22 23  1  0
 24 25  1  0
 24 22  1  0
 26 24  2  0
M  END
$$$$
