HGR.pdb
     RDKit          3D

 26 26  0  0  1  0  0  0  0  0999 V2000
   23.4373  -11.0645  -15.7744 N   0  0  0  0  0  0  0  0  0  0  0  0
   24.0468  -10.4270  -14.6508 C   0  0  1  0  0  0  0  0  0  0  0  0
   25.3457   -9.7719  -14.9250 C   0  0  0  0  0  0  0  0  0  0  0  0
   26.3857  -10.6048  -15.4907 C   0  0  0  0  0  0  0  0  0  0  0  0
   26.3123  -11.9342  -15.8258 C   0  0  0  0  0  0  0  0  0  0  0  0
   27.4957  -12.3318  -16.3208 N   0  0  0  0  0  0  0  0  0  0  0  0
   28.3088  -11.2423  -16.2928 C   0  0  0  0  0  0  0  0  0  0  0  0
   27.6296  -10.1952  -15.7875 N   0  0  0  0  0  0  0  0  0  0  0  0
   23.0973   -9.3741  -14.1552 C   0  0  0  0  0  0  0  0  0  0  0  0
   23.3417   -8.7091  -13.1152 O   0  0  0  0  0  0  0  0  0  0  0  0
   21.8839   -9.0797  -14.8332 N   0  0  0  0  0  0  0  0  0  0  0  0
   21.0532   -7.9770  -14.3878 C   0  0  0  0  0  0  0  0  0  0  0  0
   19.8884   -7.7746  -15.2848 C   0  0  0  0  0  0  0  0  0  0  0  0
   19.7763   -8.4781  -16.3224 O   0  0  0  0  0  0  0  0  0  0  0  0
   15.4191  -11.7566  -13.3328 N   0  0  0  0  0  0  0  0  0  0  0  0
   14.2724  -10.8969  -13.2330 C   0  0  0  0  0  0  0  0  0  0  0  0
   13.2110  -11.2439  -12.6229 N   0  0  0  0  0  0  0  0  0  0  0  0
   14.3514   -9.6209  -13.8450 N   0  0  0  0  0  0  0  0  0  0  0  0
   15.1891   -9.3822  -15.0193 C   0  0  0  0  0  0  0  0  0  0  0  0
   16.0833   -8.1897  -14.8146 C   0  0  0  0  0  0  0  0  0  0  0  0
   16.9275   -7.9119  -16.0273 C   0  0  0  0  0  0  0  0  0  0  0  0
   17.7229   -6.6215  -15.8592 C   0  0  2  0  0  0  0  0  0  0  0  0
   18.8791   -6.8173  -15.0332 N   0  0  0  0  0  0  0  0  0  0  0  0
   16.8752   -5.5530  -15.2600 C   0  0  0  0  0  0  0  0  0  0  0  0
   17.1542   -4.9658  -14.0331 O   0  0  0  0  0  0  0  0  0  0  0  0
   15.8499   -5.1411  -15.8708 O   0  0  0  0  0  0  0  0  0  0  0  0
  2  1  1  6
  3  2  1  0
  4  8  1  0
  4  3  1  0
  5  4  2  0
  6  5  1  0
  6  7  1  0
  7  8  2  0
  9  2  1  0
 10  9  2  0
 11  9  1  0
 12 11  1  0
 13 23  1  0
 13 12  1  0
 14 13  2  0
 16 15  1  0
 17 16  2  0
 18 16  1  0
 19 18  1  0
 20 19  1  0
 21 20  1  0
 22 21  1  1
 22 23  1  0
 24 25  1  0
 24 22  1  0
 26 24  2  0
M  END
$$$$
