HGR.pdb
     RDKit          3D

 26 26  0  0  1  0  0  0  0  0999 V2000
   24.4904  -20.6042  -15.9098 N   0  0  0  0  0  0  0  0  0  0  0  0
   24.3782  -19.2183  -15.5827 C   0  0  1  0  0  0  0  0  0  0  0  0
   24.1283  -18.3174  -16.7306 C   0  0  0  0  0  0  0  0  0  0  0  0
   25.0469  -18.4164  -17.8449 C   0  0  0  0  0  0  0  0  0  0  0  0
   24.8014  -18.9214  -19.0978 C   0  0  0  0  0  0  0  0  0  0  0  0
   25.9182  -18.8311  -19.8379 N   0  0  0  0  0  0  0  0  0  0  0  0
   26.8631  -18.2666  -19.0395 C   0  0  0  0  0  0  0  0  0  0  0  0
   26.3287  -18.0163  -17.8293 N   0  0  0  0  0  0  0  0  0  0  0  0
   23.2318  -19.0688  -14.6240 C   0  0  0  0  0  0  0  0  0  0  0  0
   22.8438  -17.9354  -14.2387 O   0  0  0  0  0  0  0  0  0  0  0  0
   22.5340  -20.1940  -14.1086 N   0  0  0  0  0  0  0  0  0  0  0  0
   21.4815  -20.0078  -13.1277 C   0  0  0  0  0  0  0  0  0  0  0  0
   20.7575  -21.2747  -12.8574 C   0  0  0  0  0  0  0  0  0  0  0  0
   21.0315  -22.3008  -13.5328 O   0  0  0  0  0  0  0  0  0  0  0  0
   16.2361  -25.4269   -6.4321 N   0  0  0  0  0  0  0  0  0  0  0  0
   17.6633  -25.5768   -6.3633 C   0  0  0  0  0  0  0  0  0  0  0  0
   18.2344  -26.2563   -5.4516 N   0  0  0  0  0  0  0  0  0  0  0  0
   18.4410  -24.9346   -7.3590 N   0  0  0  0  0  0  0  0  0  0  0  0
   17.8392  -24.0393   -8.3458 C   0  0  0  0  0  0  0  0  0  0  0  0
   18.8822  -23.4665   -9.2664 C   0  0  0  0  0  0  0  0  0  0  0  0
   18.2818  -22.5189  -10.2674 C   0  0  0  0  0  0  0  0  0  0  0  0
   19.0150  -22.5931  -11.6026 C   0  0  2  0  0  0  0  0  0  0  0  0
   19.7582  -21.3946  -11.8646 N   0  0  0  0  0  0  0  0  0  0  0  0
   18.0561  -22.8219  -12.7195 C   0  0  0  0  0  0  0  0  0  0  0  0
   17.7610  -24.0847  -13.2156 O   0  0  0  0  0  0  0  0  0  0  0  0
   17.4690  -21.8438  -13.2604 O   0  0  0  0  0  0  0  0  0  0  0  0
  2  1  1  6
  3  2  1  0
  4  8  1  0
  4  3  1  0
  5  4  2  0
  6  5  1  0
  6  7  1  0
  7  8  2  0
  9  2  1  0
 10  9  2  0
 11  9  1  0
 12 11  1  0
 13 23  1  0
 13 12  1  0
 14 13  2  0
 16 15  1  0
 17 16  2  0
 18 16  1  0
 19 18  1  0
 20 19  1  0
 21 20  1  0
 22 21  1  1
 22 23  1  0
 24 25  1  0
 24 22  1  0
 26 24  2  0
M  END
$$$$
