WNC.pdb
     RDKit          3D

 29 30  0  0  1  0  0  0  0  0999 V2000
   21.5905  -19.7622  -17.1493 N   0  0  0  0  0  0  0  0  0  0  0  0
   22.2709  -18.7965  -16.3296 C   0  0  1  0  0  0  0  0  0  0  0  0
   21.4012  -18.1738  -15.2986 C   0  0  0  0  0  0  0  0  0  0  0  0
   20.4038  -17.2202  -15.8091 C   0  0  0  0  0  0  0  0  0  0  0  0
   19.0202  -17.3553  -15.8358 C   0  0  0  0  0  0  0  0  0  0  0  0
   18.4818  -16.2432  -16.3581 N   0  0  0  0  0  0  0  0  0  0  0  0
   19.4530  -15.3687  -16.6830 C   0  0  0  0  0  0  0  0  0  0  0  0
   19.3931  -14.1175  -17.2458 C   0  0  0  0  0  0  0  0  0  0  0  0
   20.5888  -13.4721  -17.4664 C   0  0  0  0  0  0  0  0  0  0  0  0
   21.8000  -14.0321  -17.1470 C   0  0  0  0  0  0  0  0  0  0  0  0
   21.8376  -15.2809  -16.5863 C   0  0  0  0  0  0  0  0  0  0  0  0
   20.6625  -15.9690  -16.3445 C   0  0  0  0  0  0  0  0  0  0  0  0
   23.5047  -19.3999  -15.7986 C   0  0  0  0  0  0  0  0  0  0  0  0
   23.5038  -20.6484  -15.5887 O   0  0  0  0  0  0  0  0  0  0  0  0
   28.0789  -20.5840  -16.1948 N   0  0  0  0  0  0  0  0  0  0  0  0
   28.1325  -19.1614  -15.9268 C   0  0  0  0  0  0  0  0  0  0  0  0
   29.1731  -18.5867  -16.2810 O   0  0  0  0  0  0  0  0  0  0  0  0
   27.0262  -18.4727  -15.2836 C   0  0  0  0  0  0  0  0  0  0  0  0
   25.8616  -19.3356  -14.9450 C   0  0  2  0  0  0  0  0  0  0  0  0
   24.6516  -18.6669  -15.5229 N   0  0  0  0  0  0  0  0  0  0  0  0
   25.6026  -19.4224  -13.4787 C   0  0  0  0  0  0  0  0  0  0  0  0
   24.6097  -18.7346  -12.9954 O   0  0  0  0  0  0  0  0  0  0  0  0
   26.2921  -20.1663  -12.5185 N   0  0  0  0  0  0  0  0  0  0  0  0
   25.8865  -20.1505  -11.0928 C   0  0  1  0  0  0  0  0  0  0  0  0
   24.5072  -20.7573  -10.9462 C   0  0  0  0  0  0  0  0  0  0  0  0
   24.0051  -20.9607   -9.2360 S   0  0  0  0  0  0  0  0  0  0  0  0
   26.8337  -21.0497  -10.3885 C   0  0  0  0  0  0  0  0  0  0  0  0
   27.2291  -20.8756   -9.0664 O   0  0  0  0  0  0  0  0  0  0  0  0
   27.3026  -22.0238  -11.0307 O   0  0  0  0  0  0  0  0  0  0  0  0
  2  1  1  1
  2 13  1  0
  3  4  1  0
  3  2  1  0
  4 12  1  0
  4  5  2  0
  5  6  1  0
  7  8  2  0
  7  6  1  0
  9  8  1  0
 10  9  2  0
 11 10  1  0
 11 12  2  0
 12  7  1  0
 13 20  1  0
 13 14  2  0
 16 15  1  0
 16 17  2  0
 18 16  1  0
 19 18  1  1
 20 19  1  0
 21 19  1  0
 21 22  2  0
 23 21  1  0
 24 23  1  0
 24 25  1  6
 25 26  1  0
 27 24  1  0
 28 27  1  0
 29 27  2  0
M  END
$$$$
