WNC.pdb
     RDKit          3D

 29 30  0  0  1  0  0  0  0  0999 V2000
   27.5294  -21.6110  -14.7645 N   0  0  0  0  0  0  0  0  0  0  0  0
   26.5694  -21.6578  -13.6950 C   0  0  1  0  0  0  0  0  0  0  0  0
   26.6880  -20.5262  -12.7399 C   0  0  0  0  0  0  0  0  0  0  0  0
   27.7427  -20.6682  -11.7239 C   0  0  0  0  0  0  0  0  0  0  0  0
   29.1180  -20.7380  -11.9165 C   0  0  0  0  0  0  0  0  0  0  0  0
   29.7227  -20.8363  -10.7231 N   0  0  0  0  0  0  0  0  0  0  0  0
   28.8039  -20.8359   -9.7386 C   0  0  0  0  0  0  0  0  0  0  0  0
   28.9387  -20.9243   -8.3749 C   0  0  0  0  0  0  0  0  0  0  0  0
   27.7819  -20.9069   -7.6288 C   0  0  0  0  0  0  0  0  0  0  0  0
   26.5376  -20.8063   -8.1980 C   0  0  0  0  0  0  0  0  0  0  0  0
   26.4252  -20.7190   -9.5600 C   0  0  0  0  0  0  0  0  0  0  0  0
   27.5587  -20.7315  -10.3524 C   0  0  0  0  0  0  0  0  0  0  0  0
   25.2227  -21.8325  -14.2646 C   0  0  0  0  0  0  0  0  0  0  0  0
   24.8082  -20.9498  -15.0718 O   0  0  0  0  0  0  0  0  0  0  0  0
   20.9972  -26.1311  -15.4149 N   0  0  0  0  0  0  0  0  0  0  0  0
   21.4765  -24.7650  -15.3617 C   0  0  0  0  0  0  0  0  0  0  0  0
   20.6881  -23.9025  -15.7778 O   0  0  0  0  0  0  0  0  0  0  0  0
   22.7992  -24.4490  -14.8496 C   0  0  0  0  0  0  0  0  0  0  0  0
   23.0266  -23.0099  -14.5445 C   0  0  2  0  0  0  0  0  0  0  0  0
   24.4014  -22.9094  -13.9571 N   0  0  0  0  0  0  0  0  0  0  0  0
   22.1087  -22.4808  -13.4946 C   0  0  0  0  0  0  0  0  0  0  0  0
   22.2225  -22.9601  -12.2905 O   0  0  0  0  0  0  0  0  0  0  0  0
   21.1155  -21.5069  -13.6212 N   0  0  0  0  0  0  0  0  0  0  0  0
   20.2194  -21.1674  -12.4903 C   0  0  1  0  0  0  0  0  0  0  0  0
   20.4925  -19.7519  -12.0278 C   0  0  0  0  0  0  0  0  0  0  0  0
   20.0254  -18.5128  -13.2380 S   0  0  0  0  0  0  0  0  0  0  0  0
   18.8416  -21.1863  -13.0408 C   0  0  0  0  0  0  0  0  0  0  0  0
   17.6937  -21.1275  -12.2575 O   0  0  0  0  0  0  0  0  0  0  0  0
   18.7116  -21.2600  -14.2894 O   0  0  0  0  0  0  0  0  0  0  0  0
  2  1  1  6
  2 13  1  0
  3  4  1  0
  3  2  1  0
  4 12  1  0
  4  5  2  0
  5  6  1  0
  7  8  2  0
  7  6  1  0
  9  8  1  0
 10  9  2  0
 11 10  1  0
 11 12  2  0
 12  7  1  0
 13 20  1  0
 13 14  2  0
 16 15  1  0
 16 17  2  0
 18 16  1  0
 19 18  1  1
 20 19  1  0
 21 19  1  0
 21 22  2  0
 23 21  1  0
 24 23  1  0
 24 25  1  6
 25 26  1  0
 27 24  1  0
 28 27  1  0
 29 27  2  0
M  END
$$$$
