WNC.pdb
     RDKit          3D

 29 30  0  0  1  0  0  0  0  0999 V2000
   28.5349  -21.1821  -10.7638 N   0  0  0  0  0  0  0  0  0  0  0  0
   27.2268  -21.1139  -10.1708 C   0  0  1  0  0  0  0  0  0  0  0  0
   27.1660  -20.2516   -8.9627 C   0  0  0  0  0  0  0  0  0  0  0  0
   28.2547  -20.4494   -7.9929 C   0  0  0  0  0  0  0  0  0  0  0  0
   29.5026  -21.0243   -8.2068 C   0  0  0  0  0  0  0  0  0  0  0  0
   30.2049  -20.9834   -7.0647 N   0  0  0  0  0  0  0  0  0  0  0  0
   29.4738  -20.4037   -6.0936 C   0  0  0  0  0  0  0  0  0  0  0  0
   29.7598  -20.1501   -4.7746 C   0  0  0  0  0  0  0  0  0  0  0  0
   28.7773  -19.5419   -4.0265 C   0  0  0  0  0  0  0  0  0  0  0  0
   27.5582  -19.1942   -4.5516 C   0  0  0  0  0  0  0  0  0  0  0  0
   27.2933  -19.4557   -5.8694 C   0  0  0  0  0  0  0  0  0  0  0  0
   28.2491  -20.0648   -6.6621 C   0  0  0  0  0  0  0  0  0  0  0  0
   26.2440  -20.7698  -11.2120 C   0  0  0  0  0  0  0  0  0  0  0  0
   26.4712  -19.7430  -11.9168 O   0  0  0  0  0  0  0  0  0  0  0  0
   26.4378  -21.4803  -14.3971 N   0  0  0  0  0  0  0  0  0  0  0  0
   25.4462  -22.5354  -14.3512 C   0  0  0  0  0  0  0  0  0  0  0  0
   25.6709  -23.5159  -15.0769 O   0  0  0  0  0  0  0  0  0  0  0  0
   24.2717  -22.4303  -13.5019 C   0  0  0  0  0  0  0  0  0  0  0  0
   24.2297  -21.2204  -12.6358 C   0  0  2  0  0  0  0  0  0  0  0  0
   25.0955  -21.5140  -11.4487 N   0  0  0  0  0  0  0  0  0  0  0  0
   22.8741  -20.9452  -12.0778 C   0  0  0  0  0  0  0  0  0  0  0  0
   22.5398  -21.5428  -10.9717 O   0  0  0  0  0  0  0  0  0  0  0  0
   21.8810  -20.1047  -12.5859 N   0  0  0  0  0  0  0  0  0  0  0  0
   20.5714  -19.9596  -11.9068 C   0  0  1  0  0  0  0  0  0  0  0  0
   20.4145  -18.5437  -11.3943 C   0  0  0  0  0  0  0  0  0  0  0  0
   20.4555  -17.3134  -12.6993 S   0  0  0  0  0  0  0  0  0  0  0  0
   19.5423  -20.1579  -12.9573 C   0  0  0  0  0  0  0  0  0  0  0  0
   19.8344  -20.3109  -14.3086 O   0  0  0  0  0  0  0  0  0  0  0  0
   18.3378  -20.1881  -12.5976 O   0  0  0  0  0  0  0  0  0  0  0  0
  2  1  1  6
  2 13  1  0
  3  4  1  0
  3  2  1  0
  4 12  1  0
  4  5  2  0
  5  6  1  0
  7  8  2  0
  7  6  1  0
  9  8  1  0
 10  9  2  0
 11 10  1  0
 11 12  2  0
 12  7  1  0
 13 20  1  0
 13 14  2  0
 16 15  1  0
 16 17  2  0
 18 16  1  0
 19 18  1  6
 20 19  1  0
 21 19  1  0
 21 22  2  0
 23 21  1  0
 24 23  1  0
 24 25  1  6
 25 26  1  0
 27 24  1  0
 28 27  1  0
 29 27  2  0
M  END
$$$$
