WNC.pdb
     RDKit          3D

 29 30  0  0  1  0  0  0  0  0999 V2000
   25.7945  -27.4762  -19.5663 N   0  0  0  0  0  0  0  0  0  0  0  0
   26.5398  -28.1695  -18.5507 C   0  0  1  0  0  0  0  0  0  0  0  0
   26.2380  -27.7067  -17.1717 C   0  0  0  0  0  0  0  0  0  0  0  0
   26.4272  -26.2669  -16.9356 C   0  0  0  0  0  0  0  0  0  0  0  0
   25.4854  -25.3333  -16.5176 C   0  0  0  0  0  0  0  0  0  0  0  0
   26.0786  -24.1360  -16.3989 N   0  0  0  0  0  0  0  0  0  0  0  0
   27.3822  -24.2326  -16.7228 C   0  0  0  0  0  0  0  0  0  0  0  0
   28.3779  -23.2875  -16.7602 C   0  0  0  0  0  0  0  0  0  0  0  0
   29.6282  -23.7103  -17.1514 C   0  0  0  0  0  0  0  0  0  0  0  0
   29.8939  -25.0122  -17.4935 C   0  0  0  0  0  0  0  0  0  0  0  0
   28.8868  -25.9391  -17.4492 C   0  0  0  0  0  0  0  0  0  0  0  0
   27.6136  -25.5629  -17.0616 C   0  0  0  0  0  0  0  0  0  0  0  0
   26.3898  -29.6208  -18.7502 C   0  0  0  0  0  0  0  0  0  0  0  0
   25.3968  -30.0205  -19.4261 O   0  0  0  0  0  0  0  0  0  0  0  0
   28.2382  -33.1679  -21.0441 N   0  0  0  0  0  0  0  0  0  0  0  0
   29.0949  -33.0778  -19.8794 C   0  0  0  0  0  0  0  0  0  0  0  0
   30.2442  -33.5220  -20.0222 O   0  0  0  0  0  0  0  0  0  0  0  0
   28.6173  -32.4999  -18.6345 C   0  0  0  0  0  0  0  0  0  0  0  0
   27.2212  -31.9853  -18.6764 C   0  0  2  0  0  0  0  0  0  0  0  0
   27.2795  -30.5546  -18.2350 N   0  0  0  0  0  0  0  0  0  0  0  0
   26.3169  -32.6627  -17.7028 C   0  0  0  0  0  0  0  0  0  0  0  0
   26.3801  -32.2938  -16.4568 O   0  0  0  0  0  0  0  0  0  0  0  0
   25.3755  -33.6655  -17.9458 N   0  0  0  0  0  0  0  0  0  0  0  0
   24.4825  -34.1620  -16.8719 C   0  0  1  0  0  0  0  0  0  0  0  0
   23.1096  -34.4516  -17.4406 C   0  0  0  0  0  0  0  0  0  0  0  0
   22.1985  -32.9677  -17.8723 S   0  0  0  0  0  0  0  0  0  0  0  0
   25.0534  -35.4594  -16.4330 C   0  0  0  0  0  0  0  0  0  0  0  0
   24.9034  -35.9775  -15.1509 O   0  0  0  0  0  0  0  0  0  0  0  0
   25.7100  -36.1240  -17.2746 O   0  0  0  0  0  0  0  0  0  0  0  0
  2  1  1  6
  2 13  1  0
  3  4  1  0
  3  2  1  0
  4 12  1  0
  4  5  2  0
  5  6  1  0
  7  8  2  0
  7  6  1  0
  9  8  1  0
 10  9  2  0
 11 10  1  0
 11 12  2  0
 12  7  1  0
 13 20  1  0
 13 14  2  0
 16 15  1  0
 16 17  2  0
 18 16  1  0
 19 18  1  1
 20 19  1  0
 21 19  1  0
 21 22  2  0
 23 21  1  0
 24 23  1  0
 24 25  1  6
 25 26  1  0
 27 24  1  0
 28 27  1  0
 29 27  2  0
M  END
$$$$
