WNC.pdb
     RDKit          3D

 29 30  0  0  1  0  0  0  0  0999 V2000
   27.6491  -22.3806  -12.5428 N   0  0  0  0  0  0  0  0  0  0  0  0
   26.6875  -21.6246  -11.7870 C   0  0  1  0  0  0  0  0  0  0  0  0
   27.2387  -20.3731  -11.2066 C   0  0  0  0  0  0  0  0  0  0  0  0
   28.2450  -20.5595  -10.1495 C   0  0  0  0  0  0  0  0  0  0  0  0
   29.6030  -20.8220  -10.2922 C   0  0  0  0  0  0  0  0  0  0  0  0
   30.1653  -20.8920   -9.0763 N   0  0  0  0  0  0  0  0  0  0  0  0
   29.2347  -20.6872   -8.1247 C   0  0  0  0  0  0  0  0  0  0  0  0
   29.3291  -20.6721   -6.7548 C   0  0  0  0  0  0  0  0  0  0  0  0
   28.1697  -20.4409   -6.0497 C   0  0  0  0  0  0  0  0  0  0  0  0
   26.9609  -20.2318   -6.6643 C   0  0  0  0  0  0  0  0  0  0  0  0
   26.8886  -20.2506   -8.0317 C   0  0  0  0  0  0  0  0  0  0  0  0
   28.0266  -20.4781   -8.7840 C   0  0  0  0  0  0  0  0  0  0  0  0
   25.4770  -21.4331  -12.6033 C   0  0  0  0  0  0  0  0  0  0  0  0
   25.5327  -21.7685  -13.8228 O   0  0  0  0  0  0  0  0  0  0  0  0
   20.4782  -20.8449  -14.1125 N   0  0  0  0  0  0  0  0  0  0  0  0
   20.6025  -20.8420  -12.6692 C   0  0  0  0  0  0  0  0  0  0  0  0
   19.5355  -20.8801  -12.0379 O   0  0  0  0  0  0  0  0  0  0  0  0
   21.9040  -20.7971  -12.0242 C   0  0  0  0  0  0  0  0  0  0  0  0
   23.0664  -20.8377  -12.9531 C   0  0  2  0  0  0  0  0  0  0  0  0
   24.2948  -20.9077  -12.0980 N   0  0  0  0  0  0  0  0  0  0  0  0
   23.2168  -19.5918  -13.7593 C   0  0  0  0  0  0  0  0  0  0  0  0
   22.8481  -18.4686  -13.2162 O   0  0  0  0  0  0  0  0  0  0  0  0
   23.7196  -19.4523  -15.0549 N   0  0  0  0  0  0  0  0  0  0  0  0
   23.9078  -18.1166  -15.6697 C   0  0  1  0  0  0  0  0  0  0  0  0
   25.2081  -18.0883  -16.4447 C   0  0  0  0  0  0  0  0  0  0  0  0
   26.6029  -17.5363  -15.4608 S   0  0  0  0  0  0  0  0  0  0  0  0
   22.8105  -17.9628  -16.6566 C   0  0  0  0  0  0  0  0  0  0  0  0
   22.4189  -16.7417  -17.1953 O   0  0  0  0  0  0  0  0  0  0  0  0
   22.2034  -19.0014  -17.0228 O   0  0  0  0  0  0  0  0  0  0  0  0
  2  1  1  6
  2 13  1  0
  3  4  1  0
  3  2  1  0
  4 12  1  0
  4  5  2  0
  5  6  1  0
  7  8  2  0
  7  6  1  0
  9  8  1  0
 10  9  2  0
 11 10  1  0
 11 12  2  0
 12  7  1  0
 13 20  1  0
 13 14  2  0
 16 15  1  0
 16 17  2  0
 18 16  1  0
 19 18  1  1
 20 19  1  0
 21 19  1  0
 21 22  2  0
 23 21  1  0
 24 23  1  0
 24 25  1  6
 25 26  1  0
 27 24  1  0
 28 27  1  0
 29 27  2  0
M  END
$$$$
