WNC.pdb
     RDKit          3D

 29 30  0  0  1  0  0  0  0  0999 V2000
   22.0800  -13.4778  -17.1023 N   0  0  0  0  0  0  0  0  0  0  0  0
   22.8791  -12.2959  -16.9242 C   0  0  1  0  0  0  0  0  0  0  0  0
   24.1784  -12.3429  -17.6428 C   0  0  0  0  0  0  0  0  0  0  0  0
   25.0931  -13.4149  -17.2198 C   0  0  0  0  0  0  0  0  0  0  0  0
   24.8171  -14.7688  -17.0642 C   0  0  0  0  0  0  0  0  0  0  0  0
   25.9381  -15.4040  -16.6912 N   0  0  0  0  0  0  0  0  0  0  0  0
   26.9544  -14.5262  -16.5901 C   0  0  0  0  0  0  0  0  0  0  0  0
   28.2698  -14.7013  -16.2369 C   0  0  0  0  0  0  0  0  0  0  0  0
   29.0678  -13.5797  -16.2183 C   0  0  0  0  0  0  0  0  0  0  0  0
   28.5944  -12.3313  -16.5345 C   0  0  0  0  0  0  0  0  0  0  0  0
   27.2793  -12.1785  -16.8842 C   0  0  0  0  0  0  0  0  0  0  0  0
   26.4380  -13.2757  -16.9183 C   0  0  0  0  0  0  0  0  0  0  0  0
   22.0598  -11.1108  -17.2286 C   0  0  0  0  0  0  0  0  0  0  0  0
   21.2575  -11.1874  -18.2049 O   0  0  0  0  0  0  0  0  0  0  0  0
   17.5733   -8.2404  -16.6092 N   0  0  0  0  0  0  0  0  0  0  0  0
   18.9226   -8.1246  -17.1236 C   0  0  0  0  0  0  0  0  0  0  0  0
   19.1794   -7.0711  -17.7259 O   0  0  0  0  0  0  0  0  0  0  0  0
   19.8960   -9.1869  -16.9342 C   0  0  0  0  0  0  0  0  0  0  0  0
   21.3152   -8.7389  -16.9009 C   0  0  2  0  0  0  0  0  0  0  0  0
   22.1303   -9.9305  -16.5000 N   0  0  0  0  0  0  0  0  0  0  0  0
   21.5806   -7.7087  -15.8554 C   0  0  0  0  0  0  0  0  0  0  0  0
   21.4694   -8.0652  -14.6092 O   0  0  0  0  0  0  0  0  0  0  0  0
   21.9504   -6.3729  -16.0279 N   0  0  0  0  0  0  0  0  0  0  0  0
   22.1146   -5.4623  -14.8699 C   0  0  1  0  0  0  0  0  0  0  0  0
   22.7250   -4.1550  -15.3290 C   0  0  0  0  0  0  0  0  0  0  0  0
   22.7628   -2.9049  -14.0430 S   0  0  0  0  0  0  0  0  0  0  0  0
   20.7432   -5.1572  -14.3923 C   0  0  0  0  0  0  0  0  0  0  0  0
   20.3761   -5.1406  -13.0508 O   0  0  0  0  0  0  0  0  0  0  0  0
   19.8668   -4.8999  -15.2565 O   0  0  0  0  0  0  0  0  0  0  0  0
  2  1  1  6
  2 13  1  0
  3  4  1  0
  3  2  1  0
  4 12  1  0
  4  5  2  0
  5  6  1  0
  7  8  2  0
  7  6  1  0
  9  8  1  0
 10  9  2  0
 11 10  1  0
 11 12  2  0
 12  7  1  0
 13 20  1  0
 13 14  2  0
 16 15  1  0
 16 17  2  0
 18 16  1  0
 19 18  1  1
 20 19  1  0
 21 19  1  0
 21 22  2  0
 23 21  1  0
 24 23  1  0
 24 25  1  6
 25 26  1  0
 27 24  1  0
 28 27  1  0
 29 27  2  0
M  END
$$$$
