WNC.pdb
     RDKit          3D

 29 30  0  0  1  0  0  0  0  0999 V2000
   26.6586  -20.2411  -12.8297 N   0  0  0  0  0  0  0  0  0  0  0  0
   25.7110  -21.2577  -12.4608 C   0  0  1  0  0  0  0  0  0  0  0  0
   26.1830  -22.1401  -11.3629 C   0  0  0  0  0  0  0  0  0  0  0  0
   26.4610  -21.4629  -10.0866 C   0  0  0  0  0  0  0  0  0  0  0  0
   25.5536  -20.8942   -9.1998 C   0  0  0  0  0  0  0  0  0  0  0  0
   26.2211  -20.4063   -8.1435 N   0  0  0  0  0  0  0  0  0  0  0  0
   27.5416  -20.6261   -8.2901 C   0  0  0  0  0  0  0  0  0  0  0  0
   28.6073  -20.3052   -7.4856 C   0  0  0  0  0  0  0  0  0  0  0  0
   29.8590  -20.6654   -7.9311 C   0  0  0  0  0  0  0  0  0  0  0  0
   30.0598  -21.3166   -9.1220 C   0  0  0  0  0  0  0  0  0  0  0  0
   28.9834  -21.6275   -9.9093 C   0  0  0  0  0  0  0  0  0  0  0  0
   27.7055  -21.2871   -9.5042 C   0  0  0  0  0  0  0  0  0  0  0  0
   24.4025  -20.6290  -12.2139 C   0  0  0  0  0  0  0  0  0  0  0  0
   24.3807  -19.3791  -12.0137 O   0  0  0  0  0  0  0  0  0  0  0  0
   21.6183  -21.8273  -14.6239 N   0  0  0  0  0  0  0  0  0  0  0  0
   21.6302  -20.3821  -14.5255 C   0  0  0  0  0  0  0  0  0  0  0  0
   21.4850  -19.7695  -15.5942 O   0  0  0  0  0  0  0  0  0  0  0  0
   21.8026  -19.7145  -13.2462 C   0  0  0  0  0  0  0  0  0  0  0  0
   21.8990  -20.6239  -12.0718 C   0  0  2  0  0  0  0  0  0  0  0  0
   23.2097  -21.3400  -12.1921 N   0  0  0  0  0  0  0  0  0  0  0  0
   20.8616  -21.6956  -12.0730 C   0  0  0  0  0  0  0  0  0  0  0  0
   21.0492  -22.7217  -12.8505 O   0  0  0  0  0  0  0  0  0  0  0  0
   19.6811  -21.7612  -11.3294 N   0  0  0  0  0  0  0  0  0  0  0  0
   18.9649  -23.0437  -11.1306 C   0  0  1  0  0  0  0  0  0  0  0  0
   18.3450  -23.0752   -9.7496 C   0  0  0  0  0  0  0  0  0  0  0  0
   19.5556  -22.9555   -8.4311 S   0  0  0  0  0  0  0  0  0  0  0  0
   17.8484  -23.0438  -12.1079 C   0  0  0  0  0  0  0  0  0  0  0  0
   16.9961  -24.1244  -12.3100 O   0  0  0  0  0  0  0  0  0  0  0  0
   17.6681  -22.0030  -12.7901 O   0  0  0  0  0  0  0  0  0  0  0  0
  2  1  1  1
  2 13  1  0
  3  4  1  0
  3  2  1  0
  4 12  1  0
  4  5  2  0
  5  6  1  0
  7  8  2  0
  7  6  1  0
  9  8  1  0
 10  9  2  0
 11 10  1  0
 11 12  2  0
 12  7  1  0
 13 20  1  0
 13 14  2  0
 16 15  1  0
 16 17  2  0
 18 16  1  0
 19 18  1  6
 20 19  1  0
 21 19  1  0
 21 22  2  0
 23 21  1  0
 24 23  1  0
 24 25  1  1
 25 26  1  0
 27 24  1  0
 28 27  1  0
 29 27  2  0
M  END
$$$$
