WNC.pdb
     RDKit          3D

 29 30  0  0  1  0  0  0  0  0999 V2000
   28.8927  -21.7078  -10.9540 N   0  0  0  0  0  0  0  0  0  0  0  0
   27.6528  -21.2469  -10.3903 C   0  0  1  0  0  0  0  0  0  0  0  0
   27.8140  -20.1065   -9.4520 C   0  0  0  0  0  0  0  0  0  0  0  0
   28.7376  -20.3398   -8.3307 C   0  0  0  0  0  0  0  0  0  0  0  0
   30.0356  -20.8363   -8.3752 C   0  0  0  0  0  0  0  0  0  0  0  0
   30.5361  -20.8651   -7.1310 N   0  0  0  0  0  0  0  0  0  0  0  0
   29.6216  -20.4074   -6.2547 C   0  0  0  0  0  0  0  0  0  0  0  0
   29.6704  -20.2590   -4.8904 C   0  0  0  0  0  0  0  0  0  0  0  0
   28.5434  -19.7646   -4.2736 C   0  0  0  0  0  0  0  0  0  0  0  0
   27.4092  -19.4274   -4.9682 C   0  0  0  0  0  0  0  0  0  0  0  0
   27.3815  -19.5829   -6.3284 C   0  0  0  0  0  0  0  0  0  0  0  0
   28.4896  -20.0753   -6.9937 C   0  0  0  0  0  0  0  0  0  0  0  0
   26.6898  -21.0062  -11.4779 C   0  0  0  0  0  0  0  0  0  0  0  0
   27.1239  -20.4646  -12.5367 O   0  0  0  0  0  0  0  0  0  0  0  0
   24.0496  -24.6782  -14.7673 N   0  0  0  0  0  0  0  0  0  0  0  0
   24.0844  -23.3069  -14.3014 C   0  0  0  0  0  0  0  0  0  0  0  0
   23.6361  -22.4602  -15.0894 O   0  0  0  0  0  0  0  0  0  0  0  0
   24.6147  -22.9683  -12.9915 C   0  0  0  0  0  0  0  0  0  0  0  0
   24.5252  -21.5267  -12.6317 C   0  0  2  0  0  0  0  0  0  0  0  0
   25.3454  -21.3439  -11.3912 N   0  0  0  0  0  0  0  0  0  0  0  0
   23.1453  -21.0997  -12.2596 C   0  0  0  0  0  0  0  0  0  0  0  0
   22.6829  -21.4788  -11.1042 O   0  0  0  0  0  0  0  0  0  0  0  0
   22.2506  -20.3194  -12.9954 N   0  0  0  0  0  0  0  0  0  0  0  0
   20.8935  -20.0126  -12.4841 C   0  0  1  0  0  0  0  0  0  0  0  0
   20.5262  -18.5853  -12.8310 C   0  0  0  0  0  0  0  0  0  0  0  0
   18.9442  -18.0802  -12.1526 S   0  0  0  0  0  0  0  0  0  0  0  0
   19.9653  -20.8945  -13.2342 C   0  0  0  0  0  0  0  0  0  0  0  0
   18.7821  -21.4009  -12.7066 O   0  0  0  0  0  0  0  0  0  0  0  0
   20.2728  -21.1977  -14.4151 O   0  0  0  0  0  0  0  0  0  0  0  0
  2  1  1  6
  2 13  1  0
  3  4  1  0
  3  2  1  0
  4 12  1  0
  4  5  2  0
  5  6  1  0
  7  8  2  0
  7  6  1  0
  9  8  1  0
 10  9  2  0
 11 10  1  0
 11 12  2  0
 12  7  1  0
 13 20  1  0
 13 14  2  0
 16 15  1  0
 16 17  2  0
 18 16  1  0
 19 18  1  1
 20 19  1  0
 21 19  1  0
 21 22  2  0
 23 21  1  0
 24 23  1  0
 24 25  1  6
 25 26  1  0
 27 24  1  0
 28 27  1  0
 29 27  2  0
M  END
$$$$
