WNC.pdb
     RDKit          3D

 29 30  0  0  1  0  0  0  0  0999 V2000
   23.8437  -18.1910  -16.9814 N   0  0  0  0  0  0  0  0  0  0  0  0
   22.4477  -18.1053  -16.6478 C   0  0  1  0  0  0  0  0  0  0  0  0
   21.5502  -18.1478  -17.8308 C   0  0  0  0  0  0  0  0  0  0  0  0
   21.6551  -16.9974  -18.7420 C   0  0  0  0  0  0  0  0  0  0  0  0
   22.5408  -16.8155  -19.7984 C   0  0  0  0  0  0  0  0  0  0  0  0
   22.2804  -15.6403  -20.3905 N   0  0  0  0  0  0  0  0  0  0  0  0
   21.2542  -15.0279  -19.7697 C   0  0  0  0  0  0  0  0  0  0  0  0
   20.6435  -13.8209  -20.0065 C   0  0  0  0  0  0  0  0  0  0  0  0
   19.6084  -13.4681  -19.1705 C   0  0  0  0  0  0  0  0  0  0  0  0
   19.1863  -14.2688  -18.1394 C   0  0  0  0  0  0  0  0  0  0  0  0
   19.8087  -15.4688  -17.9204 C   0  0  0  0  0  0  0  0  0  0  0  0
   20.8534  -15.8677  -18.7343 C   0  0  0  0  0  0  0  0  0  0  0  0
   22.1376  -19.1076  -15.6146 C   0  0  0  0  0  0  0  0  0  0  0  0
   22.8575  -20.1481  -15.5718 O   0  0  0  0  0  0  0  0  0  0  0  0
   21.2109  -21.3468  -11.1401 N   0  0  0  0  0  0  0  0  0  0  0  0
   20.9319  -19.9255  -11.1121 C   0  0  0  0  0  0  0  0  0  0  0  0
   20.8568  -19.4148   -9.9842 O   0  0  0  0  0  0  0  0  0  0  0  0
   20.7555  -19.1670  -12.3391 C   0  0  0  0  0  0  0  0  0  0  0  0
   20.9203  -19.9535  -13.5921 C   0  0  2  0  0  0  0  0  0  0  0  0
   21.1035  -18.9605  -14.6991 N   0  0  0  0  0  0  0  0  0  0  0  0
   19.7034  -20.7340  -13.9590 C   0  0  0  0  0  0  0  0  0  0  0  0
   18.7142  -20.0936  -14.5101 O   0  0  0  0  0  0  0  0  0  0  0  0
   19.4679  -22.1012  -13.7963 N   0  0  0  0  0  0  0  0  0  0  0  0
   18.1725  -22.7117  -14.1789 C   0  0  1  0  0  0  0  0  0  0  0  0
   18.3121  -24.2184  -14.2311 C   0  0  0  0  0  0  0  0  0  0  0  0
   19.2291  -24.8895  -12.8430 S   0  0  0  0  0  0  0  0  0  0  0  0
   17.2321  -22.4007  -13.0739 C   0  0  0  0  0  0  0  0  0  0  0  0
   15.8532  -22.5599  -13.1627 O   0  0  0  0  0  0  0  0  0  0  0  0
   17.7172  -21.9683  -11.9974 O   0  0  0  0  0  0  0  0  0  0  0  0
  2  1  1  6
  2 13  1  0
  3  4  1  0
  3  2  1  0
  4 12  1  0
  4  5  2  0
  5  6  1  0
  7  8  2  0
  7  6  1  0
  9  8  1  0
 10  9  2  0
 11 10  1  0
 11 12  2  0
 12  7  1  0
 13 20  1  0
 13 14  2  0
 16 15  1  0
 16 17  2  0
 18 16  1  0
 19 18  1  1
 20 19  1  0
 21 19  1  0
 21 22  2  0
 23 21  1  0
 24 23  1  0
 24 25  1  1
 25 26  1  0
 27 24  1  0
 28 27  1  0
 29 27  2  0
M  END
$$$$
