WNC.pdb
     RDKit          3D

 29 30  0  0  1  0  0  0  0  0999 V2000
   26.6721  -19.5312  -16.4471 N   0  0  0  0  0  0  0  0  0  0  0  0
   25.7794  -18.9601  -15.4752 C   0  0  1  0  0  0  0  0  0  0  0  0
   24.7879  -18.0203  -16.0588 C   0  0  0  0  0  0  0  0  0  0  0  0
   25.3577  -16.8915  -16.8112 C   0  0  0  0  0  0  0  0  0  0  0  0
   25.1334  -16.5424  -18.1383 C   0  0  0  0  0  0  0  0  0  0  0  0
   25.8257  -15.4287  -18.4209 N   0  0  0  0  0  0  0  0  0  0  0  0
   26.5059  -15.0194  -17.3331 C   0  0  0  0  0  0  0  0  0  0  0  0
   27.3463  -13.9506  -17.1404 C   0  0  0  0  0  0  0  0  0  0  0  0
   27.9049  -13.8106  -15.8900 C   0  0  0  0  0  0  0  0  0  0  0  0
   27.6492  -14.6860  -14.8649 C   0  0  0  0  0  0  0  0  0  0  0  0
   26.8079  -15.7453  -15.0780 C   0  0  0  0  0  0  0  0  0  0  0  0
   26.2217  -15.9279  -16.3173 C   0  0  0  0  0  0  0  0  0  0  0  0
   25.1888  -20.0422  -14.6699 C   0  0  0  0  0  0  0  0  0  0  0  0
   25.7307  -21.1846  -14.7350 O   0  0  0  0  0  0  0  0  0  0  0  0
   26.2201  -22.5569  -12.3575 N   0  0  0  0  0  0  0  0  0  0  0  0
   26.1968  -21.1592  -11.9775 C   0  0  0  0  0  0  0  0  0  0  0  0
   27.3037  -20.6043  -11.9023 O   0  0  0  0  0  0  0  0  0  0  0  0
   24.9455  -20.4717  -11.7067 C   0  0  0  0  0  0  0  0  0  0  0  0
   23.8505  -20.7575  -12.6737 C   0  0  2  0  0  0  0  0  0  0  0  0
   24.0788  -19.8638  -13.8545 N   0  0  0  0  0  0  0  0  0  0  0  0
   22.5005  -20.3911  -12.1560 C   0  0  0  0  0  0  0  0  0  0  0  0
   22.1024  -20.9479  -11.0497 O   0  0  0  0  0  0  0  0  0  0  0  0
   21.5736  -19.5010  -12.7035 N   0  0  0  0  0  0  0  0  0  0  0  0
   20.1970  -19.9331  -13.0434 C   0  0  1  0  0  0  0  0  0  0  0  0
   19.9479  -19.7314  -14.5231 C   0  0  0  0  0  0  0  0  0  0  0  0
   20.4989  -18.1315  -15.1188 S   0  0  0  0  0  0  0  0  0  0  0  0
   20.1534  -21.3947  -12.7909 C   0  0  0  0  0  0  0  0  0  0  0  0
   19.2784  -22.0000  -11.8950 O   0  0  0  0  0  0  0  0  0  0  0  0
   20.9575  -22.1224  -13.4273 O   0  0  0  0  0  0  0  0  0  0  0  0
  2  1  1  6
  2 13  1  0
  3  4  1  0
  3  2  1  0
  4 12  1  0
  4  5  2  0
  5  6  1  0
  7  8  2  0
  7  6  1  0
  9  8  1  0
 10  9  2  0
 11 10  1  0
 11 12  2  0
 12  7  1  0
 13 20  1  0
 13 14  2  0
 16 15  1  0
 16 17  2  0
 18 16  1  0
 19 18  1  1
 20 19  1  0
 21 19  1  0
 21 22  2  0
 23 21  1  0
 24 23  1  0
 24 25  1  6
 25 26  1  0
 27 24  1  0
 28 27  1  0
 29 27  2  0
M  END
$$$$
