WNC.pdb
     RDKit          3D

 29 30  0  0  1  0  0  0  0  0999 V2000
   27.0906  -22.8050  -14.9310 N   0  0  0  0  0  0  0  0  0  0  0  0
   25.9426  -22.4481  -14.1422 C   0  0  1  0  0  0  0  0  0  0  0  0
   26.0014  -21.0670  -13.5981 C   0  0  0  0  0  0  0  0  0  0  0  0
   27.0241  -20.8407  -12.5648 C   0  0  0  0  0  0  0  0  0  0  0  0
   28.3475  -20.4500  -12.7361 C   0  0  0  0  0  0  0  0  0  0  0  0
   28.9281  -20.3310  -11.5327 N   0  0  0  0  0  0  0  0  0  0  0  0
   28.0434  -20.6284  -10.5619 C   0  0  0  0  0  0  0  0  0  0  0  0
   28.1746  -20.6553   -9.1952 C   0  0  0  0  0  0  0  0  0  0  0  0
   27.0644  -21.0179   -8.4665 C   0  0  0  0  0  0  0  0  0  0  0  0
   25.8684  -21.3425   -9.0554 C   0  0  0  0  0  0  0  0  0  0  0  0
   25.7587  -21.3092  -10.4200 C   0  0  0  0  0  0  0  0  0  0  0  0
   26.8463  -20.9501  -11.1953 C   0  0  0  0  0  0  0  0  0  0  0  0
   24.7209  -22.7470  -14.9079 C   0  0  0  0  0  0  0  0  0  0  0  0
   24.6772  -22.3667  -16.1147 O   0  0  0  0  0  0  0  0  0  0  0  0
   23.6437  -25.5567  -17.2012 N   0  0  0  0  0  0  0  0  0  0  0  0
   22.9906  -26.1463  -16.0503 C   0  0  0  0  0  0  0  0  0  0  0  0
   23.0252  -27.3847  -15.9888 O   0  0  0  0  0  0  0  0  0  0  0  0
   22.3431  -25.3205  -15.0450 C   0  0  0  0  0  0  0  0  0  0  0  0
   22.4960  -23.8534  -15.2447 C   0  0  2  0  0  0  0  0  0  0  0  0
   23.6314  -23.4187  -14.3688 N   0  0  0  0  0  0  0  0  0  0  0  0
   21.3148  -23.0717  -14.7774 C   0  0  0  0  0  0  0  0  0  0  0  0
   20.2461  -23.0839  -15.5192 O   0  0  0  0  0  0  0  0  0  0  0  0
   21.1845  -22.3080  -13.6152 N   0  0  0  0  0  0  0  0  0  0  0  0
   19.9262  -21.5902  -13.3008 C   0  0  1  0  0  0  0  0  0  0  0  0
   19.9301  -21.1621  -11.8486 C   0  0  0  0  0  0  0  0  0  0  0  0
   20.2278  -22.5199  -10.7146 S   0  0  0  0  0  0  0  0  0  0  0  0
   19.9468  -20.3522  -14.1186 C   0  0  0  0  0  0  0  0  0  0  0  0
   18.8031  -19.6692  -14.5188 O   0  0  0  0  0  0  0  0  0  0  0  0
   21.0672  -19.8998  -14.4667 O   0  0  0  0  0  0  0  0  0  0  0  0
  2  1  1  6
  2 13  1  0
  3  4  1  0
  3  2  1  0
  4 12  1  0
  4  5  2  0
  5  6  1  0
  7  8  2  0
  7  6  1  0
  9  8  1  0
 10  9  2  0
 11 10  1  0
 11 12  2  0
 12  7  1  0
 13 20  1  0
 13 14  2  0
 16 15  1  0
 16 17  2  0
 18 16  1  0
 19 18  1  1
 20 19  1  0
 21 19  1  0
 21 22  2  0
 23 21  1  0
 24 23  1  0
 24 25  1  1
 25 26  1  0
 27 24  1  0
 28 27  1  0
 29 27  2  0
M  END
$$$$
