WNC.pdb
     RDKit          3D

 29 30  0  0  1  0  0  0  0  0999 V2000
   16.2182  -14.0583    3.2982 N   0  0  0  0  0  0  0  0  0  0  0  0
   16.8681  -15.3397    3.2415 C   0  0  1  0  0  0  0  0  0  0  0  0
   18.2411  -15.2854    2.6770 C   0  0  0  0  0  0  0  0  0  0  0  0
   18.6626  -16.4814    1.9310 C   0  0  0  0  0  0  0  0  0  0  0  0
   17.8731  -17.5277    1.4670 C   0  0  0  0  0  0  0  0  0  0  0  0
   18.6486  -18.4035    0.8106 N   0  0  0  0  0  0  0  0  0  0  0  0
   19.9281  -17.9836    0.8183 C   0  0  0  0  0  0  0  0  0  0  0  0
   21.0667  -18.5407    0.2903 C   0  0  0  0  0  0  0  0  0  0  0  0
   22.2458  -17.8566    0.4822 C   0  0  0  0  0  0  0  0  0  0  0  0
   22.3074  -16.6691    1.1668 C   0  0  0  0  0  0  0  0  0  0  0  0
   21.1601  -16.1304    1.6853 C   0  0  0  0  0  0  0  0  0  0  0  0
   19.9507  -16.7802    1.5179 C   0  0  0  0  0  0  0  0  0  0  0  0
   16.7804  -15.9826    4.5633 C   0  0  0  0  0  0  0  0  0  0  0  0
   16.9526  -15.2526    5.5832 O   0  0  0  0  0  0  0  0  0  0  0  0
   15.8305  -19.2704    8.5268 N   0  0  0  0  0  0  0  0  0  0  0  0
   15.2690  -19.7619    7.2851 C   0  0  0  0  0  0  0  0  0  0  0  0
   14.5278  -20.7515    7.3852 O   0  0  0  0  0  0  0  0  0  0  0  0
   15.5685  -19.1209    6.0158 C   0  0  0  0  0  0  0  0  0  0  0  0
   16.4586  -17.9314    6.1081 C   0  0  2  0  0  0  0  0  0  0  0  0
   16.5207  -17.3362    4.7344 N   0  0  0  0  0  0  0  0  0  0  0  0
   17.8678  -18.2787    6.4523 C   0  0  0  0  0  0  0  0  0  0  0  0
   18.6306  -18.7342    5.5020 O   0  0  0  0  0  0  0  0  0  0  0  0
   18.5096  -18.1753    7.6885 N   0  0  0  0  0  0  0  0  0  0  0  0
   19.9076  -18.6324    7.8725 C   0  0  1  0  0  0  0  0  0  0  0  0
   20.6566  -17.6499    8.7477 C   0  0  0  0  0  0  0  0  0  0  0  0
   22.2265  -18.2865    9.3378 S   0  0  0  0  0  0  0  0  0  0  0  0
   19.8245  -19.9086    8.6250 C   0  0  0  0  0  0  0  0  0  0  0  0
   20.7323  -20.9527    8.4817 O   0  0  0  0  0  0  0  0  0  0  0  0
   18.8752  -20.0475    9.4378 O   0  0  0  0  0  0  0  0  0  0  0  0
  2  1  1  1
  2 13  1  0
  3  4  1  0
  3  2  1  0
  4 12  1  0
  4  5  2  0
  5  6  1  0
  7  8  2  0
  7  6  1  0
  9  8  1  0
 10  9  2  0
 11 10  1  0
 11 12  2  0
 12  7  1  0
 13 20  1  0
 13 14  2  0
 16 15  1  0
 16 17  2  0
 18 16  1  0
 19 18  1  6
 20 19  1  0
 21 19  1  0
 21 22  2  0
 23 21  1  0
 24 23  1  0
 24 25  1  1
 25 26  1  0
 27 24  1  0
 28 27  1  0
 29 27  2  0
M  END
$$$$
