WNC.pdb
     RDKit          3D

 29 30  0  0  1  0  0  0  0  0999 V2000
   19.6466  -17.9364  -17.3618 N   0  0  0  0  0  0  0  0  0  0  0  0
   21.0018  -18.3772  -17.1712 C   0  0  1  0  0  0  0  0  0  0  0  0
   21.9833  -17.6724  -18.0354 C   0  0  0  0  0  0  0  0  0  0  0  0
   21.6850  -17.6968  -19.4760 C   0  0  0  0  0  0  0  0  0  0  0  0
   21.6398  -18.7963  -20.3259 C   0  0  0  0  0  0  0  0  0  0  0  0
   21.3025  -18.3842  -21.5571 N   0  0  0  0  0  0  0  0  0  0  0  0
   21.1210  -17.0499  -21.5638 C   0  0  0  0  0  0  0  0  0  0  0  0
   20.7811  -16.1878  -22.5773 C   0  0  0  0  0  0  0  0  0  0  0  0
   20.6839  -14.8524  -22.2573 C   0  0  0  0  0  0  0  0  0  0  0  0
   20.9113  -14.3783  -20.9900 C   0  0  0  0  0  0  0  0  0  0  0  0
   21.2489  -15.2550  -19.9936 C   0  0  0  0  0  0  0  0  0  0  0  0
   21.3582  -16.6066  -20.2656 C   0  0  0  0  0  0  0  0  0  0  0  0
   21.3222  -18.3406  -15.7344 C   0  0  0  0  0  0  0  0  0  0  0  0
   20.6649  -17.5395  -15.0072 O   0  0  0  0  0  0  0  0  0  0  0  0
   20.6864  -21.6902  -11.4876 N   0  0  0  0  0  0  0  0  0  0  0  0
   20.8860  -20.3163  -11.9010 C   0  0  0  0  0  0  0  0  0  0  0  0
   20.9295  -19.4805  -10.9854 O   0  0  0  0  0  0  0  0  0  0  0  0
   21.0243  -19.9630  -13.3038 C   0  0  0  0  0  0  0  0  0  0  0  0
   22.3289  -19.3470  -13.6702 C   0  0  2  0  0  0  0  0  0  0  0  0
   22.3008  -19.1366  -15.1534 N   0  0  0  0  0  0  0  0  0  0  0  0
   23.4926  -20.2461  -13.4206 C   0  0  0  0  0  0  0  0  0  0  0  0
   23.6536  -21.2654  -14.2128 O   0  0  0  0  0  0  0  0  0  0  0  0
   24.4712  -20.1436  -12.4292 N   0  0  0  0  0  0  0  0  0  0  0  0
   25.5373  -21.1639  -12.2892 C   0  0  1  0  0  0  0  0  0  0  0  0
   26.4410  -20.8042  -11.1290 C   0  0  0  0  0  0  0  0  0  0  0  0
   25.5395  -20.4216   -9.6260 S   0  0  0  0  0  0  0  0  0  0  0  0
   24.8485  -22.4275  -11.9277 C   0  0  0  0  0  0  0  0  0  0  0  0
   23.4962  -22.5096  -11.6125 O   0  0  0  0  0  0  0  0  0  0  0  0
   25.5335  -23.4818  -11.9069 O   0  0  0  0  0  0  0  0  0  0  0  0
  2  1  1  1
  2 13  1  0
  3  4  1  0
  3  2  1  0
  4 12  1  0
  4  5  2  0
  5  6  1  0
  7  8  2  0
  7  6  1  0
  9  8  1  0
 10  9  2  0
 11 10  1  0
 11 12  2  0
 12  7  1  0
 13 20  1  0
 13 14  2  0
 16 15  1  0
 16 17  2  0
 18 16  1  0
 19 18  1  6
 20 19  1  0
 21 19  1  0
 21 22  2  0
 23 21  1  0
 24 23  1  0
 24 25  1  1
 25 26  1  0
 27 24  1  0
 28 27  1  0
 29 27  2  0
M  END
$$$$
