WNC.pdb
     RDKit          3D

 29 30  0  0  1  0  0  0  0  0999 V2000
   26.9799  -19.5655  -11.9572 N   0  0  0  0  0  0  0  0  0  0  0  0
   26.4623  -20.9038  -11.8655 C   0  0  1  0  0  0  0  0  0  0  0  0
   26.1313  -21.3194  -10.4782 C   0  0  0  0  0  0  0  0  0  0  0  0
   27.1374  -20.9754   -9.4612 C   0  0  0  0  0  0  0  0  0  0  0  0
   26.9827  -20.1735   -8.3358 C   0  0  0  0  0  0  0  0  0  0  0  0
   28.1399  -20.1425   -7.6581 N   0  0  0  0  0  0  0  0  0  0  0  0
   29.0641  -20.8928   -8.2879 C   0  0  0  0  0  0  0  0  0  0  0  0
   30.3772  -21.1551   -7.9837 C   0  0  0  0  0  0  0  0  0  0  0  0
   31.0708  -21.9679   -8.8517 C   0  0  0  0  0  0  0  0  0  0  0  0
   30.4986  -22.5048   -9.9772 C   0  0  0  0  0  0  0  0  0  0  0  0
   29.1875  -22.2309  -10.2622 C   0  0  0  0  0  0  0  0  0  0  0  0
   28.4487  -21.4199   -9.4199 C   0  0  0  0  0  0  0  0  0  0  0  0
   25.3565  -21.0588  -12.8255 C   0  0  0  0  0  0  0  0  0  0  0  0
   24.6971  -20.0227  -13.1330 O   0  0  0  0  0  0  0  0  0  0  0  0
   26.3480  -24.5572  -16.0980 N   0  0  0  0  0  0  0  0  0  0  0  0
   25.3385  -23.5183  -16.1030 C   0  0  0  0  0  0  0  0  0  0  0  0
   25.5307  -22.5861  -16.8985 O   0  0  0  0  0  0  0  0  0  0  0  0
   24.1830  -23.5849  -15.2242 C   0  0  0  0  0  0  0  0  0  0  0  0
   23.9275  -22.3526  -14.4291 C   0  0  2  0  0  0  0  0  0  0  0  0
   25.0125  -22.2762  -13.3986 N   0  0  0  0  0  0  0  0  0  0  0  0
   22.6524  -22.4066  -13.6572 C   0  0  0  0  0  0  0  0  0  0  0  0
   22.2954  -23.5516  -13.1532 O   0  0  0  0  0  0  0  0  0  0  0  0
   21.7598  -21.3679  -13.3827 N   0  0  0  0  0  0  0  0  0  0  0  0
   20.4756  -21.6183  -12.6860 C   0  0  1  0  0  0  0  0  0  0  0  0
   19.8618  -20.3029  -12.2554 C   0  0  0  0  0  0  0  0  0  0  0  0
   20.9181  -19.3594  -11.1544 S   0  0  0  0  0  0  0  0  0  0  0  0
   19.5686  -22.2093  -13.7008 C   0  0  0  0  0  0  0  0  0  0  0  0
   18.4647  -22.9958  -13.3886 O   0  0  0  0  0  0  0  0  0  0  0  0
   19.8187  -21.9817  -14.9120 O   0  0  0  0  0  0  0  0  0  0  0  0
  2  1  1  1
  2 13  1  0
  3  4  1  0
  3  2  1  0
  4 12  1  0
  4  5  2  0
  5  6  1  0
  7  8  2  0
  7  6  1  0
  9  8  1  0
 10  9  2  0
 11 10  1  0
 11 12  2  0
 12  7  1  0
 13 20  1  0
 13 14  2  0
 16 15  1  0
 16 17  2  0
 18 16  1  0
 19 18  1  1
 20 19  1  0
 21 19  1  0
 21 22  2  0
 23 21  1  0
 24 23  1  0
 24 25  1  6
 25 26  1  0
 27 24  1  0
 28 27  1  0
 29 27  2  0
M  END
$$$$
