WNC.pdb
     RDKit          3D

 29 30  0  0  1  0  0  0  0  0999 V2000
   23.4200  -19.7153  -18.4312 N   0  0  0  0  0  0  0  0  0  0  0  0
   22.3747  -18.8817  -17.9022 C   0  0  1  0  0  0  0  0  0  0  0  0
   21.3955  -18.4345  -18.9259 C   0  0  0  0  0  0  0  0  0  0  0  0
   21.9573  -17.6390  -20.0289 C   0  0  0  0  0  0  0  0  0  0  0  0
   22.1969  -18.0358  -21.3398 C   0  0  0  0  0  0  0  0  0  0  0  0
   22.6892  -16.9955  -22.0289 N   0  0  0  0  0  0  0  0  0  0  0  0
   22.7893  -15.9172  -21.2284 C   0  0  0  0  0  0  0  0  0  0  0  0
   23.2395  -14.6440  -21.4773 C   0  0  0  0  0  0  0  0  0  0  0  0
   23.2249  -13.7575  -20.4242 C   0  0  0  0  0  0  0  0  0  0  0  0
   22.7847  -14.1056  -19.1721 C   0  0  0  0  0  0  0  0  0  0  0  0
   22.3396  -15.3806  -18.9452 C   0  0  0  0  0  0  0  0  0  0  0  0
   22.3342  -16.3072  -19.9719 C   0  0  0  0  0  0  0  0  0  0  0  0
   21.7715  -19.5485  -16.7360 C   0  0  0  0  0  0  0  0  0  0  0  0
   21.8876  -20.8065  -16.6545 O   0  0  0  0  0  0  0  0  0  0  0  0
   19.6462  -20.5856  -12.0516 N   0  0  0  0  0  0  0  0  0  0  0  0
   20.2587  -19.2744  -12.1159 C   0  0  0  0  0  0  0  0  0  0  0  0
   20.3724  -18.6808  -11.0327 O   0  0  0  0  0  0  0  0  0  0  0  0
   20.7042  -18.7109  -13.3791 C   0  0  0  0  0  0  0  0  0  0  0  0
   20.5264  -19.5996  -14.5600 C   0  0  2  0  0  0  0  0  0  0  0  0
   21.0907  -18.8643  -15.7373 N   0  0  0  0  0  0  0  0  0  0  0  0
   19.0947  -19.8467  -14.8978 C   0  0  0  0  0  0  0  0  0  0  0  0
   18.4262  -18.8794  -15.4546 O   0  0  0  0  0  0  0  0  0  0  0  0
   18.3452  -21.0088  -14.7017 N   0  0  0  0  0  0  0  0  0  0  0  0
   16.9168  -21.0804  -15.0913 C   0  0  1  0  0  0  0  0  0  0  0  0
   16.4777  -22.5276  -15.1634 C   0  0  0  0  0  0  0  0  0  0  0  0
   17.4426  -23.4998  -16.3218 S   0  0  0  0  0  0  0  0  0  0  0  0
   16.1587  -20.4513  -13.9816 C   0  0  0  0  0  0  0  0  0  0  0  0
   14.8839  -19.9130  -14.1222 O   0  0  0  0  0  0  0  0  0  0  0  0
   16.7069  -20.4055  -12.8509 O   0  0  0  0  0  0  0  0  0  0  0  0
  2  1  1  6
  2 13  1  0
  3  4  1  0
  3  2  1  0
  4 12  1  0
  4  5  2  0
  5  6  1  0
  7  8  2  0
  7  6  1  0
  9  8  1  0
 10  9  2  0
 11 10  1  0
 11 12  2  0
 12  7  1  0
 13 20  1  0
 13 14  2  0
 16 15  1  0
 16 17  2  0
 18 16  1  0
 19 18  1  1
 20 19  1  0
 21 19  1  0
 21 22  2  0
 23 21  1  0
 24 23  1  0
 24 25  1  1
 25 26  1  0
 27 24  1  0
 28 27  1  0
 29 27  2  0
M  END
$$$$
