WNC.pdb
     RDKit          3D

 29 30  0  0  1  0  0  0  0  0999 V2000
   28.1220  -22.4851  -14.4452 N   0  0  0  0  0  0  0  0  0  0  0  0
   26.9995  -22.0609  -13.6531 C   0  0  1  0  0  0  0  0  0  0  0  0
   27.1572  -20.6996  -13.0796 C   0  0  0  0  0  0  0  0  0  0  0  0
   27.9434  -20.6270  -11.8381 C   0  0  0  0  0  0  0  0  0  0  0  0
   29.3260  -20.6561  -11.6932 C   0  0  0  0  0  0  0  0  0  0  0  0
   29.6325  -20.5355  -10.3928 N   0  0  0  0  0  0  0  0  0  0  0  0
   28.5070  -20.4277   -9.6613 C   0  0  0  0  0  0  0  0  0  0  0  0
   28.3166  -20.2946   -8.3078 C   0  0  0  0  0  0  0  0  0  0  0  0
   27.0161  -20.2195   -7.8628 C   0  0  0  0  0  0  0  0  0  0  0  0
   25.9405  -20.2726   -8.7130 C   0  0  0  0  0  0  0  0  0  0  0  0
   26.1523  -20.4053  -10.0594 C   0  0  0  0  0  0  0  0  0  0  0  0
   27.4411  -20.4842  -10.5550 C   0  0  0  0  0  0  0  0  0  0  0  0
   25.7630  -22.2528  -14.4293 C   0  0  0  0  0  0  0  0  0  0  0  0
   25.8449  -22.1800  -15.6906 O   0  0  0  0  0  0  0  0  0  0  0  0
   22.1225  -26.1458  -15.6041 N   0  0  0  0  0  0  0  0  0  0  0  0
   21.9134  -25.0377  -14.6947 C   0  0  0  0  0  0  0  0  0  0  0  0
   20.7310  -24.7152  -14.5036 O   0  0  0  0  0  0  0  0  0  0  0  0
   23.0320  -24.3624  -14.0587 C   0  0  0  0  0  0  0  0  0  0  0  0
   23.3969  -23.0503  -14.6598 C   0  0  2  0  0  0  0  0  0  0  0  0
   24.5295  -22.5063  -13.8435 N   0  0  0  0  0  0  0  0  0  0  0  0
   22.3100  -22.0343  -14.5541 C   0  0  0  0  0  0  0  0  0  0  0  0
   22.0526  -21.5400  -13.3786 O   0  0  0  0  0  0  0  0  0  0  0  0
   21.5062  -21.5148  -15.5715 N   0  0  0  0  0  0  0  0  0  0  0  0
   20.4519  -20.5128  -15.2859 C   0  0  1  0  0  0  0  0  0  0  0  0
   20.1139  -19.7508  -16.5498 C   0  0  0  0  0  0  0  0  0  0  0  0
   21.4207  -18.6385  -17.0726 S   0  0  0  0  0  0  0  0  0  0  0  0
   19.2435  -21.2872  -14.9093 C   0  0  0  0  0  0  0  0  0  0  0  0
   18.3313  -20.8775  -13.9425 O   0  0  0  0  0  0  0  0  0  0  0  0
   19.0385  -22.3765  -15.5029 O   0  0  0  0  0  0  0  0  0  0  0  0
  2  1  1  6
  2 13  1  0
  3  4  1  0
  3  2  1  0
  4 12  1  0
  4  5  2  0
  5  6  1  0
  7  8  2  0
  7  6  1  0
  9  8  1  0
 10  9  2  0
 11 10  1  0
 11 12  2  0
 12  7  1  0
 13 20  1  0
 13 14  2  0
 16 15  1  0
 16 17  2  0
 18 16  1  0
 19 18  1  1
 20 19  1  0
 21 19  1  0
 21 22  2  0
 23 21  1  0
 24 23  1  0
 24 25  1  6
 25 26  1  0
 27 24  1  0
 28 27  1  0
 29 27  2  0
M  END
$$$$
