KQF.pdb
     RDKit          3D

 30 30  0  0  1  0  0  0  0  0999 V2000
    6.6785  -19.8102   20.4041 N   0  0  0  0  0  0  0  0  0  0  0  0
    6.3239  -18.8623   21.4552 C   0  0  1  0  0  0  0  0  0  0  0  0
    6.6051  -19.4288   22.8041 C   0  0  0  0  0  0  0  0  0  0  0  0
    6.5061  -20.8806   22.9804 C   0  0  0  0  0  0  0  0  0  0  0  0
    5.6737  -21.4812   24.0301 C   0  0  0  0  0  0  0  0  0  0  0  0
    5.6620  -22.9689   24.1602 C   0  0  0  0  0  0  0  0  0  0  0  0
    4.8060  -23.5704   23.1669 N   0  0  0  0  0  0  0  0  0  0  0  0
    7.2687  -17.6694   21.2790 C   0  0  0  0  0  0  0  0  0  0  0  0
    8.4188  -17.9821   20.8447 O   0  0  0  0  0  0  0  0  0  0  0  0
    7.9130  -12.7839   18.1308 N   0  0  0  0  0  0  0  0  0  0  0  0
    8.6228  -12.8119   19.3558 C   0  0  0  0  0  0  0  0  0  0  0  0
    9.8942  -12.7729   19.2979 O   0  0  0  0  0  0  0  0  0  0  0  0
    7.9064  -12.8779   20.6377 C   0  0  0  0  0  0  0  0  0  0  0  0
    7.1062  -14.0853   20.8724 C   0  0  0  0  0  0  0  0  0  0  0  0
    7.8289  -15.2636   21.4341 C   0  0  2  0  0  0  0  0  0  0  0  0
    6.8561  -16.3739   21.5801 N   0  0  0  0  0  0  0  0  0  0  0  0
    8.5599  -15.1224   22.6768 C   0  0  0  0  0  0  0  0  0  0  0  0
    9.5648  -14.3545   22.7382 O   0  0  0  0  0  0  0  0  0  0  0  0
    8.1979  -15.8125   23.8494 N   0  0  0  0  0  0  0  0  0  0  0  0
    8.8647  -15.5166   25.1196 C   0  0  1  0  0  0  0  0  0  0  0  0
    7.7488  -15.3355   26.1536 C   0  0  0  0  0  0  0  0  0  0  0  0
    7.2511  -13.9585   26.1439 C   0  0  0  0  0  0  0  0  0  0  0  0
    5.8743  -13.7528   26.1526 C   0  0  0  0  0  0  0  0  0  0  0  0
    5.3217  -12.4906   26.1507 C   0  0  0  0  0  0  0  0  0  0  0  0
    6.1288  -11.3715   26.1402 C   0  0  0  0  0  0  0  0  0  0  0  0
    7.4834  -11.5466   26.1320 C   0  0  0  0  0  0  0  0  0  0  0  0
    8.0400  -12.8202   26.1340 C   0  0  0  0  0  0  0  0  0  0  0  0
    9.7532  -16.6357   25.4643 C   0  0  0  0  0  0  0  0  0  0  0  0
   10.5737  -16.6187   26.5905 O   0  0  0  0  0  0  0  0  0  0  0  0
    9.7923  -17.6584   24.7280 O   0  0  0  0  0  0  0  0  0  0  0  0
  2  1  1  6
  2  3  1  0
  4  3  1  0
  5  4  1  0
  6  5  1  0
  7  6  1  0
  8  2  1  0
  9  8  2  0
 10 11  1  0
 11 12  2  0
 11 13  1  0
 13 14  1  0
 15 14  1  1
 15 16  1  0
 16  8  1  0
 17 15  1  0
 17 18  2  0
 19 17  1  0
 20 19  1  0
 20 28  1  0
 20 21  1  1
 22 21  1  0
 22 23  2  0
 24 23  1  0
 25 24  2  0
 26 27  2  0
 26 25  1  0
 27 22  1  0
 28 29  1  0
 30 28  2  0
M  END
$$$$
