KQF.pdb
     RDKit          3D

 30 30  0  0  1  0  0  0  0  0999 V2000
    6.5914  -18.8515   19.5142 N   0  0  0  0  0  0  0  0  0  0  0  0
    6.8663  -18.8419   20.9472 C   0  0  1  0  0  0  0  0  0  0  0  0
    7.5049  -20.1170   21.3783 C   0  0  0  0  0  0  0  0  0  0  0  0
    6.7088  -21.3463   21.3168 C   0  0  0  0  0  0  0  0  0  0  0  0
    6.1246  -21.9549   22.5184 C   0  0  0  0  0  0  0  0  0  0  0  0
    5.4491  -23.2800   22.3842 C   0  0  0  0  0  0  0  0  0  0  0  0
    4.8677  -23.6959   23.6372 N   0  0  0  0  0  0  0  0  0  0  0  0
    7.9063  -17.7389   21.1664 C   0  0  0  0  0  0  0  0  0  0  0  0
    9.0934  -18.0857   20.8839 O   0  0  0  0  0  0  0  0  0  0  0  0
    8.0358  -12.0122   19.2934 N   0  0  0  0  0  0  0  0  0  0  0  0
    7.9291  -13.3088   18.7344 C   0  0  0  0  0  0  0  0  0  0  0  0
    7.7039  -13.3916   17.4839 O   0  0  0  0  0  0  0  0  0  0  0  0
    8.0803  -14.5044   19.5762 C   0  0  0  0  0  0  0  0  0  0  0  0
    8.2541  -14.2681   21.0139 C   0  0  0  0  0  0  0  0  0  0  0  0
    8.5875  -15.4592   21.8483 C   0  0  2  0  0  0  0  0  0  0  0  0
    7.5339  -16.4812   21.6341 N   0  0  0  0  0  0  0  0  0  0  0  0
    8.7894  -15.2943   23.2733 C   0  0  0  0  0  0  0  0  0  0  0  0
    9.6864  -14.5093   23.7005 O   0  0  0  0  0  0  0  0  0  0  0  0
    8.0170  -15.9793   24.2305 N   0  0  0  0  0  0  0  0  0  0  0  0
    8.3449  -15.8825   25.6549 C   0  0  1  0  0  0  0  0  0  0  0  0
    7.0965  -15.3189   26.3413 C   0  0  0  0  0  0  0  0  0  0  0  0
    7.1818  -13.8618   26.4577 C   0  0  0  0  0  0  0  0  0  0  0  0
    6.0033  -13.1234   26.3972 C   0  0  0  0  0  0  0  0  0  0  0  0
    5.9926  -11.7498   26.5043 C   0  0  0  0  0  0  0  0  0  0  0  0
    7.1694  -11.0506   26.6782 C   0  0  0  0  0  0  0  0  0  0  0  0
    8.3395  -11.7522   26.7413 C   0  0  0  0  0  0  0  0  0  0  0  0
    8.3494  -13.1378   26.6332 C   0  0  0  0  0  0  0  0  0  0  0  0
    8.6883  -17.2204   26.1575 C   0  0  0  0  0  0  0  0  0  0  0  0
    9.1680  -17.4330   27.4485 O   0  0  0  0  0  0  0  0  0  0  0  0
    8.5535  -18.2273   25.4109 O   0  0  0  0  0  0  0  0  0  0  0  0
  2  1  1  6
  2  3  1  0
  4  3  1  0
  5  4  1  0
  6  5  1  0
  7  6  1  0
  8  2  1  0
  9  8  2  0
 10 11  1  0
 11 12  2  0
 11 13  1  0
 13 14  1  0
 15 14  1  1
 15 16  1  0
 16  8  1  0
 17 15  1  0
 17 18  2  0
 19 17  1  0
 20 19  1  0
 20 28  1  0
 20 21  1  1
 22 21  1  0
 22 23  2  0
 24 23  1  0
 25 24  2  0
 26 27  2  0
 26 25  1  0
 27 22  1  0
 28 29  1  0
 30 28  2  0
M  END
$$$$
