KQF.pdb
     RDKit          3D

 30 30  0  0  1  0  0  0  0  0999 V2000
    5.9469  -19.6705   20.3698 N   0  0  0  0  0  0  0  0  0  0  0  0
    6.8177  -18.5516   20.7146 C   0  0  1  0  0  0  0  0  0  0  0  0
    6.9256  -17.5887   19.5830 C   0  0  0  0  0  0  0  0  0  0  0  0
    7.6412  -18.0145   18.3766 C   0  0  0  0  0  0  0  0  0  0  0  0
    8.6079  -17.1426   17.6979 C   0  0  0  0  0  0  0  0  0  0  0  0
    9.2318  -17.6282   16.4308 C   0  0  0  0  0  0  0  0  0  0  0  0
   10.0996  -16.6260   15.8619 N   0  0  0  0  0  0  0  0  0  0  0  0
    6.1124  -17.8077   21.8528 C   0  0  0  0  0  0  0  0  0  0  0  0
    4.8633  -17.6674   21.6812 O   0  0  0  0  0  0  0  0  0  0  0  0
    5.1308  -21.6808   24.8410 N   0  0  0  0  0  0  0  0  0  0  0  0
    6.5002  -21.3206   24.8314 C   0  0  0  0  0  0  0  0  0  0  0  0
    7.3525  -22.2509   25.0028 O   0  0  0  0  0  0  0  0  0  0  0  0
    6.9080  -19.9234   24.6248 C   0  0  0  0  0  0  0  0  0  0  0  0
    5.8238  -18.9494   24.4552 C   0  0  0  0  0  0  0  0  0  0  0  0
    6.2297  -17.5211   24.3085 C   0  0  2  0  0  0  0  0  0  0  0  0
    6.8211  -17.3465   22.9593 N   0  0  0  0  0  0  0  0  0  0  0  0
    7.1233  -16.9326   25.2851 C   0  0  0  0  0  0  0  0  0  0  0  0
    6.8293  -16.9672   26.5162 O   0  0  0  0  0  0  0  0  0  0  0  0
    8.3335  -16.3103   24.9241 N   0  0  0  0  0  0  0  0  0  0  0  0
    9.1144  -15.5735   25.9206 C   0  0  1  0  0  0  0  0  0  0  0  0
    8.1008  -14.7887   26.7596 C   0  0  0  0  0  0  0  0  0  0  0  0
    7.7053  -13.5558   26.0758 C   0  0  0  0  0  0  0  0  0  0  0  0
    7.3082  -12.4687   26.8493 C   0  0  0  0  0  0  0  0  0  0  0  0
    6.9266  -11.2698   26.2877 C   0  0  0  0  0  0  0  0  0  0  0  0
    6.9261  -11.1056   24.9176 C   0  0  0  0  0  0  0  0  0  0  0  0
    7.3122  -12.1573   24.1364 C   0  0  0  0  0  0  0  0  0  0  0  0
    7.6971  -13.3664   24.7039 C   0  0  0  0  0  0  0  0  0  0  0  0
    9.8736  -16.5322   26.7360 C   0  0  0  0  0  0  0  0  0  0  0  0
    9.7435  -17.9112   26.5825 O   0  0  0  0  0  0  0  0  0  0  0  0
   10.6768  -16.1151   27.6137 O   0  0  0  0  0  0  0  0  0  0  0  0
  2  1  1  6
  2  3  1  0
  4  3  1  0
  5  4  1  0
  6  5  1  0
  7  6  1  0
  8  2  1  0
  9  8  2  0
 10 11  1  0
 11 12  2  0
 11 13  1  0
 13 14  1  0
 15 14  1  1
 15 16  1  0
 16  8  1  0
 17 15  1  0
 17 18  2  0
 19 17  1  0
 20 19  1  0
 20 28  1  0
 20 21  1  1
 22 21  1  0
 22 23  2  0
 24 23  1  0
 25 24  2  0
 26 27  2  0
 26 25  1  0
 27 22  1  0
 28 29  1  0
 30 28  2  0
M  END
$$$$
