KQF.pdb
     RDKit          3D

 30 30  0  0  1  0  0  0  0  0999 V2000
    8.5889  -18.0429   17.6301 N   0  0  0  0  0  0  0  0  0  0  0  0
    9.4474  -17.1975   18.4531 C   0  0  1  0  0  0  0  0  0  0  0  0
    9.1921  -15.7542   18.1861 C   0  0  0  0  0  0  0  0  0  0  0  0
    8.6098  -15.3810   16.8938 C   0  0  0  0  0  0  0  0  0  0  0  0
    8.3533  -13.9814   16.5319 C   0  0  0  0  0  0  0  0  0  0  0  0
    7.7630  -13.6934   15.1907 C   0  0  0  0  0  0  0  0  0  0  0  0
    7.5727  -12.2761   15.0005 N   0  0  0  0  0  0  0  0  0  0  0  0
    9.0218  -17.4536   19.9022 C   0  0  0  0  0  0  0  0  0  0  0  0
    7.7711  -17.6027   20.0536 O   0  0  0  0  0  0  0  0  0  0  0  0
   12.1071  -21.3142   23.2199 N   0  0  0  0  0  0  0  0  0  0  0  0
   11.1173  -21.4652   22.2186 C   0  0  0  0  0  0  0  0  0  0  0  0
   11.0482  -22.5909   21.6274 O   0  0  0  0  0  0  0  0  0  0  0  0
   10.2078  -20.3586   21.8885 C   0  0  0  0  0  0  0  0  0  0  0  0
   10.3762  -19.1261   22.6668 C   0  0  0  0  0  0  0  0  0  0  0  0
    9.5235  -17.9675   22.2707 C   0  0  2  0  0  0  0  0  0  0  0  0
    9.9609  -17.5111   20.9287 N   0  0  0  0  0  0  0  0  0  0  0  0
    9.4382  -16.8163   23.1459 C   0  0  0  0  0  0  0  0  0  0  0  0
   10.3946  -15.9883   23.2004 O   0  0  0  0  0  0  0  0  0  0  0  0
    8.3155  -16.5653   23.9576 N   0  0  0  0  0  0  0  0  0  0  0  0
    8.3006  -15.4180   24.8682 C   0  0  1  0  0  0  0  0  0  0  0  0
    7.1152  -14.5484   24.4372 C   0  0  0  0  0  0  0  0  0  0  0  0
    6.9010  -13.4553   25.3877 C   0  0  0  0  0  0  0  0  0  0  0  0
    7.8661  -12.4559   25.4748 C   0  0  0  0  0  0  0  0  0  0  0  0
    7.7407  -11.3889   26.3374 C   0  0  0  0  0  0  0  0  0  0  0  0
    6.6358  -11.2749   27.1561 C   0  0  0  0  0  0  0  0  0  0  0  0
    5.6742  -12.2425   27.0892 C   0  0  0  0  0  0  0  0  0  0  0  0
    5.8015  -13.3185   26.2187 C   0  0  0  0  0  0  0  0  0  0  0  0
    8.1488  -15.9050   26.2468 C   0  0  0  0  0  0  0  0  0  0  0  0
    8.8801  -15.3785   27.3098 O   0  0  0  0  0  0  0  0  0  0  0  0
    7.3342  -16.8331   26.5006 O   0  0  0  0  0  0  0  0  0  0  0  0
  2  1  1  6
  2  3  1  0
  4  3  1  0
  5  4  1  0
  6  5  1  0
  7  6  1  0
  8  2  1  0
  9  8  2  0
 10 11  1  0
 11 12  2  0
 11 13  1  0
 13 14  1  0
 15 14  1  1
 15 16  1  0
 16  8  1  0
 17 15  1  0
 17 18  2  0
 19 17  1  0
 20 19  1  0
 20 28  1  0
 20 21  1  6
 22 21  1  0
 22 23  2  0
 24 23  1  0
 25 24  2  0
 26 27  2  0
 26 25  1  0
 27 22  1  0
 28 29  1  0
 30 28  2  0
M  END
$$$$
