KQF.pdb
     RDKit          3D

 30 30  0  0  1  0  0  0  0  0999 V2000
    5.0050  -17.6260   20.1699 N   0  0  0  0  0  0  0  0  0  0  0  0
    6.1968  -16.9803   20.7100 C   0  0  1  0  0  0  0  0  0  0  0  0
    6.1885  -15.5178   20.4263 C   0  0  0  0  0  0  0  0  0  0  0  0
    6.5744  -15.0699   19.0849 C   0  0  0  0  0  0  0  0  0  0  0  0
    7.7224  -14.1824   18.8621 C   0  0  0  0  0  0  0  0  0  0  0  0
    8.0530  -13.7905   17.4594 C   0  0  0  0  0  0  0  0  0  0  0  0
    9.0481  -12.7464   17.4327 N   0  0  0  0  0  0  0  0  0  0  0  0
    6.0999  -17.1286   22.2315 C   0  0  0  0  0  0  0  0  0  0  0  0
    4.9499  -16.8734   22.7024 O   0  0  0  0  0  0  0  0  0  0  0  0
    7.1711  -20.6463   26.9353 N   0  0  0  0  0  0  0  0  0  0  0  0
    7.4807  -20.9701   25.5920 C   0  0  0  0  0  0  0  0  0  0  0  0
    8.0205  -22.1020   25.3711 O   0  0  0  0  0  0  0  0  0  0  0  0
    7.1798  -20.0287   24.5038 C   0  0  0  0  0  0  0  0  0  0  0  0
    6.4650  -18.8048   24.8837 C   0  0  0  0  0  0  0  0  0  0  0  0
    7.0879  -17.5144   24.4678 C   0  0  2  0  0  0  0  0  0  0  0  0
    7.2031  -17.5140   22.9889 N   0  0  0  0  0  0  0  0  0  0  0  0
    8.3652  -17.1278   25.0315 C   0  0  0  0  0  0  0  0  0  0  0  0
    9.4407  -17.4491   24.4455 O   0  0  0  0  0  0  0  0  0  0  0  0
    8.4724  -16.3925   26.2273 N   0  0  0  0  0  0  0  0  0  0  0  0
    9.7836  -15.9609   26.7173 C   0  0  1  0  0  0  0  0  0  0  0  0
    9.8261  -14.4403   26.5354 C   0  0  0  0  0  0  0  0  0  0  0  0
    8.5887  -13.8252   27.0196 C   0  0  0  0  0  0  0  0  0  0  0  0
    7.5389  -13.6556   26.1213 C   0  0  0  0  0  0  0  0  0  0  0  0
    6.3385  -13.0917   26.4946 C   0  0  0  0  0  0  0  0  0  0  0  0
    6.1351  -12.6702   27.7927 C   0  0  0  0  0  0  0  0  0  0  0  0
    7.1498  -12.8260   28.6936 C   0  0  0  0  0  0  0  0  0  0  0  0
    8.3604  -13.3950   28.3161 C   0  0  0  0  0  0  0  0  0  0  0  0
    9.9160  -16.3466   28.1295 C   0  0  0  0  0  0  0  0  0  0  0  0
    8.9646  -17.1276   28.7829 O   0  0  0  0  0  0  0  0  0  0  0  0
   10.9177  -15.9676   28.7945 O   0  0  0  0  0  0  0  0  0  0  0  0
  2  1  1  6
  2  3  1  0
  4  3  1  0
  5  4  1  0
  6  5  1  0
  7  6  1  0
  8  2  1  0
  9  8  2  0
 10 11  1  0
 11 12  2  0
 11 13  1  0
 13 14  1  0
 15 14  1  1
 15 16  1  0
 16  8  1  0
 17 15  1  0
 17 18  2  0
 19 17  1  0
 20 19  1  0
 20 28  1  0
 20 21  1  1
 22 21  1  0
 22 23  2  0
 24 23  1  0
 25 24  2  0
 26 27  2  0
 26 25  1  0
 27 22  1  0
 28 29  1  0
 30 28  2  0
M  END
$$$$
