KQF.pdb
     RDKit          3D

 30 30  0  0  1  0  0  0  0  0999 V2000
    6.8089  -16.9207   19.5819 N   0  0  0  0  0  0  0  0  0  0  0  0
    8.0979  -16.2463   19.6948 C   0  0  1  0  0  0  0  0  0  0  0  0
    7.9220  -14.7718   19.8147 C   0  0  0  0  0  0  0  0  0  0  0  0
    7.4923  -14.0264   18.6279 C   0  0  0  0  0  0  0  0  0  0  0  0
    8.4049  -13.7482   17.5121 C   0  0  0  0  0  0  0  0  0  0  0  0
    7.9250  -12.8644   16.4081 C   0  0  0  0  0  0  0  0  0  0  0  0
    8.9475  -12.6821   15.4069 N   0  0  0  0  0  0  0  0  0  0  0  0
    8.7040  -16.7210   21.0191 C   0  0  0  0  0  0  0  0  0  0  0  0
    7.8441  -17.0673   21.8851 O   0  0  0  0  0  0  0  0  0  0  0  0
   14.3120  -19.4336   21.6565 N   0  0  0  0  0  0  0  0  0  0  0  0
   13.8489  -19.3326   22.9908 C   0  0  0  0  0  0  0  0  0  0  0  0
   14.5759  -19.8416   23.9039 O   0  0  0  0  0  0  0  0  0  0  0  0
   12.5787  -18.6587   23.2961 C   0  0  0  0  0  0  0  0  0  0  0  0
   11.9015  -18.0087   22.1683 C   0  0  0  0  0  0  0  0  0  0  0  0
   10.6160  -17.3158   22.4740 C   0  0  2  0  0  0  0  0  0  0  0  0
   10.0832  -16.7541   21.2086 N   0  0  0  0  0  0  0  0  0  0  0  0
   10.5903  -16.2805   23.4869 C   0  0  0  0  0  0  0  0  0  0  0  0
   10.9887  -15.1111   23.2092 O   0  0  0  0  0  0  0  0  0  0  0  0
   10.1309  -16.5156   24.7968 N   0  0  0  0  0  0  0  0  0  0  0  0
    9.6648  -15.4044   25.6297 C   0  0  1  0  0  0  0  0  0  0  0  0
    8.4949  -14.7673   24.8729 C   0  0  0  0  0  0  0  0  0  0  0  0
    7.8459  -13.7405   25.6904 C   0  0  0  0  0  0  0  0  0  0  0  0
    8.5622  -12.5859   25.9934 C   0  0  0  0  0  0  0  0  0  0  0  0
    8.0254  -11.5678   26.7509 C   0  0  0  0  0  0  0  0  0  0  0  0
    6.7391  -11.6617   27.2414 C   0  0  0  0  0  0  0  0  0  0  0  0
    6.0151  -12.7846   26.9576 C   0  0  0  0  0  0  0  0  0  0  0  0
    6.5574  -13.8111   26.1933 C   0  0  0  0  0  0  0  0  0  0  0  0
    9.2486  -15.9302   26.9376 C   0  0  0  0  0  0  0  0  0  0  0  0
    9.4378  -15.2214   28.1224 O   0  0  0  0  0  0  0  0  0  0  0  0
    8.6994  -17.0624   27.0152 O   0  0  0  0  0  0  0  0  0  0  0  0
  2  1  1  1
  2  3  1  0
  4  3  1  0
  5  4  1  0
  6  5  1  0
  7  6  1  0
  8  2  1  0
  9  8  2  0
 10 11  1  0
 11 12  2  0
 11 13  1  0
 13 14  1  0
 15 14  1  6
 15 16  1  0
 16  8  1  0
 17 15  1  0
 17 18  2  0
 19 17  1  0
 20 19  1  0
 20 28  1  0
 20 21  1  6
 22 21  1  0
 22 23  2  0
 24 23  1  0
 25 24  2  0
 26 27  2  0
 26 25  1  0
 27 22  1  0
 28 29  1  0
 30 28  2  0
M  END
$$$$
