KQF.pdb
     RDKit          3D

 30 30  0  0  1  0  0  0  0  0999 V2000
    8.0047  -20.0802   20.3092 N   0  0  0  0  0  0  0  0  0  0  0  0
    7.5143  -18.9734   21.1239 C   0  0  1  0  0  0  0  0  0  0  0  0
    7.3407  -19.3897   22.5437 C   0  0  0  0  0  0  0  0  0  0  0  0
    6.4054  -20.4797   22.8369 C   0  0  0  0  0  0  0  0  0  0  0  0
    4.9509  -20.2999   22.7517 C   0  0  0  0  0  0  0  0  0  0  0  0
    4.0738  -21.4719   23.0476 C   0  0  0  0  0  0  0  0  0  0  0  0
    2.6829  -21.1419   22.8536 N   0  0  0  0  0  0  0  0  0  0  0  0
    8.6267  -17.9204   21.1125 C   0  0  0  0  0  0  0  0  0  0  0  0
    9.7954  -18.4036   21.2130 O   0  0  0  0  0  0  0  0  0  0  0  0
    7.9124  -12.3211   18.5095 N   0  0  0  0  0  0  0  0  0  0  0  0
    7.8662  -13.6390   17.9936 C   0  0  0  0  0  0  0  0  0  0  0  0
    7.3000  -13.8076   16.8657 O   0  0  0  0  0  0  0  0  0  0  0  0
    8.4580  -14.7588   18.7396 C   0  0  0  0  0  0  0  0  0  0  0  0
    8.9933  -14.4423   20.0687 C   0  0  0  0  0  0  0  0  0  0  0  0
    9.4534  -15.5978   20.8929 C   0  0  2  0  0  0  0  0  0  0  0  0
    8.3327  -16.5641   20.9978 N   0  0  0  0  0  0  0  0  0  0  0  0
    9.9830  -15.3577   22.2198 C   0  0  0  0  0  0  0  0  0  0  0  0
   11.0438  -14.6821   22.3669 O   0  0  0  0  0  0  0  0  0  0  0  0
    9.3600  -15.8491   23.3828 N   0  0  0  0  0  0  0  0  0  0  0  0
    9.9446  -15.5938   24.7014 C   0  0  1  0  0  0  0  0  0  0  0  0
    8.7759  -15.2232   25.6201 C   0  0  0  0  0  0  0  0  0  0  0  0
    9.2518  -14.9363   26.9748 C   0  0  0  0  0  0  0  0  0  0  0  0
    9.4287  -16.0016   27.8532 C   0  0  0  0  0  0  0  0  0  0  0  0
    9.8786  -15.8213   29.1430 C   0  0  0  0  0  0  0  0  0  0  0  0
   10.1734  -14.5579   29.6129 C   0  0  0  0  0  0  0  0  0  0  0  0
   10.0087  -13.4957   28.7702 C   0  0  0  0  0  0  0  0  0  0  0  0
    9.5548  -13.6785   27.4692 C   0  0  0  0  0  0  0  0  0  0  0  0
   10.6369  -16.8068   25.1594 C   0  0  0  0  0  0  0  0  0  0  0  0
   10.2333  -18.0856   24.7802 O   0  0  0  0  0  0  0  0  0  0  0  0
   11.6339  -16.7116   25.9251 O   0  0  0  0  0  0  0  0  0  0  0  0
  2  1  1  6
  2  3  1  0
  4  3  1  0
  5  4  1  0
  6  5  1  0
  7  6  1  0
  8  2  1  0
  9  8  2  0
 10 11  1  0
 11 12  2  0
 11 13  1  0
 13 14  1  0
 15 14  1  1
 15 16  1  0
 16  8  1  0
 17 15  1  0
 17 18  2  0
 19 17  1  0
 20 19  1  0
 20 28  1  0
 20 21  1  1
 22 21  1  0
 22 23  2  0
 24 23  1  0
 25 24  2  0
 26 27  2  0
 26 25  1  0
 27 22  1  0
 28 29  1  0
 30 28  2  0
M  END
$$$$
