KQF.pdb
     RDKit          3D

 30 30  0  0  1  0  0  0  0  0999 V2000
    7.6414  -17.6536   21.1822 N   0  0  0  0  0  0  0  0  0  0  0  0
    8.5966  -16.7833   21.8599 C   0  0  1  0  0  0  0  0  0  0  0  0
    8.2377  -15.3490   21.6764 C   0  0  0  0  0  0  0  0  0  0  0  0
    8.1561  -14.8243   20.3101 C   0  0  0  0  0  0  0  0  0  0  0  0
    8.0104  -13.3895   20.0359 C   0  0  0  0  0  0  0  0  0  0  0  0
    7.9110  -12.9468   18.6131 C   0  0  0  0  0  0  0  0  0  0  0  0
    7.6796  -11.5255   18.5263 N   0  0  0  0  0  0  0  0  0  0  0  0
    8.4466  -17.0812   23.3550 C   0  0  0  0  0  0  0  0  0  0  0  0
    7.4946  -17.8732   23.6301 O   0  0  0  0  0  0  0  0  0  0  0  0
   13.0092  -19.5463   21.9537 N   0  0  0  0  0  0  0  0  0  0  0  0
   13.3512  -18.9336   23.1836 C   0  0  0  0  0  0  0  0  0  0  0  0
   14.5594  -18.5623   23.3378 O   0  0  0  0  0  0  0  0  0  0  0  0
   12.3391  -18.7351   24.2310 C   0  0  0  0  0  0  0  0  0  0  0  0
   11.1194  -18.0255   23.8285 C   0  0  0  0  0  0  0  0  0  0  0  0
   10.3444  -17.3639   24.9184 C   0  0  2  0  0  0  0  0  0  0  0  0
    9.3046  -16.5113   24.2920 N   0  0  0  0  0  0  0  0  0  0  0  0
   11.0463  -16.5810   25.9149 C   0  0  0  0  0  0  0  0  0  0  0  0
   12.1251  -17.0135   26.4173 O   0  0  0  0  0  0  0  0  0  0  0  0
   10.5775  -15.3309   26.3619 N   0  0  0  0  0  0  0  0  0  0  0  0
   10.2655  -15.1190   27.7773 C   0  0  1  0  0  0  0  0  0  0  0  0
    8.7373  -15.1385   27.8834 C   0  0  0  0  0  0  0  0  0  0  0  0
    8.1527  -14.0067   27.1614 C   0  0  0  0  0  0  0  0  0  0  0  0
    8.9982  -12.9867   26.7344 C   0  0  0  0  0  0  0  0  0  0  0  0
    8.5324  -11.8893   26.0436 C   0  0  0  0  0  0  0  0  0  0  0  0
    7.1905  -11.7645   25.7478 C   0  0  0  0  0  0  0  0  0  0  0  0
    6.3400  -12.7524   26.1554 C   0  0  0  0  0  0  0  0  0  0  0  0
    6.8107  -13.8590   26.8522 C   0  0  0  0  0  0  0  0  0  0  0  0
   10.8823  -16.1936   28.5680 C   0  0  0  0  0  0  0  0  0  0  0  0
   11.4448  -15.9691   29.8231 O   0  0  0  0  0  0  0  0  0  0  0  0
   10.9167  -17.3692   28.1139 O   0  0  0  0  0  0  0  0  0  0  0  0
  2  1  1  6
  2  3  1  0
  4  3  1  0
  5  4  1  0
  6  5  1  0
  7  6  1  0
  8  2  1  0
  9  8  2  0
 10 11  1  0
 11 12  2  0
 11 13  1  0
 13 14  1  0
 15 14  1  6
 15 16  1  0
 16  8  1  0
 17 15  1  0
 17 18  2  0
 19 17  1  0
 20 19  1  0
 20 28  1  0
 20 21  1  6
 22 21  1  0
 22 23  2  0
 24 23  1  0
 25 24  2  0
 26 27  2  0
 26 25  1  0
 27 22  1  0
 28 29  1  0
 30 28  2  0
M  END
$$$$
