KQF.pdb
     RDKit          3D

 30 30  0  0  1  0  0  0  0  0999 V2000
    5.4279  -16.9521   21.1715 N   0  0  0  0  0  0  0  0  0  0  0  0
    6.7823  -16.5278   21.5099 C   0  0  1  0  0  0  0  0  0  0  0  0
    6.9506  -15.0615   21.3063 C   0  0  0  0  0  0  0  0  0  0  0  0
    7.0776  -14.5625   19.9339 C   0  0  0  0  0  0  0  0  0  0  0  0
    8.3087  -13.9263   19.4491 C   0  0  0  0  0  0  0  0  0  0  0  0
    8.3122  -13.3479   18.0722 C   0  0  0  0  0  0  0  0  0  0  0  0
    9.5494  -12.6569   17.8022 N   0  0  0  0  0  0  0  0  0  0  0  0
    6.9360  -16.7785   23.0132 C   0  0  0  0  0  0  0  0  0  0  0  0
    6.0082  -16.2760   23.7175 O   0  0  0  0  0  0  0  0  0  0  0  0
    8.7855  -22.0362   25.3520 N   0  0  0  0  0  0  0  0  0  0  0  0
    7.8916  -21.5682   24.3584 C   0  0  0  0  0  0  0  0  0  0  0  0
    7.3578  -22.4357   23.5944 O   0  0  0  0  0  0  0  0  0  0  0  0
    7.5963  -20.1340   24.2290 C   0  0  0  0  0  0  0  0  0  0  0  0
    8.2978  -19.2407   25.1580 C   0  0  0  0  0  0  0  0  0  0  0  0
    8.0721  -17.7776   24.9721 C   0  0  2  0  0  0  0  0  0  0  0  0
    8.0148  -17.5016   23.5157 N   0  0  0  0  0  0  0  0  0  0  0  0
    8.9841  -16.8344   25.5863 C   0  0  0  0  0  0  0  0  0  0  0  0
    9.9726  -16.3894   24.9318 O   0  0  0  0  0  0  0  0  0  0  0  0
    8.8204  -16.3750   26.9070 N   0  0  0  0  0  0  0  0  0  0  0  0
    9.8317  -15.5124   27.5227 C   0  0  1  0  0  0  0  0  0  0  0  0
    9.0637  -14.5051   28.3845 C   0  0  0  0  0  0  0  0  0  0  0  0
    8.1407  -13.7181   27.5644 C   0  0  0  0  0  0  0  0  0  0  0  0
    6.7844  -14.0279   27.6126 C   0  0  0  0  0  0  0  0  0  0  0  0
    5.8475  -13.3342   26.8783 C   0  0  0  0  0  0  0  0  0  0  0  0
    6.2300  -12.2926   26.0581 C   0  0  0  0  0  0  0  0  0  0  0  0
    7.5552  -11.9685   25.9936 C   0  0  0  0  0  0  0  0  0  0  0  0
    8.4998  -12.6688   26.7348 C   0  0  0  0  0  0  0  0  0  0  0  0
   10.7396  -16.3413   28.3284 C   0  0  0  0  0  0  0  0  0  0  0  0
   10.5816  -17.7205   28.4503 O   0  0  0  0  0  0  0  0  0  0  0  0
   11.7027  -15.8069   28.9417 O   0  0  0  0  0  0  0  0  0  0  0  0
  2  1  1  1
  2  3  1  0
  4  3  1  0
  5  4  1  0
  6  5  1  0
  7  6  1  0
  8  2  1  0
  9  8  2  0
 10 11  1  0
 11 12  2  0
 11 13  1  0
 13 14  1  0
 15 14  1  6
 15 16  1  0
 16  8  1  0
 17 15  1  0
 17 18  2  0
 19 17  1  0
 20 19  1  0
 20 28  1  0
 20 21  1  1
 22 21  1  0
 22 23  2  0
 24 23  1  0
 25 24  2  0
 26 27  2  0
 26 25  1  0
 27 22  1  0
 28 29  1  0
 30 28  2  0
M  END
$$$$
