IWR.pdb
     RDKit          3D

 34 35  0  0  1  0  0  0  0  0999 V2000
    6.8385  -12.6642   18.8970 C   0  0  0  0  0  0  0  0  0  0  0  0
    6.9776  -14.0429   19.4615 C   0  0  0  0  0  0  0  0  0  0  0  0
    7.8927  -14.1545   20.6432 C   0  0  2  0  0  0  0  0  0  0  0  0
    9.2741  -13.6744   20.2097 C   0  0  0  0  0  0  0  0  0  0  0  0
    8.0254  -15.5075   21.2363 C   0  0  2  0  0  0  0  0  0  0  0  0
    6.8423  -16.2821   21.3111 N   0  0  0  0  0  0  0  0  0  0  0  0
    8.7603  -15.5579   22.5190 C   0  0  0  0  0  0  0  0  0  0  0  0
    9.8326  -14.9146   22.6925 O   0  0  0  0  0  0  0  0  0  0  0  0
    8.2620  -16.3366   23.5677 N   0  0  0  0  0  0  0  0  0  0  0  0
    8.8662  -16.6545   24.8138 C   0  0  1  0  0  0  0  0  0  0  0  0
    7.9103  -16.4594   25.9254 C   0  0  0  0  0  0  0  0  0  0  0  0
    7.1309  -15.2065   25.8179 C   0  0  0  0  0  0  0  0  0  0  0  0
    5.8941  -14.9645   25.3017 C   0  0  0  0  0  0  0  0  0  0  0  0
    5.5618  -13.6490   25.3962 N   0  0  0  0  0  0  0  0  0  0  0  0
    6.6001  -13.0215   25.9844 C   0  0  0  0  0  0  0  0  0  0  0  0
    6.8620  -11.7150   26.3415 C   0  0  0  0  0  0  0  0  0  0  0  0
    8.0392  -11.3132   26.9461 C   0  0  0  0  0  0  0  0  0  0  0  0
    8.9957  -12.2674   27.2035 C   0  0  0  0  0  0  0  0  0  0  0  0
    8.7697  -13.6011   26.8572 C   0  0  0  0  0  0  0  0  0  0  0  0
    7.5798  -13.9530   26.2556 C   0  0  0  0  0  0  0  0  0  0  0  0
    9.6562  -17.8876   24.8822 C   0  0  0  0  0  0  0  0  0  0  0  0
    9.1133  -18.9936   24.9858 O   0  0  0  0  0  0  0  0  0  0  0  0
   16.6478  -20.6495   21.3742 N   0  0  0  0  0  0  0  0  0  0  0  0
   15.7969  -19.7199   20.7067 C   0  0  0  0  0  0  0  0  0  0  0  0
   16.2428  -19.0398   19.7212 N   0  0  0  0  0  0  0  0  0  0  0  0
   14.4585  -19.5670   21.1544 N   0  0  0  0  0  0  0  0  0  0  0  0
   13.9275  -20.3876   22.2330 C   0  0  0  0  0  0  0  0  0  0  0  0
   14.0602  -19.6235   23.5081 C   0  0  0  0  0  0  0  0  0  0  0  0
   13.0030  -18.6072   23.7374 C   0  0  0  0  0  0  0  0  0  0  0  0
   11.9388  -18.9833   24.7284 C   0  0  2  0  0  0  0  0  0  0  0  0
   11.0688  -17.8084   24.8292 N   0  0  0  0  0  0  0  0  0  0  0  0
   12.6052  -19.1406   26.0510 C   0  0  0  0  0  0  0  0  0  0  0  0
   12.5221  -18.2583   26.9510 O   0  0  0  0  0  0  0  0  0  0  0  0
   13.3336  -20.2669   26.3194 O   0  0  0  0  0  0  0  0  0  0  0  0
  2  1  1  0
  3  2  1  0
  3  4  1  6
  5  3  1  0
  5  6  1  1
  7  5  1  0
  8  7  2  0
  9  7  1  0
 10  9  1  0
 10 11  1  1
 12 11  1  0
 13 12  2  0
 14 13  1  0
 15 14  1  0
 15 20  2  0
 16 17  2  0
 16 15  1  0
 17 18  1  0
 18 19  2  0
 20 19  1  0
 20 12  1  0
 21 10  1  0
 21 31  1  0
 22 21  2  0
 23 24  1  0
 24 26  1  0
 24 25  2  0
 26 27  1  0
 28 27  1  0
 28 29  1  0
 30 31  1  0
 30 29  1  6
 30 32  1  0
 32 33  2  0
 32 34  1  0
M  END
$$$$
