IWR.pdb
     RDKit          3D

 34 35  0  0  1  0  0  0  0  0999 V2000
    6.5473  -12.0019   19.1407 C   0  0  0  0  0  0  0  0  0  0  0  0
    6.8253  -13.4395   19.4486 C   0  0  0  0  0  0  0  0  0  0  0  0
    7.5155  -13.6856   20.7562 C   0  0  2  0  0  0  0  0  0  0  0  0
    8.8605  -12.9672   20.7155 C   0  0  0  0  0  0  0  0  0  0  0  0
    7.7475  -15.1071   21.1105 C   0  0  2  0  0  0  0  0  0  0  0  0
    6.6057  -15.9441   21.1402 N   0  0  0  0  0  0  0  0  0  0  0  0
    8.5803  -15.3229   22.3138 C   0  0  0  0  0  0  0  0  0  0  0  0
    9.7166  -14.7868   22.4365 O   0  0  0  0  0  0  0  0  0  0  0  0
    8.1043  -16.1411   23.3427 N   0  0  0  0  0  0  0  0  0  0  0  0
    8.7313  -16.4986   24.5665 C   0  0  1  0  0  0  0  0  0  0  0  0
    7.7797  -16.3940   25.6939 C   0  0  0  0  0  0  0  0  0  0  0  0
    7.0351  -15.1158   25.7183 C   0  0  0  0  0  0  0  0  0  0  0  0
    5.7416  -14.8285   25.4039 C   0  0  0  0  0  0  0  0  0  0  0  0
    5.4720  -13.5043   25.5584 N   0  0  0  0  0  0  0  0  0  0  0  0
    6.6097  -12.9172   25.9809 C   0  0  0  0  0  0  0  0  0  0  0  0
    6.9675  -11.6240   26.3015 C   0  0  0  0  0  0  0  0  0  0  0  0
    8.2375  -11.2670   26.7170 C   0  0  0  0  0  0  0  0  0  0  0  0
    9.1901  -12.2541   26.8148 C   0  0  0  0  0  0  0  0  0  0  0  0
    8.8686  -13.5757   26.4991 C   0  0  0  0  0  0  0  0  0  0  0  0
    7.5883  -13.8825   26.0889 C   0  0  0  0  0  0  0  0  0  0  0  0
    9.5655  -17.7042   24.5668 C   0  0  0  0  0  0  0  0  0  0  0  0
    9.0689  -18.8291   24.6952 O   0  0  0  0  0  0  0  0  0  0  0  0
   16.9782  -18.9377   21.5410 N   0  0  0  0  0  0  0  0  0  0  0  0
   16.6628  -20.3211   21.6836 C   0  0  0  0  0  0  0  0  0  0  0  0
   17.5899  -21.1978   21.6158 N   0  0  0  0  0  0  0  0  0  0  0  0
   15.3123  -20.7008   21.9004 N   0  0  0  0  0  0  0  0  0  0  0  0
   14.2511  -19.7061   21.9582 C   0  0  0  0  0  0  0  0  0  0  0  0
   14.1697  -19.1928   23.3572 C   0  0  0  0  0  0  0  0  0  0  0  0
   13.0890  -18.2035   23.5951 C   0  0  0  0  0  0  0  0  0  0  0  0
   11.8754  -18.7212   24.3130 C   0  0  2  0  0  0  0  0  0  0  0  0
   10.9676  -17.5757   24.4177 N   0  0  0  0  0  0  0  0  0  0  0  0
   12.2976  -19.0645   25.6994 C   0  0  0  0  0  0  0  0  0  0  0  0
   12.6465  -20.2347   26.0219 O   0  0  0  0  0  0  0  0  0  0  0  0
   12.3154  -18.0979   26.6672 O   0  0  0  0  0  0  0  0  0  0  0  0
  2  1  1  0
  3  2  1  0
  3  4  1  6
  5  3  1  0
  5  6  1  1
  7  5  1  0
  8  7  2  0
  9  7  1  0
 10  9  1  0
 10 11  1  1
 12 11  1  0
 13 12  2  0
 14 13  1  0
 15 14  1  0
 15 20  2  0
 16 17  2  0
 16 15  1  0
 17 18  1  0
 18 19  2  0
 20 19  1  0
 20 12  1  0
 21 10  1  0
 21 31  1  0
 22 21  2  0
 23 24  1  0
 24 26  1  0
 24 25  2  0
 26 27  1  0
 28 27  1  0
 28 29  1  0
 30 31  1  0
 30 29  1  6
 30 32  1  0
 32 33  2  0
 32 34  1  0
M  END
$$$$
