IWR.pdb
     RDKit          3D

 34 35  0  0  1  0  0  0  0  0999 V2000
    6.5198  -12.1957   18.9497 C   0  0  0  0  0  0  0  0  0  0  0  0
    6.9099  -13.6007   19.2852 C   0  0  0  0  0  0  0  0  0  0  0  0
    7.8024  -13.7422   20.4810 C   0  0  2  0  0  0  0  0  0  0  0  0
    9.1034  -13.0043   20.1812 C   0  0  0  0  0  0  0  0  0  0  0  0
    8.1277  -15.1310   20.8877 C   0  0  2  0  0  0  0  0  0  0  0  0
    7.0311  -16.0088   21.0673 N   0  0  0  0  0  0  0  0  0  0  0  0
    9.0740  -15.2451   22.0188 C   0  0  0  0  0  0  0  0  0  0  0  0
   10.1808  -14.6379   22.0189 O   0  0  0  0  0  0  0  0  0  0  0  0
    8.7417  -16.0449   23.1163 N   0  0  0  0  0  0  0  0  0  0  0  0
    9.4651  -16.2605   24.3201 C   0  0  1  0  0  0  0  0  0  0  0  0
    8.5425  -16.4256   25.4642 C   0  0  0  0  0  0  0  0  0  0  0  0
    7.4243  -15.4570   25.4627 C   0  0  0  0  0  0  0  0  0  0  0  0
    6.1228  -15.5945   25.0861 C   0  0  0  0  0  0  0  0  0  0  0  0
    5.4328  -14.4323   25.2387 N   0  0  0  0  0  0  0  0  0  0  0  0
    6.2995  -13.5203   25.7232 C   0  0  0  0  0  0  0  0  0  0  0  0
    6.2052  -12.1892   26.0731 C   0  0  0  0  0  0  0  0  0  0  0  0
    7.2715  -11.4520   26.5552 C   0  0  0  0  0  0  0  0  0  0  0  0
    8.4868  -12.0812   26.6920 C   0  0  0  0  0  0  0  0  0  0  0  0
    8.6244  -13.4276   26.3486 C   0  0  0  0  0  0  0  0  0  0  0  0
    7.5317  -14.1207   25.8717 C   0  0  0  0  0  0  0  0  0  0  0  0
   10.5761  -17.2159   24.2744 C   0  0  0  0  0  0  0  0  0  0  0  0
   10.3742  -18.4353   24.2470 O   0  0  0  0  0  0  0  0  0  0  0  0
   13.1935  -14.4310   18.7737 N   0  0  0  0  0  0  0  0  0  0  0  0
   14.4186  -14.8019   19.4023 C   0  0  0  0  0  0  0  0  0  0  0  0
   15.3428  -13.9341   19.5619 N   0  0  0  0  0  0  0  0  0  0  0  0
   14.5891  -16.1406   19.8426 N   0  0  0  0  0  0  0  0  0  0  0  0
   15.0416  -16.4363   21.1942 C   0  0  0  0  0  0  0  0  0  0  0  0
   13.8430  -16.5124   22.0803 C   0  0  0  0  0  0  0  0  0  0  0  0
   14.1384  -16.8248   23.5009 C   0  0  0  0  0  0  0  0  0  0  0  0
   13.0826  -17.6037   24.2321 C   0  0  2  0  0  0  0  0  0  0  0  0
   11.9061  -16.7306   24.2620 N   0  0  0  0  0  0  0  0  0  0  0  0
   13.5432  -17.7544   25.6404 C   0  0  0  0  0  0  0  0  0  0  0  0
   13.0990  -17.0251   26.5710 O   0  0  0  0  0  0  0  0  0  0  0  0
   14.4743  -18.7053   25.9566 O   0  0  0  0  0  0  0  0  0  0  0  0
  2  1  1  0
  3  2  1  0
  3  4  1  6
  5  3  1  0
  5  6  1  1
  7  5  1  0
  8  7  2  0
  9  7  1  0
 10  9  1  0
 10 11  1  1
 12 11  1  0
 13 12  2  0
 14 13  1  0
 15 14  1  0
 15 20  2  0
 16 17  2  0
 16 15  1  0
 17 18  1  0
 18 19  2  0
 20 19  1  0
 20 12  1  0
 21 10  1  0
 21 31  1  0
 22 21  2  0
 23 24  1  0
 24 26  1  0
 24 25  2  0
 26 27  1  0
 28 27  1  0
 28 29  1  0
 30 31  1  0
 30 29  1  6
 30 32  1  0
 32 33  2  0
 32 34  1  0
M  END
$$$$
