IWR.pdb
     RDKit          3D

 34 35  0  0  1  0  0  0  0  0999 V2000
    7.1908  -12.4673   16.5395 C   0  0  0  0  0  0  0  0  0  0  0  0
    7.8161  -13.7235   17.0588 C   0  0  0  0  0  0  0  0  0  0  0  0
    7.9089  -13.8148   18.5520 C   0  0  2  0  0  0  0  0  0  0  0  0
    8.7712  -12.6537   19.0370 C   0  0  0  0  0  0  0  0  0  0  0  0
    8.4676  -15.0783   19.0918 C   0  0  2  0  0  0  0  0  0  0  0  0
    7.7624  -16.2652   18.7766 N   0  0  0  0  0  0  0  0  0  0  0  0
    8.8105  -15.0453   20.5303 C   0  0  0  0  0  0  0  0  0  0  0  0
    9.8562  -14.4745   20.9479 O   0  0  0  0  0  0  0  0  0  0  0  0
    7.9615  -15.6612   21.4547 N   0  0  0  0  0  0  0  0  0  0  0  0
    8.0677  -15.7176   22.8704 C   0  0  1  0  0  0  0  0  0  0  0  0
    6.7432  -15.5385   23.5036 C   0  0  0  0  0  0  0  0  0  0  0  0
    6.8174  -15.2687   24.9563 C   0  0  0  0  0  0  0  0  0  0  0  0
    6.6755  -16.0971   26.0279 C   0  0  0  0  0  0  0  0  0  0  0  0
    6.8097  -15.4232   27.2018 N   0  0  0  0  0  0  0  0  0  0  0  0
    7.0431  -14.1323   26.8906 C   0  0  0  0  0  0  0  0  0  0  0  0
    7.2550  -12.9848   27.6265 C   0  0  0  0  0  0  0  0  0  0  0  0
    7.4727  -11.7442   27.0551 C   0  0  0  0  0  0  0  0  0  0  0  0
    7.4779  -11.6532   25.6828 C   0  0  0  0  0  0  0  0  0  0  0  0
    7.2669  -12.7912   24.9016 C   0  0  0  0  0  0  0  0  0  0  0  0
    7.0538  -14.0064   25.5177 C   0  0  0  0  0  0  0  0  0  0  0  0
    8.8895  -16.7897   23.4403 C   0  0  0  0  0  0  0  0  0  0  0  0
    8.6006  -17.9798   23.2706 O   0  0  0  0  0  0  0  0  0  0  0  0
   14.9753  -19.9449   23.5340 N   0  0  0  0  0  0  0  0  0  0  0  0
   15.3052  -19.4018   22.2574 C   0  0  0  0  0  0  0  0  0  0  0  0
   15.8075  -20.1531   21.3542 N   0  0  0  0  0  0  0  0  0  0  0  0
   15.0668  -18.0240   22.0127 N   0  0  0  0  0  0  0  0  0  0  0  0
   14.4729  -17.1706   23.0315 C   0  0  0  0  0  0  0  0  0  0  0  0
   13.1427  -17.7396   23.3979 C   0  0  0  0  0  0  0  0  0  0  0  0
   12.3478  -16.9087   24.3365 C   0  0  0  0  0  0  0  0  0  0  0  0
   10.9924  -17.4458   24.6977 C   0  0  2  0  0  0  0  0  0  0  0  0
   10.0358  -16.4536   24.2002 N   0  0  0  0  0  0  0  0  0  0  0  0
   10.8951  -17.4307   26.1838 C   0  0  0  0  0  0  0  0  0  0  0  0
   10.2352  -16.5489   26.8020 O   0  0  0  0  0  0  0  0  0  0  0  0
   11.5317  -18.3920   26.9200 O   0  0  0  0  0  0  0  0  0  0  0  0
  2  1  1  0
  3  2  1  0
  3  4  1  6
  5  3  1  0
  5  6  1  1
  7  5  1  0
  8  7  2  0
  9  7  1  0
 10  9  1  0
 10 11  1  1
 12 11  1  0
 13 12  2  0
 14 13  1  0
 15 14  1  0
 15 20  2  0
 16 17  2  0
 16 15  1  0
 17 18  1  0
 18 19  2  0
 20 19  1  0
 20 12  1  0
 21 10  1  0
 21 31  1  0
 22 21  2  0
 23 24  1  0
 24 26  1  0
 24 25  2  0
 26 27  1  0
 28 27  1  0
 28 29  1  0
 30 31  1  0
 30 29  1  1
 30 32  1  0
 32 33  2  0
 32 34  1  0
M  END
$$$$
