IWR.pdb
     RDKit          3D

 34 35  0  0  1  0  0  0  0  0999 V2000
    6.7837  -12.5492   18.8433 C   0  0  0  0  0  0  0  0  0  0  0  0
    6.9230  -13.9300   19.4026 C   0  0  0  0  0  0  0  0  0  0  0  0
    7.8583  -14.0505   20.5677 C   0  0  2  0  0  0  0  0  0  0  0  0
    9.2327  -13.5695   20.1133 C   0  0  0  0  0  0  0  0  0  0  0  0
    7.9991  -15.4074   21.1497 C   0  0  2  0  0  0  0  0  0  0  0  0
    6.7969  -16.0927   21.4502 N   0  0  0  0  0  0  0  0  0  0  0  0
    8.9490  -15.5070   22.2792 C   0  0  0  0  0  0  0  0  0  0  0  0
   10.1056  -15.0048   22.2169 O   0  0  0  0  0  0  0  0  0  0  0  0
    8.5637  -16.1740   23.4459 N   0  0  0  0  0  0  0  0  0  0  0  0
    9.3242  -16.4486   24.6143 C   0  0  1  0  0  0  0  0  0  0  0  0
    8.4833  -16.3379   25.8259 C   0  0  0  0  0  0  0  0  0  0  0  0
    7.4202  -15.3153   25.7125 C   0  0  0  0  0  0  0  0  0  0  0  0
    6.1253  -15.4135   25.3021 C   0  0  0  0  0  0  0  0  0  0  0  0
    5.4955  -14.2087   25.3428 N   0  0  0  0  0  0  0  0  0  0  0  0
    6.3952  -13.3084   25.7875 C   0  0  0  0  0  0  0  0  0  0  0  0
    6.3629  -11.9513   26.0329 C   0  0  0  0  0  0  0  0  0  0  0  0
    7.4525  -11.2358   26.4953 C   0  0  0  0  0  0  0  0  0  0  0  0
    8.6268  -11.9150   26.7213 C   0  0  0  0  0  0  0  0  0  0  0  0
    8.7013  -13.2892   26.4849 C   0  0  0  0  0  0  0  0  0  0  0  0
    7.5877  -13.9590   26.0235 C   0  0  0  0  0  0  0  0  0  0  0  0
   10.2132  -17.6139   24.5787 C   0  0  0  0  0  0  0  0  0  0  0  0
    9.7638  -18.7656   24.5958 O   0  0  0  0  0  0  0  0  0  0  0  0
   14.8026  -17.8892   18.5590 N   0  0  0  0  0  0  0  0  0  0  0  0
   15.3195  -19.1383   19.0131 C   0  0  0  0  0  0  0  0  0  0  0  0
   16.3493  -19.6453   18.4517 N   0  0  0  0  0  0  0  0  0  0  0  0
   14.6738  -19.8002   20.0901 N   0  0  0  0  0  0  0  0  0  0  0  0
   13.5432  -19.1931   20.7770 C   0  0  0  0  0  0  0  0  0  0  0  0
   14.0740  -18.3056   21.8531 C   0  0  0  0  0  0  0  0  0  0  0  0
   13.0362  -17.6054   22.6505 C   0  0  0  0  0  0  0  0  0  0  0  0
   12.5348  -18.3408   23.8604 C   0  0  2  0  0  0  0  0  0  0  0  0
   11.6138  -17.4145   24.5245 N   0  0  0  0  0  0  0  0  0  0  0  0
   13.6953  -18.5246   24.7756 C   0  0  0  0  0  0  0  0  0  0  0  0
   14.2513  -19.6476   24.9335 O   0  0  0  0  0  0  0  0  0  0  0  0
   14.1894  -17.4579   25.4751 O   0  0  0  0  0  0  0  0  0  0  0  0
  2  1  1  0
  3  2  1  0
  3  4  1  6
  5  3  1  0
  5  6  1  1
  7  5  1  0
  8  7  2  0
  9  7  1  0
 10  9  1  0
 10 11  1  1
 12 11  1  0
 13 12  2  0
 14 13  1  0
 15 14  1  0
 15 20  2  0
 16 17  2  0
 16 15  1  0
 17 18  1  0
 18 19  2  0
 20 19  1  0
 20 12  1  0
 21 10  1  0
 21 31  1  0
 22 21  2  0
 23 24  1  0
 24 26  1  0
 24 25  2  0
 26 27  1  0
 28 27  1  0
 28 29  1  0
 30 31  1  0
 30 29  1  6
 30 32  1  0
 32 33  2  0
 32 34  1  0
M  END
$$$$
