IWR.pdb
     RDKit          3D

 34 35  0  0  1  0  0  0  0  0999 V2000
    8.6343  -16.1109   15.1670 C   0  0  0  0  0  0  0  0  0  0  0  0
    7.9171  -15.1650   16.0779 C   0  0  0  0  0  0  0  0  0  0  0  0
    8.4739  -15.0776   17.4667 C   0  0  2  0  0  0  0  0  0  0  0  0
    8.4184  -16.4734   18.0796 C   0  0  0  0  0  0  0  0  0  0  0  0
    7.7915  -14.1304   18.3815 C   0  0  2  0  0  0  0  0  0  0  0  0
    7.6885  -12.7893   17.9387 N   0  0  0  0  0  0  0  0  0  0  0  0
    8.2508  -14.1787   19.7868 C   0  0  0  0  0  0  0  0  0  0  0  0
    9.4067  -13.7944   20.1183 O   0  0  0  0  0  0  0  0  0  0  0  0
    7.3897  -14.6627   20.7762 N   0  0  0  0  0  0  0  0  0  0  0  0
    7.6510  -14.9051   22.1516 C   0  0  1  0  0  0  0  0  0  0  0  0
    6.4021  -14.8443   22.9416 C   0  0  0  0  0  0  0  0  0  0  0  0
    6.6197  -14.9887   24.3979 C   0  0  0  0  0  0  0  0  0  0  0  0
    6.6623  -16.0956   25.1901 C   0  0  0  0  0  0  0  0  0  0  0  0
    6.8776  -15.7698   26.4929 N   0  0  0  0  0  0  0  0  0  0  0  0
    6.9770  -14.4265   26.5519 C   0  0  0  0  0  0  0  0  0  0  0  0
    7.1844  -13.5174   27.5686 C   0  0  0  0  0  0  0  0  0  0  0  0
    7.2427  -12.1504   27.3664 C   0  0  0  0  0  0  0  0  0  0  0  0
    7.0858  -11.6763   26.0849 C   0  0  0  0  0  0  0  0  0  0  0  0
    6.8736  -12.5635   25.0278 C   0  0  0  0  0  0  0  0  0  0  0  0
    6.8230  -13.9184   25.2795 C   0  0  0  0  0  0  0  0  0  0  0  0
    8.5404  -16.0235   22.4796 C   0  0  0  0  0  0  0  0  0  0  0  0
    8.3275  -17.1619   22.0470 O   0  0  0  0  0  0  0  0  0  0  0  0
   16.6135  -16.3125   22.4083 N   0  0  0  0  0  0  0  0  0  0  0  0
   16.3833  -17.7079   22.5910 C   0  0  0  0  0  0  0  0  0  0  0  0
   17.3494  -18.4768   22.9198 N   0  0  0  0  0  0  0  0  0  0  0  0
   15.0730  -18.2203   22.4024 N   0  0  0  0  0  0  0  0  0  0  0  0
   13.9704  -17.3470   22.0274 C   0  0  0  0  0  0  0  0  0  0  0  0
   13.1979  -17.0166   23.2609 C   0  0  0  0  0  0  0  0  0  0  0  0
   11.9702  -16.2151   23.0301 C   0  0  0  0  0  0  0  0  0  0  0  0
   10.6959  -16.8020   23.5668 C   0  0  2  0  0  0  0  0  0  0  0  0
    9.6646  -15.7934   23.3090 N   0  0  0  0  0  0  0  0  0  0  0  0
   10.8445  -16.8980   25.0456 C   0  0  0  0  0  0  0  0  0  0  0  0
   10.2406  -16.1145   25.8308 O   0  0  0  0  0  0  0  0  0  0  0  0
   11.6543  -17.8567   25.5900 O   0  0  0  0  0  0  0  0  0  0  0  0
  2  1  1  0
  3  2  1  0
  3  4  1  1
  5  3  1  0
  5  6  1  6
  7  5  1  0
  8  7  2  0
  9  7  1  0
 10  9  1  0
 10 11  1  1
 12 11  1  0
 13 12  2  0
 14 13  1  0
 15 14  1  0
 15 20  2  0
 16 17  2  0
 16 15  1  0
 17 18  1  0
 18 19  2  0
 20 19  1  0
 20 12  1  0
 21 10  1  0
 21 31  1  0
 22 21  2  0
 23 24  1  0
 24 26  1  0
 24 25  2  0
 26 27  1  0
 28 27  1  0
 28 29  1  0
 30 31  1  0
 30 29  1  6
 30 32  1  0
 32 33  2  0
 32 34  1  0
M  END
$$$$
