IWR.pdb
     RDKit          3D

 34 35  0  0  1  0  0  0  0  0999 V2000
    7.4731  -12.7458   16.1582 C   0  0  0  0  0  0  0  0  0  0  0  0
    8.1576  -13.8986   16.8224 C   0  0  0  0  0  0  0  0  0  0  0  0
    8.1584  -13.8575   18.3207 C   0  0  2  0  0  0  0  0  0  0  0  0
    8.9802  -12.6473   18.7531 C   0  0  0  0  0  0  0  0  0  0  0  0
    8.6921  -15.0614   19.0030 C   0  0  2  0  0  0  0  0  0  0  0  0
    8.0143  -16.2797   18.7544 N   0  0  0  0  0  0  0  0  0  0  0  0
    8.9487  -14.8968   20.4505 C   0  0  0  0  0  0  0  0  0  0  0  0
    9.8751  -14.1529   20.8774 O   0  0  0  0  0  0  0  0  0  0  0  0
    8.1513  -15.5804   21.3731 N   0  0  0  0  0  0  0  0  0  0  0  0
    8.2397  -15.6030   22.7911 C   0  0  1  0  0  0  0  0  0  0  0  0
    6.8949  -15.5272   23.4020 C   0  0  0  0  0  0  0  0  0  0  0  0
    6.9247  -15.3982   24.8755 C   0  0  0  0  0  0  0  0  0  0  0  0
    6.7864  -16.3314   25.8576 C   0  0  0  0  0  0  0  0  0  0  0  0
    6.8687  -15.7713   27.0944 N   0  0  0  0  0  0  0  0  0  0  0  0
    7.0638  -14.4493   26.9161 C   0  0  0  0  0  0  0  0  0  0  0  0
    7.2176  -13.3728   27.7650 C   0  0  0  0  0  0  0  0  0  0  0  0
    7.4051  -12.0759   27.3226 C   0  0  0  0  0  0  0  0  0  0  0  0
    7.4400  -11.8513   25.9661 C   0  0  0  0  0  0  0  0  0  0  0  0
    7.2880  -12.9138   25.0731 C   0  0  0  0  0  0  0  0  0  0  0  0
    7.1030  -14.1897   25.5626 C   0  0  0  0  0  0  0  0  0  0  0  0
    9.1409  -16.5908   23.3923 C   0  0  0  0  0  0  0  0  0  0  0  0
    8.9256  -17.8038   23.2888 O   0  0  0  0  0  0  0  0  0  0  0  0
   16.1381  -15.3485   20.1291 N   0  0  0  0  0  0  0  0  0  0  0  0
   14.8063  -14.9807   19.7758 C   0  0  0  0  0  0  0  0  0  0  0  0
   14.6058  -14.0800   18.8919 N   0  0  0  0  0  0  0  0  0  0  0  0
   13.7193  -15.6286   20.4189 N   0  0  0  0  0  0  0  0  0  0  0  0
   13.8492  -16.1537   21.7703 C   0  0  0  0  0  0  0  0  0  0  0  0
   12.6471  -15.7357   22.5498 C   0  0  0  0  0  0  0  0  0  0  0  0
   12.6354  -16.1856   23.9642 C   0  0  0  0  0  0  0  0  0  0  0  0
   11.4409  -16.9944   24.3830 C   0  0  2  0  0  0  0  0  0  0  0  0
   10.2796  -16.1448   24.1057 N   0  0  0  0  0  0  0  0  0  0  0  0
   11.5146  -17.1542   25.8619 C   0  0  0  0  0  0  0  0  0  0  0  0
   11.6002  -16.1619   26.6384 O   0  0  0  0  0  0  0  0  0  0  0  0
   11.4898  -18.4047   26.4160 O   0  0  0  0  0  0  0  0  0  0  0  0
  2  1  1  0
  3  2  1  0
  3  4  1  6
  5  3  1  0
  5  6  1  1
  7  5  1  0
  8  7  2  0
  9  7  1  0
 10  9  1  0
 10 11  1  1
 12 11  1  0
 13 12  2  0
 14 13  1  0
 15 14  1  0
 15 20  2  0
 16 17  2  0
 16 15  1  0
 17 18  1  0
 18 19  2  0
 20 19  1  0
 20 12  1  0
 21 10  1  0
 21 31  1  0
 22 21  2  0
 23 24  1  0
 24 26  1  0
 24 25  2  0
 26 27  1  0
 28 27  1  0
 28 29  1  0
 30 31  1  0
 30 29  1  1
 30 32  1  0
 32 33  2  0
 32 34  1  0
M  END
$$$$
