IWR.pdb
     RDKit          3D

 34 35  0  0  1  0  0  0  0  0999 V2000
    8.5332  -20.4211   17.3430 C   0  0  0  0  0  0  0  0  0  0  0  0
    8.3436  -18.9478   17.5225 C   0  0  0  0  0  0  0  0  0  0  0  0
    8.7994  -18.4064   18.8437 C   0  0  2  0  0  0  0  0  0  0  0  0
    8.0287  -19.1381   19.9379 C   0  0  0  0  0  0  0  0  0  0  0  0
    8.6306  -16.9460   19.0402 C   0  0  2  0  0  0  0  0  0  0  0  0
    9.1846  -16.1073   18.0427 N   0  0  0  0  0  0  0  0  0  0  0  0
    8.9853  -16.4521   20.3886 C   0  0  0  0  0  0  0  0  0  0  0  0
   10.1873  -16.3520   20.7612 O   0  0  0  0  0  0  0  0  0  0  0  0
    7.9695  -16.0881   21.2776 N   0  0  0  0  0  0  0  0  0  0  0  0
    8.0567  -15.7850   22.6630 C   0  0  1  0  0  0  0  0  0  0  0  0
    6.8626  -15.0373   23.1128 C   0  0  0  0  0  0  0  0  0  0  0  0
    6.8390  -14.7890   24.5711 C   0  0  0  0  0  0  0  0  0  0  0  0
    6.4795  -15.5936   25.6093 C   0  0  0  0  0  0  0  0  0  0  0  0
    6.5994  -14.9528   26.8030 N   0  0  0  0  0  0  0  0  0  0  0  0
    7.0447  -13.7079   26.5390 C   0  0  0  0  0  0  0  0  0  0  0  0
    7.3505  -12.6075   27.3127 C   0  0  0  0  0  0  0  0  0  0  0  0
    7.7974  -11.4087   26.7873 C   0  0  0  0  0  0  0  0  0  0  0  0
    7.9438  -11.3121   25.4232 C   0  0  0  0  0  0  0  0  0  0  0  0
    7.6447  -12.4030   24.6046 C   0  0  0  0  0  0  0  0  0  0  0  0
    7.2017  -13.5775   25.1755 C   0  0  0  0  0  0  0  0  0  0  0  0
    8.4914  -16.8603   23.5598 C   0  0  0  0  0  0  0  0  0  0  0  0
    7.8366  -17.9023   23.6781 O   0  0  0  0  0  0  0  0  0  0  0  0
   11.9547  -19.2496   19.9721 N   0  0  0  0  0  0  0  0  0  0  0  0
   13.2558  -19.2221   20.5553 C   0  0  0  0  0  0  0  0  0  0  0  0
   14.2844  -19.0622   19.8144 N   0  0  0  0  0  0  0  0  0  0  0  0
   13.3838  -19.3742   21.9608 N   0  0  0  0  0  0  0  0  0  0  0  0
   12.2195  -19.6140   22.8008 C   0  0  0  0  0  0  0  0  0  0  0  0
   11.6526  -18.2921   23.1994 C   0  0  0  0  0  0  0  0  0  0  0  0
   11.5777  -18.0634   24.6641 C   0  0  0  0  0  0  0  0  0  0  0  0
   10.2172  -17.7271   25.2043 C   0  0  2  0  0  0  0  0  0  0  0  0
    9.6847  -16.7002   24.3048 N   0  0  0  0  0  0  0  0  0  0  0  0
   10.4184  -17.0771   26.5292 C   0  0  0  0  0  0  0  0  0  0  0  0
   10.7956  -17.7284   27.5434 O   0  0  0  0  0  0  0  0  0  0  0  0
   10.1939  -15.7354   26.6730 O   0  0  0  0  0  0  0  0  0  0  0  0
  2  1  1  0
  3  2  1  0
  3  4  1  1
  5  3  1  0
  5  6  1  6
  7  5  1  0
  8  7  2  0
  9  7  1  0
 10  9  1  0
 10 11  1  1
 12 11  1  0
 13 12  2  0
 14 13  1  0
 15 14  1  0
 15 20  2  0
 16 17  2  0
 16 15  1  0
 17 18  1  0
 18 19  2  0
 20 19  1  0
 20 12  1  0
 21 10  1  0
 21 31  1  0
 22 21  2  0
 23 24  1  0
 24 26  1  0
 24 25  2  0
 26 27  1  0
 28 27  1  0
 28 29  1  0
 30 31  1  0
 30 29  1  6
 30 32  1  0
 32 33  2  0
 32 34  1  0
M  END
$$$$
