IWR.pdb
     RDKit          3D

 34 35  0  0  1  0  0  0  0  0999 V2000
    8.2176  -13.7141   17.5790 C   0  0  0  0  0  0  0  0  0  0  0  0
    7.3719  -14.2337   18.6988 C   0  0  0  0  0  0  0  0  0  0  0  0
    8.0727  -14.3565   20.0180 C   0  0  2  0  0  0  0  0  0  0  0  0
    9.3040  -15.2328   19.8115 C   0  0  0  0  0  0  0  0  0  0  0  0
    7.2696  -14.9212   21.1297 C   0  0  2  0  0  0  0  0  0  0  0  0
    5.9546  -14.4169   21.2774 N   0  0  0  0  0  0  0  0  0  0  0  0
    7.9582  -14.9649   22.4381 C   0  0  0  0  0  0  0  0  0  0  0  0
    8.3732  -13.9146   23.0024 O   0  0  0  0  0  0  0  0  0  0  0  0
    8.1596  -16.1960   23.0693 N   0  0  0  0  0  0  0  0  0  0  0  0
    8.8914  -16.4882   24.2516 C   0  0  1  0  0  0  0  0  0  0  0  0
    7.9869  -16.5881   25.4175 C   0  0  0  0  0  0  0  0  0  0  0  0
    7.1453  -15.3873   25.6136 C   0  0  0  0  0  0  0  0  0  0  0  0
    5.8298  -15.1634   25.3415 C   0  0  0  0  0  0  0  0  0  0  0  0
    5.4596  -13.8970   25.6722 N   0  0  0  0  0  0  0  0  0  0  0  0
    6.5528  -13.2838   26.1686 C   0  0  0  0  0  0  0  0  0  0  0  0
    6.8124  -12.0209   26.6593 C   0  0  0  0  0  0  0  0  0  0  0  0
    8.0553  -11.6236   27.1178 C   0  0  0  0  0  0  0  0  0  0  0  0
    9.0830  -12.5368   27.0817 C   0  0  0  0  0  0  0  0  0  0  0  0
    8.8619  -13.8256   26.5920 C   0  0  0  0  0  0  0  0  0  0  0  0
    7.6048  -14.1748   26.1455 C   0  0  0  0  0  0  0  0  0  0  0  0
    9.9146  -17.5347   24.1670 C   0  0  0  0  0  0  0  0  0  0  0  0
    9.6242  -18.6929   23.8462 O   0  0  0  0  0  0  0  0  0  0  0  0
   14.0481  -13.6676   21.3312 N   0  0  0  0  0  0  0  0  0  0  0  0
   13.9554  -14.6211   20.2748 C   0  0  0  0  0  0  0  0  0  0  0  0
   13.6410  -14.2402   19.0964 N   0  0  0  0  0  0  0  0  0  0  0  0
   14.2169  -15.9878   20.5557 N   0  0  0  0  0  0  0  0  0  0  0  0
   14.5590  -16.4274   21.9006 C   0  0  0  0  0  0  0  0  0  0  0  0
   13.3526  -17.0679   22.5021 C   0  0  0  0  0  0  0  0  0  0  0  0
   13.5301  -17.5416   23.8975 C   0  0  0  0  0  0  0  0  0  0  0  0
   12.3352  -18.2064   24.5191 C   0  0  2  0  0  0  0  0  0  0  0  0
   11.2616  -17.2109   24.4594 N   0  0  0  0  0  0  0  0  0  0  0  0
   12.6486  -18.4162   25.9599 C   0  0  0  0  0  0  0  0  0  0  0  0
   12.1205  -17.7153   26.8682 O   0  0  0  0  0  0  0  0  0  0  0  0
   13.5318  -19.3923   26.3319 O   0  0  0  0  0  0  0  0  0  0  0  0
  2  1  1  0
  3  2  1  0
  3  4  1  6
  5  3  1  0
  5  6  1  1
  7  5  1  0
  8  7  2  0
  9  7  1  0
 10  9  1  0
 10 11  1  1
 12 11  1  0
 13 12  2  0
 14 13  1  0
 15 14  1  0
 15 20  2  0
 16 17  2  0
 16 15  1  0
 17 18  1  0
 18 19  2  0
 20 19  1  0
 20 12  1  0
 21 10  1  0
 21 31  1  0
 22 21  2  0
 23 24  1  0
 24 26  1  0
 24 25  2  0
 26 27  1  0
 28 27  1  0
 28 29  1  0
 30 31  1  0
 30 29  1  6
 30 32  1  0
 32 33  2  0
 32 34  1  0
M  END
$$$$
