IWR.pdb
     RDKit          3D

 34 35  0  0  1  0  0  0  0  0999 V2000
    7.1468  -11.9668   18.8450 C   0  0  0  0  0  0  0  0  0  0  0  0
    7.2665  -13.3821   19.3158 C   0  0  0  0  0  0  0  0  0  0  0  0
    8.1996  -13.5892   20.4703 C   0  0  2  0  0  0  0  0  0  0  0  0
    9.5758  -13.0795   20.0541 C   0  0  0  0  0  0  0  0  0  0  0  0
    8.3367  -14.9852   20.9521 C   0  0  2  0  0  0  0  0  0  0  0  0
    7.1348  -15.6640   21.2686 N   0  0  0  0  0  0  0  0  0  0  0  0
    9.3400  -15.1813   22.0211 C   0  0  0  0  0  0  0  0  0  0  0  0
   10.5256  -14.7649   21.8998 O   0  0  0  0  0  0  0  0  0  0  0  0
    8.9736  -15.8451   23.1957 N   0  0  0  0  0  0  0  0  0  0  0  0
    9.7575  -16.1304   24.3460 C   0  0  1  0  0  0  0  0  0  0  0  0
    8.8979  -16.3056   25.5366 C   0  0  0  0  0  0  0  0  0  0  0  0
    7.7526  -15.3699   25.5780 C   0  0  0  0  0  0  0  0  0  0  0  0
    6.4478  -15.5377   25.2257 C   0  0  0  0  0  0  0  0  0  0  0  0
    5.7284  -14.3992   25.4162 N   0  0  0  0  0  0  0  0  0  0  0  0
    6.5787  -13.4721   25.9011 C   0  0  0  0  0  0  0  0  0  0  0  0
    6.4538  -12.1516   26.2799 C   0  0  0  0  0  0  0  0  0  0  0  0
    7.5087  -11.3934   26.7546 C   0  0  0  0  0  0  0  0  0  0  0  0
    8.7441  -11.9897   26.8533 C   0  0  0  0  0  0  0  0  0  0  0  0
    8.9128  -13.3245   26.4798 C   0  0  0  0  0  0  0  0  0  0  0  0
    7.8305  -14.0394   26.0117 C   0  0  0  0  0  0  0  0  0  0  0  0
   10.8278  -17.1218   24.2005 C   0  0  0  0  0  0  0  0  0  0  0  0
   10.5838  -18.3337   24.1890 O   0  0  0  0  0  0  0  0  0  0  0  0
   16.2017  -15.7146   19.0131 N   0  0  0  0  0  0  0  0  0  0  0  0
   14.8199  -15.3697   19.0860 C   0  0  0  0  0  0  0  0  0  0  0  0
   14.4157  -14.2505   18.6207 N   0  0  0  0  0  0  0  0  0  0  0  0
   13.9120  -16.2853   19.6796 N   0  0  0  0  0  0  0  0  0  0  0  0
   14.3695  -17.5605   20.2118 C   0  0  0  0  0  0  0  0  0  0  0  0
   13.5617  -17.8748   21.4268 C   0  0  0  0  0  0  0  0  0  0  0  0
   13.9941  -17.1718   22.6604 C   0  0  0  0  0  0  0  0  0  0  0  0
   13.3055  -17.5918   23.9275 C   0  0  2  0  0  0  0  0  0  0  0  0
   12.1670  -16.6806   24.0716 N   0  0  0  0  0  0  0  0  0  0  0  0
   14.2368  -17.2987   25.0522 C   0  0  0  0  0  0  0  0  0  0  0  0
   14.0518  -16.3274   25.8380 O   0  0  0  0  0  0  0  0  0  0  0  0
   15.3312  -18.0933   25.2577 O   0  0  0  0  0  0  0  0  0  0  0  0
  2  1  1  0
  3  2  1  0
  3  4  1  6
  5  3  1  0
  5  6  1  1
  7  5  1  0
  8  7  2  0
  9  7  1  0
 10  9  1  0
 10 11  1  1
 12 11  1  0
 13 12  2  0
 14 13  1  0
 15 14  1  0
 15 20  2  0
 16 17  2  0
 16 15  1  0
 17 18  1  0
 18 19  2  0
 20 19  1  0
 20 12  1  0
 21 10  1  0
 21 31  1  0
 22 21  2  0
 23 24  1  0
 24 26  1  0
 24 25  2  0
 26 27  1  0
 28 27  1  0
 28 29  1  0
 30 31  1  0
 30 29  1  6
 30 32  1  0
 32 33  2  0
 32 34  1  0
M  END
$$$$
