DAW.pdb
     RDKit          3D

 28 29  0  0  1  0  0  0  0  0999 V2000
    7.2109  -19.2532   20.5161 N   0  0  0  0  0  0  0  0  0  0  0  0
    8.4590  -18.7728   20.0239 C   0  0  1  0  0  0  0  0  0  0  0  0
    8.6121  -19.1453   18.5695 C   0  0  0  0  0  0  0  0  0  0  0  0
    8.5767  -20.6244   18.4890 C   0  0  0  0  0  0  0  0  0  0  0  0
    7.5070  -21.1727   18.1356 O   0  0  0  0  0  0  0  0  0  0  0  0
    8.7426  -17.3672   20.3195 C   0  0  0  0  0  0  0  0  0  0  0  0
    9.8897  -16.9084   20.0275 O   0  0  0  0  0  0  0  0  0  0  0  0
    9.6587  -21.4336   18.7821 O   0  0  0  0  0  0  0  0  0  0  0  0
    7.0283  -14.1725   21.3616 C   0  0  0  0  0  0  0  0  0  0  0  0
    8.2179  -15.0767   21.2292 C   0  0  2  0  0  0  0  0  0  0  0  0
    7.8491  -16.4429   20.9119 N   0  0  0  0  0  0  0  0  0  0  0  0
    9.0990  -15.0204   22.4327 C   0  0  0  0  0  0  0  0  0  0  0  0
    9.7602  -13.9759   22.7266 O   0  0  0  0  0  0  0  0  0  0  0  0
    9.2530  -16.1185   23.3168 N   0  0  0  0  0  0  0  0  0  0  0  0
   10.1267  -16.1343   24.4734 C   0  0  1  0  0  0  0  0  0  0  0  0
    9.8184  -15.0635   25.4561 C   0  0  0  0  0  0  0  0  0  0  0  0
    8.3758  -14.8631   25.7541 C   0  0  0  0  0  0  0  0  0  0  0  0
    7.4028  -15.8804   25.7271 C   0  0  0  0  0  0  0  0  0  0  0  0
    6.2294  -15.3499   26.0703 N   0  0  0  0  0  0  0  0  0  0  0  0
    6.3474  -14.0430   26.3263 C   0  0  0  0  0  0  0  0  0  0  0  0
    5.4443  -13.0814   26.7022 C   0  0  0  0  0  0  0  0  0  0  0  0
    5.8061  -11.7673   26.9040 C   0  0  0  0  0  0  0  0  0  0  0  0
    7.1300  -11.4654   26.7075 C   0  0  0  0  0  0  0  0  0  0  0  0
    8.0496  -12.4306   26.3278 C   0  0  0  0  0  0  0  0  0  0  0  0
    7.6801  -13.7366   26.1303 C   0  0  0  0  0  0  0  0  0  0  0  0
   10.3704  -17.4553   25.0453 C   0  0  0  0  0  0  0  0  0  0  0  0
   11.3975  -17.6302   25.9482 O   0  0  0  0  0  0  0  0  0  0  0  0
    9.6698  -18.4421   24.7328 O   0  0  0  0  0  0  0  0  0  0  0  0
  2  1  1  6
  2  3  1  0
  4  3  1  0
  4  5  2  0
  6  2  1  0
  7  6  2  0
  8  4  1  0
 10  9  1  1
 10 12  1  0
 10 11  1  0
 11  6  1  0
 12 13  2  0
 14 15  1  0
 14 12  1  0
 15 16  1  1
 16 17  1  0
 17 25  1  0
 18 17  2  0
 18 19  1  0
 19 20  1  0
 20 21  1  0
 21 22  2  0
 23 22  1  0
 24 23  2  0
 25 20  2  0
 25 24  1  0
 26 27  1  0
 26 15  1  0
 28 26  2  0
M  END
$$$$
