DAW.pdb
     RDKit          3D

 28 29  0  0  1  0  0  0  0  0999 V2000
    8.0075  -19.0725   20.2224 N   0  0  0  0  0  0  0  0  0  0  0  0
    9.2561  -18.3957   20.1047 C   0  0  1  0  0  0  0  0  0  0  0  0
    9.7729  -18.5193   18.6922 C   0  0  0  0  0  0  0  0  0  0  0  0
   10.0146  -19.9587   18.4375 C   0  0  0  0  0  0  0  0  0  0  0  0
   10.7339  -20.5905   19.2458 O   0  0  0  0  0  0  0  0  0  0  0  0
    9.2747  -17.0318   20.6365 C   0  0  0  0  0  0  0  0  0  0  0  0
   10.3486  -16.3615   20.5417 O   0  0  0  0  0  0  0  0  0  0  0  0
    9.4904  -20.6441   17.3572 O   0  0  0  0  0  0  0  0  0  0  0  0
    6.9373  -14.3488   21.8827 C   0  0  0  0  0  0  0  0  0  0  0  0
    8.2803  -15.0046   21.7551 C   0  0  2  0  0  0  0  0  0  0  0  0
    8.1934  -16.3655   21.2614 N   0  0  0  0  0  0  0  0  0  0  0  0
    9.0565  -14.9404   23.0285 C   0  0  0  0  0  0  0  0  0  0  0  0
    9.5820  -13.8573   23.4350 O   0  0  0  0  0  0  0  0  0  0  0  0
    9.2552  -16.0731   23.8582 N   0  0  0  0  0  0  0  0  0  0  0  0
   10.1450  -16.1163   25.0018 C   0  0  1  0  0  0  0  0  0  0  0  0
    9.4541  -15.8627   26.2924 C   0  0  0  0  0  0  0  0  0  0  0  0
    8.0880  -15.2863   26.1856 C   0  0  0  0  0  0  0  0  0  0  0  0
    6.9259  -16.0266   25.8961 C   0  0  0  0  0  0  0  0  0  0  0  0
    5.8840  -15.1957   25.9056 N   0  0  0  0  0  0  0  0  0  0  0  0
    6.2672  -13.9449   26.1819 C   0  0  0  0  0  0  0  0  0  0  0  0
    5.5803  -12.7631   26.2958 C   0  0  0  0  0  0  0  0  0  0  0  0
    6.2061  -11.5704   26.5863 C   0  0  0  0  0  0  0  0  0  0  0  0
    7.5663  -11.6248   26.7576 C   0  0  0  0  0  0  0  0  0  0  0  0
    8.2686  -12.8145   26.6446 C   0  0  0  0  0  0  0  0  0  0  0  0
    7.6367  -13.9971   26.3560 C   0  0  0  0  0  0  0  0  0  0  0  0
   11.0898  -17.2293   25.0075 C   0  0  0  0  0  0  0  0  0  0  0  0
   10.9851  -18.2194   24.0538 O   0  0  0  0  0  0  0  0  0  0  0  0
   11.9967  -17.3123   25.8636 O   0  0  0  0  0  0  0  0  0  0  0  0
  2  1  1  6
  2  3  1  0
  4  3  1  0
  4  5  2  0
  6  2  1  0
  7  6  2  0
  8  4  1  0
 10  9  1  1
 10 12  1  0
 10 11  1  0
 11  6  1  0
 12 13  2  0
 14 15  1  0
 14 12  1  0
 15 16  1  1
 16 17  1  0
 17 25  1  0
 18 17  2  0
 18 19  1  0
 19 20  1  0
 20 21  1  0
 21 22  2  0
 23 22  1  0
 24 23  2  0
 25 20  2  0
 25 24  1  0
 26 27  1  0
 26 15  1  0
 28 26  2  0
M  END
$$$$
