DAW.pdb
     RDKit          3D

 28 29  0  0  1  0  0  0  0  0999 V2000
    7.7568  -19.0981   20.5762 N   0  0  0  0  0  0  0  0  0  0  0  0
    8.7724  -18.3593   19.9026 C   0  0  1  0  0  0  0  0  0  0  0  0
    8.6057  -18.5056   18.4099 C   0  0  0  0  0  0  0  0  0  0  0  0
    8.9609  -19.9017   18.0632 C   0  0  0  0  0  0  0  0  0  0  0  0
    9.8848  -20.4542   18.7045 O   0  0  0  0  0  0  0  0  0  0  0  0
    8.9399  -16.9780   20.3582 C   0  0  0  0  0  0  0  0  0  0  0  0
   10.0585  -16.4099   20.1647 O   0  0  0  0  0  0  0  0  0  0  0  0
    8.3297  -20.6291   17.0714 O   0  0  0  0  0  0  0  0  0  0  0  0
    6.9509  -14.0031   21.4883 C   0  0  0  0  0  0  0  0  0  0  0  0
    8.2024  -14.8291   21.4481 C   0  0  2  0  0  0  0  0  0  0  0  0
    7.9603  -16.1898   21.0085 N   0  0  0  0  0  0  0  0  0  0  0  0
    8.9305  -14.8037   22.7509 C   0  0  0  0  0  0  0  0  0  0  0  0
    9.3073  -13.7130   23.2828 O   0  0  0  0  0  0  0  0  0  0  0  0
    9.2454  -15.9838   23.4714 N   0  0  0  0  0  0  0  0  0  0  0  0
   10.0124  -16.0238   24.7009 C   0  0  1  0  0  0  0  0  0  0  0  0
    9.1738  -16.2367   25.9086 C   0  0  0  0  0  0  0  0  0  0  0  0
    7.9028  -15.4667   25.9502 C   0  0  0  0  0  0  0  0  0  0  0  0
    6.6306  -16.0042   25.6769 C   0  0  0  0  0  0  0  0  0  0  0  0
    5.7236  -15.0406   25.8345 N   0  0  0  0  0  0  0  0  0  0  0  0
    6.3005  -13.8897   26.1954 C   0  0  0  0  0  0  0  0  0  0  0  0
    5.8013  -12.6406   26.4636 C   0  0  0  0  0  0  0  0  0  0  0  0
    6.6100  -11.5823   26.8164 C   0  0  0  0  0  0  0  0  0  0  0  0
    7.9552  -11.8437   26.8865 C   0  0  0  0  0  0  0  0  0  0  0  0
    8.4685  -13.1029   26.6174 C   0  0  0  0  0  0  0  0  0  0  0  0
    7.6552  -14.1505   26.2679 C   0  0  0  0  0  0  0  0  0  0  0  0
   11.2343  -16.8204   24.6408 C   0  0  0  0  0  0  0  0  0  0  0  0
   11.4646  -17.6377   23.5547 O   0  0  0  0  0  0  0  0  0  0  0  0
   12.0834  -16.7848   25.5574 O   0  0  0  0  0  0  0  0  0  0  0  0
  2  1  1  1
  2  3  1  0
  4  3  1  0
  4  5  2  0
  6  2  1  0
  7  6  2  0
  8  4  1  0
 10  9  1  1
 10 12  1  0
 10 11  1  0
 11  6  1  0
 12 13  2  0
 14 15  1  0
 14 12  1  0
 15 16  1  1
 16 17  1  0
 17 25  1  0
 18 17  2  0
 18 19  1  0
 19 20  1  0
 20 21  1  0
 21 22  2  0
 23 22  1  0
 24 23  2  0
 25 20  2  0
 25 24  1  0
 26 27  1  0
 26 15  1  0
 28 26  2  0
M  END
$$$$
