DAW.pdb
     RDKit          3D

 28 29  0  0  1  0  0  0  0  0999 V2000
    8.7729  -18.4917   17.9056 N   0  0  0  0  0  0  0  0  0  0  0  0
    8.0928  -18.3509   19.1499 C   0  0  1  0  0  0  0  0  0  0  0  0
    8.1017  -19.6668   19.8887 C   0  0  0  0  0  0  0  0  0  0  0  0
    7.4353  -20.6635   19.0182 C   0  0  0  0  0  0  0  0  0  0  0  0
    6.9077  -21.6631   19.5589 O   0  0  0  0  0  0  0  0  0  0  0  0
    8.5089  -17.2029   19.9577 C   0  0  0  0  0  0  0  0  0  0  0  0
    9.7273  -17.1181   20.3036 O   0  0  0  0  0  0  0  0  0  0  0  0
    7.3629  -20.5522   17.6420 O   0  0  0  0  0  0  0  0  0  0  0  0
    7.1397  -13.9629   21.3830 C   0  0  0  0  0  0  0  0  0  0  0  0
    8.1460  -15.0665   21.2436 C   0  0  2  0  0  0  0  0  0  0  0  0
    7.6736  -16.1512   20.4049 N   0  0  0  0  0  0  0  0  0  0  0  0
    8.6087  -15.5712   22.5700 C   0  0  0  0  0  0  0  0  0  0  0  0
    8.1231  -16.6245   23.0889 O   0  0  0  0  0  0  0  0  0  0  0  0
    9.6103  -14.9138   23.3287 N   0  0  0  0  0  0  0  0  0  0  0  0
   10.1014  -15.3619   24.6168 C   0  0  1  0  0  0  0  0  0  0  0  0
    9.0579  -16.0177   25.4465 C   0  0  0  0  0  0  0  0  0  0  0  0
    7.8672  -15.1832   25.7562 C   0  0  0  0  0  0  0  0  0  0  0  0
    6.5350  -15.6355   25.7010 C   0  0  0  0  0  0  0  0  0  0  0  0
    5.7349  -14.6339   26.0652 N   0  0  0  0  0  0  0  0  0  0  0  0
    6.4396  -13.5371   26.3617 C   0  0  0  0  0  0  0  0  0  0  0  0
    6.0778  -12.2789   26.7710 C   0  0  0  0  0  0  0  0  0  0  0  0
    7.0027  -11.2865   27.0126 C   0  0  0  0  0  0  0  0  0  0  0  0
    8.3187  -11.6239   26.8206 C   0  0  0  0  0  0  0  0  0  0  0  0
    8.6935  -12.8928   26.4073 C   0  0  0  0  0  0  0  0  0  0  0  0
    7.7655  -13.8744   26.1702 C   0  0  0  0  0  0  0  0  0  0  0  0
   11.3918  -16.0438   24.5827 C   0  0  0  0  0  0  0  0  0  0  0  0
   11.9277  -16.5510   25.7473 O   0  0  0  0  0  0  0  0  0  0  0  0
   12.0321  -16.1780   23.5177 O   0  0  0  0  0  0  0  0  0  0  0  0
  2  1  1  6
  2  3  1  0
  4  3  1  0
  4  5  2  0
  6  2  1  0
  7  6  2  0
  8  4  1  0
 10  9  1  1
 10 12  1  0
 10 11  1  0
 11  6  1  0
 12 13  2  0
 14 15  1  0
 14 12  1  0
 15 16  1  6
 16 17  1  0
 17 25  1  0
 18 17  2  0
 18 19  1  0
 19 20  1  0
 20 21  1  0
 21 22  2  0
 23 22  1  0
 24 23  2  0
 25 20  2  0
 25 24  1  0
 26 27  1  0
 26 15  1  0
 28 26  2  0
M  END
$$$$
