DAW.pdb
     RDKit          3D

 28 29  0  0  1  0  0  0  0  0999 V2000
    9.4183  -17.4525   17.1738 N   0  0  0  0  0  0  0  0  0  0  0  0
   10.2856  -17.6091   18.2937 C   0  0  1  0  0  0  0  0  0  0  0  0
   11.6537  -17.0667   17.9600 C   0  0  0  0  0  0  0  0  0  0  0  0
   12.6449  -18.0805   18.3902 C   0  0  0  0  0  0  0  0  0  0  0  0
   12.3818  -19.2888   18.1883 O   0  0  0  0  0  0  0  0  0  0  0  0
    9.7437  -17.1357   19.5687 C   0  0  0  0  0  0  0  0  0  0  0  0
   10.2030  -16.0576   20.0568 O   0  0  0  0  0  0  0  0  0  0  0  0
   13.8446  -17.7676   19.0020 O   0  0  0  0  0  0  0  0  0  0  0  0
    6.7966  -17.7643   21.8403 C   0  0  0  0  0  0  0  0  0  0  0  0
    8.1297  -17.1646   21.5036 C   0  0  2  0  0  0  0  0  0  0  0  0
    8.7358  -17.7704   20.3336 N   0  0  0  0  0  0  0  0  0  0  0  0
    9.0627  -17.1873   22.6685 C   0  0  0  0  0  0  0  0  0  0  0  0
    9.9571  -18.0817   22.7890 O   0  0  0  0  0  0  0  0  0  0  0  0
    9.0110  -16.2214   23.7055 N   0  0  0  0  0  0  0  0  0  0  0  0
    9.8193  -16.2535   24.9084 C   0  0  1  0  0  0  0  0  0  0  0  0
    9.6532  -15.0469   25.7591 C   0  0  0  0  0  0  0  0  0  0  0  0
    8.2578  -14.5574   25.9115 C   0  0  0  0  0  0  0  0  0  0  0  0
    7.1303  -15.3857   26.0693 C   0  0  0  0  0  0  0  0  0  0  0  0
    6.0541  -14.6112   26.2029 N   0  0  0  0  0  0  0  0  0  0  0  0
    6.3817  -13.3163   26.1452 C   0  0  0  0  0  0  0  0  0  0  0  0
    5.6428  -12.1633   26.2237 C   0  0  0  0  0  0  0  0  0  0  0  0
    6.2131  -10.9127   26.1267 C   0  0  0  0  0  0  0  0  0  0  0  0
    7.5727  -10.8783   25.9451 C   0  0  0  0  0  0  0  0  0  0  0  0
    8.3274  -12.0383   25.8648 C   0  0  0  0  0  0  0  0  0  0  0  0
    7.7507  -13.2788   25.9635 C   0  0  0  0  0  0  0  0  0  0  0  0
    9.8133  -17.5268   25.6226 C   0  0  0  0  0  0  0  0  0  0  0  0
   10.8492  -17.8350   26.4787 O   0  0  0  0  0  0  0  0  0  0  0  0
    8.8887  -18.3546   25.4749 O   0  0  0  0  0  0  0  0  0  0  0  0
  2  1  1  6
  2  3  1  0
  4  3  1  0
  4  5  2  0
  6  2  1  0
  7  6  2  0
  8  4  1  0
 10  9  1  1
 10 12  1  0
 10 11  1  0
 11  6  1  0
 12 13  2  0
 14 15  1  0
 14 12  1  0
 15 16  1  1
 16 17  1  0
 17 25  1  0
 18 17  2  0
 18 19  1  0
 19 20  1  0
 20 21  1  0
 21 22  2  0
 23 22  1  0
 24 23  2  0
 25 20  2  0
 25 24  1  0
 26 27  1  0
 26 15  1  0
 28 26  2  0
M  END
$$$$
