DAW.pdb
     RDKit          3D

 28 29  0  0  1  0  0  0  0  0999 V2000
    7.9134  -15.8525   18.6708 N   0  0  0  0  0  0  0  0  0  0  0  0
    8.7122  -15.2712   19.6979 C   0  0  1  0  0  0  0  0  0  0  0  0
    8.4156  -13.7952   19.8019 C   0  0  0  0  0  0  0  0  0  0  0  0
    8.8487  -13.1697   18.5306 C   0  0  0  0  0  0  0  0  0  0  0  0
    7.9826  -12.9555   17.6508 O   0  0  0  0  0  0  0  0  0  0  0  0
    8.6907  -15.9823   20.9775 C   0  0  0  0  0  0  0  0  0  0  0  0
    7.6873  -15.8247   21.7390 O   0  0  0  0  0  0  0  0  0  0  0  0
   10.1557  -12.8087   18.2606 O   0  0  0  0  0  0  0  0  0  0  0  0
   10.2156  -18.9681   22.5945 C   0  0  0  0  0  0  0  0  0  0  0  0
    9.5507  -17.6264   22.6825 C   0  0  2  0  0  0  0  0  0  0  0  0
    9.6971  -16.8491   21.4669 N   0  0  0  0  0  0  0  0  0  0  0  0
   10.0065  -16.8542   23.8758 C   0  0  0  0  0  0  0  0  0  0  0  0
   10.9672  -16.0256   23.8066 O   0  0  0  0  0  0  0  0  0  0  0  0
    9.4023  -16.9947   25.1511 N   0  0  0  0  0  0  0  0  0  0  0  0
    9.9097  -16.4105   26.3769 C   0  0  1  0  0  0  0  0  0  0  0  0
    8.8372  -15.9209   27.2810 C   0  0  0  0  0  0  0  0  0  0  0  0
    7.7019  -15.2311   26.6138 C   0  0  0  0  0  0  0  0  0  0  0  0
    6.6111  -15.8840   26.0088 C   0  0  0  0  0  0  0  0  0  0  0  0
    5.7753  -14.9591   25.5376 N   0  0  0  0  0  0  0  0  0  0  0  0
    6.2308  -13.7266   25.7848 C   0  0  0  0  0  0  0  0  0  0  0  0
    5.7424  -12.4773   25.4984 C   0  0  0  0  0  0  0  0  0  0  0  0
    6.4082  -11.3247   25.8545 C   0  0  0  0  0  0  0  0  0  0  0  0
    7.5980  -11.4913   26.5172 C   0  0  0  0  0  0  0  0  0  0  0  0
    8.0991  -12.7499   26.8110 C   0  0  0  0  0  0  0  0  0  0  0  0
    7.4286  -13.8916   26.4532 C   0  0  0  0  0  0  0  0  0  0  0  0
   10.9766  -17.1666   27.0259 C   0  0  0  0  0  0  0  0  0  0  0  0
   11.2976  -18.4267   26.5676 O   0  0  0  0  0  0  0  0  0  0  0  0
   11.6102  -16.7006   27.9973 O   0  0  0  0  0  0  0  0  0  0  0  0
  2  1  1  6
  2  3  1  0
  4  3  1  0
  4  5  2  0
  6  2  1  0
  7  6  2  0
  8  4  1  0
 10  9  1  6
 10 12  1  0
 10 11  1  0
 11  6  1  0
 12 13  2  0
 14 15  1  0
 14 12  1  0
 15 16  1  1
 16 17  1  0
 17 25  1  0
 18 17  2  0
 18 19  1  0
 19 20  1  0
 20 21  1  0
 21 22  2  0
 23 22  1  0
 24 23  2  0
 25 20  2  0
 25 24  1  0
 26 27  1  0
 26 15  1  0
 28 26  2  0
M  END
$$$$
