DAW.pdb
     RDKit          3D

 28 29  0  0  1  0  0  0  0  0999 V2000
   10.1804  -18.5958   18.6408 N   0  0  0  0  0  0  0  0  0  0  0  0
   11.0585  -17.5488   19.0454 C   0  0  1  0  0  0  0  0  0  0  0  0
   11.5827  -16.8235   17.8303 C   0  0  0  0  0  0  0  0  0  0  0  0
   12.8033  -17.5363   17.3861 C   0  0  0  0  0  0  0  0  0  0  0  0
   13.7548  -17.6415   18.1946 O   0  0  0  0  0  0  0  0  0  0  0  0
   10.5346  -16.6702   20.0928 C   0  0  0  0  0  0  0  0  0  0  0  0
   11.2442  -15.6859   20.4659 O   0  0  0  0  0  0  0  0  0  0  0  0
   12.9512  -18.0921   16.1289 O   0  0  0  0  0  0  0  0  0  0  0  0
    7.4262  -15.4879   21.6576 C   0  0  0  0  0  0  0  0  0  0  0  0
    8.8529  -15.9236   21.8145 C   0  0  2  0  0  0  0  0  0  0  0  0
    9.2882  -16.8068   20.7497 N   0  0  0  0  0  0  0  0  0  0  0  0
    9.1083  -16.5273   23.1556 C   0  0  0  0  0  0  0  0  0  0  0  0
    8.4040  -17.4870   23.5997 O   0  0  0  0  0  0  0  0  0  0  0  0
   10.1435  -16.0727   24.0116 N   0  0  0  0  0  0  0  0  0  0  0  0
   10.1491  -16.2176   25.4539 C   0  0  1  0  0  0  0  0  0  0  0  0
    9.7851  -14.9680   26.1703 C   0  0  0  0  0  0  0  0  0  0  0  0
    8.3369  -14.6320   26.1775 C   0  0  0  0  0  0  0  0  0  0  0  0
    7.2969  -15.5636   25.9964 C   0  0  0  0  0  0  0  0  0  0  0  0
    6.1339  -14.9196   26.0892 N   0  0  0  0  0  0  0  0  0  0  0  0
    6.3214  -13.6162   26.3204 C   0  0  0  0  0  0  0  0  0  0  0  0
    5.4563  -12.5644   26.4833 C   0  0  0  0  0  0  0  0  0  0  0  0
    5.8930  -11.2770   26.7082 C   0  0  0  0  0  0  0  0  0  0  0  0
    7.2523  -11.0981   26.7612 C   0  0  0  0  0  0  0  0  0  0  0  0
    8.1341  -12.1551   26.5979 C   0  0  0  0  0  0  0  0  0  0  0  0
    7.6897  -13.4335   26.3754 C   0  0  0  0  0  0  0  0  0  0  0  0
    9.5133  -17.4325   25.9551 C   0  0  0  0  0  0  0  0  0  0  0  0
    9.7932  -17.8739   27.2308 O   0  0  0  0  0  0  0  0  0  0  0  0
    8.7181  -18.0919   25.2514 O   0  0  0  0  0  0  0  0  0  0  0  0
  2  1  1  6
  2  3  1  0
  4  3  1  0
  4  5  2  0
  6  2  1  0
  7  6  2  0
  8  4  1  0
 10  9  1  6
 10 12  1  0
 10 11  1  0
 11  6  1  0
 12 13  2  0
 14 15  1  0
 14 12  1  0
 15 16  1  1
 16 17  1  0
 17 25  1  0
 18 17  2  0
 18 19  1  0
 19 20  1  0
 20 21  1  0
 21 22  2  0
 23 22  1  0
 24 23  2  0
 25 20  2  0
 25 24  1  0
 26 27  1  0
 26 15  1  0
 28 26  2  0
M  END
$$$$
