DAW.pdb
     RDKit          3D

 28 29  0  0  1  0  0  0  0  0999 V2000
    9.8278  -15.2018   18.3017 N   0  0  0  0  0  0  0  0  0  0  0  0
    8.9010  -14.6027   19.2034 C   0  0  1  0  0  0  0  0  0  0  0  0
    7.7080  -14.0830   18.4391 C   0  0  0  0  0  0  0  0  0  0  0  0
    8.2246  -13.4007   17.2296 C   0  0  0  0  0  0  0  0  0  0  0  0
    9.0814  -13.9951   16.5349 O   0  0  0  0  0  0  0  0  0  0  0  0
    8.5608  -15.4146   20.3732 C   0  0  0  0  0  0  0  0  0  0  0  0
    7.8086  -14.9081   21.2615 O   0  0  0  0  0  0  0  0  0  0  0  0
    7.8138  -12.1443   16.8244 O   0  0  0  0  0  0  0  0  0  0  0  0
    8.8082  -18.9432   21.6899 C   0  0  0  0  0  0  0  0  0  0  0  0
    8.6817  -17.4566   21.8447 C   0  0  2  0  0  0  0  0  0  0  0  0
    8.9940  -16.7387   20.6239 N   0  0  0  0  0  0  0  0  0  0  0  0
    9.4853  -16.9442   22.9935 C   0  0  0  0  0  0  0  0  0  0  0  0
   10.6153  -16.3891   22.8217 O   0  0  0  0  0  0  0  0  0  0  0  0
    9.0434  -17.0433   24.3374 N   0  0  0  0  0  0  0  0  0  0  0  0
    9.8329  -16.6803   25.4977 C   0  0  1  0  0  0  0  0  0  0  0  0
    9.0093  -16.2370   26.6520 C   0  0  0  0  0  0  0  0  0  0  0  0
    7.8902  -15.3148   26.3244 C   0  0  0  0  0  0  0  0  0  0  0  0
    6.6064  -15.7251   25.9174 C   0  0  0  0  0  0  0  0  0  0  0  0
    5.8552  -14.6393   25.7358 N   0  0  0  0  0  0  0  0  0  0  0  0
    6.5479  -13.5251   25.9931 C   0  0  0  0  0  0  0  0  0  0  0  0
    6.2231  -12.1934   25.9447 C   0  0  0  0  0  0  0  0  0  0  0  0
    7.1279  -11.2009   26.2531 C   0  0  0  0  0  0  0  0  0  0  0  0
    8.3845  -11.6165   26.6148 C   0  0  0  0  0  0  0  0  0  0  0  0
    8.7216  -12.9601   26.6666 C   0  0  0  0  0  0  0  0  0  0  0  0
    7.8136  -13.9409   26.3587 C   0  0  0  0  0  0  0  0  0  0  0  0
   10.9158  -17.6042   25.8216 C   0  0  0  0  0  0  0  0  0  0  0  0
   11.8957  -17.2230   26.7133 O   0  0  0  0  0  0  0  0  0  0  0  0
   10.9822  -18.7403   25.3046 O   0  0  0  0  0  0  0  0  0  0  0  0
  2  1  1  6
  2  3  1  0
  4  3  1  0
  4  5  2  0
  6  2  1  0
  7  6  2  0
  8  4  1  0
 10  9  1  6
 10 12  1  0
 10 11  1  0
 11  6  1  0
 12 13  2  0
 14 15  1  0
 14 12  1  0
 15 16  1  1
 16 17  1  0
 17 25  1  0
 18 17  2  0
 18 19  1  0
 19 20  1  0
 20 21  1  0
 21 22  2  0
 23 22  1  0
 24 23  2  0
 25 20  2  0
 25 24  1  0
 26 27  1  0
 26 15  1  0
 28 26  2  0
M  END
$$$$
