DAW.pdb
     RDKit          3D

 28 29  0  0  1  0  0  0  0  0999 V2000
    7.4446  -19.2801   20.5300 N   0  0  0  0  0  0  0  0  0  0  0  0
    8.6373  -18.6648   20.0507 C   0  0  1  0  0  0  0  0  0  0  0  0
    8.7966  -18.9396   18.5754 C   0  0  0  0  0  0  0  0  0  0  0  0
    9.2404  -20.3465   18.4363 C   0  0  0  0  0  0  0  0  0  0  0  0
    9.9499  -20.8362   19.3456 O   0  0  0  0  0  0  0  0  0  0  0  0
    8.8026  -17.2586   20.4234 C   0  0  0  0  0  0  0  0  0  0  0  0
    9.8878  -16.6761   20.1159 O   0  0  0  0  0  0  0  0  0  0  0  0
    8.9151  -21.1494   17.3589 O   0  0  0  0  0  0  0  0  0  0  0  0
    6.7948  -14.2748   21.4673 C   0  0  0  0  0  0  0  0  0  0  0  0
    8.0722  -15.0593   21.4128 C   0  0  2  0  0  0  0  0  0  0  0  0
    7.8552  -16.4605   21.1084 N   0  0  0  0  0  0  0  0  0  0  0  0
    8.8818  -14.8955   22.6561 C   0  0  0  0  0  0  0  0  0  0  0  0
    9.2970  -13.7563   23.0360 O   0  0  0  0  0  0  0  0  0  0  0  0
    9.2359  -15.9903   23.4850 N   0  0  0  0  0  0  0  0  0  0  0  0
   10.0654  -15.8975   24.6702 C   0  0  1  0  0  0  0  0  0  0  0  0
    9.3064  -16.0860   25.9334 C   0  0  0  0  0  0  0  0  0  0  0  0
    8.0116  -15.3605   26.0176 C   0  0  0  0  0  0  0  0  0  0  0  0
    6.7462  -15.9588   25.8662 C   0  0  0  0  0  0  0  0  0  0  0  0
    5.8144  -15.0200   26.0288 N   0  0  0  0  0  0  0  0  0  0  0  0
    6.3681  -13.8292   26.2793 C   0  0  0  0  0  0  0  0  0  0  0  0
    5.8390  -12.5843   26.5067 C   0  0  0  0  0  0  0  0  0  0  0  0
    6.6271  -11.4781   26.7386 C   0  0  0  0  0  0  0  0  0  0  0  0
    7.9832  -11.6867   26.7302 C   0  0  0  0  0  0  0  0  0  0  0  0
    8.5267  -12.9412   26.5015 C   0  0  0  0  0  0  0  0  0  0  0  0
    7.7339  -14.0367   26.2726 C   0  0  0  0  0  0  0  0  0  0  0  0
   11.3358  -16.6125   24.5924 C   0  0  0  0  0  0  0  0  0  0  0  0
   11.5588  -17.4994   23.5606 O   0  0  0  0  0  0  0  0  0  0  0  0
   12.2336  -16.4445   25.4456 O   0  0  0  0  0  0  0  0  0  0  0  0
  2  1  1  6
  2  3  1  0
  4  3  1  0
  4  5  2  0
  6  2  1  0
  7  6  2  0
  8  4  1  0
 10  9  1  1
 10 12  1  0
 10 11  1  0
 11  6  1  0
 12 13  2  0
 14 15  1  0
 14 12  1  0
 15 16  1  1
 16 17  1  0
 17 25  1  0
 18 17  2  0
 18 19  1  0
 19 20  1  0
 20 21  1  0
 21 22  2  0
 23 22  1  0
 24 23  2  0
 25 20  2  0
 25 24  1  0
 26 27  1  0
 26 15  1  0
 28 26  2  0
M  END
$$$$
