DAW.pdb
     RDKit          3D

 28 29  0  0  1  0  0  0  0  0999 V2000
    7.3087  -16.4378   17.2643 N   0  0  0  0  0  0  0  0  0  0  0  0
    8.2954  -15.8010   18.0717 C   0  0  1  0  0  0  0  0  0  0  0  0
    8.1692  -14.3025   17.9458 C   0  0  0  0  0  0  0  0  0  0  0  0
    8.3341  -13.9669   16.5120 C   0  0  0  0  0  0  0  0  0  0  0  0
    9.0961  -14.6817   15.8204 O   0  0  0  0  0  0  0  0  0  0  0  0
    8.3753  -16.2857   19.4509 C   0  0  0  0  0  0  0  0  0  0  0  0
    7.8168  -15.6031   20.3640 O   0  0  0  0  0  0  0  0  0  0  0  0
    7.6937  -12.9087   15.8943 O   0  0  0  0  0  0  0  0  0  0  0  0
    9.2531  -19.4449   21.3196 C   0  0  0  0  0  0  0  0  0  0  0  0
    8.9056  -17.9884   21.2311 C   0  0  2  0  0  0  0  0  0  0  0  0
    9.0267  -17.4655   19.8838 N   0  0  0  0  0  0  0  0  0  0  0  0
    9.6880  -17.1675   22.2017 C   0  0  0  0  0  0  0  0  0  0  0  0
   10.7565  -16.5705   21.8607 O   0  0  0  0  0  0  0  0  0  0  0  0
    9.2927  -17.0030   23.5536 N   0  0  0  0  0  0  0  0  0  0  0  0
   10.0581  -16.2938   24.5599 C   0  0  1  0  0  0  0  0  0  0  0  0
    9.7330  -14.8458   24.6316 C   0  0  0  0  0  0  0  0  0  0  0  0
    8.3562  -14.5199   25.0877 C   0  0  0  0  0  0  0  0  0  0  0  0
    7.3147  -15.4571   25.2264 C   0  0  0  0  0  0  0  0  0  0  0  0
    6.2342  -14.8219   25.6792 N   0  0  0  0  0  0  0  0  0  0  0  0
    6.4786  -13.5192   25.8544 C   0  0  0  0  0  0  0  0  0  0  0  0
    5.7015  -12.4747   26.2864 C   0  0  0  0  0  0  0  0  0  0  0  0
    6.1812  -11.1863   26.3786 C   0  0  0  0  0  0  0  0  0  0  0  0
    7.4900  -10.9984   26.0123 C   0  0  0  0  0  0  0  0  0  0  0  0
    8.2828  -12.0480   25.5748 C   0  0  0  0  0  0  0  0  0  0  0  0
    7.7966  -13.3275   25.4873 C   0  0  0  0  0  0  0  0  0  0  0  0
   10.1657  -16.9740   25.8472 C   0  0  0  0  0  0  0  0  0  0  0  0
    9.3600  -18.0600   26.1157 O   0  0  0  0  0  0  0  0  0  0  0  0
   10.9726  -16.5928   26.7223 O   0  0  0  0  0  0  0  0  0  0  0  0
  2  1  1  1
  2  3  1  0
  4  3  1  0
  4  5  2  0
  6  2  1  0
  7  6  2  0
  8  4  1  0
 10  9  1  6
 10 12  1  0
 10 11  1  0
 11  6  1  0
 12 13  2  0
 14 15  1  0
 14 12  1  0
 15 16  1  1
 16 17  1  0
 17 25  1  0
 18 17  2  0
 18 19  1  0
 19 20  1  0
 20 21  1  0
 21 22  2  0
 23 22  1  0
 24 23  2  0
 25 20  2  0
 25 24  1  0
 26 27  1  0
 26 15  1  0
 28 26  2  0
M  END
$$$$
