DAW.pdb
     RDKit          3D

 28 29  0  0  1  0  0  0  0  0999 V2000
    9.4959  -16.2093   17.2539 N   0  0  0  0  0  0  0  0  0  0  0  0
    8.8289  -15.3139   18.1395 C   0  0  1  0  0  0  0  0  0  0  0  0
    7.6066  -14.7428   17.4634 C   0  0  0  0  0  0  0  0  0  0  0  0
    8.0022  -14.3667   16.0859 C   0  0  0  0  0  0  0  0  0  0  0  0
    8.2559  -15.2843   15.2713 O   0  0  0  0  0  0  0  0  0  0  0  0
    8.5843  -15.8391   19.4841 C   0  0  0  0  0  0  0  0  0  0  0  0
    8.0572  -15.0702   20.3458 O   0  0  0  0  0  0  0  0  0  0  0  0
    8.1069  -13.0592   15.6490 O   0  0  0  0  0  0  0  0  0  0  0  0
    8.2873  -19.1214   21.2695 C   0  0  0  0  0  0  0  0  0  0  0  0
    8.5054  -17.6375   21.2473 C   0  0  2  0  0  0  0  0  0  0  0  0
    8.8819  -17.1473   19.9353 N   0  0  0  0  0  0  0  0  0  0  0  0
    9.4823  -17.2009   22.2880 C   0  0  0  0  0  0  0  0  0  0  0  0
   10.7240  -17.1024   22.0374 O   0  0  0  0  0  0  0  0  0  0  0  0
    9.0907  -16.8711   23.6106 N   0  0  0  0  0  0  0  0  0  0  0  0
    9.9981  -16.4681   24.6668 C   0  0  1  0  0  0  0  0  0  0  0  0
    9.7965  -15.0643   25.1093 C   0  0  0  0  0  0  0  0  0  0  0  0
    8.3806  -14.6363   25.2584 C   0  0  0  0  0  0  0  0  0  0  0  0
    7.2795  -15.5122   25.3088 C   0  0  0  0  0  0  0  0  0  0  0  0
    6.1728  -14.7883   25.4738 N   0  0  0  0  0  0  0  0  0  0  0  0
    6.4554  -13.4830   25.5374 C   0  0  0  0  0  0  0  0  0  0  0  0
    5.6737  -12.3664   25.6907 C   0  0  0  0  0  0  0  0  0  0  0  0
    6.2015  -11.0938   25.7191 C   0  0  0  0  0  0  0  0  0  0  0  0
    7.5636  -10.9987   25.5845 C   0  0  0  0  0  0  0  0  0  0  0  0
    8.3613  -12.1217   25.4294 C   0  0  0  0  0  0  0  0  0  0  0  0
    7.8268  -13.3845   25.4033 C   0  0  0  0  0  0  0  0  0  0  0  0
   10.1680  -17.4428   25.7403 C   0  0  0  0  0  0  0  0  0  0  0  0
   11.2862  -17.3855   26.5448 O   0  0  0  0  0  0  0  0  0  0  0  0
    9.3221  -18.3389   25.9495 O   0  0  0  0  0  0  0  0  0  0  0  0
  2  1  1  6
  2  3  1  0
  4  3  1  0
  4  5  2  0
  6  2  1  0
  7  6  2  0
  8  4  1  0
 10  9  1  6
 10 12  1  0
 10 11  1  0
 11  6  1  0
 12 13  2  0
 14 15  1  0
 14 12  1  0
 15 16  1  1
 16 17  1  0
 17 25  1  0
 18 17  2  0
 18 19  1  0
 19 20  1  0
 20 21  1  0
 21 22  2  0
 23 22  1  0
 24 23  2  0
 25 20  2  0
 25 24  1  0
 26 27  1  0
 26 15  1  0
 28 26  2  0
M  END
$$$$
