DAW.pdb
     RDKit          3D

 28 29  0  0  1  0  0  0  0  0999 V2000
    7.7493  -19.0481   20.0925 N   0  0  0  0  0  0  0  0  0  0  0  0
    8.8834  -18.2989   19.6640 C   0  0  1  0  0  0  0  0  0  0  0  0
    9.0391  -18.4187   18.1677 C   0  0  0  0  0  0  0  0  0  0  0  0
    9.6195  -19.7538   17.8921 C   0  0  0  0  0  0  0  0  0  0  0  0
   10.5044  -20.1861   18.6668 O   0  0  0  0  0  0  0  0  0  0  0  0
    8.9466  -16.9261   20.1689 C   0  0  0  0  0  0  0  0  0  0  0  0
    9.9967  -16.2486   19.9460 O   0  0  0  0  0  0  0  0  0  0  0  0
    9.2391  -20.5497   16.8276 O   0  0  0  0  0  0  0  0  0  0  0  0
    6.7163  -14.1880   21.4102 C   0  0  0  0  0  0  0  0  0  0  0  0
    8.0458  -14.8775   21.3270 C   0  0  2  0  0  0  0  0  0  0  0  0
    7.9337  -16.2584   20.8982 N   0  0  0  0  0  0  0  0  0  0  0  0
    8.8123  -14.7685   22.6032 C   0  0  0  0  0  0  0  0  0  0  0  0
    9.1530  -13.6420   23.0821 O   0  0  0  0  0  0  0  0  0  0  0  0
    9.2057  -15.9044   23.3556 N   0  0  0  0  0  0  0  0  0  0  0  0
   10.0351  -15.8641   24.5438 C   0  0  1  0  0  0  0  0  0  0  0  0
    9.2832  -16.1468   25.7937 C   0  0  0  0  0  0  0  0  0  0  0  0
    7.9716  -15.4589   25.9222 C   0  0  0  0  0  0  0  0  0  0  0  0
    6.7201  -16.0813   25.7535 C   0  0  0  0  0  0  0  0  0  0  0  0
    5.7668  -15.1749   25.9674 N   0  0  0  0  0  0  0  0  0  0  0  0
    6.2932  -13.9834   26.2685 C   0  0  0  0  0  0  0  0  0  0  0  0
    5.7355  -12.7641   26.5580 C   0  0  0  0  0  0  0  0  0  0  0  0
    6.4980  -11.6503   26.8346 C   0  0  0  0  0  0  0  0  0  0  0  0
    7.8587  -11.8239   26.8053 C   0  0  0  0  0  0  0  0  0  0  0  0
    8.4310  -13.0524   26.5140 C   0  0  0  0  0  0  0  0  0  0  0  0
    7.6636  -14.1558   26.2409 C   0  0  0  0  0  0  0  0  0  0  0  0
   11.3218  -16.5429   24.4221 C   0  0  0  0  0  0  0  0  0  0  0  0
   12.2722  -16.3878   25.4088 O   0  0  0  0  0  0  0  0  0  0  0  0
   11.5898  -17.2639   23.4370 O   0  0  0  0  0  0  0  0  0  0  0  0
  2  1  1  6
  2  3  1  0
  4  3  1  0
  4  5  2  0
  6  2  1  0
  7  6  2  0
  8  4  1  0
 10  9  1  1
 10 12  1  0
 10 11  1  0
 11  6  1  0
 12 13  2  0
 14 15  1  0
 14 12  1  0
 15 16  1  1
 16 17  1  0
 17 25  1  0
 18 17  2  0
 18 19  1  0
 19 20  1  0
 20 21  1  0
 21 22  2  0
 23 22  1  0
 24 23  2  0
 25 20  2  0
 25 24  1  0
 26 27  1  0
 26 15  1  0
 28 26  2  0
M  END
$$$$
