DAW.pdb
     RDKit          3D

 28 29  0  0  1  0  0  0  0  0999 V2000
   10.0049  -14.9390   18.6861 N   0  0  0  0  0  0  0  0  0  0  0  0
    8.9899  -14.4519   19.5598 C   0  0  1  0  0  0  0  0  0  0  0  0
    7.7927  -14.0086   18.7549 C   0  0  0  0  0  0  0  0  0  0  0  0
    8.3059  -13.3586   17.5263 C   0  0  0  0  0  0  0  0  0  0  0  0
    9.5461  -13.3151   17.3533 O   0  0  0  0  0  0  0  0  0  0  0  0
    8.6677  -15.3295   20.6864 C   0  0  0  0  0  0  0  0  0  0  0  0
    7.7891  -14.9459   21.5185 O   0  0  0  0  0  0  0  0  0  0  0  0
    7.4924  -12.7971   16.5597 O   0  0  0  0  0  0  0  0  0  0  0  0
    9.2664  -18.8192   21.9883 C   0  0  0  0  0  0  0  0  0  0  0  0
    8.9649  -17.3588   22.1504 C   0  0  2  0  0  0  0  0  0  0  0  0
    9.2482  -16.5930   20.9519 N   0  0  0  0  0  0  0  0  0  0  0  0
    9.6527  -16.7752   23.3397 C   0  0  0  0  0  0  0  0  0  0  0  0
   10.7240  -16.1014   23.2262 O   0  0  0  0  0  0  0  0  0  0  0  0
    9.1593  -16.9338   24.6597 N   0  0  0  0  0  0  0  0  0  0  0  0
    9.8613  -16.5264   25.8608 C   0  0  1  0  0  0  0  0  0  0  0  0
    8.9632  -15.9665   26.9036 C   0  0  0  0  0  0  0  0  0  0  0  0
    7.8076  -15.1794   26.3987 C   0  0  0  0  0  0  0  0  0  0  0  0
    6.5917  -15.7344   25.9561 C   0  0  0  0  0  0  0  0  0  0  0  0
    5.7788  -14.7394   25.6021 N   0  0  0  0  0  0  0  0  0  0  0  0
    6.3665  -13.5513   25.7764 C   0  0  0  0  0  0  0  0  0  0  0  0
    5.9495  -12.2635   25.5549 C   0  0  0  0  0  0  0  0  0  0  0  0
    6.7532  -11.1732   25.8080 C   0  0  0  0  0  0  0  0  0  0  0  0
    8.0059  -11.4435   26.2980 C   0  0  0  0  0  0  0  0  0  0  0  0
    8.4357  -12.7417   26.5251 C   0  0  0  0  0  0  0  0  0  0  0  0
    7.6280  -13.8206   26.2710 C   0  0  0  0  0  0  0  0  0  0  0  0
   10.8627  -17.4734   26.3422 C   0  0  0  0  0  0  0  0  0  0  0  0
   11.7478  -17.0902   27.3273 O   0  0  0  0  0  0  0  0  0  0  0  0
   10.9433  -18.6314   25.8786 O   0  0  0  0  0  0  0  0  0  0  0  0
  2  1  1  6
  2  3  1  0
  4  3  1  0
  4  5  2  0
  6  2  1  0
  7  6  2  0
  8  4  1  0
 10  9  1  6
 10 12  1  0
 10 11  1  0
 11  6  1  0
 12 13  2  0
 14 15  1  0
 14 12  1  0
 15 16  1  1
 16 17  1  0
 17 25  1  0
 18 17  2  0
 18 19  1  0
 19 20  1  0
 20 21  1  0
 21 22  2  0
 23 22  1  0
 24 23  2  0
 25 20  2  0
 25 24  1  0
 26 27  1  0
 26 15  1  0
 28 26  2  0
M  END
$$$$
