DAW.pdb
     RDKit          3D

 28 29  0  0  1  0  0  0  0  0999 V2000
    7.4243  -19.6860   21.3615 N   0  0  0  0  0  0  0  0  0  0  0  0
    8.8219  -19.4372   21.2361 C   0  0  1  0  0  0  0  0  0  0  0  0
    9.3754  -20.2108   20.0645 C   0  0  0  0  0  0  0  0  0  0  0  0
    8.4992  -21.3885   19.8626 C   0  0  0  0  0  0  0  0  0  0  0  0
    7.6349  -21.6398   20.7343 O   0  0  0  0  0  0  0  0  0  0  0  0
    9.2049  -18.0244   21.2610 C   0  0  0  0  0  0  0  0  0  0  0  0
   10.3913  -17.7146   20.9320 O   0  0  0  0  0  0  0  0  0  0  0  0
    8.5818  -22.2258   18.7656 O   0  0  0  0  0  0  0  0  0  0  0  0
    7.7622  -14.5611   21.5929 C   0  0  0  0  0  0  0  0  0  0  0  0
    8.8520  -15.5788   21.7551 C   0  0  2  0  0  0  0  0  0  0  0  0
    8.3700  -16.9402   21.6229 N   0  0  0  0  0  0  0  0  0  0  0  0
    9.6040  -15.3934   23.0311 C   0  0  0  0  0  0  0  0  0  0  0  0
   10.3659  -14.3937   23.2168 O   0  0  0  0  0  0  0  0  0  0  0  0
    9.5170  -16.3124   24.1077 N   0  0  0  0  0  0  0  0  0  0  0  0
   10.2957  -16.2347   25.3280 C   0  0  1  0  0  0  0  0  0  0  0  0
    9.8269  -15.1737   26.2563 C   0  0  0  0  0  0  0  0  0  0  0  0
    8.3742  -14.8642   26.1946 C   0  0  0  0  0  0  0  0  0  0  0  0
    7.3579  -15.8207   26.0088 C   0  0  0  0  0  0  0  0  0  0  0  0
    6.1814  -15.1950   26.0319 N   0  0  0  0  0  0  0  0  0  0  0  0
    6.3378  -13.8807   26.2205 C   0  0  0  0  0  0  0  0  0  0  0  0
    5.4494  -12.8395   26.3098 C   0  0  0  0  0  0  0  0  0  0  0  0
    5.8554  -11.5369   26.5024 C   0  0  0  0  0  0  0  0  0  0  0  0
    7.2083  -11.3313   26.6012 C   0  0  0  0  0  0  0  0  0  0  0  0
    8.1134  -12.3775   26.5124 C   0  0  0  0  0  0  0  0  0  0  0  0
    7.6996  -13.6711   26.3216 C   0  0  0  0  0  0  0  0  0  0  0  0
   10.5981  -17.5201   25.9505 C   0  0  0  0  0  0  0  0  0  0  0  0
   10.0085  -18.6689   25.4675 O   0  0  0  0  0  0  0  0  0  0  0  0
   11.3808  -17.6082   26.9210 O   0  0  0  0  0  0  0  0  0  0  0  0
  2  1  1  6
  2  3  1  0
  4  3  1  0
  4  5  2  0
  6  2  1  0
  7  6  2  0
  8  4  1  0
 10  9  1  1
 10 12  1  0
 10 11  1  0
 11  6  1  0
 12 13  2  0
 14 15  1  0
 14 12  1  0
 15 16  1  1
 16 17  1  0
 17 25  1  0
 18 17  2  0
 18 19  1  0
 19 20  1  0
 20 21  1  0
 21 22  2  0
 23 22  1  0
 24 23  2  0
 25 20  2  0
 25 24  1  0
 26 27  1  0
 26 15  1  0
 28 26  2  0
M  END
$$$$
