DAW.pdb
     RDKit          3D

 28 29  0  0  1  0  0  0  0  0999 V2000
   12.8270  -15.3561   17.3452 N   0  0  0  0  0  0  0  0  0  0  0  0
   13.0729  -15.4880   18.7427 C   0  0  1  0  0  0  0  0  0  0  0  0
   13.7004  -14.2220   19.2727 C   0  0  0  0  0  0  0  0  0  0  0  0
   15.0989  -14.1874   18.7846 C   0  0  0  0  0  0  0  0  0  0  0  0
   15.6958  -15.2768   18.6201 O   0  0  0  0  0  0  0  0  0  0  0  0
   11.9374  -15.9733   19.5291 C   0  0  0  0  0  0  0  0  0  0  0  0
   11.0325  -15.1456   19.8573 O   0  0  0  0  0  0  0  0  0  0  0  0
   15.7824  -13.0198   18.5001 O   0  0  0  0  0  0  0  0  0  0  0  0
   10.4478  -19.2144   20.8164 C   0  0  0  0  0  0  0  0  0  0  0  0
   10.5633  -17.7224   20.7133 C   0  0  2  0  0  0  0  0  0  0  0  0
   11.7378  -17.3024   19.9734 N   0  0  0  0  0  0  0  0  0  0  0  0
   10.5035  -17.0637   22.0514 C   0  0  0  0  0  0  0  0  0  0  0  0
   11.5503  -16.6375   22.6320 O   0  0  0  0  0  0  0  0  0  0  0  0
    9.2863  -16.8732   22.7536 N   0  0  0  0  0  0  0  0  0  0  0  0
    9.1549  -16.1479   24.0018 C   0  0  1  0  0  0  0  0  0  0  0  0
    7.9516  -15.2779   24.0507 C   0  0  0  0  0  0  0  0  0  0  0  0
    7.6840  -14.6271   25.3603 C   0  0  0  0  0  0  0  0  0  0  0  0
    7.9351  -15.2160   26.6142 C   0  0  0  0  0  0  0  0  0  0  0  0
    7.6023  -14.3423   27.5640 N   0  0  0  0  0  0  0  0  0  0  0  0
    7.1436  -13.2043   27.0330 C   0  0  0  0  0  0  0  0  0  0  0  0
    6.6822  -12.0370   27.5861 C   0  0  0  0  0  0  0  0  0  0  0  0
    6.2437  -10.9793   26.8194 C   0  0  0  0  0  0  0  0  0  0  0  0
    6.2920  -11.1546   25.4595 C   0  0  0  0  0  0  0  0  0  0  0  0
    6.7570  -12.3306   24.8918 C   0  0  0  0  0  0  0  0  0  0  0  0
    7.1923  -13.3777   25.6633 C   0  0  0  0  0  0  0  0  0  0  0  0
    9.4037  -16.9376   25.2042 C   0  0  0  0  0  0  0  0  0  0  0  0
   10.2272  -16.4389   26.1911 O   0  0  0  0  0  0  0  0  0  0  0  0
    8.8895  -18.0657   25.3632 O   0  0  0  0  0  0  0  0  0  0  0  0
  2  1  1  6
  2  3  1  0
  4  3  1  0
  4  5  2  0
  6  2  1  0
  7  6  2  0
  8  4  1  0
 10  9  1  1
 10 12  1  0
 10 11  1  0
 11  6  1  0
 12 13  2  0
 14 15  1  0
 14 12  1  0
 15 16  1  1
 16 17  1  0
 17 25  1  0
 18 17  2  0
 18 19  1  0
 19 20  1  0
 20 21  1  0
 21 22  2  0
 23 22  1  0
 24 23  2  0
 25 20  2  0
 25 24  1  0
 26 27  1  0
 26 15  1  0
 28 26  2  0
M  END
$$$$
