DAW.pdb
     RDKit          3D

 28 29  0  0  1  0  0  0  0  0999 V2000
    8.5775  -17.9545   16.6398 N   0  0  0  0  0  0  0  0  0  0  0  0
    8.7959  -16.7016   17.2828 C   0  0  1  0  0  0  0  0  0  0  0  0
    8.1669  -15.5950   16.4723 C   0  0  0  0  0  0  0  0  0  0  0  0
    8.6072  -15.7738   15.0689 C   0  0  0  0  0  0  0  0  0  0  0  0
    9.8352  -15.7311   14.8236 O   0  0  0  0  0  0  0  0  0  0  0  0
    8.4625  -16.6696   18.7081 C   0  0  0  0  0  0  0  0  0  0  0  0
    8.5029  -15.5541   19.3126 O   0  0  0  0  0  0  0  0  0  0  0  0
    7.7384  -15.9854   14.0144 O   0  0  0  0  0  0  0  0  0  0  0  0
    6.9404  -18.8804   21.3729 C   0  0  0  0  0  0  0  0  0  0  0  0
    7.6592  -17.6588   20.8820 C   0  0  2  0  0  0  0  0  0  0  0  0
    8.0906  -17.7805   19.5027 N   0  0  0  0  0  0  0  0  0  0  0  0
    8.7968  -17.2842   21.7729 C   0  0  0  0  0  0  0  0  0  0  0  0
    9.9977  -17.5782   21.4800 O   0  0  0  0  0  0  0  0  0  0  0  0
    8.6118  -16.5829   22.9915 N   0  0  0  0  0  0  0  0  0  0  0  0
    9.6825  -16.1311   23.8579 C   0  0  1  0  0  0  0  0  0  0  0  0
    9.4738  -14.7559   24.3800 C   0  0  0  0  0  0  0  0  0  0  0  0
    8.1597  -14.5098   25.0301 C   0  0  0  0  0  0  0  0  0  0  0  0
    7.2280  -15.5126   25.3597 C   0  0  0  0  0  0  0  0  0  0  0  0
    6.1811  -14.9371   25.9503 N   0  0  0  0  0  0  0  0  0  0  0  0
    6.3456  -13.6133   26.0400 C   0  0  0  0  0  0  0  0  0  0  0  0
    5.5623  -12.6090   26.5490 C   0  0  0  0  0  0  0  0  0  0  0  0
    5.9472  -11.2862   26.5213 C   0  0  0  0  0  0  0  0  0  0  0  0
    7.1672  -11.0212   25.9522 C   0  0  0  0  0  0  0  0  0  0  0  0
    7.9656  -12.0297   25.4355 C   0  0  0  0  0  0  0  0  0  0  0  0
    7.5742  -13.3438   25.4686 C   0  0  0  0  0  0  0  0  0  0  0  0
   10.1361  -17.1101   24.8412 C   0  0  0  0  0  0  0  0  0  0  0  0
   11.3869  -16.9815   25.4068 O   0  0  0  0  0  0  0  0  0  0  0  0
    9.4170  -18.0730   25.1845 O   0  0  0  0  0  0  0  0  0  0  0  0
  2  1  1  6
  2  3  1  0
  4  3  1  0
  4  5  2  0
  6  2  1  0
  7  6  2  0
  8  4  1  0
 10  9  1  1
 10 12  1  0
 10 11  1  0
 11  6  1  0
 12 13  2  0
 14 15  1  0
 14 12  1  0
 15 16  1  1
 16 17  1  0
 17 25  1  0
 18 17  2  0
 18 19  1  0
 19 20  1  0
 20 21  1  0
 21 22  2  0
 23 22  1  0
 24 23  2  0
 25 20  2  0
 25 24  1  0
 26 27  1  0
 26 15  1  0
 28 26  2  0
M  END
$$$$
