GLP.pdb
     RDKit          3D

 20 20  0  0  1  0  0  0  0  0999 V2000
   21.5951  -20.1372  -10.5586 N   0  0  0  0  0  0  0  0  0  0  0  0
   22.4779  -21.1293  -11.1362 C   0  0  0  0  0  0  0  0  0  0  0  0
   23.7496  -20.4849  -11.6232 C   0  0  0  0  0  0  0  0  0  0  0  0
   23.7593  -19.3319  -12.1236 O   0  0  0  0  0  0  0  0  0  0  0  0
   29.0306  -19.4717  -11.3715 C   0  0  0  0  0  0  0  0  0  0  0  0
   28.7355  -20.9055  -11.7516 C   0  0  1  0  0  0  0  0  0  0  0  0
   29.7761  -21.7263  -10.9335 C   0  0  0  0  0  0  0  0  0  0  0  0
   27.3741  -21.3501  -11.3134 C   0  0  0  0  0  0  0  0  0  0  0  0
   26.2179  -20.7578  -12.0490 C   0  0  2  0  0  0  0  0  0  0  0  0
   24.9552  -21.2060  -11.5088 N   0  0  0  0  0  0  0  0  0  0  0  0
   26.3266  -20.9756  -13.4775 C   0  0  0  0  0  0  0  0  0  0  0  0
   25.7867  -22.0522  -13.9487 O   0  0  0  0  0  0  0  0  0  0  0  0
   26.9500  -20.1603  -14.4282 N   0  0  0  0  0  0  0  0  0  0  0  0
   27.8575  -19.0438  -14.4090 C   0  0  0  0  0  0  0  0  0  0  0  0
   26.9736  -18.0213  -15.1571 C   0  0  0  0  0  0  0  0  0  0  0  0
   26.6803  -18.8654  -16.4076 C   0  0  0  0  0  0  0  0  0  0  0  0
   26.7507  -20.2988  -15.9208 C   0  0  1  0  0  0  0  0  0  0  0  0
   27.9058  -21.0435  -16.4538 C   0  0  0  0  0  0  0  0  0  0  0  0
   29.0129  -21.3475  -15.7043 O   0  0  0  0  0  0  0  0  0  0  0  0
   27.8824  -21.4203  -17.6481 O   0  0  0  0  0  0  0  0  0  0  0  0
  2  1  1  0
  3 10  1  0
  3  2  1  0
  4  3  2  0
  6  5  1  1
  6  8  1  0
  7  6  1  0
  9  8  1  1
  9 11  1  0
  9 10  1  0
 11 13  1  0
 12 11  2  0
 13 14  1  0
 13 17  1  0
 14 15  1  0
 15 16  1  0
 17 16  1  0
 17 18  1  6
 18 20  2  0
 18 19  1  0
M  END
$$$$
