GLP.pdb
     RDKit          3D

 20 20  0  0  1  0  0  0  0  0999 V2000
   21.5275  -19.9852  -10.0753 N   0  0  0  0  0  0  0  0  0  0  0  0
   22.5852  -20.7056   -9.3975 C   0  0  0  0  0  0  0  0  0  0  0  0
   23.9325  -20.1556   -9.7872 C   0  0  0  0  0  0  0  0  0  0  0  0
   24.0685  -19.3478  -10.7405 O   0  0  0  0  0  0  0  0  0  0  0  0
   28.0334  -20.2792   -5.9010 C   0  0  0  0  0  0  0  0  0  0  0  0
   27.0366  -19.9174   -6.9793 C   0  0  1  0  0  0  0  0  0  0  0  0
   27.1903  -18.3740   -7.1217 C   0  0  0  0  0  0  0  0  0  0  0  0
   27.3768  -20.5228   -8.3064 C   0  0  0  0  0  0  0  0  0  0  0  0
   26.4238  -20.2458   -9.4217 C   0  0  2  0  0  0  0  0  0  0  0  0
   25.0639  -20.5665   -9.0541 N   0  0  0  0  0  0  0  0  0  0  0  0
   26.8399  -20.8901  -10.6511 C   0  0  0  0  0  0  0  0  0  0  0  0
   26.4126  -22.0934  -10.8557 O   0  0  0  0  0  0  0  0  0  0  0  0
   27.6574  -20.3719  -11.6613 N   0  0  0  0  0  0  0  0  0  0  0  0
   28.4692  -19.1981  -11.8454 C   0  0  0  0  0  0  0  0  0  0  0  0
   27.7727  -18.6370  -13.1049 C   0  0  0  0  0  0  0  0  0  0  0  0
   27.8726  -19.8940  -13.9836 C   0  0  0  0  0  0  0  0  0  0  0  0
   27.8786  -21.0447  -12.9974 C   0  0  1  0  0  0  0  0  0  0  0  0
   29.1704  -21.7513  -12.9280 C   0  0  0  0  0  0  0  0  0  0  0  0
   29.9739  -21.7382  -11.8170 O   0  0  0  0  0  0  0  0  0  0  0  0
   29.5600  -22.3972  -13.9280 O   0  0  0  0  0  0  0  0  0  0  0  0
  2  1  1  0
  3 10  1  0
  3  2  1  0
  4  3  2  0
  6  5  1  1
  6  8  1  0
  7  6  1  0
  9  8  1  1
  9 11  1  0
  9 10  1  0
 11 13  1  0
 12 11  2  0
 13 14  1  0
 13 17  1  0
 14 15  1  0
 15 16  1  0
 17 16  1  0
 17 18  1  1
 18 20  2  0
 18 19  1  0
M  END
$$$$
