GLP.pdb
     RDKit          3D

 20 20  0  0  1  0  0  0  0  0999 V2000
   23.5867  -13.8303  -19.3036 N   0  0  0  0  0  0  0  0  0  0  0  0
   22.8918  -12.5915  -19.5857 C   0  0  0  0  0  0  0  0  0  0  0  0
   22.8925  -11.6977  -18.3730 C   0  0  0  0  0  0  0  0  0  0  0  0
   22.1689  -11.9360  -17.3732 O   0  0  0  0  0  0  0  0  0  0  0  0
   27.5435   -9.9631  -16.3176 C   0  0  0  0  0  0  0  0  0  0  0  0
   26.1002  -10.3823  -16.4864 C   0  0  1  0  0  0  0  0  0  0  0  0
   25.6470  -10.7375  -15.0392 C   0  0  0  0  0  0  0  0  0  0  0  0
   25.2265   -9.2637  -16.9645 C   0  0  0  0  0  0  0  0  0  0  0  0
   23.8123   -9.6208  -17.2826 C   0  0  2  0  0  0  0  0  0  0  0  0
   23.7325  -10.5660  -18.3723 N   0  0  0  0  0  0  0  0  0  0  0  0
   23.0007   -8.4407  -17.5025 C   0  0  0  0  0  0  0  0  0  0  0  0
   22.9322   -7.9942  -18.7143 O   0  0  0  0  0  0  0  0  0  0  0  0
   22.2706   -7.7094  -16.5594 N   0  0  0  0  0  0  0  0  0  0  0  0
   22.0449   -7.7722  -15.1396 C   0  0  0  0  0  0  0  0  0  0  0  0
   20.5074   -7.9199  -15.1616 C   0  0  0  0  0  0  0  0  0  0  0  0
   20.1859   -6.6908  -16.0265 C   0  0  0  0  0  0  0  0  0  0  0  0
   21.4117   -6.5122  -16.8994 C   0  0  1  0  0  0  0  0  0  0  0  0
   22.1909   -5.3032  -16.5766 C   0  0  0  0  0  0  0  0  0  0  0  0
   21.8563   -4.0524  -17.0279 O   0  0  0  0  0  0  0  0  0  0  0  0
   23.2090   -5.4155  -15.8557 O   0  0  0  0  0  0  0  0  0  0  0  0
  2  1  1  0
  3 10  1  0
  3  2  1  0
  4  3  2  0
  6  5  1  1
  6  8  1  0
  7  6  1  0
  9  8  1  6
  9 11  1  0
  9 10  1  0
 11 13  1  0
 12 11  2  0
 13 14  1  0
 13 17  1  0
 14 15  1  0
 15 16  1  0
 17 16  1  0
 17 18  1  1
 18 20  2  0
 18 19  1  0
M  END
$$$$
