GLP.pdb
     RDKit          3D

 20 20  0  0  1  0  0  0  0  0999 V2000
   50.4873  -27.8440   -5.0751 N   0  0  0  0  0  0  0  0  0  0  0  0
   51.7088  -27.0765   -5.2018 C   0  0  0  0  0  0  0  0  0  0  0  0
   52.8696  -27.9809   -5.5245 C   0  0  0  0  0  0  0  0  0  0  0  0
   52.7610  -29.2330   -5.5017 O   0  0  0  0  0  0  0  0  0  0  0  0
   57.1379  -26.0450   -8.7654 C   0  0  0  0  0  0  0  0  0  0  0  0
   56.1101  -26.9945   -8.1914 C   0  0  1  0  0  0  0  0  0  0  0  0
   56.3205  -28.3041   -9.0077 C   0  0  0  0  0  0  0  0  0  0  0  0
   56.3664  -27.3210   -6.7523 C   0  0  0  0  0  0  0  0  0  0  0  0
   55.3250  -28.1419   -6.0665 C   0  0  2  0  0  0  0  0  0  0  0  0
   54.1063  -27.3940   -5.8597 N   0  0  0  0  0  0  0  0  0  0  0  0
   55.8326  -28.7366   -4.8465 C   0  0  0  0  0  0  0  0  0  0  0  0
   55.7101  -28.0433   -3.7617 O   0  0  0  0  0  0  0  0  0  0  0  0
   56.4485  -29.9826   -4.6871 N   0  0  0  0  0  0  0  0  0  0  0  0
   56.8828  -31.0485   -5.5508 C   0  0  0  0  0  0  0  0  0  0  0  0
   56.0332  -32.1887   -4.9472 C   0  0  0  0  0  0  0  0  0  0  0  0
   56.4781  -32.0367   -3.4839 C   0  0  0  0  0  0  0  0  0  0  0  0
   56.8330  -30.5697   -3.3476 C   0  0  1  0  0  0  0  0  0  0  0  0
   58.2750  -30.3300   -3.1574 C   0  0  0  0  0  0  0  0  0  0  0  0
   59.0773  -29.7777   -4.1225 O   0  0  0  0  0  0  0  0  0  0  0  0
   58.8002  -30.6431   -2.0642 O   0  0  0  0  0  0  0  0  0  0  0  0
  2  1  1  0
  3 10  1  0
  3  2  1  0
  4  3  2  0
  6  5  1  6
  6  8  1  0
  7  6  1  0
  9  8  1  1
  9 11  1  0
  9 10  1  0
 11 13  1  0
 12 11  2  0
 13 14  1  0
 13 17  1  0
 14 15  1  0
 15 16  1  0
 17 16  1  0
 17 18  1  6
 18 20  2  0
 18 19  1  0
M  END
$$$$
