GLP.pdb
     RDKit          3D

 20 20  0  0  1  0  0  0  0  0999 V2000
   25.1572  -20.7556  -12.3464 N   0  0  0  0  0  0  0  0  0  0  0  0
   25.4605  -19.7911  -11.3096 C   0  0  0  0  0  0  0  0  0  0  0  0
   25.9798  -20.4858  -10.0777 C   0  0  0  0  0  0  0  0  0  0  0  0
   26.0221  -21.7391   -9.9914 O   0  0  0  0  0  0  0  0  0  0  0  0
   29.1897  -20.6963   -5.5234 C   0  0  0  0  0  0  0  0  0  0  0  0
   27.9833  -19.7843   -5.5330 C   0  0  1  0  0  0  0  0  0  0  0  0
   28.4612  -18.5311   -4.7414 C   0  0  0  0  0  0  0  0  0  0  0  0
   27.6166  -19.3270   -6.9113 C   0  0  0  0  0  0  0  0  0  0  0  0
   26.6895  -20.2131   -7.6756 C   0  0  2  0  0  0  0  0  0  0  0  0
   26.4275  -19.6967   -8.9992 N   0  0  0  0  0  0  0  0  0  0  0  0
   25.4777  -20.4871   -6.9298 C   0  0  0  0  0  0  0  0  0  0  0  0
   24.4761  -19.6931   -7.1272 O   0  0  0  0  0  0  0  0  0  0  0  0
   25.2467  -21.5146   -6.0089 N   0  0  0  0  0  0  0  0  0  0  0  0
   26.0452  -22.4869   -5.3105 C   0  0  0  0  0  0  0  0  0  0  0  0
   25.3516  -23.7651   -5.8315 C   0  0  0  0  0  0  0  0  0  0  0  0
   23.9101  -23.4013   -5.4418 C   0  0  0  0  0  0  0  0  0  0  0  0
   23.8784  -21.8867   -5.4838 C   0  0  1  0  0  0  0  0  0  0  0  0
   23.7309  -21.2658   -4.1550 C   0  0  0  0  0  0  0  0  0  0  0  0
   22.5197  -21.1035   -3.5331 O   0  0  0  0  0  0  0  0  0  0  0  0
   24.7567  -20.8645   -3.5587 O   0  0  0  0  0  0  0  0  0  0  0  0
  2  1  1  0
  3 10  1  0
  3  2  1  0
  4  3  2  0
  6  5  1  6
  6  8  1  0
  7  6  1  0
  9  8  1  1
  9 11  1  0
  9 10  1  0
 11 13  1  0
 12 11  2  0
 13 14  1  0
 13 17  1  0
 14 15  1  0
 15 16  1  0
 17 16  1  0
 17 18  1  1
 18 20  2  0
 18 19  1  0
M  END
$$$$
