GLP.pdb
     RDKit          3D

 20 20  0  0  1  0  0  0  0  0999 V2000
   29.6672  -21.1942  -17.1565 N   0  0  0  0  0  0  0  0  0  0  0  0
   28.5473  -20.3562  -16.7814 C   0  0  0  0  0  0  0  0  0  0  0  0
   27.6158  -21.1007  -15.8608 C   0  0  0  0  0  0  0  0  0  0  0  0
   27.1947  -22.2531  -16.1337 O   0  0  0  0  0  0  0  0  0  0  0  0
   25.7383  -22.3702  -10.8209 C   0  0  0  0  0  0  0  0  0  0  0  0
   25.4537  -20.9758  -11.3328 C   0  0  1  0  0  0  0  0  0  0  0  0
   25.6392  -20.0756  -10.0755 C   0  0  0  0  0  0  0  0  0  0  0  0
   26.4493  -20.5223  -12.3557 C   0  0  0  0  0  0  0  0  0  0  0  0
   26.2535  -21.0404  -13.7421 C   0  0  2  0  0  0  0  0  0  0  0  0
   27.2128  -20.4762  -14.6633 N   0  0  0  0  0  0  0  0  0  0  0  0
   24.8840  -20.8735  -14.1854 C   0  0  0  0  0  0  0  0  0  0  0  0
   24.5813  -19.7454  -14.7407 O   0  0  0  0  0  0  0  0  0  0  0  0
   23.8298  -21.7881  -14.0887 N   0  0  0  0  0  0  0  0  0  0  0  0
   23.6166  -23.0711  -13.4730 C   0  0  0  0  0  0  0  0  0  0  0  0
   23.2533  -23.8732  -14.7423 C   0  0  0  0  0  0  0  0  0  0  0  0
   22.1200  -22.9682  -15.2512 C   0  0  0  0  0  0  0  0  0  0  0  0
   22.4769  -21.5891  -14.7342 C   0  0  1  0  0  0  0  0  0  0  0  0
   21.5579  -21.0972  -13.6919 C   0  0  0  0  0  0  0  0  0  0  0  0
   20.3427  -20.5271  -13.9715 O   0  0  0  0  0  0  0  0  0  0  0  0
   21.8961  -21.2016  -12.4903 O   0  0  0  0  0  0  0  0  0  0  0  0
  2  1  1  0
  3 10  1  0
  3  2  1  0
  4  3  2  0
  6  5  1  1
  6  8  1  0
  7  6  1  0
  9  8  1  1
  9 11  1  0
  9 10  1  0
 11 13  1  0
 12 11  2  0
 13 14  1  0
 13 17  1  0
 14 15  1  0
 15 16  1  0
 17 16  1  0
 17 18  1  1
 18 20  2  0
 18 19  1  0
M  END
$$$$
