GLP.pdb
     RDKit          3D

 20 20  0  0  1  0  0  0  0  0999 V2000
   29.6454  -21.6712  -15.1001 N   0  0  0  0  0  0  0  0  0  0  0  0
   29.0061  -20.6073  -14.3540 C   0  0  0  0  0  0  0  0  0  0  0  0
   28.2172  -21.1711  -13.2010 C   0  0  0  0  0  0  0  0  0  0  0  0
   27.7775  -22.3486  -13.2113 O   0  0  0  0  0  0  0  0  0  0  0  0
   26.6971  -21.3793   -7.8124 C   0  0  0  0  0  0  0  0  0  0  0  0
   26.3021  -20.2019   -8.6756 C   0  0  1  0  0  0  0  0  0  0  0  0
   26.3926  -18.9862   -7.7062 C   0  0  0  0  0  0  0  0  0  0  0  0
   27.2697  -19.9542   -9.7916 C   0  0  0  0  0  0  0  0  0  0  0  0
   26.9518  -20.6050  -11.0971 C   0  0  2  0  0  0  0  0  0  0  0  0
   27.9725  -20.3448  -12.0859 N   0  0  0  0  0  0  0  0  0  0  0  0
   25.6226  -20.2566  -11.5571 C   0  0  0  0  0  0  0  0  0  0  0  0
   25.4448  -19.0442  -11.9705 O   0  0  0  0  0  0  0  0  0  0  0  0
   24.4884  -21.0738  -11.6122 N   0  0  0  0  0  0  0  0  0  0  0  0
   24.1399  -22.4028  -11.1846 C   0  0  0  0  0  0  0  0  0  0  0  0
   23.7526  -22.9885  -12.5606 C   0  0  0  0  0  0  0  0  0  0  0  0
   22.7234  -21.9216  -12.9663 C   0  0  0  0  0  0  0  0  0  0  0  0
   23.1827  -20.6644  -12.2557 C   0  0  1  0  0  0  0  0  0  0  0  0
   22.2741  -20.2346  -11.1774 C   0  0  0  0  0  0  0  0  0  0  0  0
   21.1555  -19.4729  -11.3979 O   0  0  0  0  0  0  0  0  0  0  0  0
   22.5293  -20.5778  -10.0000 O   0  0  0  0  0  0  0  0  0  0  0  0
  2  1  1  0
  3 10  1  0
  3  2  1  0
  4  3  2  0
  6  5  1  1
  6  8  1  0
  7  6  1  0
  9  8  1  1
  9 11  1  0
  9 10  1  0
 11 13  1  0
 12 11  2  0
 13 14  1  0
 13 17  1  0
 14 15  1  0
 15 16  1  0
 17 16  1  0
 17 18  1  1
 18 20  2  0
 18 19  1  0
M  END
$$$$
