GLP.pdb
     RDKit          3D

 20 20  0  0  1  0  0  0  0  0999 V2000
   18.5080  -11.9249  -19.2111 N   0  0  0  0  0  0  0  0  0  0  0  0
   18.7185  -10.4921  -19.2173 C   0  0  0  0  0  0  0  0  0  0  0  0
   18.9842   -9.9914  -17.8214 C   0  0  0  0  0  0  0  0  0  0  0  0
   18.0943   -9.9988  -16.9338 O   0  0  0  0  0  0  0  0  0  0  0  0
   21.3131   -9.5878  -13.1405 C   0  0  0  0  0  0  0  0  0  0  0  0
   22.2672   -9.3381  -14.2871 C   0  0  1  0  0  0  0  0  0  0  0  0
   23.5035  -10.2186  -13.9375 C   0  0  0  0  0  0  0  0  0  0  0  0
   21.7321   -9.8232  -15.5992 C   0  0  0  0  0  0  0  0  0  0  0  0
   20.6540   -8.9965  -16.2183 C   0  0  2  0  0  0  0  0  0  0  0  0
   20.2706   -9.5039  -17.5155 N   0  0  0  0  0  0  0  0  0  0  0  0
   21.0090   -7.5919  -16.2472 C   0  0  0  0  0  0  0  0  0  0  0  0
   21.8666   -7.2227  -17.1421 O   0  0  0  0  0  0  0  0  0  0  0  0
   20.5380   -6.5672  -15.4195 N   0  0  0  0  0  0  0  0  0  0  0  0
   19.6508   -6.4637  -14.2912 C   0  0  0  0  0  0  0  0  0  0  0  0
   18.6303   -5.4743  -14.8963 C   0  0  0  0  0  0  0  0  0  0  0  0
   19.6190   -4.3736  -15.3123 C   0  0  0  0  0  0  0  0  0  0  0  0
   20.9156   -5.1116  -15.5788 C   0  0  1  0  0  0  0  0  0  0  0  0
   21.9711   -4.8182  -14.5926 C   0  0  0  0  0  0  0  0  0  0  0  0
   22.7856   -3.7179  -14.6704 O   0  0  0  0  0  0  0  0  0  0  0  0
   22.1384   -5.6072  -13.6342 O   0  0  0  0  0  0  0  0  0  0  0  0
  2  1  1  0
  3 10  1  0
  3  2  1  0
  4  3  2  0
  6  5  1  1
  6  8  1  0
  7  6  1  0
  9  8  1  6
  9 11  1  0
  9 10  1  0
 11 13  1  0
 12 11  2  0
 13 14  1  0
 13 17  1  0
 14 15  1  0
 15 16  1  0
 17 16  1  0
 17 18  1  1
 18 20  2  0
 18 19  1  0
M  END
$$$$
