GLP.pdb
     RDKit          3D

 20 20  0  0  1  0  0  0  0  0999 V2000
   29.2688  -20.7780  -17.0671 N   0  0  0  0  0  0  0  0  0  0  0  0
   28.5361  -19.9003  -16.1784 C   0  0  0  0  0  0  0  0  0  0  0  0
   27.5720  -20.6905  -15.3324 C   0  0  0  0  0  0  0  0  0  0  0  0
   27.0743  -21.7738  -15.7307 O   0  0  0  0  0  0  0  0  0  0  0  0
   25.3649  -22.0729  -10.2268 C   0  0  0  0  0  0  0  0  0  0  0  0
   25.3044  -20.6914  -10.8393 C   0  0  1  0  0  0  0  0  0  0  0  0
   25.4684  -19.7384   -9.6183 C   0  0  0  0  0  0  0  0  0  0  0  0
   26.4464  -20.4224  -11.7703 C   0  0  0  0  0  0  0  0  0  0  0  0
   26.2304  -20.7869  -13.2019 C   0  0  2  0  0  0  0  0  0  0  0  0
   27.2269  -20.1899  -14.0609 N   0  0  0  0  0  0  0  0  0  0  0  0
   24.8759  -20.4974  -13.6275 C   0  0  0  0  0  0  0  0  0  0  0  0
   24.6294  -19.2885  -14.0153 O   0  0  0  0  0  0  0  0  0  0  0  0
   23.7825  -21.3689  -13.6735 N   0  0  0  0  0  0  0  0  0  0  0  0
   23.5060  -22.7168  -13.2523 C   0  0  0  0  0  0  0  0  0  0  0  0
   23.1278  -23.3101  -14.6276 C   0  0  0  0  0  0  0  0  0  0  0  0
   22.0416  -22.2920  -15.0094 C   0  0  0  0  0  0  0  0  0  0  0  0
   22.4490  -21.0192  -14.2947 C   0  0  1  0  0  0  0  0  0  0  0  0
   21.5363  -20.6432  -13.1999 C   0  0  0  0  0  0  0  0  0  0  0  0
   20.3426  -20.0008  -13.4057 O   0  0  0  0  0  0  0  0  0  0  0  0
   21.8597  -20.9204  -12.0220 O   0  0  0  0  0  0  0  0  0  0  0  0
  2  1  1  0
  3 10  1  0
  3  2  1  0
  4  3  2  0
  6  5  1  1
  6  8  1  0
  7  6  1  0
  9  8  1  1
  9 11  1  0
  9 10  1  0
 11 13  1  0
 12 11  2  0
 13 14  1  0
 13 17  1  0
 14 15  1  0
 15 16  1  0
 17 16  1  0
 17 18  1  1
 18 20  2  0
 18 19  1  0
M  END
$$$$
