GLP.pdb
     RDKit          3D

 20 20  0  0  1  0  0  0  0  0999 V2000
   21.8926  -11.9371  -21.6952 N   0  0  0  0  0  0  0  0  0  0  0  0
   21.7780  -10.5513  -21.2908 C   0  0  0  0  0  0  0  0  0  0  0  0
   21.8074  -10.4353  -19.7890 C   0  0  0  0  0  0  0  0  0  0  0  0
   20.8458  -10.8175  -19.0755 O   0  0  0  0  0  0  0  0  0  0  0  0
   23.9560  -10.8365  -14.9244 C   0  0  0  0  0  0  0  0  0  0  0  0
   24.6766   -9.8306  -15.7940 C   0  0  1  0  0  0  0  0  0  0  0  0
   26.1829  -10.1287  -15.5332 C   0  0  0  0  0  0  0  0  0  0  0  0
   24.4266  -10.0469  -17.2548 C   0  0  0  0  0  0  0  0  0  0  0  0
   23.0779   -9.6524  -17.7589 C   0  0  2  0  0  0  0  0  0  0  0  0
   22.9510   -9.8811  -19.1797 N   0  0  0  0  0  0  0  0  0  0  0  0
   22.7411   -8.2960  -17.3762 C   0  0  0  0  0  0  0  0  0  0  0  0
   23.2840   -7.3423  -18.0605 O   0  0  0  0  0  0  0  0  0  0  0  0
   21.8925   -7.8772  -16.3459 N   0  0  0  0  0  0  0  0  0  0  0  0
   21.0836   -8.5119  -15.3391 C   0  0  0  0  0  0  0  0  0  0  0  0
   19.7150   -7.9199  -15.7426 C   0  0  0  0  0  0  0  0  0  0  0  0
   20.1071   -6.4342  -15.7152 C   0  0  0  0  0  0  0  0  0  0  0  0
   21.5875   -6.4282  -16.0390 C   0  0  1  0  0  0  0  0  0  0  0  0
   22.4355   -6.0294  -14.9010 C   0  0  0  0  0  0  0  0  0  0  0  0
   22.6162   -4.7244  -14.5212 O   0  0  0  0  0  0  0  0  0  0  0  0
   23.0227   -6.9198  -14.2443 O   0  0  0  0  0  0  0  0  0  0  0  0
  2  1  1  0
  3 10  1  0
  3  2  1  0
  4  3  2  0
  6  5  1  1
  6  8  1  0
  7  6  1  0
  9  8  1  6
  9 11  1  0
  9 10  1  0
 11 13  1  0
 12 11  2  0
 13 14  1  0
 13 17  1  0
 14 15  1  0
 15 16  1  0
 17 16  1  0
 17 18  1  1
 18 20  2  0
 18 19  1  0
M  END
$$$$
