GLP.pdb
     RDKit          3D

 20 20  0  0  1  0  0  0  0  0999 V2000
   16.8644  -11.0240  -18.8420 N   0  0  0  0  0  0  0  0  0  0  0  0
   17.8576   -9.9703  -18.8650 C   0  0  0  0  0  0  0  0  0  0  0  0
   18.4172   -9.7420  -17.4850 C   0  0  0  0  0  0  0  0  0  0  0  0
   17.7168   -9.8924  -16.4522 O   0  0  0  0  0  0  0  0  0  0  0  0
   23.0457  -11.2317  -14.2330 C   0  0  0  0  0  0  0  0  0  0  0  0
   22.0025  -10.1536  -14.4250 C   0  0  1  0  0  0  0  0  0  0  0  0
   22.7708   -8.8358  -14.1106 C   0  0  0  0  0  0  0  0  0  0  0  0
   21.5215  -10.0615  -15.8405 C   0  0  0  0  0  0  0  0  0  0  0  0
   20.4187   -9.0895  -16.1007 C   0  0  2  0  0  0  0  0  0  0  0  0
   19.7651   -9.3490  -17.3627 N   0  0  0  0  0  0  0  0  0  0  0  0
   20.8745   -7.7197  -15.9756 C   0  0  0  0  0  0  0  0  0  0  0  0
   21.8097   -7.3374  -16.7830 O   0  0  0  0  0  0  0  0  0  0  0  0
   20.4281   -6.7417  -15.0804 N   0  0  0  0  0  0  0  0  0  0  0  0
   19.4790   -6.6723  -14.0011 C   0  0  0  0  0  0  0  0  0  0  0  0
   18.5773   -5.5517  -14.5648 C   0  0  0  0  0  0  0  0  0  0  0  0
   19.6708   -4.5006  -14.8129 C   0  0  0  0  0  0  0  0  0  0  0  0
   20.9232   -5.3129  -15.0743 C   0  0  1  0  0  0  0  0  0  0  0  0
   21.9307   -5.1987  -14.0043 C   0  0  0  0  0  0  0  0  0  0  0  0
   22.1495   -6.1801  -13.0722 O   0  0  0  0  0  0  0  0  0  0  0  0
   22.6245   -4.1580  -13.9367 O   0  0  0  0  0  0  0  0  0  0  0  0
  2  1  1  0
  3 10  1  0
  3  2  1  0
  4  3  2  0
  6  5  1  6
  6  8  1  0
  7  6  1  0
  9  8  1  6
  9 11  1  0
  9 10  1  0
 11 13  1  0
 12 11  2  0
 13 14  1  0
 13 17  1  0
 14 15  1  0
 15 16  1  0
 17 16  1  0
 17 18  1  1
 18 20  2  0
 18 19  1  0
M  END
$$$$
