GLP.pdb
     RDKit          3D

 20 20  0  0  1  0  0  0  0  0999 V2000
   21.6736  -14.2430  -17.8478 N   0  0  0  0  0  0  0  0  0  0  0  0
   21.2895  -12.9455  -18.3638 C   0  0  0  0  0  0  0  0  0  0  0  0
   21.3079  -11.9141  -17.2658 C   0  0  0  0  0  0  0  0  0  0  0  0
   20.4944  -11.9503  -16.3083 O   0  0  0  0  0  0  0  0  0  0  0  0
   26.0136  -10.2135  -15.1231 C   0  0  0  0  0  0  0  0  0  0  0  0
   24.5597  -10.5766  -15.3274 C   0  0  1  0  0  0  0  0  0  0  0  0
   23.9973  -10.6789  -13.8786 C   0  0  0  0  0  0  0  0  0  0  0  0
   23.7893   -9.5006  -16.0290 C   0  0  0  0  0  0  0  0  0  0  0  0
   22.3680   -9.8156  -16.3599 C   0  0  2  0  0  0  0  0  0  0  0  0
   22.2692  -10.8852  -17.3260 N   0  0  0  0  0  0  0  0  0  0  0  0
   21.6378   -8.6293  -16.7589 C   0  0  0  0  0  0  0  0  0  0  0  0
   21.7182   -8.2824  -18.0022 O   0  0  0  0  0  0  0  0  0  0  0  0
   20.8452   -7.7967  -15.9615 N   0  0  0  0  0  0  0  0  0  0  0  0
   20.5065   -7.7048  -14.5660 C   0  0  0  0  0  0  0  0  0  0  0  0
   18.9736   -7.8459  -14.6959 C   0  0  0  0  0  0  0  0  0  0  0  0
   18.7391   -6.7157  -15.7106 C   0  0  0  0  0  0  0  0  0  0  0  0
   20.0329   -6.6387  -16.4960 C   0  0  1  0  0  0  0  0  0  0  0  0
   20.8006   -5.4060  -16.2427 C   0  0  0  0  0  0  0  0  0  0  0  0
   20.4473   -4.1838  -16.7541 O   0  0  0  0  0  0  0  0  0  0  0  0
   21.8264   -5.4698  -15.5268 O   0  0  0  0  0  0  0  0  0  0  0  0
  2  1  1  0
  3 10  1  0
  3  2  1  0
  4  3  2  0
  6  5  1  1
  6  8  1  0
  7  6  1  0
  9  8  1  6
  9 11  1  0
  9 10  1  0
 11 13  1  0
 12 11  2  0
 13 14  1  0
 13 17  1  0
 14 15  1  0
 15 16  1  0
 17 16  1  0
 17 18  1  1
 18 20  2  0
 18 19  1  0
M  END
$$$$
