GLP.pdb
     RDKit          3D

 20 20  0  0  1  0  0  0  0  0999 V2000
   28.5122  -17.3562  -16.2447 N   0  0  0  0  0  0  0  0  0  0  0  0
   27.4800  -17.2099  -15.2395 C   0  0  0  0  0  0  0  0  0  0  0  0
   27.1259  -18.5492  -14.6474 C   0  0  0  0  0  0  0  0  0  0  0  0
   27.2330  -19.6145  -15.3059 O   0  0  0  0  0  0  0  0  0  0  0  0
   26.4407  -21.9870  -10.2331 C   0  0  0  0  0  0  0  0  0  0  0  0
   25.5017  -20.8250  -10.4685 C   0  0  1  0  0  0  0  0  0  0  0  0
   25.1849  -20.3093   -9.0335 C   0  0  0  0  0  0  0  0  0  0  0  0
   26.1519  -19.6993  -11.2125 C   0  0  0  0  0  0  0  0  0  0  0  0
   26.0886  -19.7695  -12.7024 C   0  0  2  0  0  0  0  0  0  0  0  0
   26.6629  -18.5950  -13.3171 N   0  0  0  0  0  0  0  0  0  0  0  0
   24.7440  -20.0457  -13.1667 C   0  0  0  0  0  0  0  0  0  0  0  0
   23.9841  -19.0258  -13.4010 O   0  0  0  0  0  0  0  0  0  0  0  0
   24.1513  -21.2918  -13.3974 N   0  0  0  0  0  0  0  0  0  0  0  0
   24.4904  -22.6685  -13.1518 C   0  0  0  0  0  0  0  0  0  0  0  0
   24.4472  -23.1754  -14.6104 C   0  0  0  0  0  0  0  0  0  0  0  0
   23.0318  -22.6918  -14.9640 C   0  0  0  0  0  0  0  0  0  0  0  0
   22.8161  -21.4783  -14.0822 C   0  0  1  0  0  0  0  0  0  0  0  0
   21.8054  -21.6897  -13.0301 C   0  0  0  0  0  0  0  0  0  0  0  0
   20.4566  -21.5857  -13.2539 O   0  0  0  0  0  0  0  0  0  0  0  0
   22.1891  -21.9786  -11.8733 O   0  0  0  0  0  0  0  0  0  0  0  0
  2  1  1  0
  3 10  1  0
  3  2  1  0
  4  3  2  0
  6  5  1  1
  6  8  1  0
  7  6  1  0
  9  8  1  1
  9 11  1  0
  9 10  1  0
 11 13  1  0
 12 11  2  0
 13 14  1  0
 13 17  1  0
 14 15  1  0
 15 16  1  0
 17 16  1  0
 17 18  1  1
 18 20  2  0
 18 19  1  0
M  END
$$$$
