GLP.pdb
     RDKit          3D

 20 20  0  0  1  0  0  0  0  0999 V2000
   21.1253  -15.3155  -17.9269 N   0  0  0  0  0  0  0  0  0  0  0  0
   22.0960  -14.4172  -18.5168 C   0  0  0  0  0  0  0  0  0  0  0  0
   22.7931  -13.6170  -17.4475 C   0  0  0  0  0  0  0  0  0  0  0  0
   22.2568  -13.3898  -16.3337 O   0  0  0  0  0  0  0  0  0  0  0  0
   27.3865  -11.9587  -14.6996 C   0  0  0  0  0  0  0  0  0  0  0  0
   27.1057  -11.4738  -16.1044 C   0  0  1  0  0  0  0  0  0  0  0  0
   28.5125  -11.4403  -16.7718 C   0  0  0  0  0  0  0  0  0  0  0  0
   26.2638  -12.4329  -16.8884 C   0  0  0  0  0  0  0  0  0  0  0  0
   24.7895  -12.2010  -16.8494 C   0  0  2  0  0  0  0  0  0  0  0  0
   24.0823  -13.1149  -17.7165 N   0  0  0  0  0  0  0  0  0  0  0  0
   24.4608  -10.8136  -17.1080 C   0  0  0  0  0  0  0  0  0  0  0  0
   24.3546  -10.4578  -18.3468 O   0  0  0  0  0  0  0  0  0  0  0  0
   24.2408   -9.7927  -16.1772 N   0  0  0  0  0  0  0  0  0  0  0  0
   24.2914   -9.6593  -14.7453 C   0  0  0  0  0  0  0  0  0  0  0  0
   22.8303   -9.2174  -14.5078 C   0  0  0  0  0  0  0  0  0  0  0  0
   22.8056   -8.0263  -15.4787 C   0  0  0  0  0  0  0  0  0  0  0  0
   23.8171   -8.3890  -16.5473 C   0  0  1  0  0  0  0  0  0  0  0  0
   25.0238   -7.5426  -16.5246 C   0  0  0  0  0  0  0  0  0  0  0  0
   25.0656   -6.2814  -17.0608 O   0  0  0  0  0  0  0  0  0  0  0  0
   26.0653   -7.9899  -15.9914 O   0  0  0  0  0  0  0  0  0  0  0  0
  2  1  1  0
  3 10  1  0
  3  2  1  0
  4  3  2  0
  6  5  1  1
  6  8  1  0
  7  6  1  0
  9  8  1  6
  9 11  1  0
  9 10  1  0
 11 13  1  0
 12 11  2  0
 13 14  1  0
 13 17  1  0
 14 15  1  0
 15 16  1  0
 17 16  1  0
 17 18  1  1
 18 20  2  0
 18 19  1  0
M  END
$$$$
