GLP.pdb
     RDKit          3D

 20 20  0  0  1  0  0  0  0  0999 V2000
   20.0976  -11.7314  -20.6465 N   0  0  0  0  0  0  0  0  0  0  0  0
   21.1124  -10.7129  -20.4729 C   0  0  0  0  0  0  0  0  0  0  0  0
   21.4653  -10.5622  -19.0160 C   0  0  0  0  0  0  0  0  0  0  0  0
   20.7268  -11.0138  -18.1047 O   0  0  0  0  0  0  0  0  0  0  0  0
   24.8162  -10.6968  -14.7503 C   0  0  0  0  0  0  0  0  0  0  0  0
   25.0543   -9.5826  -15.7449 C   0  0  1  0  0  0  0  0  0  0  0  0
   26.6057   -9.5220  -15.8675 C   0  0  0  0  0  0  0  0  0  0  0  0
   24.5123   -9.8978  -17.1052 C   0  0  0  0  0  0  0  0  0  0  0  0
   23.0658   -9.6006  -17.3242 C   0  0  2  0  0  0  0  0  0  0  0  0
   22.6597   -9.8941  -18.6792 N   0  0  0  0  0  0  0  0  0  0  0  0
   22.7310   -8.2507  -16.9175 C   0  0  0  0  0  0  0  0  0  0  0  0
   23.0079   -7.3019  -17.7516 O   0  0  0  0  0  0  0  0  0  0  0  0
   22.1386   -7.8335  -15.7208 N   0  0  0  0  0  0  0  0  0  0  0  0
   21.7188   -8.4562  -14.4933 C   0  0  0  0  0  0  0  0  0  0  0  0
   20.2258   -8.0623  -14.5393 C   0  0  0  0  0  0  0  0  0  0  0  0
   20.4088   -6.5461  -14.7117 C   0  0  0  0  0  0  0  0  0  0  0  0
   21.7354   -6.4052  -15.4308 C   0  0  1  0  0  0  0  0  0  0  0  0
   22.7941   -5.8075  -14.5972 C   0  0  0  0  0  0  0  0  0  0  0  0
   22.8437   -4.4719  -14.2912 O   0  0  0  0  0  0  0  0  0  0  0  0
   23.6955   -6.5489  -14.1425 O   0  0  0  0  0  0  0  0  0  0  0  0
  2  1  1  0
  3 10  1  0
  3  2  1  0
  4  3  2  0
  6  5  1  1
  6  8  1  0
  7  6  1  0
  9  8  1  6
  9 11  1  0
  9 10  1  0
 11 13  1  0
 12 11  2  0
 13 14  1  0
 13 17  1  0
 14 15  1  0
 15 16  1  0
 17 16  1  0
 17 18  1  1
 18 20  2  0
 18 19  1  0
M  END
$$$$
