GLP.pdb
     RDKit          3D

 20 20  0  0  1  0  0  0  0  0999 V2000
   21.3360  -11.8437  -19.8486 N   0  0  0  0  0  0  0  0  0  0  0  0
   21.2829  -10.4064  -19.6795 C   0  0  0  0  0  0  0  0  0  0  0  0
   21.3696  -10.0429  -18.2200 C   0  0  0  0  0  0  0  0  0  0  0  0
   20.4717  -10.3658  -17.4018 O   0  0  0  0  0  0  0  0  0  0  0  0
   26.1044  -10.4911  -15.5057 C   0  0  0  0  0  0  0  0  0  0  0  0
   24.6397  -10.4426  -15.8796 C   0  0  1  0  0  0  0  0  0  0  0  0
   23.9268  -11.1137  -14.6684 C   0  0  0  0  0  0  0  0  0  0  0  0
   24.1170   -9.0429  -15.9841 C   0  0  0  0  0  0  0  0  0  0  0  0
   22.6916   -8.9007  -16.4045 C   0  0  2  0  0  0  0  0  0  0  0  0
   22.4940   -9.3205  -17.7727 N   0  0  0  0  0  0  0  0  0  0  0  0
   22.1909   -7.5650  -16.1492 C   0  0  0  0  0  0  0  0  0  0  0  0
   22.3551   -6.6888  -17.0861 O   0  0  0  0  0  0  0  0  0  0  0  0
   21.5436   -7.0924  -15.0026 N   0  0  0  0  0  0  0  0  0  0  0  0
   21.1483   -7.6360  -13.7302 C   0  0  0  0  0  0  0  0  0  0  0  0
   19.6305   -7.3670  -13.8314 C   0  0  0  0  0  0  0  0  0  0  0  0
   19.6989   -5.8621  -14.1360 C   0  0  0  0  0  0  0  0  0  0  0  0
   21.0249   -5.6805  -14.8467 C   0  0  1  0  0  0  0  0  0  0  0  0
   22.0168   -4.9300  -14.0556 C   0  0  0  0  0  0  0  0  0  0  0  0
   22.0005   -3.5645  -13.9327 O   0  0  0  0  0  0  0  0  0  0  0  0
   22.9214   -5.5630  -13.4639 O   0  0  0  0  0  0  0  0  0  0  0  0
  2  1  1  0
  3 10  1  0
  3  2  1  0
  4  3  2  0
  6  5  1  1
  6  8  1  0
  7  6  1  0
  9  8  1  6
  9 11  1  0
  9 10  1  0
 11 13  1  0
 12 11  2  0
 13 14  1  0
 13 17  1  0
 14 15  1  0
 15 16  1  0
 17 16  1  0
 17 18  1  1
 18 20  2  0
 18 19  1  0
M  END
$$$$
