GLP.pdb
     RDKit          3D

 20 20  0  0  1  0  0  0  0  0999 V2000
   19.8575  -19.7061  -15.1025 N   0  0  0  0  0  0  0  0  0  0  0  0
   20.6385  -20.6571  -14.3391 C   0  0  0  0  0  0  0  0  0  0  0  0
   21.9527  -20.0487  -13.9239 C   0  0  0  0  0  0  0  0  0  0  0  0
   22.3671  -18.9677  -14.4135 O   0  0  0  0  0  0  0  0  0  0  0  0
   25.9445  -19.2906  -10.0747 C   0  0  0  0  0  0  0  0  0  0  0  0
   25.9006  -20.5761  -10.8702 C   0  0  1  0  0  0  0  0  0  0  0  0
   26.3400  -21.6614   -9.8432 C   0  0  0  0  0  0  0  0  0  0  0  0
   24.5170  -20.9269  -11.3240 C   0  0  0  0  0  0  0  0  0  0  0  0
   24.1014  -20.3868  -12.6523 C   0  0  2  0  0  0  0  0  0  0  0  0
   22.7296  -20.7205  -12.9588 N   0  0  0  0  0  0  0  0  0  0  0  0
   25.0223  -20.7800  -13.6997 C   0  0  0  0  0  0  0  0  0  0  0  0
   24.7266  -21.8456  -14.3702 O   0  0  0  0  0  0  0  0  0  0  0  0
   26.2089  -20.1472  -14.0856 N   0  0  0  0  0  0  0  0  0  0  0  0
   27.0894  -19.1548  -13.5286 C   0  0  0  0  0  0  0  0  0  0  0  0
   27.0012  -18.1115  -14.6645 C   0  0  0  0  0  0  0  0  0  0  0  0
   27.3808  -19.0341  -15.8335 C   0  0  0  0  0  0  0  0  0  0  0  0
   26.9187  -20.4092  -15.3949 C   0  0  1  0  0  0  0  0  0  0  0  0
   28.0276  -21.3402  -15.1181 C   0  0  0  0  0  0  0  0  0  0  0  0
   28.7417  -21.9706  -16.1042 O   0  0  0  0  0  0  0  0  0  0  0  0
   28.3386  -21.5718  -13.9270 O   0  0  0  0  0  0  0  0  0  0  0  0
  2  1  1  0
  3 10  1  0
  3  2  1  0
  4  3  2  0
  6  5  1  1
  6  8  1  0
  7  6  1  0
  9  8  1  1
  9 11  1  0
  9 10  1  0
 11 13  1  0
 12 11  2  0
 13 14  1  0
 13 17  1  0
 14 15  1  0
 15 16  1  0
 17 16  1  0
 17 18  1  1
 18 20  2  0
 18 19  1  0
M  END
$$$$
