WMM.pdb
     RDKit          3D

 31 32  0  0  1  0  0  0  0  0999 V2000
    9.4590  -16.1661   21.0556 N   0  0  0  0  0  0  0  0  0  0  0  0
    8.9360  -15.7645   22.3312 C   0  0  1  0  0  0  0  0  0  0  0  0
    7.6880  -16.4997   22.7216 C   0  0  0  0  0  0  0  0  0  0  0  0
    6.8362  -15.7602   23.6611 C   0  0  0  0  0  0  0  0  0  0  0  0
    5.8087  -16.2903   24.3991 C   0  0  0  0  0  0  0  0  0  0  0  0
    5.2651  -15.3239   25.1322 N   0  0  0  0  0  0  0  0  0  0  0  0
    5.9271  -14.1802   24.8777 C   0  0  0  0  0  0  0  0  0  0  0  0
    5.7966  -12.8876   25.3467 C   0  0  0  0  0  0  0  0  0  0  0  0
    6.6167  -11.8784   24.9207 C   0  0  0  0  0  0  0  0  0  0  0  0
    7.6169  -12.1085   23.9975 C   0  0  0  0  0  0  0  0  0  0  0  0
    7.7614  -13.3865   23.5202 C   0  0  0  0  0  0  0  0  0  0  0  0
    6.9353  -14.4195   23.9449 C   0  0  0  0  0  0  0  0  0  0  0  0
    9.9544  -15.9925   23.3992 C   0  0  0  0  0  0  0  0  0  0  0  0
   10.9975  -16.6587   23.1917 O   0  0  0  0  0  0  0  0  0  0  0  0
   11.2938  -14.8487   31.0709 C   0  0  0  0  0  0  0  0  0  0  0  0
   10.4514  -14.7808   29.5227 S   0  0  0  0  0  0  0  0  0  0  0  0
   11.3812  -14.5595   28.0468 C   0  0  0  0  0  0  0  0  0  0  0  0
   10.6657  -14.4816   26.7421 C   0  0  0  0  0  0  0  0  0  0  0  0
   10.7624  -15.5327   25.7524 C   0  0  2  0  0  0  0  0  0  0  0  0
    9.7803  -15.4659   24.6826 N   0  0  0  0  0  0  0  0  0  0  0  0
   10.7054  -16.9203   26.2538 C   0  0  0  0  0  0  0  0  0  0  0  0
    9.5536  -17.4898   26.4600 O   0  0  0  0  0  0  0  0  0  0  0  0
   14.4766  -20.6736   22.8515 C   0  0  0  0  0  0  0  0  0  0  0  0
   14.2072  -20.9825   24.6247 S   0  0  0  0  0  0  0  0  0  0  0  0
   12.9426  -19.8308   25.2018 C   0  0  0  0  0  0  0  0  0  0  0  0
   12.7495  -19.9942   26.7000 C   0  0  0  0  0  0  0  0  0  0  0  0
   11.6263  -19.0760   27.1889 C   0  0  2  0  0  0  0  0  0  0  0  0
   11.7825  -17.7653   26.5560 N   0  0  0  0  0  0  0  0  0  0  0  0
   11.7739  -18.9355   28.6475 C   0  0  0  0  0  0  0  0  0  0  0  0
   11.5457  -20.0436   29.4488 O   0  0  0  0  0  0  0  0  0  0  0  0
   12.1001  -17.8324   29.1525 O   0  0  0  0  0  0  0  0  0  0  0  0
  2  1  1  6
  2 13  1  0
  2  3  1  0
  3  4  1  0
  4  5  2  0
  5  6  1  0
  7  6  1  0
  8  7  2  0
  9  8  1  0
 10 11  1  0
 10  9  2  0
 11 12  2  0
 12  4  1  0
 12  7  1  0
 13 14  2  0
 16 15  1  0
 16 17  1  0
 18 17  1  0
 19 18  1  1
 19 21  1  0
 20 19  1  0
 20 13  1  0
 21 28  1  0
 22 21  2  0
 23 24  1  0
 24 25  1  0
 25 26  1  0
 27 26  1  6
 27 29  1  0
 28 27  1  0
 29 31  2  0
 29 30  1  0
M  END
$$$$
