WMM.pdb
     RDKit          3D

 31 32  0  0  1  0  0  0  0  0999 V2000
    6.3354  -18.3331   21.7975 N   0  0  0  0  0  0  0  0  0  0  0  0
    7.1031  -17.2968   21.1661 C   0  0  1  0  0  0  0  0  0  0  0  0
    6.4174  -16.6862   19.9797 C   0  0  0  0  0  0  0  0  0  0  0  0
    7.2282  -15.6813   19.2813 C   0  0  0  0  0  0  0  0  0  0  0  0
    7.7752  -15.8208   18.0312 C   0  0  0  0  0  0  0  0  0  0  0  0
    8.4435  -14.7119   17.7303 N   0  0  0  0  0  0  0  0  0  0  0  0
    8.3347  -13.8608   18.7670 C   0  0  0  0  0  0  0  0  0  0  0  0
    8.8170  -12.5877   19.0000 C   0  0  0  0  0  0  0  0  0  0  0  0
    8.5580  -11.9194   20.1657 C   0  0  0  0  0  0  0  0  0  0  0  0
    7.7987  -12.4912   21.1668 C   0  0  0  0  0  0  0  0  0  0  0  0
    7.3112  -13.7556   20.9531 C   0  0  0  0  0  0  0  0  0  0  0  0
    7.5672  -14.4444   19.7741 C   0  0  0  0  0  0  0  0  0  0  0  0
    7.3904  -16.2032   22.1414 C   0  0  0  0  0  0  0  0  0  0  0  0
    6.6190  -15.2243   22.2887 O   0  0  0  0  0  0  0  0  0  0  0  0
    6.9651  -11.9954   25.8714 C   0  0  0  0  0  0  0  0  0  0  0  0
    6.2855  -13.5973   26.1600 S   0  0  0  0  0  0  0  0  0  0  0  0
    6.3513  -14.8024   24.8813 C   0  0  0  0  0  0  0  0  0  0  0  0
    7.2852  -15.9555   25.0172 C   0  0  0  0  0  0  0  0  0  0  0  0
    8.5765  -15.9754   24.3647 C   0  0  2  0  0  0  0  0  0  0  0  0
    8.5418  -16.2312   22.9341 N   0  0  0  0  0  0  0  0  0  0  0  0
    9.5779  -16.9141   24.9088 C   0  0  0  0  0  0  0  0  0  0  0  0
    9.2456  -18.1481   25.1545 O   0  0  0  0  0  0  0  0  0  0  0  0
   10.0015  -12.9965   28.4926 C   0  0  0  0  0  0  0  0  0  0  0  0
   10.8512  -14.0802   29.6823 S   0  0  0  0  0  0  0  0  0  0  0  0
   11.3251  -15.5910   28.8153 C   0  0  0  0  0  0  0  0  0  0  0  0
   10.9326  -15.4834   27.3514 C   0  0  0  0  0  0  0  0  0  0  0  0
   11.4605  -16.6927   26.5750 C   0  0  2  0  0  0  0  0  0  0  0  0
   10.9203  -16.6497   25.2153 N   0  0  0  0  0  0  0  0  0  0  0  0
   10.9722  -17.9031   27.2573 C   0  0  0  0  0  0  0  0  0  0  0  0
    9.9247  -18.6107   26.6879 O   0  0  0  0  0  0  0  0  0  0  0  0
   11.4964  -18.2843   28.3335 O   0  0  0  0  0  0  0  0  0  0  0  0
  2  1  1  1
  2 13  1  0
  2  3  1  0
  3  4  1  0
  4  5  2  0
  5  6  1  0
  7  6  1  0
  8  7  2  0
  9  8  1  0
 10 11  1  0
 10  9  2  0
 11 12  2  0
 12  4  1  0
 12  7  1  0
 13 14  2  0
 16 15  1  0
 16 17  1  0
 18 17  1  0
 19 18  1  1
 19 21  1  0
 20 19  1  0
 20 13  1  0
 21 28  1  0
 22 21  2  0
 23 24  1  0
 24 25  1  0
 25 26  1  0
 27 26  1  1
 27 29  1  0
 28 27  1  0
 29 31  2  0
 29 30  1  0
M  END
$$$$
