WMM.pdb
     RDKit          3D

 31 32  0  0  1  0  0  0  0  0999 V2000
    6.3077  -18.7344   23.0262 N   0  0  0  0  0  0  0  0  0  0  0  0
    6.6757  -17.3816   23.3365 C   0  0  1  0  0  0  0  0  0  0  0  0
    7.1026  -17.1924   24.7622 C   0  0  0  0  0  0  0  0  0  0  0  0
    6.5458  -15.9883   25.3908 C   0  0  0  0  0  0  0  0  0  0  0  0
    5.3141  -15.8918   25.9865 C   0  0  0  0  0  0  0  0  0  0  0  0
    5.1540  -14.6528   26.4404 N   0  0  0  0  0  0  0  0  0  0  0  0
    6.2637  -13.9505   26.1463 C   0  0  0  0  0  0  0  0  0  0  0  0
    6.6431  -12.6423   26.3748 C   0  0  0  0  0  0  0  0  0  0  0  0
    7.8571  -12.1605   25.9663 C   0  0  0  0  0  0  0  0  0  0  0  0
    8.7619  -12.9653   25.3036 C   0  0  0  0  0  0  0  0  0  0  0  0
    8.4022  -14.2679   25.0676 C   0  0  0  0  0  0  0  0  0  0  0  0
    7.1729  -14.7688   25.4773 C   0  0  0  0  0  0  0  0  0  0  0  0
    7.8010  -16.9409   22.4595 C   0  0  0  0  0  0  0  0  0  0  0  0
    8.7387  -17.7127   22.1431 O   0  0  0  0  0  0  0  0  0  0  0  0
    7.4326  -13.7110   16.8137 C   0  0  0  0  0  0  0  0  0  0  0  0
    8.4115  -14.0855   18.2324 S   0  0  0  0  0  0  0  0  0  0  0  0
    8.0767  -13.2627   19.7498 C   0  0  0  0  0  0  0  0  0  0  0  0
    8.8538  -13.6356   20.9653 C   0  0  0  0  0  0  0  0  0  0  0  0
    9.0266  -15.0141   21.3699 C   0  0  2  0  0  0  0  0  0  0  0  0
    7.8508  -15.6383   21.9540 N   0  0  0  0  0  0  0  0  0  0  0  0
   10.1297  -15.2937   22.3106 C   0  0  0  0  0  0  0  0  0  0  0  0
   11.3421  -15.4466   21.8632 O   0  0  0  0  0  0  0  0  0  0  0  0
   10.7415  -13.5781   28.6618 C   0  0  0  0  0  0  0  0  0  0  0  0
   11.4399  -15.2586   28.6526 S   0  0  0  0  0  0  0  0  0  0  0  0
   11.9523  -15.6363   26.9634 C   0  0  0  0  0  0  0  0  0  0  0  0
   10.7565  -15.5307   26.0319 C   0  0  0  0  0  0  0  0  0  0  0  0
   11.2276  -15.4599   24.5770 C   0  0  2  0  0  0  0  0  0  0  0  0
   10.0529  -15.4237   23.7045 N   0  0  0  0  0  0  0  0  0  0  0  0
   12.0025  -16.6821   24.3036 C   0  0  0  0  0  0  0  0  0  0  0  0
   11.4605  -17.6380   23.4582 O   0  0  0  0  0  0  0  0  0  0  0  0
   13.1316  -16.8522   24.8274 O   0  0  0  0  0  0  0  0  0  0  0  0
  2  1  1  1
  2 13  1  0
  2  3  1  0
  3  4  1  0
  4  5  2  0
  5  6  1  0
  7  6  1  0
  8  7  2  0
  9  8  1  0
 10 11  1  0
 10  9  2  0
 11 12  2  0
 12  4  1  0
 12  7  1  0
 13 14  2  0
 16 15  1  0
 16 17  1  0
 18 17  1  0
 19 18  1  1
 19 21  1  0
 20 19  1  0
 20 13  1  0
 21 28  1  0
 22 21  2  0
 23 24  1  0
 24 25  1  0
 25 26  1  0
 27 26  1  1
 27 29  1  0
 28 27  1  0
 29 31  2  0
 29 30  1  0
M  END
$$$$
