WMM.pdb
     RDKit          3D

 31 32  0  0  1  0  0  0  0  0999 V2000
    6.5300  -18.1757   24.6452 N   0  0  0  0  0  0  0  0  0  0  0  0
    7.0645  -16.8916   24.2886 C   0  0  1  0  0  0  0  0  0  0  0  0
    7.4979  -16.0772   25.4716 C   0  0  0  0  0  0  0  0  0  0  0  0
    6.5211  -15.0596   25.8781 C   0  0  0  0  0  0  0  0  0  0  0  0
    5.3276  -15.3013   26.5093 C   0  0  0  0  0  0  0  0  0  0  0  0
    4.7104  -14.1424   26.7162 N   0  0  0  0  0  0  0  0  0  0  0  0
    5.4883  -13.1586   26.2283 C   0  0  0  0  0  0  0  0  0  0  0  0
    5.3518  -11.7854   26.1713 C   0  0  0  0  0  0  0  0  0  0  0  0
    6.3108  -10.9869   25.6095 C   0  0  0  0  0  0  0  0  0  0  0  0
    7.4640  -11.5216   25.0713 C   0  0  0  0  0  0  0  0  0  0  0  0
    7.6169  -12.8841   25.1187 C   0  0  0  0  0  0  0  0  0  0  0  0
    6.6508  -13.7052   25.6863 C   0  0  0  0  0  0  0  0  0  0  0  0
    8.2456  -17.0579   23.3901 C   0  0  0  0  0  0  0  0  0  0  0  0
    8.9327  -18.1080   23.3831 O   0  0  0  0  0  0  0  0  0  0  0  0
    8.3811  -11.7239   20.2246 C   0  0  0  0  0  0  0  0  0  0  0  0
    7.6114  -13.2853   20.5088 S   0  0  0  0  0  0  0  0  0  0  0  0
    8.3705  -14.7442   19.8868 C   0  0  0  0  0  0  0  0  0  0  0  0
    9.6690  -15.1908   20.4654 C   0  0  0  0  0  0  0  0  0  0  0  0
    9.7342  -16.1224   21.5706 C   0  0  2  0  0  0  0  0  0  0  0  0
    8.6322  -16.0384   22.5151 N   0  0  0  0  0  0  0  0  0  0  0  0
   10.9607  -16.0893   22.3919 C   0  0  0  0  0  0  0  0  0  0  0  0
   12.1096  -15.8391   21.8341 O   0  0  0  0  0  0  0  0  0  0  0  0
    9.7104  -14.8091   28.1967 C   0  0  0  0  0  0  0  0  0  0  0  0
   11.4628  -14.3818   27.9547 S   0  0  0  0  0  0  0  0  0  0  0  0
   11.8628  -14.6481   26.2146 C   0  0  0  0  0  0  0  0  0  0  0  0
   12.1087  -16.1271   25.9683 C   0  0  0  0  0  0  0  0  0  0  0  0
   12.3515  -16.3790   24.4779 C   0  0  2  0  0  0  0  0  0  0  0  0
   11.0707  -16.2995   23.7737 N   0  0  0  0  0  0  0  0  0  0  0  0
   12.9001  -17.7391   24.3434 C   0  0  0  0  0  0  0  0  0  0  0  0
   14.1904  -17.9828   24.7883 O   0  0  0  0  0  0  0  0  0  0  0  0
   12.2103  -18.6579   23.8352 O   0  0  0  0  0  0  0  0  0  0  0  0
  2  1  1  1
  2 13  1  0
  2  3  1  0
  3  4  1  0
  4  5  2  0
  5  6  1  0
  7  6  1  0
  8  7  2  0
  9  8  1  0
 10 11  1  0
 10  9  2  0
 11 12  2  0
 12  4  1  0
 12  7  1  0
 13 14  2  0
 16 15  1  0
 16 17  1  0
 18 17  1  0
 19 18  1  6
 19 21  1  0
 20 19  1  0
 20 13  1  0
 21 28  1  0
 22 21  2  0
 23 24  1  0
 24 25  1  0
 25 26  1  0
 27 26  1  1
 27 29  1  0
 28 27  1  0
 29 31  2  0
 29 30  1  0
M  END
$$$$
