WMM.pdb
     RDKit          3D

 31 32  0  0  1  0  0  0  0  0999 V2000
    6.4948  -18.2974   25.0856 N   0  0  0  0  0  0  0  0  0  0  0  0
    7.0141  -17.0559   24.5848 C   0  0  1  0  0  0  0  0  0  0  0  0
    7.5986  -16.1803   25.6536 C   0  0  0  0  0  0  0  0  0  0  0  0
    6.7290  -15.0636   26.0435 C   0  0  0  0  0  0  0  0  0  0  0  0
    5.4634  -15.1760   26.5602 C   0  0  0  0  0  0  0  0  0  0  0  0
    4.9848  -13.9572   26.7893 N   0  0  0  0  0  0  0  0  0  0  0  0
    5.9229  -13.0624   26.4283 C   0  0  0  0  0  0  0  0  0  0  0  0
    5.9700  -11.6821   26.4471 C   0  0  0  0  0  0  0  0  0  0  0  0
    7.0694  -10.9910   26.0156 C   0  0  0  0  0  0  0  0  0  0  0  0
    8.1871  -11.6464   25.5393 C   0  0  0  0  0  0  0  0  0  0  0  0
    8.1585  -13.0177   25.5131 C   0  0  0  0  0  0  0  0  0  0  0  0
    7.0484  -13.7307   25.9483 C   0  0  0  0  0  0  0  0  0  0  0  0
    8.0805  -17.3158   23.5724 C   0  0  0  0  0  0  0  0  0  0  0  0
    8.9708  -18.1820   23.7521 O   0  0  0  0  0  0  0  0  0  0  0  0
    7.5057  -11.7274   19.0535 C   0  0  0  0  0  0  0  0  0  0  0  0
    8.2462  -13.3261   18.9711 S   0  0  0  0  0  0  0  0  0  0  0  0
    8.4810  -14.2425   20.4533 C   0  0  0  0  0  0  0  0  0  0  0  0
    9.1280  -15.5830   20.3839 C   0  0  0  0  0  0  0  0  0  0  0  0
    9.3145  -16.4044   21.5603 C   0  0  2  0  0  0  0  0  0  0  0  0
    8.1257  -16.5956   22.3750 N   0  0  0  0  0  0  0  0  0  0  0  0
   10.3726  -15.9832   22.5000 C   0  0  0  0  0  0  0  0  0  0  0  0
   10.4166  -14.7521   22.9194 O   0  0  0  0  0  0  0  0  0  0  0  0
   10.5371  -14.2548   27.9393 C   0  0  0  0  0  0  0  0  0  0  0  0
   11.6051  -15.7214   28.0819 S   0  0  0  0  0  0  0  0  0  0  0  0
   12.5230  -15.8907   26.5368 C   0  0  0  0  0  0  0  0  0  0  0  0
   11.5671  -16.2525   25.4126 C   0  0  0  0  0  0  0  0  0  0  0  0
   12.3167  -16.2971   24.0784 C   0  0  2  0  0  0  0  0  0  0  0  0
   11.3995  -16.7701   23.0403 N   0  0  0  0  0  0  0  0  0  0  0  0
   13.4246  -17.2561   24.2262 C   0  0  0  0  0  0  0  0  0  0  0  0
   13.3541  -18.4634   23.5482 O   0  0  0  0  0  0  0  0  0  0  0  0
   14.4125  -16.9828   24.9526 O   0  0  0  0  0  0  0  0  0  0  0  0
  2  1  1  1
  2 13  1  0
  2  3  1  0
  3  4  1  0
  4  5  2  0
  5  6  1  0
  7  6  1  0
  8  7  2  0
  9  8  1  0
 10 11  1  0
 10  9  2  0
 11 12  2  0
 12  4  1  0
 12  7  1  0
 13 14  2  0
 16 15  1  0
 16 17  1  0
 18 17  1  0
 19 18  1  6
 19 21  1  0
 20 19  1  0
 20 13  1  0
 21 28  1  0
 22 21  2  0
 23 24  1  0
 24 25  1  0
 25 26  1  0
 27 26  1  1
 27 29  1  0
 28 27  1  0
 29 31  2  0
 29 30  1  0
M  END
$$$$
