WMM.pdb
     RDKit          3D

 31 32  0  0  1  0  0  0  0  0999 V2000
    6.8345  -15.4954   21.8514 N   0  0  0  0  0  0  0  0  0  0  0  0
    7.8854  -16.4207   22.1695 C   0  0  1  0  0  0  0  0  0  0  0  0
    9.0555  -16.3377   21.2344 C   0  0  0  0  0  0  0  0  0  0  0  0
    8.7130  -15.8202   19.9040 C   0  0  0  0  0  0  0  0  0  0  0  0
    8.6535  -16.5569   18.7485 C   0  0  0  0  0  0  0  0  0  0  0  0
    8.3152  -15.7530   17.7454 N   0  0  0  0  0  0  0  0  0  0  0  0
    8.1558  -14.5106   18.2374 C   0  0  0  0  0  0  0  0  0  0  0  0
    7.8124  -13.3027   17.6625 C   0  0  0  0  0  0  0  0  0  0  0  0
    7.7142  -12.1539   18.3996 C   0  0  0  0  0  0  0  0  0  0  0  0
    7.9555  -12.1511   19.7587 C   0  0  0  0  0  0  0  0  0  0  0  0
    8.2981  -13.3420   20.3473 C   0  0  0  0  0  0  0  0  0  0  0  0
    8.4011  -14.5148   19.6099 C   0  0  0  0  0  0  0  0  0  0  0  0
    8.3874  -16.1724   23.5537 C   0  0  0  0  0  0  0  0  0  0  0  0
    9.2857  -15.3295   23.7937 O   0  0  0  0  0  0  0  0  0  0  0  0
    8.4554  -12.7202   28.0929 C   0  0  0  0  0  0  0  0  0  0  0  0
    7.8958  -13.2114   26.4939 S   0  0  0  0  0  0  0  0  0  0  0  0
    6.5984  -14.3907   26.3616 C   0  0  0  0  0  0  0  0  0  0  0  0
    6.8923  -15.8270   26.6278 C   0  0  0  0  0  0  0  0  0  0  0  0
    8.0306  -16.4973   26.0374 C   0  0  2  0  0  0  0  0  0  0  0  0
    7.8688  -16.8778   24.6437 N   0  0  0  0  0  0  0  0  0  0  0  0
    8.5119  -17.7124   26.7245 C   0  0  0  0  0  0  0  0  0  0  0  0
    7.6910  -18.6947   26.9585 O   0  0  0  0  0  0  0  0  0  0  0  0
   14.1616  -20.1911   26.1781 C   0  0  0  0  0  0  0  0  0  0  0  0
   13.5668  -21.5009   27.2928 S   0  0  0  0  0  0  0  0  0  0  0  0
   11.9412  -21.0107   27.9059 C   0  0  0  0  0  0  0  0  0  0  0  0
   11.5496  -19.6734   27.3002 C   0  0  0  0  0  0  0  0  0  0  0  0
   10.1910  -19.2263   27.8462 C   0  0  2  0  0  0  0  0  0  0  0  0
    9.8087  -17.9763   27.1874 N   0  0  0  0  0  0  0  0  0  0  0  0
   10.3520  -18.9885   29.2907 C   0  0  0  0  0  0  0  0  0  0  0  0
   10.3723  -17.6809   29.7512 O   0  0  0  0  0  0  0  0  0  0  0  0
   10.4684  -19.9531   30.0870 O   0  0  0  0  0  0  0  0  0  0  0  0
  2  1  1  6
  2 13  1  0
  2  3  1  0
  3  4  1  0
  4  5  2  0
  5  6  1  0
  7  6  1  0
  8  7  2  0
  9  8  1  0
 10 11  1  0
 10  9  2  0
 11 12  2  0
 12  4  1  0
 12  7  1  0
 13 14  2  0
 16 15  1  0
 16 17  1  0
 18 17  1  0
 19 18  1  1
 19 21  1  0
 20 19  1  0
 20 13  1  0
 21 28  1  0
 22 21  2  0
 23 24  1  0
 24 25  1  0
 25 26  1  0
 27 26  1  6
 27 29  1  0
 28 27  1  0
 29 31  2  0
 29 30  1  0
M  END
$$$$
