WMM.pdb
     RDKit          3D

 31 32  0  0  1  0  0  0  0  0999 V2000
    7.0118  -17.5673   20.6907 N   0  0  0  0  0  0  0  0  0  0  0  0
    6.5889  -17.6680   22.0593 C   0  0  1  0  0  0  0  0  0  0  0  0
    6.5584  -19.0778   22.5713 C   0  0  0  0  0  0  0  0  0  0  0  0
    5.6757  -19.9657   21.8048 C   0  0  0  0  0  0  0  0  0  0  0  0
    6.0502  -21.1345   21.1926 C   0  0  0  0  0  0  0  0  0  0  0  0
    4.9879  -21.6637   20.5940 N   0  0  0  0  0  0  0  0  0  0  0  0
    3.9355  -20.8537   20.8118 C   0  0  0  0  0  0  0  0  0  0  0  0
    2.6078  -20.9062   20.4347 C   0  0  0  0  0  0  0  0  0  0  0  0
    1.7157  -19.9330   20.7947 C   0  0  0  0  0  0  0  0  0  0  0  0
    2.1053  -18.8489   21.5552 C   0  0  0  0  0  0  0  0  0  0  0  0
    3.4205  -18.7796   21.9389 C   0  0  0  0  0  0  0  0  0  0  0  0
    4.3357  -19.7612   21.5799 C   0  0  0  0  0  0  0  0  0  0  0  0
    7.5036  -16.8813   22.9392 C   0  0  0  0  0  0  0  0  0  0  0  0
    8.6781  -17.2532   23.1787 O   0  0  0  0  0  0  0  0  0  0  0  0
    9.3789  -12.9931   28.6657 C   0  0  0  0  0  0  0  0  0  0  0  0
    8.6822  -13.0199   27.0455 S   0  0  0  0  0  0  0  0  0  0  0  0
    7.0693  -13.6805   26.8137 C   0  0  0  0  0  0  0  0  0  0  0  0
    6.7080  -14.2686   25.4932 C   0  0  0  0  0  0  0  0  0  0  0  0
    7.6104  -15.1386   24.7704 C   0  0  2  0  0  0  0  0  0  0  0  0
    7.0796  -15.6893   23.5341 N   0  0  0  0  0  0  0  0  0  0  0  0
    8.1542  -16.2923   25.5143 C   0  0  0  0  0  0  0  0  0  0  0  0
    7.4036  -17.3306   25.7423 O   0  0  0  0  0  0  0  0  0  0  0  0
   13.6904  -19.0974   24.4644 C   0  0  0  0  0  0  0  0  0  0  0  0
   12.6523  -20.3875   25.2192 S   0  0  0  0  0  0  0  0  0  0  0  0
   11.5141  -19.5823   26.3659 C   0  0  0  0  0  0  0  0  0  0  0  0
   10.9159  -18.3495   25.7093 C   0  0  0  0  0  0  0  0  0  0  0  0
    9.9274  -17.6730   26.6627 C   0  0  2  0  0  0  0  0  0  0  0  0
    9.4453  -16.4387   26.0408 N   0  0  0  0  0  0  0  0  0  0  0  0
   10.6592  -17.3449   27.8980 C   0  0  0  0  0  0  0  0  0  0  0  0
   10.9608  -18.3677   28.7839 O   0  0  0  0  0  0  0  0  0  0  0  0
   11.0018  -16.1609   28.1412 O   0  0  0  0  0  0  0  0  0  0  0  0
  2  1  1  6
  2 13  1  0
  2  3  1  0
  3  4  1  0
  4  5  2  0
  5  6  1  0
  7  6  1  0
  8  7  2  0
  9  8  1  0
 10 11  1  0
 10  9  2  0
 11 12  2  0
 12  4  1  0
 12  7  1  0
 13 14  2  0
 16 15  1  0
 16 17  1  0
 18 17  1  0
 19 18  1  1
 19 21  1  0
 20 19  1  0
 20 13  1  0
 21 28  1  0
 22 21  2  0
 23 24  1  0
 24 25  1  0
 25 26  1  0
 27 26  1  6
 27 29  1  0
 28 27  1  0
 29 31  2  0
 29 30  1  0
M  END
$$$$
