WMM.pdb
     RDKit          3D

 31 32  0  0  1  0  0  0  0  0999 V2000
    8.4162  -18.5919   20.0461 N   0  0  0  0  0  0  0  0  0  0  0  0
    7.9883  -18.8650   21.3892 C   0  0  1  0  0  0  0  0  0  0  0  0
    8.5796  -20.1204   21.9592 C   0  0  0  0  0  0  0  0  0  0  0  0
    7.8972  -21.3452   21.5242 C   0  0  0  0  0  0  0  0  0  0  0  0
    7.4169  -22.3308   22.3482 C   0  0  0  0  0  0  0  0  0  0  0  0
    6.8660  -23.2825   21.6013 N   0  0  0  0  0  0  0  0  0  0  0  0
    6.9842  -22.9244   20.3095 C   0  0  0  0  0  0  0  0  0  0  0  0
    6.5981  -23.5192   19.1243 C   0  0  0  0  0  0  0  0  0  0  0  0
    6.8402  -22.9352   17.9106 C   0  0  0  0  0  0  0  0  0  0  0  0
    7.4851  -21.7183   17.8163 C   0  0  0  0  0  0  0  0  0  0  0  0
    7.8763  -21.1125   18.9833 C   0  0  0  0  0  0  0  0  0  0  0  0
    7.6362  -21.6952   20.2214 C   0  0  0  0  0  0  0  0  0  0  0  0
    8.3635  -17.7333   22.2884 C   0  0  0  0  0  0  0  0  0  0  0  0
    9.2979  -16.9437   22.0085 O   0  0  0  0  0  0  0  0  0  0  0  0
    6.8127  -11.7273   26.3952 C   0  0  0  0  0  0  0  0  0  0  0  0
    6.8949  -13.1132   25.3073 S   0  0  0  0  0  0  0  0  0  0  0  0
    6.7012  -14.7334   25.9624 C   0  0  0  0  0  0  0  0  0  0  0  0
    6.6770  -15.8957   25.0304 C   0  0  0  0  0  0  0  0  0  0  0  0
    7.8696  -16.3602   24.3553 C   0  0  2  0  0  0  0  0  0  0  0  0
    7.6795  -17.5107   23.4873 N   0  0  0  0  0  0  0  0  0  0  0  0
    9.0245  -16.6984   25.2109 C   0  0  0  0  0  0  0  0  0  0  0  0
    9.0594  -17.8406   25.8335 O   0  0  0  0  0  0  0  0  0  0  0  0
   11.2672  -13.2091   29.8047 C   0  0  0  0  0  0  0  0  0  0  0  0
    9.9399  -13.6710   28.6485 S   0  0  0  0  0  0  0  0  0  0  0  0
   10.6933  -13.9928   27.0400 C   0  0  0  0  0  0  0  0  0  0  0  0
   11.7044  -15.1198   27.1666 C   0  0  0  0  0  0  0  0  0  0  0  0
   11.2451  -16.3326   26.3530 C   0  0  2  0  0  0  0  0  0  0  0  0
   10.1609  -15.9166   25.4619 N   0  0  0  0  0  0  0  0  0  0  0  0
   10.7384  -17.3364   27.3042 C   0  0  0  0  0  0  0  0  0  0  0  0
   11.6488  -18.0311   28.0857 O   0  0  0  0  0  0  0  0  0  0  0  0
    9.5056  -17.5564   27.4032 O   0  0  0  0  0  0  0  0  0  0  0  0
  2  1  1  6
  2 13  1  0
  2  3  1  0
  3  4  1  0
  4  5  2  0
  5  6  1  0
  7  6  1  0
  8  7  2  0
  9  8  1  0
 10 11  1  0
 10  9  2  0
 11 12  2  0
 12  4  1  0
 12  7  1  0
 13 14  2  0
 16 15  1  0
 16 17  1  0
 18 17  1  0
 19 18  1  1
 19 21  1  0
 20 19  1  0
 20 13  1  0
 21 28  1  0
 22 21  2  0
 23 24  1  0
 24 25  1  0
 25 26  1  0
 27 26  1  1
 27 29  1  0
 28 27  1  0
 29 31  2  0
 29 30  1  0
M  END
$$$$
