WMM.pdb
     RDKit          3D

 31 32  0  0  1  0  0  0  0  0999 V2000
    6.2366  -18.7132   24.6310 N   0  0  0  0  0  0  0  0  0  0  0  0
    6.7625  -17.3936   24.4216 C   0  0  1  0  0  0  0  0  0  0  0  0
    7.4330  -16.8201   25.6348 C   0  0  0  0  0  0  0  0  0  0  0  0
    6.8858  -15.5244   26.0553 C   0  0  0  0  0  0  0  0  0  0  0  0
    5.6187  -15.3067   26.5331 C   0  0  0  0  0  0  0  0  0  0  0  0
    5.4813  -14.0134   26.8080 N   0  0  0  0  0  0  0  0  0  0  0  0
    6.6403  -13.3957   26.5148 C   0  0  0  0  0  0  0  0  0  0  0  0
    7.0603  -12.0827   26.6010 C   0  0  0  0  0  0  0  0  0  0  0  0
    8.3218  -11.7022   26.2317 C   0  0  0  0  0  0  0  0  0  0  0  0
    9.2363  -12.6190   25.7536 C   0  0  0  0  0  0  0  0  0  0  0  0
    8.8368  -13.9281   25.6607 C   0  0  0  0  0  0  0  0  0  0  0  0
    7.5590  -14.3269   26.0325 C   0  0  0  0  0  0  0  0  0  0  0  0
    7.7607  -17.4083   23.3111 C   0  0  0  0  0  0  0  0  0  0  0  0
    8.3485  -18.4599   22.9596 O   0  0  0  0  0  0  0  0  0  0  0  0
    8.3384  -12.3243   18.9694 C   0  0  0  0  0  0  0  0  0  0  0  0
    7.2060  -13.6763   18.9980 S   0  0  0  0  0  0  0  0  0  0  0  0
    7.6136  -15.1202   19.9149 C   0  0  0  0  0  0  0  0  0  0  0  0
    8.9489  -15.2122   20.5697 C   0  0  0  0  0  0  0  0  0  0  0  0
    9.1921  -16.0935   21.6912 C   0  0  2  0  0  0  0  0  0  0  0  0
    8.0795  -16.2381   22.6156 N   0  0  0  0  0  0  0  0  0  0  0  0
   10.3658  -15.7849   22.5322 C   0  0  0  0  0  0  0  0  0  0  0  0
   10.9430  -14.6221   22.4407 O   0  0  0  0  0  0  0  0  0  0  0  0
    9.2142  -13.9354   27.7666 C   0  0  0  0  0  0  0  0  0  0  0  0
    9.5943  -15.4204   26.7858 S   0  0  0  0  0  0  0  0  0  0  0  0
   11.3890  -15.6077   26.7367 C   0  0  0  0  0  0  0  0  0  0  0  0
   11.7589  -16.7292   25.7806 C   0  0  0  0  0  0  0  0  0  0  0  0
   12.0363  -16.1615   24.3861 C   0  0  2  0  0  0  0  0  0  0  0  0
   10.9841  -16.6170   23.4761 N   0  0  0  0  0  0  0  0  0  0  0  0
   13.3338  -16.6978   23.9410 C   0  0  0  0  0  0  0  0  0  0  0  0
   13.3448  -17.8030   23.1041 O   0  0  0  0  0  0  0  0  0  0  0  0
   14.4073  -16.1622   24.3140 O   0  0  0  0  0  0  0  0  0  0  0  0
  2  1  1  1
  2 13  1  0
  2  3  1  0
  3  4  1  0
  4  5  2  0
  5  6  1  0
  7  6  1  0
  8  7  2  0
  9  8  1  0
 10 11  1  0
 10  9  2  0
 11 12  2  0
 12  4  1  0
 12  7  1  0
 13 14  2  0
 16 15  1  0
 16 17  1  0
 18 17  1  0
 19 18  1  6
 19 21  1  0
 20 19  1  0
 20 13  1  0
 21 28  1  0
 22 21  2  0
 23 24  1  0
 24 25  1  0
 25 26  1  0
 27 26  1  1
 27 29  1  0
 28 27  1  0
 29 31  2  0
 29 30  1  0
M  END
$$$$
