WMM.pdb
     RDKit          3D

 31 32  0  0  1  0  0  0  0  0999 V2000
    6.7271  -18.2621   25.2040 N   0  0  0  0  0  0  0  0  0  0  0  0
    7.0323  -16.9820   24.6295 C   0  0  1  0  0  0  0  0  0  0  0  0
    7.5045  -15.9747   25.6360 C   0  0  0  0  0  0  0  0  0  0  0  0
    6.4859  -14.9829   26.0017 C   0  0  0  0  0  0  0  0  0  0  0  0
    5.2370  -15.2616   26.4957 C   0  0  0  0  0  0  0  0  0  0  0  0
    4.5952  -14.1169   26.7072 N   0  0  0  0  0  0  0  0  0  0  0  0
    5.4117  -13.1060   26.3574 C   0  0  0  0  0  0  0  0  0  0  0  0
    5.2732  -11.7319   26.3673 C   0  0  0  0  0  0  0  0  0  0  0  0
    6.2783  -10.9016   25.9514 C   0  0  0  0  0  0  0  0  0  0  0  0
    7.4827  -11.4034   25.5006 C   0  0  0  0  0  0  0  0  0  0  0  0
    7.6384  -12.7663   25.4835 C   0  0  0  0  0  0  0  0  0  0  0  0
    6.6257  -13.6196   25.9031 C   0  0  0  0  0  0  0  0  0  0  0  0
    8.0962  -17.1249   23.5915 C   0  0  0  0  0  0  0  0  0  0  0  0
    8.9070  -18.0829   23.5981 O   0  0  0  0  0  0  0  0  0  0  0  0
    9.1286  -11.8700   20.0221 C   0  0  0  0  0  0  0  0  0  0  0  0
    7.7994  -12.9439   19.5848 S   0  0  0  0  0  0  0  0  0  0  0  0
    7.7481  -14.5672   20.2586 C   0  0  0  0  0  0  0  0  0  0  0  0
    9.0182  -15.3316   20.4097 C   0  0  0  0  0  0  0  0  0  0  0  0
    9.2474  -16.2213   21.5275 C   0  0  2  0  0  0  0  0  0  0  0  0
    8.2284  -16.1863   22.5638 N   0  0  0  0  0  0  0  0  0  0  0  0
   10.5348  -16.0755   22.2354 C   0  0  0  0  0  0  0  0  0  0  0  0
   11.4007  -15.1910   21.8337 O   0  0  0  0  0  0  0  0  0  0  0  0
   10.2934  -14.3222   28.4336 C   0  0  0  0  0  0  0  0  0  0  0  0
   11.4518  -15.5841   27.8190 S   0  0  0  0  0  0  0  0  0  0  0  0
   11.3650  -15.5847   26.0159 C   0  0  0  0  0  0  0  0  0  0  0  0
   12.1852  -16.7396   25.4662 C   0  0  0  0  0  0  0  0  0  0  0  0
   12.3100  -16.6191   23.9451 C   0  0  2  0  0  0  0  0  0  0  0  0
   10.9846  -16.7976   23.3499 N   0  0  0  0  0  0  0  0  0  0  0  0
   13.2009  -17.6991   23.4880 C   0  0  0  0  0  0  0  0  0  0  0  0
   14.5440  -17.6415   23.8271 O   0  0  0  0  0  0  0  0  0  0  0  0
   12.7499  -18.6519   22.8047 O   0  0  0  0  0  0  0  0  0  0  0  0
  2  1  1  1
  2 13  1  0
  2  3  1  0
  3  4  1  0
  4  5  2  0
  5  6  1  0
  7  6  1  0
  8  7  2  0
  9  8  1  0
 10 11  1  0
 10  9  2  0
 11 12  2  0
 12  4  1  0
 12  7  1  0
 13 14  2  0
 16 15  1  0
 16 17  1  0
 18 17  1  0
 19 18  1  6
 19 21  1  0
 20 19  1  0
 20 13  1  0
 21 28  1  0
 22 21  2  0
 23 24  1  0
 24 25  1  0
 25 26  1  0
 27 26  1  1
 27 29  1  0
 28 27  1  0
 29 31  2  0
 29 30  1  0
M  END
$$$$
