WMM.pdb
     RDKit          3D

 31 32  0  0  1  0  0  0  0  0999 V2000
    6.6811  -18.8610   24.7601 N   0  0  0  0  0  0  0  0  0  0  0  0
    6.9015  -17.4924   24.3860 C   0  0  1  0  0  0  0  0  0  0  0  0
    7.3154  -16.6201   25.5342 C   0  0  0  0  0  0  0  0  0  0  0  0
    6.3489  -15.5614   25.8503 C   0  0  0  0  0  0  0  0  0  0  0  0
    5.0988  -15.7503   26.3824 C   0  0  0  0  0  0  0  0  0  0  0  0
    4.5124  -14.5664   26.5282 N   0  0  0  0  0  0  0  0  0  0  0  0
    5.3657  -13.6186   26.0986 C   0  0  0  0  0  0  0  0  0  0  0  0
    5.2881  -12.2418   26.0197 C   0  0  0  0  0  0  0  0  0  0  0  0
    6.3205  -11.4869   25.5330 C   0  0  0  0  0  0  0  0  0  0  0  0
    7.4925  -12.0713   25.0965 C   0  0  0  0  0  0  0  0  0  0  0  0
    7.5877  -13.4380   25.1672 C   0  0  0  0  0  0  0  0  0  0  0  0
    6.5467  -14.2152   25.6592 C   0  0  0  0  0  0  0  0  0  0  0  0
    7.9657  -17.4098   23.3418 C   0  0  0  0  0  0  0  0  0  0  0  0
    8.7610  -18.3566   23.1270 O   0  0  0  0  0  0  0  0  0  0  0  0
    8.8061  -11.4187   20.2424 C   0  0  0  0  0  0  0  0  0  0  0  0
    7.6620  -12.6585   19.7275 S   0  0  0  0  0  0  0  0  0  0  0  0
    7.7338  -14.2538   20.4633 C   0  0  0  0  0  0  0  0  0  0  0  0
    9.0616  -14.8367   20.8059 C   0  0  0  0  0  0  0  0  0  0  0  0
    9.1872  -16.0394   21.6006 C   0  0  2  0  0  0  0  0  0  0  0  0
    8.1158  -16.2621   22.5576 N   0  0  0  0  0  0  0  0  0  0  0  0
   10.4393  -16.1979   22.3668 C   0  0  0  0  0  0  0  0  0  0  0  0
   11.5789  -15.8870   21.8207 O   0  0  0  0  0  0  0  0  0  0  0  0
   11.4910  -15.6172   29.0547 C   0  0  0  0  0  0  0  0  0  0  0  0
   12.7039  -14.7828   27.9849 S   0  0  0  0  0  0  0  0  0  0  0  0
   12.9333  -15.7985   26.5103 C   0  0  0  0  0  0  0  0  0  0  0  0
   11.6712  -15.7629   25.6650 C   0  0  0  0  0  0  0  0  0  0  0  0
   11.8513  -16.6270   24.4141 C   0  0  2  0  0  0  0  0  0  0  0  0
   10.5845  -16.6623   23.6817 N   0  0  0  0  0  0  0  0  0  0  0  0
   12.1951  -17.9871   24.8624 C   0  0  0  0  0  0  0  0  0  0  0  0
   11.2602  -18.9976   24.6984 O   0  0  0  0  0  0  0  0  0  0  0  0
   13.3139  -18.2236   25.3827 O   0  0  0  0  0  0  0  0  0  0  0  0
  2  1  1  1
  2 13  1  0
  2  3  1  0
  3  4  1  0
  4  5  2  0
  5  6  1  0
  7  6  1  0
  8  7  2  0
  9  8  1  0
 10 11  1  0
 10  9  2  0
 11 12  2  0
 12  4  1  0
 12  7  1  0
 13 14  2  0
 16 15  1  0
 16 17  1  0
 18 17  1  0
 19 18  1  1
 19 21  1  0
 20 19  1  0
 20 13  1  0
 21 28  1  0
 22 21  2  0
 23 24  1  0
 24 25  1  0
 25 26  1  0
 27 26  1  1
 27 29  1  0
 28 27  1  0
 29 31  2  0
 29 30  1  0
M  END
$$$$
