WMM.pdb
     RDKit          3D

 31 32  0  0  1  0  0  0  0  0999 V2000
    7.4033  -20.2796   23.2544 N   0  0  0  0  0  0  0  0  0  0  0  0
    7.0600  -18.9749   23.7462 C   0  0  1  0  0  0  0  0  0  0  0  0
    7.4444  -18.7586   25.1801 C   0  0  0  0  0  0  0  0  0  0  0  0
    7.0185  -17.4602   25.7165 C   0  0  0  0  0  0  0  0  0  0  0  0
    5.8449  -16.8159   25.4183 C   0  0  0  0  0  0  0  0  0  0  0  0
    5.8053  -15.6675   26.0866 N   0  0  0  0  0  0  0  0  0  0  0  0
    6.9349  -15.5630   26.8105 C   0  0  0  0  0  0  0  0  0  0  0  0
    7.4186  -14.6002   27.6745 C   0  0  0  0  0  0  0  0  0  0  0  0
    8.6273  -14.7345   28.3021 C   0  0  0  0  0  0  0  0  0  0  0  0
    9.4217  -15.8448   28.0982 C   0  0  0  0  0  0  0  0  0  0  0  0
    8.9576  -16.8118   27.2429 C   0  0  0  0  0  0  0  0  0  0  0  0
    7.7324  -16.6871   26.5999 C   0  0  0  0  0  0  0  0  0  0  0  0
    7.7341  -17.9233   22.9281 C   0  0  0  0  0  0  0  0  0  0  0  0
    8.8391  -18.1238   22.3678 O   0  0  0  0  0  0  0  0  0  0  0  0
    8.7281  -11.8373   18.8676 C   0  0  0  0  0  0  0  0  0  0  0  0
    8.1998  -13.2798   19.7345 S   0  0  0  0  0  0  0  0  0  0  0  0
    7.4646  -13.1078   21.3224 C   0  0  0  0  0  0  0  0  0  0  0  0
    7.0005  -14.3261   22.0439 C   0  0  0  0  0  0  0  0  0  0  0  0
    7.7404  -15.5689   22.0016 C   0  0  2  0  0  0  0  0  0  0  0  0
    7.1520  -16.6640   22.7552 N   0  0  0  0  0  0  0  0  0  0  0  0
    9.1532  -15.5120   22.4270 C   0  0  0  0  0  0  0  0  0  0  0  0
   10.0072  -14.8003   21.7505 O   0  0  0  0  0  0  0  0  0  0  0  0
   10.0240  -11.9064   26.9727 C   0  0  0  0  0  0  0  0  0  0  0  0
   10.9020  -13.3345   27.6809 S   0  0  0  0  0  0  0  0  0  0  0  0
   11.5264  -14.3346   26.3140 C   0  0  0  0  0  0  0  0  0  0  0  0
   10.3632  -14.8281   25.4701 C   0  0  0  0  0  0  0  0  0  0  0  0
   10.8846  -15.6085   24.2606 C   0  0  2  0  0  0  0  0  0  0  0  0
    9.7421  -16.1536   23.5257 N   0  0  0  0  0  0  0  0  0  0  0  0
   11.7107  -16.7155   24.7718 C   0  0  0  0  0  0  0  0  0  0  0  0
   12.9523  -16.4230   25.3148 O   0  0  0  0  0  0  0  0  0  0  0  0
   11.2957  -17.8999   24.7155 O   0  0  0  0  0  0  0  0  0  0  0  0
  2  1  1  6
  2 13  1  0
  2  3  1  0
  3  4  1  0
  4  5  2  0
  5  6  1  0
  7  6  1  0
  8  7  2  0
  9  8  1  0
 10 11  1  0
 10  9  2  0
 11 12  2  0
 12  4  1  0
 12  7  1  0
 13 14  2  0
 16 15  1  0
 16 17  1  0
 18 17  1  0
 19 18  1  1
 19 21  1  0
 20 19  1  0
 20 13  1  0
 21 28  1  0
 22 21  2  0
 23 24  1  0
 24 25  1  0
 25 26  1  0
 27 26  1  1
 27 29  1  0
 28 27  1  0
 29 31  2  0
 29 30  1  0
M  END
$$$$
