WMM.pdb
     RDKit          3D

 31 32  0  0  1  0  0  0  0  0999 V2000
    5.9430  -17.5647   24.4049 N   0  0  0  0  0  0  0  0  0  0  0  0
    6.9169  -16.6931   23.8103 C   0  0  1  0  0  0  0  0  0  0  0  0
    7.6254  -15.8236   24.8066 C   0  0  0  0  0  0  0  0  0  0  0  0
    6.7390  -14.8892   25.5111 C   0  0  0  0  0  0  0  0  0  0  0  0
    5.6216  -15.2315   26.2291 C   0  0  0  0  0  0  0  0  0  0  0  0
    5.0731  -14.1250   26.7206 N   0  0  0  0  0  0  0  0  0  0  0  0
    5.8203  -13.0760   26.3303 C   0  0  0  0  0  0  0  0  0  0  0  0
    5.7247  -11.7149   26.5448 C   0  0  0  0  0  0  0  0  0  0  0  0
    6.6365  -10.8362   26.0260 C   0  0  0  0  0  0  0  0  0  0  0  0
    7.6987  -11.2735   25.2605 C   0  0  0  0  0  0  0  0  0  0  0  0
    7.8098  -12.6224   25.0367 C   0  0  0  0  0  0  0  0  0  0  0  0
    6.8908  -13.5244   25.5578 C   0  0  0  0  0  0  0  0  0  0  0  0
    7.9488  -17.4933   23.0860 C   0  0  0  0  0  0  0  0  0  0  0  0
    7.6787  -18.5941   22.5471 O   0  0  0  0  0  0  0  0  0  0  0  0
    6.7366  -13.0781   20.1503 C   0  0  0  0  0  0  0  0  0  0  0  0
    8.3787  -13.2062   19.5192 S   0  0  0  0  0  0  0  0  0  0  0  0
    9.4282  -14.4887   20.1069 C   0  0  0  0  0  0  0  0  0  0  0  0
    9.0135  -15.2766   21.3017 C   0  0  0  0  0  0  0  0  0  0  0  0
    9.8244  -16.3536   21.8272 C   0  0  2  0  0  0  0  0  0  0  0  0
    9.2671  -17.0399   22.9812 N   0  0  0  0  0  0  0  0  0  0  0  0
   11.2116  -16.0145   22.2022 C   0  0  0  0  0  0  0  0  0  0  0  0
   11.7761  -14.9503   21.7097 O   0  0  0  0  0  0  0  0  0  0  0  0
    9.3239  -16.2922   27.5878 C   0  0  0  0  0  0  0  0  0  0  0  0
   10.4571  -14.8682   27.6030 S   0  0  0  0  0  0  0  0  0  0  0  0
   11.8698  -15.2731   26.5547 C   0  0  0  0  0  0  0  0  0  0  0  0
   11.3779  -15.7873   25.2121 C   0  0  0  0  0  0  0  0  0  0  0  0
   12.5675  -16.1646   24.3254 C   0  0  2  0  0  0  0  0  0  0  0  0
   12.0595  -16.7181   23.0691 N   0  0  0  0  0  0  0  0  0  0  0  0
   13.3396  -17.1968   25.0379 C   0  0  0  0  0  0  0  0  0  0  0  0
   13.1998  -18.5198   24.6475 O   0  0  0  0  0  0  0  0  0  0  0  0
   14.1085  -16.8818   25.9800 O   0  0  0  0  0  0  0  0  0  0  0  0
  2  1  1  1
  2 13  1  0
  2  3  1  0
  3  4  1  0
  4  5  2  0
  5  6  1  0
  7  6  1  0
  8  7  2  0
  9  8  1  0
 10 11  1  0
 10  9  2  0
 11 12  2  0
 12  4  1  0
 12  7  1  0
 13 14  2  0
 16 15  1  0
 16 17  1  0
 18 17  1  0
 19 18  1  1
 19 21  1  0
 20 19  1  0
 20 13  1  0
 21 28  1  0
 22 21  2  0
 23 24  1  0
 24 25  1  0
 25 26  1  0
 27 26  1  1
 27 29  1  0
 28 27  1  0
 29 31  2  0
 29 30  1  0
M  END
$$$$
