WMM.pdb
     RDKit          3D

 31 32  0  0  1  0  0  0  0  0999 V2000
    7.7800  -18.9308   20.9553 N   0  0  0  0  0  0  0  0  0  0  0  0
    8.9654  -18.1996   20.6061 C   0  0  1  0  0  0  0  0  0  0  0  0
    9.0076  -17.7865   19.1645 C   0  0  0  0  0  0  0  0  0  0  0  0
    8.9619  -18.9139   18.2254 C   0  0  0  0  0  0  0  0  0  0  0  0
    7.9176  -19.2194   17.3903 C   0  0  0  0  0  0  0  0  0  0  0  0
    8.2321  -20.3054   16.6913 N   0  0  0  0  0  0  0  0  0  0  0  0
    9.4626  -20.7033   17.0634 C   0  0  0  0  0  0  0  0  0  0  0  0
   10.2755  -21.7503   16.6753 C   0  0  0  0  0  0  0  0  0  0  0  0
   11.5167  -21.9410   17.2192 C   0  0  0  0  0  0  0  0  0  0  0  0
   12.0145  -21.0904   18.1857 C   0  0  0  0  0  0  0  0  0  0  0  0
   11.2209  -20.0447   18.5839 C   0  0  0  0  0  0  0  0  0  0  0  0
    9.9592  -19.8405   18.0395 C   0  0  0  0  0  0  0  0  0  0  0  0
    9.0720  -16.9649   21.4392 C   0  0  0  0  0  0  0  0  0  0  0  0
    9.9617  -16.1027   21.2389 O   0  0  0  0  0  0  0  0  0  0  0  0
    6.3047  -11.6019   25.8292 C   0  0  0  0  0  0  0  0  0  0  0  0
    5.9281  -13.3193   25.6889 S   0  0  0  0  0  0  0  0  0  0  0  0
    7.2368  -14.4706   25.4570 C   0  0  0  0  0  0  0  0  0  0  0  0
    7.1899  -15.3989   24.2925 C   0  0  0  0  0  0  0  0  0  0  0  0
    8.3807  -15.7626   23.5553 C   0  0  2  0  0  0  0  0  0  0  0  0
    8.1745  -16.7227   22.4834 N   0  0  0  0  0  0  0  0  0  0  0  0
    9.5117  -16.2898   24.3446 C   0  0  0  0  0  0  0  0  0  0  0  0
   10.3439  -17.1322   23.8048 O   0  0  0  0  0  0  0  0  0  0  0  0
   10.7591  -12.9061   29.2970 C   0  0  0  0  0  0  0  0  0  0  0  0
    9.5998  -14.3060   29.2064 S   0  0  0  0  0  0  0  0  0  0  0  0
   10.5202  -15.7519   28.6401 C   0  0  0  0  0  0  0  0  0  0  0  0
   11.3846  -15.3721   27.4496 C   0  0  0  0  0  0  0  0  0  0  0  0
   11.1257  -16.3307   26.2844 C   0  0  2  0  0  0  0  0  0  0  0  0
    9.8386  -15.9919   25.6750 N   0  0  0  0  0  0  0  0  0  0  0  0
   11.0605  -17.6933   26.8394 C   0  0  0  0  0  0  0  0  0  0  0  0
    9.8243  -18.3136   26.9362 O   0  0  0  0  0  0  0  0  0  0  0  0
   12.1057  -18.2792   27.2169 O   0  0  0  0  0  0  0  0  0  0  0  0
  2  1  1  6
  2 13  1  0
  2  3  1  0
  3  4  1  0
  4  5  2  0
  5  6  1  0
  7  6  1  0
  8  7  2  0
  9  8  1  0
 10 11  1  0
 10  9  2  0
 11 12  2  0
 12  4  1  0
 12  7  1  0
 13 14  2  0
 16 15  1  0
 16 17  1  0
 18 17  1  0
 19 18  1  1
 19 21  1  0
 20 19  1  0
 20 13  1  0
 21 28  1  0
 22 21  2  0
 23 24  1  0
 24 25  1  0
 25 26  1  0
 27 26  1  1
 27 29  1  0
 28 27  1  0
 29 31  2  0
 29 30  1  0
M  END
$$$$
