SNL.pdb
     RDKit          3D

 23 22  0  0  1  0  0  0  0  0999 V2000
   15.9795  -13.5327  -15.9065 O   0  0  0  0  0  0  0  0  0  0  0  0
   17.1898  -12.8605  -16.0690 C   0  0  0  0  0  0  0  0  0  0  0  0
   17.0108  -11.3616  -15.9949 C   0  0  2  0  0  0  0  0  0  0  0  0
   16.2598  -10.9340  -17.1565 N   0  0  0  0  0  0  0  0  0  0  0  0
   18.3464  -10.6668  -15.9599 C   0  0  0  0  0  0  0  0  0  0  0  0
   19.1686  -10.9118  -15.0513 O   0  0  0  0  0  0  0  0  0  0  0  0
   22.6046   -8.1702  -18.9245 N   0  0  0  0  0  0  0  0  0  0  0  0
   21.3283   -7.6506  -18.6737 C   0  0  0  0  0  0  0  0  0  0  0  0
   21.2073   -6.3931  -18.5535 O   0  0  0  0  0  0  0  0  0  0  0  0
   20.1068   -8.4841  -18.5397 C   0  0  0  0  0  0  0  0  0  0  0  0
   19.8732   -8.9534  -17.1107 C   0  0  2  0  0  0  0  0  0  0  0  0
   18.6657   -9.7386  -16.9563 N   0  0  0  0  0  0  0  0  0  0  0  0
   19.8702   -7.8141  -16.1648 C   0  0  0  0  0  0  0  0  0  0  0  0
   18.8162   -7.1011  -16.0060 O   0  0  0  0  0  0  0  0  0  0  0  0
   20.2994   -7.1454  -10.6295 C   0  0  0  0  0  0  0  0  0  0  0  0
   20.6286   -6.2312  -11.8594 C   0  0  1  0  0  0  0  0  0  0  0  0
   21.9516   -5.5820  -11.4402 C   0  0  0  0  0  0  0  0  0  0  0  0
   20.7498   -7.0875  -13.0632 C   0  0  0  0  0  0  0  0  0  0  0  0
   20.8938   -6.4228  -14.3706 C   0  0  2  0  0  0  0  0  0  0  0  0
   21.0259   -7.4895  -15.4188 N   0  0  0  0  0  0  0  0  0  0  0  0
   21.9772   -5.4703  -14.5873 C   0  0  0  0  0  0  0  0  0  0  0  0
   22.9695   -5.8634  -15.3149 O   0  0  0  0  0  0  0  0  0  0  0  0
   22.0562   -4.1701  -14.0996 O   0  0  0  0  0  0  0  0  0  0  0  0
  2  3  1  0
  2  1  1  0
  3  5  1  0
  3  4  1  6
  5  6  2  0
  7  8  1  0
  8 10  1  0
  9  8  2  0
 11 10  1  6
 11 13  1  0
 12 11  1  0
 12  5  1  0
 13 20  1  0
 14 13  2  0
 16 17  1  1
 16 15  1  0
 18 16  1  0
 19 18  1  1
 20 19  1  0
 21 23  1  0
 21 19  1  0
 22 21  2  0
M  END
$$$$
