SNL.pdb
     RDKit          3D

 23 22  0  0  1  0  0  0  0  0999 V2000
   15.1587  -12.6716  -13.9723 O   0  0  0  0  0  0  0  0  0  0  0  0
   16.4233  -12.5315  -14.5418 C   0  0  0  0  0  0  0  0  0  0  0  0
   16.3479  -12.4057  -16.0461 C   0  0  2  0  0  0  0  0  0  0  0  0
   16.4816  -13.7275  -16.6215 N   0  0  0  0  0  0  0  0  0  0  0  0
   17.4404  -11.5063  -16.5608 C   0  0  0  0  0  0  0  0  0  0  0  0
   18.5128  -11.9859  -16.9870 O   0  0  0  0  0  0  0  0  0  0  0  0
   18.9301   -6.9419  -19.4162 N   0  0  0  0  0  0  0  0  0  0  0  0
   18.2888   -6.8480  -18.1746 C   0  0  0  0  0  0  0  0  0  0  0  0
   18.4989   -5.8141  -17.4694 O   0  0  0  0  0  0  0  0  0  0  0  0
   17.3765   -7.8871  -17.6333 C   0  0  0  0  0  0  0  0  0  0  0  0
   18.1257   -9.0839  -17.0649 C   0  0  2  0  0  0  0  0  0  0  0  0
   17.2490  -10.1208  -16.5599 N   0  0  0  0  0  0  0  0  0  0  0  0
   19.0868   -8.6683  -16.0178 C   0  0  0  0  0  0  0  0  0  0  0  0
   18.7055   -8.5266  -14.8016 O   0  0  0  0  0  0  0  0  0  0  0  0
   23.9261  -10.9968  -15.1887 C   0  0  0  0  0  0  0  0  0  0  0  0
   22.5307  -10.3367  -14.9171 C   0  0  1  0  0  0  0  0  0  0  0  0
   22.3866  -10.4882  -13.3993 C   0  0  0  0  0  0  0  0  0  0  0  0
   22.5832   -8.9243  -15.3642 C   0  0  0  0  0  0  0  0  0  0  0  0
   21.3704   -8.1035  -15.1999 C   0  0  2  0  0  0  0  0  0  0  0  0
   20.4413   -8.4198  -16.3360 N   0  0  0  0  0  0  0  0  0  0  0  0
   21.4795   -6.6507  -15.1253 C   0  0  0  0  0  0  0  0  0  0  0  0
   21.3271   -5.9919  -16.2258 O   0  0  0  0  0  0  0  0  0  0  0  0
   21.7232   -5.8888  -13.9874 O   0  0  0  0  0  0  0  0  0  0  0  0
  2  3  1  0
  2  1  1  0
  3  5  1  0
  3  4  1  6
  5  6  2  0
  7  8  1  0
  8 10  1  0
  9  8  2  0
 11 10  1  1
 11 13  1  0
 12 11  1  0
 12  5  1  0
 13 20  1  0
 14 13  2  0
 16 17  1  1
 16 15  1  0
 18 16  1  0
 19 18  1  6
 20 19  1  0
 21 23  1  0
 21 19  1  0
 22 21  2  0
M  END
$$$$
