SNL.pdb
     RDKit          3D

 23 22  0  0  1  0  0  0  0  0999 V2000
   24.5725  -26.5050  -15.9030 O   0  0  0  0  0  0  0  0  0  0  0  0
   24.0610  -25.3225  -16.4352 C   0  0  0  0  0  0  0  0  0  0  0  0
   24.1346  -24.1851  -15.4425 C   0  0  2  0  0  0  0  0  0  0  0  0
   23.2900  -24.5108  -14.3125 N   0  0  0  0  0  0  0  0  0  0  0  0
   23.6772  -22.8968  -16.0737 C   0  0  0  0  0  0  0  0  0  0  0  0
   24.2274  -22.4638  -17.1089 O   0  0  0  0  0  0  0  0  0  0  0  0
   20.7076  -18.5726  -16.8391 N   0  0  0  0  0  0  0  0  0  0  0  0
   20.0141  -19.4837  -16.0325 C   0  0  0  0  0  0  0  0  0  0  0  0
   18.8117  -19.2173  -15.7264 O   0  0  0  0  0  0  0  0  0  0  0  0
   20.6023  -20.7444  -15.5132 C   0  0  0  0  0  0  0  0  0  0  0  0
   22.0680  -20.9046  -15.8913 C   0  0  2  0  0  0  0  0  0  0  0  0
   22.6257  -22.1807  -15.4924 N   0  0  0  0  0  0  0  0  0  0  0  0
   22.8865  -19.7947  -15.3519 C   0  0  0  0  0  0  0  0  0  0  0  0
   23.2096  -19.7657  -14.1112 O   0  0  0  0  0  0  0  0  0  0  0  0
   27.9070  -18.5716  -14.5787 C   0  0  0  0  0  0  0  0  0  0  0  0
   26.6411  -17.6547  -14.6947 C   0  0  1  0  0  0  0  0  0  0  0  0
   27.1493  -16.5037  -15.5691 C   0  0  0  0  0  0  0  0  0  0  0  0
   25.5508  -18.4354  -15.3265 C   0  0  0  0  0  0  0  0  0  0  0  0
   24.2785  -17.7448  -15.6024 C   0  0  2  0  0  0  0  0  0  0  0  0
   23.3277  -18.7465  -16.1911 N   0  0  0  0  0  0  0  0  0  0  0  0
   24.2601  -16.5725  -16.4704 C   0  0  0  0  0  0  0  0  0  0  0  0
   24.2795  -16.7835  -17.7446 O   0  0  0  0  0  0  0  0  0  0  0  0
   24.2148  -15.2402  -16.0737 O   0  0  0  0  0  0  0  0  0  0  0  0
  2  3  1  0
  2  1  1  0
  3  5  1  0
  3  4  1  1
  5  6  2  0
  7  8  1  0
  8 10  1  0
  9  8  2  0
 11 10  1  1
 11 13  1  0
 12 11  1  0
 12  5  1  0
 13 20  1  0
 14 13  2  0
 16 17  1  6
 16 15  1  0
 18 16  1  0
 19 18  1  6
 20 19  1  0
 21 23  1  0
 21 19  1  0
 22 21  2  0
M  END
$$$$
