SNL.pdb
     RDKit          3D

 23 22  0  0  1  0  0  0  0  0999 V2000
   18.2612  -15.6352  -16.2122 O   0  0  0  0  0  0  0  0  0  0  0  0
   19.2099  -14.6459  -16.4660 C   0  0  0  0  0  0  0  0  0  0  0  0
   18.9782  -13.9792  -17.8025 C   0  0  2  0  0  0  0  0  0  0  0  0
   19.4569  -14.8651  -18.8430 N   0  0  0  0  0  0  0  0  0  0  0  0
   19.7034  -12.6615  -17.8733 C   0  0  0  0  0  0  0  0  0  0  0  0
   20.9090  -12.6142  -18.1992 O   0  0  0  0  0  0  0  0  0  0  0  0
   18.1845   -6.5538  -17.2369 N   0  0  0  0  0  0  0  0  0  0  0  0
   18.8861   -7.6922  -17.6533 C   0  0  0  0  0  0  0  0  0  0  0  0
   20.0091   -7.5285  -18.2213 O   0  0  0  0  0  0  0  0  0  0  0  0
   18.3940   -9.0811  -17.4698 C   0  0  0  0  0  0  0  0  0  0  0  0
   19.5019  -10.1162  -17.6038 C   0  0  2  0  0  0  0  0  0  0  0  0
   19.0172  -11.4809  -17.5703 N   0  0  0  0  0  0  0  0  0  0  0  0
   20.5500   -9.9175  -16.5767 C   0  0  0  0  0  0  0  0  0  0  0  0
   20.3843  -10.3549  -15.3827 O   0  0  0  0  0  0  0  0  0  0  0  0
   25.2216  -10.7418  -14.4651 C   0  0  0  0  0  0  0  0  0  0  0  0
   25.2727   -9.5784  -15.5143 C   0  0  1  0  0  0  0  0  0  0  0  0
   26.5704   -9.8774  -16.2719 C   0  0  0  0  0  0  0  0  0  0  0  0
   24.0626   -9.6598  -16.3665 C   0  0  0  0  0  0  0  0  0  0  0  0
   22.7941   -9.1536  -15.8130 C   0  0  2  0  0  0  0  0  0  0  0  0
   21.7520   -9.2432  -16.8901 N   0  0  0  0  0  0  0  0  0  0  0  0
   22.7276   -7.8048  -15.2614 C   0  0  0  0  0  0  0  0  0  0  0  0
   22.5728   -7.6988  -13.9834 O   0  0  0  0  0  0  0  0  0  0  0  0
   22.8222   -6.6089  -15.9654 O   0  0  0  0  0  0  0  0  0  0  0  0
  2  3  1  0
  2  1  1  0
  3  5  1  0
  3  4  1  6
  5  6  2  0
  7  8  1  0
  8 10  1  0
  9  8  2  0
 11 10  1  1
 11 13  1  0
 12 11  1  0
 12  5  1  0
 13 20  1  0
 14 13  2  0
 16 17  1  6
 16 15  1  0
 18 16  1  0
 19 18  1  6
 20 19  1  0
 21 23  1  0
 21 19  1  0
 22 21  2  0
M  END
$$$$
