SNL.pdb
     RDKit          3D

 23 22  0  0  1  0  0  0  0  0999 V2000
   17.7982  -24.9204   -8.9548 O   0  0  0  0  0  0  0  0  0  0  0  0
   17.0444  -25.7131   -9.8188 C   0  0  0  0  0  0  0  0  0  0  0  0
   17.9234  -26.5573  -10.7127 C   0  0  2  0  0  0  0  0  0  0  0  0
   18.6992  -27.4502   -9.8776 N   0  0  0  0  0  0  0  0  0  0  0  0
   18.8418  -25.6884  -11.5307 C   0  0  0  0  0  0  0  0  0  0  0  0
   20.0563  -25.6026  -11.2491 O   0  0  0  0  0  0  0  0  0  0  0  0
   18.6859  -22.7843  -17.0476 N   0  0  0  0  0  0  0  0  0  0  0  0
   19.2458  -23.5266  -16.0001 C   0  0  0  0  0  0  0  0  0  0  0  0
   20.5106  -23.5677  -15.9054 O   0  0  0  0  0  0  0  0  0  0  0  0
   18.4470  -24.2693  -14.9925 C   0  0  0  0  0  0  0  0  0  0  0  0
   19.0351  -24.1702  -13.5921 C   0  0  2  0  0  0  0  0  0  0  0  0
   18.3262  -24.9720  -12.6157 N   0  0  0  0  0  0  0  0  0  0  0  0
   19.1143  -22.7620  -13.1410 C   0  0  0  0  0  0  0  0  0  0  0  0
   18.1477  -22.2316  -12.4860 O   0  0  0  0  0  0  0  0  0  0  0  0
   22.8224  -20.4770   -9.9991 C   0  0  0  0  0  0  0  0  0  0  0  0
   21.4178  -20.7405  -10.6428 C   0  0  1  0  0  0  0  0  0  0  0  0
   20.5098  -19.7997   -9.8442 C   0  0  0  0  0  0  0  0  0  0  0  0
   21.4902  -20.4035  -12.0845 C   0  0  0  0  0  0  0  0  0  0  0  0
   20.2698  -20.5697  -12.8937 C   0  0  2  0  0  0  0  0  0  0  0  0
   20.2541  -21.9749  -13.4221 N   0  0  0  0  0  0  0  0  0  0  0  0
   20.0197  -19.6823  -14.0242 C   0  0  0  0  0  0  0  0  0  0  0  0
   20.2845  -20.1412  -15.2022 O   0  0  0  0  0  0  0  0  0  0  0  0
   19.5145  -18.3874  -13.9737 O   0  0  0  0  0  0  0  0  0  0  0  0
  2  3  1  0
  2  1  1  0
  3  5  1  0
  3  4  1  1
  5  6  2  0
  7  8  1  0
  8 10  1  0
  9  8  2  0
 11 10  1  6
 11 13  1  0
 12 11  1  0
 12  5  1  0
 13 20  1  0
 14 13  2  0
 16 17  1  1
 16 15  1  0
 18 16  1  0
 19 18  1  6
 20 19  1  0
 21 23  1  0
 21 19  1  0
 22 21  2  0
M  END
$$$$
