SNL.pdb
     RDKit          3D

 23 22  0  0  1  0  0  0  0  0999 V2000
   15.4739  -12.1170  -18.4079 O   0  0  0  0  0  0  0  0  0  0  0  0
   16.3054  -11.0018  -18.3169 C   0  0  0  0  0  0  0  0  0  0  0  0
   16.7441  -10.7466  -16.8933 C   0  0  2  0  0  0  0  0  0  0  0  0
   15.5654  -10.7045  -16.0535 N   0  0  0  0  0  0  0  0  0  0  0  0
   17.4957   -9.4456  -16.7927 C   0  0  0  0  0  0  0  0  0  0  0  0
   18.4905   -9.2268  -17.5167 O   0  0  0  0  0  0  0  0  0  0  0  0
   15.5098   -4.6541  -16.8566 N   0  0  0  0  0  0  0  0  0  0  0  0
   15.5288   -5.8367  -16.1064 C   0  0  0  0  0  0  0  0  0  0  0  0
   14.5941   -6.6756  -16.2881 O   0  0  0  0  0  0  0  0  0  0  0  0
   16.5786   -6.1682  -15.1099 C   0  0  0  0  0  0  0  0  0  0  0  0
   17.6092   -7.1489  -15.6509 C   0  0  2  0  0  0  0  0  0  0  0  0
   17.0728   -8.4752  -15.8786 N   0  0  0  0  0  0  0  0  0  0  0  0
   18.7979   -7.2192  -14.7707 C   0  0  0  0  0  0  0  0  0  0  0  0
   18.8606   -8.0857  -13.8273 O   0  0  0  0  0  0  0  0  0  0  0  0
   22.5998   -8.9830  -12.5909 C   0  0  0  0  0  0  0  0  0  0  0  0
   22.8890   -8.4723  -14.0443 C   0  0  1  0  0  0  0  0  0  0  0  0
   23.4146   -9.7341  -14.7363 C   0  0  0  0  0  0  0  0  0  0  0  0
   21.6227   -7.9672  -14.6262 C   0  0  0  0  0  0  0  0  0  0  0  0
   21.1517   -6.6365  -14.2027 C   0  0  2  0  0  0  0  0  0  0  0  0
   19.8857   -6.3350  -14.9513 N   0  0  0  0  0  0  0  0  0  0  0  0
   22.0236   -5.4759  -14.3474 C   0  0  0  0  0  0  0  0  0  0  0  0
   22.7666   -5.1685  -13.3365 O   0  0  0  0  0  0  0  0  0  0  0  0
   22.1509   -4.6613  -15.4677 O   0  0  0  0  0  0  0  0  0  0  0  0
  2  3  1  0
  2  1  1  0
  3  5  1  0
  3  4  1  1
  5  6  2  0
  7  8  1  0
  8 10  1  0
  9  8  2  0
 11 10  1  1
 11 13  1  0
 12 11  1  0
 12  5  1  0
 13 20  1  0
 14 13  2  0
 16 17  1  6
 16 15  1  0
 18 16  1  0
 19 18  1  6
 20 19  1  0
 21 23  1  0
 21 19  1  0
 22 21  2  0
M  END
$$$$
