SNL.pdb
     RDKit          3D

 23 22  0  0  1  0  0  0  0  0999 V2000
   16.1535  -13.7005  -14.9201 O   0  0  0  0  0  0  0  0  0  0  0  0
   17.2230  -12.9779  -15.4467 C   0  0  0  0  0  0  0  0  0  0  0  0
   16.9062  -12.4319  -16.8200 C   0  0  2  0  0  0  0  0  0  0  0  0
   17.0868  -13.4950  -17.7862 N   0  0  0  0  0  0  0  0  0  0  0  0
   17.8081  -11.2731  -17.1535 C   0  0  0  0  0  0  0  0  0  0  0  0
   18.9849  -11.4683  -17.5260 O   0  0  0  0  0  0  0  0  0  0  0  0
   17.1741   -5.0963  -18.2249 N   0  0  0  0  0  0  0  0  0  0  0  0
   17.7850   -6.3474  -18.0726 C   0  0  0  0  0  0  0  0  0  0  0  0
   19.0297   -6.4374  -18.3027 O   0  0  0  0  0  0  0  0  0  0  0  0
   17.0624   -7.5765  -17.6576 C   0  0  0  0  0  0  0  0  0  0  0  0
   18.0056   -8.7178  -17.3046 C   0  0  2  0  0  0  0  0  0  0  0  0
   17.3199   -9.9670  -17.0440 N   0  0  0  0  0  0  0  0  0  0  0  0
   18.8765   -8.3611  -16.1614 C   0  0  0  0  0  0  0  0  0  0  0  0
   18.4308   -8.4154  -14.9601 O   0  0  0  0  0  0  0  0  0  0  0  0
   23.5099  -10.6019  -15.0283 C   0  0  0  0  0  0  0  0  0  0  0  0
   22.1280   -9.8992  -14.7980 C   0  0  1  0  0  0  0  0  0  0  0  0
   21.9113  -10.0881  -13.2931 C   0  0  0  0  0  0  0  0  0  0  0  0
   22.2500   -8.4777  -15.2002 C   0  0  0  0  0  0  0  0  0  0  0  0
   21.0374   -7.6414  -15.1538 C   0  0  2  0  0  0  0  0  0  0  0  0
   20.2140   -7.9544  -16.3696 N   0  0  0  0  0  0  0  0  0  0  0  0
   21.1572   -6.1896  -15.0775 C   0  0  0  0  0  0  0  0  0  0  0  0
   21.7632   -5.7026  -14.0460 O   0  0  0  0  0  0  0  0  0  0  0  0
   20.6942   -5.2634  -16.0062 O   0  0  0  0  0  0  0  0  0  0  0  0
  2  3  1  0
  2  1  1  0
  3  5  1  0
  3  4  1  6
  5  6  2  0
  7  8  1  0
  8 10  1  0
  9  8  2  0
 11 10  1  1
 11 13  1  0
 12 11  1  0
 12  5  1  0
 13 20  1  0
 14 13  2  0
 16 17  1  1
 16 15  1  0
 18 16  1  0
 19 18  1  6
 20 19  1  0
 21 23  1  0
 21 19  1  0
 22 21  2  0
M  END
$$$$
