SNL.pdb
     RDKit          3D

 23 22  0  0  1  0  0  0  0  0999 V2000
   19.2314  -16.1010  -17.4864 O   0  0  0  0  0  0  0  0  0  0  0  0
   20.0541  -14.9924  -17.6799 C   0  0  0  0  0  0  0  0  0  0  0  0
   20.0242  -14.5180  -19.1146 C   0  0  2  0  0  0  0  0  0  0  0  0
   20.5888  -15.5568  -19.9503 N   0  0  0  0  0  0  0  0  0  0  0  0
   20.8127  -13.2447  -19.2711 C   0  0  0  0  0  0  0  0  0  0  0  0
   22.0354  -13.2798  -19.5270 O   0  0  0  0  0  0  0  0  0  0  0  0
   20.9274   -7.6332  -20.6379 N   0  0  0  0  0  0  0  0  0  0  0  0
   20.3144   -8.2434  -19.5364 C   0  0  0  0  0  0  0  0  0  0  0  0
   20.2525   -7.5918  -18.4491 O   0  0  0  0  0  0  0  0  0  0  0  0
   19.7318   -9.6090  -19.5644 C   0  0  0  0  0  0  0  0  0  0  0  0
   20.7351  -10.6808  -19.1629 C   0  0  2  0  0  0  0  0  0  0  0  0
   20.1664  -12.0127  -19.1277 N   0  0  0  0  0  0  0  0  0  0  0  0
   21.3740  -10.3600  -17.8661 C   0  0  0  0  0  0  0  0  0  0  0  0
   20.8146  -10.6970  -16.7624 O   0  0  0  0  0  0  0  0  0  0  0  0
   25.1453  -10.7956  -14.3327 C   0  0  0  0  0  0  0  0  0  0  0  0
   25.4881   -9.6462  -15.3418 C   0  0  1  0  0  0  0  0  0  0  0  0
   26.9822   -9.8691  -15.5969 C   0  0  0  0  0  0  0  0  0  0  0  0
   24.6527   -9.8196  -16.5540 C   0  0  0  0  0  0  0  0  0  0  0  0
   23.2263   -9.4598  -16.4657 C   0  0  2  0  0  0  0  0  0  0  0  0
   22.6107   -9.6775  -17.8176 N   0  0  0  0  0  0  0  0  0  0  0  0
   22.8386   -8.1238  -16.0267 C   0  0  0  0  0  0  0  0  0  0  0  0
   22.8929   -7.1773  -16.9040 O   0  0  0  0  0  0  0  0  0  0  0  0
   22.4044   -7.7548  -14.7578 O   0  0  0  0  0  0  0  0  0  0  0  0
  2  3  1  0
  2  1  1  0
  3  5  1  0
  3  4  1  6
  5  6  2  0
  7  8  1  0
  8 10  1  0
  9  8  2  0
 11 10  1  1
 11 13  1  0
 12 11  1  0
 12  5  1  0
 13 20  1  0
 14 13  2  0
 16 17  1  6
 16 15  1  0
 18 16  1  0
 19 18  1  6
 20 19  1  0
 21 23  1  0
 21 19  1  0
 22 21  2  0
M  END
$$$$
