SNL.pdb
     RDKit          3D

 23 22  0  0  1  0  0  0  0  0999 V2000
   15.9760  -11.4433  -16.9264 O   0  0  0  0  0  0  0  0  0  0  0  0
   16.1630  -10.8957  -15.6582 C   0  0  0  0  0  0  0  0  0  0  0  0
   17.5473  -11.1830  -15.1240 C   0  0  2  0  0  0  0  0  0  0  0  0
   17.7892  -12.6069  -15.2266 N   0  0  0  0  0  0  0  0  0  0  0  0
   17.6668  -10.7418  -13.6892 C   0  0  0  0  0  0  0  0  0  0  0  0
   17.1657  -11.4232  -12.7692 O   0  0  0  0  0  0  0  0  0  0  0  0
   19.1579   -6.9979  -14.0909 N   0  0  0  0  0  0  0  0  0  0  0  0
   20.1414   -7.2871  -13.1365 C   0  0  0  0  0  0  0  0  0  0  0  0
   21.2574   -6.6900  -13.2276 O   0  0  0  0  0  0  0  0  0  0  0  0
   19.9562   -8.2520  -12.0231 C   0  0  0  0  0  0  0  0  0  0  0  0
   18.6168   -8.9720  -12.0903 C   0  0  2  0  0  0  0  0  0  0  0  0
   18.3460   -9.5570  -13.3876 N   0  0  0  0  0  0  0  0  0  0  0  0
   17.5062   -8.0795  -11.6868 C   0  0  0  0  0  0  0  0  0  0  0  0
   16.7881   -7.4910  -12.5714 O   0  0  0  0  0  0  0  0  0  0  0  0
   13.0648   -7.0354   -8.8287 C   0  0  0  0  0  0  0  0  0  0  0  0
   14.3905   -6.5448   -8.1516 C   0  0  1  0  0  0  0  0  0  0  0  0
   14.1204   -6.8160   -6.6681 C   0  0  0  0  0  0  0  0  0  0  0  0
   15.5187   -7.3363   -8.6978 C   0  0  0  0  0  0  0  0  0  0  0  0
   16.0781   -6.9318   -9.9998 C   0  0  2  0  0  0  0  0  0  0  0  0
   17.2150   -7.8581  -10.3216 N   0  0  0  0  0  0  0  0  0  0  0  0
   16.5654   -5.5702  -10.1912 C   0  0  0  0  0  0  0  0  0  0  0  0
   17.8078   -5.3461   -9.9182 O   0  0  0  0  0  0  0  0  0  0  0  0
   15.8349   -4.4783  -10.6480 O   0  0  0  0  0  0  0  0  0  0  0  0
  2  3  1  0
  2  1  1  0
  3  5  1  0
  3  4  1  1
  5  6  2  0
  7  8  1  0
  8 10  1  0
  9  8  2  0
 11 10  1  6
 11 13  1  0
 12 11  1  0
 12  5  1  0
 13 20  1  0
 14 13  2  0
 16 17  1  1
 16 15  1  0
 18 16  1  0
 19 18  1  1
 20 19  1  0
 21 23  1  0
 21 19  1  0
 22 21  2  0
M  END
$$$$
