SNL.pdb
     RDKit          3D

 23 22  0  0  1  0  0  0  0  0999 V2000
   27.7602  -18.7729  -16.2237 O   0  0  0  0  0  0  0  0  0  0  0  0
   27.1084  -17.6655  -16.7641 C   0  0  0  0  0  0  0  0  0  0  0  0
   25.6482  -17.9513  -17.0298 C   0  0  2  0  0  0  0  0  0  0  0  0
   25.5607  -18.9147  -18.1071 N   0  0  0  0  0  0  0  0  0  0  0  0
   24.9184  -16.6891  -17.4062 C   0  0  0  0  0  0  0  0  0  0  0  0
   25.2104  -16.0723  -18.4531 O   0  0  0  0  0  0  0  0  0  0  0  0
   20.3596  -16.0601  -18.3481 N   0  0  0  0  0  0  0  0  0  0  0  0
   20.9400  -16.2892  -17.0942 C   0  0  0  0  0  0  0  0  0  0  0  0
   20.8698  -17.4590  -16.6072 O   0  0  0  0  0  0  0  0  0  0  0  0
   21.6332  -15.2439  -16.2993 C   0  0  0  0  0  0  0  0  0  0  0  0
   23.0735  -15.0312  -16.7434 C   0  0  2  0  0  0  0  0  0  0  0  0
   23.9043  -16.2057  -16.5731 N   0  0  0  0  0  0  0  0  0  0  0  0
   23.6810  -13.8679  -16.0576 C   0  0  0  0  0  0  0  0  0  0  0  0
   24.0236  -13.9437  -14.8241 O   0  0  0  0  0  0  0  0  0  0  0  0
   26.4457   -9.1976  -16.2938 C   0  0  0  0  0  0  0  0  0  0  0  0
   26.9266  -10.5917  -15.7625 C   0  0  1  0  0  0  0  0  0  0  0  0
   26.8021  -10.4244  -14.2446 C   0  0  0  0  0  0  0  0  0  0  0  0
   26.0336  -11.6387  -16.3134 C   0  0  0  0  0  0  0  0  0  0  0  0
   24.5956  -11.5520  -16.0028 C   0  0  2  0  0  0  0  0  0  0  0  0
   23.8954  -12.6524  -16.7464 N   0  0  0  0  0  0  0  0  0  0  0  0
   23.8658  -10.3182  -16.2731 C   0  0  0  0  0  0  0  0  0  0  0  0
   23.3152  -10.2030  -17.4359 O   0  0  0  0  0  0  0  0  0  0  0  0
   23.6882   -9.2457  -15.4055 O   0  0  0  0  0  0  0  0  0  0  0  0
  2  3  1  0
  2  1  1  0
  3  5  1  0
  3  4  1  6
  5  6  2  0
  7  8  1  0
  8 10  1  0
  9  8  2  0
 11 10  1  1
 11 13  1  0
 12 11  1  0
 12  5  1  0
 13 20  1  0
 14 13  2  0
 16 17  1  1
 16 15  1  0
 18 16  1  0
 19 18  1  6
 20 19  1  0
 21 23  1  0
 21 19  1  0
 22 21  2  0
M  END
$$$$
