SNL.pdb
     RDKit          3D

 23 22  0  0  1  0  0  0  0  0999 V2000
   15.0259   -8.7498   -9.6147 O   0  0  0  0  0  0  0  0  0  0  0  0
   15.9338   -8.9215  -10.6584 C   0  0  0  0  0  0  0  0  0  0  0  0
   15.2356   -9.2501  -11.9580 C   0  0  2  0  0  0  0  0  0  0  0  0
   14.6493  -10.5687  -11.8399 N   0  0  0  0  0  0  0  0  0  0  0  0
   16.2077   -9.2191  -13.1076 C   0  0  0  0  0  0  0  0  0  0  0  0
   16.8456  -10.2440  -13.4305 O   0  0  0  0  0  0  0  0  0  0  0  0
   16.0007   -7.7906  -18.2870 N   0  0  0  0  0  0  0  0  0  0  0  0
   15.7568   -7.6249  -16.9178 C   0  0  0  0  0  0  0  0  0  0  0  0
   14.7059   -8.1430  -16.4303 O   0  0  0  0  0  0  0  0  0  0  0  0
   16.6553   -6.8782  -16.0013 C   0  0  0  0  0  0  0  0  0  0  0  0
   17.2782   -7.7712  -14.9376 C   0  0  2  0  0  0  0  0  0  0  0  0
   16.3956   -8.0292  -13.8183 N   0  0  0  0  0  0  0  0  0  0  0  0
   18.5666   -7.2193  -14.4599 C   0  0  0  0  0  0  0  0  0  0  0  0
   18.5979   -6.3850  -13.4864 O   0  0  0  0  0  0  0  0  0  0  0  0
   23.4425   -9.9356  -14.2229 C   0  0  0  0  0  0  0  0  0  0  0  0
   22.1526   -9.1072  -13.8962 C   0  0  1  0  0  0  0  0  0  0  0  0
   22.3207   -8.8149  -12.4017 C   0  0  0  0  0  0  0  0  0  0  0  0
   22.1517   -7.8865  -14.7372 C   0  0  0  0  0  0  0  0  0  0  0  0
   21.0384   -6.9353  -14.5709 C   0  0  2  0  0  0  0  0  0  0  0  0
   19.7859   -7.5995  -15.0651 N   0  0  0  0  0  0  0  0  0  0  0  0
   21.1046   -5.6204  -15.1992 C   0  0  0  0  0  0  0  0  0  0  0  0
   20.4775   -5.4709  -16.3184 O   0  0  0  0  0  0  0  0  0  0  0  0
   21.7675   -4.4968  -14.7169 O   0  0  0  0  0  0  0  0  0  0  0  0
  2  3  1  0
  2  1  1  0
  3  5  1  0
  3  4  1  1
  5  6  2  0
  7  8  1  0
  8 10  1  0
  9  8  2  0
 11 10  1  6
 11 13  1  0
 12 11  1  0
 12  5  1  0
 13 20  1  0
 14 13  2  0
 16 17  1  1
 16 15  1  0
 18 16  1  0
 19 18  1  6
 20 19  1  0
 21 23  1  0
 21 19  1  0
 22 21  2  0
M  END
$$$$
