SNL.pdb
     RDKit          3D

 23 22  0  0  1  0  0  0  0  0999 V2000
   28.3919  -18.2190  -15.3758 O   0  0  0  0  0  0  0  0  0  0  0  0
   27.2578  -19.0296  -15.3754 C   0  0  0  0  0  0  0  0  0  0  0  0
   27.6036  -20.4743  -15.0968 C   0  0  2  0  0  0  0  0  0  0  0  0
   28.0141  -21.0928  -16.3398 N   0  0  0  0  0  0  0  0  0  0  0  0
   26.4179  -21.2048  -14.5241 C   0  0  0  0  0  0  0  0  0  0  0  0
   25.7040  -21.9290  -15.2505 O   0  0  0  0  0  0  0  0  0  0  0  0
   25.2739  -20.0145   -9.2823 N   0  0  0  0  0  0  0  0  0  0  0  0
   25.9104  -20.7943  -10.2563 C   0  0  0  0  0  0  0  0  0  0  0  0
   27.1246  -20.5418  -10.5252 O   0  0  0  0  0  0  0  0  0  0  0  0
   25.2486  -21.9000  -10.9941 C   0  0  0  0  0  0  0  0  0  0  0  0
   24.9522  -21.5406  -12.4431 C   0  0  2  0  0  0  0  0  0  0  0  0
   26.1161  -21.0688  -13.1652 N   0  0  0  0  0  0  0  0  0  0  0  0
   23.8531  -20.5529  -12.5378 C   0  0  0  0  0  0  0  0  0  0  0  0
   24.1074  -19.2971  -12.5905 O   0  0  0  0  0  0  0  0  0  0  0  0
   20.6470  -20.4536  -16.7708 C   0  0  0  0  0  0  0  0  0  0  0  0
   21.4232  -19.4332  -15.8691 C   0  0  1  0  0  0  0  0  0  0  0  0
   20.2934  -18.5565  -15.3193 C   0  0  0  0  0  0  0  0  0  0  0  0
   22.1454  -20.1887  -14.8179 C   0  0  0  0  0  0  0  0  0  0  0  0
   21.5664  -20.2098  -13.4629 C   0  0  2  0  0  0  0  0  0  0  0  0
   22.5038  -20.9724  -12.5721 N   0  0  0  0  0  0  0  0  0  0  0  0
   20.2308  -20.7570  -13.2507 C   0  0  0  0  0  0  0  0  0  0  0  0
   19.3543  -19.9768  -12.7108 O   0  0  0  0  0  0  0  0  0  0  0  0
   19.7905  -22.0354  -13.5769 O   0  0  0  0  0  0  0  0  0  0  0  0
  2  3  1  0
  2  1  1  0
  3  5  1  0
  3  4  1  6
  5  6  2  0
  7  8  1  0
  8 10  1  0
  9  8  2  0
 11 10  1  1
 11 13  1  0
 12 11  1  0
 12  5  1  0
 13 20  1  0
 14 13  2  0
 16 17  1  1
 16 15  1  0
 18 16  1  0
 19 18  1  6
 20 19  1  0
 21 23  1  0
 21 19  1  0
 22 21  2  0
M  END
$$$$
