LDF.pdb
     RDKit          3D

 28 28  0  0  1  0  0  0  0  0999 V2000
    8.3848  -13.5519   19.8191 C   0  0  0  0  0  0  0  0  0  0  0  0
    7.1572  -13.6821   20.7076 C   0  0  2  0  0  0  0  0  0  0  0  0
    6.6930  -12.3208   21.1779 C   0  0  0  0  0  0  0  0  0  0  0  0
    7.5818  -14.4648   21.9272 C   0  0  0  0  0  0  0  0  0  0  0  0
    8.0232  -15.8722   21.5588 C   0  0  2  0  0  0  0  0  0  0  0  0
    6.8852  -16.7265   21.2500 N   0  0  0  0  0  0  0  0  0  0  0  0
    8.7196  -16.4324   22.7272 C   0  0  0  0  0  0  0  0  0  0  0  0
    8.1706  -17.3625   23.3609 O   0  0  0  0  0  0  0  0  0  0  0  0
    9.9997  -15.9684   23.1817 N   0  0  0  0  0  0  0  0  0  0  0  0
   10.9524  -16.8248   23.8538 C   0  0  1  0  0  0  0  0  0  0  0  0
   12.3425  -16.7440   23.2900 C   0  0  0  0  0  0  0  0  0  0  0  0
   13.1972  -17.7239   23.9951 C   0  0  0  0  0  0  0  0  0  0  0  0
   12.8722  -18.9010   24.2794 O   0  0  0  0  0  0  0  0  0  0  0  0
   10.8851  -16.5973   25.2940 C   0  0  0  0  0  0  0  0  0  0  0  0
   11.5520  -17.2979   26.0747 O   0  0  0  0  0  0  0  0  0  0  0  0
   14.4822  -17.3280   24.3888 O   0  0  0  0  0  0  0  0  0  0  0  0
   10.0569  -15.5722   25.8280 N   0  0  0  0  0  0  0  0  0  0  0  0
    9.8369  -15.3876   27.2319 C   0  0  1  0  0  0  0  0  0  0  0  0
    8.3432  -15.0802   27.4045 C   0  0  0  0  0  0  0  0  0  0  0  0
    7.9781  -13.8441   26.6681 C   0  0  0  0  0  0  0  0  0  0  0  0
    7.1160  -13.8519   25.5950 C   0  0  0  0  0  0  0  0  0  0  0  0
    6.7901  -12.6837   24.9227 C   0  0  0  0  0  0  0  0  0  0  0  0
    7.3286  -11.4842   25.3211 C   0  0  0  0  0  0  0  0  0  0  0  0
    8.1926  -11.4518   26.3909 C   0  0  0  0  0  0  0  0  0  0  0  0
    8.5096  -12.6332   27.0550 C   0  0  0  0  0  0  0  0  0  0  0  0
   10.1982  -16.5853   28.0165 C   0  0  0  0  0  0  0  0  0  0  0  0
   10.1286  -16.5581   29.2591 O   0  0  0  0  0  0  0  0  0  0  0  0
   10.6148  -17.7406   27.3765 O   0  0  0  0  0  0  0  0  0  0  0  0
  2  1  1  6
  3  2  1  0
  4  2  1  0
  5  4  1  0
  5  6  1  1
  7  8  2  0
  7  5  1  0
  9  7  1  0
 10  9  1  0
 10 11  1  6
 12 16  1  0
 12 11  1  0
 13 12  2  0
 14 15  2  0
 14 10  1  0
 17 14  1  0
 18 17  1  0
 18 19  1  6
 20 21  2  0
 20 19  1  0
 22 21  1  0
 23 22  2  0
 24 25  2  0
 24 23  1  0
 25 20  1  0
 26 18  1  0
 27 26  2  0
 28 26  1  0
M  END
$$$$
