LDF.pdb
     RDKit          3D

 28 28  0  0  1  0  0  0  0  0999 V2000
    8.7875  -13.4871   19.4238 C   0  0  0  0  0  0  0  0  0  0  0  0
    7.5504  -13.2959   20.2877 C   0  0  2  0  0  0  0  0  0  0  0  0
    7.4440  -11.8609   20.7559 C   0  0  0  0  0  0  0  0  0  0  0  0
    7.7339  -14.1616   21.5113 C   0  0  0  0  0  0  0  0  0  0  0  0
    7.8668  -15.6296   21.1388 C   0  0  2  0  0  0  0  0  0  0  0  0
    6.5647  -16.2573   20.9633 N   0  0  0  0  0  0  0  0  0  0  0  0
    8.5593  -16.3019   22.2490 C   0  0  0  0  0  0  0  0  0  0  0  0
    7.8711  -16.7959   23.1711 O   0  0  0  0  0  0  0  0  0  0  0  0
    9.9872  -16.4226   22.3323 N   0  0  0  0  0  0  0  0  0  0  0  0
   10.6584  -17.0570   23.4458 C   0  0  1  0  0  0  0  0  0  0  0  0
   12.0801  -17.4453   23.1546 C   0  0  0  0  0  0  0  0  0  0  0  0
   12.1113  -18.2166   21.8929 C   0  0  0  0  0  0  0  0  0  0  0  0
   11.5620  -19.3281   21.7059 O   0  0  0  0  0  0  0  0  0  0  0  0
   10.5036  -16.2367   24.6432 C   0  0  0  0  0  0  0  0  0  0  0  0
   11.0408  -15.1180   24.7147 O   0  0  0  0  0  0  0  0  0  0  0  0
   12.8065  -17.6821   20.8003 O   0  0  0  0  0  0  0  0  0  0  0  0
    9.7372  -16.7023   25.7466 N   0  0  0  0  0  0  0  0  0  0  0  0
    9.7420  -16.0701   27.0327 C   0  0  1  0  0  0  0  0  0  0  0  0
    8.2784  -15.7577   27.3727 C   0  0  0  0  0  0  0  0  0  0  0  0
    7.8493  -14.4979   26.7153 C   0  0  0  0  0  0  0  0  0  0  0  0
    8.4578  -13.2893   26.9679 C   0  0  0  0  0  0  0  0  0  0  0  0
    8.0388  -12.1254   26.3413 C   0  0  0  0  0  0  0  0  0  0  0  0
    6.9965  -12.1592   25.4467 C   0  0  0  0  0  0  0  0  0  0  0  0
    6.3730  -13.3557   25.1784 C   0  0  0  0  0  0  0  0  0  0  0  0
    6.8056  -14.5148   25.8158 C   0  0  0  0  0  0  0  0  0  0  0  0
   10.3282  -16.9334   28.0775 C   0  0  0  0  0  0  0  0  0  0  0  0
   10.4990  -16.4881   29.2275 O   0  0  0  0  0  0  0  0  0  0  0  0
   10.6897  -18.2378   27.7848 O   0  0  0  0  0  0  0  0  0  0  0  0
  2  1  1  6
  3  2  1  0
  4  2  1  0
  5  4  1  0
  5  6  1  1
  7  8  2  0
  7  5  1  0
  9  7  1  0
 10  9  1  0
 10 11  1  6
 12 16  1  0
 12 11  1  0
 13 12  2  0
 14 15  2  0
 14 10  1  0
 17 14  1  0
 18 17  1  0
 18 19  1  1
 20 21  2  0
 20 19  1  0
 22 21  1  0
 23 22  2  0
 24 25  2  0
 24 23  1  0
 25 20  1  0
 26 18  1  0
 27 26  2  0
 28 26  1  0
M  END
$$$$
