LDF.pdb
     RDKit          3D

 28 28  0  0  1  0  0  0  0  0999 V2000
    8.9791  -13.2362   18.5535 C   0  0  0  0  0  0  0  0  0  0  0  0
    7.7123  -13.4457   19.3689 C   0  0  2  0  0  0  0  0  0  0  0  0
    7.3310  -12.1751   20.0969 C   0  0  0  0  0  0  0  0  0  0  0  0
    8.0320  -14.4897   20.4121 C   0  0  0  0  0  0  0  0  0  0  0  0
    8.4080  -15.8171   19.7732 C   0  0  2  0  0  0  0  0  0  0  0  0
    7.2289  -16.6037   19.4399 N   0  0  0  0  0  0  0  0  0  0  0  0
    9.2022  -16.5675   20.7582 C   0  0  0  0  0  0  0  0  0  0  0  0
    8.6187  -17.0437   21.7586 O   0  0  0  0  0  0  0  0  0  0  0  0
   10.6158  -16.7839   20.6338 N   0  0  0  0  0  0  0  0  0  0  0  0
   11.3959  -17.4758   21.6365 C   0  0  1  0  0  0  0  0  0  0  0  0
   12.7212  -17.9747   21.1351 C   0  0  0  0  0  0  0  0  0  0  0  0
   12.4814  -18.9198   20.0229 C   0  0  0  0  0  0  0  0  0  0  0  0
   11.5948  -19.8061   19.9996 O   0  0  0  0  0  0  0  0  0  0  0  0
   11.4910  -16.6522   22.8378 C   0  0  0  0  0  0  0  0  0  0  0  0
   12.0348  -15.5353   22.7950 O   0  0  0  0  0  0  0  0  0  0  0  0
   13.3001  -18.8383   18.8889 O   0  0  0  0  0  0  0  0  0  0  0  0
   10.9642  -17.1125   24.0758 N   0  0  0  0  0  0  0  0  0  0  0  0
   11.1592  -16.4272   25.3192 C   0  0  1  0  0  0  0  0  0  0  0  0
    9.7617  -16.1054   25.8657 C   0  0  0  0  0  0  0  0  0  0  0  0
    9.8620  -15.2967   27.1064 C   0  0  0  0  0  0  0  0  0  0  0  0
    9.6634  -13.9346   27.1175 C   0  0  0  0  0  0  0  0  0  0  0  0
    9.7626  -13.2003   28.2895 C   0  0  0  0  0  0  0  0  0  0  0  0
   10.0646  -13.8274   29.4741 C   0  0  0  0  0  0  0  0  0  0  0  0
   10.2673  -15.1879   29.4876 C   0  0  0  0  0  0  0  0  0  0  0  0
   10.1640  -15.9104   28.3026 C   0  0  0  0  0  0  0  0  0  0  0  0
   11.9059  -17.2444   26.2965 C   0  0  0  0  0  0  0  0  0  0  0  0
   12.8014  -16.7231   26.9865 O   0  0  0  0  0  0  0  0  0  0  0  0
   11.6151  -18.5896   26.4500 O   0  0  0  0  0  0  0  0  0  0  0  0
  2  1  1  6
  3  2  1  0
  4  2  1  0
  5  4  1  0
  5  6  1  1
  7  8  2  0
  7  5  1  0
  9  7  1  0
 10  9  1  0
 10 11  1  6
 12 16  1  0
 12 11  1  0
 13 12  2  0
 14 15  2  0
 14 10  1  0
 17 14  1  0
 18 17  1  0
 18 19  1  1
 20 21  2  0
 20 19  1  0
 22 21  1  0
 23 22  2  0
 24 25  2  0
 24 23  1  0
 25 20  1  0
 26 18  1  0
 27 26  2  0
 28 26  1  0
M  END
$$$$
