LDF.pdb
     RDKit          3D

 28 28  0  0  1  0  0  0  0  0999 V2000
    8.5846  -13.0772   18.9906 C   0  0  0  0  0  0  0  0  0  0  0  0
    7.4000  -13.3966   19.8896 C   0  0  2  0  0  0  0  0  0  0  0  0
    6.8566  -12.1345   20.5234 C   0  0  0  0  0  0  0  0  0  0  0  0
    7.9200  -14.2767   21.0011 C   0  0  0  0  0  0  0  0  0  0  0  0
    8.4740  -15.5854   20.4610 C   0  0  2  0  0  0  0  0  0  0  0  0
    7.4294  -16.4000   19.8566 N   0  0  0  0  0  0  0  0  0  0  0  0
    9.0377  -16.3255   21.6005 C   0  0  0  0  0  0  0  0  0  0  0  0
    8.2613  -16.9889   22.3252 O   0  0  0  0  0  0  0  0  0  0  0  0
   10.4354  -16.3281   21.9276 N   0  0  0  0  0  0  0  0  0  0  0  0
   10.9757  -17.0476   23.0604 C   0  0  1  0  0  0  0  0  0  0  0  0
   12.4514  -17.3111   22.9626 C   0  0  0  0  0  0  0  0  0  0  0  0
   12.7175  -18.0570   21.7134 C   0  0  0  0  0  0  0  0  0  0  0  0
   12.0570  -19.0381   21.2970 O   0  0  0  0  0  0  0  0  0  0  0  0
   10.5747  -16.3857   24.2980 C   0  0  0  0  0  0  0  0  0  0  0  0
   11.1299  -15.3337   24.6587 O   0  0  0  0  0  0  0  0  0  0  0  0
   13.7921  -17.6531   20.9102 O   0  0  0  0  0  0  0  0  0  0  0  0
    9.5439  -16.9318   25.1109 N   0  0  0  0  0  0  0  0  0  0  0  0
    9.2983  -16.5138   26.4595 C   0  0  1  0  0  0  0  0  0  0  0  0
    7.8109  -16.1447   26.5397 C   0  0  0  0  0  0  0  0  0  0  0  0
    7.6293  -14.6798   26.3823 C   0  0  0  0  0  0  0  0  0  0  0  0
    6.5290  -14.1354   25.7596 C   0  0  0  0  0  0  0  0  0  0  0  0
    6.3816  -12.7632   25.6245 C   0  0  0  0  0  0  0  0  0  0  0  0
    7.3431  -11.9135   26.1157 C   0  0  0  0  0  0  0  0  0  0  0  0
    8.4514  -12.4347   26.7418 C   0  0  0  0  0  0  0  0  0  0  0  0
    8.5843  -13.8142   26.8694 C   0  0  0  0  0  0  0  0  0  0  0  0
    9.6070  -17.5752   27.4385 C   0  0  0  0  0  0  0  0  0  0  0  0
    9.6117  -17.3151   28.6559 O   0  0  0  0  0  0  0  0  0  0  0  0
    9.8917  -18.8607   27.0093 O   0  0  0  0  0  0  0  0  0  0  0  0
  2  1  1  6
  3  2  1  0
  4  2  1  0
  5  4  1  0
  5  6  1  1
  7  8  2  0
  7  5  1  0
  9  7  1  0
 10  9  1  0
 10 11  1  6
 12 16  1  0
 12 11  1  0
 13 12  2  0
 14 15  2  0
 14 10  1  0
 17 14  1  0
 18 17  1  0
 18 19  1  6
 20 21  2  0
 20 19  1  0
 22 21  1  0
 23 22  2  0
 24 25  2  0
 24 23  1  0
 25 20  1  0
 26 18  1  0
 27 26  2  0
 28 26  1  0
M  END
$$$$
