LDF.pdb
     RDKit          3D

 28 28  0  0  1  0  0  0  0  0999 V2000
    8.6034  -13.3860   18.7619 C   0  0  0  0  0  0  0  0  0  0  0  0
    7.5339  -13.3234   19.8416 C   0  0  2  0  0  0  0  0  0  0  0  0
    7.3978  -11.9141   20.3756 C   0  0  0  0  0  0  0  0  0  0  0  0
    8.0088  -14.1970   20.9780 C   0  0  0  0  0  0  0  0  0  0  0  0
    8.1965  -15.6379   20.5306 C   0  0  2  0  0  0  0  0  0  0  0  0
    6.9307  -16.2502   20.1526 N   0  0  0  0  0  0  0  0  0  0  0  0
    8.7484  -16.3825   21.6730 C   0  0  0  0  0  0  0  0  0  0  0  0
    7.9555  -16.9775   22.4379 O   0  0  0  0  0  0  0  0  0  0  0  0
   10.1527  -16.4638   21.9591 N   0  0  0  0  0  0  0  0  0  0  0  0
   10.6940  -17.3042   23.0049 C   0  0  1  0  0  0  0  0  0  0  0  0
   12.0772  -17.8145   22.7168 C   0  0  0  0  0  0  0  0  0  0  0  0
   12.4545  -18.7811   23.7709 C   0  0  0  0  0  0  0  0  0  0  0  0
   13.4629  -18.6937   24.5111 O   0  0  0  0  0  0  0  0  0  0  0  0
   10.5708  -16.6262   24.2915 C   0  0  0  0  0  0  0  0  0  0  0  0
   11.3139  -15.6708   24.5744 O   0  0  0  0  0  0  0  0  0  0  0  0
   11.6327  -19.8964   23.9797 O   0  0  0  0  0  0  0  0  0  0  0  0
    9.6002  -17.0460   25.2421 N   0  0  0  0  0  0  0  0  0  0  0  0
    9.5802  -16.5927   26.6014 C   0  0  1  0  0  0  0  0  0  0  0  0
    8.1289  -16.2014   26.9113 C   0  0  0  0  0  0  0  0  0  0  0  0
    7.8730  -14.7946   26.5126 C   0  0  0  0  0  0  0  0  0  0  0  0
    8.6271  -13.7448   26.9859 C   0  0  0  0  0  0  0  0  0  0  0  0
    8.3687  -12.4385   26.5989 C   0  0  0  0  0  0  0  0  0  0  0  0
    7.3431  -12.1667   25.7259 C   0  0  0  0  0  0  0  0  0  0  0  0
    6.5760  -13.1998   25.2398 C   0  0  0  0  0  0  0  0  0  0  0  0
    6.8484  -14.5053   25.6380 C   0  0  0  0  0  0  0  0  0  0  0  0
   10.0330  -17.6345   27.5447 C   0  0  0  0  0  0  0  0  0  0  0  0
   10.2625  -18.7871   27.1339 O   0  0  0  0  0  0  0  0  0  0  0  0
   10.2041  -17.3362   28.8862 O   0  0  0  0  0  0  0  0  0  0  0  0
  2  1  1  6
  3  2  1  0
  4  2  1  0
  5  4  1  0
  5  6  1  1
  7  8  2  0
  7  5  1  0
  9  7  1  0
 10  9  1  0
 10 11  1  6
 12 16  1  0
 12 11  1  0
 13 12  2  0
 14 15  2  0
 14 10  1  0
 17 14  1  0
 18 17  1  0
 18 19  1  1
 20 21  2  0
 20 19  1  0
 22 21  1  0
 23 22  2  0
 24 25  2  0
 24 23  1  0
 25 20  1  0
 26 18  1  0
 27 26  2  0
 28 26  1  0
M  END
$$$$
