LDF.pdb
     RDKit          3D

 28 28  0  0  1  0  0  0  0  0999 V2000
    8.9593  -13.6819   18.6295 C   0  0  0  0  0  0  0  0  0  0  0  0
    7.8084  -13.3774   19.5762 C   0  0  2  0  0  0  0  0  0  0  0  0
    7.8314  -11.9227   19.9924 C   0  0  0  0  0  0  0  0  0  0  0  0
    8.0314  -14.2094   20.8166 C   0  0  0  0  0  0  0  0  0  0  0  0
    7.9665  -15.6965   20.5076 C   0  0  2  0  0  0  0  0  0  0  0  0
    6.6261  -16.1026   20.1095 N   0  0  0  0  0  0  0  0  0  0  0  0
    8.3213  -16.4157   21.7409 C   0  0  0  0  0  0  0  0  0  0  0  0
    7.4743  -16.4781   22.6610 O   0  0  0  0  0  0  0  0  0  0  0  0
    9.5912  -17.0523   21.9470 N   0  0  0  0  0  0  0  0  0  0  0  0
    9.9332  -17.7456   23.1698 C   0  0  1  0  0  0  0  0  0  0  0  0
   10.7230  -19.0047   22.9515 C   0  0  0  0  0  0  0  0  0  0  0  0
   10.9599  -19.6483   24.2620 C   0  0  0  0  0  0  0  0  0  0  0  0
   10.1390  -20.3690   24.8776 O   0  0  0  0  0  0  0  0  0  0  0  0
   10.5549  -16.8130   24.1046 C   0  0  0  0  0  0  0  0  0  0  0  0
   11.6470  -16.2841   23.8349 O   0  0  0  0  0  0  0  0  0  0  0  0
   12.1973  -19.4515   24.8889 O   0  0  0  0  0  0  0  0  0  0  0  0
    9.9233  -16.4937   25.3379 N   0  0  0  0  0  0  0  0  0  0  0  0
   10.5804  -15.7948   26.4025 C   0  0  1  0  0  0  0  0  0  0  0  0
   10.5345  -14.3039   26.0416 C   0  0  0  0  0  0  0  0  0  0  0  0
    9.1564  -13.7739   26.1946 C   0  0  0  0  0  0  0  0  0  0  0  0
    8.1213  -14.1616   25.3742 C   0  0  0  0  0  0  0  0  0  0  0  0
    6.8419  -13.6522   25.5368 C   0  0  0  0  0  0  0  0  0  0  0  0
    6.5825  -12.7407   26.5316 C   0  0  0  0  0  0  0  0  0  0  0  0
    7.6012  -12.3384   27.3637 C   0  0  0  0  0  0  0  0  0  0  0  0
    8.8797  -12.8592   27.1873 C   0  0  0  0  0  0  0  0  0  0  0  0
    9.9237  -16.0175   27.7062 C   0  0  0  0  0  0  0  0  0  0  0  0
   10.3549  -15.4459   28.7246 O   0  0  0  0  0  0  0  0  0  0  0  0
    8.8288  -16.8600   27.8025 O   0  0  0  0  0  0  0  0  0  0  0  0
  2  1  1  6
  3  2  1  0
  4  2  1  0
  5  4  1  0
  5  6  1  1
  7  8  2  0
  7  5  1  0
  9  7  1  0
 10  9  1  0
 10 11  1  6
 12 16  1  0
 12 11  1  0
 13 12  2  0
 14 15  2  0
 14 10  1  0
 17 14  1  0
 18 17  1  0
 18 19  1  6
 20 21  2  0
 20 19  1  0
 22 21  1  0
 23 22  2  0
 24 25  2  0
 24 23  1  0
 25 20  1  0
 26 18  1  0
 27 26  2  0
 28 26  1  0
M  END
$$$$
