LDF.pdb
     RDKit          3D

 28 28  0  0  1  0  0  0  0  0999 V2000
    9.2842  -12.8198   18.8163 C   0  0  0  0  0  0  0  0  0  0  0  0
    7.9701  -13.5763   18.9352 C   0  0  2  0  0  0  0  0  0  0  0  0
    6.8012  -12.6154   18.9460 C   0  0  0  0  0  0  0  0  0  0  0  0
    7.9916  -14.2820   20.2701 C   0  0  0  0  0  0  0  0  0  0  0  0
    9.2875  -15.0512   20.4714 C   0  0  2  0  0  0  0  0  0  0  0  0
    9.5051  -16.0212   19.4075 N   0  0  0  0  0  0  0  0  0  0  0  0
    9.1714  -15.7786   21.7448 C   0  0  0  0  0  0  0  0  0  0  0  0
    8.4837  -15.2734   22.6612 O   0  0  0  0  0  0  0  0  0  0  0  0
    9.8065  -17.0415   21.9942 N   0  0  0  0  0  0  0  0  0  0  0  0
    9.7380  -17.7166   23.2719 C   0  0  1  0  0  0  0  0  0  0  0  0
   10.2024  -19.1446   23.2281 C   0  0  0  0  0  0  0  0  0  0  0  0
    9.6697  -19.7784   22.0023 C   0  0  0  0  0  0  0  0  0  0  0  0
   10.2965  -19.9212   20.9258 O   0  0  0  0  0  0  0  0  0  0  0  0
   10.4049  -16.9096   24.2889 C   0  0  0  0  0  0  0  0  0  0  0  0
   11.4885  -16.3531   24.0415 O   0  0  0  0  0  0  0  0  0  0  0  0
    8.3573  -20.2684   22.0200 O   0  0  0  0  0  0  0  0  0  0  0  0
    9.8276  -16.7464   25.5781 N   0  0  0  0  0  0  0  0  0  0  0  0
   10.4725  -16.0435   26.6475 C   0  0  1  0  0  0  0  0  0  0  0  0
   10.4795  -14.5599   26.2551 C   0  0  0  0  0  0  0  0  0  0  0  0
    9.1283  -13.9699   26.4279 C   0  0  0  0  0  0  0  0  0  0  0  0
    8.0565  -14.3396   25.6474 C   0  0  0  0  0  0  0  0  0  0  0  0
    6.8033  -13.7739   25.8277 C   0  0  0  0  0  0  0  0  0  0  0  0
    6.6080  -12.8232   26.8003 C   0  0  0  0  0  0  0  0  0  0  0  0
    7.6645  -12.4379   27.5924 C   0  0  0  0  0  0  0  0  0  0  0  0
    8.9159  -13.0153   27.3987 C   0  0  0  0  0  0  0  0  0  0  0  0
    9.7718  -16.2203   27.9352 C   0  0  0  0  0  0  0  0  0  0  0  0
   10.2092  -15.6678   28.9614 O   0  0  0  0  0  0  0  0  0  0  0  0
    8.6286  -16.9987   28.0078 O   0  0  0  0  0  0  0  0  0  0  0  0
  2  1  1  1
  3  2  1  0
  4  2  1  0
  5  4  1  0
  5  6  1  6
  7  8  2  0
  7  5  1  0
  9  7  1  0
 10  9  1  0
 10 11  1  6
 12 16  1  0
 12 11  1  0
 13 12  2  0
 14 15  2  0
 14 10  1  0
 17 14  1  0
 18 17  1  0
 18 19  1  6
 20 21  2  0
 20 19  1  0
 22 21  1  0
 23 22  2  0
 24 25  2  0
 24 23  1  0
 25 20  1  0
 26 18  1  0
 27 26  2  0
 28 26  1  0
M  END
$$$$
