LDF.pdb
     RDKit          3D

 28 28  0  0  1  0  0  0  0  0999 V2000
    8.7438  -13.3447   19.1834 C   0  0  0  0  0  0  0  0  0  0  0  0
    7.5499  -13.3650   20.1256 C   0  0  2  0  0  0  0  0  0  0  0  0
    7.2615  -11.9752   20.6501 C   0  0  0  0  0  0  0  0  0  0  0  0
    7.9384  -14.2250   21.3045 C   0  0  0  0  0  0  0  0  0  0  0  0
    8.2074  -15.6601   20.8809 C   0  0  2  0  0  0  0  0  0  0  0  0
    6.9932  -16.3192   20.4212 N   0  0  0  0  0  0  0  0  0  0  0  0
    8.7056  -16.3794   22.0636 C   0  0  0  0  0  0  0  0  0  0  0  0
    7.8775  -16.9552   22.8056 O   0  0  0  0  0  0  0  0  0  0  0  0
   10.0955  -16.4569   22.4140 N   0  0  0  0  0  0  0  0  0  0  0  0
   10.5790  -17.2171   23.5458 C   0  0  1  0  0  0  0  0  0  0  0  0
   11.8496  -17.9702   23.2713 C   0  0  0  0  0  0  0  0  0  0  0  0
   12.1524  -18.8290   24.4369 C   0  0  0  0  0  0  0  0  0  0  0  0
   11.3475  -19.6155   24.9898 O   0  0  0  0  0  0  0  0  0  0  0  0
   10.6455  -16.3559   24.7224 C   0  0  0  0  0  0  0  0  0  0  0  0
   11.4056  -15.3725   24.7416 O   0  0  0  0  0  0  0  0  0  0  0  0
   13.4395  -18.7776   24.9880 O   0  0  0  0  0  0  0  0  0  0  0  0
    9.8434  -16.6263   25.8648 N   0  0  0  0  0  0  0  0  0  0  0  0
    9.9851  -15.9315   27.1101 C   0  0  1  0  0  0  0  0  0  0  0  0
    8.5731  -15.5109   27.5401 C   0  0  0  0  0  0  0  0  0  0  0  0
    8.1517  -14.2862   26.8149 C   0  0  0  0  0  0  0  0  0  0  0  0
    8.7963  -13.0795   26.9678 C   0  0  0  0  0  0  0  0  0  0  0  0
    8.3839  -11.9487   26.2792 C   0  0  0  0  0  0  0  0  0  0  0  0
    7.3119  -12.0143   25.4224 C   0  0  0  0  0  0  0  0  0  0  0  0
    6.6522  -13.2094   25.2535 C   0  0  0  0  0  0  0  0  0  0  0  0
    7.0786  -14.3352   25.9520 C   0  0  0  0  0  0  0  0  0  0  0  0
   10.5987  -16.7758   28.1546 C   0  0  0  0  0  0  0  0  0  0  0  0
   10.8041  -17.9839   27.9354 O   0  0  0  0  0  0  0  0  0  0  0  0
   10.9475  -16.2304   29.3788 O   0  0  0  0  0  0  0  0  0  0  0  0
  2  1  1  6
  3  2  1  0
  4  2  1  0
  5  4  1  0
  5  6  1  1
  7  8  2  0
  7  5  1  0
  9  7  1  0
 10  9  1  0
 10 11  1  6
 12 16  1  0
 12 11  1  0
 13 12  2  0
 14 15  2  0
 14 10  1  0
 17 14  1  0
 18 17  1  0
 18 19  1  1
 20 21  2  0
 20 19  1  0
 22 21  1  0
 23 22  2  0
 24 25  2  0
 24 23  1  0
 25 20  1  0
 26 18  1  0
 27 26  2  0
 28 26  1  0
M  END
$$$$
