LDF.pdb
     RDKit          3D

 28 28  0  0  1  0  0  0  0  0999 V2000
    8.5607  -12.5947   19.4532 C   0  0  0  0  0  0  0  0  0  0  0  0
    7.4966  -13.6197   19.8143 C   0  0  2  0  0  0  0  0  0  0  0  0
    6.1413  -12.9587   19.9407 C   0  0  0  0  0  0  0  0  0  0  0  0
    7.8631  -14.1700   21.1719 C   0  0  0  0  0  0  0  0  0  0  0  0
    9.3098  -14.6360   21.2109 C   0  0  2  0  0  0  0  0  0  0  0  0
    9.6589  -15.3981   20.0204 N   0  0  0  0  0  0  0  0  0  0  0  0
    9.4554  -15.5140   22.3822 C   0  0  0  0  0  0  0  0  0  0  0  0
    8.5771  -15.4717   23.2738 O   0  0  0  0  0  0  0  0  0  0  0  0
   10.5545  -16.4202   22.5587 N   0  0  0  0  0  0  0  0  0  0  0  0
   10.6730  -17.2981   23.7024 C   0  0  1  0  0  0  0  0  0  0  0  0
   11.8156  -18.2685   23.6053 C   0  0  0  0  0  0  0  0  0  0  0  0
   11.9486  -18.7043   22.1981 C   0  0  0  0  0  0  0  0  0  0  0  0
   11.1328  -19.4293   21.5808 O   0  0  0  0  0  0  0  0  0  0  0  0
   10.6723  -16.5075   24.9293 C   0  0  0  0  0  0  0  0  0  0  0  0
   11.4868  -15.5813   25.0829 O   0  0  0  0  0  0  0  0  0  0  0  0
   13.0713  -18.2852   21.4723 O   0  0  0  0  0  0  0  0  0  0  0  0
    9.7414  -16.7826   25.9684 N   0  0  0  0  0  0  0  0  0  0  0  0
    9.8184  -16.1934   27.2724 C   0  0  1  0  0  0  0  0  0  0  0  0
    8.3857  -15.8063   27.6634 C   0  0  0  0  0  0  0  0  0  0  0  0
    8.0026  -14.5205   27.0282 C   0  0  0  0  0  0  0  0  0  0  0  0
    8.6770  -13.3460   27.2746 C   0  0  0  0  0  0  0  0  0  0  0  0
    8.3002  -12.1568   26.6691 C   0  0  0  0  0  0  0  0  0  0  0  0
    7.2343  -12.1303   25.8025 C   0  0  0  0  0  0  0  0  0  0  0  0
    6.5452  -13.2916   25.5410 C   0  0  0  0  0  0  0  0  0  0  0  0
    6.9361  -14.4770   26.1568 C   0  0  0  0  0  0  0  0  0  0  0  0
   10.3796  -17.1227   28.2733 C   0  0  0  0  0  0  0  0  0  0  0  0
   10.5810  -16.7331   29.4384 O   0  0  0  0  0  0  0  0  0  0  0  0
   10.6836  -18.4274   27.9226 O   0  0  0  0  0  0  0  0  0  0  0  0
  2  1  1  1
  3  2  1  0
  4  2  1  0
  5  4  1  0
  5  6  1  6
  7  8  2  0
  7  5  1  0
  9  7  1  0
 10  9  1  0
 10 11  1  6
 12 16  1  0
 12 11  1  0
 13 12  2  0
 14 15  2  0
 14 10  1  0
 17 14  1  0
 18 17  1  0
 18 19  1  1
 20 21  2  0
 20 19  1  0
 22 21  1  0
 23 22  2  0
 24 25  2  0
 24 23  1  0
 25 20  1  0
 26 18  1  0
 27 26  2  0
 28 26  1  0
M  END
$$$$
