LDF.pdb
     RDKit          3D

 28 28  0  0  1  0  0  0  0  0999 V2000
    8.2433  -13.3780   18.6829 C   0  0  0  0  0  0  0  0  0  0  0  0
    7.2548  -13.3383   19.8382 C   0  0  2  0  0  0  0  0  0  0  0  0
    7.0566  -11.9181   20.3213 C   0  0  0  0  0  0  0  0  0  0  0  0
    7.8745  -14.1221   20.9704 C   0  0  0  0  0  0  0  0  0  0  0  0
    8.0190  -15.5931   20.6145 C   0  0  2  0  0  0  0  0  0  0  0  0
    6.7241  -16.2539   20.5332 N   0  0  0  0  0  0  0  0  0  0  0  0
    8.7970  -16.2290   21.6890 C   0  0  0  0  0  0  0  0  0  0  0  0
    8.1918  -16.9352   22.5275 O   0  0  0  0  0  0  0  0  0  0  0  0
   10.2181  -16.0828   21.8285 N   0  0  0  0  0  0  0  0  0  0  0  0
   10.9845  -16.7819   22.8368 C   0  0  1  0  0  0  0  0  0  0  0  0
   12.4574  -16.8392   22.5466 C   0  0  0  0  0  0  0  0  0  0  0  0
   13.0950  -17.7598   23.5128 C   0  0  0  0  0  0  0  0  0  0  0  0
   12.6254  -18.8602   23.8881 O   0  0  0  0  0  0  0  0  0  0  0  0
   10.6629  -16.2462   24.1559 C   0  0  0  0  0  0  0  0  0  0  0  0
   11.1571  -15.1714   24.5374 O   0  0  0  0  0  0  0  0  0  0  0  0
   14.3276  -17.3947   24.0699 O   0  0  0  0  0  0  0  0  0  0  0  0
    9.7803  -16.9433   25.0258 N   0  0  0  0  0  0  0  0  0  0  0  0
    9.4823  -16.5106   26.3591 C   0  0  1  0  0  0  0  0  0  0  0  0
    7.9620  -16.3116   26.4254 C   0  0  0  0  0  0  0  0  0  0  0  0
    7.6231  -14.8678   26.3624 C   0  0  0  0  0  0  0  0  0  0  0  0
    8.4493  -13.8929   26.8742 C   0  0  0  0  0  0  0  0  0  0  0  0
    8.1109  -12.5500   26.8035 C   0  0  0  0  0  0  0  0  0  0  0  0
    6.9310  -12.1651   26.2141 C   0  0  0  0  0  0  0  0  0  0  0  0
    6.0894  -13.1216   25.6956 C   0  0  0  0  0  0  0  0  0  0  0  0
    6.4437  -14.4652   25.7746 C   0  0  0  0  0  0  0  0  0  0  0  0
    9.9057  -17.4958   27.3742 C   0  0  0  0  0  0  0  0  0  0  0  0
    9.7755  -17.2355   28.5846 O   0  0  0  0  0  0  0  0  0  0  0  0
   10.4479  -18.7097   26.9866 O   0  0  0  0  0  0  0  0  0  0  0  0
  2  1  1  6
  3  2  1  0
  4  2  1  0
  5  4  1  0
  5  6  1  1
  7  8  2  0
  7  5  1  0
  9  7  1  0
 10  9  1  0
 10 11  1  6
 12 16  1  0
 12 11  1  0
 13 12  2  0
 14 15  2  0
 14 10  1  0
 17 14  1  0
 18 17  1  0
 18 19  1  6
 20 21  2  0
 20 19  1  0
 22 21  1  0
 23 22  2  0
 24 25  2  0
 24 23  1  0
 25 20  1  0
 26 18  1  0
 27 26  2  0
 28 26  1  0
M  END
$$$$
