LDF.pdb
     RDKit          3D

 28 28  0  0  1  0  0  0  0  0999 V2000
    9.1702  -13.2189   18.8363 C   0  0  0  0  0  0  0  0  0  0  0  0
    7.7180  -13.3355   19.2735 C   0  0  2  0  0  0  0  0  0  0  0  0
    7.2247  -12.0215   19.8391 C   0  0  0  0  0  0  0  0  0  0  0  0
    7.6776  -14.3544   20.3872 C   0  0  0  0  0  0  0  0  0  0  0  0
    9.0567  -14.9320   20.6628 C   0  0  2  0  0  0  0  0  0  0  0  0
    9.4763  -15.8427   19.6070 N   0  0  0  0  0  0  0  0  0  0  0  0
    8.9706  -15.6895   21.9208 C   0  0  0  0  0  0  0  0  0  0  0  0
    8.1007  -15.3595   22.7589 O   0  0  0  0  0  0  0  0  0  0  0  0
    9.8336  -16.7911   22.2406 N   0  0  0  0  0  0  0  0  0  0  0  0
    9.7174  -17.5499   23.4668 C   0  0  1  0  0  0  0  0  0  0  0  0
   10.4663  -18.8520   23.4466 C   0  0  0  0  0  0  0  0  0  0  0  0
    9.9516  -19.6771   22.3321 C   0  0  0  0  0  0  0  0  0  0  0  0
    8.8288  -20.2340   22.2973 O   0  0  0  0  0  0  0  0  0  0  0  0
   10.0470  -16.6966   24.6042 C   0  0  0  0  0  0  0  0  0  0  0  0
   11.0444  -15.9557   24.5683 O   0  0  0  0  0  0  0  0  0  0  0  0
   10.7681  -19.8674   21.2095 O   0  0  0  0  0  0  0  0  0  0  0  0
    9.2343  -16.6981   25.7710 N   0  0  0  0  0  0  0  0  0  0  0  0
    9.5942  -16.0244   26.9835 C   0  0  1  0  0  0  0  0  0  0  0  0
    8.2892  -15.4980   27.5960 C   0  0  0  0  0  0  0  0  0  0  0  0
    7.8269  -14.2866   26.8733 C   0  0  0  0  0  0  0  0  0  0  0  0
    6.6325  -14.2459   26.1902 C   0  0  0  0  0  0  0  0  0  0  0  0
    6.2219  -13.1022   25.5222 C   0  0  0  0  0  0  0  0  0  0  0  0
    7.0099  -11.9766   25.5309 C   0  0  0  0  0  0  0  0  0  0  0  0
    8.2077  -11.9938   26.2070 C   0  0  0  0  0  0  0  0  0  0  0  0
    8.6054  -13.1497   26.8724 C   0  0  0  0  0  0  0  0  0  0  0  0
   10.2738  -16.9206   27.9402 C   0  0  0  0  0  0  0  0  0  0  0  0
   10.2413  -18.1530   27.7675 O   0  0  0  0  0  0  0  0  0  0  0  0
   10.9482  -16.3968   29.0305 O   0  0  0  0  0  0  0  0  0  0  0  0
  2  1  1  1
  3  2  1  0
  4  2  1  0
  5  4  1  0
  5  6  1  6
  7  8  2  0
  7  5  1  0
  9  7  1  0
 10  9  1  0
 10 11  1  6
 12 16  1  0
 12 11  1  0
 13 12  2  0
 14 15  2  0
 14 10  1  0
 17 14  1  0
 18 17  1  0
 18 19  1  1
 20 21  2  0
 20 19  1  0
 22 21  1  0
 23 22  2  0
 24 25  2  0
 24 23  1  0
 25 20  1  0
 26 18  1  0
 27 26  2  0
 28 26  1  0
M  END
$$$$
