LDF.pdb
     RDKit          3D

 28 28  0  0  1  0  0  0  0  0999 V2000
    8.9137  -13.2485   19.0548 C   0  0  0  0  0  0  0  0  0  0  0  0
    7.5670  -13.4692   19.7264 C   0  0  2  0  0  0  0  0  0  0  0  0
    6.9505  -12.1479   20.1310 C   0  0  0  0  0  0  0  0  0  0  0  0
    7.8321  -14.2536   20.9893 C   0  0  0  0  0  0  0  0  0  0  0  0
    8.4759  -15.5968   20.6847 C   0  0  2  0  0  0  0  0  0  0  0  0
    7.5626  -16.4788   19.9719 N   0  0  0  0  0  0  0  0  0  0  0  0
    8.8135  -16.2224   21.9726 C   0  0  0  0  0  0  0  0  0  0  0  0
    7.8798  -16.5742   22.7292 O   0  0  0  0  0  0  0  0  0  0  0  0
   10.1611  -16.4521   22.4103 N   0  0  0  0  0  0  0  0  0  0  0  0
   10.4823  -17.2097   23.6002 C   0  0  1  0  0  0  0  0  0  0  0  0
   11.7579  -17.9957   23.4919 C   0  0  0  0  0  0  0  0  0  0  0  0
   12.6147  -17.3684   22.4622 C   0  0  0  0  0  0  0  0  0  0  0  0
   12.3092  -17.2164   21.2556 O   0  0  0  0  0  0  0  0  0  0  0  0
   10.4242  -16.3361   24.7680 C   0  0  0  0  0  0  0  0  0  0  0  0
   11.0241  -15.2474   24.7713 O   0  0  0  0  0  0  0  0  0  0  0  0
   13.8781  -16.8965   22.8414 O   0  0  0  0  0  0  0  0  0  0  0  0
    9.6817  -16.7145   25.9201 N   0  0  0  0  0  0  0  0  0  0  0  0
    9.8217  -16.0734   27.1941 C   0  0  1  0  0  0  0  0  0  0  0  0
    8.4141  -15.6352   27.6209 C   0  0  0  0  0  0  0  0  0  0  0  0
    8.0435  -14.3593   26.9590 C   0  0  0  0  0  0  0  0  0  0  0  0
    7.0317  -14.2769   26.0295 C   0  0  0  0  0  0  0  0  0  0  0  0
    6.7037  -13.0731   25.4244 C   0  0  0  0  0  0  0  0  0  0  0  0
    7.3917  -11.9282   25.7463 C   0  0  0  0  0  0  0  0  0  0  0  0
    8.4069  -11.9861   26.6726 C   0  0  0  0  0  0  0  0  0  0  0  0
    8.7236  -13.2022   27.2708 C   0  0  0  0  0  0  0  0  0  0  0  0
   10.3990  -16.9736   28.2123 C   0  0  0  0  0  0  0  0  0  0  0  0
   10.6406  -16.5443   29.3556 O   0  0  0  0  0  0  0  0  0  0  0  0
   10.6737  -18.2950   27.9020 O   0  0  0  0  0  0  0  0  0  0  0  0
  2  1  1  1
  3  2  1  0
  4  2  1  0
  5  4  1  0
  5  6  1  1
  7  8  2  0
  7  5  1  0
  9  7  1  0
 10  9  1  0
 10 11  1  6
 12 16  1  0
 12 11  1  0
 13 12  2  0
 14 15  2  0
 14 10  1  0
 17 14  1  0
 18 17  1  0
 18 19  1  1
 20 21  2  0
 20 19  1  0
 22 21  1  0
 23 22  2  0
 24 25  2  0
 24 23  1  0
 25 20  1  0
 26 18  1  0
 27 26  2  0
 28 26  1  0
M  END
$$$$
