LDF.pdb
     RDKit          3D

 28 28  0  0  1  0  0  0  0  0999 V2000
    8.5034  -12.9953   19.0633 C   0  0  0  0  0  0  0  0  0  0  0  0
    7.3031  -13.2005   19.9746 C   0  0  2  0  0  0  0  0  0  0  0  0
    6.9002  -11.8959   20.6269 C   0  0  0  0  0  0  0  0  0  0  0  0
    7.7429  -14.1410   21.0711 C   0  0  0  0  0  0  0  0  0  0  0  0
    8.1302  -15.5017   20.5143 C   0  0  2  0  0  0  0  0  0  0  0  0
    6.9802  -16.1984   19.9554 N   0  0  0  0  0  0  0  0  0  0  0  0
    8.6560  -16.2989   21.6332 C   0  0  0  0  0  0  0  0  0  0  0  0
    7.8451  -16.9205   22.3572 O   0  0  0  0  0  0  0  0  0  0  0  0
   10.0542  -16.4030   21.9410 N   0  0  0  0  0  0  0  0  0  0  0  0
   10.5598  -17.1969   23.0396 C   0  0  1  0  0  0  0  0  0  0  0  0
   11.9963  -17.6066   22.8801 C   0  0  0  0  0  0  0  0  0  0  0  0
   12.1518  -18.2905   21.5778 C   0  0  0  0  0  0  0  0  0  0  0  0
   11.4845  -19.2790   21.1908 O   0  0  0  0  0  0  0  0  0  0  0  0
   10.2745  -16.5236   24.3028 C   0  0  0  0  0  0  0  0  0  0  0  0
   10.7720  -15.4118   24.5510 O   0  0  0  0  0  0  0  0  0  0  0  0
   13.1192  -17.8129   20.6839 O   0  0  0  0  0  0  0  0  0  0  0  0
    9.4241  -17.1267   25.2698 N   0  0  0  0  0  0  0  0  0  0  0  0
    9.3439  -16.6887   26.6319 C   0  0  1  0  0  0  0  0  0  0  0  0
    7.8981  -16.2267   26.8589 C   0  0  0  0  0  0  0  0  0  0  0  0
    7.7574  -14.7835   26.5414 C   0  0  0  0  0  0  0  0  0  0  0  0
    6.8405  -14.3150   25.6278 C   0  0  0  0  0  0  0  0  0  0  0  0
    6.7277  -12.9616   25.3477 C   0  0  0  0  0  0  0  0  0  0  0  0
    7.5391  -12.0543   25.9850 C   0  0  0  0  0  0  0  0  0  0  0  0
    8.4629  -12.4991   26.9020 C   0  0  0  0  0  0  0  0  0  0  0  0
    8.5635  -13.8608   27.1718 C   0  0  0  0  0  0  0  0  0  0  0  0
    9.6844  -17.7635   27.5855 C   0  0  0  0  0  0  0  0  0  0  0  0
    9.7489  -18.9435   27.1943 O   0  0  0  0  0  0  0  0  0  0  0  0
    9.9330  -17.4655   28.9149 O   0  0  0  0  0  0  0  0  0  0  0  0
  2  1  1  6
  3  2  1  0
  4  2  1  0
  5  4  1  0
  5  6  1  1
  7  8  2  0
  7  5  1  0
  9  7  1  0
 10  9  1  0
 10 11  1  6
 12 16  1  0
 12 11  1  0
 13 12  2  0
 14 15  2  0
 14 10  1  0
 17 14  1  0
 18 17  1  0
 18 19  1  1
 20 21  2  0
 20 19  1  0
 22 21  1  0
 23 22  2  0
 24 25  2  0
 24 23  1  0
 25 20  1  0
 26 18  1  0
 27 26  2  0
 28 26  1  0
M  END
$$$$
