MDS.pdb
     RDKit          3D

 23 22  0  0  1  0  0  0  0  0999 V2000
   19.6590  -15.6967  -16.2975 C   0  0  0  0  0  0  0  0  0  0  0  0
   19.8902  -14.2262  -15.2590 S   0  0  0  0  0  0  0  0  0  0  0  0
   19.4009  -12.7170  -16.2025 C   0  0  0  0  0  0  0  0  0  0  0  0
   19.5842  -11.5781  -15.2383 C   0  0  0  0  0  0  0  0  0  0  0  0
   19.3428  -10.2872  -15.8727 C   0  0  2  0  0  0  0  0  0  0  0  0
   19.9072  -10.1545  -17.2048 N   0  0  0  0  0  0  0  0  0  0  0  0
   19.4896   -9.0448  -15.1532 C   0  0  0  0  0  0  0  0  0  0  0  0
   18.7545   -8.9324  -14.1053 O   0  0  0  0  0  0  0  0  0  0  0  0
   20.3465   -7.9872  -15.5093 N   0  0  0  0  0  0  0  0  0  0  0  0
   20.4863   -6.7605  -14.6953 C   0  0  1  0  0  0  0  0  0  0  0  0
   21.8830   -6.3098  -14.8803 C   0  0  0  0  0  0  0  0  0  0  0  0
   22.3172   -5.1343  -14.1343 C   0  0  0  0  0  0  0  0  0  0  0  0
   21.4949   -4.5849  -13.3573 O   0  0  0  0  0  0  0  0  0  0  0  0
   19.4193   -5.8289  -15.1037 C   0  0  0  0  0  0  0  0  0  0  0  0
   19.1712   -5.6024  -16.3395 O   0  0  0  0  0  0  0  0  0  0  0  0
   23.5822   -4.5742  -14.2202 O   0  0  0  0  0  0  0  0  0  0  0  0
   15.3362   -3.5441  -14.3038 O   0  0  0  0  0  0  0  0  0  0  0  0
   16.2696   -4.5235  -13.9355 C   0  0  0  0  0  0  0  0  0  0  0  0
   17.5513   -4.1955  -14.6723 C   0  0  2  0  0  0  0  0  0  0  0  0
   18.5840   -5.1146  -14.2045 N   0  0  0  0  0  0  0  0  0  0  0  0
   17.9702   -2.7959  -14.4087 C   0  0  0  0  0  0  0  0  0  0  0  0
   18.7700   -2.5663  -13.4857 O   0  0  0  0  0  0  0  0  0  0  0  0
   17.4712   -1.7538  -15.1891 O   0  0  0  0  0  0  0  0  0  0  0  0
  1  2  1  0
  2  3  1  0
  4  3  1  0
  5  7  1  0
  5  4  1  0
  5  6  1  6
  7  9  1  0
  7  8  2  0
  9 10  1  0
 10 14  1  0
 10 11  1  6
 12 13  2  0
 12 11  1  0
 14 20  1  0
 14 15  2  0
 16 12  1  0
 17 18  1  0
 19 18  1  1
 19 21  1  0
 20 19  1  0
 21 23  1  0
 22 21  2  0
M  END
$$$$
