MDS.pdb
     RDKit          3D

 23 22  0  0  1  0  0  0  0  0999 V2000
   23.6077  -13.8906  -16.4999 C   0  0  0  0  0  0  0  0  0  0  0  0
   25.1314  -12.9142  -16.3602 S   0  0  0  0  0  0  0  0  0  0  0  0
   24.7416  -11.2530  -15.6560 C   0  0  0  0  0  0  0  0  0  0  0  0
   23.4493  -10.8467  -16.3082 C   0  0  0  0  0  0  0  0  0  0  0  0
   22.9592   -9.5736  -15.7922 C   0  0  2  0  0  0  0  0  0  0  0  0
   22.8931   -9.4950  -14.3431 N   0  0  0  0  0  0  0  0  0  0  0  0
   21.8188   -8.9047  -16.3709 C   0  0  0  0  0  0  0  0  0  0  0  0
   21.8300   -8.8201  -17.6530 O   0  0  0  0  0  0  0  0  0  0  0  0
   20.7390   -8.3564  -15.6545 N   0  0  0  0  0  0  0  0  0  0  0  0
   19.5403   -7.7971  -16.3158 C   0  0  1  0  0  0  0  0  0  0  0  0
   18.3857   -8.5167  -15.7351 C   0  0  0  0  0  0  0  0  0  0  0  0
   18.2275   -9.9256  -16.0767 C   0  0  0  0  0  0  0  0  0  0  0  0
   18.2979  -10.2561  -17.2881 O   0  0  0  0  0  0  0  0  0  0  0  0
   19.5765   -6.3335  -16.1432 C   0  0  0  0  0  0  0  0  0  0  0  0
   19.8982   -5.8036  -15.0226 O   0  0  0  0  0  0  0  0  0  0  0  0
   18.0037  -10.9358  -15.1544 O   0  0  0  0  0  0  0  0  0  0  0  0
   19.2753   -1.8885  -18.0347 O   0  0  0  0  0  0  0  0  0  0  0  0
   19.2112   -3.2670  -18.2830 C   0  0  0  0  0  0  0  0  0  0  0  0
   19.3750   -3.9538  -16.9434 C   0  0  2  0  0  0  0  0  0  0  0  0
   19.2735   -5.3931  -17.1632 N   0  0  0  0  0  0  0  0  0  0  0  0
   18.3219   -3.5174  -15.9924 C   0  0  0  0  0  0  0  0  0  0  0  0
   17.2010   -4.0514  -16.0425 O   0  0  0  0  0  0  0  0  0  0  0  0
   18.5904   -2.5205  -15.0551 O   0  0  0  0  0  0  0  0  0  0  0  0
  1  2  1  0
  2  3  1  0
  4  3  1  0
  5  7  1  0
  5  4  1  0
  5  6  1  1
  7  9  1  0
  7  8  2  0
  9 10  1  0
 10 14  1  0
 10 11  1  1
 12 13  2  0
 12 11  1  0
 14 20  1  0
 14 15  2  0
 16 12  1  0
 17 18  1  0
 19 18  1  6
 19 21  1  0
 20 19  1  0
 21 23  1  0
 22 21  2  0
M  END
$$$$
