MDS.pdb
     RDKit          3D

 23 22  0  0  1  0  0  0  0  0999 V2000
   11.8812  -14.6386  -10.6965 C   0  0  0  0  0  0  0  0  0  0  0  0
   11.4889  -13.6655  -12.1776 S   0  0  0  0  0  0  0  0  0  0  0  0
   13.0367  -13.3236  -13.1235 C   0  0  0  0  0  0  0  0  0  0  0  0
   13.8090  -12.3559  -12.2706 C   0  0  0  0  0  0  0  0  0  0  0  0
   15.1114  -12.0447  -12.8484 C   0  0  2  0  0  0  0  0  0  0  0  0
   15.8885  -13.2062  -13.2455 N   0  0  0  0  0  0  0  0  0  0  0  0
   15.9817  -11.0471  -12.2736 C   0  0  0  0  0  0  0  0  0  0  0  0
   17.2376  -11.3023  -12.3654 O   0  0  0  0  0  0  0  0  0  0  0  0
   15.5648   -9.8618  -11.6404 N   0  0  0  0  0  0  0  0  0  0  0  0
   16.5002   -8.7750  -11.2786 C   0  0  1  0  0  0  0  0  0  0  0  0
   17.1024   -8.3201  -12.5508 C   0  0  0  0  0  0  0  0  0  0  0  0
   18.0350   -7.2004  -12.4937 C   0  0  0  0  0  0  0  0  0  0  0  0
   18.1623   -6.4787  -13.5158 O   0  0  0  0  0  0  0  0  0  0  0  0
   15.7464   -7.7780  -10.4969 C   0  0  0  0  0  0  0  0  0  0  0  0
   14.7631   -7.1367  -11.0087 O   0  0  0  0  0  0  0  0  0  0  0  0
   18.7978   -6.8710  -11.3842 O   0  0  0  0  0  0  0  0  0  0  0  0
   14.6815   -5.7608   -6.2416 O   0  0  0  0  0  0  0  0  0  0  0  0
   15.5546   -6.6092   -6.9372 C   0  0  0  0  0  0  0  0  0  0  0  0
   15.1904   -6.4942   -8.4026 C   0  0  2  0  0  0  0  0  0  0  0  0
   16.0184   -7.4393   -9.1450 N   0  0  0  0  0  0  0  0  0  0  0  0
   15.4324   -5.1172   -8.9018 C   0  0  0  0  0  0  0  0  0  0  0  0
   16.5668   -4.8094   -9.3050 O   0  0  0  0  0  0  0  0  0  0  0  0
   14.3973   -4.1830   -8.9175 O   0  0  0  0  0  0  0  0  0  0  0  0
  1  2  1  0
  2  3  1  0
  4  3  1  0
  5  7  1  0
  5  4  1  0
  5  6  1  1
  7  9  1  0
  7  8  2  0
  9 10  1  0
 10 14  1  0
 10 11  1  6
 12 13  2  0
 12 11  1  0
 14 20  1  0
 14 15  2  0
 16 12  1  0
 17 18  1  0
 19 18  1  1
 19 21  1  0
 20 19  1  0
 21 23  1  0
 22 21  2  0
M  END
$$$$
