MDS.pdb
     RDKit          3D

 23 22  0  0  1  0  0  0  0  0999 V2000
   23.4907  -16.4584  -15.1281 C   0  0  0  0  0  0  0  0  0  0  0  0
   23.0873  -14.9033  -15.9726 S   0  0  0  0  0  0  0  0  0  0  0  0
   21.2658  -14.6128  -15.9015 C   0  0  0  0  0  0  0  0  0  0  0  0
   21.0638  -13.2534  -16.5110 C   0  0  0  0  0  0  0  0  0  0  0  0
   19.8815  -12.5894  -15.9740 C   0  0  2  0  0  0  0  0  0  0  0  0
   18.6626  -13.3768  -16.0449 N   0  0  0  0  0  0  0  0  0  0  0  0
   19.5876  -11.2060  -16.2613 C   0  0  0  0  0  0  0  0  0  0  0  0
   18.8920  -11.0063  -17.3230 O   0  0  0  0  0  0  0  0  0  0  0  0
   19.9983  -10.1030  -15.4901 N   0  0  0  0  0  0  0  0  0  0  0  0
   19.5935   -8.7145  -15.7986 C   0  0  1  0  0  0  0  0  0  0  0  0
   18.1183   -8.6907  -15.6923 C   0  0  0  0  0  0  0  0  0  0  0  0
   17.4545   -7.3969  -15.8027 C   0  0  0  0  0  0  0  0  0  0  0  0
   17.8875   -6.5761  -16.6516 O   0  0  0  0  0  0  0  0  0  0  0  0
   20.3469   -7.8195  -14.9018 C   0  0  0  0  0  0  0  0  0  0  0  0
   20.4216   -8.0474  -13.6438 O   0  0  0  0  0  0  0  0  0  0  0  0
   16.3710   -7.0032  -15.0331 O   0  0  0  0  0  0  0  0  0  0  0  0
   23.8059   -6.9198  -15.0291 O   0  0  0  0  0  0  0  0  0  0  0  0
   23.2050   -5.6534  -14.9947 C   0  0  0  0  0  0  0  0  0  0  0  0
   21.8280   -5.8464  -14.3949 C   0  0  2  0  0  0  0  0  0  0  0  0
   21.0454   -6.6569  -15.3226 N   0  0  0  0  0  0  0  0  0  0  0  0
   21.1556   -4.5401  -14.1817 C   0  0  0  0  0  0  0  0  0  0  0  0
   20.2351   -4.2007  -14.9444 O   0  0  0  0  0  0  0  0  0  0  0  0
   21.5537   -3.7066  -13.1372 O   0  0  0  0  0  0  0  0  0  0  0  0
  1  2  1  0
  2  3  1  0
  4  3  1  0
  5  7  1  0
  5  4  1  0
  5  6  1  6
  7  9  1  0
  7  8  2  0
  9 10  1  0
 10 14  1  0
 10 11  1  1
 12 13  2  0
 12 11  1  0
 14 20  1  0
 14 15  2  0
 16 12  1  0
 17 18  1  0
 19 18  1  6
 19 21  1  0
 20 19  1  0
 21 23  1  0
 22 21  2  0
M  END
$$$$
