MDS.pdb
     RDKit          3D

 23 22  0  0  1  0  0  0  0  0999 V2000
   22.7292  -15.3131  -14.9416 C   0  0  0  0  0  0  0  0  0  0  0  0
   23.3187  -13.6088  -15.1471 S   0  0  0  0  0  0  0  0  0  0  0  0
   25.1644  -13.5869  -15.1524 C   0  0  0  0  0  0  0  0  0  0  0  0
   25.5366  -12.1343  -15.2614 C   0  0  0  0  0  0  0  0  0  0  0  0
   25.0764  -11.5500  -16.5159 C   0  0  2  0  0  0  0  0  0  0  0  0
   25.4144  -12.3205  -17.7003 N   0  0  0  0  0  0  0  0  0  0  0  0
   25.2102  -10.1403  -16.7948 C   0  0  0  0  0  0  0  0  0  0  0  0
   26.3620   -9.7795  -17.2354 O   0  0  0  0  0  0  0  0  0  0  0  0
   24.2057   -9.1707  -16.6198 N   0  0  0  0  0  0  0  0  0  0  0  0
   24.3841   -7.7539  -17.0043 C   0  0  1  0  0  0  0  0  0  0  0  0
   24.7413   -7.7667  -18.4397 C   0  0  0  0  0  0  0  0  0  0  0  0
   25.8215   -6.8886  -18.8742 C   0  0  0  0  0  0  0  0  0  0  0  0
   26.3404   -7.0957  -20.0009 O   0  0  0  0  0  0  0  0  0  0  0  0
   23.1583   -7.0294  -16.6227 C   0  0  0  0  0  0  0  0  0  0  0  0
   21.9979   -7.4843  -16.9170 O   0  0  0  0  0  0  0  0  0  0  0  0
   26.3216   -5.8326  -18.1287 O   0  0  0  0  0  0  0  0  0  0  0  0
   20.5334   -5.7945  -13.4109 O   0  0  0  0  0  0  0  0  0  0  0  0
   21.6173   -6.3250  -14.1249 C   0  0  0  0  0  0  0  0  0  0  0  0
   21.9414   -5.3291  -15.2185 C   0  0  2  0  0  0  0  0  0  0  0  0
   23.1358   -5.7998  -15.9128 N   0  0  0  0  0  0  0  0  0  0  0  0
   22.1919   -3.9809  -14.6496 C   0  0  0  0  0  0  0  0  0  0  0  0
   23.3504   -3.6629  -14.3319 O   0  0  0  0  0  0  0  0  0  0  0  0
   21.1383   -3.0843  -14.4757 O   0  0  0  0  0  0  0  0  0  0  0  0
  1  2  1  0
  2  3  1  0
  4  3  1  0
  5  7  1  0
  5  4  1  0
  5  6  1  6
  7  9  1  0
  7  8  2  0
  9 10  1  0
 10 14  1  0
 10 11  1  6
 12 13  2  0
 12 11  1  0
 14 20  1  0
 14 15  2  0
 16 12  1  0
 17 18  1  0
 19 18  1  1
 19 21  1  0
 20 19  1  0
 21 23  1  0
 22 21  2  0
M  END
$$$$
