MDS.pdb
     RDKit          3D

 23 22  0  0  1  0  0  0  0  0999 V2000
   19.4640  -14.4627  -21.7073 C   0  0  0  0  0  0  0  0  0  0  0  0
   18.7360  -13.2122  -20.6115 S   0  0  0  0  0  0  0  0  0  0  0  0
   20.0154  -12.6036  -19.4282 C   0  0  0  0  0  0  0  0  0  0  0  0
   19.2684  -11.7231  -18.4654 C   0  0  0  0  0  0  0  0  0  0  0  0
   20.1590  -11.1198  -17.4805 C   0  0  2  0  0  0  0  0  0  0  0  0
   20.8277  -12.0707  -16.6091 N   0  0  0  0  0  0  0  0  0  0  0  0
   19.7810   -9.9480  -16.7275 C   0  0  0  0  0  0  0  0  0  0  0  0
   19.4348   -8.9338  -17.4363 O   0  0  0  0  0  0  0  0  0  0  0  0
   19.7702   -9.8431  -15.3244 N   0  0  0  0  0  0  0  0  0  0  0  0
   19.3185   -8.6264  -14.6155 C   0  0  1  0  0  0  0  0  0  0  0  0
   18.7522   -9.0937  -13.3314 C   0  0  0  0  0  0  0  0  0  0  0  0
   18.2931   -8.0810  -12.3878 C   0  0  0  0  0  0  0  0  0  0  0  0
   18.2479   -6.8848  -12.7736 O   0  0  0  0  0  0  0  0  0  0  0  0
   20.4615   -7.6978  -14.5482 C   0  0  0  0  0  0  0  0  0  0  0  0
   21.6038   -8.0795  -14.1128 O   0  0  0  0  0  0  0  0  0  0  0  0
   17.8990   -8.3439  -11.0853 O   0  0  0  0  0  0  0  0  0  0  0  0
   22.6027   -3.6018  -15.8369 O   0  0  0  0  0  0  0  0  0  0  0  0
   21.4261   -4.3632  -15.8817 C   0  0  0  0  0  0  0  0  0  0  0  0
   21.5879   -5.4664  -14.8570 C   0  0  2  0  0  0  0  0  0  0  0  0
   20.4190   -6.3357  -14.9471 N   0  0  0  0  0  0  0  0  0  0  0  0
   21.6898   -4.9051  -13.4864 C   0  0  0  0  0  0  0  0  0  0  0  0
   20.6492   -4.6293  -12.8657 O   0  0  0  0  0  0  0  0  0  0  0  0
   22.9390   -4.6917  -12.9051 O   0  0  0  0  0  0  0  0  0  0  0  0
  1  2  1  0
  2  3  1  0
  4  3  1  0
  5  7  1  0
  5  4  1  0
  5  6  1  1
  7  9  1  0
  7  8  2  0
  9 10  1  0
 10 14  1  0
 10 11  1  1
 12 13  2  0
 12 11  1  0
 14 20  1  0
 14 15  2  0
 16 12  1  0
 17 18  1  0
 19 18  1  6
 19 21  1  0
 20 19  1  0
 21 23  1  0
 22 21  2  0
M  END
$$$$
