MDS.pdb
     RDKit          3D

 23 22  0  0  1  0  0  0  0  0999 V2000
   31.2238  -15.8819  -18.3525 C   0  0  0  0  0  0  0  0  0  0  0  0
   30.0445  -17.2172  -18.0054 S   0  0  0  0  0  0  0  0  0  0  0  0
   28.3471  -16.5147  -17.8248 C   0  0  0  0  0  0  0  0  0  0  0  0
   27.4789  -17.6842  -17.4519 C   0  0  0  0  0  0  0  0  0  0  0  0
   26.0710  -17.3111  -17.3761 C   0  0  2  0  0  0  0  0  0  0  0  0
   25.7952  -15.9247  -17.7119 N   0  0  0  0  0  0  0  0  0  0  0  0
   25.2307  -17.7251  -16.2783 C   0  0  0  0  0  0  0  0  0  0  0  0
   24.8896  -16.7865  -15.4698 O   0  0  0  0  0  0  0  0  0  0  0  0
   24.7801  -19.0365  -16.0396 N   0  0  0  0  0  0  0  0  0  0  0  0
   23.9999  -19.4097  -14.8401 C   0  0  1  0  0  0  0  0  0  0  0  0
   22.8089  -20.1300  -15.3407 C   0  0  0  0  0  0  0  0  0  0  0  0
   21.9129  -20.7207  -14.3533 C   0  0  0  0  0  0  0  0  0  0  0  0
   21.5546  -21.9156  -14.5139 O   0  0  0  0  0  0  0  0  0  0  0  0
   24.8991  -20.1459  -13.9331 C   0  0  0  0  0  0  0  0  0  0  0  0
   25.6365  -21.1023  -14.3594 O   0  0  0  0  0  0  0  0  0  0  0  0
   21.4238  -20.0547  -13.2405 O   0  0  0  0  0  0  0  0  0  0  0  0
   24.4493  -20.1053   -9.9127 O   0  0  0  0  0  0  0  0  0  0  0  0
   25.8022  -20.1352  -10.2799 C   0  0  0  0  0  0  0  0  0  0  0  0
   25.8566  -20.7204  -11.6755 C   0  0  2  0  0  0  0  0  0  0  0  0
   25.0397  -19.8800  -12.5453 N   0  0  0  0  0  0  0  0  0  0  0  0
   25.3342  -22.1100  -11.6877 C   0  0  0  0  0  0  0  0  0  0  0  0
   26.0098  -23.0159  -11.1710 O   0  0  0  0  0  0  0  0  0  0  0  0
   24.1001  -22.3920  -12.2722 O   0  0  0  0  0  0  0  0  0  0  0  0
  1  2  1  0
  2  3  1  0
  4  3  1  0
  5  7  1  0
  5  4  1  0
  5  6  1  1
  7  9  1  0
  7  8  2  0
  9 10  1  0
 10 14  1  0
 10 11  1  6
 12 13  2  0
 12 11  1  0
 14 20  1  0
 14 15  2  0
 16 12  1  0
 17 18  1  0
 19 18  1  1
 19 21  1  0
 20 19  1  0
 21 23  1  0
 22 21  2  0
M  END
$$$$
