MDS.pdb
     RDKit          3D

 23 22  0  0  1  0  0  0  0  0999 V2000
   21.6555  -17.7718  -14.7259 C   0  0  0  0  0  0  0  0  0  0  0  0
   23.0617  -18.5067  -15.6074 S   0  0  0  0  0  0  0  0  0  0  0  0
   23.0351  -20.3406  -15.3985 C   0  0  0  0  0  0  0  0  0  0  0  0
   21.6069  -20.6746  -15.0680 C   0  0  0  0  0  0  0  0  0  0  0  0
   21.4449  -22.0839  -14.7292 C   0  0  2  0  0  0  0  0  0  0  0  0
   22.0104  -23.0065  -15.6985 N   0  0  0  0  0  0  0  0  0  0  0  0
   20.1987  -22.6080  -14.2240 C   0  0  0  0  0  0  0  0  0  0  0  0
   19.1572  -22.2864  -14.9043 O   0  0  0  0  0  0  0  0  0  0  0  0
   20.0514  -23.4127  -13.0792 N   0  0  0  0  0  0  0  0  0  0  0  0
   18.7410  -23.9230  -12.6218 C   0  0  1  0  0  0  0  0  0  0  0  0
   18.1687  -24.6558  -13.7723 C   0  0  0  0  0  0  0  0  0  0  0  0
   17.3042  -23.9139  -14.6826 C   0  0  0  0  0  0  0  0  0  0  0  0
   17.6353  -23.8440  -15.8939 O   0  0  0  0  0  0  0  0  0  0  0  0
   18.9670  -24.6880  -11.3822 C   0  0  0  0  0  0  0  0  0  0  0  0
   19.8035  -25.6570  -11.3417 O   0  0  0  0  0  0  0  0  0  0  0  0
   16.1332  -23.2749  -14.3060 O   0  0  0  0  0  0  0  0  0  0  0  0
   16.6628  -24.0882   -8.2420 O   0  0  0  0  0  0  0  0  0  0  0  0
   17.9012  -24.5588   -7.7828 C   0  0  0  0  0  0  0  0  0  0  0  0
   18.5643  -25.2444   -8.9590 C   0  0  2  0  0  0  0  0  0  0  0  0
   18.3091  -24.4385  -10.1487 N   0  0  0  0  0  0  0  0  0  0  0  0
   18.0166  -26.6106   -9.1530 C   0  0  0  0  0  0  0  0  0  0  0  0
   17.1426  -26.7961  -10.0166 O   0  0  0  0  0  0  0  0  0  0  0  0
   18.4795  -27.6707   -8.3746 O   0  0  0  0  0  0  0  0  0  0  0  0
  1  2  1  0
  2  3  1  0
  4  3  1  0
  5  7  1  0
  5  4  1  0
  5  6  1  6
  7  9  1  0
  7  8  2  0
  9 10  1  0
 10 14  1  0
 10 11  1  6
 12 13  2  0
 12 11  1  0
 14 20  1  0
 14 15  2  0
 16 12  1  0
 17 18  1  0
 19 18  1  1
 19 21  1  0
 20 19  1  0
 21 23  1  0
 22 21  2  0
M  END
$$$$
