MDS.pdb
     RDKit          3D

 23 22  0  0  1  0  0  0  0  0999 V2000
   22.0931  -11.2251  -20.4551 C   0  0  0  0  0  0  0  0  0  0  0  0
   20.3002  -11.4728  -20.5912 S   0  0  0  0  0  0  0  0  0  0  0  0
   19.5885  -11.7888  -18.9176 C   0  0  0  0  0  0  0  0  0  0  0  0
   19.2479  -10.4283  -18.3757 C   0  0  0  0  0  0  0  0  0  0  0  0
   19.8453  -10.2026  -17.0645 C   0  0  2  0  0  0  0  0  0  0  0  0
   19.6215  -11.2723  -16.1072 N   0  0  0  0  0  0  0  0  0  0  0  0
   19.7622   -8.9249  -16.3986 C   0  0  0  0  0  0  0  0  0  0  0  0
   18.5903   -8.6037  -15.9812 O   0  0  0  0  0  0  0  0  0  0  0  0
   20.8348   -8.0390  -16.1872 N   0  0  0  0  0  0  0  0  0  0  0  0
   20.6893   -6.7668  -15.4476 C   0  0  1  0  0  0  0  0  0  0  0  0
   21.8801   -6.6679  -14.5756 C   0  0  0  0  0  0  0  0  0  0  0  0
   21.9717   -5.5154  -13.6866 C   0  0  0  0  0  0  0  0  0  0  0  0
   22.9835   -5.4134  -12.9466 O   0  0  0  0  0  0  0  0  0  0  0  0
   20.4904   -5.6937  -16.4385 C   0  0  0  0  0  0  0  0  0  0  0  0
   21.2080   -5.6244  -17.4970 O   0  0  0  0  0  0  0  0  0  0  0  0
   21.0162   -4.5154  -13.5981 O   0  0  0  0  0  0  0  0  0  0  0  0
   17.1977   -4.1823  -17.7027 O   0  0  0  0  0  0  0  0  0  0  0  0
   17.9902   -3.0922  -17.3158 C   0  0  0  0  0  0  0  0  0  0  0  0
   19.4225   -3.5836  -17.3050 C   0  0  2  0  0  0  0  0  0  0  0  0
   19.5171   -4.6654  -16.3299 N   0  0  0  0  0  0  0  0  0  0  0  0
   20.3546   -2.4902  -16.9314 C   0  0  0  0  0  0  0  0  0  0  0  0
   21.0840   -2.6296  -15.9351 O   0  0  0  0  0  0  0  0  0  0  0  0
   20.4092   -1.3224  -17.6914 O   0  0  0  0  0  0  0  0  0  0  0  0
  1  2  1  0
  2  3  1  0
  4  3  1  0
  5  7  1  0
  5  4  1  0
  5  6  1  1
  7  9  1  0
  7  8  2  0
  9 10  1  0
 10 14  1  0
 10 11  1  6
 12 13  2  0
 12 11  1  0
 14 20  1  0
 14 15  2  0
 16 12  1  0
 17 18  1  0
 19 18  1  1
 19 21  1  0
 20 19  1  0
 21 23  1  0
 22 21  2  0
M  END
$$$$
