MDS.pdb
     RDKit          3D

 23 22  0  0  1  0  0  0  0  0999 V2000
   15.7429  -23.4210   -5.1532 C   0  0  0  0  0  0  0  0  0  0  0  0
   15.9223  -25.1914   -4.7958 S   0  0  0  0  0  0  0  0  0  0  0  0
   16.8257  -26.0153   -6.1787 C   0  0  0  0  0  0  0  0  0  0  0  0
   17.1958  -24.9028   -7.1199 C   0  0  0  0  0  0  0  0  0  0  0  0
   17.9084  -25.3993   -8.2915 C   0  0  2  0  0  0  0  0  0  0  0  0
   19.0721  -26.2150   -7.9893 N   0  0  0  0  0  0  0  0  0  0  0  0
   18.1842  -24.5563   -9.4300 C   0  0  0  0  0  0  0  0  0  0  0  0
   19.2305  -23.8186   -9.3203 O   0  0  0  0  0  0  0  0  0  0  0  0
   17.4131  -24.4866  -10.6049 N   0  0  0  0  0  0  0  0  0  0  0  0
   17.7664  -23.6129  -11.7444 C   0  0  1  0  0  0  0  0  0  0  0  0
   17.6213  -24.4498  -12.9555 C   0  0  0  0  0  0  0  0  0  0  0  0
   18.8321  -25.0322  -13.5224 C   0  0  0  0  0  0  0  0  0  0  0  0
   19.9408  -24.5370  -13.1948 O   0  0  0  0  0  0  0  0  0  0  0  0
   16.9273  -22.4039  -11.6579 C   0  0  0  0  0  0  0  0  0  0  0  0
   15.8924  -22.3651  -10.9044 O   0  0  0  0  0  0  0  0  0  0  0  0
   18.8494  -26.1019  -14.4037 O   0  0  0  0  0  0  0  0  0  0  0  0
   16.1108  -17.7833  -12.8336 O   0  0  0  0  0  0  0  0  0  0  0  0
   16.8773  -18.9275  -13.0968 C   0  0  0  0  0  0  0  0  0  0  0  0
   16.2902  -20.0418  -12.2562 C   0  0  2  0  0  0  0  0  0  0  0  0
   17.1706  -21.2002  -12.3707 N   0  0  0  0  0  0  0  0  0  0  0  0
   14.9286  -20.3995  -12.7275 C   0  0  0  0  0  0  0  0  0  0  0  0
   14.8035  -21.0673  -13.7679 O   0  0  0  0  0  0  0  0  0  0  0  0
   13.8058  -19.9903  -12.0091 O   0  0  0  0  0  0  0  0  0  0  0  0
  1  2  1  0
  2  3  1  0
  4  3  1  0
  5  7  1  0
  5  4  1  0
  5  6  1  1
  7  9  1  0
  7  8  2  0
  9 10  1  0
 10 14  1  0
 10 11  1  6
 12 13  2  0
 12 11  1  0
 14 20  1  0
 14 15  2  0
 16 12  1  0
 17 18  1  0
 19 18  1  6
 19 21  1  0
 20 19  1  0
 21 23  1  0
 22 21  2  0
M  END
$$$$
