MDS.pdb
     RDKit          3D

 23 22  0  0  1  0  0  0  0  0999 V2000
   28.2419  -12.0003  -15.1360 C   0  0  0  0  0  0  0  0  0  0  0  0
   27.1087  -13.3173  -15.6612 S   0  0  0  0  0  0  0  0  0  0  0  0
   25.7154  -12.5882  -16.6279 C   0  0  0  0  0  0  0  0  0  0  0  0
   24.9104  -11.8097  -15.6247 C   0  0  0  0  0  0  0  0  0  0  0  0
   23.8440  -11.0456  -16.2619 C   0  0  2  0  0  0  0  0  0  0  0  0
   24.1928  -10.4866  -17.5567 N   0  0  0  0  0  0  0  0  0  0  0  0
   23.0350  -10.1048  -15.5247 C   0  0  0  0  0  0  0  0  0  0  0  0
   22.5082  -10.5667  -14.4477 O   0  0  0  0  0  0  0  0  0  0  0  0
   22.7898   -8.7691  -15.8929 N   0  0  0  0  0  0  0  0  0  0  0  0
   21.9344   -7.8628  -15.0968 C   0  0  1  0  0  0  0  0  0  0  0  0
   22.7636   -6.6715  -14.8115 C   0  0  0  0  0  0  0  0  0  0  0  0
   22.1691   -5.6132  -14.0033 C   0  0  0  0  0  0  0  0  0  0  0  0
   21.2645   -5.9244  -13.1869 O   0  0  0  0  0  0  0  0  0  0  0  0
   20.6863   -7.6484  -15.8513 C   0  0  0  0  0  0  0  0  0  0  0  0
   20.7048   -7.3498  -17.0965 O   0  0  0  0  0  0  0  0  0  0  0  0
   22.5326   -4.2773  -14.0701 O   0  0  0  0  0  0  0  0  0  0  0  0
   17.0921   -8.8008  -14.5578 O   0  0  0  0  0  0  0  0  0  0  0  0
   17.1896   -8.5107  -15.9261 C   0  0  0  0  0  0  0  0  0  0  0  0
   18.1902   -7.3816  -16.0567 C   0  0  2  0  0  0  0  0  0  0  0  0
   19.3820   -7.7501  -15.2991 N   0  0  0  0  0  0  0  0  0  0  0  0
   17.6306   -6.1140  -15.5239 C   0  0  0  0  0  0  0  0  0  0  0  0
   18.1421   -5.6033  -14.5131 O   0  0  0  0  0  0  0  0  0  0  0  0
   16.5447   -5.5058  -16.1525 O   0  0  0  0  0  0  0  0  0  0  0  0
  1  2  1  0
  2  3  1  0
  4  3  1  0
  5  7  1  0
  5  4  1  0
  5  6  1  6
  7  9  1  0
  7  8  2  0
  9 10  1  0
 10 14  1  0
 10 11  1  6
 12 13  2  0
 12 11  1  0
 14 20  1  0
 14 15  2  0
 16 12  1  0
 17 18  1  0
 19 18  1  1
 19 21  1  0
 20 19  1  0
 21 23  1  0
 22 21  2  0
M  END
$$$$
