MDS.pdb
     RDKit          3D

 23 22  0  0  1  0  0  0  0  0999 V2000
   18.2283  -15.1823  -16.7934 C   0  0  0  0  0  0  0  0  0  0  0  0
   18.2702  -13.7530  -15.6756 S   0  0  0  0  0  0  0  0  0  0  0  0
   18.8263  -12.2565  -16.6023 C   0  0  0  0  0  0  0  0  0  0  0  0
   18.7850  -11.1384  -15.5979 C   0  0  0  0  0  0  0  0  0  0  0  0
   19.2791   -9.8868  -16.1603 C   0  0  2  0  0  0  0  0  0  0  0  0
   20.5444   -9.9998  -16.8652 N   0  0  0  0  0  0  0  0  0  0  0  0
   19.2416   -8.6499  -15.4176 C   0  0  0  0  0  0  0  0  0  0  0  0
   18.1661   -8.4524  -14.7429 O   0  0  0  0  0  0  0  0  0  0  0  0
   20.2614   -7.6810  -15.3862 N   0  0  0  0  0  0  0  0  0  0  0  0
   20.1855   -6.4648  -14.5483 C   0  0  1  0  0  0  0  0  0  0  0  0
   21.5808   -6.1402  -14.1798 C   0  0  0  0  0  0  0  0  0  0  0  0
   21.7952   -5.0252  -13.2646 C   0  0  0  0  0  0  0  0  0  0  0  0
   22.9693   -4.7859  -12.8825 O   0  0  0  0  0  0  0  0  0  0  0  0
   19.4356   -5.4463  -15.3055 C   0  0  0  0  0  0  0  0  0  0  0  0
   19.7177   -5.1838  -16.5268 O   0  0  0  0  0  0  0  0  0  0  0  0
   20.7896   -4.2025  -12.7818 O   0  0  0  0  0  0  0  0  0  0  0  0
   15.5776   -2.9126  -16.2527 O   0  0  0  0  0  0  0  0  0  0  0  0
   16.2061   -3.9661  -15.5737 C   0  0  0  0  0  0  0  0  0  0  0  0
   17.6875   -3.6522  -15.5688 C   0  0  2  0  0  0  0  0  0  0  0  0
   18.3603   -4.6808  -14.7817 N   0  0  0  0  0  0  0  0  0  0  0  0
   17.9439   -2.3175  -14.9715 C   0  0  0  0  0  0  0  0  0  0  0  0
   18.2463   -2.2397  -13.7688 O   0  0  0  0  0  0  0  0  0  0  0  0
   17.8464   -1.1670  -15.7532 O   0  0  0  0  0  0  0  0  0  0  0  0
  1  2  1  0
  2  3  1  0
  4  3  1  0
  5  7  1  0
  5  4  1  0
  5  6  1  1
  7  9  1  0
  7  8  2  0
  9 10  1  0
 10 14  1  0
 10 11  1  6
 12 13  2  0
 12 11  1  0
 14 20  1  0
 14 15  2  0
 16 12  1  0
 17 18  1  0
 19 18  1  1
 19 21  1  0
 20 19  1  0
 21 23  1  0
 22 21  2  0
M  END
$$$$
