MDS.pdb
     RDKit          3D

 23 22  0  0  1  0  0  0  0  0999 V2000
   28.2169  -13.7920  -15.1316 C   0  0  0  0  0  0  0  0  0  0  0  0
   27.0620  -12.7067  -16.0162 S   0  0  0  0  0  0  0  0  0  0  0  0
   25.4988  -13.6218  -16.3716 C   0  0  0  0  0  0  0  0  0  0  0  0
   24.6228  -12.6330  -17.0893 C   0  0  0  0  0  0  0  0  0  0  0  0
   24.2601  -11.5094  -16.2331 C   0  0  2  0  0  0  0  0  0  0  0  0
   23.9152  -11.8760  -14.8702 N   0  0  0  0  0  0  0  0  0  0  0  0
   23.3907  -10.4521  -16.6902 C   0  0  0  0  0  0  0  0  0  0  0  0
   23.6432  -10.0118  -17.8706 O   0  0  0  0  0  0  0  0  0  0  0  0
   22.3289   -9.8892  -15.9583 N   0  0  0  0  0  0  0  0  0  0  0  0
   21.4591   -8.8229  -16.4998 C   0  0  1  0  0  0  0  0  0  0  0  0
   20.2191   -9.4982  -16.9409 C   0  0  0  0  0  0  0  0  0  0  0  0
   19.1305   -8.6591  -17.4283 C   0  0  0  0  0  0  0  0  0  0  0  0
   17.9646   -8.9020  -17.0239 O   0  0  0  0  0  0  0  0  0  0  0  0
   21.3266   -7.7840  -15.4624 C   0  0  0  0  0  0  0  0  0  0  0  0
   20.8600   -8.0586  -14.3018 O   0  0  0  0  0  0  0  0  0  0  0  0
   19.2894   -7.6034  -18.3123 O   0  0  0  0  0  0  0  0  0  0  0  0
   23.0105   -4.1252  -15.8051 O   0  0  0  0  0  0  0  0  0  0  0  0
   22.7793   -4.5988  -14.5058 C   0  0  0  0  0  0  0  0  0  0  0  0
   21.5194   -5.4364  -14.5707 C   0  0  2  0  0  0  0  0  0  0  0  0
   21.6917   -6.4224  -15.6329 N   0  0  0  0  0  0  0  0  0  0  0  0
   20.3351   -4.5897  -14.8613 C   0  0  0  0  0  0  0  0  0  0  0  0
   19.7843   -4.6786  -15.9716 O   0  0  0  0  0  0  0  0  0  0  0  0
   19.8487   -3.7067  -13.8980 O   0  0  0  0  0  0  0  0  0  0  0  0
  1  2  1  0
  2  3  1  0
  4  3  1  0
  5  7  1  0
  5  4  1  0
  5  6  1  1
  7  9  1  0
  7  8  2  0
  9 10  1  0
 10 14  1  0
 10 11  1  1
 12 13  2  0
 12 11  1  0
 14 20  1  0
 14 15  2  0
 16 12  1  0
 17 18  1  0
 19 18  1  6
 19 21  1  0
 20 19  1  0
 21 23  1  0
 22 21  2  0
M  END
$$$$
