MDS.pdb
     RDKit          3D

 23 22  0  0  1  0  0  0  0  0999 V2000
   17.8774  -14.4789  -15.8900 C   0  0  0  0  0  0  0  0  0  0  0  0
   18.4000  -14.4023  -17.6265 S   0  0  0  0  0  0  0  0  0  0  0  0
   19.6545  -13.0649  -17.8386 C   0  0  0  0  0  0  0  0  0  0  0  0
   19.3074  -12.0364  -16.7983 C   0  0  0  0  0  0  0  0  0  0  0  0
   20.2534  -10.9264  -16.7976 C   0  0  2  0  0  0  0  0  0  0  0  0
   21.6476  -11.3216  -16.9009 N   0  0  0  0  0  0  0  0  0  0  0  0
   20.1259   -9.8167  -15.8837 C   0  0  0  0  0  0  0  0  0  0  0  0
   19.1491   -9.9046  -15.0536 O   0  0  0  0  0  0  0  0  0  0  0  0
   20.9634   -8.6867  -15.8437 N   0  0  0  0  0  0  0  0  0  0  0  0
   20.6986   -7.5238  -14.9695 C   0  0  1  0  0  0  0  0  0  0  0  0
   22.0120   -6.8829  -14.7407 C   0  0  0  0  0  0  0  0  0  0  0  0
   22.0543   -5.7304  -13.8481 C   0  0  0  0  0  0  0  0  0  0  0  0
   21.0691   -5.5252  -13.0937 O   0  0  0  0  0  0  0  0  0  0  0  0
   19.6552   -6.7071  -15.6156 C   0  0  0  0  0  0  0  0  0  0  0  0
   19.5916   -6.5958  -16.8898 O   0  0  0  0  0  0  0  0  0  0  0  0
   23.1114   -4.8373  -13.7701 O   0  0  0  0  0  0  0  0  0  0  0  0
   16.8882   -6.4602  -17.4320 O   0  0  0  0  0  0  0  0  0  0  0  0
   16.5625   -6.1333  -16.1080 C   0  0  0  0  0  0  0  0  0  0  0  0
   17.6431   -5.1921  -15.6186 C   0  0  2  0  0  0  0  0  0  0  0  0
   18.6472   -5.9883  -14.9200 N   0  0  0  0  0  0  0  0  0  0  0  0
   17.0807   -4.1743  -14.6957 C   0  0  0  0  0  0  0  0  0  0  0  0
   17.1130   -4.3830  -13.4711 O   0  0  0  0  0  0  0  0  0  0  0  0
   16.5241   -2.9994  -15.1996 O   0  0  0  0  0  0  0  0  0  0  0  0
  1  2  1  0
  2  3  1  0
  4  3  1  0
  5  7  1  0
  5  4  1  0
  5  6  1  1
  7  9  1  0
  7  8  2  0
  9 10  1  0
 10 14  1  0
 10 11  1  6
 12 13  2  0
 12 11  1  0
 14 20  1  0
 14 15  2  0
 16 12  1  0
 17 18  1  0
 19 18  1  1
 19 21  1  0
 20 19  1  0
 21 23  1  0
 22 21  2  0
M  END
$$$$
