MDS.pdb
     RDKit          3D

 23 22  0  0  1  0  0  0  0  0999 V2000
   26.3416  -11.8943  -15.6311 C   0  0  0  0  0  0  0  0  0  0  0  0
   25.4048  -10.4060  -15.1818 S   0  0  0  0  0  0  0  0  0  0  0  0
   23.6142  -10.8245  -15.0217 C   0  0  0  0  0  0  0  0  0  0  0  0
   22.9247   -9.5076  -14.7960 C   0  0  0  0  0  0  0  0  0  0  0  0
   21.4826   -9.6693  -14.6503 C   0  0  2  0  0  0  0  0  0  0  0  0
   20.8390  -10.3646  -15.7517 N   0  0  0  0  0  0  0  0  0  0  0  0
   20.6375   -8.5937  -14.1901 C   0  0  0  0  0  0  0  0  0  0  0  0
   19.9123   -8.0448  -15.0977 O   0  0  0  0  0  0  0  0  0  0  0  0
   20.5597   -8.1204  -12.8674 N   0  0  0  0  0  0  0  0  0  0  0  0
   19.7409   -6.9508  -12.4818 C   0  0  1  0  0  0  0  0  0  0  0  0
   19.2575   -7.2299  -11.1119 C   0  0  0  0  0  0  0  0  0  0  0  0
   18.4269   -6.2176  -10.4700 C   0  0  0  0  0  0  0  0  0  0  0  0
   18.0734   -5.2195  -11.1488 O   0  0  0  0  0  0  0  0  0  0  0  0
   20.5672   -5.7447  -12.6708 C   0  0  0  0  0  0  0  0  0  0  0  0
   21.8267   -5.7584  -12.4394 O   0  0  0  0  0  0  0  0  0  0  0  0
   17.9946   -6.2768   -9.1544 O   0  0  0  0  0  0  0  0  0  0  0  0
   22.3340   -3.1670  -15.6019 O   0  0  0  0  0  0  0  0  0  0  0  0
   21.4912   -4.1260  -15.0223 C   0  0  0  0  0  0  0  0  0  0  0  0
   20.9351   -3.5033  -13.7589 C   0  0  2  0  0  0  0  0  0  0  0  0
   20.0732   -4.4899  -13.1156 N   0  0  0  0  0  0  0  0  0  0  0  0
   20.1511   -2.2819  -14.0715 C   0  0  0  0  0  0  0  0  0  0  0  0
   18.9463   -2.3914  -14.3554 O   0  0  0  0  0  0  0  0  0  0  0  0
   20.7617   -1.0287  -14.0454 O   0  0  0  0  0  0  0  0  0  0  0  0
  1  2  1  0
  2  3  1  0
  4  3  1  0
  5  7  1  0
  5  4  1  0
  5  6  1  6
  7  9  1  0
  7  8  2  0
  9 10  1  0
 10 14  1  0
 10 11  1  1
 12 13  2  0
 12 11  1  0
 14 20  1  0
 14 15  2  0
 16 12  1  0
 17 18  1  0
 19 18  1  6
 19 21  1  0
 20 19  1  0
 21 23  1  0
 22 21  2  0
M  END
$$$$
