MDS.pdb
     RDKit          3D

 23 22  0  0  1  0  0  0  0  0999 V2000
   26.4770  -15.1615  -14.5988 C   0  0  0  0  0  0  0  0  0  0  0  0
   25.8045  -13.6169  -15.2746 S   0  0  0  0  0  0  0  0  0  0  0  0
   26.5795  -13.2670  -16.9129 C   0  0  0  0  0  0  0  0  0  0  0  0
   26.0555  -11.9153  -17.3112 C   0  0  0  0  0  0  0  0  0  0  0  0
   24.6274  -11.9531  -17.6050 C   0  0  2  0  0  0  0  0  0  0  0  0
   24.2172  -13.0495  -18.4654 N   0  0  0  0  0  0  0  0  0  0  0  0
   23.8870  -10.7616  -17.9441 C   0  0  0  0  0  0  0  0  0  0  0  0
   23.9289  -10.4293  -19.1845 O   0  0  0  0  0  0  0  0  0  0  0  0
   23.1542   -9.9673  -17.0431 N   0  0  0  0  0  0  0  0  0  0  0  0
   22.4321   -8.7449  -17.4571 C   0  0  1  0  0  0  0  0  0  0  0  0
   21.3730   -9.1962  -18.3859 C   0  0  0  0  0  0  0  0  0  0  0  0
   20.4476   -8.1903  -18.8942 C   0  0  0  0  0  0  0  0  0  0  0  0
   19.2159   -8.4420  -18.8581 O   0  0  0  0  0  0  0  0  0  0  0  0
   22.0003   -8.0448  -16.2338 C   0  0  0  0  0  0  0  0  0  0  0  0
   21.3210   -8.6445  -15.3288 O   0  0  0  0  0  0  0  0  0  0  0  0
   20.8308   -6.9657  -19.4185 O   0  0  0  0  0  0  0  0  0  0  0  0
   23.8037   -4.8261  -14.6572 O   0  0  0  0  0  0  0  0  0  0  0  0
   22.4121   -4.6545  -14.6591 C   0  0  0  0  0  0  0  0  0  0  0  0
   21.8074   -6.0415  -14.7194 C   0  0  2  0  0  0  0  0  0  0  0  0
   22.2842   -6.6849  -15.9396 N   0  0  0  0  0  0  0  0  0  0  0  0
   20.3245   -5.9723  -14.7367 C   0  0  0  0  0  0  0  0  0  0  0  0
   19.7358   -5.8596  -15.8253 O   0  0  0  0  0  0  0  0  0  0  0  0
   19.6038   -6.0338  -13.5447 O   0  0  0  0  0  0  0  0  0  0  0  0
  1  2  1  0
  2  3  1  0
  4  3  1  0
  5  7  1  0
  5  4  1  0
  5  6  1  6
  7  9  1  0
  7  8  2  0
  9 10  1  0
 10 14  1  0
 10 11  1  6
 12 13  2  0
 12 11  1  0
 14 20  1  0
 14 15  2  0
 16 12  1  0
 17 18  1  0
 19 18  1  6
 19 21  1  0
 20 19  1  0
 21 23  1  0
 22 21  2  0
M  END
$$$$
