MDS.pdb
     RDKit          3D

 23 22  0  0  1  0  0  0  0  0999 V2000
   11.1251  -14.8873  -12.1788 C   0  0  0  0  0  0  0  0  0  0  0  0
   11.9513  -13.5878  -11.2179 S   0  0  0  0  0  0  0  0  0  0  0  0
   13.5629  -13.1600  -12.0098 C   0  0  0  0  0  0  0  0  0  0  0  0
   14.1670  -12.1086  -11.1209 C   0  0  0  0  0  0  0  0  0  0  0  0
   15.4908  -11.7055  -11.5815 C   0  0  2  0  0  0  0  0  0  0  0  0
   16.4448  -12.7944  -11.7034 N   0  0  0  0  0  0  0  0  0  0  0  0
   16.1524  -10.5310  -11.0661 C   0  0  0  0  0  0  0  0  0  0  0  0
   16.9944  -10.7511  -10.1209 O   0  0  0  0  0  0  0  0  0  0  0  0
   15.9433   -9.2116  -11.5080 N   0  0  0  0  0  0  0  0  0  0  0  0
   16.6301   -8.0474  -10.9081 C   0  0  1  0  0  0  0  0  0  0  0  0
   17.2921   -7.3466  -12.0300 C   0  0  0  0  0  0  0  0  0  0  0  0
   18.5071   -7.9415  -12.5745 C   0  0  0  0  0  0  0  0  0  0  0  0
   19.2524   -8.5906  -11.7968 O   0  0  0  0  0  0  0  0  0  0  0  0
   15.6302   -7.2872  -10.1365 C   0  0  0  0  0  0  0  0  0  0  0  0
   14.4580   -7.0662  -10.6025 O   0  0  0  0  0  0  0  0  0  0  0  0
   18.9030   -7.8429  -13.8992 O   0  0  0  0  0  0  0  0  0  0  0  0
   14.1891   -5.2380   -6.0131 O   0  0  0  0  0  0  0  0  0  0  0  0
   15.2122   -5.9344   -6.6721 C   0  0  0  0  0  0  0  0  0  0  0  0
   14.8225   -5.9899   -8.1344 C   0  0  2  0  0  0  0  0  0  0  0  0
   15.8517   -6.7438   -8.8434 N   0  0  0  0  0  0  0  0  0  0  0  0
   14.7188   -4.6242   -8.7070 C   0  0  0  0  0  0  0  0  0  0  0  0
   15.7480   -4.0560   -9.1094 O   0  0  0  0  0  0  0  0  0  0  0  0
   13.4802   -3.9894   -8.7913 O   0  0  0  0  0  0  0  0  0  0  0  0
  1  2  1  0
  2  3  1  0
  4  3  1  0
  5  7  1  0
  5  4  1  0
  5  6  1  1
  7  9  1  0
  7  8  2  0
  9 10  1  0
 10 14  1  0
 10 11  1  6
 12 13  2  0
 12 11  1  0
 14 20  1  0
 14 15  2  0
 16 12  1  0
 17 18  1  0
 19 18  1  1
 19 21  1  0
 20 19  1  0
 21 23  1  0
 22 21  2  0
M  END
$$$$
