LHN.pdb
     RDKit          3D

 27 27  0  0  1  0  0  0  0  0999 V2000
    7.2068  -12.3705   27.5738 C   0  0  0  0  0  0  0  0  0  0  0  0
    6.6137  -13.1252   26.4188 C   0  0  1  0  0  0  0  0  0  0  0  0
    6.1106  -12.2318   25.3187 C   0  0  0  0  0  0  0  0  0  0  0  0
    7.5928  -14.1660   25.9343 C   0  0  0  0  0  0  0  0  0  0  0  0
    6.9674  -15.0954   24.9187 C   0  0  2  0  0  0  0  0  0  0  0  0
    5.9170  -15.8741   25.4971 N   0  0  0  0  0  0  0  0  0  0  0  0
    8.0689  -15.9568   24.3790 C   0  0  0  0  0  0  0  0  0  0  0  0
    8.2312  -17.0771   24.9324 O   0  0  0  0  0  0  0  0  0  0  0  0
    8.8855  -15.5296   23.3001 N   0  0  0  0  0  0  0  0  0  0  0  0
    9.9213  -16.4435   22.7500 C   0  0  1  0  0  0  0  0  0  0  0  0
   10.0948  -16.0096   21.3403 C   0  0  0  0  0  0  0  0  0  0  0  0
    9.1060  -16.5321   20.3837 C   0  0  0  0  0  0  0  0  0  0  0  0
    8.1794  -17.5377   20.5290 C   0  0  0  0  0  0  0  0  0  0  0  0
    7.4943  -17.7080   19.3914 N   0  0  0  0  0  0  0  0  0  0  0  0
    7.9607  -16.8228   18.4956 C   0  0  0  0  0  0  0  0  0  0  0  0
    8.9319  -16.1140   19.0927 N   0  0  0  0  0  0  0  0  0  0  0  0
   11.0904  -16.2607   23.6357 C   0  0  0  0  0  0  0  0  0  0  0  0
   11.1140  -15.3104   24.5051 O   0  0  0  0  0  0  0  0  0  0  0  0
   11.1287  -19.9821   27.4912 N   0  0  0  0  0  0  0  0  0  0  0  0
   11.9972  -19.2263   26.6701 C   0  0  0  0  0  0  0  0  0  0  0  0
   13.2275  -19.1043   27.0299 O   0  0  0  0  0  0  0  0  0  0  0  0
   11.6363  -18.5581   25.4281 C   0  0  0  0  0  0  0  0  0  0  0  0
   12.7446  -17.6845   24.8737 C   0  0  2  0  0  0  0  0  0  0  0  0
   12.2581  -17.0763   23.6319 N   0  0  0  0  0  0  0  0  0  0  0  0
   13.9478  -18.4918   24.6326 C   0  0  0  0  0  0  0  0  0  0  0  0
   15.2182  -18.1548   25.1286 O   0  0  0  0  0  0  0  0  0  0  0  0
   13.8944  -19.5406   23.9581 O   0  0  0  0  0  0  0  0  0  0  0  0
  2  1  1  1
  2  3  1  0
  4  2  1  0
  5  4  1  0
  5  6  1  1
  7  8  2  0
  7  5  1  0
  9  7  1  0
 10  9  1  0
 11 12  1  0
 10 11  1  6
 12 16  1  0
 13 14  1  0
 13 12  2  0
 14 15  1  0
 15 16  2  0
 17 10  1  0
 17 18  2  0
 20 19  1  0
 21 20  2  0
 23 22  1  6
 22 20  1  0
 23 24  1  0
 24 17  1  0
 25 23  1  0
 26 25  1  0
 27 25  2  0
M  END
$$$$
