LHN.pdb
     RDKit          3D

 27 27  0  0  1  0  0  0  0  0999 V2000
    6.9238  -12.7416   20.7427 C   0  0  0  0  0  0  0  0  0  0  0  0
    7.7905  -13.4712   19.7569 C   0  0  1  0  0  0  0  0  0  0  0  0
    8.1281  -12.6534   18.5408 C   0  0  0  0  0  0  0  0  0  0  0  0
    9.0090  -14.0189   20.4582 C   0  0  0  0  0  0  0  0  0  0  0  0
    9.9063  -14.7827   19.5106 C   0  0  2  0  0  0  0  0  0  0  0  0
    9.1482  -15.4939   18.5289 N   0  0  0  0  0  0  0  0  0  0  0  0
   10.7407  -15.7047   20.3475 C   0  0  0  0  0  0  0  0  0  0  0  0
   11.2292  -15.2206   21.4033 O   0  0  0  0  0  0  0  0  0  0  0  0
   10.9671  -17.0529   19.9674 N   0  0  0  0  0  0  0  0  0  0  0  0
   11.8130  -17.9291   20.8202 C   0  0  1  0  0  0  0  0  0  0  0  0
   11.5759  -19.3003   20.3013 C   0  0  0  0  0  0  0  0  0  0  0  0
   12.2892  -20.3812   21.0004 C   0  0  0  0  0  0  0  0  0  0  0  0
   13.1510  -20.3256   22.0705 C   0  0  0  0  0  0  0  0  0  0  0  0
   13.5985  -21.5508   22.3725 N   0  0  0  0  0  0  0  0  0  0  0  0
   13.0391  -22.4156   21.5107 C   0  0  0  0  0  0  0  0  0  0  0  0
   12.2502  -21.7116   20.6835 N   0  0  0  0  0  0  0  0  0  0  0  0
   13.1834  -17.3998   20.6577 C   0  0  0  0  0  0  0  0  0  0  0  0
   13.6902  -17.2371   19.4846 O   0  0  0  0  0  0  0  0  0  0  0  0
   17.9030  -14.6223   22.9580 N   0  0  0  0  0  0  0  0  0  0  0  0
   16.9620  -14.7017   21.9053 C   0  0  0  0  0  0  0  0  0  0  0  0
   17.3200  -14.3063   20.7334 O   0  0  0  0  0  0  0  0  0  0  0  0
   15.5981  -15.1993   22.0113 C   0  0  0  0  0  0  0  0  0  0  0  0
   15.4249  -16.5970   21.4500 C   0  0  2  0  0  0  0  0  0  0  0  0
   14.0495  -17.0236   21.7240 N   0  0  0  0  0  0  0  0  0  0  0  0
   16.3959  -17.5103   22.0669 C   0  0  0  0  0  0  0  0  0  0  0  0
   16.0484  -18.4782   23.0239 O   0  0  0  0  0  0  0  0  0  0  0  0
   17.6052  -17.4659   21.7612 O   0  0  0  0  0  0  0  0  0  0  0  0
  2  1  1  1
  2  3  1  0
  4  2  1  0
  5  4  1  0
  5  6  1  6
  7  8  2  0
  7  5  1  0
  9  7  1  0
 10  9  1  0
 11 12  1  0
 10 11  1  6
 12 16  1  0
 13 14  1  0
 13 12  2  0
 14 15  1  0
 15 16  2  0
 17 10  1  0
 17 18  2  0
 20 19  1  0
 21 20  2  0
 23 22  1  1
 22 20  1  0
 23 24  1  0
 24 17  1  0
 25 23  1  0
 26 25  1  0
 27 25  2  0
M  END
$$$$
