LHN.pdb
     RDKit          3D

 27 27  0  0  1  0  0  0  0  0999 V2000
    7.2811  -11.8392   27.7777 C   0  0  0  0  0  0  0  0  0  0  0  0
    6.4128  -12.5926   26.8115 C   0  0  1  0  0  0  0  0  0  0  0  0
    5.5942  -11.6972   25.9228 C   0  0  0  0  0  0  0  0  0  0  0  0
    7.2496  -13.5845   26.0418 C   0  0  0  0  0  0  0  0  0  0  0  0
    6.4160  -14.3857   25.0673 C   0  0  2  0  0  0  0  0  0  0  0  0
    5.4028  -15.1384   25.7388 N   0  0  0  0  0  0  0  0  0  0  0  0
    7.3598  -15.2706   24.3104 C   0  0  0  0  0  0  0  0  0  0  0  0
    7.2642  -16.5090   24.5225 O   0  0  0  0  0  0  0  0  0  0  0  0
    8.3111  -14.7379   23.4022 N   0  0  0  0  0  0  0  0  0  0  0  0
    9.1674  -15.6561   22.6058 C   0  0  1  0  0  0  0  0  0  0  0  0
    9.6512  -14.8290   21.4712 C   0  0  0  0  0  0  0  0  0  0  0  0
    8.6496  -14.5052   20.4427 C   0  0  0  0  0  0  0  0  0  0  0  0
    7.3534  -14.9419   20.3009 C   0  0  0  0  0  0  0  0  0  0  0  0
    6.8024  -14.4160   19.1998 N   0  0  0  0  0  0  0  0  0  0  0  0
    7.7241  -13.6352   18.6129 C   0  0  0  0  0  0  0  0  0  0  0  0
    8.8375  -13.6885   19.3612 N   0  0  0  0  0  0  0  0  0  0  0  0
   10.1985  -16.1248   23.5556 C   0  0  0  0  0  0  0  0  0  0  0  0
   10.8456  -15.2867   24.2892 O   0  0  0  0  0  0  0  0  0  0  0  0
   11.7601  -18.1525   28.1619 N   0  0  0  0  0  0  0  0  0  0  0  0
   10.8633  -18.7525   27.2478 C   0  0  0  0  0  0  0  0  0  0  0  0
   10.5010  -19.9705   27.4560 O   0  0  0  0  0  0  0  0  0  0  0  0
   10.2908  -18.1193   26.0687 C   0  0  0  0  0  0  0  0  0  0  0  0
   11.3025  -17.8832   24.9645 C   0  0  2  0  0  0  0  0  0  0  0  0
   10.5680  -17.4850   23.7601 N   0  0  0  0  0  0  0  0  0  0  0  0
   12.0839  -19.1046   24.7292 C   0  0  0  0  0  0  0  0  0  0  0  0
   11.6722  -20.1322   23.8643 O   0  0  0  0  0  0  0  0  0  0  0  0
   13.1770  -19.2895   25.3026 O   0  0  0  0  0  0  0  0  0  0  0  0
  2  1  1  6
  2  3  1  0
  4  2  1  0
  5  4  1  0
  5  6  1  1
  7  8  2  0
  7  5  1  0
  9  7  1  0
 10  9  1  0
 11 12  1  0
 10 11  1  6
 12 16  1  0
 13 14  1  0
 13 12  2  0
 14 15  1  0
 15 16  2  0
 17 10  1  0
 17 18  2  0
 20 19  1  0
 21 20  2  0
 23 22  1  1
 22 20  1  0
 23 24  1  0
 24 17  1  0
 25 23  1  0
 26 25  1  0
 27 25  2  0
M  END
$$$$
