LHN.pdb
     RDKit          3D

 27 27  0  0  1  0  0  0  0  0999 V2000
    7.3466  -11.5146   27.0972 C   0  0  0  0  0  0  0  0  0  0  0  0
    6.5403  -12.5228   26.3300 C   0  0  1  0  0  0  0  0  0  0  0  0
    5.8453  -11.9412   25.1298 C   0  0  0  0  0  0  0  0  0  0  0  0
    7.4023  -13.7148   25.9943 C   0  0  0  0  0  0  0  0  0  0  0  0
    6.6405  -14.7531   25.2018 C   0  0  2  0  0  0  0  0  0  0  0  0
    5.6427  -15.3944   26.0002 N   0  0  0  0  0  0  0  0  0  0  0  0
    7.6499  -15.7299   24.6786 C   0  0  0  0  0  0  0  0  0  0  0  0
    7.6328  -16.8838   25.1846 O   0  0  0  0  0  0  0  0  0  0  0  0
    8.5762  -15.3704   23.6656 N   0  0  0  0  0  0  0  0  0  0  0  0
    9.5026  -16.3942   23.1140 C   0  0  1  0  0  0  0  0  0  0  0  0
    9.6772  -16.0140   21.6891 C   0  0  0  0  0  0  0  0  0  0  0  0
   10.4769  -16.9413   20.8727 C   0  0  0  0  0  0  0  0  0  0  0  0
   10.3466  -18.2980   20.6906 C   0  0  0  0  0  0  0  0  0  0  0  0
   11.3110  -18.7542   19.8815 N   0  0  0  0  0  0  0  0  0  0  0  0
   12.0773  -17.7098   19.5276 C   0  0  0  0  0  0  0  0  0  0  0  0
   11.5754  -16.6170   20.1245 N   0  0  0  0  0  0  0  0  0  0  0  0
   10.7085  -16.3049   23.9639 C   0  0  0  0  0  0  0  0  0  0  0  0
   11.7680  -15.7068   23.5405 O   0  0  0  0  0  0  0  0  0  0  0  0
   13.3048  -20.2282   26.3902 N   0  0  0  0  0  0  0  0  0  0  0  0
   11.9312  -20.3068   26.0627 C   0  0  0  0  0  0  0  0  0  0  0  0
   11.3344  -21.4399   26.1954 O   0  0  0  0  0  0  0  0  0  0  0  0
   11.1012  -19.2116   25.5823 C   0  0  0  0  0  0  0  0  0  0  0  0
   11.8168  -17.8750   25.5771 C   0  0  2  0  0  0  0  0  0  0  0  0
   10.8259  -16.8364   25.2801 N   0  0  0  0  0  0  0  0  0  0  0  0
   12.8915  -17.8841   24.5759 C   0  0  0  0  0  0  0  0  0  0  0  0
   14.2012  -17.4515   24.8422 O   0  0  0  0  0  0  0  0  0  0  0  0
   12.6839  -18.2866   23.4128 O   0  0  0  0  0  0  0  0  0  0  0  0
  2  1  1  6
  2  3  1  0
  4  2  1  0
  5  4  1  0
  5  6  1  1
  7  8  2  0
  7  5  1  0
  9  7  1  0
 10  9  1  0
 11 12  1  0
 10 11  1  6
 12 16  1  0
 13 14  1  0
 13 12  2  0
 14 15  1  0
 15 16  2  0
 17 10  1  0
 17 18  2  0
 20 19  1  0
 21 20  2  0
 23 22  1  6
 22 20  1  0
 23 24  1  0
 24 17  1  0
 25 23  1  0
 26 25  1  0
 27 25  2  0
M  END
$$$$
