LHN.pdb
     RDKit          3D

 27 27  0  0  1  0  0  0  0  0999 V2000
    7.5436  -11.8012   19.4130 C   0  0  0  0  0  0  0  0  0  0  0  0
    7.8877  -13.2595   19.5148 C   0  0  1  0  0  0  0  0  0  0  0  0
    8.5447  -13.8045   18.2767 C   0  0  0  0  0  0  0  0  0  0  0  0
    8.6908  -13.5067   20.7680 C   0  0  0  0  0  0  0  0  0  0  0  0
    8.8969  -14.9832   21.0207 C   0  0  2  0  0  0  0  0  0  0  0  0
    7.7259  -15.7386   20.7008 N   0  0  0  0  0  0  0  0  0  0  0  0
    9.2797  -15.1300   22.4624 C   0  0  0  0  0  0  0  0  0  0  0  0
   10.2811  -14.4705   22.8498 O   0  0  0  0  0  0  0  0  0  0  0  0
    8.5499  -15.9695   23.3433 N   0  0  0  0  0  0  0  0  0  0  0  0
    8.8748  -15.9789   24.7942 C   0  0  1  0  0  0  0  0  0  0  0  0
    7.5713  -15.7635   25.4724 C   0  0  0  0  0  0  0  0  0  0  0  0
    7.1618  -14.3601   25.6410 C   0  0  0  0  0  0  0  0  0  0  0  0
    7.8529  -13.1994   25.3835 C   0  0  0  0  0  0  0  0  0  0  0  0
    7.1107  -12.1334   25.7086 N   0  0  0  0  0  0  0  0  0  0  0  0
    5.9349  -12.5805   26.1786 C   0  0  0  0  0  0  0  0  0  0  0  0
    5.9649  -13.9221   26.1383 N   0  0  0  0  0  0  0  0  0  0  0  0
    9.5199  -17.2886   25.0250 C   0  0  0  0  0  0  0  0  0  0  0  0
    9.0585  -18.3554   24.4696 O   0  0  0  0  0  0  0  0  0  0  0  0
   12.7718  -21.2606   26.4303 N   0  0  0  0  0  0  0  0  0  0  0  0
   13.3541  -20.0924   25.8861 C   0  0  0  0  0  0  0  0  0  0  0  0
   14.5995  -20.1240   25.5607 O   0  0  0  0  0  0  0  0  0  0  0  0
   12.6738  -18.8278   25.6469 C   0  0  0  0  0  0  0  0  0  0  0  0
   11.2053  -18.8569   26.0229 C   0  0  2  0  0  0  0  0  0  0  0  0
   10.6681  -17.5054   25.8394 N   0  0  0  0  0  0  0  0  0  0  0  0
   11.0514  -19.3042   27.4135 C   0  0  0  0  0  0  0  0  0  0  0  0
   10.5160  -18.4974   28.4313 O   0  0  0  0  0  0  0  0  0  0  0  0
   11.3989  -20.4509   27.7628 O   0  0  0  0  0  0  0  0  0  0  0  0
  2  1  1  6
  2  3  1  0
  4  2  1  0
  5  4  1  0
  5  6  1  1
  7  8  2  0
  7  5  1  0
  9  7  1  0
 10  9  1  0
 11 12  1  0
 10 11  1  1
 12 16  1  0
 13 14  1  0
 13 12  2  0
 14 15  1  0
 15 16  2  0
 17 10  1  0
 17 18  2  0
 20 19  1  0
 21 20  2  0
 23 22  1  1
 22 20  1  0
 23 24  1  0
 24 17  1  0
 25 23  1  0
 26 25  1  0
 27 25  2  0
M  END
$$$$
