LHN.pdb
     RDKit          3D

 27 27  0  0  1  0  0  0  0  0999 V2000
    7.2433  -12.6213   18.9460 C   0  0  0  0  0  0  0  0  0  0  0  0
    8.4364  -13.4796   19.2545 C   0  0  1  0  0  0  0  0  0  0  0  0
    9.7354  -12.7219   19.2392 C   0  0  0  0  0  0  0  0  0  0  0  0
    8.2043  -14.2294   20.5431 C   0  0  0  0  0  0  0  0  0  0  0  0
    9.4267  -15.0137   20.9642 C   0  0  2  0  0  0  0  0  0  0  0  0
    9.9207  -15.8279   19.8977 N   0  0  0  0  0  0  0  0  0  0  0  0
    9.0304  -15.8333   22.1550 C   0  0  0  0  0  0  0  0  0  0  0  0
    8.1976  -15.3137   22.9451 O   0  0  0  0  0  0  0  0  0  0  0  0
    9.5676  -17.1275   22.3785 N   0  0  0  0  0  0  0  0  0  0  0  0
    9.0780  -17.9439   23.5205 C   0  0  1  0  0  0  0  0  0  0  0  0
    8.8845  -19.3033   22.9547 C   0  0  0  0  0  0  0  0  0  0  0  0
    7.7634  -19.4508   22.0128 C   0  0  0  0  0  0  0  0  0  0  0  0
    6.4759  -18.9738   22.0877 C   0  0  0  0  0  0  0  0  0  0  0  0
    5.7706  -19.3668   21.0196 N   0  0  0  0  0  0  0  0  0  0  0  0
    6.5819  -20.0996   20.2396 C   0  0  0  0  0  0  0  0  0  0  0  0
    7.7828  -20.1508   20.8374 N   0  0  0  0  0  0  0  0  0  0  0  0
   10.1278  -17.8119   24.5525 C   0  0  0  0  0  0  0  0  0  0  0  0
   11.1439  -17.0435   24.3617 O   0  0  0  0  0  0  0  0  0  0  0  0
   11.7079  -16.4140   29.2955 N   0  0  0  0  0  0  0  0  0  0  0  0
   10.7139  -15.8928   28.4350 C   0  0  0  0  0  0  0  0  0  0  0  0
   10.2498  -14.7166   28.6779 O   0  0  0  0  0  0  0  0  0  0  0  0
   10.1496  -16.5636   27.2728 C   0  0  0  0  0  0  0  0  0  0  0  0
   10.8160  -17.8900   26.9642 C   0  0  2  0  0  0  0  0  0  0  0  0
   10.1301  -18.4794   25.8107 N   0  0  0  0  0  0  0  0  0  0  0  0
   10.7408  -18.7745   28.1345 C   0  0  0  0  0  0  0  0  0  0  0  0
   11.7406  -18.8424   29.1190 O   0  0  0  0  0  0  0  0  0  0  0  0
    9.7598  -19.5256   28.3112 O   0  0  0  0  0  0  0  0  0  0  0  0
  2  1  1  1
  2  3  1  0
  4  2  1  0
  5  4  1  0
  5  6  1  6
  7  8  2  0
  7  5  1  0
  9  7  1  0
 10  9  1  0
 11 12  1  0
 10 11  1  6
 12 16  1  0
 13 14  1  0
 13 12  2  0
 14 15  1  0
 15 16  2  0
 17 10  1  0
 17 18  2  0
 20 19  1  0
 21 20  2  0
 23 22  1  1
 22 20  1  0
 23 24  1  0
 24 17  1  0
 25 23  1  0
 26 25  1  0
 27 25  2  0
M  END
$$$$
