LHN.pdb
     RDKit          3D

 27 27  0  0  1  0  0  0  0  0999 V2000
    7.5585  -11.5310   27.7326 C   0  0  0  0  0  0  0  0  0  0  0  0
    6.6441  -12.2946   26.8181 C   0  0  1  0  0  0  0  0  0  0  0  0
    5.8961  -11.4158   25.8538 C   0  0  0  0  0  0  0  0  0  0  0  0
    7.4126  -13.4000   26.1369 C   0  0  0  0  0  0  0  0  0  0  0  0
    6.5412  -14.1830   25.1808 C   0  0  2  0  0  0  0  0  0  0  0  0
    5.4577  -14.8211   25.8613 N   0  0  0  0  0  0  0  0  0  0  0  0
    7.4300  -15.1745   24.4926 C   0  0  0  0  0  0  0  0  0  0  0  0
    7.2340  -16.3897   24.7624 O   0  0  0  0  0  0  0  0  0  0  0  0
    8.4395  -14.7627   23.5845 N   0  0  0  0  0  0  0  0  0  0  0  0
    9.2696  -15.7822   22.8901 C   0  0  1  0  0  0  0  0  0  0  0  0
    9.7272  -15.1107   21.6470 C   0  0  0  0  0  0  0  0  0  0  0  0
    8.6641  -14.6639   20.7326 C   0  0  0  0  0  0  0  0  0  0  0  0
    8.3458  -13.3993   20.2961 C   0  0  0  0  0  0  0  0  0  0  0  0
    7.2800  -13.4404   19.4868 N   0  0  0  0  0  0  0  0  0  0  0  0
    6.8916  -14.7219   19.3850 C   0  0  0  0  0  0  0  0  0  0  0  0
    7.7251  -15.4597   20.1355 N   0  0  0  0  0  0  0  0  0  0  0  0
   10.3232  -16.1346   23.8650 C   0  0  0  0  0  0  0  0  0  0  0  0
   10.4082  -15.5174   24.9925 O   0  0  0  0  0  0  0  0  0  0  0  0
   11.1300  -18.4031   27.6064 N   0  0  0  0  0  0  0  0  0  0  0  0
   10.2554  -18.9214   26.6233 C   0  0  0  0  0  0  0  0  0  0  0  0
    9.1999  -19.5478   27.0123 O   0  0  0  0  0  0  0  0  0  0  0  0
   10.4275  -18.8147   25.1817 C   0  0  0  0  0  0  0  0  0  0  0  0
   11.6698  -18.0429   24.7821 C   0  0  2  0  0  0  0  0  0  0  0  0
   11.3070  -17.1477   23.6795 N   0  0  0  0  0  0  0  0  0  0  0  0
   12.7326  -18.9741   24.3809 C   0  0  0  0  0  0  0  0  0  0  0  0
   13.9056  -19.1777   25.1267 O   0  0  0  0  0  0  0  0  0  0  0  0
   12.6393  -19.6435   23.3316 O   0  0  0  0  0  0  0  0  0  0  0  0
  2  1  1  6
  2  3  1  0
  4  2  1  0
  5  4  1  0
  5  6  1  1
  7  8  2  0
  7  5  1  0
  9  7  1  0
 10  9  1  0
 11 12  1  0
 10 11  1  6
 12 16  1  0
 13 14  1  0
 13 12  2  0
 14 15  1  0
 15 16  2  0
 17 10  1  0
 17 18  2  0
 20 19  1  0
 21 20  2  0
 23 22  1  6
 22 20  1  0
 23 24  1  0
 24 17  1  0
 25 23  1  0
 26 25  1  0
 27 25  2  0
M  END
$$$$
