LHN.pdb
     RDKit          3D

 27 27  0  0  1  0  0  0  0  0999 V2000
    3.6054  -17.4111   20.3289 C   0  0  0  0  0  0  0  0  0  0  0  0
    4.6616  -17.6347   21.3728 C   0  0  1  0  0  0  0  0  0  0  0  0
    4.1880  -18.4701   22.5301 C   0  0  0  0  0  0  0  0  0  0  0  0
    5.9113  -18.1771   20.7243 C   0  0  0  0  0  0  0  0  0  0  0  0
    7.0782  -18.1998   21.6857 C   0  0  2  0  0  0  0  0  0  0  0  0
    6.6844  -17.7926   22.9984 N   0  0  0  0  0  0  0  0  0  0  0  0
    8.1319  -17.2999   21.1144 C   0  0  0  0  0  0  0  0  0  0  0  0
    8.5495  -17.5829   19.9597 O   0  0  0  0  0  0  0  0  0  0  0  0
    8.6316  -16.1871   21.8393 N   0  0  0  0  0  0  0  0  0  0  0  0
    9.8153  -15.4449   21.3308 C   0  0  1  0  0  0  0  0  0  0  0  0
    9.3135  -14.0719   21.0684 C   0  0  0  0  0  0  0  0  0  0  0  0
    8.6253  -13.8771   19.7823 C   0  0  0  0  0  0  0  0  0  0  0  0
    7.4013  -13.3126   19.5100 C   0  0  0  0  0  0  0  0  0  0  0  0
    7.1467  -13.3632   18.1965 N   0  0  0  0  0  0  0  0  0  0  0  0
    8.1927  -13.9566   17.5987 C   0  0  0  0  0  0  0  0  0  0  0  0
    9.0840  -14.2666   18.5536 N   0  0  0  0  0  0  0  0  0  0  0  0
   10.8268  -15.5747   22.4007 C   0  0  0  0  0  0  0  0  0  0  0  0
   10.4747  -15.5870   23.6398 O   0  0  0  0  0  0  0  0  0  0  0  0
   13.3919  -18.4126   22.0101 N   0  0  0  0  0  0  0  0  0  0  0  0
   12.9521  -18.3188   23.3509 C   0  0  0  0  0  0  0  0  0  0  0  0
   12.7163  -19.4084   23.9952 O   0  0  0  0  0  0  0  0  0  0  0  0
   12.7359  -17.0878   24.0973 C   0  0  0  0  0  0  0  0  0  0  0  0
   13.1413  -15.8437   23.3315 C   0  0  2  0  0  0  0  0  0  0  0  0
   12.2300  -15.7008   22.1923 N   0  0  0  0  0  0  0  0  0  0  0  0
   14.5353  -15.9612   22.8837 C   0  0  0  0  0  0  0  0  0  0  0  0
   14.9103  -16.0358   21.5319 O   0  0  0  0  0  0  0  0  0  0  0  0
   15.4739  -16.0018   23.7054 O   0  0  0  0  0  0  0  0  0  0  0  0
  2  1  1  6
  2  3  1  0
  4  2  1  0
  5  4  1  0
  5  6  1  1
  7  8  2  0
  7  5  1  0
  9  7  1  0
 10  9  1  0
 11 12  1  0
 10 11  1  1
 12 16  1  0
 13 14  1  0
 13 12  2  0
 14 15  1  0
 15 16  2  0
 17 10  1  0
 17 18  2  0
 20 19  1  0
 21 20  2  0
 23 22  1  6
 22 20  1  0
 23 24  1  0
 24 17  1  0
 25 23  1  0
 26 25  1  0
 27 25  2  0
M  END
$$$$
