LHN.pdb
     RDKit          3D

 27 27  0  0  1  0  0  0  0  0999 V2000
    7.5283  -12.4558   19.6540 C   0  0  0  0  0  0  0  0  0  0  0  0
    7.9747  -13.4944   20.6426 C   0  0  1  0  0  0  0  0  0  0  0  0
    7.1793  -13.4830   21.9189 C   0  0  0  0  0  0  0  0  0  0  0  0
    8.0074  -14.8487   19.9783 C   0  0  0  0  0  0  0  0  0  0  0  0
    8.7349  -15.8707   20.8224 C   0  0  2  0  0  0  0  0  0  0  0  0
    8.8258  -15.4549   22.1873 N   0  0  0  0  0  0  0  0  0  0  0  0
   10.0876  -16.0627   20.2058 C   0  0  0  0  0  0  0  0  0  0  0  0
   10.1138  -16.5555   19.0464 O   0  0  0  0  0  0  0  0  0  0  0  0
   11.2757  -15.7069   20.8951 N   0  0  0  0  0  0  0  0  0  0  0  0
   12.5943  -15.8689   20.2274 C   0  0  1  0  0  0  0  0  0  0  0  0
   12.7410  -14.6541   19.3858 C   0  0  0  0  0  0  0  0  0  0  0  0
   12.3155  -14.7918   17.9837 C   0  0  0  0  0  0  0  0  0  0  0  0
   11.2095  -14.2876   17.3408 C   0  0  0  0  0  0  0  0  0  0  0  0
   11.1949  -14.6809   16.0611 N   0  0  0  0  0  0  0  0  0  0  0  0
   12.2823  -15.4410   15.8533 C   0  0  0  0  0  0  0  0  0  0  0  0
   12.9581  -15.5083   17.0114 N   0  0  0  0  0  0  0  0  0  0  0  0
   13.5605  -16.0128   21.3366 C   0  0  0  0  0  0  0  0  0  0  0  0
   13.4393  -15.3095   22.4090 O   0  0  0  0  0  0  0  0  0  0  0  0
   17.4026  -17.6972   24.6331 N   0  0  0  0  0  0  0  0  0  0  0  0
   17.0409  -18.6416   23.6446 C   0  0  0  0  0  0  0  0  0  0  0  0
   17.5585  -19.8190   23.7047 O   0  0  0  0  0  0  0  0  0  0  0  0
   16.1190  -18.4159   22.5409 C   0  0  0  0  0  0  0  0  0  0  0  0
   15.5183  -17.0238   22.5370 C   0  0  2  0  0  0  0  0  0  0  0  0
   14.6720  -16.9034   21.3462 N   0  0  0  0  0  0  0  0  0  0  0  0
   16.5865  -16.0156   22.5322 C   0  0  0  0  0  0  0  0  0  0  0  0
   17.1972  -15.5294   23.7002 O   0  0  0  0  0  0  0  0  0  0  0  0
   17.0104  -15.5323   21.4623 O   0  0  0  0  0  0  0  0  0  0  0  0
  2  1  1  6
  2  3  1  0
  4  2  1  0
  5  4  1  0
  5  6  1  1
  7  8  2  0
  7  5  1  0
  9  7  1  0
 10  9  1  0
 11 12  1  0
 10 11  1  1
 12 16  1  0
 13 14  1  0
 13 12  2  0
 14 15  1  0
 15 16  2  0
 17 10  1  0
 17 18  2  0
 20 19  1  0
 21 20  2  0
 23 22  1  6
 22 20  1  0
 23 24  1  0
 24 17  1  0
 25 23  1  0
 26 25  1  0
 27 25  2  0
M  END
$$$$
