LHN.pdb
     RDKit          3D

 27 27  0  0  1  0  0  0  0  0999 V2000
    7.5491  -11.5353   27.1133 C   0  0  0  0  0  0  0  0  0  0  0  0
    6.6189  -12.4921   26.4245 C   0  0  1  0  0  0  0  0  0  0  0  0
    5.8260  -11.8578   25.3151 C   0  0  0  0  0  0  0  0  0  0  0  0
    7.3836  -13.7147   25.9805 C   0  0  0  0  0  0  0  0  0  0  0  0
    6.5021  -14.6856   25.2277 C   0  0  2  0  0  0  0  0  0  0  0  0
    5.5401  -15.2980   26.0902 N   0  0  0  0  0  0  0  0  0  0  0  0
    7.4087  -15.6975   24.5946 C   0  0  0  0  0  0  0  0  0  0  0  0
    7.4812  -16.8213   25.1600 O   0  0  0  0  0  0  0  0  0  0  0  0
    8.1463  -15.4020   23.4190 N   0  0  0  0  0  0  0  0  0  0  0  0
    8.9646  -16.4624   22.7737 C   0  0  1  0  0  0  0  0  0  0  0  0
    9.2868  -15.9218   21.4286 C   0  0  0  0  0  0  0  0  0  0  0  0
   10.0586  -16.8138   20.5485 C   0  0  0  0  0  0  0  0  0  0  0  0
    9.9353  -18.1660   20.3308 C   0  0  0  0  0  0  0  0  0  0  0  0
   10.8665  -18.5853   19.4650 N   0  0  0  0  0  0  0  0  0  0  0  0
   11.6040  -17.5210   19.1088 C   0  0  0  0  0  0  0  0  0  0  0  0
   11.1179  -16.4532   19.7613 N   0  0  0  0  0  0  0  0  0  0  0  0
   10.1097  -16.6596   23.6872 C   0  0  0  0  0  0  0  0  0  0  0  0
   10.6646  -15.6547   24.2718 O   0  0  0  0  0  0  0  0  0  0  0  0
    9.4464  -19.8121   26.6646 N   0  0  0  0  0  0  0  0  0  0  0  0
   10.6905  -19.1419   26.7197 C   0  0  0  0  0  0  0  0  0  0  0  0
   10.9301  -18.3784   27.7285 O   0  0  0  0  0  0  0  0  0  0  0  0
   11.7556  -19.2303   25.7314 C   0  0  0  0  0  0  0  0  0  0  0  0
   11.8790  -17.9883   24.8707 C   0  0  2  0  0  0  0  0  0  0  0  0
   10.6932  -17.9177   24.0117 N   0  0  0  0  0  0  0  0  0  0  0  0
   13.1096  -18.0510   24.0712 C   0  0  0  0  0  0  0  0  0  0  0  0
   14.3949  -17.8901   24.6150 O   0  0  0  0  0  0  0  0  0  0  0  0
   13.0678  -18.2550   22.8406 O   0  0  0  0  0  0  0  0  0  0  0  0
  2  1  1  6
  2  3  1  0
  4  2  1  0
  5  4  1  0
  5  6  1  1
  7  8  2  0
  7  5  1  0
  9  7  1  0
 10  9  1  0
 11 12  1  0
 10 11  1  6
 12 16  1  0
 13 14  1  0
 13 12  2  0
 14 15  1  0
 15 16  2  0
 17 10  1  0
 17 18  2  0
 20 19  1  0
 21 20  2  0
 23 22  1  6
 22 20  1  0
 23 24  1  0
 24 17  1  0
 25 23  1  0
 26 25  1  0
 27 25  2  0
M  END
$$$$
