LHN.pdb
     RDKit          3D

 27 27  0  0  1  0  0  0  0  0999 V2000
    6.5244  -11.9877   27.3302 C   0  0  0  0  0  0  0  0  0  0  0  0
    6.4557  -12.6330   25.9759 C   0  0  1  0  0  0  0  0  0  0  0  0
    7.1261  -11.8274   24.8973 C   0  0  0  0  0  0  0  0  0  0  0  0
    6.9679  -14.0497   26.0606 C   0  0  0  0  0  0  0  0  0  0  0  0
    6.9146  -14.7472   24.7200 C   0  0  2  0  0  0  0  0  0  0  0  0
    5.5756  -15.1026   24.3665 N   0  0  0  0  0  0  0  0  0  0  0  0
    7.8042  -15.9495   24.8179 C   0  0  0  0  0  0  0  0  0  0  0  0
    7.2746  -17.0092   25.2472 O   0  0  0  0  0  0  0  0  0  0  0  0
    9.1724  -15.8939   24.4457 N   0  0  0  0  0  0  0  0  0  0  0  0
   10.0104  -17.1194   24.5253 C   0  0  1  0  0  0  0  0  0  0  0  0
   11.1138  -16.8834   23.5596 C   0  0  0  0  0  0  0  0  0  0  0  0
   10.7279  -16.8631   22.1396 C   0  0  0  0  0  0  0  0  0  0  0  0
   10.9406  -15.9032   21.1782 C   0  0  0  0  0  0  0  0  0  0  0  0
   10.3945  -16.2796   20.0151 N   0  0  0  0  0  0  0  0  0  0  0  0
    9.8227  -17.4805   20.2004 C   0  0  0  0  0  0  0  0  0  0  0  0
   10.0230  -17.8327   21.4803 N   0  0  0  0  0  0  0  0  0  0  0  0
   10.4000  -17.2149   25.9479 C   0  0  0  0  0  0  0  0  0  0  0  0
    9.8878  -16.4216   26.8241 O   0  0  0  0  0  0  0  0  0  0  0  0
    8.1759  -18.6303   28.3316 N   0  0  0  0  0  0  0  0  0  0  0  0
    8.5307  -19.6824   27.4557 C   0  0  0  0  0  0  0  0  0  0  0  0
    7.5958  -20.4430   27.0027 O   0  0  0  0  0  0  0  0  0  0  0  0
    9.8760  -20.0003   26.9996 C   0  0  0  0  0  0  0  0  0  0  0  0
   10.9334  -19.0665   27.5552 C   0  0  2  0  0  0  0  0  0  0  0  0
   11.3316  -18.1502   26.4825 N   0  0  0  0  0  0  0  0  0  0  0  0
   12.0816  -19.8414   28.0438 C   0  0  0  0  0  0  0  0  0  0  0  0
   13.2090  -20.1335   27.2582 O   0  0  0  0  0  0  0  0  0  0  0  0
   12.1077  -20.2873   29.2092 O   0  0  0  0  0  0  0  0  0  0  0  0
  2  1  1  1
  2  3  1  0
  4  2  1  0
  5  4  1  0
  5  6  1  1
  7  8  2  0
  7  5  1  0
  9  7  1  0
 10  9  1  0
 11 12  1  0
 10 11  1  6
 12 16  1  0
 13 14  1  0
 13 12  2  0
 14 15  1  0
 15 16  2  0
 17 10  1  0
 17 18  2  0
 20 19  1  0
 21 20  2  0
 23 22  1  6
 22 20  1  0
 23 24  1  0
 24 17  1  0
 25 23  1  0
 26 25  1  0
 27 25  2  0
M  END
$$$$
