LHN.pdb
     RDKit          3D

 27 27  0  0  1  0  0  0  0  0999 V2000
    7.9448  -12.1977   21.8066 C   0  0  0  0  0  0  0  0  0  0  0  0
    7.6158  -13.3024   20.8441 C   0  0  1  0  0  0  0  0  0  0  0  0
    7.7377  -12.8925   19.4023 C   0  0  0  0  0  0  0  0  0  0  0  0
    8.4272  -14.5292   21.1806 C   0  0  0  0  0  0  0  0  0  0  0  0
    8.1255  -15.6765   20.2431 C   0  0  2  0  0  0  0  0  0  0  0  0
    6.7406  -16.0305   20.2757 N   0  0  0  0  0  0  0  0  0  0  0  0
    9.0038  -16.8191   20.6549 C   0  0  0  0  0  0  0  0  0  0  0  0
    8.6130  -17.5051   21.6370 O   0  0  0  0  0  0  0  0  0  0  0  0
   10.2130  -17.1107   19.9719 N   0  0  0  0  0  0  0  0  0  0  0  0
   11.0055  -18.3101   20.3514 C   0  0  1  0  0  0  0  0  0  0  0  0
   11.9496  -18.5090   19.2224 C   0  0  0  0  0  0  0  0  0  0  0  0
   12.8440  -19.6724   19.3336 C   0  0  0  0  0  0  0  0  0  0  0  0
   12.9387  -20.6249   20.3209 C   0  0  0  0  0  0  0  0  0  0  0  0
   13.9141  -21.4966   20.0354 N   0  0  0  0  0  0  0  0  0  0  0  0
   14.4646  -21.1276   18.8673 C   0  0  0  0  0  0  0  0  0  0  0  0
   13.8205  -20.0285   18.4439 N   0  0  0  0  0  0  0  0  0  0  0  0
   11.6121  -17.9616   21.6534 C   0  0  0  0  0  0  0  0  0  0  0  0
   12.1573  -16.8089   21.8368 O   0  0  0  0  0  0  0  0  0  0  0  0
   10.6603  -16.1470   24.6821 N   0  0  0  0  0  0  0  0  0  0  0  0
   10.6122  -17.3478   25.4276 C   0  0  0  0  0  0  0  0  0  0  0  0
    9.8018  -17.4164   26.4257 O   0  0  0  0  0  0  0  0  0  0  0  0
   11.4013  -18.5448   25.1752 C   0  0  0  0  0  0  0  0  0  0  0  0
   12.3588  -18.3965   24.0091 C   0  0  2  0  0  0  0  0  0  0  0  0
   11.6539  -18.8141   22.7935 N   0  0  0  0  0  0  0  0  0  0  0  0
   13.5567  -19.2159   24.2351 C   0  0  0  0  0  0  0  0  0  0  0  0
   13.8004  -20.4301   23.5719 O   0  0  0  0  0  0  0  0  0  0  0  0
   14.4347  -18.8614   25.0483 O   0  0  0  0  0  0  0  0  0  0  0  0
  2  1  1  1
  2  3  1  0
  4  2  1  0
  5  4  1  0
  5  6  1  1
  7  8  2  0
  7  5  1  0
  9  7  1  0
 10  9  1  0
 11 12  1  0
 10 11  1  6
 12 16  1  0
 13 14  1  0
 13 12  2  0
 14 15  1  0
 15 16  2  0
 17 10  1  0
 17 18  2  0
 20 19  1  0
 21 20  2  0
 23 22  1  1
 22 20  1  0
 23 24  1  0
 24 17  1  0
 25 23  1  0
 26 25  1  0
 27 25  2  0
M  END
$$$$
