VWK.pdb
     RDKit          3D

 31 32  0  0  1  0  0  0  0  0999 V2000
   29.4676  -21.4820  -14.5122 C   0  0  0  0  0  0  0  0  0  0  0  0
   28.3912  -20.8841  -15.3749 C   0  0  2  0  0  0  0  0  0  0  0  0
   28.9488  -20.1846  -16.5909 C   0  0  0  0  0  0  0  0  0  0  0  0
   27.5178  -19.9385  -14.5904 C   0  0  2  0  0  0  0  0  0  0  0  0
   28.2374  -18.7547  -14.2389 N   0  0  0  0  0  0  0  0  0  0  0  0
   26.9639  -20.6074  -13.3812 C   0  0  0  0  0  0  0  0  0  0  0  0
   26.2797  -21.6598  -13.4494 O   0  0  0  0  0  0  0  0  0  0  0  0
   27.2197  -20.0332  -12.1146 N   0  0  0  0  0  0  0  0  0  0  0  0
   26.5605  -20.5966  -10.9075 C   0  0  1  0  0  0  0  0  0  0  0  0
   27.4673  -20.2802   -9.7828 C   0  0  0  0  0  0  0  0  0  0  0  0
   26.9643  -20.4207   -8.4178 C   0  0  0  0  0  0  0  0  0  0  0  0
   25.7430  -20.9605   -8.0017 C   0  0  0  0  0  0  0  0  0  0  0  0
   25.6986  -20.8869   -6.6638 N   0  0  0  0  0  0  0  0  0  0  0  0
   26.8271  -20.3279   -6.1872 C   0  0  0  0  0  0  0  0  0  0  0  0
   27.3129  -20.0280   -4.9333 C   0  0  0  0  0  0  0  0  0  0  0  0
   28.5536  -19.4493   -4.7226 C   0  0  0  0  0  0  0  0  0  0  0  0
   29.3406  -19.1596   -5.8243 C   0  0  0  0  0  0  0  0  0  0  0  0
   28.8848  -19.4455   -7.0731 C   0  0  0  0  0  0  0  0  0  0  0  0
   27.6330  -20.0286   -7.2762 C   0  0  0  0  0  0  0  0  0  0  0  0
   25.1731  -20.1897  -10.8407 C   0  0  0  0  0  0  0  0  0  0  0  0
   24.9126  -18.9473  -11.0017 O   0  0  0  0  0  0  0  0  0  0  0  0
   24.1113  -21.0927  -10.6186 N   0  0  0  0  0  0  0  0  0  0  0  0
   22.7335  -20.5903  -11.0219 C   0  0  1  0  0  0  0  0  0  0  0  0
   22.3732  -21.5066  -12.1588 C   0  0  0  0  0  0  0  0  0  0  0  0
   21.0566  -21.4886  -12.7936 C   0  0  0  0  0  0  0  0  0  0  0  0
   20.8021  -22.3996  -13.9231 C   0  0  0  0  0  0  0  0  0  0  0  0
   19.3551  -22.2468  -14.4403 C   0  0  0  0  0  0  0  0  0  0  0  0
   19.1613  -22.9893  -15.6508 N   0  0  0  0  0  0  0  0  0  0  0  0
   21.9604  -20.7869   -9.7884 C   0  0  0  0  0  0  0  0  0  0  0  0
   22.2988  -21.5464   -8.8555 O   0  0  0  0  0  0  0  0  0  0  0  0
   20.7521  -20.0999   -9.5842 O   0  0  0  0  0  0  0  0  0  0  0  0
  2  1  1  1
  2  3  1  0
  4  2  1  0
  4  5  1  1
  6  4  1  0
  6  7  2  0
  8  6  1  0
  9  8  1  0
  9 10  1  1
 10 11  1  0
 11 19  1  0
 11 12  2  0
 12 13  1  0
 14 15  2  0
 14 13  1  0
 16 15  1  0
 17 16  2  0
 18 17  1  0
 18 19  2  0
 19 14  1  0
 20  9  1  0
 21 20  2  0
 22 20  1  0
 23 24  1  6
 23 22  1  0
 24 25  1  0
 25 26  1  0
 26 27  1  0
 27 28  1  0
 29 23  1  0
 30 29  2  0
 31 29  1  0
M  END
$$$$
