VWK.pdb
     RDKit          3D

 31 32  0  0  1  0  0  0  0  0999 V2000
   29.4390  -20.3207  -12.1477 C   0  0  0  0  0  0  0  0  0  0  0  0
   28.7169  -21.0027  -13.2763 C   0  0  2  0  0  0  0  0  0  0  0  0
   29.2644  -20.6156  -14.6289 C   0  0  0  0  0  0  0  0  0  0  0  0
   27.2342  -20.7354  -13.2237 C   0  0  2  0  0  0  0  0  0  0  0  0
   26.9582  -19.3528  -13.4578 N   0  0  0  0  0  0  0  0  0  0  0  0
   26.6601  -21.1838  -11.9254 C   0  0  0  0  0  0  0  0  0  0  0  0
   26.6132  -22.3955  -11.5941 O   0  0  0  0  0  0  0  0  0  0  0  0
   26.1508  -20.2072  -11.0387 N   0  0  0  0  0  0  0  0  0  0  0  0
   25.3047  -20.6284   -9.8915 C   0  0  1  0  0  0  0  0  0  0  0  0
   25.8864  -19.9572   -8.7089 C   0  0  0  0  0  0  0  0  0  0  0  0
   27.1690  -20.4331   -8.1949 C   0  0  0  0  0  0  0  0  0  0  0  0
   28.0778  -21.2969   -8.8147 C   0  0  0  0  0  0  0  0  0  0  0  0
   29.1161  -21.4625   -7.9829 N   0  0  0  0  0  0  0  0  0  0  0  0
   28.9310  -20.7516   -6.8544 C   0  0  0  0  0  0  0  0  0  0  0  0
   29.6566  -20.5453   -5.7014 C   0  0  0  0  0  0  0  0  0  0  0  0
   29.2227  -19.7256   -4.6727 C   0  0  0  0  0  0  0  0  0  0  0  0
   28.0032  -19.0846   -4.8112 C   0  0  0  0  0  0  0  0  0  0  0  0
   27.2673  -19.2711   -5.9393 C   0  0  0  0  0  0  0  0  0  0  0  0
   27.7122  -20.0991   -6.9711 C   0  0  0  0  0  0  0  0  0  0  0  0
   23.9005  -20.4497  -10.1937 C   0  0  0  0  0  0  0  0  0  0  0  0
   23.1051  -20.2483   -9.2120 O   0  0  0  0  0  0  0  0  0  0  0  0
   23.3814  -20.4780  -11.5060 N   0  0  0  0  0  0  0  0  0  0  0  0
   21.9055  -20.1322  -11.6303 C   0  0  1  0  0  0  0  0  0  0  0  0
   21.7245  -20.0096  -13.1183 C   0  0  0  0  0  0  0  0  0  0  0  0
   22.3754  -18.9628  -13.9040 C   0  0  0  0  0  0  0  0  0  0  0  0
   22.1241  -18.9058  -15.3546 C   0  0  0  0  0  0  0  0  0  0  0  0
   22.8964  -17.7364  -16.0031 C   0  0  0  0  0  0  0  0  0  0  0  0
   22.6800  -17.7008  -17.4194 N   0  0  0  0  0  0  0  0  0  0  0  0
   21.2622  -21.3003  -11.0142 C   0  0  0  0  0  0  0  0  0  0  0  0
   20.2754  -21.2427  -10.2497 O   0  0  0  0  0  0  0  0  0  0  0  0
   21.7414  -22.5967  -11.2661 O   0  0  0  0  0  0  0  0  0  0  0  0
  2  1  1  1
  2  3  1  0
  4  2  1  0
  4  5  1  1
  6  4  1  0
  6  7  2  0
  8  6  1  0
  9  8  1  0
  9 10  1  1
 10 11  1  0
 11 19  1  0
 11 12  2  0
 12 13  1  0
 14 15  2  0
 14 13  1  0
 16 15  1  0
 17 16  2  0
 18 17  1  0
 18 19  2  0
 19 14  1  0
 20  9  1  0
 21 20  2  0
 22 20  1  0
 23 24  1  6
 23 22  1  0
 24 25  1  0
 25 26  1  0
 26 27  1  0
 27 28  1  0
 29 23  1  0
 30 29  2  0
 31 29  1  0
M  END
$$$$
