VWK.pdb
     RDKit          3D

 31 32  0  0  1  0  0  0  0  0999 V2000
   27.3158  -17.9032  -13.7192 C   0  0  0  0  0  0  0  0  0  0  0  0
   27.9346  -19.0703  -14.4372 C   0  0  2  0  0  0  0  0  0  0  0  0
   26.9584  -19.7663  -15.3547 C   0  0  0  0  0  0  0  0  0  0  0  0
   28.5292  -20.0609  -13.4689 C   0  0  2  0  0  0  0  0  0  0  0  0
   29.1791  -21.1260  -14.1659 N   0  0  0  0  0  0  0  0  0  0  0  0
   27.4900  -20.5841  -12.5401 C   0  0  0  0  0  0  0  0  0  0  0  0
   26.8242  -21.6203  -12.7916 O   0  0  0  0  0  0  0  0  0  0  0  0
   27.2480  -19.8858  -11.3347 N   0  0  0  0  0  0  0  0  0  0  0  0
   26.2655  -20.4260  -10.3588 C   0  0  1  0  0  0  0  0  0  0  0  0
   26.6672  -19.8678   -9.0494 C   0  0  0  0  0  0  0  0  0  0  0  0
   27.8250  -20.4440   -8.3688 C   0  0  0  0  0  0  0  0  0  0  0  0
   28.7285  -21.3921   -8.8598 C   0  0  0  0  0  0  0  0  0  0  0  0
   29.6304  -21.6333   -7.8977 N   0  0  0  0  0  0  0  0  0  0  0  0
   29.3618  -20.8916   -6.8064 C   0  0  0  0  0  0  0  0  0  0  0  0
   29.9453  -20.7304   -5.5688 C   0  0  0  0  0  0  0  0  0  0  0  0
   29.4535  -19.8606   -4.6096 C   0  0  0  0  0  0  0  0  0  0  0  0
   28.3232  -19.1195   -4.9103 C   0  0  0  0  0  0  0  0  0  0  0  0
   27.7279  -19.2598   -6.1248 C   0  0  0  0  0  0  0  0  0  0  0  0
   28.2303  -20.1389   -7.0855 C   0  0  0  0  0  0  0  0  0  0  0  0
   24.9110  -20.2331  -10.8307 C   0  0  0  0  0  0  0  0  0  0  0  0
   24.6339  -19.1180  -11.3937 O   0  0  0  0  0  0  0  0  0  0  0  0
   23.9013  -21.2116  -10.7068 N   0  0  0  0  0  0  0  0  0  0  0  0
   22.6092  -20.9123  -11.4513 C   0  0  1  0  0  0  0  0  0  0  0  0
   22.4925  -22.0857  -12.3848 C   0  0  0  0  0  0  0  0  0  0  0  0
   21.4584  -22.1689  -13.4146 C   0  0  0  0  0  0  0  0  0  0  0  0
   21.4355  -23.3443  -14.3025 C   0  0  0  0  0  0  0  0  0  0  0  0
   20.2602  -23.2596  -15.3004 C   0  0  0  0  0  0  0  0  0  0  0  0
   20.3490  -24.2947  -16.2877 N   0  0  0  0  0  0  0  0  0  0  0  0
   21.6258  -20.8781  -10.3605 C   0  0  0  0  0  0  0  0  0  0  0  0
   21.8385  -21.2994   -9.2034 O   0  0  0  0  0  0  0  0  0  0  0  0
   20.3432  -20.3444  -10.5701 O   0  0  0  0  0  0  0  0  0  0  0  0
  2  1  1  1
  2  3  1  0
  4  2  1  0
  4  5  1  6
  6  4  1  0
  6  7  2  0
  8  6  1  0
  9  8  1  0
  9 10  1  1
 10 11  1  0
 11 19  1  0
 11 12  2  0
 12 13  1  0
 14 15  2  0
 14 13  1  0
 16 15  1  0
 17 16  2  0
 18 17  1  0
 18 19  2  0
 19 14  1  0
 20  9  1  0
 21 20  2  0
 22 20  1  0
 23 24  1  6
 23 22  1  0
 24 25  1  0
 25 26  1  0
 26 27  1  0
 27 28  1  0
 29 23  1  0
 30 29  2  0
 31 29  1  0
M  END
$$$$
