VWK.pdb
     RDKit          3D

 31 32  0  0  1  0  0  0  0  0999 V2000
   29.6386  -21.7410  -14.5869 C   0  0  0  0  0  0  0  0  0  0  0  0
   28.6971  -20.9891  -15.4862 C   0  0  2  0  0  0  0  0  0  0  0  0
   29.4125  -20.3001  -16.6232 C   0  0  0  0  0  0  0  0  0  0  0  0
   27.8754  -19.9900  -14.7122 C   0  0  2  0  0  0  0  0  0  0  0  0
   28.6865  -18.9010  -14.2664 N   0  0  0  0  0  0  0  0  0  0  0  0
   27.1827  -20.6451  -13.5688 C   0  0  0  0  0  0  0  0  0  0  0  0
   26.3791  -21.5987  -13.7270 O   0  0  0  0  0  0  0  0  0  0  0  0
   27.4421  -20.1727  -12.2615 N   0  0  0  0  0  0  0  0  0  0  0  0
   26.6595  -20.7115  -11.1185 C   0  0  1  0  0  0  0  0  0  0  0  0
   27.4522  -20.3854   -9.9132 C   0  0  0  0  0  0  0  0  0  0  0  0
   26.8252  -20.5359   -8.6017 C   0  0  0  0  0  0  0  0  0  0  0  0
   25.5180  -20.9415   -8.3139 C   0  0  0  0  0  0  0  0  0  0  0  0
   25.3726  -20.9356   -6.9812 N   0  0  0  0  0  0  0  0  0  0  0  0
   26.5167  -20.5478   -6.3863 C   0  0  0  0  0  0  0  0  0  0  0  0
   26.9299  -20.3791   -5.0828 C   0  0  0  0  0  0  0  0  0  0  0  0
   28.2092  -19.9715   -4.7429 C   0  0  0  0  0  0  0  0  0  0  0  0
   29.1135  -19.7226   -5.7616 C   0  0  0  0  0  0  0  0  0  0  0  0
   28.7311  -19.8815   -7.0568 C   0  0  0  0  0  0  0  0  0  0  0  0
   27.4396  -20.2926   -7.3903 C   0  0  0  0  0  0  0  0  0  0  0  0
   25.2766  -20.2917  -11.1972 C   0  0  0  0  0  0  0  0  0  0  0  0
   25.0454  -19.0428  -11.3520 O   0  0  0  0  0  0  0  0  0  0  0  0
   24.1897  -21.1890  -11.1214 N   0  0  0  0  0  0  0  0  0  0  0  0
   22.8565  -20.6398  -11.6054 C   0  0  1  0  0  0  0  0  0  0  0  0
   22.4268  -21.6702  -12.6131 C   0  0  0  0  0  0  0  0  0  0  0  0
   21.1646  -21.5739  -13.3439 C   0  0  0  0  0  0  0  0  0  0  0  0
   20.1612  -22.6384  -13.1684 C   0  0  0  0  0  0  0  0  0  0  0  0
   18.9241  -22.3828  -14.0566 C   0  0  0  0  0  0  0  0  0  0  0  0
   17.9054  -23.3608  -13.8121 N   0  0  0  0  0  0  0  0  0  0  0  0
   22.0684  -20.6072  -10.3662 C   0  0  0  0  0  0  0  0  0  0  0  0
   22.2532  -21.3661   -9.3907 O   0  0  0  0  0  0  0  0  0  0  0  0
   21.0250  -19.6802  -10.2061 O   0  0  0  0  0  0  0  0  0  0  0  0
  2  1  1  1
  2  3  1  0
  4  2  1  0
  4  5  1  1
  6  4  1  0
  6  7  2  0
  8  6  1  0
  9  8  1  0
  9 10  1  1
 10 11  1  0
 11 19  1  0
 11 12  2  0
 12 13  1  0
 14 15  2  0
 14 13  1  0
 16 15  1  0
 17 16  2  0
 18 17  1  0
 18 19  2  0
 19 14  1  0
 20  9  1  0
 21 20  2  0
 22 20  1  0
 23 24  1  6
 23 22  1  0
 24 25  1  0
 25 26  1  0
 26 27  1  0
 27 28  1  0
 29 23  1  0
 30 29  2  0
 31 29  1  0
M  END
$$$$
