VWK.pdb
     RDKit          3D

 31 32  0  0  1  0  0  0  0  0999 V2000
   28.8372  -21.4847  -14.4840 C   0  0  0  0  0  0  0  0  0  0  0  0
   28.8880  -20.0864  -13.9340 C   0  0  2  0  0  0  0  0  0  0  0  0
   29.6380  -20.0081  -12.6261 C   0  0  0  0  0  0  0  0  0  0  0  0
   27.5058  -19.5070  -13.7720 C   0  0  2  0  0  0  0  0  0  0  0  0
   27.5723  -18.1233  -13.4209 N   0  0  0  0  0  0  0  0  0  0  0  0
   26.7221  -20.2774  -12.7676 C   0  0  0  0  0  0  0  0  0  0  0  0
   26.4602  -21.4984  -12.9123 O   0  0  0  0  0  0  0  0  0  0  0  0
   26.2585  -19.6058  -11.6129 N   0  0  0  0  0  0  0  0  0  0  0  0
   25.4775  -20.3540  -10.5934 C   0  0  1  0  0  0  0  0  0  0  0  0
   25.9355  -19.8308   -9.2881 C   0  0  0  0  0  0  0  0  0  0  0  0
   27.1870  -20.3395   -8.7307 C   0  0  0  0  0  0  0  0  0  0  0  0
   28.1294  -21.1693   -9.3467 C   0  0  0  0  0  0  0  0  0  0  0  0
   29.1190  -21.3856   -8.4686 N   0  0  0  0  0  0  0  0  0  0  0  0
   28.8706  -20.7398   -7.3135 C   0  0  0  0  0  0  0  0  0  0  0  0
   29.5299  -20.6021   -6.1116 C   0  0  0  0  0  0  0  0  0  0  0  0
   29.0387  -19.8411   -5.0637 C   0  0  0  0  0  0  0  0  0  0  0  0
   27.8290  -19.1893   -5.2337 C   0  0  0  0  0  0  0  0  0  0  0  0
   27.1579  -19.3086   -6.4103 C   0  0  0  0  0  0  0  0  0  0  0  0
   27.6603  -20.0778   -7.4611 C   0  0  0  0  0  0  0  0  0  0  0  0
   24.0657  -20.3385  -10.9120 C   0  0  0  0  0  0  0  0  0  0  0  0
   23.5360  -19.2091  -11.1969 O   0  0  0  0  0  0  0  0  0  0  0  0
   23.2635  -21.4996  -10.9309 N   0  0  0  0  0  0  0  0  0  0  0  0
   21.8334  -21.2958  -11.4068 C   0  0  1  0  0  0  0  0  0  0  0  0
   21.5289  -22.6006  -12.0900 C   0  0  0  0  0  0  0  0  0  0  0  0
   20.2070  -22.9135  -12.6298 C   0  0  0  0  0  0  0  0  0  0  0  0
   20.0005  -24.2152  -13.2883 C   0  0  0  0  0  0  0  0  0  0  0  0
   18.5490  -24.3524  -13.7969 C   0  0  0  0  0  0  0  0  0  0  0  0
   18.3455  -25.6203  -14.4333 N   0  0  0  0  0  0  0  0  0  0  0  0
   21.1181  -21.0668  -10.1443 C   0  0  0  0  0  0  0  0  0  0  0  0
   21.5635  -21.3645   -9.0153 O   0  0  0  0  0  0  0  0  0  0  0  0
   19.8448  -20.4732  -10.1410 O   0  0  0  0  0  0  0  0  0  0  0  0
  2  1  1  1
  2  3  1  0
  4  2  1  0
  4  5  1  1
  6  4  1  0
  6  7  2  0
  8  6  1  0
  9  8  1  0
  9 10  1  1
 10 11  1  0
 11 19  1  0
 11 12  2  0
 12 13  1  0
 14 15  2  0
 14 13  1  0
 16 15  1  0
 17 16  2  0
 18 17  1  0
 18 19  2  0
 19 14  1  0
 20  9  1  0
 21 20  2  0
 22 20  1  0
 23 24  1  1
 23 22  1  0
 24 25  1  0
 25 26  1  0
 26 27  1  0
 27 28  1  0
 29 23  1  0
 30 29  2  0
 31 29  1  0
M  END
$$$$
