VWK.pdb
     RDKit          3D

 31 32  0  0  1  0  0  0  0  0999 V2000
   28.6946  -19.2004  -16.5953 C   0  0  0  0  0  0  0  0  0  0  0  0
   27.8266  -19.6260  -15.4438 C   0  0  2  0  0  0  0  0  0  0  0  0
   27.4353  -18.4680  -14.5577 C   0  0  0  0  0  0  0  0  0  0  0  0
   28.4885  -20.7034  -14.6232 C   0  0  2  0  0  0  0  0  0  0  0  0
   28.7921  -21.8431  -15.4302 N   0  0  0  0  0  0  0  0  0  0  0  0
   27.6395  -21.0814  -13.4601 C   0  0  0  0  0  0  0  0  0  0  0  0
   26.5737  -21.7352  -13.5905 O   0  0  0  0  0  0  0  0  0  0  0  0
   28.0520  -20.6876  -12.1663 N   0  0  0  0  0  0  0  0  0  0  0  0
   27.1769  -20.9730  -10.9991 C   0  0  1  0  0  0  0  0  0  0  0  0
   28.0281  -20.7553   -9.8094 C   0  0  0  0  0  0  0  0  0  0  0  0
   27.3834  -20.5989   -8.5072 C   0  0  0  0  0  0  0  0  0  0  0  0
   26.0341  -20.7810   -8.1872 C   0  0  0  0  0  0  0  0  0  0  0  0
   25.8871  -20.5289   -6.8787 N   0  0  0  0  0  0  0  0  0  0  0  0
   27.0699  -20.1926   -6.3301 C   0  0  0  0  0  0  0  0  0  0  0  0
   27.4978  -19.8569   -5.0642 C   0  0  0  0  0  0  0  0  0  0  0  0
   28.8180  -19.5618   -4.7669 C   0  0  0  0  0  0  0  0  0  0  0  0
   29.7495  -19.6069   -5.7903 C   0  0  0  0  0  0  0  0  0  0  0  0
   29.3534  -19.9356   -7.0490 C   0  0  0  0  0  0  0  0  0  0  0  0
   28.0207  -20.2313   -7.3397 C   0  0  0  0  0  0  0  0  0  0  0  0
   25.9183  -20.2676  -11.1139 C   0  0  0  0  0  0  0  0  0  0  0  0
   25.9640  -19.0018  -11.2953 O   0  0  0  0  0  0  0  0  0  0  0  0
   24.6626  -20.9084  -11.0450 N   0  0  0  0  0  0  0  0  0  0  0  0
   23.4709  -20.0508  -11.4421 C   0  0  1  0  0  0  0  0  0  0  0  0
   23.3865  -20.2785  -12.9263 C   0  0  0  0  0  0  0  0  0  0  0  0
   22.3261  -19.7000  -13.7495 C   0  0  0  0  0  0  0  0  0  0  0  0
   22.3107  -19.9925  -15.1934 C   0  0  0  0  0  0  0  0  0  0  0  0
   21.0983  -19.3256  -15.8789 C   0  0  0  0  0  0  0  0  0  0  0  0
   21.5234  -18.4000  -16.8871 N   0  0  0  0  0  0  0  0  0  0  0  0
   22.3850  -20.6478  -10.6530 C   0  0  0  0  0  0  0  0  0  0  0  0
   22.4305  -21.7833  -10.1334 O   0  0  0  0  0  0  0  0  0  0  0  0
   21.1912  -19.9416  -10.4299 O   0  0  0  0  0  0  0  0  0  0  0  0
  2  1  1  6
  2  3  1  0
  4  2  1  0
  4  5  1  6
  6  4  1  0
  6  7  2  0
  8  6  1  0
  9  8  1  0
  9 10  1  1
 10 11  1  0
 11 19  1  0
 11 12  2  0
 12 13  1  0
 14 15  2  0
 14 13  1  0
 16 15  1  0
 17 16  2  0
 18 17  1  0
 18 19  2  0
 19 14  1  0
 20  9  1  0
 21 20  2  0
 22 20  1  0
 23 24  1  6
 23 22  1  0
 24 25  1  0
 25 26  1  0
 26 27  1  0
 27 28  1  0
 29 23  1  0
 30 29  2  0
 31 29  1  0
M  END
$$$$
