VWK.pdb
     RDKit          3D

 31 32  0  0  1  0  0  0  0  0999 V2000
   26.4583  -18.8719  -15.0262 C   0  0  0  0  0  0  0  0  0  0  0  0
   27.8666  -18.9139  -14.5014 C   0  0  2  0  0  0  0  0  0  0  0  0
   28.8650  -18.3496  -15.4831 C   0  0  0  0  0  0  0  0  0  0  0  0
   28.2658  -20.3126  -14.1054 C   0  0  2  0  0  0  0  0  0  0  0  0
   28.2316  -21.1898  -15.2332 N   0  0  0  0  0  0  0  0  0  0  0  0
   27.4000  -20.8202  -13.0058 C   0  0  0  0  0  0  0  0  0  0  0  0
   26.3800  -21.5220  -13.2230 O   0  0  0  0  0  0  0  0  0  0  0  0
   27.7426  -20.4973  -11.6724 N   0  0  0  0  0  0  0  0  0  0  0  0
   26.8356  -20.8976  -10.5649 C   0  0  1  0  0  0  0  0  0  0  0  0
   27.6257  -20.7175   -9.3277 C   0  0  0  0  0  0  0  0  0  0  0  0
   26.9213  -20.6745   -8.0479 C   0  0  0  0  0  0  0  0  0  0  0  0
   25.5989  -21.0430   -7.7803 C   0  0  0  0  0  0  0  0  0  0  0  0
   25.3742  -20.8381   -6.4746 N   0  0  0  0  0  0  0  0  0  0  0  0
   26.4810  -20.3560   -5.8782 C   0  0  0  0  0  0  0  0  0  0  0  0
   26.8156  -19.9900   -4.5927 C   0  0  0  0  0  0  0  0  0  0  0  0
   28.0727  -19.5254   -4.2429 C   0  0  0  0  0  0  0  0  0  0  0  0
   29.0364  -19.4249   -5.2321 C   0  0  0  0  0  0  0  0  0  0  0  0
   28.7320  -19.7797   -6.5090 C   0  0  0  0  0  0  0  0  0  0  0  0
   27.4624  -20.2469   -6.8527 C   0  0  0  0  0  0  0  0  0  0  0  0
   25.5496  -20.2455  -10.6907 C   0  0  0  0  0  0  0  0  0  0  0  0
   25.5440  -19.0001  -10.9839 O   0  0  0  0  0  0  0  0  0  0  0  0
   24.3207  -20.9173  -10.5159 N   0  0  0  0  0  0  0  0  0  0  0  0
   23.1038  -20.2104  -11.0929 C   0  0  1  0  0  0  0  0  0  0  0  0
   23.3593  -20.2794  -12.5734 C   0  0  0  0  0  0  0  0  0  0  0  0
   22.4028  -19.7782  -13.5585 C   0  0  0  0  0  0  0  0  0  0  0  0
   22.4844  -20.2764  -14.9426 C   0  0  0  0  0  0  0  0  0  0  0  0
   22.5914  -19.1066  -15.9450 C   0  0  0  0  0  0  0  0  0  0  0  0
   22.7286  -19.5911  -17.2869 N   0  0  0  0  0  0  0  0  0  0  0  0
   22.0005  -21.0495  -10.6067 C   0  0  0  0  0  0  0  0  0  0  0  0
   20.8282  -20.6496  -10.4410 O   0  0  0  0  0  0  0  0  0  0  0  0
   22.2148  -22.4021  -10.2934 O   0  0  0  0  0  0  0  0  0  0  0  0
  2  1  1  6
  2  3  1  0
  4  2  1  0
  4  5  1  6
  6  4  1  0
  6  7  2  0
  8  6  1  0
  9  8  1  0
  9 10  1  1
 10 11  1  0
 11 19  1  0
 11 12  2  0
 12 13  1  0
 14 15  2  0
 14 13  1  0
 16 15  1  0
 17 16  2  0
 18 17  1  0
 18 19  2  0
 19 14  1  0
 20  9  1  0
 21 20  2  0
 22 20  1  0
 23 24  1  6
 23 22  1  0
 24 25  1  0
 25 26  1  0
 26 27  1  0
 27 28  1  0
 29 23  1  0
 30 29  2  0
 31 29  1  0
M  END
$$$$
