VWK.pdb
     RDKit          3D

 31 32  0  0  1  0  0  0  0  0999 V2000
   26.1610  -21.8430  -18.2642 C   0  0  0  0  0  0  0  0  0  0  0  0
   27.3147  -20.9500  -17.9012 C   0  0  2  0  0  0  0  0  0  0  0  0
   28.1232  -20.5338  -19.1063 C   0  0  0  0  0  0  0  0  0  0  0  0
   28.2113  -21.5967  -16.8763 C   0  0  2  0  0  0  0  0  0  0  0  0
   28.8345  -22.7662  -17.4114 N   0  0  0  0  0  0  0  0  0  0  0  0
   27.4544  -21.9140  -15.6341 C   0  0  0  0  0  0  0  0  0  0  0  0
   27.0235  -23.0686  -15.3862 O   0  0  0  0  0  0  0  0  0  0  0  0
   27.2148  -20.8752  -14.7052 N   0  0  0  0  0  0  0  0  0  0  0  0
   26.4926  -21.1743  -13.4410 C   0  0  1  0  0  0  0  0  0  0  0  0
   27.2081  -20.4151  -12.3926 C   0  0  0  0  0  0  0  0  0  0  0  0
   26.6715  -20.4240  -11.0332 C   0  0  0  0  0  0  0  0  0  0  0  0
   25.3488  -20.2174  -10.6284 C   0  0  0  0  0  0  0  0  0  0  0  0
   25.3113  -20.3121   -9.2916 N   0  0  0  0  0  0  0  0  0  0  0  0
   26.5401  -20.5698   -8.8051 C   0  0  0  0  0  0  0  0  0  0  0  0
   27.0690  -20.7737   -7.5493 C   0  0  0  0  0  0  0  0  0  0  0  0
   28.4095  -21.0440   -7.3293 C   0  0  0  0  0  0  0  0  0  0  0  0
   29.2557  -21.1123   -8.4232 C   0  0  0  0  0  0  0  0  0  0  0  0
   28.7591  -20.9150   -9.6736 C   0  0  0  0  0  0  0  0  0  0  0  0
   27.4067  -20.6429   -9.8861 C   0  0  0  0  0  0  0  0  0  0  0  0
   25.0665  -20.9908  -13.6063 C   0  0  0  0  0  0  0  0  0  0  0  0
   24.6725  -19.9378  -14.2172 O   0  0  0  0  0  0  0  0  0  0  0  0
   24.1077  -21.9146  -13.1381 N   0  0  0  0  0  0  0  0  0  0  0  0
   22.6632  -21.5853  -13.4824 C   0  0  1  0  0  0  0  0  0  0  0  0
   21.9821  -22.9182  -13.3362 C   0  0  0  0  0  0  0  0  0  0  0  0
   20.5418  -23.0874  -13.5199 C   0  0  0  0  0  0  0  0  0  0  0  0
   19.9508  -24.4186  -13.2984 C   0  0  0  0  0  0  0  0  0  0  0  0
   18.4392  -24.4109  -13.6141 C   0  0  0  0  0  0  0  0  0  0  0  0
   17.8969  -25.7365  -13.5615 N   0  0  0  0  0  0  0  0  0  0  0  0
   22.3212  -20.5902  -12.4574 C   0  0  0  0  0  0  0  0  0  0  0  0
   22.8772  -20.5048  -11.3415 O   0  0  0  0  0  0  0  0  0  0  0  0
   21.3115  -19.6415  -12.6902 O   0  0  0  0  0  0  0  0  0  0  0  0
  2  1  1  6
  2  3  1  0
  4  2  1  0
  4  5  1  6
  6  4  1  0
  6  7  2  0
  8  6  1  0
  9  8  1  0
  9 10  1  1
 10 11  1  0
 11 19  1  0
 11 12  2  0
 12 13  1  0
 14 15  2  0
 14 13  1  0
 16 15  1  0
 17 16  2  0
 18 17  1  0
 18 19  2  0
 19 14  1  0
 20  9  1  0
 21 20  2  0
 22 20  1  0
 23 24  1  1
 23 22  1  0
 24 25  1  0
 25 26  1  0
 26 27  1  0
 27 28  1  0
 29 23  1  0
 30 29  2  0
 31 29  1  0
M  END
$$$$
