VWK.pdb
     RDKit          3D

 31 32  0  0  1  0  0  0  0  0999 V2000
   29.2084  -23.1267  -15.5486 C   0  0  0  0  0  0  0  0  0  0  0  0
   28.4174  -22.3108  -16.5331 C   0  0  2  0  0  0  0  0  0  0  0  0
   29.2446  -21.8776  -17.7194 C   0  0  0  0  0  0  0  0  0  0  0  0
   27.7899  -21.1087  -15.8746 C   0  0  2  0  0  0  0  0  0  0  0  0
   28.7839  -20.1422  -15.5275 N   0  0  0  0  0  0  0  0  0  0  0  0
   26.9952  -21.5116  -14.6820 C   0  0  0  0  0  0  0  0  0  0  0  0
   26.0418  -22.3277  -14.7541 O   0  0  0  0  0  0  0  0  0  0  0  0
   27.3294  -20.9523  -13.4271 N   0  0  0  0  0  0  0  0  0  0  0  0
   26.4631  -21.2222  -12.2498 C   0  0  1  0  0  0  0  0  0  0  0  0
   27.3434  -21.0648  -11.0718 C   0  0  0  0  0  0  0  0  0  0  0  0
   26.7315  -20.7942   -9.7725 C   0  0  0  0  0  0  0  0  0  0  0  0
   25.3701  -20.7379   -9.4570 C   0  0  0  0  0  0  0  0  0  0  0  0
   25.2650  -20.4595   -8.1498 N   0  0  0  0  0  0  0  0  0  0  0  0
   26.4865  -20.3319   -7.5978 C   0  0  0  0  0  0  0  0  0  0  0  0
   26.9622  -20.0711   -6.3313 C   0  0  0  0  0  0  0  0  0  0  0  0
   28.3127  -20.0089   -6.0299 C   0  0  0  0  0  0  0  0  0  0  0  0
   29.2254  -20.2188   -7.0498 C   0  0  0  0  0  0  0  0  0  0  0  0
   28.7822  -20.4781   -8.3089 C   0  0  0  0  0  0  0  0  0  0  0  0
   27.4193  -20.5388   -8.6037 C   0  0  0  0  0  0  0  0  0  0  0  0
   25.2347  -20.4608  -12.3286 C   0  0  0  0  0  0  0  0  0  0  0  0
   25.3237  -19.2263  -12.6531 O   0  0  0  0  0  0  0  0  0  0  0  0
   23.9620  -21.0163  -12.0760 N   0  0  0  0  0  0  0  0  0  0  0  0
   22.7803  -20.1493  -12.4827 C   0  0  1  0  0  0  0  0  0  0  0  0
   22.8556  -20.1807  -13.9845 C   0  0  0  0  0  0  0  0  0  0  0  0
   21.7616  -19.7144  -14.8344 C   0  0  0  0  0  0  0  0  0  0  0  0
   21.8995  -19.8345  -16.2963 C   0  0  0  0  0  0  0  0  0  0  0  0
   20.6336  -19.3186  -17.0145 C   0  0  0  0  0  0  0  0  0  0  0  0
   20.7772  -19.4100  -18.4375 N   0  0  0  0  0  0  0  0  0  0  0  0
   21.6474  -20.8774  -11.8959 C   0  0  0  0  0  0  0  0  0  0  0  0
   21.6362  -22.1071  -11.6734 O   0  0  0  0  0  0  0  0  0  0  0  0
   20.4705  -20.1997  -11.5364 O   0  0  0  0  0  0  0  0  0  0  0  0
  2  1  1  1
  2  3  1  0
  4  2  1  0
  4  5  1  1
  6  4  1  0
  6  7  2  0
  8  6  1  0
  9  8  1  0
  9 10  1  1
 10 11  1  0
 11 19  1  0
 11 12  2  0
 12 13  1  0
 14 15  2  0
 14 13  1  0
 16 15  1  0
 17 16  2  0
 18 17  1  0
 18 19  2  0
 19 14  1  0
 20  9  1  0
 21 20  2  0
 22 20  1  0
 23 24  1  6
 23 22  1  0
 24 25  1  0
 25 26  1  0
 26 27  1  0
 27 28  1  0
 29 23  1  0
 30 29  2  0
 31 29  1  0
M  END
$$$$
