VWK.pdb
     RDKit          3D

 31 32  0  0  1  0  0  0  0  0999 V2000
   26.7030  -24.1532  -18.9314 C   0  0  0  0  0  0  0  0  0  0  0  0
   25.6895  -23.9555  -17.8386 C   0  0  2  0  0  0  0  0  0  0  0  0
   24.8156  -22.7472  -18.0742 C   0  0  0  0  0  0  0  0  0  0  0  0
   26.3485  -23.8603  -16.4861 C   0  0  2  0  0  0  0  0  0  0  0  0
   27.0331  -25.0737  -16.1674 N   0  0  0  0  0  0  0  0  0  0  0  0
   25.3532  -23.5148  -15.4342 C   0  0  0  0  0  0  0  0  0  0  0  0
   24.5476  -24.3596  -14.9679 O   0  0  0  0  0  0  0  0  0  0  0  0
   25.3180  -22.1877  -14.9474 N   0  0  0  0  0  0  0  0  0  0  0  0
   24.3704  -21.8308  -13.8592 C   0  0  1  0  0  0  0  0  0  0  0  0
   25.1237  -20.9238  -12.9663 C   0  0  0  0  0  0  0  0  0  0  0  0
   24.7966  -20.9137  -11.5420 C   0  0  0  0  0  0  0  0  0  0  0  0
   25.5697  -21.3888  -10.4777 C   0  0  0  0  0  0  0  0  0  0  0  0
   24.8806  -21.1795   -9.3470 N   0  0  0  0  0  0  0  0  0  0  0  0
   23.6996  -20.5928   -9.6193 C   0  0  0  0  0  0  0  0  0  0  0  0
   22.6332  -20.1514   -8.8668 C   0  0  0  0  0  0  0  0  0  0  0  0
   21.5147  -19.5513   -9.4213 C   0  0  0  0  0  0  0  0  0  0  0  0
   21.4680  -19.3882  -10.7955 C   0  0  0  0  0  0  0  0  0  0  0  0
   22.5074  -19.8152  -11.5613 C   0  0  0  0  0  0  0  0  0  0  0  0
   23.6306  -20.4191  -10.9940 C   0  0  0  0  0  0  0  0  0  0  0  0
   23.0992  -21.4024  -14.4027 C   0  0  0  0  0  0  0  0  0  0  0  0
   23.1221  -20.6239  -15.4179 O   0  0  0  0  0  0  0  0  0  0  0  0
   21.8550  -21.8086  -13.8744 N   0  0  0  0  0  0  0  0  0  0  0  0
   20.6321  -21.2896  -14.6149 C   0  0  1  0  0  0  0  0  0  0  0  0
   20.5567  -22.2089  -15.8028 C   0  0  0  0  0  0  0  0  0  0  0  0
   20.2710  -21.7249  -17.1522 C   0  0  0  0  0  0  0  0  0  0  0  0
   20.1299  -22.7064  -18.2419 C   0  0  0  0  0  0  0  0  0  0  0  0
   19.9824  -21.9988  -19.6065 C   0  0  0  0  0  0  0  0  0  0  0  0
   19.7621  -22.9490  -20.6565 N   0  0  0  0  0  0  0  0  0  0  0  0
   19.5691  -21.4663  -13.6164 C   0  0  0  0  0  0  0  0  0  0  0  0
   19.6499  -22.2214  -12.6240 O   0  0  0  0  0  0  0  0  0  0  0  0
   18.3580  -20.7633  -13.7288 O   0  0  0  0  0  0  0  0  0  0  0  0
  2  1  1  6
  2  3  1  0
  4  2  1  0
  4  5  1  1
  6  4  1  0
  6  7  2  0
  8  6  1  0
  9  8  1  0
  9 10  1  6
 10 11  1  0
 11 19  1  0
 11 12  2  0
 12 13  1  0
 14 15  2  0
 14 13  1  0
 16 15  1  0
 17 16  2  0
 18 17  1  0
 18 19  2  0
 19 14  1  0
 20  9  1  0
 21 20  2  0
 22 20  1  0
 23 24  1  6
 23 22  1  0
 24 25  1  0
 25 26  1  0
 26 27  1  0
 27 28  1  0
 29 23  1  0
 30 29  2  0
 31 29  1  0
M  END
$$$$
