VWK.pdb
     RDKit          3D

 31 32  0  0  1  0  0  0  0  0999 V2000
   28.1028  -18.7488  -16.2240 C   0  0  0  0  0  0  0  0  0  0  0  0
   27.2703  -19.3395  -15.1201 C   0  0  2  0  0  0  0  0  0  0  0  0
   26.6163  -18.2831  -14.2625 C   0  0  0  0  0  0  0  0  0  0  0  0
   28.0801  -20.2750  -14.2591 C   0  0  2  0  0  0  0  0  0  0  0  0
   28.5670  -21.3786  -15.0256 N   0  0  0  0  0  0  0  0  0  0  0  0
   27.2846  -20.7436  -13.0912 C   0  0  0  0  0  0  0  0  0  0  0  0
   26.3996  -21.6305  -13.1933 O   0  0  0  0  0  0  0  0  0  0  0  0
   27.5381  -20.1661  -11.8257 N   0  0  0  0  0  0  0  0  0  0  0  0
   26.7623  -20.6225  -10.6428 C   0  0  1  0  0  0  0  0  0  0  0  0
   27.5274  -20.1519   -9.4678 C   0  0  0  0  0  0  0  0  0  0  0  0
   26.9929  -20.4162   -8.1335 C   0  0  0  0  0  0  0  0  0  0  0  0
   25.7999  -21.0637   -7.7966 C   0  0  0  0  0  0  0  0  0  0  0  0
   25.7087  -21.0821   -6.4593 N   0  0  0  0  0  0  0  0  0  0  0  0
   26.7800  -20.4810   -5.9078 C   0  0  0  0  0  0  0  0  0  0  0  0
   27.2043  -20.2328   -4.6207 C   0  0  0  0  0  0  0  0  0  0  0  0
   28.3943  -19.5869   -4.3292 C   0  0  0  0  0  0  0  0  0  0  0  0
   29.1934  -19.1722   -5.3812 C   0  0  0  0  0  0  0  0  0  0  0  0
   28.7978  -19.4049   -6.6613 C   0  0  0  0  0  0  0  0  0  0  0  0
   27.5967  -20.0565   -6.9459 C   0  0  0  0  0  0  0  0  0  0  0  0
   25.3657  -20.2659  -10.7735 C   0  0  0  0  0  0  0  0  0  0  0  0
   25.0925  -19.0784  -11.1641 O   0  0  0  0  0  0  0  0  0  0  0  0
   24.3093  -21.1616  -10.5018 N   0  0  0  0  0  0  0  0  0  0  0  0
   23.0161  -20.8916  -11.2556 C   0  0  1  0  0  0  0  0  0  0  0  0
   22.9399  -22.0600  -12.1996 C   0  0  0  0  0  0  0  0  0  0  0  0
   21.7646  -22.3239  -13.0276 C   0  0  0  0  0  0  0  0  0  0  0  0
   21.7821  -23.4862  -13.9328 C   0  0  0  0  0  0  0  0  0  0  0  0
   20.4429  -23.6159  -14.6907 C   0  0  0  0  0  0  0  0  0  0  0  0
   20.4282  -24.7919  -15.5098 N   0  0  0  0  0  0  0  0  0  0  0  0
   22.0225  -20.8934  -10.1736 C   0  0  0  0  0  0  0  0  0  0  0  0
   22.2111  -21.3876   -9.0415 O   0  0  0  0  0  0  0  0  0  0  0  0
   20.7576  -20.3121  -10.3630 O   0  0  0  0  0  0  0  0  0  0  0  0
  2  1  1  6
  2  3  1  0
  4  2  1  0
  4  5  1  6
  6  4  1  0
  6  7  2  0
  8  6  1  0
  9  8  1  0
  9 10  1  1
 10 11  1  0
 11 19  1  0
 11 12  2  0
 12 13  1  0
 14 15  2  0
 14 13  1  0
 16 15  1  0
 17 16  2  0
 18 17  1  0
 18 19  2  0
 19 14  1  0
 20  9  1  0
 21 20  2  0
 22 20  1  0
 23 24  1  6
 23 22  1  0
 24 25  1  0
 25 26  1  0
 26 27  1  0
 27 28  1  0
 29 23  1  0
 30 29  2  0
 31 29  1  0
M  END
$$$$
