VWK.pdb
     RDKit          3D

 31 32  0  0  1  0  0  0  0  0999 V2000
   26.4719  -19.1366  -15.1903 C   0  0  0  0  0  0  0  0  0  0  0  0
   27.8780  -19.0953  -14.6597 C   0  0  2  0  0  0  0  0  0  0  0  0
   28.8589  -18.5466  -15.6676 C   0  0  0  0  0  0  0  0  0  0  0  0
   28.3290  -20.4539  -14.1872 C   0  0  2  0  0  0  0  0  0  0  0  0
   28.3215  -21.3948  -15.2629 N   0  0  0  0  0  0  0  0  0  0  0  0
   27.4869  -20.9283  -13.0548 C   0  0  0  0  0  0  0  0  0  0  0  0
   26.5352  -21.7335  -13.2164 O   0  0  0  0  0  0  0  0  0  0  0  0
   27.7727  -20.4519  -11.7545 N   0  0  0  0  0  0  0  0  0  0  0  0
   26.8943  -20.8427  -10.6210 C   0  0  1  0  0  0  0  0  0  0  0  0
   27.7359  -20.7145   -9.4115 C   0  0  0  0  0  0  0  0  0  0  0  0
   27.0867  -20.7341   -8.1023 C   0  0  0  0  0  0  0  0  0  0  0  0
   25.8253  -21.2417   -7.7743 C   0  0  0  0  0  0  0  0  0  0  0  0
   25.6359  -21.0478   -6.4614 N   0  0  0  0  0  0  0  0  0  0  0  0
   26.7079  -20.4411   -5.9174 C   0  0  0  0  0  0  0  0  0  0  0  0
   27.0554  -20.0262   -4.6504 C   0  0  0  0  0  0  0  0  0  0  0  0
   28.2679  -19.4232   -4.3593 C   0  0  0  0  0  0  0  0  0  0  0  0
   29.1713  -19.2294   -5.3905 C   0  0  0  0  0  0  0  0  0  0  0  0
   28.8530  -19.6297   -6.6505 C   0  0  0  0  0  0  0  0  0  0  0  0
   27.6286  -20.2365   -6.9349 C   0  0  0  0  0  0  0  0  0  0  0  0
   25.6281  -20.1444  -10.6856 C   0  0  0  0  0  0  0  0  0  0  0  0
   25.6542  -18.8976  -10.9719 O   0  0  0  0  0  0  0  0  0  0  0  0
   24.3849  -20.7732  -10.4594 N   0  0  0  0  0  0  0  0  0  0  0  0
   23.2043  -20.1692  -11.2042 C   0  0  1  0  0  0  0  0  0  0  0  0
   23.4086  -20.6779  -12.6048 C   0  0  0  0  0  0  0  0  0  0  0  0
   23.3368  -22.0985  -12.9415 C   0  0  0  0  0  0  0  0  0  0  0  0
   23.4762  -22.5003  -14.3520 C   0  0  0  0  0  0  0  0  0  0  0  0
   23.3975  -24.0355  -14.4991 C   0  0  0  0  0  0  0  0  0  0  0  0
   22.0376  -24.4705  -14.6227 N   0  0  0  0  0  0  0  0  0  0  0  0
   22.0595  -20.7470  -10.4876 C   0  0  0  0  0  0  0  0  0  0  0  0
   20.8638  -20.5665  -10.8030 O   0  0  0  0  0  0  0  0  0  0  0  0
   22.2586  -21.5693   -9.3661 O   0  0  0  0  0  0  0  0  0  0  0  0
  2  1  1  6
  2  3  1  0
  4  2  1  0
  4  5  1  6
  6  4  1  0
  6  7  2  0
  8  6  1  0
  9  8  1  0
  9 10  1  1
 10 11  1  0
 11 19  1  0
 11 12  2  0
 12 13  1  0
 14 15  2  0
 14 13  1  0
 16 15  1  0
 17 16  2  0
 18 17  1  0
 18 19  2  0
 19 14  1  0
 20  9  1  0
 21 20  2  0
 22 20  1  0
 23 24  1  6
 23 22  1  0
 24 25  1  0
 25 26  1  0
 26 27  1  0
 27 28  1  0
 29 23  1  0
 30 29  2  0
 31 29  1  0
M  END
$$$$
