VWK.pdb
     RDKit          3D

 31 32  0  0  1  0  0  0  0  0999 V2000
   21.9863  -16.8267  -21.5287 C   0  0  0  0  0  0  0  0  0  0  0  0
   22.2245  -17.7171  -20.3408 C   0  0  2  0  0  0  0  0  0  0  0  0
   20.9502  -18.0439  -19.6003 C   0  0  0  0  0  0  0  0  0  0  0  0
   23.2320  -17.1157  -19.3944 C   0  0  2  0  0  0  0  0  0  0  0  0
   24.4552  -16.8225  -20.0727 N   0  0  0  0  0  0  0  0  0  0  0  0
   23.4672  -18.0128  -18.2297 C   0  0  0  0  0  0  0  0  0  0  0  0
   23.9467  -19.1678  -18.3573 O   0  0  0  0  0  0  0  0  0  0  0  0
   23.1367  -17.5431  -16.9377 N   0  0  0  0  0  0  0  0  0  0  0  0
   23.4021  -18.4032  -15.7548 C   0  0  1  0  0  0  0  0  0  0  0  0
   24.4211  -17.6786  -14.9648 C   0  0  0  0  0  0  0  0  0  0  0  0
   25.8247  -17.8021  -15.3526 C   0  0  0  0  0  0  0  0  0  0  0  0
   26.6779  -16.8008  -15.8278 C   0  0  0  0  0  0  0  0  0  0  0  0
   27.8741  -17.3597  -16.0596 N   0  0  0  0  0  0  0  0  0  0  0  0
   27.8446  -18.6722  -15.7600 C   0  0  0  0  0  0  0  0  0  0  0  0
   28.7610  -19.7005  -15.7904 C   0  0  0  0  0  0  0  0  0  0  0  0
   28.4574  -20.9943  -15.4001 C   0  0  0  0  0  0  0  0  0  0  0  0
   27.1731  -21.2648  -14.9590 C   0  0  0  0  0  0  0  0  0  0  0  0
   26.2494  -20.2677  -14.9191 C   0  0  0  0  0  0  0  0  0  0  0  0
   26.5641  -18.9666  -15.3146 C   0  0  0  0  0  0  0  0  0  0  0  0
   22.1641  -18.8064  -15.1226 C   0  0  0  0  0  0  0  0  0  0  0  0
   21.2005  -17.9645  -15.1182 O   0  0  0  0  0  0  0  0  0  0  0  0
   21.9747  -20.0727  -14.5287 N   0  0  0  0  0  0  0  0  0  0  0  0
   20.5843  -20.3276  -13.9673 C   0  0  1  0  0  0  0  0  0  0  0  0
   20.5492  -21.8270  -13.8540 C   0  0  0  0  0  0  0  0  0  0  0  0
   19.3701  -22.5504  -13.3818 C   0  0  0  0  0  0  0  0  0  0  0  0
   19.3829  -24.0233  -13.4130 C   0  0  0  0  0  0  0  0  0  0  0  0
   18.0667  -24.5990  -12.8466 C   0  0  0  0  0  0  0  0  0  0  0  0
   18.1474  -26.0230  -12.7064 N   0  0  0  0  0  0  0  0  0  0  0  0
   20.6297  -19.6028  -12.6904 C   0  0  0  0  0  0  0  0  0  0  0  0
   21.6809  -19.2380  -12.1216 O   0  0  0  0  0  0  0  0  0  0  0  0
   19.4440  -19.2653  -12.0168 O   0  0  0  0  0  0  0  0  0  0  0  0
  2  1  1  6
  2  3  1  0
  4  2  1  0
  4  5  1  6
  6  4  1  0
  6  7  2  0
  8  6  1  0
  9  8  1  0
  9 10  1  1
 10 11  1  0
 11 19  1  0
 11 12  2  0
 12 13  1  0
 14 15  2  0
 14 13  1  0
 16 15  1  0
 17 16  2  0
 18 17  1  0
 18 19  2  0
 19 14  1  0
 20  9  1  0
 21 20  2  0
 22 20  1  0
 23 24  1  1
 23 22  1  0
 24 25  1  0
 25 26  1  0
 26 27  1  0
 27 28  1  0
 29 23  1  0
 30 29  2  0
 31 29  1  0
M  END
$$$$
