VTG.pdb
     RDKit          3D

 19 18  0  0  1  0  0  0  0  0999 V2000
    9.6701  -14.2749   29.6061 C   0  0  0  0  0  0  0  0  0  0  0  0
    9.8876  -14.7628   28.2239 C   0  0  2  0  0  0  0  0  0  0  0  0
   10.0885  -13.5757   27.3059 C   0  0  0  0  0  0  0  0  0  0  0  0
    8.8621  -15.7196   27.7131 C   0  0  2  0  0  0  0  0  0  0  0  0
    8.8649  -16.8773   28.6190 N   0  0  0  0  0  0  0  0  0  0  0  0
    9.0638  -16.1637   26.3314 C   0  0  0  0  0  0  0  0  0  0  0  0
    9.8848  -17.0838   26.0937 O   0  0  0  0  0  0  0  0  0  0  0  0
    7.2345  -14.0630   23.1519 C   0  0  0  0  0  0  0  0  0  0  0  0
    7.4120  -15.5399   23.0670 C   0  0  1  0  0  0  0  0  0  0  0  0
    7.6066  -15.8494   21.7037 O   0  0  0  0  0  0  0  0  0  0  0  0
    8.6422  -16.0573   23.8304 C   0  0  2  0  0  0  0  0  0  0  0  0
    8.3828  -15.6175   25.2125 N   0  0  0  0  0  0  0  0  0  0  0  0
    9.8892  -15.4847   23.3239 C   0  0  0  0  0  0  0  0  0  0  0  0
   10.2512  -14.3348   23.6850 O   0  0  0  0  0  0  0  0  0  0  0  0
   10.7243  -16.1862   22.4266 N   0  0  0  0  0  0  0  0  0  0  0  0
   12.0092  -15.6023   21.9955 C   0  0  0  0  0  0  0  0  0  0  0  0
   12.7410  -16.5926   21.1988 C   0  0  0  0  0  0  0  0  0  0  0  0
   12.2664  -17.7638   21.1310 O   0  0  0  0  0  0  0  0  0  0  0  0
   13.9216  -16.3073   20.5204 O   0  0  0  0  0  0  0  0  0  0  0  0
  2  1  1  1
  3  2  1  0
  4  5  1  1
  4  2  1  0
  6  4  1  0
  6  7  2  0
  9  8  1  6
  9 10  1  0
  9 11  1  0
 11 12  1  1
 11 13  1  0
 12  6  1  0
 13 14  2  0
 13 15  1  0
 15 16  1  0
 17 19  1  0
 17 16  1  0
 18 17  2  0
M  END
$$$$
