VTG.pdb
     RDKit          3D

 19 18  0  0  1  0  0  0  0  0999 V2000
   10.3715  -19.0747   16.1173 C   0  0  0  0  0  0  0  0  0  0  0  0
   10.3139  -17.9853   17.1201 C   0  0  2  0  0  0  0  0  0  0  0  0
   11.3618  -18.2359   18.1838 C   0  0  0  0  0  0  0  0  0  0  0  0
    8.9632  -17.7135   17.6943 C   0  0  2  0  0  0  0  0  0  0  0  0
    8.0769  -17.3801   16.5698 N   0  0  0  0  0  0  0  0  0  0  0  0
    8.9207  -16.6477   18.6990 C   0  0  0  0  0  0  0  0  0  0  0  0
    8.3419  -15.5671   18.4266 O   0  0  0  0  0  0  0  0  0  0  0  0
    7.1632  -15.3011   19.7911 C   0  0  0  0  0  0  0  0  0  0  0  0
    7.8189  -15.5336   21.1087 C   0  0  1  0  0  0  0  0  0  0  0  0
    7.2959  -16.7422   21.6166 O   0  0  0  0  0  0  0  0  0  0  0  0
    9.3443  -15.7020   21.0164 C   0  0  2  0  0  0  0  0  0  0  0  0
    9.5000  -16.7482   19.9906 N   0  0  0  0  0  0  0  0  0  0  0  0
    9.9327  -16.1231   22.2876 C   0  0  0  0  0  0  0  0  0  0  0  0
   10.1101  -17.3452   22.5298 O   0  0  0  0  0  0  0  0  0  0  0  0
   10.3210  -15.1929   23.2768 N   0  0  0  0  0  0  0  0  0  0  0  0
   11.4185  -15.5138   24.2095 C   0  0  0  0  0  0  0  0  0  0  0  0
   10.8501  -16.0530   25.4493 C   0  0  0  0  0  0  0  0  0  0  0  0
    9.6005  -16.2488   25.4901 O   0  0  0  0  0  0  0  0  0  0  0  0
   11.6133  -16.3566   26.5722 O   0  0  0  0  0  0  0  0  0  0  0  0
  2  1  1  6
  3  2  1  0
  4  5  1  6
  4  2  1  0
  6  4  1  0
  6  7  2  0
  9  8  1  6
  9 10  1  0
  9 11  1  0
 11 12  1  6
 11 13  1  0
 12  6  1  0
 13 14  2  0
 13 15  1  0
 15 16  1  0
 17 19  1  0
 17 16  1  0
 18 17  2  0
M  END
$$$$
