VTG.pdb
     RDKit          3D

 19 18  0  0  1  0  0  0  0  0999 V2000
    6.1909  -20.9004   18.6384 C   0  0  0  0  0  0  0  0  0  0  0  0
    7.1927  -19.8892   19.0502 C   0  0  2  0  0  0  0  0  0  0  0  0
    8.2528  -20.5596   19.8982 C   0  0  0  0  0  0  0  0  0  0  0  0
    6.6371  -18.6592   19.6877 C   0  0  2  0  0  0  0  0  0  0  0  0
    5.5613  -18.1700   18.8135 N   0  0  0  0  0  0  0  0  0  0  0  0
    7.6122  -17.5922   19.9280 C   0  0  0  0  0  0  0  0  0  0  0  0
    8.3811  -17.2399   18.9997 O   0  0  0  0  0  0  0  0  0  0  0  0
    7.0077  -14.2913   20.4139 C   0  0  0  0  0  0  0  0  0  0  0  0
    7.8952  -14.5929   21.5720 C   0  0  1  0  0  0  0  0  0  0  0  0
    7.0533  -14.8339   22.6789 O   0  0  0  0  0  0  0  0  0  0  0  0
    8.7583  -15.8500   21.3755 C   0  0  2  0  0  0  0  0  0  0  0  0
    7.7562  -16.9093   21.1636 N   0  0  0  0  0  0  0  0  0  0  0  0
    9.5880  -16.1402   22.5446 C   0  0  0  0  0  0  0  0  0  0  0  0
    9.0636  -16.5815   23.6001 O   0  0  0  0  0  0  0  0  0  0  0  0
   10.9864  -15.9427   22.5372 N   0  0  0  0  0  0  0  0  0  0  0  0
   11.7866  -16.2457   23.7394 C   0  0  0  0  0  0  0  0  0  0  0  0
   13.2092  -16.0902   23.4186 C   0  0  0  0  0  0  0  0  0  0  0  0
   13.5220  -15.8671   22.2128 O   0  0  0  0  0  0  0  0  0  0  0  0
   14.2216  -16.1756   24.3690 O   0  0  0  0  0  0  0  0  0  0  0  0
  2  1  1  1
  3  2  1  0
  4  5  1  6
  4  2  1  0
  6  4  1  0
  6  7  2  0
  9  8  1  6
  9 10  1  0
  9 11  1  0
 11 12  1  1
 11 13  1  0
 12  6  1  0
 13 14  2  0
 13 15  1  0
 15 16  1  0
 17 19  1  0
 17 16  1  0
 18 17  2  0
M  END
$$$$
