VTG.pdb
     RDKit          3D

 19 18  0  0  1  0  0  0  0  0999 V2000
    7.3848  -11.6978   24.9473 C   0  0  0  0  0  0  0  0  0  0  0  0
    6.4302  -12.3667   25.8621 C   0  0  2  0  0  0  0  0  0  0  0  0
    6.1434  -11.4514   27.0336 C   0  0  0  0  0  0  0  0  0  0  0  0
    6.8098  -13.7461   26.2878 C   0  0  2  0  0  0  0  0  0  0  0  0
    8.0499  -13.6295   27.0684 N   0  0  0  0  0  0  0  0  0  0  0  0
    6.9944  -14.7028   25.1934 C   0  0  0  0  0  0  0  0  0  0  0  0
    5.9921  -15.1119   24.5571 O   0  0  0  0  0  0  0  0  0  0  0  0
    6.5953  -14.7763   22.6338 C   0  0  0  0  0  0  0  0  0  0  0  0
    7.9304  -15.4152   22.4630 C   0  0  1  0  0  0  0  0  0  0  0  0
    8.8574  -14.3720   22.2511 O   0  0  0  0  0  0  0  0  0  0  0  0
    8.4017  -16.1973   23.7000 C   0  0  2  0  0  0  0  0  0  0  0  0
    8.2544  -15.2150   24.7883 N   0  0  0  0  0  0  0  0  0  0  0  0
    9.7903  -16.6405   23.5788 C   0  0  0  0  0  0  0  0  0  0  0  0
   10.7323  -15.8160   23.7079 O   0  0  0  0  0  0  0  0  0  0  0  0
   10.1256  -17.9876   23.3187 N   0  0  0  0  0  0  0  0  0  0  0  0
   11.5386  -18.4132   23.3063 C   0  0  0  0  0  0  0  0  0  0  0  0
   11.6009  -19.8569   23.0566 C   0  0  0  0  0  0  0  0  0  0  0  0
   10.5079  -20.4876   22.9597 O   0  0  0  0  0  0  0  0  0  0  0  0
   12.7943  -20.5594   22.9224 O   0  0  0  0  0  0  0  0  0  0  0  0
  2  1  1  1
  3  2  1  0
  4  5  1  6
  4  2  1  0
  6  4  1  0
  6  7  2  0
  9  8  1  1
  9 10  1  0
  9 11  1  0
 11 12  1  1
 11 13  1  0
 12  6  1  0
 13 14  2  0
 13 15  1  0
 15 16  1  0
 17 19  1  0
 17 16  1  0
 18 17  2  0
M  END
$$$$
