VTG.pdb
     RDKit          3D

 19 18  0  0  1  0  0  0  0  0999 V2000
    6.6819  -12.1964   25.9440 C   0  0  0  0  0  0  0  0  0  0  0  0
    6.8858  -13.3454   26.8573 C   0  0  2  0  0  0  0  0  0  0  0  0
    8.3358  -13.3810   27.2917 C   0  0  0  0  0  0  0  0  0  0  0  0
    6.4044  -14.6629   26.3471 C   0  0  2  0  0  0  0  0  0  0  0  0
    6.2988  -15.5606   27.5064 N   0  0  0  0  0  0  0  0  0  0  0  0
    7.2478  -15.2730   25.3158 C   0  0  0  0  0  0  0  0  0  0  0  0
    8.0908  -16.1437   25.6451 O   0  0  0  0  0  0  0  0  0  0  0  0
    8.1502  -15.6453   20.4023 C   0  0  0  0  0  0  0  0  0  0  0  0
    7.4064  -15.1684   21.6020 C   0  0  1  0  0  0  0  0  0  0  0  0
    6.1469  -15.8051   21.5804 O   0  0  0  0  0  0  0  0  0  0  0  0
    8.0806  -15.5403   22.9328 C   0  0  2  0  0  0  0  0  0  0  0  0
    7.1814  -14.9450   23.9367 N   0  0  0  0  0  0  0  0  0  0  0  0
    9.4297  -14.9862   23.0437 C   0  0  0  0  0  0  0  0  0  0  0  0
    9.5945  -13.7559   23.2510 O   0  0  0  0  0  0  0  0  0  0  0  0
   10.5823  -15.7942   22.9270 N   0  0  0  0  0  0  0  0  0  0  0  0
   11.9257  -15.1942   23.0405 C   0  0  0  0  0  0  0  0  0  0  0  0
   12.9345  -16.2347   22.8164 C   0  0  0  0  0  0  0  0  0  0  0  0
   12.5442  -17.4380   22.7795 O   0  0  0  0  0  0  0  0  0  0  0  0
   14.2882  -15.9635   22.6442 O   0  0  0  0  0  0  0  0  0  0  0  0
  2  1  1  6
  3  2  1  0
  4  5  1  1
  4  2  1  0
  6  4  1  0
  6  7  2  0
  9  8  1  6
  9 10  1  0
  9 11  1  0
 11 12  1  1
 11 13  1  0
 12  6  1  0
 13 14  2  0
 13 15  1  0
 15 16  1  0
 17 19  1  0
 17 16  1  0
 18 17  2  0
M  END
$$$$
