VTG.pdb
     RDKit          3D

 19 18  0  0  1  0  0  0  0  0999 V2000
    7.9103  -19.9724   18.6690 C   0  0  0  0  0  0  0  0  0  0  0  0
    6.6429  -19.3296   19.0889 C   0  0  2  0  0  0  0  0  0  0  0  0
    5.5115  -20.3253   18.9448 C   0  0  0  0  0  0  0  0  0  0  0  0
    6.3435  -18.0189   18.4404 C   0  0  2  0  0  0  0  0  0  0  0  0
    6.3710  -18.2416   16.9876 N   0  0  0  0  0  0  0  0  0  0  0  0
    7.2551  -16.9288   18.7978 C   0  0  0  0  0  0  0  0  0  0  0  0
    8.3445  -16.8108   18.1845 O   0  0  0  0  0  0  0  0  0  0  0  0
    7.9919  -12.4804   20.6245 C   0  0  0  0  0  0  0  0  0  0  0  0
    7.2888  -13.6428   20.0128 C   0  0  1  0  0  0  0  0  0  0  0  0
    7.2775  -13.4246   18.6183 O   0  0  0  0  0  0  0  0  0  0  0  0
    7.9939  -14.9871   20.2565 C   0  0  2  0  0  0  0  0  0  0  0  0
    6.9918  -15.9715   19.8118 N   0  0  0  0  0  0  0  0  0  0  0  0
    8.3346  -15.1862   21.6650 C   0  0  0  0  0  0  0  0  0  0  0  0
    7.4316  -15.1860   22.5416 O   0  0  0  0  0  0  0  0  0  0  0  0
    9.6662  -15.3851   22.0917 N   0  0  0  0  0  0  0  0  0  0  0  0
    9.9553  -15.6992   23.5042 C   0  0  0  0  0  0  0  0  0  0  0  0
   11.4078  -15.7876   23.6867 C   0  0  0  0  0  0  0  0  0  0  0  0
   12.1398  -15.6825   22.6597 O   0  0  0  0  0  0  0  0  0  0  0  0
   12.0131  -15.9796   24.9246 O   0  0  0  0  0  0  0  0  0  0  0  0
  2  1  1  6
  3  2  1  0
  4  5  1  6
  4  2  1  0
  6  4  1  0
  6  7  2  0
  9  8  1  1
  9 10  1  0
  9 11  1  0
 11 12  1  1
 11 13  1  0
 12  6  1  0
 13 14  2  0
 13 15  1  0
 15 16  1  0
 17 19  1  0
 17 16  1  0
 18 17  2  0
M  END
$$$$
