VTG.pdb
     RDKit          3D

 19 18  0  0  1  0  0  0  0  0999 V2000
    8.0578  -12.3698   20.3876 C   0  0  0  0  0  0  0  0  0  0  0  0
    8.4615  -13.3003   19.3073 C   0  0  2  0  0  0  0  0  0  0  0  0
    7.8731  -12.8221   17.9968 C   0  0  0  0  0  0  0  0  0  0  0  0
    8.1879  -14.7440   19.5694 C   0  0  2  0  0  0  0  0  0  0  0  0
    6.7299  -14.9230   19.5115 N   0  0  0  0  0  0  0  0  0  0  0  0
    8.7050  -15.2507   20.8434 C   0  0  0  0  0  0  0  0  0  0  0  0
    7.9212  -15.3898   21.8146 O   0  0  0  0  0  0  0  0  0  0  0  0
    8.4343  -17.5309   22.3040 C   0  0  0  0  0  0  0  0  0  0  0  0
    9.9201  -17.5327   22.4152 C   0  0  1  0  0  0  0  0  0  0  0  0
   10.4111  -18.2534   21.3054 O   0  0  0  0  0  0  0  0  0  0  0  0
   10.5438  -16.1287   22.3572 C   0  0  2  0  0  0  0  0  0  0  0  0
   10.0607  -15.6053   21.0674 N   0  0  0  0  0  0  0  0  0  0  0  0
   12.0055  -16.1704   22.3911 C   0  0  0  0  0  0  0  0  0  0  0  0
   12.6717  -15.8867   21.3618 O   0  0  0  0  0  0  0  0  0  0  0  0
   12.7170  -16.5224   23.5593 N   0  0  0  0  0  0  0  0  0  0  0  0
   14.1842  -16.3727   23.6099 C   0  0  0  0  0  0  0  0  0  0  0  0
   14.6550  -16.7276   24.9527 C   0  0  0  0  0  0  0  0  0  0  0  0
   13.7858  -17.0098   25.8282 O   0  0  0  0  0  0  0  0  0  0  0  0
   16.0000  -16.7683   25.3059 O   0  0  0  0  0  0  0  0  0  0  0  0
  2  1  1  1
  3  2  1  0
  4  5  1  1
  4  2  1  0
  6  4  1  0
  6  7  2  0
  9  8  1  6
  9 10  1  0
  9 11  1  0
 11 12  1  6
 11 13  1  0
 12  6  1  0
 13 14  2  0
 13 15  1  0
 15 16  1  0
 17 19  1  0
 17 16  1  0
 18 17  2  0
M  END
$$$$
