VTG.pdb
     RDKit          3D

 19 18  0  0  1  0  0  0  0  0999 V2000
    6.1951  -20.7429   23.6273 C   0  0  0  0  0  0  0  0  0  0  0  0
    5.0519  -19.8720   23.2663 C   0  0  2  0  0  0  0  0  0  0  0  0
    3.7792  -20.6919   23.2870 C   0  0  0  0  0  0  0  0  0  0  0  0
    5.2143  -19.0914   22.0044 C   0  0  2  0  0  0  0  0  0  0  0  0
    5.1865  -20.0559   20.8954 N   0  0  0  0  0  0  0  0  0  0  0  0
    6.4313  -18.2786   21.9316 C   0  0  0  0  0  0  0  0  0  0  0  0
    7.5005  -18.8046   21.5351 O   0  0  0  0  0  0  0  0  0  0  0  0
    6.9756  -15.2276   20.0937 C   0  0  0  0  0  0  0  0  0  0  0  0
    7.4403  -14.9067   21.4725 C   0  0  1  0  0  0  0  0  0  0  0  0
    6.3818  -14.2254   22.1111 O   0  0  0  0  0  0  0  0  0  0  0  0
    7.7577  -16.1494   22.3203 C   0  0  2  0  0  0  0  0  0  0  0  0
    6.4936  -16.9056   22.2849 N   0  0  0  0  0  0  0  0  0  0  0  0
    8.1231  -15.8039   23.6939 C   0  0  0  0  0  0  0  0  0  0  0  0
    7.2333  -15.4888   24.5261 O   0  0  0  0  0  0  0  0  0  0  0  0
    9.4646  -15.8115   24.1356 N   0  0  0  0  0  0  0  0  0  0  0  0
    9.7875  -15.4856   25.5381 C   0  0  0  0  0  0  0  0  0  0  0  0
   11.2430  -15.5212   25.7143 C   0  0  0  0  0  0  0  0  0  0  0  0
   11.7081  -15.2182   26.8516 O   0  0  0  0  0  0  0  0  0  0  0  0
   12.1282  -15.8693   24.6990 O   0  0  0  0  0  0  0  0  0  0  0  0
  2  1  1  6
  3  2  1  0
  4  5  1  6
  4  2  1  0
  6  4  1  0
  6  7  2  0
  9  8  1  6
  9 10  1  0
  9 11  1  0
 11 12  1  1
 11 13  1  0
 12  6  1  0
 13 14  2  0
 13 15  1  0
 15 16  1  0
 17 19  1  0
 17 16  1  0
 18 17  2  0
M  END
$$$$
