VTG.pdb
     RDKit          3D

 19 18  0  0  1  0  0  0  0  0999 V2000
    8.1025  -12.4431   27.1386 C   0  0  0  0  0  0  0  0  0  0  0  0
    6.8848  -12.5623   26.3027 C   0  0  2  0  0  0  0  0  0  0  0  0
    5.7876  -11.7083   26.9020 C   0  0  0  0  0  0  0  0  0  0  0  0
    6.4379  -13.9574   26.0164 C   0  0  2  0  0  0  0  0  0  0  0  0
    6.2208  -14.6143   27.3135 N   0  0  0  0  0  0  0  0  0  0  0  0
    7.3639  -14.7492   25.2024 C   0  0  0  0  0  0  0  0  0  0  0  0
    8.2197  -15.4720   25.7700 O   0  0  0  0  0  0  0  0  0  0  0  0
    7.6663  -14.1425   21.0261 C   0  0  0  0  0  0  0  0  0  0  0  0
    7.6810  -15.5266   21.5775 C   0  0  1  0  0  0  0  0  0  0  0  0
    8.5111  -16.2934   20.7318 O   0  0  0  0  0  0  0  0  0  0  0  0
    8.2682  -15.6185   22.9954 C   0  0  2  0  0  0  0  0  0  0  0  0
    7.3658  -14.7606   23.7833 N   0  0  0  0  0  0  0  0  0  0  0  0
    9.6446  -15.1273   23.0575 C   0  0  0  0  0  0  0  0  0  0  0  0
    9.8730  -13.9027   23.2361 O   0  0  0  0  0  0  0  0  0  0  0  0
   10.7539  -15.9913   22.9242 N   0  0  0  0  0  0  0  0  0  0  0  0
   12.1247  -15.4739   23.1002 C   0  0  0  0  0  0  0  0  0  0  0  0
   13.0761  -16.5798   22.9493 C   0  0  0  0  0  0  0  0  0  0  0  0
   12.6115  -17.7557   22.8949 O   0  0  0  0  0  0  0  0  0  0  0  0
   14.4528  -16.3983   22.8638 O   0  0  0  0  0  0  0  0  0  0  0  0
  2  1  1  1
  3  2  1  0
  4  5  1  1
  4  2  1  0
  6  4  1  0
  6  7  2  0
  9  8  1  6
  9 10  1  0
  9 11  1  0
 11 12  1  1
 11 13  1  0
 12  6  1  0
 13 14  2  0
 13 15  1  0
 15 16  1  0
 17 19  1  0
 17 16  1  0
 18 17  2  0
M  END
$$$$
