VTG.pdb
     RDKit          3D

 19 18  0  0  1  0  0  0  0  0999 V2000
    7.3935  -13.1046   21.2009 C   0  0  0  0  0  0  0  0  0  0  0  0
    8.5002  -13.2095   20.2211 C   0  0  2  0  0  0  0  0  0  0  0  0
    8.3508  -12.1142   19.1866 C   0  0  0  0  0  0  0  0  0  0  0  0
    8.6891  -14.5580   19.6097 C   0  0  2  0  0  0  0  0  0  0  0  0
    7.5253  -14.8059   18.7464 N   0  0  0  0  0  0  0  0  0  0  0  0
    8.8455  -15.6557   20.5677 C   0  0  0  0  0  0  0  0  0  0  0  0
    7.8231  -16.2126   21.0386 O   0  0  0  0  0  0  0  0  0  0  0  0
    9.8406  -18.8479   20.1575 C   0  0  0  0  0  0  0  0  0  0  0  0
   10.7535  -18.4007   21.2468 C   0  0  1  0  0  0  0  0  0  0  0  0
   11.9553  -17.9923   20.6294 O   0  0  0  0  0  0  0  0  0  0  0  0
   10.2202  -17.1981   22.0425 C   0  0  2  0  0  0  0  0  0  0  0  0
   10.0986  -16.1492   21.0149 N   0  0  0  0  0  0  0  0  0  0  0  0
   11.1373  -16.7866   23.1050 C   0  0  0  0  0  0  0  0  0  0  0  0
   11.7702  -15.7029   23.0114 O   0  0  0  0  0  0  0  0  0  0  0  0
   11.3455  -17.5728   24.2597 N   0  0  0  0  0  0  0  0  0  0  0  0
   12.2706  -17.1149   25.3143 C   0  0  0  0  0  0  0  0  0  0  0  0
   12.3046  -18.1141   26.3873 C   0  0  0  0  0  0  0  0  0  0  0  0
   11.5248  -19.1066   26.2954 O   0  0  0  0  0  0  0  0  0  0  0  0
   13.1462  -18.0228   27.4913 O   0  0  0  0  0  0  0  0  0  0  0  0
  2  1  1  6
  3  2  1  0
  4  5  1  1
  4  2  1  0
  6  4  1  0
  6  7  2  0
  9  8  1  6
  9 10  1  0
  9 11  1  0
 11 12  1  6
 11 13  1  0
 12  6  1  0
 13 14  2  0
 13 15  1  0
 15 16  1  0
 17 19  1  0
 17 16  1  0
 18 17  2  0
M  END
$$$$
