VTG.pdb
     RDKit          3D

 19 18  0  0  1  0  0  0  0  0999 V2000
    5.4125  -18.9590   21.9541 C   0  0  0  0  0  0  0  0  0  0  0  0
    4.5683  -17.8544   21.4415 C   0  0  2  0  0  0  0  0  0  0  0  0
    3.1182  -18.2895   21.4617 C   0  0  0  0  0  0  0  0  0  0  0  0
    4.9824  -17.2897   20.1234 C   0  0  2  0  0  0  0  0  0  0  0  0
    4.7273  -18.3259   19.1122 N   0  0  0  0  0  0  0  0  0  0  0  0
    6.3782  -16.8500   20.0494 C   0  0  0  0  0  0  0  0  0  0  0  0
    7.2449  -17.6276   19.5789 O   0  0  0  0  0  0  0  0  0  0  0  0
    7.2899  -13.5652   18.6316 C   0  0  0  0  0  0  0  0  0  0  0  0
    8.1241  -13.7061   19.8580 C   0  0  1  0  0  0  0  0  0  0  0  0
    7.4844  -12.9636   20.8737 O   0  0  0  0  0  0  0  0  0  0  0  0
    8.2419  -15.1546   20.3598 C   0  0  2  0  0  0  0  0  0  0  0  0
    6.8357  -15.5779   20.4809 N   0  0  0  0  0  0  0  0  0  0  0  0
    8.9275  -15.2399   21.6490 C   0  0  0  0  0  0  0  0  0  0  0  0
    8.2833  -15.0944   22.7203 O   0  0  0  0  0  0  0  0  0  0  0  0
   10.3149  -15.4864   21.7436 N   0  0  0  0  0  0  0  0  0  0  0  0
   10.9465  -15.6862   23.0622 C   0  0  0  0  0  0  0  0  0  0  0  0
   12.3790  -15.9371   22.8732 C   0  0  0  0  0  0  0  0  0  0  0  0
   13.0886  -16.1174   23.9054 O   0  0  0  0  0  0  0  0  0  0  0  0
   12.9888  -15.9857   21.6236 O   0  0  0  0  0  0  0  0  0  0  0  0
  2  1  1  6
  3  2  1  0
  4  5  1  6
  4  2  1  0
  6  4  1  0
  6  7  2  0
  9  8  1  6
  9 10  1  0
  9 11  1  0
 11 12  1  1
 11 13  1  0
 12  6  1  0
 13 14  2  0
 13 15  1  0
 15 16  1  0
 17 19  1  0
 17 16  1  0
 18 17  2  0
M  END
$$$$
