VTG.pdb
     RDKit          3D

 19 18  0  0  1  0  0  0  0  0999 V2000
    8.0704  -12.9792   27.1514 C   0  0  0  0  0  0  0  0  0  0  0  0
    7.0433  -12.6792   26.1262 C   0  0  2  0  0  0  0  0  0  0  0  0
    6.1435  -11.5734   26.6361 C   0  0  0  0  0  0  0  0  0  0  0  0
    6.2790  -13.8574   25.6207 C   0  0  2  0  0  0  0  0  0  0  0  0
    5.6372  -14.4855   26.7846 N   0  0  0  0  0  0  0  0  0  0  0  0
    7.0776  -14.8477   24.8936 C   0  0  0  0  0  0  0  0  0  0  0  0
    7.5080  -15.8586   25.5018 O   0  0  0  0  0  0  0  0  0  0  0  0
    8.6084  -16.5689   20.4900 C   0  0  0  0  0  0  0  0  0  0  0  0
    7.8293  -15.6762   21.3934 C   0  0  1  0  0  0  0  0  0  0  0  0
    6.5034  -16.1602   21.4003 O   0  0  0  0  0  0  0  0  0  0  0  0
    8.3249  -15.6884   22.8487 C   0  0  2  0  0  0  0  0  0  0  0  0
    7.4097  -14.7471   23.5176 N   0  0  0  0  0  0  0  0  0  0  0  0
    9.7127  -15.2413   22.9647 C   0  0  0  0  0  0  0  0  0  0  0  0
    9.9967  -14.0204   22.8534 O   0  0  0  0  0  0  0  0  0  0  0  0
   10.7721  -16.1443   23.2038 N   0  0  0  0  0  0  0  0  0  0  0  0
   12.1602  -15.6532   23.3008 C   0  0  0  0  0  0  0  0  0  0  0  0
   13.0499  -16.7860   23.5767 C   0  0  0  0  0  0  0  0  0  0  0  0
   12.5191  -17.9093   23.8172 O   0  0  0  0  0  0  0  0  0  0  0  0
   14.4374  -16.6843   23.5864 O   0  0  0  0  0  0  0  0  0  0  0  0
  2  1  1  1
  3  2  1  0
  4  5  1  1
  4  2  1  0
  6  4  1  0
  6  7  2  0
  9  8  1  6
  9 10  1  0
  9 11  1  0
 11 12  1  1
 11 13  1  0
 12  6  1  0
 13 14  2  0
 13 15  1  0
 15 16  1  0
 17 19  1  0
 17 16  1  0
 18 17  2  0
M  END
$$$$
