CMN.pdb
     RDKit          3D

 23 22  0  0  1  0  0  0  0  0999 V2000
   20.5328  -13.7471  -16.0870 N   0  0  0  0  0  0  0  0  0  0  0  0
   20.6951  -12.5337  -16.8556 C   0  0  1  0  0  0  0  0  0  0  0  0
   19.3234  -12.1101  -17.3348 C   0  0  0  0  0  0  0  0  0  0  0  0
   18.5933  -13.4528  -18.3199 S   0  0  0  0  0  0  0  0  0  0  0  0
   21.2895  -11.4429  -16.0312 C   0  0  0  0  0  0  0  0  0  0  0  0
   20.7744  -11.1593  -14.9318 O   0  0  0  0  0  0  0  0  0  0  0  0
   27.8832  -12.2493  -15.0927 C   0  0  0  0  0  0  0  0  0  0  0  0
   27.0788  -10.7925  -15.8292 S   0  0  0  0  0  0  0  0  0  0  0  0
   25.2992  -10.9148  -15.4244 C   0  0  0  0  0  0  0  0  0  0  0  0
   24.5579   -9.7131  -15.9378 C   0  0  0  0  0  0  0  0  0  0  0  0
   23.0915   -9.7057  -15.7131 C   0  0  2  0  0  0  0  0  0  0  0  0
   22.4247  -10.7437  -16.4993 N   0  0  0  0  0  0  0  0  0  0  0  0
   22.4673   -8.3879  -15.9565 C   0  0  0  0  0  0  0  0  0  0  0  0
   21.8632   -8.1389  -17.0237 O   0  0  0  0  0  0  0  0  0  0  0  0
   18.8706   -4.7092  -16.3923 N   0  0  0  0  0  0  0  0  0  0  0  0
   19.5264   -5.1694  -15.2429 C   0  0  0  0  0  0  0  0  0  0  0  0
   19.4173   -4.4436  -14.2047 O   0  0  0  0  0  0  0  0  0  0  0  0
   20.2944   -6.4260  -15.2445 C   0  0  0  0  0  0  0  0  0  0  0  0
   21.7615   -6.1501  -15.1343 C   0  0  2  0  0  0  0  0  0  0  0  0
   22.5415   -7.3490  -14.9596 N   0  0  0  0  0  0  0  0  0  0  0  0
   22.1085   -5.2224  -14.0267 C   0  0  0  0  0  0  0  0  0  0  0  0
   22.5338   -5.6653  -12.8056 O   0  0  0  0  0  0  0  0  0  0  0  0
   22.0174   -3.9697  -14.1899 O   0  0  0  0  0  0  0  0  0  0  0  0
  2  1  1  1
  3  2  1  0
  4  3  1  0
  5  2  1  0
  5 12  1  0
  6  5  2  0
  7  8  1  0
  8  9  1  0
  9 10  1  0
 11 10  1  6
 11 12  1  0
 11 13  1  0
 13 20  1  0
 13 14  2  0
 16 17  2  0
 16 15  1  0
 18 16  1  0
 19 21  1  0
 19 18  1  1
 20 19  1  0
 21 22  1  0
 23 21  2  0
M  END
$$$$
