CMN.pdb
     RDKit          3D

 23 22  0  0  1  0  0  0  0  0999 V2000
   28.6623  -21.4783  -15.8701 N   0  0  0  0  0  0  0  0  0  0  0  0
   28.2667  -20.5191  -14.8638 C   0  0  1  0  0  0  0  0  0  0  0  0
   27.8257  -19.2612  -15.5807 C   0  0  0  0  0  0  0  0  0  0  0  0
   27.5765  -17.9348  -14.3621 S   0  0  0  0  0  0  0  0  0  0  0  0
   27.1413  -21.0349  -14.0329 C   0  0  0  0  0  0  0  0  0  0  0  0
   26.2830  -21.7712  -14.5580 O   0  0  0  0  0  0  0  0  0  0  0  0
   26.6492  -19.1474   -7.9000 C   0  0  0  0  0  0  0  0  0  0  0  0
   25.5575  -20.5928   -7.7253 S   0  0  0  0  0  0  0  0  0  0  0  0
   25.1096  -21.1201   -9.4186 C   0  0  0  0  0  0  0  0  0  0  0  0
   26.2000  -20.7618  -10.3881 C   0  0  0  0  0  0  0  0  0  0  0  0
   25.9632  -21.1359  -11.8041 C   0  0  2  0  0  0  0  0  0  0  0  0
   27.0571  -20.6876  -12.6658 N   0  0  0  0  0  0  0  0  0  0  0  0
   24.6633  -20.6634  -12.3261 C   0  0  0  0  0  0  0  0  0  0  0  0
   24.5780  -19.6306  -13.0274 O   0  0  0  0  0  0  0  0  0  0  0  0
   19.6648  -19.8083  -13.2300 N   0  0  0  0  0  0  0  0  0  0  0  0
   20.8614  -19.1307  -13.4985 C   0  0  0  0  0  0  0  0  0  0  0  0
   20.7942  -18.1855  -14.3461 O   0  0  0  0  0  0  0  0  0  0  0  0
   22.1214  -19.4967  -12.8298 C   0  0  0  0  0  0  0  0  0  0  0  0
   22.2203  -20.9810  -12.6624 C   0  0  2  0  0  0  0  0  0  0  0  0
   23.4519  -21.3893  -12.0358 N   0  0  0  0  0  0  0  0  0  0  0  0
   22.0949  -21.7309  -13.9390 C   0  0  0  0  0  0  0  0  0  0  0  0
   23.0434  -22.6187  -14.3638 O   0  0  0  0  0  0  0  0  0  0  0  0
   21.0831  -21.5632  -14.6822 O   0  0  0  0  0  0  0  0  0  0  0  0
  2  1  1  6
  3  2  1  0
  4  3  1  0
  5  2  1  0
  5 12  1  0
  6  5  2  0
  7  8  1  0
  8  9  1  0
  9 10  1  0
 11 10  1  1
 11 12  1  0
 11 13  1  0
 13 20  1  0
 13 14  2  0
 16 17  2  0
 16 15  1  0
 18 16  1  0
 19 21  1  0
 19 18  1  6
 20 19  1  0
 21 22  1  0
 23 21  2  0
M  END
$$$$
