CMN.pdb
     RDKit          3D

 23 22  0  0  1  0  0  0  0  0999 V2000
   18.0368  -13.2290  -15.6439 N   0  0  0  0  0  0  0  0  0  0  0  0
   18.2532  -11.9335  -16.2475 C   0  0  1  0  0  0  0  0  0  0  0  0
   16.9333  -11.1933  -16.2248 C   0  0  0  0  0  0  0  0  0  0  0  0
   17.1549   -9.5530  -16.9776 S   0  0  0  0  0  0  0  0  0  0  0  0
   19.2738  -11.1474  -15.4971 C   0  0  0  0  0  0  0  0  0  0  0  0
   19.1376  -10.9865  -14.2683 O   0  0  0  0  0  0  0  0  0  0  0  0
   25.1761  -13.7522  -14.6758 C   0  0  0  0  0  0  0  0  0  0  0  0
   24.8146  -12.2423  -15.6251 S   0  0  0  0  0  0  0  0  0  0  0  0
   23.1872  -11.6374  -15.0495 C   0  0  0  0  0  0  0  0  0  0  0  0
   22.7804  -10.4097  -15.8141 C   0  0  0  0  0  0  0  0  0  0  0  0
   21.4415   -9.8561  -15.4953 C   0  0  2  0  0  0  0  0  0  0  0  0
   20.3804  -10.5946  -16.1801 N   0  0  0  0  0  0  0  0  0  0  0  0
   21.3256   -8.4077  -15.7676 C   0  0  0  0  0  0  0  0  0  0  0  0
   20.8137   -7.9815  -16.8269 O   0  0  0  0  0  0  0  0  0  0  0  0
   20.8923   -3.3859  -15.2473 N   0  0  0  0  0  0  0  0  0  0  0  0
   19.8333   -4.3033  -15.2558 C   0  0  0  0  0  0  0  0  0  0  0  0
   18.6677   -3.8152  -15.3951 O   0  0  0  0  0  0  0  0  0  0  0  0
   20.0660   -5.7505  -15.1140 C   0  0  0  0  0  0  0  0  0  0  0  0
   21.5307   -6.0449  -15.0213 C   0  0  2  0  0  0  0  0  0  0  0  0
   21.8048   -7.4434  -14.8088 N   0  0  0  0  0  0  0  0  0  0  0  0
   22.2215   -5.2831  -13.9487 C   0  0  0  0  0  0  0  0  0  0  0  0
   22.7647   -4.0469  -14.1610 O   0  0  0  0  0  0  0  0  0  0  0  0
   22.3265   -5.7706  -12.7844 O   0  0  0  0  0  0  0  0  0  0  0  0
  2  1  1  1
  3  2  1  0
  4  3  1  0
  5  2  1  0
  5 12  1  0
  6  5  2  0
  7  8  1  0
  8  9  1  0
  9 10  1  0
 11 10  1  6
 11 12  1  0
 11 13  1  0
 13 20  1  0
 13 14  2  0
 16 17  2  0
 16 15  1  0
 18 16  1  0
 19 21  1  0
 19 18  1  1
 20 19  1  0
 21 22  1  0
 23 21  2  0
M  END
$$$$
