CMN.pdb
     RDKit          3D

 23 22  0  0  1  0  0  0  0  0999 V2000
   29.7345  -32.3027  -15.7729 N   0  0  0  0  0  0  0  0  0  0  0  0
   29.1018  -31.5622  -16.8410 C   0  0  1  0  0  0  0  0  0  0  0  0
   27.9352  -32.3874  -17.3396 C   0  0  0  0  0  0  0  0  0  0  0  0
   27.2622  -31.6223  -18.8457 S   0  0  0  0  0  0  0  0  0  0  0  0
   28.6044  -30.2395  -16.3656 C   0  0  0  0  0  0  0  0  0  0  0  0
   28.9316  -29.8361  -15.2322 O   0  0  0  0  0  0  0  0  0  0  0  0
   30.1986  -23.2764  -16.4253 C   0  0  0  0  0  0  0  0  0  0  0  0
   30.4313  -25.0644  -16.6712 S   0  0  0  0  0  0  0  0  0  0  0  0
   28.7619  -25.8111  -16.7066 C   0  0  0  0  0  0  0  0  0  0  0  0
   28.8538  -27.2995  -16.8901 C   0  0  0  0  0  0  0  0  0  0  0  0
   27.5639  -28.0261  -16.9856 C   0  0  2  0  0  0  0  0  0  0  0  0
   27.7715  -29.4586  -17.1981 N   0  0  0  0  0  0  0  0  0  0  0  0
   26.6547  -27.4748  -18.0125 C   0  0  0  0  0  0  0  0  0  0  0  0
   26.5572  -27.9962  -19.1459 O   0  0  0  0  0  0  0  0  0  0  0  0
   21.7760  -28.5736  -18.7567 N   0  0  0  0  0  0  0  0  0  0  0  0
   22.3206  -27.4775  -18.0748 C   0  0  0  0  0  0  0  0  0  0  0  0
   21.5476  -26.4833  -17.9004 O   0  0  0  0  0  0  0  0  0  0  0  0
   23.7103  -27.4856  -17.5876 C   0  0  0  0  0  0  0  0  0  0  0  0
   24.4633  -26.3044  -18.1152 C   0  0  2  0  0  0  0  0  0  0  0  0
   25.8514  -26.3116  -17.7287 N   0  0  0  0  0  0  0  0  0  0  0  0
   23.8871  -24.9999  -17.6984 C   0  0  0  0  0  0  0  0  0  0  0  0
   24.5428  -24.1437  -16.8586 O   0  0  0  0  0  0  0  0  0  0  0  0
   22.7484  -24.6399  -18.1204 O   0  0  0  0  0  0  0  0  0  0  0  0
  2  1  1  1
  3  2  1  0
  4  3  1  0
  5  2  1  0
  5 12  1  0
  6  5  2  0
  7  8  1  0
  8  9  1  0
  9 10  1  0
 11 10  1  6
 11 12  1  0
 11 13  1  0
 13 20  1  0
 13 14  2  0
 16 17  2  0
 16 15  1  0
 18 16  1  0
 19 21  1  0
 19 18  1  1
 20 19  1  0
 21 22  1  0
 23 21  2  0
M  END
$$$$
