CMN.pdb
     RDKit          3D

 23 22  0  0  1  0  0  0  0  0999 V2000
   22.2346  -12.8366  -18.8189 N   0  0  0  0  0  0  0  0  0  0  0  0
   21.3218  -12.5668  -17.7311 C   0  0  1  0  0  0  0  0  0  0  0  0
   21.0070  -13.8870  -17.0615 C   0  0  0  0  0  0  0  0  0  0  0  0
   20.4134  -15.0654  -18.3127 S   0  0  0  0  0  0  0  0  0  0  0  0
   21.9244  -11.6375  -16.7330 C   0  0  0  0  0  0  0  0  0  0  0  0
   21.3166  -11.4073  -15.6691 O   0  0  0  0  0  0  0  0  0  0  0  0
   28.0161  -12.9567  -14.5979 C   0  0  0  0  0  0  0  0  0  0  0  0
   27.5177  -11.4616  -15.5078 S   0  0  0  0  0  0  0  0  0  0  0  0
   25.6967  -11.3495  -15.3759 C   0  0  0  0  0  0  0  0  0  0  0  0
   25.1974  -10.0910  -16.0271 C   0  0  0  0  0  0  0  0  0  0  0  0
   23.7252   -9.9654  -16.1611 C   0  0  2  0  0  0  0  0  0  0  0  0
   23.1718  -11.0292  -16.9991 N   0  0  0  0  0  0  0  0  0  0  0  0
   23.2918   -8.6396  -16.6507 C   0  0  0  0  0  0  0  0  0  0  0  0
   23.5816   -8.2418  -17.8012 O   0  0  0  0  0  0  0  0  0  0  0  0
   20.8395   -4.3669  -17.5833 N   0  0  0  0  0  0  0  0  0  0  0  0
   20.5144   -5.6214  -18.1159 C   0  0  0  0  0  0  0  0  0  0  0  0
   19.6814   -5.6256  -19.0764 O   0  0  0  0  0  0  0  0  0  0  0  0
   21.1110   -6.8606  -17.5895 C   0  0  0  0  0  0  0  0  0  0  0  0
   21.9323   -6.5767  -16.3706 C   0  0  2  0  0  0  0  0  0  0  0  0
   22.5176   -7.7656  -15.8048 N   0  0  0  0  0  0  0  0  0  0  0  0
   21.1746   -5.8912  -15.2919 C   0  0  0  0  0  0  0  0  0  0  0  0
   20.5390   -4.6970  -15.4876 O   0  0  0  0  0  0  0  0  0  0  0  0
   21.0962   -6.4077  -14.1381 O   0  0  0  0  0  0  0  0  0  0  0  0
  2  1  1  6
  3  2  1  0
  4  3  1  0
  5  2  1  0
  5 12  1  0
  6  5  2  0
  7  8  1  0
  8  9  1  0
  9 10  1  0
 11 10  1  6
 11 12  1  0
 11 13  1  0
 13 20  1  0
 13 14  2  0
 16 17  2  0
 16 15  1  0
 18 16  1  0
 19 21  1  0
 19 18  1  6
 20 19  1  0
 21 22  1  0
 23 21  2  0
M  END
$$$$
