CMN.pdb
     RDKit          3D

 23 22  0  0  1  0  0  0  0  0999 V2000
   19.1209  -12.1663  -15.9917 N   0  0  0  0  0  0  0  0  0  0  0  0
   19.1929  -10.7414  -16.2239 C   0  0  1  0  0  0  0  0  0  0  0  0
   17.9461  -10.1192  -15.6332 C   0  0  0  0  0  0  0  0  0  0  0  0
   16.5063  -10.5993  -16.6347 S   0  0  0  0  0  0  0  0  0  0  0  0
   20.3969  -10.1450  -15.5776 C   0  0  0  0  0  0  0  0  0  0  0  0
   20.6302  -10.3912  -14.3779 O   0  0  0  0  0  0  0  0  0  0  0  0
   25.7857   -9.4772  -18.6524 C   0  0  0  0  0  0  0  0  0  0  0  0
   26.0666   -7.9811  -17.6551 S   0  0  0  0  0  0  0  0  0  0  0  0
   24.8440   -8.0196  -16.2951 C   0  0  0  0  0  0  0  0  0  0  0  0
   23.5348   -8.5759  -16.7787 C   0  0  0  0  0  0  0  0  0  0  0  0
   22.4676   -8.7148  -15.7575 C   0  0  2  0  0  0  0  0  0  0  0  0
   21.2584   -9.3111  -16.3253 N   0  0  0  0  0  0  0  0  0  0  0  0
   22.1474   -7.4472  -15.0676 C   0  0  0  0  0  0  0  0  0  0  0  0
   22.9092   -6.9660  -14.1993 O   0  0  0  0  0  0  0  0  0  0  0  0
   21.8540   -2.8180  -13.1375 N   0  0  0  0  0  0  0  0  0  0  0  0
   21.4803   -3.1556  -14.4449 C   0  0  0  0  0  0  0  0  0  0  0  0
   20.8520   -2.2640  -15.0981 O   0  0  0  0  0  0  0  0  0  0  0  0
   21.8039   -4.4704  -15.0240 C   0  0  0  0  0  0  0  0  0  0  0  0
   20.6997   -5.4481  -14.7678 C   0  0  2  0  0  0  0  0  0  0  0  0
   20.9373   -6.7294  -15.3826 N   0  0  0  0  0  0  0  0  0  0  0  0
   19.3682   -4.9708  -15.2228 C   0  0  0  0  0  0  0  0  0  0  0  0
   18.6191   -4.0870  -14.4975 O   0  0  0  0  0  0  0  0  0  0  0  0
   18.8829   -5.3795  -16.3191 O   0  0  0  0  0  0  0  0  0  0  0  0
  2  1  1  1
  3  2  1  0
  4  3  1  0
  5  2  1  0
  5 12  1  0
  6  5  2  0
  7  8  1  0
  8  9  1  0
  9 10  1  0
 11 10  1  6
 11 12  1  0
 11 13  1  0
 13 20  1  0
 13 14  2  0
 16 17  2  0
 16 15  1  0
 18 16  1  0
 19 21  1  0
 19 18  1  6
 20 19  1  0
 21 22  1  0
 23 21  2  0
M  END
$$$$
