CMN.pdb
     RDKit          3D

 23 22  0  0  1  0  0  0  0  0999 V2000
   22.0730  -12.2236  -18.9456 N   0  0  0  0  0  0  0  0  0  0  0  0
   21.3258  -12.2358  -17.7084 C   0  0  1  0  0  0  0  0  0  0  0  0
   21.3535  -13.6510  -17.1725 C   0  0  0  0  0  0  0  0  0  0  0  0
   20.5149  -14.7530  -18.3511 S   0  0  0  0  0  0  0  0  0  0  0  0
   21.9254  -11.3141  -16.7015 C   0  0  0  0  0  0  0  0  0  0  0  0
   21.4078  -11.2258  -15.5708 O   0  0  0  0  0  0  0  0  0  0  0  0
   27.9210   -9.6456  -16.8024 C   0  0  0  0  0  0  0  0  0  0  0  0
   27.4853  -10.8355  -15.4963 S   0  0  0  0  0  0  0  0  0  0  0  0
   25.6673  -10.7653  -15.3074 C   0  0  0  0  0  0  0  0  0  0  0  0
   25.1009   -9.6095  -16.0824 C   0  0  0  0  0  0  0  0  0  0  0  0
   23.6209   -9.5298  -16.1471 C   0  0  2  0  0  0  0  0  0  0  0  0
   23.0685  -10.5531  -17.0347 N   0  0  0  0  0  0  0  0  0  0  0  0
   23.1215   -8.1904  -16.5239 C   0  0  0  0  0  0  0  0  0  0  0  0
   22.8114   -7.9179  -17.7052 O   0  0  0  0  0  0  0  0  0  0  0  0
   20.7142   -3.7511  -16.4039 N   0  0  0  0  0  0  0  0  0  0  0  0
   20.1273   -5.0052  -16.6177 C   0  0  0  0  0  0  0  0  0  0  0  0
   18.9361   -5.0001  -17.0620 O   0  0  0  0  0  0  0  0  0  0  0  0
   20.8570   -6.2547  -16.3438 C   0  0  0  0  0  0  0  0  0  0  0  0
   22.2416   -5.9631  -15.8553 C   0  0  2  0  0  0  0  0  0  0  0  0
   22.9792   -7.1570  -15.5286 N   0  0  0  0  0  0  0  0  0  0  0  0
   22.2751   -5.0739  -14.6654 C   0  0  0  0  0  0  0  0  0  0  0  0
   22.5028   -3.7296  -14.7610 O   0  0  0  0  0  0  0  0  0  0  0  0
   22.0889   -5.5496  -13.5064 O   0  0  0  0  0  0  0  0  0  0  0  0
  2  1  1  6
  3  2  1  0
  4  3  1  0
  5  2  1  0
  5 12  1  0
  6  5  2  0
  7  8  1  0
  8  9  1  0
  9 10  1  0
 11 10  1  6
 11 12  1  0
 11 13  1  0
 13 20  1  0
 13 14  2  0
 16 17  2  0
 16 15  1  0
 18 16  1  0
 19 21  1  0
 19 18  1  1
 20 19  1  0
 21 22  1  0
 23 21  2  0
M  END
$$$$
