CMN.pdb
     RDKit          3D

 23 22  0  0  1  0  0  0  0  0999 V2000
   26.9103  -21.2271  -10.6772 N   0  0  0  0  0  0  0  0  0  0  0  0
   25.5506  -21.0000  -11.1118 C   0  0  1  0  0  0  0  0  0  0  0  0
   24.7904  -20.4108   -9.9432 C   0  0  0  0  0  0  0  0  0  0  0  0
   24.8213  -21.5862   -8.5562 S   0  0  0  0  0  0  0  0  0  0  0  0
   25.4981  -20.0542  -12.2631 C   0  0  0  0  0  0  0  0  0  0  0  0
   26.3593  -19.1574  -12.3556 O   0  0  0  0  0  0  0  0  0  0  0  0
   28.6314  -19.6532  -15.9675 C   0  0  0  0  0  0  0  0  0  0  0  0
   27.5021  -19.0794  -17.2741 S   0  0  0  0  0  0  0  0  0  0  0  0
   25.8942  -18.7451  -16.4685 C   0  0  0  0  0  0  0  0  0  0  0  0
   25.7652  -19.5388  -15.1994 C   0  0  0  0  0  0  0  0  0  0  0  0
   24.4752  -19.4110  -14.4781 C   0  0  2  0  0  0  0  0  0  0  0  0
   24.4794  -20.1810  -13.2341 N   0  0  0  0  0  0  0  0  0  0  0  0
   23.3027  -19.7666  -15.3053 C   0  0  0  0  0  0  0  0  0  0  0  0
   22.9962  -20.9599  -15.5244 O   0  0  0  0  0  0  0  0  0  0  0  0
   18.3169  -19.1718  -15.9010 N   0  0  0  0  0  0  0  0  0  0  0  0
   18.9320  -18.7645  -14.7098 C   0  0  0  0  0  0  0  0  0  0  0  0
   18.1607  -18.5617  -13.7196 O   0  0  0  0  0  0  0  0  0  0  0  0
   20.3909  -18.5868  -14.6171 C   0  0  0  0  0  0  0  0  0  0  0  0
   21.0485  -18.9170  -15.9207 C   0  0  2  0  0  0  0  0  0  0  0  0
   22.4776  -18.7360  -15.8845 N   0  0  0  0  0  0  0  0  0  0  0  0
   20.5240  -18.1284  -17.0655 C   0  0  0  0  0  0  0  0  0  0  0  0
   19.5568  -18.6077  -17.9040 O   0  0  0  0  0  0  0  0  0  0  0  0
   20.9695  -16.9658  -17.2985 O   0  0  0  0  0  0  0  0  0  0  0  0
  2  1  1  1
  3  2  1  0
  4  3  1  0
  5  2  1  0
  5 12  1  0
  6  5  2  0
  7  8  1  0
  8  9  1  0
  9 10  1  0
 11 10  1  6
 11 12  1  0
 11 13  1  0
 13 20  1  0
 13 14  2  0
 16 17  2  0
 16 15  1  0
 18 16  1  0
 19 21  1  0
 19 18  1  1
 20 19  1  0
 21 22  1  0
 23 21  2  0
M  END
$$$$
