CMN.pdb
     RDKit          3D

 23 22  0  0  1  0  0  0  0  0999 V2000
   26.3531  -20.0215   -8.7665 N   0  0  0  0  0  0  0  0  0  0  0  0
   25.4589  -20.7412   -9.6451 C   0  0  1  0  0  0  0  0  0  0  0  0
   24.0461  -20.4896   -9.1640 C   0  0  0  0  0  0  0  0  0  0  0  0
   23.8465  -21.1956   -7.5002 S   0  0  0  0  0  0  0  0  0  0  0  0
   25.5910  -20.2762  -11.0555 C   0  0  0  0  0  0  0  0  0  0  0  0
   25.5768  -19.0535  -11.2987 O   0  0  0  0  0  0  0  0  0  0  0  0
   28.1656  -23.9853  -15.5759 C   0  0  0  0  0  0  0  0  0  0  0  0
   28.1924  -22.4060  -16.4795 S   0  0  0  0  0  0  0  0  0  0  0  0
   26.9096  -21.3453  -15.7210 C   0  0  0  0  0  0  0  0  0  0  0  0
   26.7543  -21.6675  -14.2618 C   0  0  0  0  0  0  0  0  0  0  0  0
   25.7861  -20.8330  -13.5087 C   0  0  2  0  0  0  0  0  0  0  0  0
   25.7305  -21.2191  -12.0987 N   0  0  0  0  0  0  0  0  0  0  0  0
   24.4313  -20.8283  -14.1000 C   0  0  0  0  0  0  0  0  0  0  0  0
   23.5171  -21.5505  -13.6432 O   0  0  0  0  0  0  0  0  0  0  0  0
   19.6595  -19.3125  -14.2529 N   0  0  0  0  0  0  0  0  0  0  0  0
   20.7620  -18.5077  -14.5689 C   0  0  0  0  0  0  0  0  0  0  0  0
   20.5039  -17.3935  -15.1242 O   0  0  0  0  0  0  0  0  0  0  0  0
   22.1391  -18.9341  -14.2684 C   0  0  0  0  0  0  0  0  0  0  0  0
   22.7647  -19.5843  -15.4628 C   0  0  2  0  0  0  0  0  0  0  0  0
   24.1294  -19.9830  -15.2283 N   0  0  0  0  0  0  0  0  0  0  0  0
   22.7481  -18.7306  -16.6788 C   0  0  0  0  0  0  0  0  0  0  0  0
   21.9043  -18.9658  -17.7281 O   0  0  0  0  0  0  0  0  0  0  0  0
   23.5326  -17.7410  -16.7759 O   0  0  0  0  0  0  0  0  0  0  0  0
  2  1  1  1
  3  2  1  0
  4  3  1  0
  5  2  1  0
  5 12  1  0
  6  5  2  0
  7  8  1  0
  8  9  1  0
  9 10  1  0
 11 10  1  6
 11 12  1  0
 11 13  1  0
 13 20  1  0
 13 14  2  0
 16 17  2  0
 16 15  1  0
 18 16  1  0
 19 21  1  0
 19 18  1  1
 20 19  1  0
 21 22  1  0
 23 21  2  0
M  END
$$$$
