CMN.pdb
     RDKit          3D

 23 22  0  0  1  0  0  0  0  0999 V2000
   19.9726  -13.5907  -17.6063 N   0  0  0  0  0  0  0  0  0  0  0  0
   20.3891  -12.2940  -18.0903 C   0  0  1  0  0  0  0  0  0  0  0  0
   19.1437  -11.5392  -18.5025 C   0  0  0  0  0  0  0  0  0  0  0  0
   18.4220  -12.3331  -19.9707 S   0  0  0  0  0  0  0  0  0  0  0  0
   21.1070  -11.5240  -17.0345 C   0  0  0  0  0  0  0  0  0  0  0  0
   20.7211  -11.6047  -15.8518 O   0  0  0  0  0  0  0  0  0  0  0  0
   27.0564  -11.4605  -15.0305 C   0  0  0  0  0  0  0  0  0  0  0  0
   26.9765   -9.7467  -15.6371 S   0  0  0  0  0  0  0  0  0  0  0  0
   25.2194   -9.2441  -15.5604 C   0  0  0  0  0  0  0  0  0  0  0  0
   24.3826  -10.1144  -16.4545 C   0  0  0  0  0  0  0  0  0  0  0  0
   22.9179   -9.8838  -16.4048 C   0  0  2  0  0  0  0  0  0  0  0  0
   22.2122  -10.7144  -17.3807 N   0  0  0  0  0  0  0  0  0  0  0  0
   22.5420   -8.4629  -16.5633 C   0  0  0  0  0  0  0  0  0  0  0  0
   22.6086   -7.8901  -17.6738 O   0  0  0  0  0  0  0  0  0  0  0  0
   20.8138   -6.1485  -18.2021 N   0  0  0  0  0  0  0  0  0  0  0  0
   19.8617   -6.0338  -17.1807 C   0  0  0  0  0  0  0  0  0  0  0  0
   18.6595   -5.8486  -17.5509 O   0  0  0  0  0  0  0  0  0  0  0  0
   20.2396   -6.1269  -15.7604 C   0  0  0  0  0  0  0  0  0  0  0  0
   21.7175   -6.3166  -15.6170 C   0  0  2  0  0  0  0  0  0  0  0  0
   22.0857   -7.6970  -15.4302 N   0  0  0  0  0  0  0  0  0  0  0  0
   22.3091   -5.5378  -14.4984 C   0  0  0  0  0  0  0  0  0  0  0  0
   22.7733   -4.2622  -14.6583 O   0  0  0  0  0  0  0  0  0  0  0  0
   22.3999   -6.0475  -13.3425 O   0  0  0  0  0  0  0  0  0  0  0  0
  2  1  1  1
  3  2  1  0
  4  3  1  0
  5  2  1  0
  5 12  1  0
  6  5  2  0
  7  8  1  0
  8  9  1  0
  9 10  1  0
 11 10  1  6
 11 12  1  0
 11 13  1  0
 13 20  1  0
 13 14  2  0
 16 17  2  0
 16 15  1  0
 18 16  1  0
 19 21  1  0
 19 18  1  1
 20 19  1  0
 21 22  1  0
 23 21  2  0
M  END
$$$$
