CMN.pdb
     RDKit          3D

 23 22  0  0  1  0  0  0  0  0999 V2000
   21.7514  -13.4712  -17.4928 N   0  0  0  0  0  0  0  0  0  0  0  0
   20.8469  -13.0420  -16.4502 C   0  0  1  0  0  0  0  0  0  0  0  0
   20.7318  -14.1734  -15.4515 C   0  0  0  0  0  0  0  0  0  0  0  0
   20.1495  -15.6687  -16.3067 S   0  0  0  0  0  0  0  0  0  0  0  0
   21.3533  -11.8219  -15.7589 C   0  0  0  0  0  0  0  0  0  0  0  0
   20.7219  -11.3661  -14.7852 O   0  0  0  0  0  0  0  0  0  0  0  0
   27.3821  -11.9311  -16.4774 C   0  0  0  0  0  0  0  0  0  0  0  0
   27.0520  -10.8910  -15.0211 S   0  0  0  0  0  0  0  0  0  0  0  0
   25.2450  -10.9376  -14.7415 C   0  0  0  0  0  0  0  0  0  0  0  0
   24.5478   -9.9497  -15.6333 C   0  0  0  0  0  0  0  0  0  0  0  0
   23.0648   -9.9748  -15.6012 C   0  0  2  0  0  0  0  0  0  0  0  0
   22.5372  -11.1960  -16.2098 N   0  0  0  0  0  0  0  0  0  0  0  0
   22.4445   -8.7799  -16.2119 C   0  0  0  0  0  0  0  0  0  0  0  0
   22.3094   -8.6761  -17.4516 O   0  0  0  0  0  0  0  0  0  0  0  0
   18.9796   -5.4896  -18.3347 N   0  0  0  0  0  0  0  0  0  0  0  0
   19.2772   -5.6698  -16.9776 C   0  0  0  0  0  0  0  0  0  0  0  0
   18.9301   -4.7288  -16.1962 O   0  0  0  0  0  0  0  0  0  0  0  0
   19.9515   -6.8851  -16.4909 C   0  0  0  0  0  0  0  0  0  0  0  0
   21.3308   -6.5667  -16.0042 C   0  0  2  0  0  0  0  0  0  0  0  0
   21.9766   -7.6959  -15.3845 N   0  0  0  0  0  0  0  0  0  0  0  0
   21.3725   -5.4386  -15.0380 C   0  0  0  0  0  0  0  0  0  0  0  0
   21.3486   -4.1312  -15.4361 O   0  0  0  0  0  0  0  0  0  0  0  0
   21.4321   -5.6649  -13.7932 O   0  0  0  0  0  0  0  0  0  0  0  0
  2  1  1  6
  3  2  1  0
  4  3  1  0
  5  2  1  0
  5 12  1  0
  6  5  2  0
  7  8  1  0
  8  9  1  0
  9 10  1  0
 11 10  1  6
 11 12  1  0
 11 13  1  0
 13 20  1  0
 13 14  2  0
 16 17  2  0
 16 15  1  0
 18 16  1  0
 19 21  1  0
 19 18  1  1
 20 19  1  0
 21 22  1  0
 23 21  2  0
M  END
$$$$
