CMN.pdb
     RDKit          3D

 23 22  0  0  1  0  0  0  0  0999 V2000
   21.8307  -15.0517  -16.8719 N   0  0  0  0  0  0  0  0  0  0  0  0
   21.7991  -13.7588  -17.5173 C   0  0  1  0  0  0  0  0  0  0  0  0
   20.3755  -13.5068  -17.9650 C   0  0  0  0  0  0  0  0  0  0  0  0
   20.2792  -11.8748  -18.7612 S   0  0  0  0  0  0  0  0  0  0  0  0
   22.2234  -12.6750  -16.5855 C   0  0  0  0  0  0  0  0  0  0  0  0
   21.7350  -12.6300  -15.4393 O   0  0  0  0  0  0  0  0  0  0  0  0
   28.2063  -13.2378  -14.7796 C   0  0  0  0  0  0  0  0  0  0  0  0
   27.5512  -11.7167  -15.5338 S   0  0  0  0  0  0  0  0  0  0  0  0
   25.7276  -11.8339  -15.4529 C   0  0  0  0  0  0  0  0  0  0  0  0
   25.0941  -10.5949  -16.0192 C   0  0  0  0  0  0  0  0  0  0  0  0
   23.6161  -10.6174  -16.1463 C   0  0  2  0  0  0  0  0  0  0  0  0
   23.1699  -11.7137  -17.0061 N   0  0  0  0  0  0  0  0  0  0  0  0
   23.0472   -9.3325  -16.6053 C   0  0  0  0  0  0  0  0  0  0  0  0
   22.9755   -9.0477  -17.8217 O   0  0  0  0  0  0  0  0  0  0  0  0
   20.3576   -5.0696  -16.9846 N   0  0  0  0  0  0  0  0  0  0  0  0
   19.9204   -6.3474  -17.3573 C   0  0  0  0  0  0  0  0  0  0  0  0
   18.8570   -6.3973  -18.0525 O   0  0  0  0  0  0  0  0  0  0  0  0
   20.6586   -7.5597  -16.9648 C   0  0  0  0  0  0  0  0  0  0  0  0
   21.8481   -7.2075  -16.1272 C   0  0  2  0  0  0  0  0  0  0  0  0
   22.5573   -8.3682  -15.6519 N   0  0  0  0  0  0  0  0  0  0  0  0
   21.5143   -6.3696  -14.9464 C   0  0  0  0  0  0  0  0  0  0  0  0
   21.1327   -5.0620  -15.0598 O   0  0  0  0  0  0  0  0  0  0  0  0
   21.5757   -6.8568  -13.7789 O   0  0  0  0  0  0  0  0  0  0  0  0
  2  1  1  1
  3  2  1  0
  4  3  1  0
  5  2  1  0
  5 12  1  0
  6  5  2  0
  7  8  1  0
  8  9  1  0
  9 10  1  0
 11 10  1  6
 11 12  1  0
 11 13  1  0
 13 20  1  0
 13 14  2  0
 16 17  2  0
 16 15  1  0
 18 16  1  0
 19 21  1  0
 19 18  1  1
 20 19  1  0
 21 22  1  0
 23 21  2  0
M  END
$$$$
