CMN.pdb
     RDKit          3D

 23 22  0  0  1  0  0  0  0  0999 V2000
   16.1044  -13.1462  -15.2779 N   0  0  0  0  0  0  0  0  0  0  0  0
   16.1648  -11.7232  -15.5244 C   0  0  1  0  0  0  0  0  0  0  0  0
   14.7555  -11.1816  -15.4195 C   0  0  0  0  0  0  0  0  0  0  0  0
   13.7849  -11.7607  -16.8440 S   0  0  0  0  0  0  0  0  0  0  0  0
   17.0344  -11.0349  -14.5279 C   0  0  0  0  0  0  0  0  0  0  0  0
   17.0032  -11.3994  -13.3361 O   0  0  0  0  0  0  0  0  0  0  0  0
   23.6066  -10.2656  -14.2690 C   0  0  0  0  0  0  0  0  0  0  0  0
   22.8668   -8.6575  -14.6917 S   0  0  0  0  0  0  0  0  0  0  0  0
   21.2512   -8.5823  -13.8374 C   0  0  0  0  0  0  0  0  0  0  0  0
   20.1877   -9.2519  -14.6608 C   0  0  0  0  0  0  0  0  0  0  0  0
   18.8437   -9.3455  -14.0397 C   0  0  2  0  0  0  0  0  0  0  0  0
   17.8817   -9.9817  -14.9397 N   0  0  0  0  0  0  0  0  0  0  0  0
   18.3268   -8.0458  -13.5612 C   0  0  0  0  0  0  0  0  0  0  0  0
   17.7606   -7.2431  -14.3364 O   0  0  0  0  0  0  0  0  0  0  0  0
   17.5057   -4.4833   -8.6482 N   0  0  0  0  0  0  0  0  0  0  0  0
   17.1223   -5.0598   -9.8663 C   0  0  0  0  0  0  0  0  0  0  0  0
   16.3373   -4.3713  -10.5917 O   0  0  0  0  0  0  0  0  0  0  0  0
   17.6082   -6.3877  -10.2775 C   0  0  0  0  0  0  0  0  0  0  0  0
   17.9417   -6.4011  -11.7367 C   0  0  2  0  0  0  0  0  0  0  0  0
   18.4650   -7.6696  -12.1763 N   0  0  0  0  0  0  0  0  0  0  0  0
   18.9162   -5.3513  -12.1315 C   0  0  0  0  0  0  0  0  0  0  0  0
   18.5281   -4.1001  -12.5215 O   0  0  0  0  0  0  0  0  0  0  0  0
   20.1592   -5.5944  -12.1159 O   0  0  0  0  0  0  0  0  0  0  0  0
  2  1  1  1
  3  2  1  0
  4  3  1  0
  5  2  1  0
  5 12  1  0
  6  5  2  0
  7  8  1  0
  8  9  1  0
  9 10  1  0
 11 10  1  6
 11 12  1  0
 11 13  1  0
 13 20  1  0
 13 14  2  0
 16 17  2  0
 16 15  1  0
 18 16  1  0
 19 21  1  0
 19 18  1  1
 20 19  1  0
 21 22  1  0
 23 21  2  0
M  END
$$$$
