CMN.pdb
     RDKit          3D

 23 22  0  0  1  0  0  0  0  0999 V2000
   28.5398  -20.9034  -14.8299 N   0  0  0  0  0  0  0  0  0  0  0  0
   27.9100  -19.9942  -13.8994 C   0  0  1  0  0  0  0  0  0  0  0  0
   27.2689  -18.8863  -14.7069 C   0  0  0  0  0  0  0  0  0  0  0  0
   28.5706  -17.8930  -15.4978 S   0  0  0  0  0  0  0  0  0  0  0  0
   26.8654  -20.6828  -13.0884 C   0  0  0  0  0  0  0  0  0  0  0  0
   26.2322  -21.6328  -13.5892 O   0  0  0  0  0  0  0  0  0  0  0  0
   28.3000  -20.3074   -6.4136 C   0  0  0  0  0  0  0  0  0  0  0  0
   26.6465  -20.0587   -7.1318 S   0  0  0  0  0  0  0  0  0  0  0  0
   26.7528  -20.5718   -8.8843 C   0  0  0  0  0  0  0  0  0  0  0  0
   25.4779  -20.2433   -9.6081 C   0  0  0  0  0  0  0  0  0  0  0  0
   25.4075  -20.6632  -11.0293 C   0  0  2  0  0  0  0  0  0  0  0  0
   26.6033  -20.2560  -11.7671 N   0  0  0  0  0  0  0  0  0  0  0  0
   24.1867  -20.1953  -11.7194 C   0  0  0  0  0  0  0  0  0  0  0  0
   24.2292  -19.2826  -12.5742 O   0  0  0  0  0  0  0  0  0  0  0  0
   21.0166  -23.0485  -15.2150 N   0  0  0  0  0  0  0  0  0  0  0  0
   21.4321  -21.8164  -14.6933 C   0  0  0  0  0  0  0  0  0  0  0  0
   20.8843  -20.7821  -15.1899 O   0  0  0  0  0  0  0  0  0  0  0  0
   22.4448  -21.7326  -13.6274 C   0  0  0  0  0  0  0  0  0  0  0  0
   21.9335  -20.9280  -12.4733 C   0  0  2  0  0  0  0  0  0  0  0  0
   22.9061  -20.7862  -11.4197 N   0  0  0  0  0  0  0  0  0  0  0  0
   20.6933  -21.4799  -11.8693 C   0  0  0  0  0  0  0  0  0  0  0  0
   19.4837  -21.4297  -12.5039 O   0  0  0  0  0  0  0  0  0  0  0  0
   20.7262  -22.0236  -10.7258 O   0  0  0  0  0  0  0  0  0  0  0  0
  2  1  1  6
  3  2  1  0
  4  3  1  0
  5  2  1  0
  5 12  1  0
  6  5  2  0
  7  8  1  0
  8  9  1  0
  9 10  1  0
 11 10  1  1
 11 12  1  0
 11 13  1  0
 13 20  1  0
 13 14  2  0
 16 17  2  0
 16 15  1  0
 18 16  1  0
 19 21  1  0
 19 18  1  6
 20 19  1  0
 21 22  1  0
 23 21  2  0
M  END
$$$$
