WVW.pdb
     RDKit          3D

 36 39  0  0  1  0  0  0  0  0999 V2000
   23.1402  -20.4393  -15.8537 N   0  0  0  0  0  0  0  0  0  0  0  0
   22.2182  -21.5010  -15.6295 C   0  0  1  0  0  0  0  0  0  0  0  0
   22.4404  -22.7017  -16.4616 C   0  0  0  0  0  0  0  0  0  0  0  0
   22.2642  -22.4100  -17.8884 C   0  0  0  0  0  0  0  0  0  0  0  0
   23.1103  -21.5674  -18.5964 C   0  0  0  0  0  0  0  0  0  0  0  0
   22.7446  -21.5128  -19.8782 N   0  0  0  0  0  0  0  0  0  0  0  0
   21.6694  -22.3151  -19.9933 C   0  0  0  0  0  0  0  0  0  0  0  0
   20.8852  -22.6234  -21.0816 C   0  0  0  0  0  0  0  0  0  0  0  0
   19.8047  -23.4677  -20.9997 C   0  0  0  0  0  0  0  0  0  0  0  0
   19.4859  -24.0278  -19.8017 C   0  0  0  0  0  0  0  0  0  0  0  0
   20.2589  -23.7325  -18.6968 C   0  0  0  0  0  0  0  0  0  0  0  0
   21.3545  -22.8843  -18.7574 C   0  0  0  0  0  0  0  0  0  0  0  0
   22.0044  -21.8287  -14.1695 C   0  0  0  0  0  0  0  0  0  0  0  0
   22.9853  -22.2658  -13.5134 O   0  0  0  0  0  0  0  0  0  0  0  0
   21.4562  -19.7736  -11.5274 C   0  0  0  0  0  0  0  0  0  0  0  0
   20.1505  -20.5526  -11.4572 C   0  0  1  0  0  0  0  0  0  0  0  0
   19.1926  -19.7302  -12.3342 C   0  0  0  0  0  0  0  0  0  0  0  0
   20.3043  -21.8921  -12.2144 C   0  0  2  0  0  0  0  0  0  0  0  0
   20.7711  -21.6548  -13.5717 N   0  0  0  0  0  0  0  0  0  0  0  0
   18.9661  -22.4992  -12.2998 C   0  0  0  0  0  0  0  0  0  0  0  0
   18.2239  -22.1764  -13.2995 O   0  0  0  0  0  0  0  0  0  0  0  0
   18.3765  -23.4153  -11.4147 N   0  0  0  0  0  0  0  0  0  0  0  0
   17.0367  -23.9706  -11.6054 C   0  0  1  0  0  0  0  0  0  0  0  0
   17.2722  -25.3684  -12.1152 C   0  0  0  0  0  0  0  0  0  0  0  0
   18.0819  -26.2141  -11.2427 C   0  0  0  0  0  0  0  0  0  0  0  0
   17.7447  -26.5959   -9.9368 C   0  0  0  0  0  0  0  0  0  0  0  0
   18.7171  -27.3393   -9.4099 N   0  0  0  0  0  0  0  0  0  0  0  0
   19.6968  -27.4746  -10.3102 C   0  0  0  0  0  0  0  0  0  0  0  0
   20.9149  -28.1393  -10.3185 C   0  0  0  0  0  0  0  0  0  0  0  0
   21.7099  -28.1097  -11.4212 C   0  0  0  0  0  0  0  0  0  0  0  0
   21.3504  -27.4290  -12.5666 C   0  0  0  0  0  0  0  0  0  0  0  0
   20.1583  -26.7697  -12.5766 C   0  0  0  0  0  0  0  0  0  0  0  0
   19.3292  -26.7839  -11.4636 C   0  0  0  0  0  0  0  0  0  0  0  0
   16.1851  -23.9490  -10.4459 C   0  0  0  0  0  0  0  0  0  0  0  0
   14.9630  -24.2158  -10.5388 O   0  0  0  0  0  0  0  0  0  0  0  0
   16.6739  -23.6358   -9.1886 O   0  0  0  0  0  0  0  0  0  0  0  0
  2  1  1  1
  3  2  1  0
  4  3  1  0
  4  5  2  0
  6  5  1  0
  7 12  2  0
  7  6  1  0
  8  7  1  0
  9 10  1  0
  9  8  2  0
 10 11  2  0
 11 12  1  0
 12  4  1  0
 13  2  1  0
 14 13  2  0
 16 15  1  6
 16 18  1  0
 17 16  1  0
 18 20  1  0
 18 19  1  6
 19 13  1  0
 20 21  2  0
 22 23  1  0
 22 20  1  0
 23 24  1  1
 24 25  1  0
 25 33  1  0
 26 25  2  0
 26 27  1  0
 27 28  1  0
 28 29  1  0
 29 30  2  0
 31 30  1  0
 32 31  2  0
 33 28  2  0
 33 32  1  0
 34 36  1  0
 34 23  1  0
 35 34  2  0
M  END
$$$$
