WVW.pdb
     RDKit          3D

 36 39  0  0  1  0  0  0  0  0999 V2000
   24.4018  -20.1537  -17.1198 N   0  0  0  0  0  0  0  0  0  0  0  0
   23.8863  -20.6928  -15.9069 C   0  0  1  0  0  0  0  0  0  0  0  0
   22.6843  -21.5375  -16.0649 C   0  0  0  0  0  0  0  0  0  0  0  0
   21.5751  -20.7907  -16.6682 C   0  0  0  0  0  0  0  0  0  0  0  0
   21.2526  -20.8762  -18.0158 C   0  0  0  0  0  0  0  0  0  0  0  0
   20.1815  -20.1279  -18.2849 N   0  0  0  0  0  0  0  0  0  0  0  0
   19.8181  -19.5642  -17.1174 C   0  0  0  0  0  0  0  0  0  0  0  0
   18.7927  -18.6976  -16.8136 C   0  0  0  0  0  0  0  0  0  0  0  0
   18.5845  -18.2132  -15.5451 C   0  0  0  0  0  0  0  0  0  0  0  0
   19.4175  -18.5968  -14.5403 C   0  0  0  0  0  0  0  0  0  0  0  0
   20.4525  -19.4655  -14.8224 C   0  0  0  0  0  0  0  0  0  0  0  0
   20.6798  -19.9676  -16.0950 C   0  0  0  0  0  0  0  0  0  0  0  0
   24.9365  -21.3242  -15.0220 C   0  0  0  0  0  0  0  0  0  0  0  0
   25.0227  -22.5797  -15.0126 O   0  0  0  0  0  0  0  0  0  0  0  0
   28.6422  -20.0207  -14.6839 C   0  0  0  0  0  0  0  0  0  0  0  0
   27.9703  -19.9115  -13.3226 C   0  0  1  0  0  0  0  0  0  0  0  0
   27.3113  -18.5230  -13.3563 C   0  0  0  0  0  0  0  0  0  0  0  0
   26.7799  -20.8960  -13.2513 C   0  0  2  0  0  0  0  0  0  0  0  0
   25.7769  -20.5492  -14.2463 N   0  0  0  0  0  0  0  0  0  0  0  0
   26.1664  -20.7405  -11.9224 C   0  0  0  0  0  0  0  0  0  0  0  0
   25.3120  -19.7921  -11.7636 O   0  0  0  0  0  0  0  0  0  0  0  0
   26.3895  -21.5152  -10.7733 N   0  0  0  0  0  0  0  0  0  0  0  0
   25.9940  -21.0943   -9.4294 C   0  0  1  0  0  0  0  0  0  0  0  0
   27.0136  -21.7244   -8.5169 C   0  0  0  0  0  0  0  0  0  0  0  0
   26.9184  -21.3227   -7.1164 C   0  0  0  0  0  0  0  0  0  0  0  0
   25.7860  -21.4670   -6.3029 C   0  0  0  0  0  0  0  0  0  0  0  0
   26.0247  -20.9682   -5.0904 N   0  0  0  0  0  0  0  0  0  0  0  0
   27.2745  -20.4938   -5.0542 C   0  0  0  0  0  0  0  0  0  0  0  0
   28.0508  -19.8930   -4.0733 C   0  0  0  0  0  0  0  0  0  0  0  0
   29.3335  -19.5265   -4.3364 C   0  0  0  0  0  0  0  0  0  0  0  0
   29.9163  -19.7306   -5.5706 C   0  0  0  0  0  0  0  0  0  0  0  0
   29.1691  -20.3184   -6.5464 C   0  0  0  0  0  0  0  0  0  0  0  0
   27.8573  -20.7008   -6.3033 C   0  0  0  0  0  0  0  0  0  0  0  0
   25.8875  -19.6735   -9.2301 C   0  0  0  0  0  0  0  0  0  0  0  0
   24.8673  -19.1716   -8.7003 O   0  0  0  0  0  0  0  0  0  0  0  0
   26.8981  -18.8066   -9.6108 O   0  0  0  0  0  0  0  0  0  0  0  0
  2  1  1  6
  3  2  1  0
  4  3  1  0
  4  5  2  0
  6  5  1  0
  7 12  2  0
  7  6  1  0
  8  7  1  0
  9 10  1  0
  9  8  2  0
 10 11  2  0
 11 12  1  0
 12  4  1  0
 13  2  1  0
 14 13  2  0
 16 15  1  6
 16 18  1  0
 17 16  1  0
 18 20  1  0
 18 19  1  6
 19 13  1  0
 20 21  2  0
 22 23  1  0
 22 20  1  0
 23 24  1  1
 24 25  1  0
 25 33  1  0
 26 25  2  0
 26 27  1  0
 27 28  1  0
 28 29  1  0
 29 30  2  0
 31 30  1  0
 32 31  2  0
 33 28  2  0
 33 32  1  0
 34 36  1  0
 34 23  1  0
 35 34  2  0
M  END
$$$$
