WVW.pdb
     RDKit          3D

 36 39  0  0  1  0  0  0  0  0999 V2000
   23.1278  -18.7267  -17.6218 N   0  0  0  0  0  0  0  0  0  0  0  0
   23.6262  -18.2908  -16.3612 C   0  0  1  0  0  0  0  0  0  0  0  0
   22.7259  -17.3854  -15.6176 C   0  0  0  0  0  0  0  0  0  0  0  0
   22.5608  -16.1015  -16.3079 C   0  0  0  0  0  0  0  0  0  0  0  0
   21.3202  -15.5913  -16.6655 C   0  0  0  0  0  0  0  0  0  0  0  0
   21.4588  -14.3959  -17.2413 N   0  0  0  0  0  0  0  0  0  0  0  0
   22.7806  -14.1395  -17.2542 C   0  0  0  0  0  0  0  0  0  0  0  0
   23.4864  -13.0601  -17.7349 C   0  0  0  0  0  0  0  0  0  0  0  0
   24.8563  -12.9824  -17.6681 C   0  0  0  0  0  0  0  0  0  0  0  0
   25.5552  -14.0061  -17.1074 C   0  0  0  0  0  0  0  0  0  0  0  0
   24.8676  -15.0986  -16.6186 C   0  0  0  0  0  0  0  0  0  0  0  0
   23.4853  -15.1969  -16.6745 C   0  0  0  0  0  0  0  0  0  0  0  0
   24.1796  -19.4051  -15.5028 C   0  0  0  0  0  0  0  0  0  0  0  0
   23.3649  -20.2192  -14.9957 O   0  0  0  0  0  0  0  0  0  0  0  0
   28.2958  -18.9096  -14.5221 C   0  0  0  0  0  0  0  0  0  0  0  0
   27.8149  -20.3290  -14.7875 C   0  0  1  0  0  0  0  0  0  0  0  0
   28.5098  -21.1556  -13.6934 C   0  0  0  0  0  0  0  0  0  0  0  0
   26.3099  -20.4385  -14.4491 C   0  0  2  0  0  0  0  0  0  0  0  0
   25.5375  -19.5279  -15.2800 N   0  0  0  0  0  0  0  0  0  0  0  0
   26.1476  -20.0155  -13.0486 C   0  0  0  0  0  0  0  0  0  0  0  0
   26.0791  -18.7539  -12.8075 O   0  0  0  0  0  0  0  0  0  0  0  0
   26.0473  -20.8277  -11.9083 N   0  0  0  0  0  0  0  0  0  0  0  0
   25.9726  -20.2982  -10.5468 C   0  0  1  0  0  0  0  0  0  0  0  0
   24.6332  -19.6124  -10.4772 C   0  0  0  0  0  0  0  0  0  0  0  0
   23.5021  -20.4956  -10.2082 C   0  0  0  0  0  0  0  0  0  0  0  0
   23.1669  -21.0317   -8.9571 C   0  0  0  0  0  0  0  0  0  0  0  0
   22.1005  -21.8232   -9.0671 N   0  0  0  0  0  0  0  0  0  0  0  0
   21.7028  -21.8412  -10.3438 C   0  0  0  0  0  0  0  0  0  0  0  0
   20.6642  -22.4627  -11.0226 C   0  0  0  0  0  0  0  0  0  0  0  0
   20.4985  -22.2685  -12.3581 C   0  0  0  0  0  0  0  0  0  0  0  0
   21.3406  -21.4577  -13.0915 C   0  0  0  0  0  0  0  0  0  0  0  0
   22.3666  -20.8398  -12.4423 C   0  0  0  0  0  0  0  0  0  0  0  0
   22.5576  -21.0224  -11.0797 C   0  0  0  0  0  0  0  0  0  0  0  0
   26.1463  -21.2642   -9.4947 C   0  0  0  0  0  0  0  0  0  0  0  0
   26.2366  -22.4884   -9.7522 O   0  0  0  0  0  0  0  0  0  0  0  0
   26.2212  -20.8869   -8.1644 O   0  0  0  0  0  0  0  0  0  0  0  0
  2  1  1  6
  3  2  1  0
  4  3  1  0
  4  5  2  0
  6  5  1  0
  7 12  2  0
  7  6  1  0
  8  7  1  0
  9 10  1  0
  9  8  2  0
 10 11  2  0
 11 12  1  0
 12  4  1  0
 13  2  1  0
 14 13  2  0
 16 15  1  1
 16 18  1  0
 17 16  1  0
 18 20  1  0
 18 19  1  6
 19 13  1  0
 20 21  2  0
 22 23  1  0
 22 20  1  0
 23 24  1  1
 24 25  1  0
 25 33  1  0
 26 25  2  0
 26 27  1  0
 27 28  1  0
 28 29  1  0
 29 30  2  0
 31 30  1  0
 32 31  2  0
 33 28  2  0
 33 32  1  0
 34 36  1  0
 34 23  1  0
 35 34  2  0
M  END
$$$$
