WVW.pdb
     RDKit          3D

 36 39  0  0  1  0  0  0  0  0999 V2000
   24.1611  -19.2353  -15.7367 N   0  0  0  0  0  0  0  0  0  0  0  0
   24.0384  -19.6831  -14.3906 C   0  0  1  0  0  0  0  0  0  0  0  0
   22.6567  -19.9798  -13.9590 C   0  0  0  0  0  0  0  0  0  0  0  0
   21.8207  -18.7744  -13.9580 C   0  0  0  0  0  0  0  0  0  0  0  0
   21.8016  -17.8686  -15.0099 C   0  0  0  0  0  0  0  0  0  0  0  0
   20.9273  -16.8913  -14.7648 N   0  0  0  0  0  0  0  0  0  0  0  0
   20.3881  -17.1668  -13.5621 C   0  0  0  0  0  0  0  0  0  0  0  0
   19.4447  -16.4935  -12.8199 C   0  0  0  0  0  0  0  0  0  0  0  0
   19.0221  -16.9307  -11.5880 C   0  0  0  0  0  0  0  0  0  0  0  0
   19.5491  -18.0726  -11.0695 C   0  0  0  0  0  0  0  0  0  0  0  0
   20.4967  -18.7642  -11.7969 C   0  0  0  0  0  0  0  0  0  0  0  0
   20.9363  -18.3416  -13.0425 C   0  0  0  0  0  0  0  0  0  0  0  0
   25.0181  -20.7711  -14.0152 C   0  0  0  0  0  0  0  0  0  0  0  0
   24.7509  -21.9509  -14.3623 O   0  0  0  0  0  0  0  0  0  0  0  0
   28.4956  -20.8734  -14.8998 C   0  0  0  0  0  0  0  0  0  0  0  0
   28.5956  -20.9203  -13.3819 C   0  0  1  0  0  0  0  0  0  0  0  0
   28.7540  -19.4435  -12.9854 C   0  0  0  0  0  0  0  0  0  0  0  0
   27.2294  -21.3302  -12.7845 C   0  0  2  0  0  0  0  0  0  0  0  0
   26.1720  -20.4820  -13.3126 N   0  0  0  0  0  0  0  0  0  0  0  0
   27.3043  -21.1025  -11.3322 C   0  0  0  0  0  0  0  0  0  0  0  0
   28.3499  -20.5123  -10.8709 O   0  0  0  0  0  0  0  0  0  0  0  0
   26.3570  -21.4466  -10.3552 N   0  0  0  0  0  0  0  0  0  0  0  0
   26.5757  -21.2602   -8.9210 C   0  0  1  0  0  0  0  0  0  0  0  0
   27.1591  -19.8766   -8.8007 C   0  0  0  0  0  0  0  0  0  0  0  0
   27.3716  -19.4144   -7.4321 C   0  0  0  0  0  0  0  0  0  0  0  0
   26.7811  -18.2822   -6.8539 C   0  0  0  0  0  0  0  0  0  0  0  0
   27.2140  -18.1263   -5.6032 N   0  0  0  0  0  0  0  0  0  0  0  0
   28.0729  -19.1100   -5.3151 C   0  0  0  0  0  0  0  0  0  0  0  0
   28.8029  -19.4541   -4.1861 C   0  0  0  0  0  0  0  0  0  0  0  0
   29.5999  -20.5557   -4.1887 C   0  0  0  0  0  0  0  0  0  0  0  0
   29.7198  -21.3717   -5.2952 C   0  0  0  0  0  0  0  0  0  0  0  0
   29.0113  -21.0491   -6.4132 C   0  0  0  0  0  0  0  0  0  0  0  0
   28.1915  -19.9295   -6.4362 C   0  0  0  0  0  0  0  0  0  0  0  0
   25.4160  -21.4376   -8.0880 C   0  0  0  0  0  0  0  0  0  0  0  0
   25.5307  -21.7940   -6.8909 O   0  0  0  0  0  0  0  0  0  0  0  0
   24.1347  -21.2238   -8.5680 O   0  0  0  0  0  0  0  0  0  0  0  0
  2  1  1  6
  3  2  1  0
  4  3  1  0
  4  5  2  0
  6  5  1  0
  7 12  2  0
  7  6  1  0
  8  7  1  0
  9 10  1  0
  9  8  2  0
 10 11  2  0
 11 12  1  0
 12  4  1  0
 13  2  1  0
 14 13  2  0
 16 15  1  6
 16 18  1  0
 17 16  1  0
 18 20  1  0
 18 19  1  6
 19 13  1  0
 20 21  2  0
 22 23  1  0
 22 20  1  0
 23 24  1  6
 24 25  1  0
 25 33  1  0
 26 25  2  0
 26 27  1  0
 27 28  1  0
 28 29  1  0
 29 30  2  0
 31 30  1  0
 32 31  2  0
 33 28  2  0
 33 32  1  0
 34 36  1  0
 34 23  1  0
 35 34  2  0
M  END
$$$$
