WVW.pdb
     RDKit          3D

 36 39  0  0  1  0  0  0  0  0999 V2000
   27.1383  -18.9365   -9.9223 N   0  0  0  0  0  0  0  0  0  0  0  0
   26.9075  -20.2383  -10.4511 C   0  0  1  0  0  0  0  0  0  0  0  0
   26.3433  -21.2076   -9.4890 C   0  0  0  0  0  0  0  0  0  0  0  0
   26.5700  -20.7863   -8.1023 C   0  0  0  0  0  0  0  0  0  0  0  0
   25.5361  -20.4757   -7.2295 C   0  0  0  0  0  0  0  0  0  0  0  0
   26.0220  -20.1642   -6.0268 N   0  0  0  0  0  0  0  0  0  0  0  0
   27.3604  -20.2734   -6.1261 C   0  0  0  0  0  0  0  0  0  0  0  0
   28.3549  -20.0609   -5.1986 C   0  0  0  0  0  0  0  0  0  0  0  0
   29.6877  -20.2141   -5.4944 C   0  0  0  0  0  0  0  0  0  0  0  0
   30.0527  -20.5899   -6.7498 C   0  0  0  0  0  0  0  0  0  0  0  0
   29.0717  -20.8085   -7.6960 C   0  0  0  0  0  0  0  0  0  0  0  0
   27.7208  -20.6612   -7.4185 C   0  0  0  0  0  0  0  0  0  0  0  0
   26.1866  -20.2410  -11.7796 C   0  0  0  0  0  0  0  0  0  0  0  0
   24.9620  -19.9513  -11.7867 O   0  0  0  0  0  0  0  0  0  0  0  0
   28.9002  -18.7215  -14.1073 C   0  0  0  0  0  0  0  0  0  0  0  0
   28.1684  -19.8008  -14.8921 C   0  0  1  0  0  0  0  0  0  0  0  0
   28.9250  -21.0880  -14.5263 C   0  0  0  0  0  0  0  0  0  0  0  0
   26.7561  -20.0074  -14.2971 C   0  0  2  0  0  0  0  0  0  0  0  0
   26.8494  -20.5517  -12.9513 N   0  0  0  0  0  0  0  0  0  0  0  0
   26.0719  -21.0034  -15.1377 C   0  0  0  0  0  0  0  0  0  0  0  0
   26.4290  -22.2335  -15.0208 O   0  0  0  0  0  0  0  0  0  0  0  0
   25.0471  -20.7857  -16.0718 N   0  0  0  0  0  0  0  0  0  0  0  0
   24.4154  -21.8593  -16.8386 C   0  0  1  0  0  0  0  0  0  0  0  0
   22.9369  -21.6543  -16.6353 C   0  0  0  0  0  0  0  0  0  0  0  0
   22.5255  -21.4723  -15.2462 C   0  0  0  0  0  0  0  0  0  0  0  0
   22.4620  -22.4826  -14.2766 C   0  0  0  0  0  0  0  0  0  0  0  0
   22.0156  -21.9854  -13.1236 N   0  0  0  0  0  0  0  0  0  0  0  0
   21.7764  -20.6787  -13.2776 C   0  0  0  0  0  0  0  0  0  0  0  0
   21.3274  -19.6735  -12.4328 C   0  0  0  0  0  0  0  0  0  0  0  0
   21.2002  -18.3975  -12.8849 C   0  0  0  0  0  0  0  0  0  0  0  0
   21.5060  -18.0455  -14.1837 C   0  0  0  0  0  0  0  0  0  0  0  0
   21.9475  -19.0193  -15.0280 C   0  0  0  0  0  0  0  0  0  0  0  0
   22.0852  -20.3294  -14.5911 C   0  0  0  0  0  0  0  0  0  0  0  0
   24.7714  -21.9198  -18.2313 C   0  0  0  0  0  0  0  0  0  0  0  0
   25.5187  -21.0526  -18.7439 O   0  0  0  0  0  0  0  0  0  0  0  0
   24.3087  -22.9296  -19.0584 O   0  0  0  0  0  0  0  0  0  0  0  0
  2  1  1  1
  3  2  1  0
  4  3  1  0
  4  5  2  0
  6  5  1  0
  7 12  2  0
  7  6  1  0
  8  7  1  0
  9 10  1  0
  9  8  2  0
 10 11  2  0
 11 12  1  0
 12  4  1  0
 13  2  1  0
 14 13  2  0
 16 15  1  1
 16 18  1  0
 17 16  1  0
 18 20  1  0
 18 19  1  1
 19 13  1  0
 20 21  2  0
 22 23  1  0
 22 20  1  0
 23 24  1  6
 24 25  1  0
 25 33  1  0
 26 25  2  0
 26 27  1  0
 27 28  1  0
 28 29  1  0
 29 30  2  0
 31 30  1  0
 32 31  2  0
 33 28  2  0
 33 32  1  0
 34 36  1  0
 34 23  1  0
 35 34  2  0
M  END
$$$$
