WVW.pdb
     RDKit          3D

 36 39  0  0  1  0  0  0  0  0999 V2000
   21.8774  -14.7815  -17.2443 N   0  0  0  0  0  0  0  0  0  0  0  0
   23.0338  -15.4947  -16.8183 C   0  0  1  0  0  0  0  0  0  0  0  0
   24.2603  -14.6782  -16.7071 C   0  0  0  0  0  0  0  0  0  0  0  0
   25.1753  -14.9231  -17.8273 C   0  0  0  0  0  0  0  0  0  0  0  0
   24.8984  -15.8269  -18.8440 C   0  0  0  0  0  0  0  0  0  0  0  0
   25.8779  -15.8210  -19.7496 N   0  0  0  0  0  0  0  0  0  0  0  0
   26.7795  -14.9192  -19.3172 C   0  0  0  0  0  0  0  0  0  0  0  0
   27.9821  -14.5167  -19.8523 C   0  0  0  0  0  0  0  0  0  0  0  0
   28.7824  -13.5766  -19.2499 C   0  0  0  0  0  0  0  0  0  0  0  0
   28.3827  -13.0135  -18.0778 C   0  0  0  0  0  0  0  0  0  0  0  0
   27.1799  -13.4023  -17.5233 C   0  0  0  0  0  0  0  0  0  0  0  0
   26.3561  -14.3481  -18.1150 C   0  0  0  0  0  0  0  0  0  0  0  0
   22.8012  -16.3736  -15.6108 C   0  0  0  0  0  0  0  0  0  0  0  0
   22.4672  -15.8178  -14.5322 O   0  0  0  0  0  0  0  0  0  0  0  0
   22.4393  -20.5707  -16.3127 C   0  0  0  0  0  0  0  0  0  0  0  0
   22.0423  -19.9277  -14.9915 C   0  0  1  0  0  0  0  0  0  0  0  0
   22.3696  -21.0108  -13.9509 C   0  0  0  0  0  0  0  0  0  0  0  0
   23.0192  -18.7752  -14.6614 C   0  0  2  0  0  0  0  0  0  0  0  0
   22.9501  -17.7450  -15.6862 N   0  0  0  0  0  0  0  0  0  0  0  0
   24.3789  -19.3387  -14.6822 C   0  0  0  0  0  0  0  0  0  0  0  0
   25.2597  -18.7526  -15.4139 O   0  0  0  0  0  0  0  0  0  0  0  0
   24.8594  -20.4582  -13.9851 N   0  0  0  0  0  0  0  0  0  0  0  0
   26.2363  -20.9410  -14.0886 C   0  0  1  0  0  0  0  0  0  0  0  0
   26.9131  -20.4336  -12.8421 C   0  0  0  0  0  0  0  0  0  0  0  0
   26.4956  -21.0871  -11.6050 C   0  0  0  0  0  0  0  0  0  0  0  0
   26.1199  -22.4319  -11.4809 C   0  0  0  0  0  0  0  0  0  0  0  0
   25.7635  -22.6953  -10.2242 N   0  0  0  0  0  0  0  0  0  0  0  0
   25.8852  -21.5806   -9.4954 C   0  0  0  0  0  0  0  0  0  0  0  0
   25.6755  -21.2738   -8.1584 C   0  0  0  0  0  0  0  0  0  0  0  0
   25.9117  -20.0183   -7.6930 C   0  0  0  0  0  0  0  0  0  0  0  0
   26.3638  -19.0048   -8.5133 C   0  0  0  0  0  0  0  0  0  0  0  0
   26.5745  -19.2871   -9.8294 C   0  0  0  0  0  0  0  0  0  0  0  0
   26.3401  -20.5605  -10.3292 C   0  0  0  0  0  0  0  0  0  0  0  0
   26.3850  -22.3629  -14.2500 C   0  0  0  0  0  0  0  0  0  0  0  0
   25.4213  -23.1391  -14.0452 O   0  0  0  0  0  0  0  0  0  0  0  0
   27.5880  -22.9305  -14.6354 O   0  0  0  0  0  0  0  0  0  0  0  0
  2  1  1  1
  3  2  1  0
  4  3  1  0
  4  5  2  0
  6  5  1  0
  7 12  2  0
  7  6  1  0
  8  7  1  0
  9 10  1  0
  9  8  2  0
 10 11  2  0
 11 12  1  0
 12  4  1  0
 13  2  1  0
 14 13  2  0
 16 15  1  6
 16 18  1  0
 17 16  1  0
 18 20  1  0
 18 19  1  6
 19 13  1  0
 20 21  2  0
 22 23  1  0
 22 20  1  0
 23 24  1  1
 24 25  1  0
 25 33  1  0
 26 25  2  0
 26 27  1  0
 27 28  1  0
 28 29  1  0
 29 30  2  0
 31 30  1  0
 32 31  2  0
 33 28  2  0
 33 32  1  0
 34 36  1  0
 34 23  1  0
 35 34  2  0
M  END
$$$$
