WVW.pdb
     RDKit          3D

 36 39  0  0  1  0  0  0  0  0999 V2000
   27.0632  -22.7360  -12.4987 N   0  0  0  0  0  0  0  0  0  0  0  0
   26.2411  -21.5822  -12.3554 C   0  0  1  0  0  0  0  0  0  0  0  0
   26.9560  -20.3595  -11.9342 C   0  0  0  0  0  0  0  0  0  0  0  0
   27.8205  -20.6114  -10.7762 C   0  0  0  0  0  0  0  0  0  0  0  0
   29.1954  -20.7725  -10.8819 C   0  0  0  0  0  0  0  0  0  0  0  0
   29.7361  -20.9479   -9.6750 N   0  0  0  0  0  0  0  0  0  0  0  0
   28.7148  -20.9006   -8.7988 C   0  0  0  0  0  0  0  0  0  0  0  0
   28.6937  -21.0309   -7.4288 C   0  0  0  0  0  0  0  0  0  0  0  0
   27.5331  -20.9644   -6.6968 C   0  0  0  0  0  0  0  0  0  0  0  0
   26.3509  -20.7625   -7.3391 C   0  0  0  0  0  0  0  0  0  0  0  0
   26.3487  -20.6290   -8.7129 C   0  0  0  0  0  0  0  0  0  0  0  0
   27.5085  -20.6913   -9.4709 C   0  0  0  0  0  0  0  0  0  0  0  0
   25.3085  -21.3459  -13.5212 C   0  0  0  0  0  0  0  0  0  0  0  0
   25.8181  -21.1779  -14.6595 O   0  0  0  0  0  0  0  0  0  0  0  0
   23.0987  -23.7130  -14.7832 C   0  0  0  0  0  0  0  0  0  0  0  0
   22.1159  -22.6361  -14.3463 C   0  0  1  0  0  0  0  0  0  0  0  0
   21.8397  -22.9766  -12.8729 C   0  0  0  0  0  0  0  0  0  0  0  0
   22.8354  -21.2683  -14.2922 C   0  0  2  0  0  0  0  0  0  0  0  0
   23.9386  -21.3147  -13.3451 N   0  0  0  0  0  0  0  0  0  0  0  0
   21.8599  -20.2834  -13.7972 C   0  0  0  0  0  0  0  0  0  0  0  0
   21.7595  -20.1264  -12.5245 O   0  0  0  0  0  0  0  0  0  0  0  0
   21.0045  -19.4634  -14.5496 N   0  0  0  0  0  0  0  0  0  0  0  0
   20.0639  -18.5169  -13.9504 C   0  0  1  0  0  0  0  0  0  0  0  0
   19.8104  -17.4964  -15.0292 C   0  0  0  0  0  0  0  0  0  0  0  0
   20.9969  -16.7834  -15.4937 C   0  0  0  0  0  0  0  0  0  0  0  0
   22.1059  -17.3689  -16.1202 C   0  0  0  0  0  0  0  0  0  0  0  0
   23.0266  -16.4425  -16.3842 N   0  0  0  0  0  0  0  0  0  0  0  0
   22.5815  -15.2546  -15.9610 C   0  0  0  0  0  0  0  0  0  0  0  0
   23.0956  -13.9659  -15.9874 C   0  0  0  0  0  0  0  0  0  0  0  0
   22.3791  -12.9264  -15.4826 C   0  0  0  0  0  0  0  0  0  0  0  0
   21.1270  -13.0989  -14.9287 C   0  0  0  0  0  0  0  0  0  0  0  0
   20.6063  -14.3573  -14.8932 C   0  0  0  0  0  0  0  0  0  0  0  0
   21.3179  -15.4352  -15.4011 C   0  0  0  0  0  0  0  0  0  0  0  0
   18.8451  -19.0894  -13.4438 C   0  0  0  0  0  0  0  0  0  0  0  0
   18.4227  -20.1897  -13.8729 O   0  0  0  0  0  0  0  0  0  0  0  0
   18.0929  -18.4559  -12.4687 O   0  0  0  0  0  0  0  0  0  0  0  0
  2  1  1  6
  3  2  1  0
  4  3  1  0
  4  5  2  0
  6  5  1  0
  7 12  2  0
  7  6  1  0
  8  7  1  0
  9 10  1  0
  9  8  2  0
 10 11  2  0
 11 12  1  0
 12  4  1  0
 13  2  1  0
 14 13  2  0
 16 15  1  1
 16 18  1  0
 17 16  1  0
 18 20  1  0
 18 19  1  1
 19 13  1  0
 20 21  2  0
 22 23  1  0
 22 20  1  0
 23 24  1  6
 24 25  1  0
 25 33  1  0
 26 25  2  0
 26 27  1  0
 27 28  1  0
 28 29  1  0
 29 30  2  0
 31 30  1  0
 32 31  2  0
 33 28  2  0
 33 32  1  0
 34 36  1  0
 34 23  1  0
 35 34  2  0
M  END
$$$$
