WVW.pdb
     RDKit          3D

 36 39  0  0  1  0  0  0  0  0999 V2000
   25.3158  -17.6651  -17.7868 N   0  0  0  0  0  0  0  0  0  0  0  0
   25.5682  -17.7058  -16.3860 C   0  0  1  0  0  0  0  0  0  0  0  0
   26.3986  -16.5966  -15.8728 C   0  0  0  0  0  0  0  0  0  0  0  0
   27.6095  -16.4105  -16.6796 C   0  0  0  0  0  0  0  0  0  0  0  0
   27.8886  -15.2336  -17.3609 C   0  0  0  0  0  0  0  0  0  0  0  0
   29.0681  -15.3231  -17.9777 N   0  0  0  0  0  0  0  0  0  0  0  0
   29.5440  -16.5506  -17.6950 C   0  0  0  0  0  0  0  0  0  0  0  0
   30.7090  -17.1771  -18.0757 C   0  0  0  0  0  0  0  0  0  0  0  0
   31.0200  -18.4586  -17.6905 C   0  0  0  0  0  0  0  0  0  0  0  0
   30.1510  -19.1469  -16.9020 C   0  0  0  0  0  0  0  0  0  0  0  0
   28.9765  -18.5378  -16.5082 C   0  0  0  0  0  0  0  0  0  0  0  0
   28.6435  -17.2451  -16.8842 C   0  0  0  0  0  0  0  0  0  0  0  0
   24.3347  -17.9534  -15.5482 C   0  0  0  0  0  0  0  0  0  0  0  0
   23.4580  -17.0514  -15.5084 O   0  0  0  0  0  0  0  0  0  0  0  0
   22.9010  -21.8142  -15.2600 C   0  0  0  0  0  0  0  0  0  0  0  0
   22.1546  -20.5462  -14.8707 C   0  0  1  0  0  0  0  0  0  0  0  0
   21.0993  -21.0424  -13.8690 C   0  0  0  0  0  0  0  0  0  0  0  0
   23.0803  -19.6372  -14.0291 C   0  0  2  0  0  0  0  0  0  0  0  0
   24.1725  -19.1325  -14.8469 N   0  0  0  0  0  0  0  0  0  0  0  0
   23.6636  -20.4743  -12.9681 C   0  0  0  0  0  0  0  0  0  0  0  0
   24.4644  -21.4172  -13.3204 O   0  0  0  0  0  0  0  0  0  0  0  0
   23.4633  -20.3744  -11.5824 N   0  0  0  0  0  0  0  0  0  0  0  0
   24.0368  -21.3112  -10.6165 C   0  0  1  0  0  0  0  0  0  0  0  0
   24.7611  -20.4398   -9.6238 C   0  0  0  0  0  0  0  0  0  0  0  0
   25.9268  -19.7390  -10.1547 C   0  0  0  0  0  0  0  0  0  0  0  0
   26.0079  -18.3608  -10.3975 C   0  0  0  0  0  0  0  0  0  0  0  0
   27.1976  -18.0544  -10.9136 N   0  0  0  0  0  0  0  0  0  0  0  0
   27.9227  -19.1723  -11.0276 C   0  0  0  0  0  0  0  0  0  0  0  0
   29.2074  -19.4483  -11.4737 C   0  0  0  0  0  0  0  0  0  0  0  0
   29.6883  -20.7199  -11.4496 C   0  0  0  0  0  0  0  0  0  0  0  0
   28.9352  -21.7803  -10.9882 C   0  0  0  0  0  0  0  0  0  0  0  0
   27.6711  -21.5287  -10.5469 C   0  0  0  0  0  0  0  0  0  0  0  0
   27.1567  -20.2397  -10.5620 C   0  0  0  0  0  0  0  0  0  0  0  0
   23.0997  -22.1991   -9.9813 C   0  0  0  0  0  0  0  0  0  0  0  0
   21.8771  -21.9225   -9.9383 O   0  0  0  0  0  0  0  0  0  0  0  0
   23.5039  -23.3872   -9.3956 O   0  0  0  0  0  0  0  0  0  0  0  0
  2  1  1  6
  3  2  1  0
  4  3  1  0
  4  5  2  0
  6  5  1  0
  7 12  2  0
  7  6  1  0
  8  7  1  0
  9 10  1  0
  9  8  2  0
 10 11  2  0
 11 12  1  0
 12  4  1  0
 13  2  1  0
 14 13  2  0
 16 15  1  1
 16 18  1  0
 17 16  1  0
 18 20  1  0
 18 19  1  6
 19 13  1  0
 20 21  2  0
 22 23  1  0
 22 20  1  0
 23 24  1  1
 24 25  1  0
 25 33  1  0
 26 25  2  0
 26 27  1  0
 27 28  1  0
 28 29  1  0
 29 30  2  0
 31 30  1  0
 32 31  2  0
 33 28  2  0
 33 32  1  0
 34 36  1  0
 34 23  1  0
 35 34  2  0
M  END
$$$$
