WVW.pdb
     RDKit          3D

 36 39  0  0  1  0  0  0  0  0999 V2000
   27.3635  -18.9831  -17.5552 N   0  0  0  0  0  0  0  0  0  0  0  0
   26.2736  -18.8466  -16.6491 C   0  0  1  0  0  0  0  0  0  0  0  0
   25.0436  -18.2790  -17.2393 C   0  0  0  0  0  0  0  0  0  0  0  0
   25.3093  -17.0087  -17.9231 C   0  0  0  0  0  0  0  0  0  0  0  0
   25.7282  -15.8657  -17.2558 C   0  0  0  0  0  0  0  0  0  0  0  0
   25.9326  -14.8716  -18.1216 N   0  0  0  0  0  0  0  0  0  0  0  0
   25.6461  -15.3724  -19.3382 C   0  0  0  0  0  0  0  0  0  0  0  0
   25.6743  -14.7888  -20.5844 C   0  0  0  0  0  0  0  0  0  0  0  0
   25.3304  -15.4683  -21.7277 C   0  0  0  0  0  0  0  0  0  0  0  0
   24.9447  -16.7698  -21.6389 C   0  0  0  0  0  0  0  0  0  0  0  0
   24.9094  -17.3753  -20.3989 C   0  0  0  0  0  0  0  0  0  0  0  0
   25.2536  -16.7086  -19.2325 C   0  0  0  0  0  0  0  0  0  0  0  0
   26.0111  -20.0804  -15.8163 C   0  0  0  0  0  0  0  0  0  0  0  0
   25.8938  -21.1815  -16.4142 O   0  0  0  0  0  0  0  0  0  0  0  0
   28.0208  -20.7231  -12.9755 C   0  0  0  0  0  0  0  0  0  0  0  0
   26.6735  -21.0550  -12.3502 C   0  0  1  0  0  0  0  0  0  0  0  0
   26.3836  -19.8407  -11.4532 C   0  0  0  0  0  0  0  0  0  0  0  0
   25.5713  -20.9996  -13.4335 C   0  0  2  0  0  0  0  0  0  0  0  0
   25.9026  -20.0041  -14.4412 N   0  0  0  0  0  0  0  0  0  0  0  0
   24.3302  -20.5698  -12.7689 C   0  0  0  0  0  0  0  0  0  0  0  0
   24.3781  -19.5160  -12.0329 O   0  0  0  0  0  0  0  0  0  0  0  0
   23.0626  -21.1687  -12.8381 N   0  0  0  0  0  0  0  0  0  0  0  0
   21.9277  -20.7483  -12.0167 C   0  0  1  0  0  0  0  0  0  0  0  0
   21.0352  -19.9858  -12.9608 C   0  0  0  0  0  0  0  0  0  0  0  0
   19.8074  -19.4675  -12.3645 C   0  0  0  0  0  0  0  0  0  0  0  0
   19.7173  -18.3416  -11.5343 C   0  0  0  0  0  0  0  0  0  0  0  0
   18.4582  -18.1645  -11.1353 N   0  0  0  0  0  0  0  0  0  0  0  0
   17.6953  -19.1268  -11.6648 C   0  0  0  0  0  0  0  0  0  0  0  0
   16.3412  -19.4253  -11.6090 C   0  0  0  0  0  0  0  0  0  0  0  0
   15.8405  -20.4903  -12.2901 C   0  0  0  0  0  0  0  0  0  0  0  0
   16.6407  -21.3125  -13.0572 C   0  0  0  0  0  0  0  0  0  0  0  0
   17.9729  -21.0354  -13.1232 C   0  0  0  0  0  0  0  0  0  0  0  0
   18.5086  -19.9547  -12.4366 C   0  0  0  0  0  0  0  0  0  0  0  0
   21.2270  -21.8060  -11.3381 C   0  0  0  0  0  0  0  0  0  0  0  0
   20.6559  -21.6003  -10.2406 O   0  0  0  0  0  0  0  0  0  0  0  0
   21.1534  -23.0853  -11.8634 O   0  0  0  0  0  0  0  0  0  0  0  0
  2  1  1  6
  3  2  1  0
  4  3  1  0
  4  5  2  0
  6  5  1  0
  7 12  2  0
  7  6  1  0
  8  7  1  0
  9 10  1  0
  9  8  2  0
 10 11  2  0
 11 12  1  0
 12  4  1  0
 13  2  1  0
 14 13  2  0
 16 15  1  6
 16 18  1  0
 17 16  1  0
 18 20  1  0
 18 19  1  6
 19 13  1  0
 20 21  2  0
 22 23  1  0
 22 20  1  0
 23 24  1  6
 24 25  1  0
 25 33  1  0
 26 25  2  0
 26 27  1  0
 27 28  1  0
 28 29  1  0
 29 30  2  0
 31 30  1  0
 32 31  2  0
 33 28  2  0
 33 32  1  0
 34 36  1  0
 34 23  1  0
 35 34  2  0
M  END
$$$$
