WVW.pdb
     RDKit          3D

 36 39  0  0  1  0  0  0  0  0999 V2000
   22.4616  -21.1812  -15.7180 N   0  0  0  0  0  0  0  0  0  0  0  0
   23.1897  -20.4279  -14.7537 C   0  0  1  0  0  0  0  0  0  0  0  0
   22.3645  -19.5418  -13.9068 C   0  0  0  0  0  0  0  0  0  0  0  0
   21.6431  -18.5472  -14.7082 C   0  0  0  0  0  0  0  0  0  0  0  0
   20.2574  -18.4831  -14.7624 C   0  0  0  0  0  0  0  0  0  0  0  0
   19.8697  -17.4638  -15.5307 N   0  0  0  0  0  0  0  0  0  0  0  0
   20.9996  -16.8765  -15.9684 C   0  0  0  0  0  0  0  0  0  0  0  0
   21.1923  -15.7928  -16.7948 C   0  0  0  0  0  0  0  0  0  0  0  0
   22.4418  -15.3412  -17.1438 C   0  0  0  0  0  0  0  0  0  0  0  0
   23.5407  -15.9813  -16.6607 C   0  0  0  0  0  0  0  0  0  0  0  0
   23.3708  -17.0705  -15.8299 C   0  0  0  0  0  0  0  0  0  0  0  0
   22.1190  -17.5421  -15.4639 C   0  0  0  0  0  0  0  0  0  0  0  0
   24.1806  -21.2462  -13.9580 C   0  0  0  0  0  0  0  0  0  0  0  0
   23.7795  -22.3238  -13.4465 O   0  0  0  0  0  0  0  0  0  0  0  0
   27.7157  -19.0130  -12.9604 C   0  0  0  0  0  0  0  0  0  0  0  0
   27.8567  -20.5091  -13.2015 C   0  0  1  0  0  0  0  0  0  0  0  0
   28.8245  -20.9626  -12.0965 C   0  0  0  0  0  0  0  0  0  0  0  0
   26.5262  -21.2177  -12.8564 C   0  0  2  0  0  0  0  0  0  0  0  0
   25.4866  -20.8262  -13.7957 N   0  0  0  0  0  0  0  0  0  0  0  0
   26.1210  -20.7540  -11.5194 C   0  0  0  0  0  0  0  0  0  0  0  0
   25.4910  -19.6355  -11.4382 O   0  0  0  0  0  0  0  0  0  0  0  0
   26.3294  -21.3904  -10.2858 N   0  0  0  0  0  0  0  0  0  0  0  0
   25.9150  -20.8186   -9.0048 C   0  0  1  0  0  0  0  0  0  0  0  0
   26.6052  -21.6657   -7.9678 C   0  0  0  0  0  0  0  0  0  0  0  0
   27.1758  -20.9241   -6.8470 C   0  0  0  0  0  0  0  0  0  0  0  0
   26.4727  -20.0499   -6.0065 C   0  0  0  0  0  0  0  0  0  0  0  0
   27.2979  -19.5131   -5.1082 N   0  0  0  0  0  0  0  0  0  0  0  0
   28.5302  -19.9920   -5.3097 C   0  0  0  0  0  0  0  0  0  0  0  0
   29.7536  -19.8029   -4.6827 C   0  0  0  0  0  0  0  0  0  0  0  0
   30.8604  -20.4638   -5.1151 C   0  0  0  0  0  0  0  0  0  0  0  0
   30.8219  -21.3402   -6.1805 C   0  0  0  0  0  0  0  0  0  0  0  0
   29.6296  -21.5379   -6.8091 C   0  0  0  0  0  0  0  0  0  0  0  0
   28.4856  -20.8747   -6.3874 C   0  0  0  0  0  0  0  0  0  0  0  0
   26.1879  -19.4163   -8.8336 C   0  0  0  0  0  0  0  0  0  0  0  0
   25.3937  -18.6772   -8.2042 O   0  0  0  0  0  0  0  0  0  0  0  0
   27.3296  -18.8278   -9.3515 O   0  0  0  0  0  0  0  0  0  0  0  0
  2  1  1  1
  3  2  1  0
  4  3  1  0
  4  5  2  0
  6  5  1  0
  7 12  2  0
  7  6  1  0
  8  7  1  0
  9 10  1  0
  9  8  2  0
 10 11  2  0
 11 12  1  0
 12  4  1  0
 13  2  1  0
 14 13  2  0
 16 15  1  1
 16 18  1  0
 17 16  1  0
 18 20  1  0
 18 19  1  6
 19 13  1  0
 20 21  2  0
 22 23  1  0
 22 20  1  0
 23 24  1  1
 24 25  1  0
 25 33  1  0
 26 25  2  0
 26 27  1  0
 27 28  1  0
 28 29  1  0
 29 30  2  0
 31 30  1  0
 32 31  2  0
 33 28  2  0
 33 32  1  0
 34 36  1  0
 34 23  1  0
 35 34  2  0
M  END
$$$$
