WVW.pdb
     RDKit          3D

 36 39  0  0  1  0  0  0  0  0999 V2000
   26.0269  -21.7046  -17.0491 N   0  0  0  0  0  0  0  0  0  0  0  0
   27.0912  -20.9191  -16.5221 C   0  0  1  0  0  0  0  0  0  0  0  0
   27.8384  -20.1334  -17.5260 C   0  0  0  0  0  0  0  0  0  0  0  0
   27.8642  -20.8071  -18.8288 C   0  0  0  0  0  0  0  0  0  0  0  0
   27.1323  -20.3640  -19.9220 C   0  0  0  0  0  0  0  0  0  0  0  0
   27.3720  -21.1348  -20.9841 N   0  0  0  0  0  0  0  0  0  0  0  0
   28.2524  -22.0682  -20.5758 C   0  0  0  0  0  0  0  0  0  0  0  0
   28.8344  -23.1171  -21.2509 C   0  0  0  0  0  0  0  0  0  0  0  0
   29.7149  -23.9850  -20.6521 C   0  0  0  0  0  0  0  0  0  0  0  0
   30.0326  -23.8126  -19.3406 C   0  0  0  0  0  0  0  0  0  0  0  0
   29.4607  -22.7670  -18.6442 C   0  0  0  0  0  0  0  0  0  0  0  0
   28.5709  -21.8785  -19.2293 C   0  0  0  0  0  0  0  0  0  0  0  0
   26.7094  -20.1074  -15.3055 C   0  0  0  0  0  0  0  0  0  0  0  0
   26.6860  -18.8540  -15.4163 O   0  0  0  0  0  0  0  0  0  0  0  0
   23.6807  -19.7550  -14.1351 C   0  0  0  0  0  0  0  0  0  0  0  0
   24.2699  -20.4191  -12.8989 C   0  0  1  0  0  0  0  0  0  0  0  0
   24.0935  -21.9205  -13.1776 C   0  0  0  0  0  0  0  0  0  0  0  0
   25.8024  -20.2130  -12.8800 C   0  0  2  0  0  0  0  0  0  0  0  0
   26.3956  -20.7202  -14.1077 N   0  0  0  0  0  0  0  0  0  0  0  0
   26.3342  -21.0095  -11.7622 C   0  0  0  0  0  0  0  0  0  0  0  0
   26.5939  -22.2503  -11.9802 O   0  0  0  0  0  0  0  0  0  0  0  0
   26.6109  -20.5827  -10.4539 N   0  0  0  0  0  0  0  0  0  0  0  0
   26.3751  -21.4096   -9.2706 C   0  0  1  0  0  0  0  0  0  0  0  0
   27.6399  -21.2872   -8.4616 C   0  0  0  0  0  0  0  0  0  0  0  0
   27.6711  -20.1603   -7.5337 C   0  0  0  0  0  0  0  0  0  0  0  0
   26.9916  -18.9460   -7.7040 C   0  0  0  0  0  0  0  0  0  0  0  0
   27.2620  -18.1224   -6.6920 N   0  0  0  0  0  0  0  0  0  0  0  0
   28.0968  -18.7342   -5.8451 C   0  0  0  0  0  0  0  0  0  0  0  0
   28.6866  -18.3737   -4.6418 C   0  0  0  0  0  0  0  0  0  0  0  0
   29.4985  -19.2431   -3.9831 C   0  0  0  0  0  0  0  0  0  0  0  0
   29.7711  -20.5050   -4.4706 C   0  0  0  0  0  0  0  0  0  0  0  0
   29.2016  -20.8763   -5.6512 C   0  0  0  0  0  0  0  0  0  0  0  0
   28.3699  -20.0070   -6.3432 C   0  0  0  0  0  0  0  0  0  0  0  0
   25.2033  -21.0774   -8.5047 C   0  0  0  0  0  0  0  0  0  0  0  0
   24.4761  -20.1076   -8.8271 O   0  0  0  0  0  0  0  0  0  0  0  0
   24.8309  -21.8082   -7.3889 O   0  0  0  0  0  0  0  0  0  0  0  0
  2  1  1  6
  3  2  1  0
  4  3  1  0
  4  5  2  0
  6  5  1  0
  7 12  2  0
  7  6  1  0
  8  7  1  0
  9 10  1  0
  9  8  2  0
 10 11  2  0
 11 12  1  0
 12  4  1  0
 13  2  1  0
 14 13  2  0
 16 15  1  6
 16 18  1  0
 17 16  1  0
 18 20  1  0
 18 19  1  6
 19 13  1  0
 20 21  2  0
 22 23  1  0
 22 20  1  0
 23 24  1  1
 24 25  1  0
 25 33  1  0
 26 25  2  0
 26 27  1  0
 27 28  1  0
 28 29  1  0
 29 30  2  0
 31 30  1  0
 32 31  2  0
 33 28  2  0
 33 32  1  0
 34 36  1  0
 34 23  1  0
 35 34  2  0
M  END
$$$$
