WVW.pdb
     RDKit          3D

 36 39  0  0  1  0  0  0  0  0999 V2000
   26.6455  -22.4238  -12.7324 N   0  0  0  0  0  0  0  0  0  0  0  0
   25.9131  -21.2897  -12.2797 C   0  0  1  0  0  0  0  0  0  0  0  0
   26.7406  -20.1951  -11.7316 C   0  0  0  0  0  0  0  0  0  0  0  0
   27.6624  -20.6804  -10.6987 C   0  0  0  0  0  0  0  0  0  0  0  0
   28.6489  -21.6240  -10.9509 C   0  0  0  0  0  0  0  0  0  0  0  0
   29.3654  -21.8520   -9.8489 N   0  0  0  0  0  0  0  0  0  0  0  0
   28.8422  -21.0600   -8.8939 C   0  0  0  0  0  0  0  0  0  0  0  0
   29.1822  -20.8964   -7.5703 C   0  0  0  0  0  0  0  0  0  0  0  0
   28.5125  -20.0353   -6.7352 C   0  0  0  0  0  0  0  0  0  0  0  0
   27.4701  -19.3099   -7.2229 C   0  0  0  0  0  0  0  0  0  0  0  0
   27.1120  -19.4582   -8.5477 C   0  0  0  0  0  0  0  0  0  0  0  0
   27.7750  -20.3203   -9.4082 C   0  0  0  0  0  0  0  0  0  0  0  0
   24.8692  -20.8039  -13.2590 C   0  0  0  0  0  0  0  0  0  0  0  0
   25.0683  -19.7030  -13.8354 O   0  0  0  0  0  0  0  0  0  0  0  0
   23.2113  -23.3425  -15.7951 C   0  0  0  0  0  0  0  0  0  0  0  0
   22.9690  -21.8406  -15.8391 C   0  0  1  0  0  0  0  0  0  0  0  0
   21.6559  -21.7102  -16.6279 C   0  0  0  0  0  0  0  0  0  0  0  0
   22.6144  -21.3306  -14.4229 C   0  0  2  0  0  0  0  0  0  0  0  0
   23.7308  -21.5435  -13.5148 N   0  0  0  0  0  0  0  0  0  0  0  0
   21.4829  -22.1392  -13.9406 C   0  0  0  0  0  0  0  0  0  0  0  0
   21.5741  -23.4183  -14.0413 O   0  0  0  0  0  0  0  0  0  0  0  0
   20.2858  -21.6893  -13.3621 N   0  0  0  0  0  0  0  0  0  0  0  0
   19.1878  -22.5803  -12.9878 C   0  0  1  0  0  0  0  0  0  0  0  0
   18.4940  -21.8745  -11.8522 C   0  0  0  0  0  0  0  0  0  0  0  0
   19.3540  -21.5304  -10.7235 C   0  0  0  0  0  0  0  0  0  0  0  0
   20.2292  -20.4366  -10.6703 C   0  0  0  0  0  0  0  0  0  0  0  0
   20.8891  -20.4322   -9.5126 N   0  0  0  0  0  0  0  0  0  0  0  0
   20.4925  -21.4801   -8.7825 C   0  0  0  0  0  0  0  0  0  0  0  0
   20.8179  -21.9554   -7.5199 C   0  0  0  0  0  0  0  0  0  0  0  0
   20.2143  -23.0686   -7.0248 C   0  0  0  0  0  0  0  0  0  0  0  0
   19.2646  -23.7683   -7.7411 C   0  0  0  0  0  0  0  0  0  0  0  0
   18.9329  -23.3170   -8.9830 C   0  0  0  0  0  0  0  0  0  0  0  0
   19.5352  -22.1837   -9.5113 C   0  0  0  0  0  0  0  0  0  0  0  0
   18.2811  -22.9279  -14.0495 C   0  0  0  0  0  0  0  0  0  0  0  0
   18.2069  -22.2291  -15.0884 O   0  0  0  0  0  0  0  0  0  0  0  0
   17.4590  -24.0395  -13.9707 O   0  0  0  0  0  0  0  0  0  0  0  0
  2  1  1  6
  3  2  1  0
  4  3  1  0
  4  5  2  0
  6  5  1  0
  7 12  2  0
  7  6  1  0
  8  7  1  0
  9 10  1  0
  9  8  2  0
 10 11  2  0
 11 12  1  0
 12  4  1  0
 13  2  1  0
 14 13  2  0
 16 15  1  1
 16 18  1  0
 17 16  1  0
 18 20  1  0
 18 19  1  1
 19 13  1  0
 20 21  2  0
 22 23  1  0
 22 20  1  0
 23 24  1  1
 24 25  1  0
 25 33  1  0
 26 25  2  0
 26 27  1  0
 27 28  1  0
 28 29  1  0
 29 30  2  0
 31 30  1  0
 32 31  2  0
 33 28  2  0
 33 32  1  0
 34 36  1  0
 34 23  1  0
 35 34  2  0
M  END
$$$$
