VGG.pdb
     RDKit          3D

 16 15  0  0  1  0  0  0  0  0999 V2000
   17.1727  -12.9895  -18.3045 C   0  0  0  0  0  0  0  0  0  0  0  0
   17.9596  -13.2943  -17.0474 C   0  0  2  0  0  0  0  0  0  0  0  0
   17.1713  -12.9148  -15.8352 C   0  0  0  0  0  0  0  0  0  0  0  0
   19.2972  -12.5936  -17.1265 C   0  0  2  0  0  0  0  0  0  0  0  0
   20.1414  -13.1077  -16.0648 N   0  0  0  0  0  0  0  0  0  0  0  0
   19.1720  -11.1293  -17.0775 C   0  0  0  0  0  0  0  0  0  0  0  0
   18.6450  -10.4724  -18.0098 O   0  0  0  0  0  0  0  0  0  0  0  0
   19.6512  -10.3990  -15.9549 N   0  0  0  0  0  0  0  0  0  0  0  0
   19.5446   -8.9390  -15.8993 C   0  0  0  0  0  0  0  0  0  0  0  0
   20.1729   -8.4473  -14.6529 C   0  0  0  0  0  0  0  0  0  0  0  0
   20.3155   -9.1903  -13.6518 O   0  0  0  0  0  0  0  0  0  0  0  0
   20.6229   -7.1025  -14.5948 N   0  0  0  0  0  0  0  0  0  0  0  0
   21.3594   -6.6614  -13.4379 C   0  0  0  0  0  0  0  0  0  0  0  0
   22.2369   -5.5144  -13.7913 C   0  0  0  0  0  0  0  0  0  0  0  0
   22.9175   -4.7864  -12.8151 O   0  0  0  0  0  0  0  0  0  0  0  0
   22.3638   -5.1992  -14.9962 O   0  0  0  0  0  0  0  0  0  0  0  0
  2  1  1  6
  2  3  1  0
  4  2  1  0
  4  5  1  1
  6  4  1  0
  6  8  1  0
  7  6  2  0
  9  8  1  0
 10  9  1  0
 11 10  2  0
 12 10  1  0
 13 14  1  0
 13 12  1  0
 14 15  1  0
 16 14  2  0
M  END
$$$$
