VGG.pdb
     RDKit          3D

 16 15  0  0  1  0  0  0  0  0999 V2000
   18.8426  -11.4651  -17.0542 C   0  0  0  0  0  0  0  0  0  0  0  0
   17.4070  -11.4967  -16.5742 C   0  0  2  0  0  0  0  0  0  0  0  0
   16.4804  -11.7474  -17.7203 C   0  0  0  0  0  0  0  0  0  0  0  0
   17.1079  -10.2076  -15.8428 C   0  0  2  0  0  0  0  0  0  0  0  0
   17.0098   -9.1428  -16.8231 N   0  0  0  0  0  0  0  0  0  0  0  0
   18.0960   -9.9096  -14.7954 C   0  0  0  0  0  0  0  0  0  0  0  0
   18.2271  -10.6320  -13.7759 O   0  0  0  0  0  0  0  0  0  0  0  0
   18.9478   -8.7758  -14.9054 N   0  0  0  0  0  0  0  0  0  0  0  0
   19.9749   -8.4995  -13.8980 C   0  0  0  0  0  0  0  0  0  0  0  0
   20.7311   -7.2881  -14.2864 C   0  0  0  0  0  0  0  0  0  0  0  0
   20.5627   -6.7382  -15.4017 O   0  0  0  0  0  0  0  0  0  0  0  0
   21.6674   -6.7401  -13.3714 N   0  0  0  0  0  0  0  0  0  0  0  0
   22.4373   -5.5879  -13.7652 C   0  0  0  0  0  0  0  0  0  0  0  0
   21.6345   -4.3482  -13.5953 C   0  0  0  0  0  0  0  0  0  0  0  0
   20.3032   -4.3902  -13.1804 O   0  0  0  0  0  0  0  0  0  0  0  0
   22.1720   -3.2426  -13.8320 O   0  0  0  0  0  0  0  0  0  0  0  0
  2  1  1  6
  2  3  1  0
  4  2  1  0
  4  5  1  6
  6  4  1  0
  6  8  1  0
  7  6  2  0
  9  8  1  0
 10  9  1  0
 11 10  2  0
 12 10  1  0
 13 14  1  0
 13 12  1  0
 14 15  1  0
 16 14  2  0
M  END
$$$$
