VGG.pdb
     RDKit          3D

 16 15  0  0  1  0  0  0  0  0999 V2000
   26.5073  -22.4582  -14.6362 C   0  0  0  0  0  0  0  0  0  0  0  0
   25.9024  -22.4816  -16.0240 C   0  0  2  0  0  0  0  0  0  0  0  0
   26.9559  -22.2331  -17.0551 C   0  0  0  0  0  0  0  0  0  0  0  0
   24.7712  -21.4799  -16.0808 C   0  0  2  0  0  0  0  0  0  0  0  0
   25.3395  -20.1487  -15.9844 N   0  0  0  0  0  0  0  0  0  0  0  0
   23.7483  -21.7234  -15.0528 C   0  0  0  0  0  0  0  0  0  0  0  0
   22.9843  -22.7199  -15.0938 O   0  0  0  0  0  0  0  0  0  0  0  0
   23.5895  -20.8240  -13.9625 N   0  0  0  0  0  0  0  0  0  0  0  0
   22.6434  -21.1055  -12.8800 C   0  0  0  0  0  0  0  0  0  0  0  0
   21.2761  -20.7439  -13.3158 C   0  0  0  0  0  0  0  0  0  0  0  0
   21.0366  -19.6552  -13.8918 O   0  0  0  0  0  0  0  0  0  0  0  0
   20.2148  -21.6546  -13.0735 N   0  0  0  0  0  0  0  0  0  0  0  0
   18.8741  -21.2800  -13.4447 C   0  0  0  0  0  0  0  0  0  0  0  0
   17.9273  -22.3861  -13.1440 C   0  0  0  0  0  0  0  0  0  0  0  0
   16.5597  -22.2657  -13.3919 O   0  0  0  0  0  0  0  0  0  0  0  0
   18.3745  -23.4488  -12.6563 O   0  0  0  0  0  0  0  0  0  0  0  0
  2  1  1  1
  2  3  1  0
  4  2  1  0
  4  5  1  1
  6  4  1  0
  6  8  1  0
  7  6  2  0
  9  8  1  0
 10  9  1  0
 11 10  2  0
 12 10  1  0
 13 14  1  0
 13 12  1  0
 14 15  1  0
 16 14  2  0
M  END
$$$$
