VGG.pdb
     RDKit          3D

 16 15  0  0  1  0  0  0  0  0999 V2000
   19.8060  -13.5939  -17.3507 C   0  0  0  0  0  0  0  0  0  0  0  0
   19.3553  -12.8070  -16.1381 C   0  0  2  0  0  0  0  0  0  0  0  0
   18.3465  -13.5866  -15.3574 C   0  0  0  0  0  0  0  0  0  0  0  0
   18.8391  -11.4608  -16.5936 C   0  0  2  0  0  0  0  0  0  0  0  0
   19.4176  -11.1692  -17.8915 N   0  0  0  0  0  0  0  0  0  0  0  0
   19.1016  -10.3944  -15.6157 C   0  0  0  0  0  0  0  0  0  0  0  0
   18.5594  -10.3792  -14.4824 O   0  0  0  0  0  0  0  0  0  0  0  0
   19.9918   -9.3298  -15.9273 N   0  0  0  0  0  0  0  0  0  0  0  0
   20.1599   -8.1926  -15.0192 C   0  0  0  0  0  0  0  0  0  0  0  0
   19.0562   -7.2291  -15.2284 C   0  0  0  0  0  0  0  0  0  0  0  0
   17.9614   -7.5831  -15.7290 O   0  0  0  0  0  0  0  0  0  0  0  0
   19.2467   -5.8741  -14.8518 N   0  0  0  0  0  0  0  0  0  0  0  0
   18.1592   -4.9436  -15.0159 C   0  0  0  0  0  0  0  0  0  0  0  0
   17.9983   -4.5856  -16.4499 C   0  0  0  0  0  0  0  0  0  0  0  0
   16.9635   -3.7573  -16.8851 O   0  0  0  0  0  0  0  0  0  0  0  0
   18.8146   -5.0418  -17.2821 O   0  0  0  0  0  0  0  0  0  0  0  0
  2  1  1  6
  2  3  1  0
  4  2  1  0
  4  5  1  6
  6  4  1  0
  6  8  1  0
  7  6  2  0
  9  8  1  0
 10  9  1  0
 11 10  2  0
 12 10  1  0
 13 14  1  0
 13 12  1  0
 14 15  1  0
 16 14  2  0
M  END
$$$$
