VGG.pdb
     RDKit          3D

 16 15  0  0  1  0  0  0  0  0999 V2000
   26.1505  -17.8811  -14.4368 C   0  0  0  0  0  0  0  0  0  0  0  0
   27.2876  -18.8094  -14.8077 C   0  0  2  0  0  0  0  0  0  0  0  0
   27.8897  -18.3991  -16.1131 C   0  0  0  0  0  0  0  0  0  0  0  0
   26.7747  -20.2318  -14.8140 C   0  0  2  0  0  0  0  0  0  0  0  0
   25.3364  -20.1940  -14.9989 N   0  0  0  0  0  0  0  0  0  0  0  0
   27.1606  -20.9773  -13.6067 C   0  0  0  0  0  0  0  0  0  0  0  0
   28.3539  -21.0519  -13.2208 O   0  0  0  0  0  0  0  0  0  0  0  0
   26.1792  -21.6479  -12.8255 N   0  0  0  0  0  0  0  0  0  0  0  0
   26.1503  -21.5132  -11.3670 C   0  0  0  0  0  0  0  0  0  0  0  0
   24.7488  -21.3677  -10.9145 C   0  0  0  0  0  0  0  0  0  0  0  0
   24.4597  -21.2524   -9.6989 O   0  0  0  0  0  0  0  0  0  0  0  0
   23.7117  -21.3590  -11.8833 N   0  0  0  0  0  0  0  0  0  0  0  0
   22.3509  -21.1721  -11.4487 C   0  0  0  0  0  0  0  0  0  0  0  0
   21.5568  -20.5027  -12.5124 C   0  0  0  0  0  0  0  0  0  0  0  0
   20.3293  -19.8989  -12.2382 O   0  0  0  0  0  0  0  0  0  0  0  0
   22.0060  -20.4838  -13.6808 O   0  0  0  0  0  0  0  0  0  0  0  0
  2  1  1  6
  2  3  1  0
  4  2  1  0
  4  5  1  1
  6  4  1  0
  6  8  1  0
  7  6  2  0
  9  8  1  0
 10  9  1  0
 11 10  2  0
 12 10  1  0
 13 14  1  0
 13 12  1  0
 14 15  1  0
 16 14  2  0
M  END
$$$$
