VGG.pdb
     RDKit          3D

 16 15  0  0  1  0  0  0  0  0999 V2000
   18.7593   -8.7490  -19.4594 C   0  0  0  0  0  0  0  0  0  0  0  0
   18.5348  -10.0956  -18.8046 C   0  0  2  0  0  0  0  0  0  0  0  0
   17.0750  -10.3295  -18.5829 C   0  0  0  0  0  0  0  0  0  0  0  0
   19.3445  -10.1598  -17.5292 C   0  0  2  0  0  0  0  0  0  0  0  0
   18.6438   -9.4031  -16.5091 N   0  0  0  0  0  0  0  0  0  0  0  0
   20.7276   -9.6958  -17.7139 C   0  0  0  0  0  0  0  0  0  0  0  0
   21.5508  -10.3183  -18.4303 O   0  0  0  0  0  0  0  0  0  0  0  0
   21.1840   -8.5088  -17.0768 N   0  0  0  0  0  0  0  0  0  0  0  0
   22.5571   -8.0316  -17.2585 C   0  0  0  0  0  0  0  0  0  0  0  0
   22.9639   -7.2423  -16.0745 C   0  0  0  0  0  0  0  0  0  0  0  0
   24.0695   -6.6509  -16.0277 O   0  0  0  0  0  0  0  0  0  0  0  0
   22.0779   -7.1562  -14.9691 N   0  0  0  0  0  0  0  0  0  0  0  0
   22.4125   -6.2852  -13.8715 C   0  0  0  0  0  0  0  0  0  0  0  0
   21.9732   -4.8952  -14.1632 C   0  0  0  0  0  0  0  0  0  0  0  0
   22.2612   -3.8402  -13.2970 O   0  0  0  0  0  0  0  0  0  0  0  0
   21.3293   -4.6725  -15.2135 O   0  0  0  0  0  0  0  0  0  0  0  0
  2  1  1  1
  2  3  1  0
  4  2  1  0
  4  5  1  1
  6  4  1  0
  6  8  1  0
  7  6  2  0
  9  8  1  0
 10  9  1  0
 11 10  2  0
 12 10  1  0
 13 14  1  0
 13 12  1  0
 14 15  1  0
 16 14  2  0
M  END
$$$$
