VGG.pdb
     RDKit          3D

 16 15  0  0  1  0  0  0  0  0999 V2000
   16.3855  -12.2265  -15.9234 C   0  0  0  0  0  0  0  0  0  0  0  0
   17.4678  -11.4589  -16.6527 C   0  0  2  0  0  0  0  0  0  0  0  0
   17.8443  -12.1638  -17.9162 C   0  0  0  0  0  0  0  0  0  0  0  0
   18.6382  -11.2566  -15.7169 C   0  0  2  0  0  0  0  0  0  0  0  0
   18.1795  -10.4837  -14.5782 N   0  0  0  0  0  0  0  0  0  0  0  0
   19.7928  -10.6348  -16.3821 C   0  0  0  0  0  0  0  0  0  0  0  0
   20.5078  -11.2616  -17.2033 O   0  0  0  0  0  0  0  0  0  0  0  0
   20.1418   -9.2826  -16.1123 N   0  0  0  0  0  0  0  0  0  0  0  0
   21.1928   -8.6048  -16.8753 C   0  0  0  0  0  0  0  0  0  0  0  0
   21.5084   -7.3092  -16.2336 C   0  0  0  0  0  0  0  0  0  0  0  0
   22.4071   -6.5563  -16.6807 O   0  0  0  0  0  0  0  0  0  0  0  0
   20.7734   -6.9145  -15.0853 N   0  0  0  0  0  0  0  0  0  0  0  0
   20.9531   -5.5836  -14.5639 C   0  0  0  0  0  0  0  0  0  0  0  0
   21.9524   -5.5911  -13.4632 C   0  0  0  0  0  0  0  0  0  0  0  0
   22.2198   -4.4473  -12.7104 O   0  0  0  0  0  0  0  0  0  0  0  0
   22.5657   -6.6528  -13.2107 O   0  0  0  0  0  0  0  0  0  0  0  0
  2  1  1  1
  2  3  1  0
  4  2  1  0
  4  5  1  1
  6  4  1  0
  6  8  1  0
  7  6  2  0
  9  8  1  0
 10  9  1  0
 11 10  2  0
 12 10  1  0
 13 14  1  0
 13 12  1  0
 14 15  1  0
 16 14  2  0
M  END
$$$$
