VGG.pdb
     RDKit          3D

 16 15  0  0  1  0  0  0  0  0999 V2000
   23.0837  -12.3605  -14.5752 C   0  0  0  0  0  0  0  0  0  0  0  0
   23.2730  -12.9542  -15.9551 C   0  0  2  0  0  0  0  0  0  0  0  0
   24.5984  -13.6394  -16.0494 C   0  0  0  0  0  0  0  0  0  0  0  0
   23.0974  -11.8614  -16.9853 C   0  0  2  0  0  0  0  0  0  0  0  0
   24.2384  -10.9697  -16.8989 N   0  0  0  0  0  0  0  0  0  0  0  0
   21.8208  -11.1465  -16.8391 C   0  0  0  0  0  0  0  0  0  0  0  0
   20.7129  -11.7258  -16.9635 O   0  0  0  0  0  0  0  0  0  0  0  0
   21.8000   -9.7545  -16.5474 N   0  0  0  0  0  0  0  0  0  0  0  0
   20.5371   -9.0456  -16.3270 C   0  0  0  0  0  0  0  0  0  0  0  0
   20.7030   -8.0791  -15.2186 C   0  0  0  0  0  0  0  0  0  0  0  0
   19.7390   -7.4003  -14.7892 O   0  0  0  0  0  0  0  0  0  0  0  0
   21.9855   -7.9208  -14.6316 N   0  0  0  0  0  0  0  0  0  0  0  0
   22.1339   -7.0354  -13.5048 C   0  0  0  0  0  0  0  0  0  0  0  0
   22.3607   -5.6417  -13.9700 C   0  0  0  0  0  0  0  0  0  0  0  0
   22.6298   -4.6065  -13.0743 O   0  0  0  0  0  0  0  0  0  0  0  0
   22.3076   -5.3976  -15.1967 O   0  0  0  0  0  0  0  0  0  0  0  0
  2  1  1  1
  2  3  1  0
  4  2  1  0
  4  5  1  1
  6  4  1  0
  6  8  1  0
  7  6  2  0
  9  8  1  0
 10  9  1  0
 11 10  2  0
 12 10  1  0
 13 14  1  0
 13 12  1  0
 14 15  1  0
 16 14  2  0
M  END
$$$$
