VGG.pdb
     RDKit          3D

 16 15  0  0  1  0  0  0  0  0999 V2000
   28.9243   -8.3543  -19.4345 C   0  0  0  0  0  0  0  0  0  0  0  0
   29.8179   -9.1904  -20.3261 C   0  0  2  0  0  0  0  0  0  0  0  0
   29.0193  -10.2472  -21.0191 C   0  0  0  0  0  0  0  0  0  0  0  0
   30.9485   -9.7532  -19.4947 C   0  0  2  0  0  0  0  0  0  0  0  0
   30.3949  -10.7372  -18.5839 N   0  0  0  0  0  0  0  0  0  0  0  0
   31.7068   -8.7085  -18.7905 C   0  0  0  0  0  0  0  0  0  0  0  0
   32.4208   -7.8747  -19.4017 O   0  0  0  0  0  0  0  0  0  0  0  0
   31.6547   -8.6076  -17.3727 N   0  0  0  0  0  0  0  0  0  0  0  0
   32.4153   -7.5797  -16.6580 C   0  0  0  0  0  0  0  0  0  0  0  0
   33.6893   -8.1576  -16.1751 C   0  0  0  0  0  0  0  0  0  0  0  0
   34.0415   -9.3215  -16.4844 O   0  0  0  0  0  0  0  0  0  0  0  0
   34.5281   -7.3716  -15.3428 N   0  0  0  0  0  0  0  0  0  0  0  0
   35.7031   -7.9739  -14.7665 C   0  0  0  0  0  0  0  0  0  0  0  0
   36.4362   -6.9830  -13.9353 C   0  0  0  0  0  0  0  0  0  0  0  0
   37.5510   -7.3451  -13.1787 O   0  0  0  0  0  0  0  0  0  0  0  0
   36.0385   -5.7961  -13.9183 O   0  0  0  0  0  0  0  0  0  0  0  0
  2  1  1  1
  2  3  1  0
  4  2  1  0
  4  5  1  1
  6  4  1  0
  6  8  1  0
  7  6  2  0
  9  8  1  0
 10  9  1  0
 11 10  2  0
 12 10  1  0
 13 14  1  0
 13 12  1  0
 14 15  1  0
 16 14  2  0
M  END
$$$$
