VGG.pdb
     RDKit          3D

 16 15  0  0  1  0  0  0  0  0999 V2000
   18.5038  -10.3743  -19.6294 C   0  0  0  0  0  0  0  0  0  0  0  0
   18.5485  -11.1671  -18.3403 C   0  0  2  0  0  0  0  0  0  0  0  0
   17.9406  -10.3801  -17.2240 C   0  0  0  0  0  0  0  0  0  0  0  0
   19.9787  -11.5743  -18.0665 C   0  0  2  0  0  0  0  0  0  0  0  0
   19.9713  -12.5808  -17.0219 N   0  0  0  0  0  0  0  0  0  0  0  0
   20.8377  -10.4295  -17.7293 C   0  0  0  0  0  0  0  0  0  0  0  0
   21.1705   -9.5699  -18.5830 O   0  0  0  0  0  0  0  0  0  0  0  0
   21.3265  -10.2567  -16.4048 N   0  0  0  0  0  0  0  0  0  0  0  0
   22.1081   -9.0744  -16.0340 C   0  0  0  0  0  0  0  0  0  0  0  0
   21.2553   -8.1440  -15.2612 C   0  0  0  0  0  0  0  0  0  0  0  0
   20.0463   -8.3938  -15.0366 O   0  0  0  0  0  0  0  0  0  0  0  0
   21.8244   -6.9423  -14.7649 N   0  0  0  0  0  0  0  0  0  0  0  0
   21.0508   -6.1203  -13.8696 C   0  0  0  0  0  0  0  0  0  0  0  0
   21.8997   -5.0440  -13.2940 C   0  0  0  0  0  0  0  0  0  0  0  0
   21.8501   -3.7363  -13.7773 O   0  0  0  0  0  0  0  0  0  0  0  0
   22.6758   -5.3245  -12.3527 O   0  0  0  0  0  0  0  0  0  0  0  0
  2  1  1  6
  2  3  1  0
  4  2  1  0
  4  5  1  1
  6  4  1  0
  6  8  1  0
  7  6  2  0
  9  8  1  0
 10  9  1  0
 11 10  2  0
 12 10  1  0
 13 14  1  0
 13 12  1  0
 14 15  1  0
 16 14  2  0
M  END
$$$$
