VGG.pdb
     RDKit          3D

 16 15  0  0  1  0  0  0  0  0999 V2000
   19.7719  -13.5610  -16.5728 C   0  0  0  0  0  0  0  0  0  0  0  0
   18.3712  -13.3020  -17.0860 C   0  0  2  0  0  0  0  0  0  0  0  0
   18.1462  -14.0278  -18.3734 C   0  0  0  0  0  0  0  0  0  0  0  0
   18.1627  -11.8091  -17.2044 C   0  0  2  0  0  0  0  0  0  0  0  0
   18.9045  -11.3381  -18.3587 N   0  0  0  0  0  0  0  0  0  0  0  0
   18.5287  -11.0880  -15.9763 C   0  0  0  0  0  0  0  0  0  0  0  0
   17.9712  -11.3196  -14.8745 O   0  0  0  0  0  0  0  0  0  0  0  0
   19.5418  -10.0898  -15.9977 N   0  0  0  0  0  0  0  0  0  0  0  0
   19.9770   -9.4258  -14.7666 C   0  0  0  0  0  0  0  0  0  0  0  0
   21.0293   -8.4359  -15.0876 C   0  0  0  0  0  0  0  0  0  0  0  0
   21.7558   -8.5557  -16.1037 O   0  0  0  0  0  0  0  0  0  0  0  0
   21.2162   -7.3270  -14.2217 N   0  0  0  0  0  0  0  0  0  0  0  0
   22.1266   -6.2810  -14.6123 C   0  0  0  0  0  0  0  0  0  0  0  0
   22.0597   -5.1518  -13.6476 C   0  0  0  0  0  0  0  0  0  0  0  0
   21.1710   -5.1604  -12.5722 O   0  0  0  0  0  0  0  0  0  0  0  0
   22.8221   -4.1722  -13.8097 O   0  0  0  0  0  0  0  0  0  0  0  0
  2  1  1  6
  2  3  1  0
  4  2  1  0
  4  5  1  6
  6  4  1  0
  6  8  1  0
  7  6  2  0
  9  8  1  0
 10  9  1  0
 11 10  2  0
 12 10  1  0
 13 14  1  0
 13 12  1  0
 14 15  1  0
 16 14  2  0
M  END
$$$$
