VGG.pdb
     RDKit          3D

 16 15  0  0  1  0  0  0  0  0999 V2000
   16.6792   -9.2647  -16.5877 C   0  0  0  0  0  0  0  0  0  0  0  0
   16.5307  -10.7507  -16.8373 C   0  0  2  0  0  0  0  0  0  0  0  0
   15.2456  -11.2495  -16.2589 C   0  0  0  0  0  0  0  0  0  0  0  0
   17.7443  -11.4627  -16.2837 C   0  0  2  0  0  0  0  0  0  0  0  0
   17.6307  -11.4943  -14.8378 N   0  0  0  0  0  0  0  0  0  0  0  0
   19.0076  -10.8560  -16.7289 C   0  0  0  0  0  0  0  0  0  0  0  0
   19.3321  -10.8028  -17.9415 O   0  0  0  0  0  0  0  0  0  0  0  0
   19.9163  -10.3015  -15.7856 N   0  0  0  0  0  0  0  0  0  0  0  0
   21.0985   -9.5541  -16.2215 C   0  0  0  0  0  0  0  0  0  0  0  0
   20.8565   -8.1048  -16.0449 C   0  0  0  0  0  0  0  0  0  0  0  0
   20.0866   -7.4700  -16.8056 O   0  0  0  0  0  0  0  0  0  0  0  0
   21.5140   -7.4225  -14.9883 N   0  0  0  0  0  0  0  0  0  0  0  0
   21.1486   -6.0584  -14.7032 C   0  0  0  0  0  0  0  0  0  0  0  0
   21.8069   -5.5987  -13.4519 C   0  0  0  0  0  0  0  0  0  0  0  0
   22.1025   -4.2529  -13.2331 O   0  0  0  0  0  0  0  0  0  0  0  0
   22.1005   -6.4447  -12.5772 O   0  0  0  0  0  0  0  0  0  0  0  0
  2  1  1  1
  2  3  1  0
  4  2  1  0
  4  5  1  1
  6  4  1  0
  6  8  1  0
  7  6  2  0
  9  8  1  0
 10  9  1  0
 11 10  2  0
 12 10  1  0
 13 14  1  0
 13 12  1  0
 14 15  1  0
 16 14  2  0
M  END
$$$$
