FRE.pdb
     RDKit          3D

 32 32  0  0  1  0  0  0  0  0999 V2000
   26.8153  -18.4680  -17.7905 N   0  0  0  0  0  0  0  0  0  0  0  0
   26.5968  -18.2254  -16.3760 C   0  0  1  0  0  0  0  0  0  0  0  0
   25.7796  -16.9306  -16.2958 C   0  0  0  0  0  0  0  0  0  0  0  0
   26.6592  -15.7769  -16.5104 C   0  0  0  0  0  0  0  0  0  0  0  0
   26.8475  -15.3027  -17.7901 C   0  0  0  0  0  0  0  0  0  0  0  0
   27.6724  -14.2093  -18.0538 C   0  0  0  0  0  0  0  0  0  0  0  0
   28.3134  -13.5857  -17.0308 C   0  0  0  0  0  0  0  0  0  0  0  0
   28.1472  -14.0364  -15.7264 C   0  0  0  0  0  0  0  0  0  0  0  0
   27.3211  -15.1265  -15.4893 C   0  0  0  0  0  0  0  0  0  0  0  0
   25.8337  -19.3648  -15.8382 C   0  0  0  0  0  0  0  0  0  0  0  0
   25.0619  -20.0503  -16.5732 O   0  0  0  0  0  0  0  0  0  0  0  0
   23.8041  -20.9417  -10.3345 N   0  0  0  0  0  0  0  0  0  0  0  0
   24.5798  -21.2336   -9.1847 C   0  0  0  0  0  0  0  0  0  0  0  0
   23.9619  -21.2232   -8.0282 N   0  0  0  0  0  0  0  0  0  0  0  0
   25.9637  -21.5267   -9.2573 N   0  0  0  0  0  0  0  0  0  0  0  0
   26.6098  -21.4432  -10.5187 C   0  0  0  0  0  0  0  0  0  0  0  0
   25.8300  -20.6533  -11.5482 C   0  0  0  0  0  0  0  0  0  0  0  0
   25.6950  -21.5289  -12.7504 C   0  0  0  0  0  0  0  0  0  0  0  0
   25.0948  -20.8425  -13.9467 C   0  0  2  0  0  0  0  0  0  0  0  0
   25.8961  -19.7840  -14.4780 N   0  0  0  0  0  0  0  0  0  0  0  0
   23.6874  -20.4094  -13.6852 C   0  0  0  0  0  0  0  0  0  0  0  0
   23.4195  -19.2480  -13.2823 O   0  0  0  0  0  0  0  0  0  0  0  0
   24.4357  -21.4284   -7.1442 N   0  0  0  0  0  0  0  0  0  0  0  0
   22.6104  -21.3048  -13.8865 C   0  0  1  0  0  0  0  0  0  0  0  0
   21.2338  -20.7650  -14.0273 C   0  0  0  0  0  0  0  0  0  0  0  0
   21.0432  -20.2667  -15.4137 C   0  0  0  0  0  0  0  0  0  0  0  0
   20.3367  -18.9425  -15.4222 C   0  0  0  0  0  0  0  0  0  0  0  0
   21.2836  -17.8408  -15.8030 O   0  0  0  0  0  0  0  0  0  0  0  0
   21.8921  -17.2323  -14.9026 C   0  0  0  0  0  0  0  0  0  0  0  0
   20.3043  -21.8286  -13.6831 O   0  0  0  0  0  0  0  0  0  0  0  0
   20.6505  -23.0411  -13.6132 O   0  0  0  0  0  0  0  0  0  0  0  0
   21.4605  -17.5263  -17.1223 O   0  0  0  0  0  0  0  0  0  0  0  0
  2  1  1  6
  2  3  1  0
  3  4  1  0
  4  5  2  0
  5  6  1  0
  7  6  2  0
  8  7  1  0
  9  8  2  0
  9  4  1  0
 10 11  2  0
 10  2  1  0
 13 15  1  0
 13 12  1  0
 14 13  2  0
 16 17  1  0
 16 15  1  0
 17 18  1  0
 19 18  1  1
 19 20  1  0
 19 21  1  0
 20 10  1  0
 21 22  2  0
 21 23  1  0
 23 24  1  0
 24 29  1  0
 24 25  1  1
 26 25  1  0
 27 26  1  0
 28 27  2  0
 29 30  2  0
 29 32  1  0
 31 27  1  0
M  END
$$$$
