FRE.pdb
     RDKit          3D

 32 32  0  0  1  0  0  0  0  0999 V2000
   27.9055  -21.7519  -17.4565 N   0  0  0  0  0  0  0  0  0  0  0  0
   27.5572  -20.6201  -16.6168 C   0  0  1  0  0  0  0  0  0  0  0  0
   26.8292  -19.6291  -17.5326 C   0  0  0  0  0  0  0  0  0  0  0  0
   27.6511  -18.4281  -17.7138 C   0  0  0  0  0  0  0  0  0  0  0  0
   28.5724  -18.3908  -18.7374 C   0  0  0  0  0  0  0  0  0  0  0  0
   29.3809  -17.2757  -18.9570 C   0  0  0  0  0  0  0  0  0  0  0  0
   29.2673  -16.1902  -18.1476 C   0  0  0  0  0  0  0  0  0  0  0  0
   28.3485  -16.1919  -17.1045 C   0  0  0  0  0  0  0  0  0  0  0  0
   27.5552  -17.3135  -16.9061 C   0  0  0  0  0  0  0  0  0  0  0  0
   26.6636  -21.1092  -15.5529 C   0  0  0  0  0  0  0  0  0  0  0  0
   25.7718  -21.9790  -15.7857 O   0  0  0  0  0  0  0  0  0  0  0  0
   23.2101  -20.1381   -9.0369 N   0  0  0  0  0  0  0  0  0  0  0  0
   23.8375  -21.0485   -8.1500 C   0  0  0  0  0  0  0  0  0  0  0  0
   23.1121  -21.5186   -7.1640 N   0  0  0  0  0  0  0  0  0  0  0  0
   25.1880  -21.4476   -8.3023 N   0  0  0  0  0  0  0  0  0  0  0  0
   25.9253  -20.9405   -9.4045 C   0  0  0  0  0  0  0  0  0  0  0  0
   25.2624  -21.1882  -10.7429 C   0  0  0  0  0  0  0  0  0  0  0  0
   26.2859  -20.8965  -11.7904 C   0  0  0  0  0  0  0  0  0  0  0  0
   25.7867  -21.0590  -13.2000 C   0  0  2  0  0  0  0  0  0  0  0  0
   26.7234  -20.6573  -14.2031 N   0  0  0  0  0  0  0  0  0  0  0  0
   24.4482  -20.4191  -13.3880 C   0  0  0  0  0  0  0  0  0  0  0  0
   24.3006  -19.1709  -13.3305 O   0  0  0  0  0  0  0  0  0  0  0  0
   23.4849  -22.1588   -6.4574 N   0  0  0  0  0  0  0  0  0  0  0  0
   23.3018  -21.2101  -13.6379 C   0  0  2  0  0  0  0  0  0  0  0  0
   22.0052  -20.5418  -13.9182 C   0  0  0  0  0  0  0  0  0  0  0  0
   21.2047  -21.3927  -14.8357 C   0  0  0  0  0  0  0  0  0  0  0  0
   19.8719  -20.7685  -15.1306 C   0  0  0  0  0  0  0  0  0  0  0  0
   19.0564  -21.6603  -16.0222 O   0  0  0  0  0  0  0  0  0  0  0  0
   19.4785  -22.8038  -16.2781 C   0  0  0  0  0  0  0  0  0  0  0  0
   21.3409  -20.3138  -12.6453 O   0  0  0  0  0  0  0  0  0  0  0  0
   21.5109  -21.0631  -11.6431 O   0  0  0  0  0  0  0  0  0  0  0  0
   17.8727  -21.2052  -16.5345 O   0  0  0  0  0  0  0  0  0  0  0  0
  2  1  1  6
  2  3  1  0
  3  4  1  0
  4  5  2  0
  5  6  1  0
  7  6  2  0
  8  7  1  0
  9  8  2  0
  9  4  1  0
 10 11  2  0
 10  2  1  0
 13 15  1  0
 13 12  1  0
 14 13  2  0
 16 17  1  0
 16 15  1  0
 17 18  1  0
 19 18  1  1
 19 20  1  0
 19 21  1  0
 20 10  1  0
 21 22  2  0
 21 23  1  0
 23 24  1  0
 24 29  1  0
 24 25  1  6
 26 25  1  0
 27 26  1  0
 28 27  2  0
 29 30  2  0
 29 32  1  0
 31 27  1  0
M  END
$$$$
