FRE.pdb
     RDKit          3D

 32 32  0  0  1  0  0  0  0  0999 V2000
   27.5835  -19.0629  -17.1555 N   0  0  0  0  0  0  0  0  0  0  0  0
   27.2104  -18.6704  -15.8086 C   0  0  1  0  0  0  0  0  0  0  0  0
   26.1874  -17.5400  -15.9715 C   0  0  0  0  0  0  0  0  0  0  0  0
   26.8667  -16.3189  -16.4166 C   0  0  0  0  0  0  0  0  0  0  0  0
   27.4925  -15.5191  -15.4858 C   0  0  0  0  0  0  0  0  0  0  0  0
   28.1539  -14.3468  -15.8513 C   0  0  0  0  0  0  0  0  0  0  0  0
   28.1898  -13.9715  -17.1568 C   0  0  0  0  0  0  0  0  0  0  0  0
   27.5693  -14.7537  -18.1239 C   0  0  0  0  0  0  0  0  0  0  0  0
   26.9175  -15.9160  -17.7354 C   0  0  0  0  0  0  0  0  0  0  0  0
   26.6028  -19.8408  -15.1525 C   0  0  0  0  0  0  0  0  0  0  0  0
   25.8814  -20.6600  -15.7962 O   0  0  0  0  0  0  0  0  0  0  0  0
   23.1883  -21.2930   -9.1430 N   0  0  0  0  0  0  0  0  0  0  0  0
   24.1340  -21.2455   -8.0883 C   0  0  0  0  0  0  0  0  0  0  0  0
   23.8350  -21.8925   -6.9877 N   0  0  0  0  0  0  0  0  0  0  0  0
   25.3555  -20.5365   -8.1956 N   0  0  0  0  0  0  0  0  0  0  0  0
   26.1670  -20.7522   -9.3404 C   0  0  0  0  0  0  0  0  0  0  0  0
   25.3783  -21.0883  -10.5882 C   0  0  0  0  0  0  0  0  0  0  0  0
   26.3747  -21.3632  -11.6659 C   0  0  0  0  0  0  0  0  0  0  0  0
   25.8956  -21.0170  -13.0491 C   0  0  2  0  0  0  0  0  0  0  0  0
   26.7700  -20.1454  -13.7707 N   0  0  0  0  0  0  0  0  0  0  0  0
   24.4857  -20.5185  -13.0355 C   0  0  0  0  0  0  0  0  0  0  0  0
   24.2046  -19.3462  -12.6752 O   0  0  0  0  0  0  0  0  0  0  0  0
   24.4239  -21.8651   -6.1506 N   0  0  0  0  0  0  0  0  0  0  0  0
   23.4210  -21.3622  -13.4318 C   0  0  2  0  0  0  0  0  0  0  0  0
   22.0600  -20.7885  -13.5898 C   0  0  0  0  0  0  0  0  0  0  0  0
   21.6714  -20.8386  -15.0228 C   0  0  0  0  0  0  0  0  0  0  0  0
   20.2720  -20.3347  -15.2236 C   0  0  0  0  0  0  0  0  0  0  0  0
   19.8842  -20.4151  -16.6723 O   0  0  0  0  0  0  0  0  0  0  0  0
   20.7188  -20.8345  -17.4962 C   0  0  0  0  0  0  0  0  0  0  0  0
   21.1583  -21.5484  -12.7395 O   0  0  0  0  0  0  0  0  0  0  0  0
   20.0423  -21.0993  -12.3551 O   0  0  0  0  0  0  0  0  0  0  0  0
   18.6305  -20.0295  -17.0596 O   0  0  0  0  0  0  0  0  0  0  0  0
  2  1  1  6
  2  3  1  0
  3  4  1  0
  4  5  2  0
  5  6  1  0
  7  6  2  0
  8  7  1  0
  9  8  2  0
  9  4  1  0
 10 11  2  0
 10  2  1  0
 13 15  1  0
 13 12  1  0
 14 13  2  0
 16 17  1  0
 16 15  1  0
 17 18  1  0
 19 18  1  1
 19 20  1  0
 19 21  1  0
 20 10  1  0
 21 22  2  0
 21 23  1  0
 23 24  1  0
 24 29  1  0
 24 25  1  6
 26 25  1  0
 27 26  1  0
 28 27  2  0
 29 30  2  0
 29 32  1  0
 31 27  1  0
M  END
$$$$
