FRE.pdb
     RDKit          3D

 32 32  0  0  1  0  0  0  0  0999 V2000
   28.2816  -20.8823   -9.7673 N   0  0  0  0  0  0  0  0  0  0  0  0
   26.8603  -20.8996   -9.4723 C   0  0  1  0  0  0  0  0  0  0  0  0
   26.5933  -19.6460   -8.6308 C   0  0  0  0  0  0  0  0  0  0  0  0
   27.2724  -19.7657   -7.3365 C   0  0  0  0  0  0  0  0  0  0  0  0
   28.1095  -18.7543   -6.9194 C   0  0  0  0  0  0  0  0  0  0  0  0
   28.7814  -18.8141   -5.6985 C   0  0  0  0  0  0  0  0  0  0  0  0
   28.6150  -19.8928   -4.8892 C   0  0  0  0  0  0  0  0  0  0  0  0
   27.7781  -20.9326   -5.2772 C   0  0  0  0  0  0  0  0  0  0  0  0
   27.1203  -20.8500   -6.4967 C   0  0  0  0  0  0  0  0  0  0  0  0
   26.1357  -20.8390  -10.7533 C   0  0  0  0  0  0  0  0  0  0  0  0
   26.4664  -20.0208  -11.6627 O   0  0  0  0  0  0  0  0  0  0  0  0
   27.1474  -24.5929  -14.7974 N   0  0  0  0  0  0  0  0  0  0  0  0
   26.7968  -23.8768  -15.9693 C   0  0  0  0  0  0  0  0  0  0  0  0
   27.7791  -23.4566  -16.7295 N   0  0  0  0  0  0  0  0  0  0  0  0
   25.4508  -23.6147  -16.3243 N   0  0  0  0  0  0  0  0  0  0  0  0
   24.4324  -23.8898  -15.3740 C   0  0  0  0  0  0  0  0  0  0  0  0
   23.9949  -22.6740  -14.5850 C   0  0  0  0  0  0  0  0  0  0  0  0
   24.6545  -22.7682  -13.2486 C   0  0  0  0  0  0  0  0  0  0  0  0
   24.3410  -21.6223  -12.3261 C   0  0  2  0  0  0  0  0  0  0  0  0
   25.0270  -21.6751  -11.0724 N   0  0  0  0  0  0  0  0  0  0  0  0
   22.8666  -21.4387  -12.1562 C   0  0  0  0  0  0  0  0  0  0  0  0
   22.3563  -21.2122  -11.0287 O   0  0  0  0  0  0  0  0  0  0  0  0
   27.6296  -22.8705  -17.5555 N   0  0  0  0  0  0  0  0  0  0  0  0
   21.9992  -21.5161  -13.2715 C   0  0  2  0  0  0  0  0  0  0  0  0
   20.6070  -21.0140  -13.1452 C   0  0  0  0  0  0  0  0  0  0  0  0
   20.6375  -19.5677  -12.8073 C   0  0  0  0  0  0  0  0  0  0  0  0
   19.2508  -18.9981  -12.7338 C   0  0  0  0  0  0  0  0  0  0  0  0
   19.2992  -17.5245  -12.4485 O   0  0  0  0  0  0  0  0  0  0  0  0
   20.4028  -16.9471  -12.4508 C   0  0  0  0  0  0  0  0  0  0  0  0
   19.9251  -21.2802  -14.4012 O   0  0  0  0  0  0  0  0  0  0  0  0
   20.5099  -21.2284  -15.5193 O   0  0  0  0  0  0  0  0  0  0  0  0
   18.1394  -16.8462  -12.1927 O   0  0  0  0  0  0  0  0  0  0  0  0
  2  1  1  6
  2  3  1  0
  3  4  1  0
  4  5  2  0
  5  6  1  0
  7  6  2  0
  8  7  1  0
  9  8  2  0
  9  4  1  0
 10 11  2  0
 10  2  1  0
 13 15  1  0
 13 12  1  0
 14 13  2  0
 16 17  1  0
 16 15  1  0
 17 18  1  0
 19 18  1  1
 19 20  1  0
 19 21  1  0
 20 10  1  0
 21 22  2  0
 21 23  1  0
 23 24  1  0
 24 29  1  0
 24 25  1  1
 26 25  1  0
 27 26  1  0
 28 27  2  0
 29 30  2  0
 29 32  1  0
 31 27  1  0
M  END
$$$$
