FRE.pdb
     RDKit          3D

 32 32  0  0  1  0  0  0  0  0999 V2000
   26.1197  -21.3485  -13.1805 N   0  0  0  0  0  0  0  0  0  0  0  0
   25.4788  -21.2124  -11.8851 C   0  0  1  0  0  0  0  0  0  0  0  0
   26.2851  -20.1491  -11.1300 C   0  0  0  0  0  0  0  0  0  0  0  0
   27.6406  -20.6466  -10.8734 C   0  0  0  0  0  0  0  0  0  0  0  0
   27.9295  -21.2146   -9.6520 C   0  0  0  0  0  0  0  0  0  0  0  0
   29.2006  -21.7044   -9.3525 C   0  0  0  0  0  0  0  0  0  0  0  0
   30.1898  -21.6257  -10.2806 C   0  0  0  0  0  0  0  0  0  0  0  0
   29.9352  -21.0589  -11.5241 C   0  0  0  0  0  0  0  0  0  0  0  0
   28.6622  -20.5785  -11.7986 C   0  0  0  0  0  0  0  0  0  0  0  0
   24.0955  -20.7610  -12.1142 C   0  0  0  0  0  0  0  0  0  0  0  0
   23.8419  -19.5941  -12.5383 O   0  0  0  0  0  0  0  0  0  0  0  0
   23.1880  -20.4722  -18.5630 N   0  0  0  0  0  0  0  0  0  0  0  0
   23.1110  -21.8499  -18.2388 C   0  0  0  0  0  0  0  0  0  0  0  0
   23.7475  -22.6852  -19.0239 N   0  0  0  0  0  0  0  0  0  0  0  0
   22.3843  -22.3269  -17.1205 N   0  0  0  0  0  0  0  0  0  0  0  0
   21.9905  -21.3987  -16.1209 C   0  0  0  0  0  0  0  0  0  0  0  0
   22.0734  -21.9513  -14.7139 C   0  0  0  0  0  0  0  0  0  0  0  0
   21.5690  -20.8823  -13.8014 C   0  0  0  0  0  0  0  0  0  0  0  0
   21.6399  -21.2362  -12.3412 C   0  0  2  0  0  0  0  0  0  0  0  0
   22.9511  -21.5779  -11.8843 N   0  0  0  0  0  0  0  0  0  0  0  0
   20.6259  -22.2729  -11.9754 C   0  0  0  0  0  0  0  0  0  0  0  0
   20.7244  -23.4614  -12.3765 O   0  0  0  0  0  0  0  0  0  0  0  0
   23.7601  -23.6964  -18.8642 N   0  0  0  0  0  0  0  0  0  0  0  0
   19.5185  -21.9393  -11.1602 C   0  0  1  0  0  0  0  0  0  0  0  0
   18.6694  -23.0260  -10.6083 C   0  0  0  0  0  0  0  0  0  0  0  0
   18.5585  -22.8602   -9.1362 C   0  0  0  0  0  0  0  0  0  0  0  0
   18.9707  -24.1112   -8.4166 C   0  0  0  0  0  0  0  0  0  0  0  0
   18.9277  -23.9041   -6.9297 O   0  0  0  0  0  0  0  0  0  0  0  0
   18.5445  -22.8052   -6.4861 C   0  0  0  0  0  0  0  0  0  0  0  0
   17.3799  -22.9623  -11.2765 O   0  0  0  0  0  0  0  0  0  0  0  0
   16.9753  -21.9304  -11.8816 O   0  0  0  0  0  0  0  0  0  0  0  0
   19.3072  -24.9181   -6.0940 O   0  0  0  0  0  0  0  0  0  0  0  0
  2  1  1  6
  2  3  1  0
  3  4  1  0
  4  5  2  0
  5  6  1  0
  7  6  2  0
  8  7  1  0
  9  8  2  0
  9  4  1  0
 10 11  2  0
 10  2  1  0
 13 15  1  0
 13 12  1  0
 14 13  2  0
 16 17  1  0
 16 15  1  0
 17 18  1  0
 19 18  1  6
 19 20  1  0
 19 21  1  0
 20 10  1  0
 21 22  2  0
 21 23  1  0
 23 24  1  0
 24 29  1  0
 24 25  1  6
 26 25  1  0
 27 26  1  0
 28 27  2  0
 29 30  2  0
 29 32  1  0
 31 27  1  0
M  END
$$$$
