FRE.pdb
     RDKit          3D

 32 32  0  0  1  0  0  0  0  0999 V2000
   21.7567  -20.7613  -10.2992 N   0  0  0  0  0  0  0  0  0  0  0  0
   21.3940  -21.2143  -11.6298 C   0  0  1  0  0  0  0  0  0  0  0  0
   19.8935  -20.9328  -11.7721 C   0  0  0  0  0  0  0  0  0  0  0  0
   19.1283  -22.1195  -11.3761 C   0  0  0  0  0  0  0  0  0  0  0  0
   19.1815  -23.2486  -12.1636 C   0  0  0  0  0  0  0  0  0  0  0  0
   18.4748  -24.4057  -11.8364 C   0  0  0  0  0  0  0  0  0  0  0  0
   17.7096  -24.4340  -10.7139 C   0  0  0  0  0  0  0  0  0  0  0  0
   17.6318  -23.3134   -9.8951 C   0  0  0  0  0  0  0  0  0  0  0  0
   18.3443  -22.1737  -10.2420 C   0  0  0  0  0  0  0  0  0  0  0  0
   22.1728  -20.4255  -12.5999 C   0  0  0  0  0  0  0  0  0  0  0  0
   22.4504  -19.2068  -12.3909 O   0  0  0  0  0  0  0  0  0  0  0  0
   28.9617  -21.9837  -18.0499 N   0  0  0  0  0  0  0  0  0  0  0  0
   28.5069  -22.1165  -16.7140 C   0  0  0  0  0  0  0  0  0  0  0  0
   29.1099  -23.0061  -15.9628 N   0  0  0  0  0  0  0  0  0  0  0  0
   27.4487  -21.3333  -16.1913 N   0  0  0  0  0  0  0  0  0  0  0  0
   26.3425  -21.0397  -17.0314 C   0  0  0  0  0  0  0  0  0  0  0  0
   25.3305  -20.1087  -16.3981 C   0  0  0  0  0  0  0  0  0  0  0  0
   24.5206  -20.9330  -15.4522 C   0  0  0  0  0  0  0  0  0  0  0  0
   23.4154  -20.1760  -14.7682 C   0  0  2  0  0  0  0  0  0  0  0  0
   22.6691  -20.9522  -13.8271 N   0  0  0  0  0  0  0  0  0  0  0  0
   22.5317  -19.4802  -15.7538 C   0  0  0  0  0  0  0  0  0  0  0  0
   21.6552  -20.1028  -16.4074 O   0  0  0  0  0  0  0  0  0  0  0  0
   28.7851  -23.2504  -15.0231 N   0  0  0  0  0  0  0  0  0  0  0  0
   22.6607  -18.0890  -15.9783 C   0  0  2  0  0  0  0  0  0  0  0  0
   21.7071  -17.4093  -16.8919 C   0  0  0  0  0  0  0  0  0  0  0  0
   21.9429  -15.9434  -16.8426 C   0  0  0  0  0  0  0  0  0  0  0  0
   20.9915  -15.2100  -17.7424 C   0  0  0  0  0  0  0  0  0  0  0  0
   19.7444  -14.8310  -16.9963 O   0  0  0  0  0  0  0  0  0  0  0  0
   19.8473  -14.3981  -15.8330 C   0  0  0  0  0  0  0  0  0  0  0  0
   21.8996  -17.9617  -18.2228 O   0  0  0  0  0  0  0  0  0  0  0  0
   20.9370  -18.2492  -18.9880 O   0  0  0  0  0  0  0  0  0  0  0  0
   18.5258  -14.9665  -17.6023 O   0  0  0  0  0  0  0  0  0  0  0  0
  2  1  1  1
  2  3  1  0
  3  4  1  0
  4  5  2  0
  5  6  1  0
  7  6  2  0
  8  7  1  0
  9  8  2  0
  9  4  1  0
 10 11  2  0
 10  2  1  0
 13 15  1  0
 13 12  1  0
 14 13  2  0
 16 17  1  0
 16 15  1  0
 17 18  1  0
 19 18  1  6
 19 20  1  0
 19 21  1  0
 20 10  1  0
 21 22  2  0
 21 23  1  0
 23 24  1  0
 24 29  1  0
 24 25  1  1
 26 25  1  0
 27 26  1  0
 28 27  2  0
 29 30  2  0
 29 32  1  0
 31 27  1  0
M  END
$$$$
