FRE.pdb
     RDKit          3D

 32 32  0  0  1  0  0  0  0  0999 V2000
   26.0048  -15.4670  -18.5817 N   0  0  0  0  0  0  0  0  0  0  0  0
   26.6595  -16.0365  -17.4179 C   0  0  1  0  0  0  0  0  0  0  0  0
   26.2960  -15.1196  -16.2440 C   0  0  0  0  0  0  0  0  0  0  0  0
   27.0049  -13.8426  -16.3765 C   0  0  0  0  0  0  0  0  0  0  0  0
   26.3140  -12.6660  -16.1860 C   0  0  0  0  0  0  0  0  0  0  0  0
   26.9361  -11.4229  -16.2993 C   0  0  0  0  0  0  0  0  0  0  0  0
   28.2582  -11.3556  -16.6052 C   0  0  0  0  0  0  0  0  0  0  0  0
   28.9876  -12.5220  -16.8044 C   0  0  0  0  0  0  0  0  0  0  0  0
   28.3462  -13.7473  -16.6861 C   0  0  0  0  0  0  0  0  0  0  0  0
   26.1172  -17.3911  -17.2163 C   0  0  0  0  0  0  0  0  0  0  0  0
   24.8897  -17.6467  -17.4002 O   0  0  0  0  0  0  0  0  0  0  0  0
   29.6925  -25.3072  -16.7668 N   0  0  0  0  0  0  0  0  0  0  0  0
   28.3081  -25.5508  -16.5848 C   0  0  0  0  0  0  0  0  0  0  0  0
   27.8951  -26.7873  -16.7250 N   0  0  0  0  0  0  0  0  0  0  0  0
   27.3918  -24.5191  -16.2650 N   0  0  0  0  0  0  0  0  0  0  0  0
   27.8592  -23.1786  -16.2443 C   0  0  0  0  0  0  0  0  0  0  0  0
   26.7995  -22.1731  -15.8469 C   0  0  0  0  0  0  0  0  0  0  0  0
   27.3734  -20.8187  -16.1042 C   0  0  0  0  0  0  0  0  0  0  0  0
   26.3508  -19.7754  -16.4624 C   0  0  2  0  0  0  0  0  0  0  0  0
   26.9072  -18.5039  -16.8070 N   0  0  0  0  0  0  0  0  0  0  0  0
   25.2885  -19.6626  -15.4158 C   0  0  0  0  0  0  0  0  0  0  0  0
   25.4902  -19.0501  -14.3354 O   0  0  0  0  0  0  0  0  0  0  0  0
   26.9246  -27.0698  -16.5624 N   0  0  0  0  0  0  0  0  0  0  0  0
   24.0161  -20.2483  -15.6167 C   0  0  2  0  0  0  0  0  0  0  0  0
   22.9833  -20.1228  -14.5567 C   0  0  0  0  0  0  0  0  0  0  0  0
   21.7463  -19.5475  -15.1447 C   0  0  0  0  0  0  0  0  0  0  0  0
   21.4552  -18.1897  -14.5752 C   0  0  0  0  0  0  0  0  0  0  0  0
   20.1569  -17.6588  -15.1119 O   0  0  0  0  0  0  0  0  0  0  0  0
   19.8979  -17.8117  -16.3205 C   0  0  0  0  0  0  0  0  0  0  0  0
   22.7699  -21.4439  -13.9885 O   0  0  0  0  0  0  0  0  0  0  0  0
   23.3041  -22.4851  -14.4631 O   0  0  0  0  0  0  0  0  0  0  0  0
   19.2873  -17.0209  -14.2707 O   0  0  0  0  0  0  0  0  0  0  0  0
  2  1  1  6
  2  3  1  0
  3  4  1  0
  4  5  2  0
  5  6  1  0
  7  6  2  0
  8  7  1  0
  9  8  2  0
  9  4  1  0
 10 11  2  0
 10  2  1  0
 13 15  1  0
 13 12  1  0
 14 13  2  0
 16 17  1  0
 16 15  1  0
 17 18  1  0
 19 18  1  1
 19 20  1  0
 19 21  1  0
 20 10  1  0
 21 22  2  0
 21 23  1  0
 23 24  1  0
 24 29  1  0
 24 25  1  6
 26 25  1  0
 27 26  1  0
 28 27  2  0
 29 30  2  0
 29 32  1  0
 31 27  1  0
M  END
$$$$
