FRE.pdb
     RDKit          3D

 32 32  0  0  1  0  0  0  0  0999 V2000
   18.8397   -9.7834  -14.1368 N   0  0  0  0  0  0  0  0  0  0  0  0
   19.4769   -8.5548  -13.6987 C   0  0  1  0  0  0  0  0  0  0  0  0
   20.5627   -8.2539  -14.7386 C   0  0  0  0  0  0  0  0  0  0  0  0
   21.6931   -9.1693  -14.5520 C   0  0  0  0  0  0  0  0  0  0  0  0
   21.8819  -10.1978  -15.4489 C   0  0  0  0  0  0  0  0  0  0  0  0
   22.9392  -11.0983  -15.3212 C   0  0  0  0  0  0  0  0  0  0  0  0
   23.8141  -10.9696  -14.2895 C   0  0  0  0  0  0  0  0  0  0  0  0
   23.6551   -9.9438  -13.3650 C   0  0  0  0  0  0  0  0  0  0  0  0
   22.5950   -9.0601  -13.5133 C   0  0  0  0  0  0  0  0  0  0  0  0
   18.4514   -7.4976  -13.6860 C   0  0  0  0  0  0  0  0  0  0  0  0
   17.5397   -7.4494  -14.5649 O   0  0  0  0  0  0  0  0  0  0  0  0
   15.5214   -2.1449   -7.3631 N   0  0  0  0  0  0  0  0  0  0  0  0
   14.7075   -1.7985   -8.4707 C   0  0  0  0  0  0  0  0  0  0  0  0
   13.7004   -0.9904   -8.2430 N   0  0  0  0  0  0  0  0  0  0  0  0
   14.9522   -2.2917   -9.7758 N   0  0  0  0  0  0  0  0  0  0  0  0
   16.0106   -3.2193   -9.9634 C   0  0  0  0  0  0  0  0  0  0  0  0
   16.1366   -3.7152  -11.3883 C   0  0  0  0  0  0  0  0  0  0  0  0
   17.2029   -4.7607  -11.3871 C   0  0  0  0  0  0  0  0  0  0  0  0
   17.4162   -5.4229  -12.7207 C   0  0  2  0  0  0  0  0  0  0  0  0
   18.3975   -6.4629  -12.7080 N   0  0  0  0  0  0  0  0  0  0  0  0
   17.6701   -4.4194  -13.8002 C   0  0  0  0  0  0  0  0  0  0  0  0
   18.7885   -3.8573  -13.9275 O   0  0  0  0  0  0  0  0  0  0  0  0
   13.1048   -0.6222   -8.9899 N   0  0  0  0  0  0  0  0  0  0  0  0
   16.6476   -4.0735  -14.7152 C   0  0  2  0  0  0  0  0  0  0  0  0
   16.9365   -3.0883  -15.7886 C   0  0  0  0  0  0  0  0  0  0  0  0
   15.7436   -2.9548  -16.6639 C   0  0  0  0  0  0  0  0  0  0  0  0
   16.0330   -2.0756  -17.8454 C   0  0  0  0  0  0  0  0  0  0  0  0
   14.7720   -1.4317  -18.3464 O   0  0  0  0  0  0  0  0  0  0  0  0
   13.7040   -1.6517  -17.7447 C   0  0  0  0  0  0  0  0  0  0  0  0
   17.3048   -1.8348  -15.1510 O   0  0  0  0  0  0  0  0  0  0  0  0
   16.7428   -1.4119  -14.1021 O   0  0  0  0  0  0  0  0  0  0  0  0
   14.8174   -0.6206  -19.4467 O   0  0  0  0  0  0  0  0  0  0  0  0
  2  1  1  6
  2  3  1  0
  3  4  1  0
  4  5  2  0
  5  6  1  0
  7  6  2  0
  8  7  1  0
  9  8  2  0
  9  4  1  0
 10 11  2  0
 10  2  1  0
 13 15  1  0
 13 12  1  0
 14 13  2  0
 16 17  1  0
 16 15  1  0
 17 18  1  0
 19 18  1  1
 19 20  1  0
 19 21  1  0
 20 10  1  0
 21 22  2  0
 21 23  1  0
 23 24  1  0
 24 29  1  0
 24 25  1  1
 26 25  1  0
 27 26  1  0
 28 27  2  0
 29 30  2  0
 29 32  1  0
 31 27  1  0
M  END
$$$$
