FRE.pdb
     RDKit          3D

 32 32  0  0  1  0  0  0  0  0999 V2000
   28.1727  -21.4095  -14.3673 N   0  0  0  0  0  0  0  0  0  0  0  0
   27.1221  -21.2448  -13.3791 C   0  0  1  0  0  0  0  0  0  0  0  0
   27.5180  -20.0177  -12.5494 C   0  0  0  0  0  0  0  0  0  0  0  0
   28.6288  -20.3626  -11.6562 C   0  0  0  0  0  0  0  0  0  0  0  0
   29.9214  -20.1115  -12.0612 C   0  0  0  0  0  0  0  0  0  0  0  0
   31.0164  -20.4185  -11.2537 C   0  0  0  0  0  0  0  0  0  0  0  0
   30.8177  -20.9805  -10.0327 C   0  0  0  0  0  0  0  0  0  0  0  0
   29.5273  -21.2483   -9.5906 C   0  0  0  0  0  0  0  0  0  0  0  0
   28.4537  -20.9337  -10.4123 C   0  0  0  0  0  0  0  0  0  0  0  0
   25.8603  -21.0081  -14.1013 C   0  0  0  0  0  0  0  0  0  0  0  0
   25.8200  -20.2919  -15.1460 O   0  0  0  0  0  0  0  0  0  0  0  0
   19.6016  -24.2574  -12.6428 N   0  0  0  0  0  0  0  0  0  0  0  0
   20.1195  -25.3026  -13.4480 C   0  0  0  0  0  0  0  0  0  0  0  0
   19.4058  -26.3990  -13.5362 N   0  0  0  0  0  0  0  0  0  0  0  0
   21.3522  -25.1903  -14.1368 N   0  0  0  0  0  0  0  0  0  0  0  0
   22.4640  -24.6330  -13.4519 C   0  0  0  0  0  0  0  0  0  0  0  0
   23.4216  -23.8871  -14.3566 C   0  0  0  0  0  0  0  0  0  0  0  0
   22.7102  -22.6570  -14.8153 C   0  0  0  0  0  0  0  0  0  0  0  0
   23.3989  -21.3729  -14.4419 C   0  0  2  0  0  0  0  0  0  0  0  0
   24.6066  -21.5511  -13.6972 N   0  0  0  0  0  0  0  0  0  0  0  0
   22.4604  -20.4174  -13.7765 C   0  0  0  0  0  0  0  0  0  0  0  0
   22.4051  -20.3127  -12.5239 O   0  0  0  0  0  0  0  0  0  0  0  0
   19.7500  -27.2499  -13.9898 N   0  0  0  0  0  0  0  0  0  0  0  0
   21.6020  -19.5982  -14.5476 C   0  0  2  0  0  0  0  0  0  0  0  0
   20.6116  -18.7323  -13.8580 C   0  0  0  0  0  0  0  0  0  0  0  0
   20.2747  -17.5809  -14.7341 C   0  0  0  0  0  0  0  0  0  0  0  0
   21.5087  -16.8308  -15.1431 C   0  0  0  0  0  0  0  0  0  0  0  0
   21.1648  -15.7361  -16.1120 O   0  0  0  0  0  0  0  0  0  0  0  0
   22.0468  -15.3185  -16.8860 C   0  0  0  0  0  0  0  0  0  0  0  0
   19.4530  -19.5512  -13.5411 O   0  0  0  0  0  0  0  0  0  0  0  0
   19.2349  -20.6668  -14.0914 O   0  0  0  0  0  0  0  0  0  0  0  0
   19.8983  -15.2199  -16.1283 O   0  0  0  0  0  0  0  0  0  0  0  0
  2  1  1  6
  2  3  1  0
  3  4  1  0
  4  5  2  0
  5  6  1  0
  7  6  2  0
  8  7  1  0
  9  8  2  0
  9  4  1  0
 10 11  2  0
 10  2  1  0
 13 15  1  0
 13 12  1  0
 14 13  2  0
 16 17  1  0
 16 15  1  0
 17 18  1  0
 19 18  1  1
 19 20  1  0
 19 21  1  0
 20 10  1  0
 21 22  2  0
 21 23  1  0
 23 24  1  0
 24 29  1  0
 24 25  1  6
 26 25  1  0
 27 26  1  0
 28 27  2  0
 29 30  2  0
 29 32  1  0
 31 27  1  0
M  END
$$$$
