FRE.pdb
     RDKit          3D

 32 32  0  0  1  0  0  0  0  0999 V2000
   22.9090  -10.1910  -12.9590 N   0  0  0  0  0  0  0  0  0  0  0  0
   22.3527   -9.5140  -14.1164 C   0  0  1  0  0  0  0  0  0  0  0  0
   22.8779  -10.2766  -15.3385 C   0  0  0  0  0  0  0  0  0  0  0  0
   24.3028   -9.9859  -15.5277 C   0  0  0  0  0  0  0  0  0  0  0  0
   25.2339  -10.9544  -15.2228 C   0  0  0  0  0  0  0  0  0  0  0  0
   26.6018  -10.7338  -15.3827 C   0  0  0  0  0  0  0  0  0  0  0  0
   27.0418   -9.5364  -15.8507 C   0  0  0  0  0  0  0  0  0  0  0  0
   26.1313   -8.5354  -16.1688 C   0  0  0  0  0  0  0  0  0  0  0  0
   24.7751   -8.7789  -16.0011 C   0  0  0  0  0  0  0  0  0  0  0  0
   20.8853   -9.6065  -14.0277 C   0  0  0  0  0  0  0  0  0  0  0  0
   20.3096  -10.6817  -13.6835 O   0  0  0  0  0  0  0  0  0  0  0  0
   16.1922   -7.4391   -9.8056 N   0  0  0  0  0  0  0  0  0  0  0  0
   16.7780   -6.1570   -9.6571 C   0  0  0  0  0  0  0  0  0  0  0  0
   16.6529   -5.5742   -8.4892 N   0  0  0  0  0  0  0  0  0  0  0  0
   17.4731   -5.5136  -10.7103 N   0  0  0  0  0  0  0  0  0  0  0  0
   17.2644   -5.9688  -12.0388 C   0  0  0  0  0  0  0  0  0  0  0  0
   18.0646   -7.2055  -12.3888 C   0  0  0  0  0  0  0  0  0  0  0  0
   17.8292   -7.4742  -13.8387 C   0  0  0  0  0  0  0  0  0  0  0  0
   18.5858   -8.6582  -14.3754 C   0  0  2  0  0  0  0  0  0  0  0  0
   20.0080   -8.5212  -14.3145 N   0  0  0  0  0  0  0  0  0  0  0  0
   18.1131   -9.0414  -15.7415 C   0  0  0  0  0  0  0  0  0  0  0  0
   18.5999   -8.5197  -16.7777 O   0  0  0  0  0  0  0  0  0  0  0  0
   17.0805   -4.6697   -8.2719 N   0  0  0  0  0  0  0  0  0  0  0  0
   17.0952  -10.0109  -15.9044 C   0  0  2  0  0  0  0  0  0  0  0  0
   16.6636  -10.3875  -17.2748 C   0  0  0  0  0  0  0  0  0  0  0  0
   16.3040  -11.8288  -17.2955 C   0  0  0  0  0  0  0  0  0  0  0  0
   17.4127  -12.6565  -17.8773 C   0  0  0  0  0  0  0  0  0  0  0  0
   17.2635  -14.0961  -17.4765 O   0  0  0  0  0  0  0  0  0  0  0  0
   16.1235  -14.5968  -17.4444 C   0  0  0  0  0  0  0  0  0  0  0  0
   15.5490   -9.5282  -17.6393 O   0  0  0  0  0  0  0  0  0  0  0  0
   15.0320   -8.7034  -16.8349 O   0  0  0  0  0  0  0  0  0  0  0  0
   18.3737  -14.8279  -17.1560 O   0  0  0  0  0  0  0  0  0  0  0  0
  2  1  1  1
  2  3  1  0
  3  4  1  0
  4  5  2  0
  5  6  1  0
  7  6  2  0
  8  7  1  0
  9  8  2  0
  9  4  1  0
 10 11  2  0
 10  2  1  0
 13 15  1  0
 13 12  1  0
 14 13  2  0
 16 17  1  0
 16 15  1  0
 17 18  1  0
 19 18  1  6
 19 20  1  0
 19 21  1  0
 20 10  1  0
 21 22  2  0
 21 23  1  0
 23 24  1  0
 24 29  1  0
 24 25  1  1
 26 25  1  0
 27 26  1  0
 28 27  2  0
 29 30  2  0
 29 32  1  0
 31 27  1  0
M  END
$$$$
