FRE.pdb
     RDKit          3D

 32 32  0  0  1  0  0  0  0  0999 V2000
   15.8506  -11.4759  -10.3786 N   0  0  0  0  0  0  0  0  0  0  0  0
   15.1323  -10.2145  -10.3652 C   0  0  1  0  0  0  0  0  0  0  0  0
   13.8976  -10.4464   -9.4863 C   0  0  0  0  0  0  0  0  0  0  0  0
   12.7883  -10.9357  -10.3115 C   0  0  0  0  0  0  0  0  0  0  0  0
   11.7950  -11.6895   -9.7258 C   0  0  0  0  0  0  0  0  0  0  0  0
   10.7166  -12.1813  -10.4611 C   0  0  0  0  0  0  0  0  0  0  0  0
   10.6308  -11.9175  -11.7913 C   0  0  0  0  0  0  0  0  0  0  0  0
   11.6147  -11.1601  -12.4163 C   0  0  0  0  0  0  0  0  0  0  0  0
   12.6781  -10.6819  -11.6633 C   0  0  0  0  0  0  0  0  0  0  0  0
   16.0192   -9.1995   -9.7712 C   0  0  0  0  0  0  0  0  0  0  0  0
   16.8097   -9.4851   -8.8228 O   0  0  0  0  0  0  0  0  0  0  0  0
   22.4188   -7.7386  -13.2984 N   0  0  0  0  0  0  0  0  0  0  0  0
   21.2958   -7.5204  -14.1352 C   0  0  0  0  0  0  0  0  0  0  0  0
   21.4929   -7.5876  -15.4298 N   0  0  0  0  0  0  0  0  0  0  0  0
   20.0072   -7.2404  -13.6182 N   0  0  0  0  0  0  0  0  0  0  0  0
   19.8342   -7.2049  -12.2094 C   0  0  0  0  0  0  0  0  0  0  0  0
   18.4159   -6.8945  -11.7804 C   0  0  0  0  0  0  0  0  0  0  0  0
   18.3813   -7.0114  -10.2921 C   0  0  0  0  0  0  0  0  0  0  0  0
   17.0049   -6.8907   -9.6976 C   0  0  2  0  0  0  0  0  0  0  0  0
   16.0637   -7.8421  -10.2015 N   0  0  0  0  0  0  0  0  0  0  0  0
   16.4902   -5.4889   -9.7791 C   0  0  0  0  0  0  0  0  0  0  0  0
   16.0271   -5.0182  -10.8500 O   0  0  0  0  0  0  0  0  0  0  0  0
   20.7342   -7.5004  -16.1117 N   0  0  0  0  0  0  0  0  0  0  0  0
   16.5116   -4.6479   -8.6412 C   0  0  2  0  0  0  0  0  0  0  0  0
   15.8876   -3.3023   -8.7209 C   0  0  0  0  0  0  0  0  0  0  0  0
   15.3745   -2.9209   -7.3799 C   0  0  0  0  0  0  0  0  0  0  0  0
   13.8970   -3.1630   -7.2751 C   0  0  0  0  0  0  0  0  0  0  0  0
   13.3887   -2.7513   -5.9232 O   0  0  0  0  0  0  0  0  0  0  0  0
   14.1826   -2.2374   -5.1127 C   0  0  0  0  0  0  0  0  0  0  0  0
   16.8929   -2.3774   -9.2184 O   0  0  0  0  0  0  0  0  0  0  0  0
   18.0954   -2.7137   -9.4075 O   0  0  0  0  0  0  0  0  0  0  0  0
   12.0723   -2.9461   -5.6071 O   0  0  0  0  0  0  0  0  0  0  0  0
  2  1  1  1
  2  3  1  0
  3  4  1  0
  4  5  2  0
  5  6  1  0
  7  6  2  0
  8  7  1  0
  9  8  2  0
  9  4  1  0
 10 11  2  0
 10  2  1  0
 13 15  1  0
 13 12  1  0
 14 13  2  0
 16 17  1  0
 16 15  1  0
 17 18  1  0
 19 18  1  6
 19 20  1  0
 19 21  1  0
 20 10  1  0
 21 22  2  0
 21 23  1  0
 23 24  1  0
 24 29  1  0
 24 25  1  1
 26 25  1  0
 27 26  1  0
 28 27  2  0
 29 30  2  0
 29 32  1  0
 31 27  1  0
M  END
$$$$
