FRE.pdb
     RDKit          3D

 32 32  0  0  1  0  0  0  0  0999 V2000
   25.7191  -13.9608  -17.5008 N   0  0  0  0  0  0  0  0  0  0  0  0
   25.8671  -14.5101  -16.1652 C   0  0  1  0  0  0  0  0  0  0  0  0
   24.9507  -13.6726  -15.2654 C   0  0  0  0  0  0  0  0  0  0  0  0
   25.4929  -12.3163  -15.1335 C   0  0  0  0  0  0  0  0  0  0  0  0
   26.8013  -12.1500  -14.7355 C   0  0  0  0  0  0  0  0  0  0  0  0
   27.3700  -10.8845  -14.5931 C   0  0  0  0  0  0  0  0  0  0  0  0
   26.6253   -9.7774  -14.8504 C   0  0  0  0  0  0  0  0  0  0  0  0
   25.3014   -9.9065  -15.2541 C   0  0  0  0  0  0  0  0  0  0  0  0
   24.7580  -11.1767  -15.3886 C   0  0  0  0  0  0  0  0  0  0  0  0
   25.4251  -15.9146  -16.2064 C   0  0  0  0  0  0  0  0  0  0  0  0
   24.4504  -16.2807  -16.9287 O   0  0  0  0  0  0  0  0  0  0  0  0
   26.1770  -21.0723  -10.6249 N   0  0  0  0  0  0  0  0  0  0  0  0
   26.3035  -21.7194  -11.8796 C   0  0  0  0  0  0  0  0  0  0  0  0
   25.5447  -22.7677  -12.0907 N   0  0  0  0  0  0  0  0  0  0  0  0
   27.2036  -21.2713  -12.8772 N   0  0  0  0  0  0  0  0  0  0  0  0
   27.7221  -19.9531  -12.7809 C   0  0  0  0  0  0  0  0  0  0  0  0
   26.7769  -18.8904  -13.2999 C   0  0  0  0  0  0  0  0  0  0  0  0
   26.4306  -19.2703  -14.7019 C   0  0  0  0  0  0  0  0  0  0  0  0
   25.5268  -18.2907  -15.3991 C   0  0  2  0  0  0  0  0  0  0  0  0
   26.0407  -16.9574  -15.4556 N   0  0  0  0  0  0  0  0  0  0  0  0
   24.1360  -18.3375  -14.8512 C   0  0  0  0  0  0  0  0  0  0  0  0
   23.6817  -17.4145  -14.1269 O   0  0  0  0  0  0  0  0  0  0  0  0
   25.5909  -23.3218  -12.9504 N   0  0  0  0  0  0  0  0  0  0  0  0
   23.2873  -19.4332  -15.1368 C   0  0  1  0  0  0  0  0  0  0  0  0
   21.9102  -19.4495  -14.5804 C   0  0  0  0  0  0  0  0  0  0  0  0
   21.1474  -18.2988  -15.1290 C   0  0  0  0  0  0  0  0  0  0  0  0
   20.6069  -17.4321  -14.0292 C   0  0  0  0  0  0  0  0  0  0  0  0
   19.1105  -17.3390  -14.1168 O   0  0  0  0  0  0  0  0  0  0  0  0
   18.4997  -16.6563  -13.2729 C   0  0  0  0  0  0  0  0  0  0  0  0
   21.3112  -20.7299  -14.9198 O   0  0  0  0  0  0  0  0  0  0  0  0
   21.8059  -21.5070  -15.7836 O   0  0  0  0  0  0  0  0  0  0  0  0
   18.4486  -18.0005  -15.1142 O   0  0  0  0  0  0  0  0  0  0  0  0
  2  1  1  6
  2  3  1  0
  3  4  1  0
  4  5  2  0
  5  6  1  0
  7  6  2  0
  8  7  1  0
  9  8  2  0
  9  4  1  0
 10 11  2  0
 10  2  1  0
 13 15  1  0
 13 12  1  0
 14 13  2  0
 16 17  1  0
 16 15  1  0
 17 18  1  0
 19 18  1  1
 19 20  1  0
 19 21  1  0
 20 10  1  0
 21 22  2  0
 21 23  1  0
 23 24  1  0
 24 29  1  0
 24 25  1  6
 26 25  1  0
 27 26  1  0
 28 27  2  0
 29 30  2  0
 29 32  1  0
 31 27  1  0
M  END
$$$$
