FRE.pdb
     RDKit          3D

 32 32  0  0  1  0  0  0  0  0999 V2000
   25.0727  -26.7976  -16.5412 N   0  0  0  0  0  0  0  0  0  0  0  0
   24.3458  -26.0682  -15.5179 C   0  0  1  0  0  0  0  0  0  0  0  0
   23.5989  -24.9494  -16.2535 C   0  0  0  0  0  0  0  0  0  0  0  0
   24.5575  -23.9509  -16.7382 C   0  0  0  0  0  0  0  0  0  0  0  0
   24.8573  -23.9021  -18.0819 C   0  0  0  0  0  0  0  0  0  0  0  0
   25.7610  -22.9741  -18.5992 C   0  0  0  0  0  0  0  0  0  0  0  0
   26.3692  -22.0887  -17.7670 C   0  0  0  0  0  0  0  0  0  0  0  0
   26.0912  -22.1083  -16.4052 C   0  0  0  0  0  0  0  0  0  0  0  0
   25.1882  -23.0413  -15.9143 C   0  0  0  0  0  0  0  0  0  0  0  0
   23.4016  -27.0049  -14.8848 C   0  0  0  0  0  0  0  0  0  0  0  0
   22.9801  -28.0328  -15.4944 O   0  0  0  0  0  0  0  0  0  0  0  0
   22.5237  -32.4499   -9.0976 N   0  0  0  0  0  0  0  0  0  0  0  0
   23.6082  -31.6622   -9.5586 C   0  0  0  0  0  0  0  0  0  0  0  0
   24.7620  -32.2655   -9.7132 N   0  0  0  0  0  0  0  0  0  0  0  0
   23.4749  -30.2817   -9.8463 N   0  0  0  0  0  0  0  0  0  0  0  0
   22.2101  -29.6668   -9.6514 C   0  0  0  0  0  0  0  0  0  0  0  0
   21.5455  -29.2261  -10.9383 C   0  0  0  0  0  0  0  0  0  0  0  0
   22.4849  -28.2750  -11.6038 C   0  0  0  0  0  0  0  0  0  0  0  0
   22.0105  -27.7768  -12.9414 C   0  0  2  0  0  0  0  0  0  0  0  0
   22.8932  -26.8398  -13.5641 N   0  0  0  0  0  0  0  0  0  0  0  0
   20.6049  -27.2707  -12.8743 C   0  0  0  0  0  0  0  0  0  0  0  0
   20.3111  -26.2233  -12.2421 O   0  0  0  0  0  0  0  0  0  0  0  0
   25.6058  -31.7772  -10.0261 N   0  0  0  0  0  0  0  0  0  0  0  0
   19.5588  -27.9648  -13.5273 C   0  0  2  0  0  0  0  0  0  0  0  0
   18.1896  -27.3891  -13.5197 C   0  0  0  0  0  0  0  0  0  0  0  0
   17.4727  -27.8159  -14.7488 C   0  0  0  0  0  0  0  0  0  0  0  0
   17.4318  -29.3120  -14.8615 C   0  0  0  0  0  0  0  0  0  0  0  0
   16.7131  -29.7282  -16.1127 O   0  0  0  0  0  0  0  0  0  0  0  0
   16.1299  -28.8599  -16.7888 C   0  0  0  0  0  0  0  0  0  0  0  0
   17.5289  -27.8354  -12.3040 O   0  0  0  0  0  0  0  0  0  0  0  0
   16.4030  -27.3955  -11.9385 O   0  0  0  0  0  0  0  0  0  0  0  0
   16.7109  -31.0440  -16.4860 O   0  0  0  0  0  0  0  0  0  0  0  0
  2  1  1  6
  2  3  1  0
  3  4  1  0
  4  5  2  0
  5  6  1  0
  7  6  2  0
  8  7  1  0
  9  8  2  0
  9  4  1  0
 10 11  2  0
 10  2  1  0
 13 15  1  0
 13 12  1  0
 14 13  2  0
 16 17  1  0
 16 15  1  0
 17 18  1  0
 19 18  1  1
 19 20  1  0
 19 21  1  0
 20 10  1  0
 21 22  2  0
 21 23  1  0
 23 24  1  0
 24 29  1  0
 24 25  1  6
 26 25  1  0
 27 26  1  0
 28 27  2  0
 29 30  2  0
 29 32  1  0
 31 27  1  0
M  END
$$$$
