FRE.pdb
     RDKit          3D

 32 32  0  0  1  0  0  0  0  0999 V2000
   27.8786  -22.2182  -10.3709 N   0  0  0  0  0  0  0  0  0  0  0  0
   26.8065  -21.4022   -9.8303 C   0  0  1  0  0  0  0  0  0  0  0  0
   27.4073  -20.0068   -9.6237 C   0  0  0  0  0  0  0  0  0  0  0  0
   27.9030  -19.8808   -8.2492 C   0  0  0  0  0  0  0  0  0  0  0  0
   27.1242  -19.2435   -7.3084 C   0  0  0  0  0  0  0  0  0  0  0  0
   27.5444  -19.0944   -5.9868 C   0  0  0  0  0  0  0  0  0  0  0  0
   28.7517  -19.5859   -5.6032 C   0  0  0  0  0  0  0  0  0  0  0  0
   29.5646  -20.2349   -6.5253 C   0  0  0  0  0  0  0  0  0  0  0  0
   29.1244  -20.3709   -7.8347 C   0  0  0  0  0  0  0  0  0  0  0  0
   25.7229  -21.3674  -10.8276 C   0  0  0  0  0  0  0  0  0  0  0  0
   25.9080  -21.7554  -12.0196 O   0  0  0  0  0  0  0  0  0  0  0  0
   17.9269  -24.0352  -10.8503 N   0  0  0  0  0  0  0  0  0  0  0  0
   18.9081  -23.8679   -9.8413 C   0  0  0  0  0  0  0  0  0  0  0  0
   18.9971  -24.8085   -8.9321 N   0  0  0  0  0  0  0  0  0  0  0  0
   19.7664  -22.7420   -9.7966 N   0  0  0  0  0  0  0  0  0  0  0  0
   19.6081  -21.7286  -10.7784 C   0  0  0  0  0  0  0  0  0  0  0  0
   20.8300  -21.5334  -11.6507 C   0  0  0  0  0  0  0  0  0  0  0  0
   21.9730  -21.2494  -10.7327 C   0  0  0  0  0  0  0  0  0  0  0  0
   23.2987  -21.1034  -11.4283 C   0  0  2  0  0  0  0  0  0  0  0  0
   24.4052  -20.9054  -10.5445 N   0  0  0  0  0  0  0  0  0  0  0  0
   23.2444  -20.0685  -12.5066 C   0  0  0  0  0  0  0  0  0  0  0  0
   22.9296  -18.8756  -12.2597 O   0  0  0  0  0  0  0  0  0  0  0  0
   19.6956  -24.7924   -8.1837 N   0  0  0  0  0  0  0  0  0  0  0  0
   23.5490  -20.4089  -13.8459 C   0  0  2  0  0  0  0  0  0  0  0  0
   23.5222  -19.3510  -14.8882 C   0  0  0  0  0  0  0  0  0  0  0  0
   24.3583  -19.7776  -16.0396 C   0  0  0  0  0  0  0  0  0  0  0  0
   24.3359  -18.7526  -17.1358 C   0  0  0  0  0  0  0  0  0  0  0  0
   25.1784  -19.2008  -18.2956 O   0  0  0  0  0  0  0  0  0  0  0  0
   25.7258  -20.3184  -18.2453 C   0  0  0  0  0  0  0  0  0  0  0  0
   22.1338  -19.1292  -15.2576 O   0  0  0  0  0  0  0  0  0  0  0  0
   21.2745  -20.0546  -15.2688 O   0  0  0  0  0  0  0  0  0  0  0  0
   25.3292  -18.3803  -19.3794 O   0  0  0  0  0  0  0  0  0  0  0  0
  2  1  1  6
  2  3  1  0
  3  4  1  0
  4  5  2  0
  5  6  1  0
  7  6  2  0
  8  7  1  0
  9  8  2  0
  9  4  1  0
 10 11  2  0
 10  2  1  0
 13 15  1  0
 13 12  1  0
 14 13  2  0
 16 17  1  0
 16 15  1  0
 17 18  1  0
 19 18  1  1
 19 20  1  0
 19 21  1  0
 20 10  1  0
 21 22  2  0
 21 23  1  0
 23 24  1  0
 24 29  1  0
 24 25  1  1
 26 25  1  0
 27 26  1  0
 28 27  2  0
 29 30  2  0
 29 32  1  0
 31 27  1  0
M  END
$$$$
