LDD.pdb
     RDKit          3D

 25 24  0  0  1  0  0  0  0  0999 V2000
   16.0483  -13.6702   -9.9878 C   0  0  0  0  0  0  0  0  0  0  0  0
   15.5524  -13.0826  -11.2665 C   0  0  2  0  0  0  0  0  0  0  0  0
   16.3621  -13.6020  -12.4417 C   0  0  0  0  0  0  0  0  0  0  0  0
   15.4534  -11.5901  -11.2767 C   0  0  0  0  0  0  0  0  0  0  0  0
   14.4250  -11.0299  -10.3406 C   0  0  2  0  0  0  0  0  0  0  0  0
   13.1253  -11.5977  -10.4586 N   0  0  0  0  0  0  0  0  0  0  0  0
   14.4364   -9.5427  -10.3557 C   0  0  0  0  0  0  0  0  0  0  0  0
   13.7784   -8.9088  -11.2533 O   0  0  0  0  0  0  0  0  0  0  0  0
   15.1334   -8.7514   -9.4271 N   0  0  0  0  0  0  0  0  0  0  0  0
   15.1922   -7.2972   -9.5169 C   0  0  1  0  0  0  0  0  0  0  0  0
   15.2312   -6.7141   -8.1063 C   0  0  0  0  0  0  0  0  0  0  0  0
   15.2008   -5.2485   -8.1140 C   0  0  0  0  0  0  0  0  0  0  0  0
   15.1659   -4.5790   -9.1578 O   0  0  0  0  0  0  0  0  0  0  0  0
   16.3273   -6.8039  -10.3020 C   0  0  0  0  0  0  0  0  0  0  0  0
   17.4638   -7.2417  -10.0298 O   0  0  0  0  0  0  0  0  0  0  0  0
   15.2096   -4.5570   -6.9022 O   0  0  0  0  0  0  0  0  0  0  0  0
   16.2182   -5.8536  -11.3671 N   0  0  0  0  0  0  0  0  0  0  0  0
   17.2755   -5.5193  -12.2700 C   0  0  1  0  0  0  0  0  0  0  0  0
   17.8463   -6.7065  -12.9903 C   0  0  0  0  0  0  0  0  0  0  0  0
   18.8867   -6.3697  -13.9614 C   0  0  0  0  0  0  0  0  0  0  0  0
   19.8275   -5.5637  -13.7175 O   0  0  0  0  0  0  0  0  0  0  0  0
   16.8179   -4.4928  -13.2198 C   0  0  0  0  0  0  0  0  0  0  0  0
   17.6608   -3.8223  -14.1001 O   0  0  0  0  0  0  0  0  0  0  0  0
   18.8558   -6.9496  -15.2229 O   0  0  0  0  0  0  0  0  0  0  0  0
   15.6034   -4.1845  -13.2608 O   0  0  0  0  0  0  0  0  0  0  0  0
  2  1  1  1
  3  2  1  0
  4  2  1  0
  5  4  1  0
  5  6  1  6
  7  9  1  0
  7  5  1  0
  8  7  2  0
 10  9  1  0
 10 11  1  1
 12 16  1  0
 12 11  1  0
 13 12  2  0
 14 10  1  0
 14 17  1  0
 15 14  2  0
 18 17  1  0
 18 22  1  0
 18 19  1  6
 19 20  1  0
 20 24  1  0
 20 21  2  0
 22 23  1  0
 25 22  2  0
M  END
$$$$
