LDD.pdb
     RDKit          3D

 25 24  0  0  1  0  0  0  0  0999 V2000
   24.1186  -12.3758  -15.9030 C   0  0  0  0  0  0  0  0  0  0  0  0
   23.1972  -12.4681  -17.0728 C   0  0  2  0  0  0  0  0  0  0  0  0
   23.9775  -12.7445  -18.3461 C   0  0  0  0  0  0  0  0  0  0  0  0
   22.2655  -11.3088  -17.2331 C   0  0  0  0  0  0  0  0  0  0  0  0
   21.4163  -11.0243  -16.0309 C   0  0  2  0  0  0  0  0  0  0  0  0
   20.7117  -12.1449  -15.5081 N   0  0  0  0  0  0  0  0  0  0  0  0
   20.5649   -9.8237  -16.2449 C   0  0  0  0  0  0  0  0  0  0  0  0
   21.0751   -8.7608  -16.7453 O   0  0  0  0  0  0  0  0  0  0  0  0
   19.1960   -9.7639  -15.9341 N   0  0  0  0  0  0  0  0  0  0  0  0
   18.4025   -8.5512  -16.0957 C   0  0  1  0  0  0  0  0  0  0  0  0
   16.9249   -8.8994  -15.9321 C   0  0  0  0  0  0  0  0  0  0  0  0
   16.4882   -9.9167  -16.8930 C   0  0  0  0  0  0  0  0  0  0  0  0
   16.0173  -11.0120  -16.5501 O   0  0  0  0  0  0  0  0  0  0  0  0
   18.7770   -7.4782  -15.1701 C   0  0  0  0  0  0  0  0  0  0  0  0
   18.9546   -7.7731  -13.9705 O   0  0  0  0  0  0  0  0  0  0  0  0
   16.5980   -9.6595  -18.2599 O   0  0  0  0  0  0  0  0  0  0  0  0
   18.9578   -6.1106  -15.5526 N   0  0  0  0  0  0  0  0  0  0  0  0
   19.6767   -5.1403  -14.7866 C   0  0  1  0  0  0  0  0  0  0  0  0
   21.0500   -5.5931  -14.3828 C   0  0  0  0  0  0  0  0  0  0  0  0
   21.8275   -4.5770  -13.6745 C   0  0  0  0  0  0  0  0  0  0  0  0
   21.3692   -3.4400  -13.3720 O   0  0  0  0  0  0  0  0  0  0  0  0
   19.7330   -3.8651  -15.5188 C   0  0  0  0  0  0  0  0  0  0  0  0
   19.5428   -2.6222  -14.9240 O   0  0  0  0  0  0  0  0  0  0  0  0
   23.1390   -4.8525  -13.3106 O   0  0  0  0  0  0  0  0  0  0  0  0
   19.9648   -3.8683  -16.7509 O   0  0  0  0  0  0  0  0  0  0  0  0
  2  1  1  1
  3  2  1  0
  4  2  1  0
  5  4  1  0
  5  6  1  6
  7  9  1  0
  7  5  1  0
  8  7  2  0
 10  9  1  0
 10 11  1  1
 12 16  1  0
 12 11  1  0
 13 12  2  0
 14 10  1  0
 14 17  1  0
 15 14  2  0
 18 17  1  0
 18 22  1  0
 18 19  1  6
 19 20  1  0
 20 24  1  0
 20 21  2  0
 22 23  1  0
 25 22  2  0
M  END
$$$$
