LDD.pdb
     RDKit          3D

 25 24  0  0  1  0  0  0  0  0999 V2000
   15.5196  -16.2271    3.3835 C   0  0  0  0  0  0  0  0  0  0  0  0
   16.5654  -15.5747    2.5427 C   0  0  2  0  0  0  0  0  0  0  0  0
   16.9434  -16.4674    1.3736 C   0  0  0  0  0  0  0  0  0  0  0  0
   17.7703  -15.1010    3.2920 C   0  0  0  0  0  0  0  0  0  0  0  0
   17.4719  -14.1386    4.4021 C   0  0  2  0  0  0  0  0  0  0  0  0
   16.7422  -12.9785    4.0183 N   0  0  0  0  0  0  0  0  0  0  0  0
   18.6905  -13.8461    5.2032 C   0  0  0  0  0  0  0  0  0  0  0  0
   19.4953  -14.7942    5.5096 O   0  0  0  0  0  0  0  0  0  0  0  0
   19.0420  -12.5656    5.6625 N   0  0  0  0  0  0  0  0  0  0  0  0
   20.2367  -12.3139    6.4597 C   0  0  1  0  0  0  0  0  0  0  0  0
   20.3630  -10.8120    6.7040 C   0  0  0  0  0  0  0  0  0  0  0  0
   21.6049  -10.4692    7.4033 C   0  0  0  0  0  0  0  0  0  0  0  0
   21.7917  -10.7103    8.6059 O   0  0  0  0  0  0  0  0  0  0  0  0
   20.2547  -13.0389    7.7334 C   0  0  0  0  0  0  0  0  0  0  0  0
   19.2178  -13.0315    8.4278 O   0  0  0  0  0  0  0  0  0  0  0  0
   22.6359   -9.8441    6.7014 O   0  0  0  0  0  0  0  0  0  0  0  0
   21.3849  -13.7614    8.2335 N   0  0  0  0  0  0  0  0  0  0  0  0
   21.3788  -14.5618    9.4185 C   0  0  1  0  0  0  0  0  0  0  0  0
   22.2026  -15.8115    9.3019 C   0  0  0  0  0  0  0  0  0  0  0  0
   21.4558  -16.9743    8.8233 C   0  0  0  0  0  0  0  0  0  0  0  0
   20.2059  -16.9693    8.6445 O   0  0  0  0  0  0  0  0  0  0  0  0
   21.8033  -13.7529   10.5721 C   0  0  0  0  0  0  0  0  0  0  0  0
   21.3105  -13.9251   11.8614 O   0  0  0  0  0  0  0  0  0  0  0  0
   22.1336  -18.1551    8.5500 O   0  0  0  0  0  0  0  0  0  0  0  0
   22.6579  -12.8493   10.4138 O   0  0  0  0  0  0  0  0  0  0  0  0
  2  1  1  1
  3  2  1  0
  4  2  1  0
  5  4  1  0
  5  6  1  6
  7  9  1  0
  7  5  1  0
  8  7  2  0
 10  9  1  0
 10 11  1  1
 12 16  1  0
 12 11  1  0
 13 12  2  0
 14 10  1  0
 14 17  1  0
 15 14  2  0
 18 17  1  0
 18 22  1  0
 18 19  1  6
 19 20  1  0
 20 24  1  0
 20 21  2  0
 22 23  1  0
 25 22  2  0
M  END
$$$$
