LDD.pdb
     RDKit          3D

 25 24  0  0  1  0  0  0  0  0999 V2000
   26.5704  -13.6783  -14.9808 C   0  0  0  0  0  0  0  0  0  0  0  0
   26.8305  -12.9220  -16.2403 C   0  0  2  0  0  0  0  0  0  0  0  0
   28.2307  -12.3338  -16.2299 C   0  0  0  0  0  0  0  0  0  0  0  0
   25.7989  -11.8940  -16.5817 C   0  0  0  0  0  0  0  0  0  0  0  0
   24.3983  -12.4227  -16.6607 C   0  0  2  0  0  0  0  0  0  0  0  0
   24.1894  -13.4414  -17.6324 N   0  0  0  0  0  0  0  0  0  0  0  0
   23.4075  -11.3154  -16.7262 C   0  0  0  0  0  0  0  0  0  0  0  0
   23.0665  -10.8307  -17.8617 O   0  0  0  0  0  0  0  0  0  0  0  0
   22.7919  -10.7424  -15.6006 N   0  0  0  0  0  0  0  0  0  0  0  0
   21.8391   -9.6428  -15.6967 C   0  0  1  0  0  0  0  0  0  0  0  0
   20.4723  -10.1273  -15.2187 C   0  0  0  0  0  0  0  0  0  0  0  0
   19.4777   -9.0504  -15.2086 C   0  0  0  0  0  0  0  0  0  0  0  0
   19.3265   -8.2615  -16.1541 O   0  0  0  0  0  0  0  0  0  0  0  0
   22.2447   -8.4490  -14.9495 C   0  0  0  0  0  0  0  0  0  0  0  0
   22.5911   -8.5910  -13.7590 O   0  0  0  0  0  0  0  0  0  0  0  0
   18.6535   -8.8899  -14.0945 O   0  0  0  0  0  0  0  0  0  0  0  0
   22.2746   -7.1268  -15.4976 N   0  0  0  0  0  0  0  0  0  0  0  0
   22.7151   -5.9638  -14.7917 C   0  0  1  0  0  0  0  0  0  0  0  0
   23.2796   -4.8979  -15.6858 C   0  0  0  0  0  0  0  0  0  0  0  0
   22.3318   -4.3884  -16.6762 C   0  0  0  0  0  0  0  0  0  0  0  0
   21.3709   -5.0699  -17.1304 O   0  0  0  0  0  0  0  0  0  0  0  0
   21.6198   -5.4353  -13.9633 C   0  0  0  0  0  0  0  0  0  0  0  0
   20.3063   -5.8872  -14.0370 O   0  0  0  0  0  0  0  0  0  0  0  0
   22.4795   -3.0948  -17.1592 O   0  0  0  0  0  0  0  0  0  0  0  0
   21.8546   -4.5250  -13.1337 O   0  0  0  0  0  0  0  0  0  0  0  0
  2  1  1  1
  3  2  1  0
  4  2  1  0
  5  4  1  0
  5  6  1  6
  7  9  1  0
  7  5  1  0
  8  7  2  0
 10  9  1  0
 10 11  1  1
 12 16  1  0
 12 11  1  0
 13 12  2  0
 14 10  1  0
 14 17  1  0
 15 14  2  0
 18 17  1  0
 18 22  1  0
 18 19  1  6
 19 20  1  0
 20 24  1  0
 20 21  2  0
 22 23  1  0
 25 22  2  0
M  END
$$$$
