LDD.pdb
     RDKit          3D

 25 24  0  0  1  0  0  0  0  0999 V2000
   25.6143  -12.9111  -21.1212 C   0  0  0  0  0  0  0  0  0  0  0  0
   24.1817  -13.0180  -21.5240 C   0  0  2  0  0  0  0  0  0  0  0  0
   24.0630  -13.2156  -23.0252 C   0  0  0  0  0  0  0  0  0  0  0  0
   23.3069  -11.9056  -21.0395 C   0  0  0  0  0  0  0  0  0  0  0  0
   23.4512  -11.5932  -19.5803 C   0  0  2  0  0  0  0  0  0  0  0  0
   23.3807  -12.7174  -18.7104 N   0  0  0  0  0  0  0  0  0  0  0  0
   22.5669  -10.4660  -19.1810 C   0  0  0  0  0  0  0  0  0  0  0  0
   22.6343   -9.3500  -19.8059 O   0  0  0  0  0  0  0  0  0  0  0  0
   21.6278  -10.5336  -18.1381 N   0  0  0  0  0  0  0  0  0  0  0  0
   20.7575   -9.4176  -17.7866 C   0  0  1  0  0  0  0  0  0  0  0  0
   19.3853   -9.9621  -17.3967 C   0  0  0  0  0  0  0  0  0  0  0  0
   18.4162   -8.8903  -17.1499 C   0  0  0  0  0  0  0  0  0  0  0  0
   18.6117   -7.7121  -17.4857 O   0  0  0  0  0  0  0  0  0  0  0  0
   21.2919   -8.5727  -16.7149 C   0  0  0  0  0  0  0  0  0  0  0  0
   21.9251   -9.1251  -15.7923 O   0  0  0  0  0  0  0  0  0  0  0  0
   17.2127   -9.1891  -16.5105 O   0  0  0  0  0  0  0  0  0  0  0  0
   21.1395   -7.1503  -16.6582 N   0  0  0  0  0  0  0  0  0  0  0  0
   21.7730   -6.3024  -15.6967 C   0  0  1  0  0  0  0  0  0  0  0  0
   21.7459   -4.8484  -16.0697 C   0  0  0  0  0  0  0  0  0  0  0  0
   22.3878   -3.9709  -15.0915 C   0  0  0  0  0  0  0  0  0  0  0  0
   23.4530   -4.2722  -14.4843 O   0  0  0  0  0  0  0  0  0  0  0  0
   21.1792   -6.5199  -14.3680 C   0  0  0  0  0  0  0  0  0  0  0  0
   21.9226   -6.7749  -13.2203 O   0  0  0  0  0  0  0  0  0  0  0  0
   21.8121   -2.7421  -14.7962 O   0  0  0  0  0  0  0  0  0  0  0  0
   19.9335   -6.4778  -14.2321 O   0  0  0  0  0  0  0  0  0  0  0  0
  2  1  1  6
  3  2  1  0
  4  2  1  0
  5  4  1  0
  5  6  1  1
  7  9  1  0
  7  5  1  0
  8  7  2  0
 10  9  1  0
 10 11  1  1
 12 16  1  0
 12 11  1  0
 13 12  2  0
 14 10  1  0
 14 17  1  0
 15 14  2  0
 18 17  1  0
 18 22  1  0
 18 19  1  6
 19 20  1  0
 20 24  1  0
 20 21  2  0
 22 23  1  0
 25 22  2  0
M  END
$$$$
