LDD.pdb
     RDKit          3D

 25 24  0  0  1  0  0  0  0  0999 V2000
   13.2658   -6.5119   -8.2914 C   0  0  0  0  0  0  0  0  0  0  0  0
   14.0781   -7.7592   -8.3937 C   0  0  2  0  0  0  0  0  0  0  0  0
   14.5017   -8.2345   -7.0148 C   0  0  0  0  0  0  0  0  0  0  0  0
   15.2384   -7.6794   -9.3343 C   0  0  0  0  0  0  0  0  0  0  0  0
   14.8821   -7.2440  -10.7239 C   0  0  2  0  0  0  0  0  0  0  0  0
   13.9415   -8.0740  -11.3962 N   0  0  0  0  0  0  0  0  0  0  0  0
   16.0999   -6.9437  -11.5231 C   0  0  0  0  0  0  0  0  0  0  0  0
   17.0524   -6.2631  -11.0032 O   0  0  0  0  0  0  0  0  0  0  0  0
   16.2957   -7.3666  -12.8486 N   0  0  0  0  0  0  0  0  0  0  0  0
   17.5245   -7.1022  -13.5877 C   0  0  1  0  0  0  0  0  0  0  0  0
   17.9774   -8.3887  -14.2740 C   0  0  0  0  0  0  0  0  0  0  0  0
   18.3440   -9.4294  -13.3088 C   0  0  0  0  0  0  0  0  0  0  0  0
   19.1548   -9.2421  -12.3886 O   0  0  0  0  0  0  0  0  0  0  0  0
   17.3971   -6.0209  -14.5689 C   0  0  0  0  0  0  0  0  0  0  0  0
   16.5574   -6.1531  -15.4826 O   0  0  0  0  0  0  0  0  0  0  0  0
   17.7643  -10.6942  -13.4123 O   0  0  0  0  0  0  0  0  0  0  0  0
   18.1711   -4.8167  -14.5462 N   0  0  0  0  0  0  0  0  0  0  0  0
   17.9675   -3.7027  -15.4193 C   0  0  1  0  0  0  0  0  0  0  0  0
   18.0711   -2.3734  -14.7292 C   0  0  0  0  0  0  0  0  0  0  0  0
   16.9886   -2.1085  -13.7821 C   0  0  0  0  0  0  0  0  0  0  0  0
   15.9425   -2.8119  -13.7112 O   0  0  0  0  0  0  0  0  0  0  0  0
   18.8959   -3.7823  -16.5583 C   0  0  0  0  0  0  0  0  0  0  0  0
   19.8929   -4.7448  -16.6783 O   0  0  0  0  0  0  0  0  0  0  0  0
   17.0927   -1.0321  -12.9109 O   0  0  0  0  0  0  0  0  0  0  0  0
   18.8062   -2.9479  -17.4897 O   0  0  0  0  0  0  0  0  0  0  0  0
  2  1  1  1
  3  2  1  0
  4  2  1  0
  5  4  1  0
  5  6  1  6
  7  9  1  0
  7  5  1  0
  8  7  2  0
 10  9  1  0
 10 11  1  6
 12 16  1  0
 12 11  1  0
 13 12  2  0
 14 10  1  0
 14 17  1  0
 15 14  2  0
 18 17  1  0
 18 22  1  0
 18 19  1  1
 19 20  1  0
 20 24  1  0
 20 21  2  0
 22 23  1  0
 25 22  2  0
M  END
$$$$
