LDD.pdb
     RDKit          3D

 25 24  0  0  1  0  0  0  0  0999 V2000
   26.6113  -20.1237   -6.2271 C   0  0  0  0  0  0  0  0  0  0  0  0
   27.6406  -20.0099   -7.3011 C   0  0  2  0  0  0  0  0  0  0  0  0
   28.7465  -19.0573   -6.8814 C   0  0  0  0  0  0  0  0  0  0  0  0
   27.1024  -19.6737   -8.6557 C   0  0  0  0  0  0  0  0  0  0  0  0
   26.1507  -20.6882   -9.2147 C   0  0  2  0  0  0  0  0  0  0  0  0
   26.5657  -22.0435   -9.0858 N   0  0  0  0  0  0  0  0  0  0  0  0
   25.7160  -20.3193  -10.5883 C   0  0  0  0  0  0  0  0  0  0  0  0
   25.4518  -19.0974  -10.8673 O   0  0  0  0  0  0  0  0  0  0  0  0
   25.5715  -21.2379  -11.6416 N   0  0  0  0  0  0  0  0  0  0  0  0
   25.0666  -20.8582  -12.9559 C   0  0  1  0  0  0  0  0  0  0  0  0
   25.9076  -21.5463  -14.0284 C   0  0  0  0  0  0  0  0  0  0  0  0
   27.2062  -20.8923  -14.2152 C   0  0  0  0  0  0  0  0  0  0  0  0
   27.4036  -19.6955  -13.9546 O   0  0  0  0  0  0  0  0  0  0  0  0
   23.6466  -21.1654  -13.1492 C   0  0  0  0  0  0  0  0  0  0  0  0
   23.1007  -21.9486  -12.3454 O   0  0  0  0  0  0  0  0  0  0  0  0
   28.2817  -21.6330  -14.7063 O   0  0  0  0  0  0  0  0  0  0  0  0
   22.8401  -20.6215  -14.1995 N   0  0  0  0  0  0  0  0  0  0  0  0
   21.4122  -20.5487  -14.1735 C   0  0  1  0  0  0  0  0  0  0  0  0
   20.8695  -19.8509  -12.9600 C   0  0  0  0  0  0  0  0  0  0  0  0
   19.5186  -20.2691  -12.5872 C   0  0  0  0  0  0  0  0  0  0  0  0
   18.8701  -21.1541  -13.2120 O   0  0  0  0  0  0  0  0  0  0  0  0
   20.9196  -19.9214  -15.4102 C   0  0  0  0  0  0  0  0  0  0  0  0
   21.6429  -18.9884  -16.1458 O   0  0  0  0  0  0  0  0  0  0  0  0
   18.8964  -19.6735  -11.4979 O   0  0  0  0  0  0  0  0  0  0  0  0
   19.7862  -20.2268  -15.8505 O   0  0  0  0  0  0  0  0  0  0  0  0
  2  1  1  1
  3  2  1  0
  4  2  1  0
  5  4  1  0
  5  6  1  6
  7  9  1  0
  7  5  1  0
  8  7  2  0
 10  9  1  0
 10 11  1  6
 12 16  1  0
 12 11  1  0
 13 12  2  0
 14 10  1  0
 14 17  1  0
 15 14  2  0
 18 17  1  0
 18 22  1  0
 18 19  1  1
 19 20  1  0
 20 24  1  0
 20 21  2  0
 22 23  1  0
 25 22  2  0
M  END
$$$$
