LDD.pdb
     RDKit          3D

 25 24  0  0  1  0  0  0  0  0999 V2000
   11.4192   -9.6765   -8.1471 C   0  0  0  0  0  0  0  0  0  0  0  0
   11.8547  -10.1491   -9.4936 C   0  0  2  0  0  0  0  0  0  0  0  0
   11.0768   -9.4369  -10.5864 C   0  0  0  0  0  0  0  0  0  0  0  0
   11.8359  -11.6337   -9.6760 C   0  0  0  0  0  0  0  0  0  0  0  0
   12.3400  -12.1017  -11.0082 C   0  0  2  0  0  0  0  0  0  0  0  0
   12.0643  -13.4637  -11.3156 N   0  0  0  0  0  0  0  0  0  0  0  0
   13.7611  -11.7136  -11.2127 C   0  0  0  0  0  0  0  0  0  0  0  0
   14.6946  -12.3976  -10.6638 O   0  0  0  0  0  0  0  0  0  0  0  0
   14.1740  -10.6196  -11.9918 N   0  0  0  0  0  0  0  0  0  0  0  0
   15.5763  -10.3384  -12.2765 C   0  0  1  0  0  0  0  0  0  0  0  0
   15.9381  -10.9418  -13.6317 C   0  0  0  0  0  0  0  0  0  0  0  0
   17.3368  -10.6908  -13.9916 C   0  0  0  0  0  0  0  0  0  0  0  0
   18.2845  -11.3243  -13.5020 O   0  0  0  0  0  0  0  0  0  0  0  0
   15.9040   -8.9101  -12.2526 C   0  0  0  0  0  0  0  0  0  0  0  0
   15.1613   -8.1267  -12.8788 O   0  0  0  0  0  0  0  0  0  0  0  0
   17.6361   -9.6994  -14.9265 O   0  0  0  0  0  0  0  0  0  0  0  0
   17.0207   -8.3512  -11.5526 N   0  0  0  0  0  0  0  0  0  0  0  0
   17.3454   -6.9589  -11.5194 C   0  0  1  0  0  0  0  0  0  0  0  0
   18.0262   -6.5323  -10.2510 C   0  0  0  0  0  0  0  0  0  0  0  0
   17.1399   -5.8730   -9.2925 C   0  0  0  0  0  0  0  0  0  0  0  0
   15.9497   -5.5472   -9.5599 O   0  0  0  0  0  0  0  0  0  0  0  0
   18.1509   -6.6037  -12.6985 C   0  0  0  0  0  0  0  0  0  0  0  0
   18.3413   -5.2989  -13.1411 O   0  0  0  0  0  0  0  0  0  0  0  0
   17.6109   -5.5763   -8.0203 O   0  0  0  0  0  0  0  0  0  0  0  0
   18.7105   -7.5087  -13.3616 O   0  0  0  0  0  0  0  0  0  0  0  0
  2  1  1  1
  3  2  1  0
  4  2  1  0
  5  4  1  0
  5  6  1  1
  7  9  1  0
  7  5  1  0
  8  7  2  0
 10  9  1  0
 10 11  1  6
 12 16  1  0
 12 11  1  0
 13 12  2  0
 14 10  1  0
 14 17  1  0
 15 14  2  0
 18 17  1  0
 18 22  1  0
 18 19  1  1
 19 20  1  0
 20 24  1  0
 20 21  2  0
 22 23  1  0
 25 22  2  0
M  END
$$$$
