LDD.pdb
     RDKit          3D

 25 24  0  0  1  0  0  0  0  0999 V2000
   26.4528  -13.3767  -15.5993 C   0  0  0  0  0  0  0  0  0  0  0  0
   26.7996  -12.2127  -16.4658 C   0  0  2  0  0  0  0  0  0  0  0  0
   28.1795  -11.6816  -16.1186 C   0  0  0  0  0  0  0  0  0  0  0  0
   25.7760  -11.1223  -16.4947 C   0  0  0  0  0  0  0  0  0  0  0  0
   24.4050  -11.5689  -16.9050 C   0  0  2  0  0  0  0  0  0  0  0  0
   24.3393  -12.2579  -18.1485 N   0  0  0  0  0  0  0  0  0  0  0  0
   23.4176  -10.4643  -16.7754 C   0  0  0  0  0  0  0  0  0  0  0  0
   23.3021   -9.5986  -17.7123 O   0  0  0  0  0  0  0  0  0  0  0  0
   22.5690  -10.2927  -15.6687 N   0  0  0  0  0  0  0  0  0  0  0  0
   21.6030   -9.2044  -15.5765 C   0  0  1  0  0  0  0  0  0  0  0  0
   20.3984   -9.6774  -14.7662 C   0  0  0  0  0  0  0  0  0  0  0  0
   19.6344  -10.7136  -15.4672 C   0  0  0  0  0  0  0  0  0  0  0  0
   19.5104  -11.8700  -15.0354 O   0  0  0  0  0  0  0  0  0  0  0  0
   22.1559   -7.9776  -14.9956 C   0  0  0  0  0  0  0  0  0  0  0  0
   22.9132   -8.0846  -14.0095 O   0  0  0  0  0  0  0  0  0  0  0  0
   19.0099  -10.4043  -16.6759 O   0  0  0  0  0  0  0  0  0  0  0  0
   21.8880   -6.6606  -15.4887 N   0  0  0  0  0  0  0  0  0  0  0  0
   22.4829   -5.4646  -14.9781 C   0  0  1  0  0  0  0  0  0  0  0  0
   22.4149   -4.3070  -15.9317 C   0  0  0  0  0  0  0  0  0  0  0  0
   23.1637   -4.5120  -17.1711 C   0  0  0  0  0  0  0  0  0  0  0  0
   24.2346   -5.1782  -17.2314 O   0  0  0  0  0  0  0  0  0  0  0  0
   21.8799   -5.1189  -13.6811 C   0  0  0  0  0  0  0  0  0  0  0  0
   22.4035   -4.1658  -12.8137 O   0  0  0  0  0  0  0  0  0  0  0  0
   22.6951   -3.9512  -18.3519 O   0  0  0  0  0  0  0  0  0  0  0  0
   20.8329   -5.7004  -13.3104 O   0  0  0  0  0  0  0  0  0  0  0  0
  2  1  1  1
  3  2  1  0
  4  2  1  0
  5  4  1  0
  5  6  1  6
  7  9  1  0
  7  5  1  0
  8  7  2  0
 10  9  1  0
 10 11  1  1
 12 16  1  0
 12 11  1  0
 13 12  2  0
 14 10  1  0
 14 17  1  0
 15 14  2  0
 18 17  1  0
 18 22  1  0
 18 19  1  6
 19 20  1  0
 20 24  1  0
 20 21  2  0
 22 23  1  0
 25 22  2  0
M  END
$$$$
