LDD.pdb
     RDKit          3D

 25 24  0  0  1  0  0  0  0  0999 V2000
   20.3709  -11.7474  -18.7843 C   0  0  0  0  0  0  0  0  0  0  0  0
   18.9643  -11.3541  -18.4795 C   0  0  2  0  0  0  0  0  0  0  0  0
   18.2038  -11.0577  -19.7603 C   0  0  0  0  0  0  0  0  0  0  0  0
   18.8218  -10.2496  -17.4809 C   0  0  0  0  0  0  0  0  0  0  0  0
   19.5412  -10.4862  -16.1870 C   0  0  2  0  0  0  0  0  0  0  0  0
   19.1201  -11.6359  -15.4614 N   0  0  0  0  0  0  0  0  0  0  0  0
   19.5999   -9.2456  -15.3688 C   0  0  0  0  0  0  0  0  0  0  0  0
   18.6971   -9.0182  -14.4891 O   0  0  0  0  0  0  0  0  0  0  0  0
   20.6057   -8.2717  -15.4868 N   0  0  0  0  0  0  0  0  0  0  0  0
   20.5982   -7.0325  -14.7182 C   0  0  1  0  0  0  0  0  0  0  0  0
   22.0319   -6.6829  -14.3264 C   0  0  0  0  0  0  0  0  0  0  0  0
   22.0945   -5.5033  -13.4582 C   0  0  0  0  0  0  0  0  0  0  0  0
   21.4665   -5.4152  -12.3919 O   0  0  0  0  0  0  0  0  0  0  0  0
   19.9761   -5.9089  -15.4242 C   0  0  0  0  0  0  0  0  0  0  0  0
   20.3478   -5.6707  -16.5914 O   0  0  0  0  0  0  0  0  0  0  0  0
   22.8922   -4.4208  -13.8302 O   0  0  0  0  0  0  0  0  0  0  0  0
   18.9635   -5.0662  -14.8636 N   0  0  0  0  0  0  0  0  0  0  0  0
   18.3308   -3.9857  -15.5543 C   0  0  1  0  0  0  0  0  0  0  0  0
   16.8804   -3.8180  -15.2043 C   0  0  0  0  0  0  0  0  0  0  0  0
   16.2139   -2.7377  -15.9305 C   0  0  0  0  0  0  0  0  0  0  0  0
   16.8146   -1.9664  -16.7297 O   0  0  0  0  0  0  0  0  0  0  0  0
   19.0785   -2.7389  -15.3268 C   0  0  0  0  0  0  0  0  0  0  0  0
   20.2323   -2.6586  -14.5540 O   0  0  0  0  0  0  0  0  0  0  0  0
   14.8540   -2.5278  -15.7439 O   0  0  0  0  0  0  0  0  0  0  0  0
   18.6762   -1.6718  -15.8475 O   0  0  0  0  0  0  0  0  0  0  0  0
  2  1  1  6
  3  2  1  0
  4  2  1  0
  5  4  1  0
  5  6  1  1
  7  9  1  0
  7  5  1  0
  8  7  2  0
 10  9  1  0
 10 11  1  6
 12 16  1  0
 12 11  1  0
 13 12  2  0
 14 10  1  0
 14 17  1  0
 15 14  2  0
 18 17  1  0
 18 22  1  0
 18 19  1  1
 19 20  1  0
 20 24  1  0
 20 21  2  0
 22 23  1  0
 25 22  2  0
M  END
$$$$
