LDD.pdb
     RDKit          3D

 25 24  0  0  1  0  0  0  0  0999 V2000
   27.2761  -18.0716  -16.8318 C   0  0  0  0  0  0  0  0  0  0  0  0
   26.9720  -16.8612  -16.0141 C   0  0  2  0  0  0  0  0  0  0  0  0
   27.6799  -16.9322  -14.6723 C   0  0  0  0  0  0  0  0  0  0  0  0
   25.5158  -16.5564  -15.8583 C   0  0  0  0  0  0  0  0  0  0  0  0
   24.7515  -16.5036  -17.1470 C   0  0  2  0  0  0  0  0  0  0  0  0
   25.2352  -15.5637  -18.0999 N   0  0  0  0  0  0  0  0  0  0  0  0
   23.2874  -16.4133  -16.9014 C   0  0  0  0  0  0  0  0  0  0  0  0
   22.7760  -15.3130  -16.4912 O   0  0  0  0  0  0  0  0  0  0  0  0
   22.3898  -17.4768  -17.0951 N   0  0  0  0  0  0  0  0  0  0  0  0
   20.9538  -17.3465  -16.8777 C   0  0  1  0  0  0  0  0  0  0  0  0
   20.2967  -16.8739  -18.1724 C   0  0  0  0  0  0  0  0  0  0  0  0
   18.8582  -16.6436  -18.0090 C   0  0  0  0  0  0  0  0  0  0  0  0
   18.0055  -17.1319  -18.7663 O   0  0  0  0  0  0  0  0  0  0  0  0
   20.3182  -18.5802  -16.4065 C   0  0  0  0  0  0  0  0  0  0  0  0
   20.6629  -19.6570  -16.9347 O   0  0  0  0  0  0  0  0  0  0  0  0
   18.4079  -15.8426  -16.9592 O   0  0  0  0  0  0  0  0  0  0  0  0
   19.3281  -18.6331  -15.3737 N   0  0  0  0  0  0  0  0  0  0  0  0
   18.6748  -19.8267  -14.9340 C   0  0  1  0  0  0  0  0  0  0  0  0
   19.0413  -20.2300  -13.5350 C   0  0  0  0  0  0  0  0  0  0  0  0
   18.5624  -21.5582  -13.1537 C   0  0  0  0  0  0  0  0  0  0  0  0
   17.7497  -22.2280  -13.8502 O   0  0  0  0  0  0  0  0  0  0  0  0
   17.2176  -19.6833  -15.0797 C   0  0  0  0  0  0  0  0  0  0  0  0
   16.4389  -18.8479  -14.2856 O   0  0  0  0  0  0  0  0  0  0  0  0
   19.0064  -22.1290  -11.9682 O   0  0  0  0  0  0  0  0  0  0  0  0
   16.6160  -20.3393  -15.9627 O   0  0  0  0  0  0  0  0  0  0  0  0
  2  1  1  1
  3  2  1  0
  4  2  1  0
  5  4  1  0
  5  6  1  1
  7  9  1  0
  7  5  1  0
  8  7  2  0
 10  9  1  0
 10 11  1  6
 12 16  1  0
 12 11  1  0
 13 12  2  0
 14 10  1  0
 14 17  1  0
 15 14  2  0
 18 17  1  0
 18 22  1  0
 18 19  1  1
 19 20  1  0
 20 24  1  0
 20 21  2  0
 22 23  1  0
 25 22  2  0
M  END
$$$$
