LDD.pdb
     RDKit          3D

 25 24  0  0  1  0  0  0  0  0999 V2000
   18.8793  -17.6760  -16.1092 C   0  0  0  0  0  0  0  0  0  0  0  0
   20.3304  -17.5160  -15.8015 C   0  0  2  0  0  0  0  0  0  0  0  0
   20.7599  -18.5007  -14.7280 C   0  0  0  0  0  0  0  0  0  0  0  0
   20.7543  -16.1190  -15.4752 C   0  0  0  0  0  0  0  0  0  0  0  0
   20.4164  -15.1061  -16.5276 C   0  0  2  0  0  0  0  0  0  0  0  0
   20.8427  -15.4360  -17.8447 N   0  0  0  0  0  0  0  0  0  0  0  0
   20.7973  -13.7345  -16.0968 C   0  0  0  0  0  0  0  0  0  0  0  0
   20.4713  -13.3186  -14.9300 O   0  0  0  0  0  0  0  0  0  0  0  0
   21.5154  -12.8293  -16.8963 N   0  0  0  0  0  0  0  0  0  0  0  0
   21.8491  -11.4800  -16.4553 C   0  0  1  0  0  0  0  0  0  0  0  0
   23.1168  -11.0227  -17.1730 C   0  0  0  0  0  0  0  0  0  0  0  0
   23.5330   -9.6803  -16.7563 C   0  0  0  0  0  0  0  0  0  0  0  0
   22.9092   -9.0087  -15.9203 O   0  0  0  0  0  0  0  0  0  0  0  0
   20.7693  -10.5113  -16.6646 C   0  0  0  0  0  0  0  0  0  0  0  0
   20.3043  -10.3903  -17.8163 O   0  0  0  0  0  0  0  0  0  0  0  0
   24.6809   -9.1156  -17.3130 O   0  0  0  0  0  0  0  0  0  0  0  0
   20.2075   -9.6951  -15.6313 N   0  0  0  0  0  0  0  0  0  0  0  0
   19.1313   -8.7724  -15.8189 C   0  0  1  0  0  0  0  0  0  0  0  0
   18.0067   -8.9563  -14.8414 C   0  0  0  0  0  0  0  0  0  0  0  0
   16.9163   -7.9948  -15.0006 C   0  0  0  0  0  0  0  0  0  0  0  0
   16.7024   -7.3609  -16.0715 O   0  0  0  0  0  0  0  0  0  0  0  0
   19.6422   -7.3928  -15.7856 C   0  0  0  0  0  0  0  0  0  0  0  0
   19.0889   -6.3448  -16.5139 O   0  0  0  0  0  0  0  0  0  0  0  0
   16.0640   -7.7469  -13.9326 O   0  0  0  0  0  0  0  0  0  0  0  0
   20.6320   -7.1162  -15.0675 O   0  0  0  0  0  0  0  0  0  0  0  0
  2  1  1  1
  3  2  1  0
  4  2  1  0
  5  4  1  0
  5  6  1  6
  7  9  1  0
  7  5  1  0
  8  7  2  0
 10  9  1  0
 10 11  1  6
 12 16  1  0
 12 11  1  0
 13 12  2  0
 14 10  1  0
 14 17  1  0
 15 14  2  0
 18 17  1  0
 18 22  1  0
 18 19  1  1
 19 20  1  0
 20 24  1  0
 20 21  2  0
 22 23  1  0
 25 22  2  0
M  END
$$$$
