LDD.pdb
     RDKit          3D

 25 24  0  0  1  0  0  0  0  0999 V2000
   25.6007  -31.4874   -8.4709 C   0  0  0  0  0  0  0  0  0  0  0  0
   24.7442  -32.7042   -8.5802 C   0  0  2  0  0  0  0  0  0  0  0  0
   23.2763  -32.3195   -8.6424 C   0  0  0  0  0  0  0  0  0  0  0  0
   25.0006  -33.7498   -7.5416 C   0  0  0  0  0  0  0  0  0  0  0  0
   26.4341  -34.1744   -7.4292 C   0  0  2  0  0  0  0  0  0  0  0  0
   26.9664  -34.8203   -8.5802 N   0  0  0  0  0  0  0  0  0  0  0  0
   26.6804  -34.9076   -6.1589 C   0  0  0  0  0  0  0  0  0  0  0  0
   26.4634  -36.1684   -6.0975 O   0  0  0  0  0  0  0  0  0  0  0  0
   27.1532  -34.3047   -4.9811 N   0  0  0  0  0  0  0  0  0  0  0  0
   27.3904  -35.0530   -3.7522 C   0  0  1  0  0  0  0  0  0  0  0  0
   28.5513  -34.4108   -2.9964 C   0  0  0  0  0  0  0  0  0  0  0  0
   28.9191  -35.1728   -1.7992 C   0  0  0  0  0  0  0  0  0  0  0  0
   28.3298  -36.2069   -1.4491 O   0  0  0  0  0  0  0  0  0  0  0  0
   26.2112  -35.1475   -2.8868 C   0  0  0  0  0  0  0  0  0  0  0  0
   25.5432  -34.1119   -2.6896 O   0  0  0  0  0  0  0  0  0  0  0  0
   29.9780  -34.7316   -1.0052 O   0  0  0  0  0  0  0  0  0  0  0  0
   25.7705  -36.3537   -2.2542 N   0  0  0  0  0  0  0  0  0  0  0  0
   24.5924  -36.4673   -1.4517 C   0  0  1  0  0  0  0  0  0  0  0  0
   24.2433  -37.8838   -1.0967 C   0  0  0  0  0  0  0  0  0  0  0  0
   22.9765  -38.0227   -0.3792 C   0  0  0  0  0  0  0  0  0  0  0  0
   21.9770  -38.6340   -0.8501 O   0  0  0  0  0  0  0  0  0  0  0  0
   24.7258  -35.6360   -0.2449 C   0  0  0  0  0  0  0  0  0  0  0  0
   25.8721  -35.5921    0.5418 O   0  0  0  0  0  0  0  0  0  0  0  0
   22.8415  -37.4580    0.8822 O   0  0  0  0  0  0  0  0  0  0  0  0
   23.7672  -34.9146    0.1191 O   0  0  0  0  0  0  0  0  0  0  0  0
  2  1  1  1
  3  2  1  0
  4  2  1  0
  5  4  1  0
  5  6  1  6
  7  9  1  0
  7  5  1  0
  8  7  2  0
 10  9  1  0
 10 11  1  1
 12 16  1  0
 12 11  1  0
 13 12  2  0
 14 10  1  0
 14 17  1  0
 15 14  2  0
 18 17  1  0
 18 22  1  0
 18 19  1  1
 19 20  1  0
 20 24  1  0
 20 21  2  0
 22 23  1  0
 25 22  2  0
M  END
$$$$
