LDD.pdb
     RDKit          3D

 25 24  0  0  1  0  0  0  0  0999 V2000
   17.5366  -12.4583  -17.4080 C   0  0  0  0  0  0  0  0  0  0  0  0
   18.3811  -12.7693  -16.2180 C   0  0  2  0  0  0  0  0  0  0  0  0
   17.7439  -13.8668  -15.3837 C   0  0  0  0  0  0  0  0  0  0  0  0
   18.7554  -11.5847  -15.3848 C   0  0  0  0  0  0  0  0  0  0  0  0
   19.3579  -10.4490  -16.1559 C   0  0  2  0  0  0  0  0  0  0  0  0
   20.5781  -10.7503  -16.8237 N   0  0  0  0  0  0  0  0  0  0  0  0
   19.4100   -9.2092  -15.3361 C   0  0  0  0  0  0  0  0  0  0  0  0
   18.3937   -8.8632  -14.6375 O   0  0  0  0  0  0  0  0  0  0  0  0
   20.5274   -8.3606  -15.2624 N   0  0  0  0  0  0  0  0  0  0  0  0
   20.4921   -7.0661  -14.5920 C   0  0  1  0  0  0  0  0  0  0  0  0
   21.9223   -6.6233  -14.2924 C   0  0  0  0  0  0  0  0  0  0  0  0
   21.9654   -5.3457  -13.5748 C   0  0  0  0  0  0  0  0  0  0  0  0
   21.1334   -5.0273  -12.7115 O   0  0  0  0  0  0  0  0  0  0  0  0
   19.7888   -6.0305  -15.3542 C   0  0  0  0  0  0  0  0  0  0  0  0
   20.0778   -5.8910  -16.5602 O   0  0  0  0  0  0  0  0  0  0  0  0
   22.9816   -4.4335  -13.8611 O   0  0  0  0  0  0  0  0  0  0  0  0
   18.7856   -5.1683  -14.8066 N   0  0  0  0  0  0  0  0  0  0  0  0
   18.0530   -4.1951  -15.5556 C   0  0  1  0  0  0  0  0  0  0  0  0
   16.5680   -4.2728  -15.3484 C   0  0  0  0  0  0  0  0  0  0  0  0
   15.8081   -3.2820  -16.1098 C   0  0  0  0  0  0  0  0  0  0  0  0
   16.3415   -2.4699  -16.9162 O   0  0  0  0  0  0  0  0  0  0  0  0
   18.5600   -2.8465  -15.2562 C   0  0  0  0  0  0  0  0  0  0  0  0
   18.3854   -1.7503  -16.0946 O   0  0  0  0  0  0  0  0  0  0  0  0
   14.4305   -3.2093  -15.9506 O   0  0  0  0  0  0  0  0  0  0  0  0
   19.1888   -2.6438  -14.1907 O   0  0  0  0  0  0  0  0  0  0  0  0
  2  1  1  6
  3  2  1  0
  4  2  1  0
  5  4  1  0
  5  6  1  1
  7  9  1  0
  7  5  1  0
  8  7  2  0
 10  9  1  0
 10 11  1  6
 12 16  1  0
 12 11  1  0
 13 12  2  0
 14 10  1  0
 14 17  1  0
 15 14  2  0
 18 17  1  0
 18 22  1  0
 18 19  1  1
 19 20  1  0
 20 24  1  0
 20 21  2  0
 22 23  1  0
 25 22  2  0
M  END
$$$$
