LDD.pdb
     RDKit          3D

 25 24  0  0  1  0  0  0  0  0999 V2000
   17.9895  -12.3468  -17.1069 C   0  0  0  0  0  0  0  0  0  0  0  0
   19.2172  -12.4499  -16.2654 C   0  0  2  0  0  0  0  0  0  0  0  0
   19.1763  -13.7069  -15.4139 C   0  0  0  0  0  0  0  0  0  0  0  0
   19.5240  -11.2353  -15.4481 C   0  0  0  0  0  0  0  0  0  0  0  0
   19.6806   -9.9747  -16.2444 C   0  0  2  0  0  0  0  0  0  0  0  0
   20.6405  -10.0362  -17.2933 N   0  0  0  0  0  0  0  0  0  0  0  0
   19.8341   -8.7920  -15.3558 C   0  0  0  0  0  0  0  0  0  0  0  0
   19.1426   -8.7076  -14.2810 O   0  0  0  0  0  0  0  0  0  0  0  0
   20.7121   -7.7250  -15.6102 N   0  0  0  0  0  0  0  0  0  0  0  0
   20.7926   -6.5480  -14.7531 C   0  0  1  0  0  0  0  0  0  0  0  0
   22.2610   -6.1852  -14.5449 C   0  0  0  0  0  0  0  0  0  0  0  0
   22.4217   -4.9997  -13.6978 C   0  0  0  0  0  0  0  0  0  0  0  0
   22.9567   -3.9531  -14.0949 O   0  0  0  0  0  0  0  0  0  0  0  0
   20.0527   -5.3939  -15.2714 C   0  0  0  0  0  0  0  0  0  0  0  0
   20.5838   -4.7124  -16.1720 O   0  0  0  0  0  0  0  0  0  0  0  0
   21.9572   -5.0297  -12.3826 O   0  0  0  0  0  0  0  0  0  0  0  0
   18.7549   -4.9976  -14.8152 N   0  0  0  0  0  0  0  0  0  0  0  0
   18.1583   -3.7229  -15.0682 C   0  0  1  0  0  0  0  0  0  0  0  0
   18.9377   -2.5728  -14.4991 C   0  0  0  0  0  0  0  0  0  0  0  0
   18.3224   -1.2658  -14.7272 C   0  0  0  0  0  0  0  0  0  0  0  0
   17.0740   -1.0768  -14.7190 O   0  0  0  0  0  0  0  0  0  0  0  0
   17.9379   -3.5504  -16.5129 C   0  0  0  0  0  0  0  0  0  0  0  0
   18.2930   -4.4969  -17.4684 O   0  0  0  0  0  0  0  0  0  0  0  0
   19.1317   -0.1642  -14.9721 O   0  0  0  0  0  0  0  0  0  0  0  0
   17.4003   -2.4998  -16.9362 O   0  0  0  0  0  0  0  0  0  0  0  0
  2  1  1  1
  3  2  1  0
  4  2  1  0
  5  4  1  0
  5  6  1  6
  7  9  1  0
  7  5  1  0
  8  7  2  0
 10  9  1  0
 10 11  1  6
 12 16  1  0
 12 11  1  0
 13 12  2  0
 14 10  1  0
 14 17  1  0
 15 14  2  0
 18 17  1  0
 18 22  1  0
 18 19  1  6
 19 20  1  0
 20 24  1  0
 20 21  2  0
 22 23  1  0
 25 22  2  0
M  END
$$$$
