VIG.pdb
     RDKit          3D

 20 19  0  0  1  0  0  0  0  0999 V2000
    6.6034  -17.2479   22.4239 C   0  0  0  0  0  0  0  0  0  0  0  0
    7.4529  -16.5932   21.3552 C   0  0  1  0  0  0  0  0  0  0  0  0
    6.8535  -16.9773   20.0189 C   0  0  0  0  0  0  0  0  0  0  0  0
    7.4081  -15.0888   21.4428 C   0  0  2  0  0  0  0  0  0  0  0  0
    7.9855  -14.5269   20.2630 N   0  0  0  0  0  0  0  0  0  0  0  0
    8.1395  -14.6147   22.6877 C   0  0  0  0  0  0  0  0  0  0  0  0
    9.3619  -14.4229   22.5637 O   0  0  0  0  0  0  0  0  0  0  0  0
    5.6117  -11.0469   26.0914 C   0  0  0  0  0  0  0  0  0  0  0  0
    6.6627  -11.8094   25.2595 C   0  0  0  0  0  0  0  0  0  0  0  0
    7.0880  -13.0539   25.9530 C   0  0  2  0  0  0  0  0  0  0  0  0
    7.4960  -12.8171   27.3851 C   0  0  0  0  0  0  0  0  0  0  0  0
    7.9417  -13.9833   25.1763 C   0  0  2  0  0  0  0  0  0  0  0  0
    7.4621  -14.4113   23.8928 N   0  0  0  0  0  0  0  0  0  0  0  0
    8.6292  -15.0148   25.9457 C   0  0  0  0  0  0  0  0  0  0  0  0
    9.2347  -14.7436   27.0106 O   0  0  0  0  0  0  0  0  0  0  0  0
    8.6420  -16.3691   25.5219 N   0  0  0  0  0  0  0  0  0  0  0  0
    9.1692  -17.4372   26.3602 C   0  0  0  0  0  0  0  0  0  0  0  0
   10.6343  -17.5111   26.1603 C   0  0  0  0  0  0  0  0  0  0  0  0
   11.2393  -16.7347   25.3751 O   0  0  0  0  0  0  0  0  0  0  0  0
   11.3330  -18.4919   26.8883 O   0  0  0  0  0  0  0  0  0  0  0  0
  2  4  1  0
  2  1  1  1
  3  2  1  0
  4  5  1  6
  6  4  1  0
  6  7  2  0
  8  9  1  0
  9 10  1  0
 10 11  1  1
 10 12  1  0
 12 13  1  6
 12 14  1  0
 13  6  1  0
 14 15  2  0
 14 16  1  0
 16 17  1  0
 17 18  1  0
 18 20  1  0
 19 18  2  0
M  END
$$$$
