VIG.pdb
     RDKit          3D

 20 19  0  0  1  0  0  0  0  0999 V2000
    6.4547  -18.8513   25.4698 C   0  0  0  0  0  0  0  0  0  0  0  0
    6.6068  -18.8479   23.9634 C   0  0  1  0  0  0  0  0  0  0  0  0
    5.5330  -19.7605   23.4099 C   0  0  0  0  0  0  0  0  0  0  0  0
    6.3692  -17.4798   23.3761 C   0  0  2  0  0  0  0  0  0  0  0  0
    6.3060  -17.5786   21.9523 N   0  0  0  0  0  0  0  0  0  0  0  0
    7.4699  -16.5257   23.8089 C   0  0  0  0  0  0  0  0  0  0  0  0
    8.5180  -16.5610   23.1406 O   0  0  0  0  0  0  0  0  0  0  0  0
    6.2656  -11.9386   27.4215 C   0  0  0  0  0  0  0  0  0  0  0  0
    6.6834  -13.3708   27.0313 C   0  0  0  0  0  0  0  0  0  0  0  0
    7.5460  -13.3609   25.8203 C   0  0  2  0  0  0  0  0  0  0  0  0
    6.9676  -12.5411   24.6949 C   0  0  0  0  0  0  0  0  0  0  0  0
    8.1602  -14.6540   25.4372 C   0  0  2  0  0  0  0  0  0  0  0  0
    7.2973  -15.6658   24.8967 N   0  0  0  0  0  0  0  0  0  0  0  0
    9.2053  -15.1536   26.3243 C   0  0  0  0  0  0  0  0  0  0  0  0
   10.1186  -14.4046   26.7478 O   0  0  0  0  0  0  0  0  0  0  0  0
    9.2330  -16.5084   26.7459 N   0  0  0  0  0  0  0  0  0  0  0  0
   10.1475  -16.9792   27.7770 C   0  0  0  0  0  0  0  0  0  0  0  0
   11.2913  -17.6508   27.1191 C   0  0  0  0  0  0  0  0  0  0  0  0
   11.4268  -17.6619   25.8674 O   0  0  0  0  0  0  0  0  0  0  0  0
   12.2314  -18.2829   27.9538 O   0  0  0  0  0  0  0  0  0  0  0  0
  2  4  1  0
  2  1  1  1
  3  2  1  0
  4  5  1  6
  6  4  1  0
  6  7  2  0
  8  9  1  0
  9 10  1  0
 10 11  1  6
 10 12  1  0
 12 13  1  1
 12 14  1  0
 13  6  1  0
 14 15  2  0
 14 16  1  0
 16 17  1  0
 17 18  1  0
 18 20  1  0
 19 18  2  0
M  END
$$$$
