VIG.pdb
     RDKit          3D

 20 19  0  0  1  0  0  0  0  0999 V2000
    6.3569  -20.8118   26.1832 C   0  0  0  0  0  0  0  0  0  0  0  0
    6.9116  -19.5160   25.6304 C   0  0  1  0  0  0  0  0  0  0  0  0
    7.7576  -19.8762   24.4276 C   0  0  0  0  0  0  0  0  0  0  0  0
    5.8196  -18.5980   25.1429 C   0  0  2  0  0  0  0  0  0  0  0  0
    5.0318  -19.2757   24.1625 N   0  0  0  0  0  0  0  0  0  0  0  0
    6.4216  -17.3239   24.5740 C   0  0  0  0  0  0  0  0  0  0  0  0
    6.4515  -17.2398   23.3337 O   0  0  0  0  0  0  0  0  0  0  0  0
    5.7128  -12.5216   26.9931 C   0  0  0  0  0  0  0  0  0  0  0  0
    6.0013  -13.4833   25.8226 C   0  0  0  0  0  0  0  0  0  0  0  0
    7.4254  -13.9102   25.8248 C   0  0  2  0  0  0  0  0  0  0  0  0
    8.3804  -12.7683   25.5851 C   0  0  0  0  0  0  0  0  0  0  0  0
    7.7352  -15.1783   25.1235 C   0  0  2  0  0  0  0  0  0  0  0  0
    6.9085  -16.3161   25.4106 N   0  0  0  0  0  0  0  0  0  0  0  0
    9.1513  -15.4821   24.9466 C   0  0  0  0  0  0  0  0  0  0  0  0
    9.8248  -16.0202   25.8582 O   0  0  0  0  0  0  0  0  0  0  0  0
    9.8269  -15.1817   23.7352 N   0  0  0  0  0  0  0  0  0  0  0  0
   10.9477  -15.9790   23.2562 C   0  0  0  0  0  0  0  0  0  0  0  0
   12.1583  -15.5906   24.0150 C   0  0  0  0  0  0  0  0  0  0  0  0
   12.0998  -14.8373   25.0221 O   0  0  0  0  0  0  0  0  0  0  0  0
   13.3898  -16.1003   23.5637 O   0  0  0  0  0  0  0  0  0  0  0  0
  2  4  1  0
  2  1  1  6
  3  2  1  0
  4  5  1  6
  6  4  1  0
  6  7  2  0
  8  9  1  0
  9 10  1  0
 10 11  1  6
 10 12  1  0
 12 13  1  1
 12 14  1  0
 13  6  1  0
 14 15  2  0
 14 16  1  0
 16 17  1  0
 17 18  1  0
 18 20  1  0
 19 18  2  0
M  END
$$$$
