VIG.pdb
     RDKit          3D

 20 19  0  0  1  0  0  0  0  0999 V2000
    8.4577  -19.9130   19.7413 C   0  0  0  0  0  0  0  0  0  0  0  0
    9.3088  -19.5996   18.5289 C   0  0  1  0  0  0  0  0  0  0  0  0
    8.9097  -20.5787   17.4452 C   0  0  0  0  0  0  0  0  0  0  0  0
    9.0401  -18.2159   17.9942 C   0  0  2  0  0  0  0  0  0  0  0  0
    9.7220  -18.0467   16.7502 N   0  0  0  0  0  0  0  0  0  0  0  0
    9.4800  -17.1695   19.0046 C   0  0  0  0  0  0  0  0  0  0  0  0
   10.7069  -17.0018   19.1190 O   0  0  0  0  0  0  0  0  0  0  0  0
    6.6284  -12.4608   19.7197 C   0  0  0  0  0  0  0  0  0  0  0  0
    7.7424  -13.5215   19.6122 C   0  0  0  0  0  0  0  0  0  0  0  0
    7.8300  -14.3279   20.8582 C   0  0  2  0  0  0  0  0  0  0  0  0
    7.8991  -13.4791   22.1024 C   0  0  0  0  0  0  0  0  0  0  0  0
    8.7291  -15.5053   20.8205 C   0  0  2  0  0  0  0  0  0  0  0  0
    8.5467  -16.4472   19.7528 N   0  0  0  0  0  0  0  0  0  0  0  0
    9.0566  -16.1017   22.1111 C   0  0  0  0  0  0  0  0  0  0  0  0
    8.1933  -16.7071   22.7911 O   0  0  0  0  0  0  0  0  0  0  0  0
   10.3662  -16.0223   22.6521 N   0  0  0  0  0  0  0  0  0  0  0  0
   10.7342  -16.6962   23.8897 C   0  0  0  0  0  0  0  0  0  0  0  0
   12.1598  -16.4134   24.1723 C   0  0  0  0  0  0  0  0  0  0  0  0
   12.8819  -15.7655   23.3698 O   0  0  0  0  0  0  0  0  0  0  0  0
   12.6830  -16.9007   25.3842 O   0  0  0  0  0  0  0  0  0  0  0  0
  2  4  1  0
  2  1  1  1
  3  2  1  0
  4  5  1  6
  6  4  1  0
  6  7  2  0
  8  9  1  0
  9 10  1  0
 10 11  1  1
 10 12  1  0
 12 13  1  6
 12 14  1  0
 13  6  1  0
 14 15  2  0
 14 16  1  0
 16 17  1  0
 17 18  1  0
 18 20  1  0
 19 18  2  0
M  END
$$$$
