VIG.pdb
     RDKit          3D

 20 19  0  0  1  0  0  0  0  0999 V2000
    5.2735  -20.5185   24.3686 C   0  0  0  0  0  0  0  0  0  0  0  0
    6.2412  -19.3778   24.6025 C   0  0  1  0  0  0  0  0  0  0  0  0
    7.5907  -19.8319   24.0875 C   0  0  0  0  0  0  0  0  0  0  0  0
    5.8614  -18.1469   23.8193 C   0  0  2  0  0  0  0  0  0  0  0  0
    5.6933  -18.4925   22.4433 N   0  0  0  0  0  0  0  0  0  0  0  0
    6.9222  -17.0717   23.9866 C   0  0  0  0  0  0  0  0  0  0  0  0
    7.8013  -17.0299   23.1081 O   0  0  0  0  0  0  0  0  0  0  0  0
    5.5304  -12.4489   26.6755 C   0  0  0  0  0  0  0  0  0  0  0  0
    6.2426  -13.3413   25.6390 C   0  0  0  0  0  0  0  0  0  0  0  0
    7.3968  -14.0501   26.2522 C   0  0  2  0  0  0  0  0  0  0  0  0
    8.4593  -13.1095   26.7617 C   0  0  0  0  0  0  0  0  0  0  0  0
    7.8802  -15.2592   25.5448 C   0  0  2  0  0  0  0  0  0  0  0  0
    6.8958  -16.1900   25.0703 N   0  0  0  0  0  0  0  0  0  0  0  0
    9.0916  -15.8718   26.0796 C   0  0  0  0  0  0  0  0  0  0  0  0
    9.3079  -15.9267   27.3142 O   0  0  0  0  0  0  0  0  0  0  0  0
   10.0768  -16.4318   25.2253 N   0  0  0  0  0  0  0  0  0  0  0  0
   11.2779  -17.0714   25.7445 C   0  0  0  0  0  0  0  0  0  0  0  0
   12.4418  -16.5829   24.9707 C   0  0  0  0  0  0  0  0  0  0  0  0
   12.3052  -15.9460   23.8932 O   0  0  0  0  0  0  0  0  0  0  0  0
   13.7199  -16.8598   25.4900 O   0  0  0  0  0  0  0  0  0  0  0  0
  2  4  1  0
  2  1  1  6
  3  2  1  0
  4  5  1  6
  6  4  1  0
  6  7  2  0
  8  9  1  0
  9 10  1  0
 10 11  1  6
 10 12  1  0
 12 13  1  1
 12 14  1  0
 13  6  1  0
 14 15  2  0
 14 16  1  0
 16 17  1  0
 17 18  1  0
 18 20  1  0
 19 18  2  0
M  END
$$$$
