VIG.pdb
     RDKit          3D

 20 19  0  0  1  0  0  0  0  0999 V2000
    6.0611  -15.9195   19.6877 C   0  0  0  0  0  0  0  0  0  0  0  0
    6.7643  -15.8176   21.0247 C   0  0  1  0  0  0  0  0  0  0  0  0
    7.8234  -16.8992   21.0493 C   0  0  0  0  0  0  0  0  0  0  0  0
    7.4765  -14.4988   21.1878 C   0  0  2  0  0  0  0  0  0  0  0  0
    8.4152  -14.3311   20.1240 N   0  0  0  0  0  0  0  0  0  0  0  0
    8.1676  -14.4406   22.5400 C   0  0  0  0  0  0  0  0  0  0  0  0
    9.4006  -14.6018   22.5311 O   0  0  0  0  0  0  0  0  0  0  0  0
    5.8119  -11.2516   26.3556 C   0  0  0  0  0  0  0  0  0  0  0  0
    6.8904  -11.9466   25.5002 C   0  0  0  0  0  0  0  0  0  0  0  0
    7.1884  -13.3060   26.0233 C   0  0  2  0  0  0  0  0  0  0  0  0
    7.7148  -13.2885   27.4361 C   0  0  0  0  0  0  0  0  0  0  0  0
    7.8588  -14.2404   25.0886 C   0  0  2  0  0  0  0  0  0  0  0  0
    7.4441  -14.2179   23.7146 N   0  0  0  0  0  0  0  0  0  0  0  0
    8.1555  -15.5685   25.6148 C   0  0  0  0  0  0  0  0  0  0  0  0
    7.2413  -16.3592   25.9512 O   0  0  0  0  0  0  0  0  0  0  0  0
    9.4914  -16.0222   25.7683 N   0  0  0  0  0  0  0  0  0  0  0  0
    9.8079  -17.4171   26.0431 C   0  0  0  0  0  0  0  0  0  0  0  0
   10.3235  -17.5176   27.4273 C   0  0  0  0  0  0  0  0  0  0  0  0
   10.6893  -18.6154   27.9236 O   0  0  0  0  0  0  0  0  0  0  0  0
   10.3900  -16.3277   28.1756 O   0  0  0  0  0  0  0  0  0  0  0  0
  2  4  1  0
  2  1  1  6
  3  2  1  0
  4  5  1  6
  6  4  1  0
  6  7  2  0
  8  9  1  0
  9 10  1  0
 10 11  1  1
 10 12  1  0
 12 13  1  6
 12 14  1  0
 13  6  1  0
 14 15  2  0
 14 16  1  0
 16 17  1  0
 17 18  1  0
 18 20  1  0
 19 18  2  0
M  END
$$$$
