VIG.pdb
     RDKit          3D

 20 19  0  0  1  0  0  0  0  0999 V2000
    6.1762  -17.1389   20.3096 C   0  0  0  0  0  0  0  0  0  0  0  0
    6.9600  -16.6664   21.5156 C   0  0  1  0  0  0  0  0  0  0  0  0
    8.2748  -17.4172   21.5087 C   0  0  0  0  0  0  0  0  0  0  0  0
    7.2902  -15.1976   21.4331 C   0  0  2  0  0  0  0  0  0  0  0  0
    8.0100  -14.9396   20.2263 N   0  0  0  0  0  0  0  0  0  0  0  0
    8.0947  -14.7725   22.6502 C   0  0  0  0  0  0  0  0  0  0  0  0
    9.2827  -14.4698   22.4417 O   0  0  0  0  0  0  0  0  0  0  0  0
    5.5453  -11.4294   26.1106 C   0  0  0  0  0  0  0  0  0  0  0  0
    6.6026  -12.1474   25.2477 C   0  0  0  0  0  0  0  0  0  0  0  0
    7.1506  -13.3335   25.9573 C   0  0  2  0  0  0  0  0  0  0  0  0
    7.6133  -13.0176   27.3570 C   0  0  0  0  0  0  0  0  0  0  0  0
    8.0277  -14.2285   25.1663 C   0  0  2  0  0  0  0  0  0  0  0  0
    7.5172  -14.7300   23.9220 N   0  0  0  0  0  0  0  0  0  0  0  0
    8.8211  -15.1853   25.9303 C   0  0  0  0  0  0  0  0  0  0  0  0
    9.6172  -14.8102   26.8246 O   0  0  0  0  0  0  0  0  0  0  0  0
    8.7257  -16.5815   25.6941 N   0  0  0  0  0  0  0  0  0  0  0  0
    9.6629  -17.2857   24.8298 C   0  0  0  0  0  0  0  0  0  0  0  0
   10.9872  -17.3064   25.4915 C   0  0  0  0  0  0  0  0  0  0  0  0
   11.6891  -16.2678   25.6093 O   0  0  0  0  0  0  0  0  0  0  0  0
   11.4370  -18.5435   25.9891 O   0  0  0  0  0  0  0  0  0  0  0  0
  2  4  1  0
  2  1  1  6
  3  2  1  0
  4  5  1  6
  6  4  1  0
  6  7  2  0
  8  9  1  0
  9 10  1  0
 10 11  1  1
 10 12  1  0
 12 13  1  6
 12 14  1  0
 13  6  1  0
 14 15  2  0
 14 16  1  0
 16 17  1  0
 17 18  1  0
 18 20  1  0
 19 18  2  0
M  END
$$$$
