VIG.pdb
     RDKit          3D

 20 19  0  0  1  0  0  0  0  0999 V2000
    6.0926  -20.6187   25.5990 C   0  0  0  0  0  0  0  0  0  0  0  0
    6.8378  -19.3101   25.4424 C   0  0  1  0  0  0  0  0  0  0  0  0
    8.0695  -19.6010   24.6113 C   0  0  0  0  0  0  0  0  0  0  0  0
    6.0276  -18.2870   24.6875 C   0  0  2  0  0  0  0  0  0  0  0  0
    5.5837  -18.8502   23.4519 N   0  0  0  0  0  0  0  0  0  0  0  0
    6.8553  -17.0347   24.4506 C   0  0  0  0  0  0  0  0  0  0  0  0
    7.4077  -16.9467   23.3399 O   0  0  0  0  0  0  0  0  0  0  0  0
    5.3052  -12.3790   26.9153 C   0  0  0  0  0  0  0  0  0  0  0  0
    5.9242  -13.2675   25.8175 C   0  0  0  0  0  0  0  0  0  0  0  0
    7.2985  -13.6940   26.1918 C   0  0  2  0  0  0  0  0  0  0  0  0
    8.2535  -12.5361   26.3346 C   0  0  0  0  0  0  0  0  0  0  0  0
    7.8272  -14.8950   25.5032 C   0  0  2  0  0  0  0  0  0  0  0  0
    6.9776  -16.0500   25.4344 N   0  0  0  0  0  0  0  0  0  0  0  0
    9.2394  -15.1885   25.7227 C   0  0  0  0  0  0  0  0  0  0  0  0
    9.6940  -15.3976   26.8733 O   0  0  0  0  0  0  0  0  0  0  0  0
   10.1589  -15.2501   24.6435 N   0  0  0  0  0  0  0  0  0  0  0  0
   11.5996  -15.2784   24.8553 C   0  0  0  0  0  0  0  0  0  0  0  0
   12.0775  -16.6643   24.6479 C   0  0  0  0  0  0  0  0  0  0  0  0
   11.6006  -17.6363   25.2907 O   0  0  0  0  0  0  0  0  0  0  0  0
   13.0953  -16.8567   23.6956 O   0  0  0  0  0  0  0  0  0  0  0  0
  2  4  1  0
  2  1  1  6
  3  2  1  0
  4  5  1  6
  6  4  1  0
  6  7  2  0
  8  9  1  0
  9 10  1  0
 10 11  1  6
 10 12  1  0
 12 13  1  1
 12 14  1  0
 13  6  1  0
 14 15  2  0
 14 16  1  0
 16 17  1  0
 17 18  1  0
 18 20  1  0
 19 18  2  0
M  END
$$$$
