VIG.pdb
     RDKit          3D

 20 19  0  0  1  0  0  0  0  0999 V2000
    6.4034  -13.9781   18.9210 C   0  0  0  0  0  0  0  0  0  0  0  0
    6.9856  -14.3004   20.2809 C   0  0  1  0  0  0  0  0  0  0  0  0
    8.0595  -15.3455   20.0643 C   0  0  0  0  0  0  0  0  0  0  0  0
    7.6550  -13.1027   20.9058 C   0  0  2  0  0  0  0  0  0  0  0  0
    8.6600  -12.6048   20.0207 N   0  0  0  0  0  0  0  0  0  0  0  0
    8.2509  -13.4790   22.2521 C   0  0  0  0  0  0  0  0  0  0  0  0
    9.4692  -13.7284   22.2602 O   0  0  0  0  0  0  0  0  0  0  0  0
    5.8184  -11.3108   26.7375 C   0  0  0  0  0  0  0  0  0  0  0  0
    6.8328  -11.8164   25.6919 C   0  0  0  0  0  0  0  0  0  0  0  0
    7.0834  -13.2727   25.8560 C   0  0  2  0  0  0  0  0  0  0  0  0
    7.5423  -13.6359   27.2456 C   0  0  0  0  0  0  0  0  0  0  0  0
    7.7820  -13.9520   24.7395 C   0  0  2  0  0  0  0  0  0  0  0  0
    7.4613  -13.5364   23.4035 N   0  0  0  0  0  0  0  0  0  0  0  0
    7.9963  -15.3865   24.8974 C   0  0  0  0  0  0  0  0  0  0  0  0
    7.0381  -16.1765   25.0759 O   0  0  0  0  0  0  0  0  0  0  0  0
    9.2985  -15.9491   24.8557 N   0  0  0  0  0  0  0  0  0  0  0  0
    9.5323  -17.3738   25.0479 C   0  0  0  0  0  0  0  0  0  0  0  0
   10.8908  -17.5553   25.6079 C   0  0  0  0  0  0  0  0  0  0  0  0
   11.6865  -16.5901   25.7509 O   0  0  0  0  0  0  0  0  0  0  0  0
   11.2635  -18.8607   25.9783 O   0  0  0  0  0  0  0  0  0  0  0  0
  2  4  1  0
  2  1  1  6
  3  2  1  0
  4  5  1  6
  6  4  1  0
  6  7  2  0
  8  9  1  0
  9 10  1  0
 10 11  1  1
 10 12  1  0
 12 13  1  6
 12 14  1  0
 13  6  1  0
 14 15  2  0
 14 16  1  0
 16 17  1  0
 17 18  1  0
 18 20  1  0
 19 18  2  0
M  END
$$$$
