VIG.pdb
     RDKit          3D

 20 19  0  0  1  0  0  0  0  0999 V2000
    7.6316  -19.2170   26.3794 C   0  0  0  0  0  0  0  0  0  0  0  0
    6.8204  -19.5059   25.1341 C   0  0  1  0  0  0  0  0  0  0  0  0
    6.0023  -20.7476   25.4191 C   0  0  0  0  0  0  0  0  0  0  0  0
    5.8466  -18.3970   24.8259 C   0  0  2  0  0  0  0  0  0  0  0  0
    5.0138  -18.7864   23.7323 N   0  0  0  0  0  0  0  0  0  0  0  0
    6.5971  -17.1137   24.5106 C   0  0  0  0  0  0  0  0  0  0  0  0
    6.9532  -16.9651   23.3284 O   0  0  0  0  0  0  0  0  0  0  0  0
    5.2584  -12.4074   26.8488 C   0  0  0  0  0  0  0  0  0  0  0  0
    5.8154  -13.3944   25.8030 C   0  0  0  0  0  0  0  0  0  0  0  0
    7.2155  -13.7763   26.1261 C   0  0  2  0  0  0  0  0  0  0  0  0
    8.1585  -12.5998   26.1293 C   0  0  0  0  0  0  0  0  0  0  0  0
    7.7229  -15.0178   25.4959 C   0  0  2  0  0  0  0  0  0  0  0  0
    6.8627  -16.1669   25.5034 N   0  0  0  0  0  0  0  0  0  0  0  0
    9.1360  -15.3121   25.7091 C   0  0  0  0  0  0  0  0  0  0  0  0
    9.6140  -15.4288   26.8633 O   0  0  0  0  0  0  0  0  0  0  0  0
   10.0298  -15.4788   24.6195 N   0  0  0  0  0  0  0  0  0  0  0  0
   11.4474  -15.7494   24.8161 C   0  0  0  0  0  0  0  0  0  0  0  0
   12.1033  -15.8037   23.4899 C   0  0  0  0  0  0  0  0  0  0  0  0
   11.4430  -15.7679   22.4184 O   0  0  0  0  0  0  0  0  0  0  0  0
   13.5072  -15.8977   23.4713 O   0  0  0  0  0  0  0  0  0  0  0  0
  2  4  1  0
  2  1  1  1
  3  2  1  0
  4  5  1  6
  6  4  1  0
  6  7  2  0
  8  9  1  0
  9 10  1  0
 10 11  1  6
 10 12  1  0
 12 13  1  1
 12 14  1  0
 13  6  1  0
 14 15  2  0
 14 16  1  0
 16 17  1  0
 17 18  1  0
 18 20  1  0
 19 18  2  0
M  END
$$$$
