VIG.pdb
     RDKit          3D

 20 19  0  0  1  0  0  0  0  0999 V2000
    6.2177  -17.5312   20.6474 C   0  0  0  0  0  0  0  0  0  0  0  0
    7.0723  -16.8651   21.7049 C   0  0  1  0  0  0  0  0  0  0  0  0
    8.4959  -17.3276   21.4768 C   0  0  0  0  0  0  0  0  0  0  0  0
    7.0690  -15.3636   21.5687 C   0  0  2  0  0  0  0  0  0  0  0  0
    7.4778  -15.0056   20.2474 N   0  0  0  0  0  0  0  0  0  0  0  0
    7.9836  -14.7413   22.6106 C   0  0  0  0  0  0  0  0  0  0  0  0
    9.0542  -14.2712   22.1873 O   0  0  0  0  0  0  0  0  0  0  0  0
    5.6136  -11.6564   26.4621 C   0  0  0  0  0  0  0  0  0  0  0  0
    6.7027  -12.1453   25.4859 C   0  0  0  0  0  0  0  0  0  0  0  0
    7.4112  -13.3327   26.0323 C   0  0  2  0  0  0  0  0  0  0  0  0
    7.9921  -13.0901   27.4023 C   0  0  0  0  0  0  0  0  0  0  0  0
    8.2670  -14.0845   25.0844 C   0  0  2  0  0  0  0  0  0  0  0  0
    7.6265  -14.7079   23.9612 N   0  0  0  0  0  0  0  0  0  0  0  0
    9.3497  -14.8616   25.6781 C   0  0  0  0  0  0  0  0  0  0  0  0
   10.1503  -14.3501   26.4976 O   0  0  0  0  0  0  0  0  0  0  0  0
    9.5431  -16.2296   25.3535 N   0  0  0  0  0  0  0  0  0  0  0  0
   10.6833  -16.9885   25.8487 C   0  0  0  0  0  0  0  0  0  0  0  0
   10.2051  -17.9324   26.8842 C   0  0  0  0  0  0  0  0  0  0  0  0
    9.2465  -17.6506   27.6504 O   0  0  0  0  0  0  0  0  0  0  0  0
   10.8688  -19.1693   26.9812 O   0  0  0  0  0  0  0  0  0  0  0  0
  2  4  1  0
  2  1  1  6
  3  2  1  0
  4  5  1  6
  6  4  1  0
  6  7  2  0
  8  9  1  0
  9 10  1  0
 10 11  1  1
 10 12  1  0
 12 13  1  1
 12 14  1  0
 13  6  1  0
 14 15  2  0
 14 16  1  0
 16 17  1  0
 17 18  1  0
 18 20  1  0
 19 18  2  0
M  END
$$$$
