VIG.pdb
     RDKit          3D

 20 19  0  0  1  0  0  0  0  0999 V2000
    6.5001  -17.0472   20.1515 C   0  0  0  0  0  0  0  0  0  0  0  0
    7.2523  -16.7239   21.4251 C   0  0  1  0  0  0  0  0  0  0  0  0
    8.4914  -17.5938   21.4381 C   0  0  0  0  0  0  0  0  0  0  0  0
    7.7189  -15.2906   21.4556 C   0  0  2  0  0  0  0  0  0  0  0  0
    8.5491  -15.0371   20.3208 N   0  0  0  0  0  0  0  0  0  0  0  0
    8.4634  -15.0097   22.7503 C   0  0  0  0  0  0  0  0  0  0  0  0
    9.7049  -15.0288   22.6822 O   0  0  0  0  0  0  0  0  0  0  0  0
    5.8034  -11.7809   26.0838 C   0  0  0  0  0  0  0  0  0  0  0  0
    7.0670  -12.3315   25.3923 C   0  0  0  0  0  0  0  0  0  0  0  0
    7.5852  -13.5276   26.1073 C   0  0  2  0  0  0  0  0  0  0  0  0
    8.2556  -13.1853   27.4137 C   0  0  0  0  0  0  0  0  0  0  0  0
    8.2599  -14.5523   25.2762 C   0  0  2  0  0  0  0  0  0  0  0  0
    7.7768  -14.7472   23.9387 N   0  0  0  0  0  0  0  0  0  0  0  0
    8.6570  -15.7752   25.9658 C   0  0  0  0  0  0  0  0  0  0  0  0
    7.8058  -16.5734   26.4268 O   0  0  0  0  0  0  0  0  0  0  0  0
   10.0236  -16.1137   26.1443 N   0  0  0  0  0  0  0  0  0  0  0  0
   10.4398  -17.4250   26.6226 C   0  0  0  0  0  0  0  0  0  0  0  0
   10.6398  -17.3486   28.0876 C   0  0  0  0  0  0  0  0  0  0  0  0
   10.4058  -16.2960   28.7376 O   0  0  0  0  0  0  0  0  0  0  0  0
   11.1060  -18.5087   28.7333 O   0  0  0  0  0  0  0  0  0  0  0  0
  2  4  1  0
  2  1  1  6
  3  2  1  0
  4  5  1  6
  6  4  1  0
  6  7  2  0
  8  9  1  0
  9 10  1  0
 10 11  1  1
 10 12  1  0
 12 13  1  6
 12 14  1  0
 13  6  1  0
 14 15  2  0
 14 16  1  0
 16 17  1  0
 17 18  1  0
 18 20  1  0
 19 18  2  0
M  END
$$$$
