VIG.pdb
     RDKit          3D

 20 19  0  0  1  0  0  0  0  0999 V2000
    6.9561  -15.8178   20.8015 C   0  0  0  0  0  0  0  0  0  0  0  0
    7.8205  -14.7869   20.1070 C   0  0  1  0  0  0  0  0  0  0  0  0
    7.2644  -14.6148   18.7093 C   0  0  0  0  0  0  0  0  0  0  0  0
    7.7440  -13.4407   20.7813 C   0  0  2  0  0  0  0  0  0  0  0  0
    8.3794  -12.4606   19.9586 N   0  0  0  0  0  0  0  0  0  0  0  0
    8.3928  -13.5048   22.1540 C   0  0  0  0  0  0  0  0  0  0  0  0
    9.6242  -13.3343   22.1851 O   0  0  0  0  0  0  0  0  0  0  0  0
    6.0696  -11.1371   26.6739 C   0  0  0  0  0  0  0  0  0  0  0  0
    7.1697  -11.6792   25.7391 C   0  0  0  0  0  0  0  0  0  0  0  0
    7.1305  -13.1642   25.6780 C   0  0  2  0  0  0  0  0  0  0  0  0
    7.0832  -13.8062   27.0414 C   0  0  0  0  0  0  0  0  0  0  0  0
    8.0218  -13.8075   24.6841 C   0  0  2  0  0  0  0  0  0  0  0  0
    7.6346  -13.7425   23.3035 N   0  0  0  0  0  0  0  0  0  0  0  0
    8.6246  -15.0727   25.0899 C   0  0  0  0  0  0  0  0  0  0  0  0
    9.1434  -15.2177   26.2231 O   0  0  0  0  0  0  0  0  0  0  0  0
    8.6496  -16.1933   24.2196 N   0  0  0  0  0  0  0  0  0  0  0  0
    9.2074  -17.4760   24.6256 C   0  0  0  0  0  0  0  0  0  0  0  0
   10.6790  -17.3405   24.7162 C   0  0  0  0  0  0  0  0  0  0  0  0
   11.2250  -16.5135   25.4929 O   0  0  0  0  0  0  0  0  0  0  0  0
   11.4529  -18.1793   23.8931 O   0  0  0  0  0  0  0  0  0  0  0  0
  2  4  1  0
  2  1  1  1
  3  2  1  0
  4  5  1  6
  6  4  1  0
  6  7  2  0
  8  9  1  0
  9 10  1  0
 10 11  1  1
 10 12  1  0
 12 13  1  6
 12 14  1  0
 13  6  1  0
 14 15  2  0
 14 16  1  0
 16 17  1  0
 17 18  1  0
 18 20  1  0
 19 18  2  0
M  END
$$$$
