VIG.pdb
     RDKit          3D

 20 19  0  0  1  0  0  0  0  0999 V2000
    6.3461  -18.1576   23.6240 C   0  0  0  0  0  0  0  0  0  0  0  0
    6.8178  -17.6858   22.2648 C   0  0  1  0  0  0  0  0  0  0  0  0
    5.9492  -18.3743   21.2333 C   0  0  0  0  0  0  0  0  0  0  0  0
    6.6240  -16.2016   22.0850 C   0  0  2  0  0  0  0  0  0  0  0  0
    6.7831  -15.8655   20.7055 N   0  0  0  0  0  0  0  0  0  0  0  0
    7.6107  -15.4359   22.9507 C   0  0  0  0  0  0  0  0  0  0  0  0
    8.7135  -15.1867   22.4330 O   0  0  0  0  0  0  0  0  0  0  0  0
    5.6376  -11.6679   26.5209 C   0  0  0  0  0  0  0  0  0  0  0  0
    6.6761  -12.2782   25.5581 C   0  0  0  0  0  0  0  0  0  0  0  0
    7.3446  -13.4546   26.1743 C   0  0  2  0  0  0  0  0  0  0  0  0
    8.0592  -13.1172   27.4583 C   0  0  0  0  0  0  0  0  0  0  0  0
    8.0586  -14.3669   25.2502 C   0  0  2  0  0  0  0  0  0  0  0  0
    7.2812  -15.0428   24.2506 N   0  0  0  0  0  0  0  0  0  0  0  0
    9.1243  -15.1698   25.8405 C   0  0  0  0  0  0  0  0  0  0  0  0
   10.1290  -14.6371   26.3706 O   0  0  0  0  0  0  0  0  0  0  0  0
    9.0694  -16.5879   25.8399 N   0  0  0  0  0  0  0  0  0  0  0  0
   10.1761  -17.4052   26.3178 C   0  0  0  0  0  0  0  0  0  0  0  0
    9.9195  -17.7628   27.7314 C   0  0  0  0  0  0  0  0  0  0  0  0
    9.6756  -16.8899   28.6054 O   0  0  0  0  0  0  0  0  0  0  0  0
    9.9587  -19.1292   28.0653 O   0  0  0  0  0  0  0  0  0  0  0  0
  2  4  1  0
  2  1  1  1
  3  2  1  0
  4  5  1  6
  6  4  1  0
  6  7  2  0
  8  9  1  0
  9 10  1  0
 10 11  1  1
 10 12  1  0
 12 13  1  1
 12 14  1  0
 13  6  1  0
 14 15  2  0
 14 16  1  0
 16 17  1  0
 17 18  1  0
 18 20  1  0
 19 18  2  0
M  END
$$$$
