VIG.pdb
     RDKit          3D

 20 19  0  0  1  0  0  0  0  0999 V2000
    7.5062  -19.0347   25.3433 C   0  0  0  0  0  0  0  0  0  0  0  0
    7.0541  -19.1351   23.9019 C   0  0  1  0  0  0  0  0  0  0  0  0
    6.1546  -20.3491   23.8055 C   0  0  0  0  0  0  0  0  0  0  0  0
    6.2318  -17.9423   23.4847 C   0  0  2  0  0  0  0  0  0  0  0  0
    5.7456  -18.1417   22.1562 N   0  0  0  0  0  0  0  0  0  0  0  0
    7.0641  -16.6742   23.5769 C   0  0  0  0  0  0  0  0  0  0  0  0
    7.8500  -16.4666   22.6358 O   0  0  0  0  0  0  0  0  0  0  0  0
    6.7083  -11.2278   26.6372 C   0  0  0  0  0  0  0  0  0  0  0  0
    7.6047  -12.2382   25.8932 C   0  0  0  0  0  0  0  0  0  0  0  0
    6.8626  -13.4936   25.6034 C   0  0  2  0  0  0  0  0  0  0  0  0
    5.9328  -13.8963   26.7198 C   0  0  0  0  0  0  0  0  0  0  0  0
    7.6380  -14.5879   24.9729 C   0  0  2  0  0  0  0  0  0  0  0  0
    6.9408  -15.8037   24.6630 N   0  0  0  0  0  0  0  0  0  0  0  0
    8.9989  -14.7733   25.4648 C   0  0  0  0  0  0  0  0  0  0  0  0
    9.7681  -13.7990   25.6474 O   0  0  0  0  0  0  0  0  0  0  0  0
    9.5105  -16.0642   25.7578 N   0  0  0  0  0  0  0  0  0  0  0  0
   10.7916  -16.2560   26.4237 C   0  0  0  0  0  0  0  0  0  0  0  0
   11.8016  -16.6173   25.4032 C   0  0  0  0  0  0  0  0  0  0  0  0
   11.5401  -16.5989   24.1717 O   0  0  0  0  0  0  0  0  0  0  0  0
   13.0784  -16.9859   25.8659 O   0  0  0  0  0  0  0  0  0  0  0  0
  2  4  1  0
  2  1  1  1
  3  2  1  0
  4  5  1  6
  6  4  1  0
  6  7  2  0
  8  9  1  0
  9 10  1  0
 10 11  1  1
 10 12  1  0
 12 13  1  1
 12 14  1  0
 13  6  1  0
 14 15  2  0
 14 16  1  0
 16 17  1  0
 17 18  1  0
 18 20  1  0
 19 18  2  0
M  END
$$$$
