VYF.pdb
     RDKit          3D

 31 32  0  0  1  0  0  0  0  0999 V2000
    8.1758  -12.8751   21.3474 C   0  0  0  0  0  0  0  0  0  0  0  0
    7.6765  -13.3872   20.0255 C   0  0  1  0  0  0  0  0  0  0  0  0
    8.1517  -12.5800   18.8622 C   0  0  0  0  0  0  0  0  0  0  0  0
    8.0138  -14.8346   19.7940 C   0  0  2  0  0  0  0  0  0  0  0  0
    7.5739  -15.2089   18.4875 N   0  0  0  0  0  0  0  0  0  0  0  0
    7.4932  -15.7433   20.8108 C   0  0  0  0  0  0  0  0  0  0  0  0
    6.2958  -16.1189   20.8979 O   0  0  0  0  0  0  0  0  0  0  0  0
    6.6764  -22.1898   26.6980 O   0  0  0  0  0  0  0  0  0  0  0  0
    7.0697  -21.2900   25.7120 C   0  0  0  0  0  0  0  0  0  0  0  0
    6.1490  -20.7566   24.8447 C   0  0  0  0  0  0  0  0  0  0  0  0
    6.5434  -19.8626   23.8660 C   0  0  0  0  0  0  0  0  0  0  0  0
    7.8586  -19.4640   23.7089 C   0  0  0  0  0  0  0  0  0  0  0  0
    8.3206  -18.5327   22.6751 C   0  0  0  0  0  0  0  0  0  0  0  0
    7.9832  -17.0907   22.9009 C   0  0  2  0  0  0  0  0  0  0  0  0
    8.3917  -16.2540   21.7864 N   0  0  0  0  0  0  0  0  0  0  0  0
    8.6849  -16.6169   24.1103 C   0  0  0  0  0  0  0  0  0  0  0  0
    9.9190  -16.3478   24.1613 O   0  0  0  0  0  0  0  0  0  0  0  0
    8.7729  -20.0058   24.5842 C   0  0  0  0  0  0  0  0  0  0  0  0
    8.3878  -20.9091   25.5767 C   0  0  0  0  0  0  0  0  0  0  0  0
    7.9778  -16.4325   25.3274 N   0  0  0  0  0  0  0  0  0  0  0  0
    8.6194  -15.9310   26.5541 C   0  0  1  0  0  0  0  0  0  0  0  0
    7.5548  -15.1633   27.2958 C   0  0  0  0  0  0  0  0  0  0  0  0
    7.3584  -13.8136   26.7337 C   0  0  0  0  0  0  0  0  0  0  0  0
    8.3164  -12.8289   26.8301 C   0  0  0  0  0  0  0  0  0  0  0  0
    8.1402  -11.5590   26.2993 C   0  0  0  0  0  0  0  0  0  0  0  0
    6.9740  -11.2316   25.6424 C   0  0  0  0  0  0  0  0  0  0  0  0
    6.0047  -12.2088   25.5383 C   0  0  0  0  0  0  0  0  0  0  0  0
    6.1792  -13.4678   26.0644 C   0  0  0  0  0  0  0  0  0  0  0  0
    9.1141  -17.0476   27.3482 C   0  0  0  0  0  0  0  0  0  0  0  0
    8.8780  -18.3518   26.9337 O   0  0  0  0  0  0  0  0  0  0  0  0
    9.7558  -16.8092   28.4142 O   0  0  0  0  0  0  0  0  0  0  0  0
  2  1  1  1
  3  2  1  0
  4  5  1  6
  4  2  1  0
  6  4  1  0
  7  6  2  0
  8  9  1  0
  9 10  2  0
 10 11  1  0
 12 11  2  0
 12 13  1  0
 14 13  1  6
 14 15  1  0
 15  6  1  0
 16 14  1  0
 16 20  1  0
 17 16  2  0
 18 12  1  0
 19 18  2  0
 19  9  1  0
 21 22  1  1
 21 20  1  0
 21 29  1  0
 23 28  1  0
 23 22  1  0
 24 23  2  0
 25 26  2  0
 25 24  1  0
 26 27  1  0
 27 28  2  0
 29 30  1  0
 31 29  2  0
M  END
$$$$
