VYF.pdb
     RDKit          3D

 31 32  0  0  1  0  0  0  0  0999 V2000
    8.4631  -13.2258   19.5325 C   0  0  0  0  0  0  0  0  0  0  0  0
    8.0127  -13.9710   18.3075 C   0  0  1  0  0  0  0  0  0  0  0  0
    8.4790  -13.3478   17.0327 C   0  0  0  0  0  0  0  0  0  0  0  0
    8.4131  -15.4207   18.3247 C   0  0  2  0  0  0  0  0  0  0  0  0
    7.9241  -16.0499   17.1391 N   0  0  0  0  0  0  0  0  0  0  0  0
    7.9966  -16.1452   19.5215 C   0  0  0  0  0  0  0  0  0  0  0  0
    6.8036  -16.3785   19.8451 O   0  0  0  0  0  0  0  0  0  0  0  0
    8.7317  -20.8743   27.0213 O   0  0  0  0  0  0  0  0  0  0  0  0
    8.9569  -20.2657   25.7903 C   0  0  0  0  0  0  0  0  0  0  0  0
   10.0591  -19.4716   25.5941 C   0  0  0  0  0  0  0  0  0  0  0  0
   10.2799  -18.8684   24.3693 C   0  0  0  0  0  0  0  0  0  0  0  0
    9.4216  -19.0275   23.2963 C   0  0  0  0  0  0  0  0  0  0  0  0
    9.6099  -18.3931   21.9880 C   0  0  0  0  0  0  0  0  0  0  0  0
    8.7200  -17.2233   21.6982 C   0  0  2  0  0  0  0  0  0  0  0  0
    9.0004  -16.6326   20.4016 N   0  0  0  0  0  0  0  0  0  0  0  0
    8.9358  -16.1887   22.7290 C   0  0  0  0  0  0  0  0  0  0  0  0
    9.9867  -15.4944   22.8357 O   0  0  0  0  0  0  0  0  0  0  0  0
    8.3195  -19.8259   23.5050 C   0  0  0  0  0  0  0  0  0  0  0  0
    8.0852  -20.4406   24.7364 C   0  0  0  0  0  0  0  0  0  0  0  0
    7.9306  -15.9111   23.6922 N   0  0  0  0  0  0  0  0  0  0  0  0
    8.0665  -14.8491   24.7029 C   0  0  1  0  0  0  0  0  0  0  0  0
    6.6858  -14.2722   24.8876 C   0  0  0  0  0  0  0  0  0  0  0  0
    6.6631  -13.2223   25.9236 C   0  0  0  0  0  0  0  0  0  0  0  0
    6.5949  -11.8823   25.6132 C   0  0  0  0  0  0  0  0  0  0  0  0
    6.5680  -10.8900   26.5828 C   0  0  0  0  0  0  0  0  0  0  0  0
    6.6099  -11.2183   27.9204 C   0  0  0  0  0  0  0  0  0  0  0  0
    6.6786  -12.5578   28.2464 C   0  0  0  0  0  0  0  0  0  0  0  0
    6.7052  -13.5418   27.2853 C   0  0  0  0  0  0  0  0  0  0  0  0
    8.5746  -15.4098   25.9477 C   0  0  0  0  0  0  0  0  0  0  0  0
    9.5910  -14.7612   26.6365 O   0  0  0  0  0  0  0  0  0  0  0  0
    8.0781  -16.4904   26.3848 O   0  0  0  0  0  0  0  0  0  0  0  0
  2  1  1  1
  3  2  1  0
  4  5  1  6
  4  2  1  0
  6  4  1  0
  7  6  2  0
  8  9  1  0
  9 10  2  0
 10 11  1  0
 12 11  2  0
 12 13  1  0
 14 13  1  1
 14 15  1  0
 15  6  1  0
 16 14  1  0
 16 20  1  0
 17 16  2  0
 18 12  1  0
 19 18  2  0
 19  9  1  0
 21 22  1  1
 21 20  1  0
 21 29  1  0
 23 28  1  0
 23 22  1  0
 24 23  2  0
 25 26  2  0
 25 24  1  0
 26 27  1  0
 27 28  2  0
 29 30  1  0
 31 29  2  0
M  END
$$$$
