VYF.pdb
     RDKit          3D

 31 32  0  0  1  0  0  0  0  0999 V2000
    6.9797  -12.9665   19.6796 C   0  0  0  0  0  0  0  0  0  0  0  0
    8.4239  -13.2684   19.3934 C   0  0  1  0  0  0  0  0  0  0  0  0
    9.3595  -12.6880   20.4028 C   0  0  0  0  0  0  0  0  0  0  0  0
    8.6973  -14.7410   19.2550 C   0  0  2  0  0  0  0  0  0  0  0  0
    8.0134  -15.2320   18.1010 N   0  0  0  0  0  0  0  0  0  0  0  0
    8.3710  -15.5270   20.4409 C   0  0  0  0  0  0  0  0  0  0  0  0
    7.2064  -15.8271   20.8097 O   0  0  0  0  0  0  0  0  0  0  0  0
    6.8845  -21.4372   18.6568 O   0  0  0  0  0  0  0  0  0  0  0  0
    7.5834  -20.6321   19.5510 C   0  0  0  0  0  0  0  0  0  0  0  0
    8.6854  -19.9241   19.1404 C   0  0  0  0  0  0  0  0  0  0  0  0
    9.3776  -19.1248   20.0319 C   0  0  0  0  0  0  0  0  0  0  0  0
    9.0070  -18.9961   21.3584 C   0  0  0  0  0  0  0  0  0  0  0  0
    9.7223  -18.1736   22.3388 C   0  0  0  0  0  0  0  0  0  0  0  0
    9.2435  -16.7608   22.4757 C   0  0  2  0  0  0  0  0  0  0  0  0
    9.4364  -15.9987   21.2547 N   0  0  0  0  0  0  0  0  0  0  0  0
   10.0038  -16.0983   23.5539 C   0  0  0  0  0  0  0  0  0  0  0  0
   11.0534  -15.4172   23.3738 O   0  0  0  0  0  0  0  0  0  0  0  0
    7.9005  -19.7110   21.7586 C   0  0  0  0  0  0  0  0  0  0  0  0
    7.1929  -20.5214   20.8687 C   0  0  0  0  0  0  0  0  0  0  0  0
    9.5751  -16.1979   24.9036 N   0  0  0  0  0  0  0  0  0  0  0  0
   10.2830  -15.5417   26.0154 C   0  0  1  0  0  0  0  0  0  0  0  0
   10.2189  -14.0621   25.7331 C   0  0  0  0  0  0  0  0  0  0  0  0
    8.8644  -13.5195   25.9500 C   0  0  0  0  0  0  0  0  0  0  0  0
    8.5325  -12.7936   27.0723 C   0  0  0  0  0  0  0  0  0  0  0  0
    7.2619  -12.2760   27.2801 C   0  0  0  0  0  0  0  0  0  0  0  0
    6.2653  -12.4751   26.3497 C   0  0  0  0  0  0  0  0  0  0  0  0
    6.5835  -13.2012   25.2197 C   0  0  0  0  0  0  0  0  0  0  0  0
    7.8432  -13.7142   25.0134 C   0  0  0  0  0  0  0  0  0  0  0  0
    9.6334  -15.8661   27.2784 C   0  0  0  0  0  0  0  0  0  0  0  0
    8.4888  -16.6522   27.2877 O   0  0  0  0  0  0  0  0  0  0  0  0
   10.1263  -15.4206   28.3571 O   0  0  0  0  0  0  0  0  0  0  0  0
  2  1  1  1
  3  2  1  0
  4  5  1  6
  4  2  1  0
  6  4  1  0
  7  6  2  0
  8  9  1  0
  9 10  2  0
 10 11  1  0
 12 11  2  0
 12 13  1  0
 14 13  1  6
 14 15  1  0
 15  6  1  0
 16 14  1  0
 16 20  1  0
 17 16  2  0
 18 12  1  0
 19 18  2  0
 19  9  1  0
 21 22  1  6
 21 20  1  0
 21 29  1  0
 23 28  1  0
 23 22  1  0
 24 23  2  0
 25 26  2  0
 25 24  1  0
 26 27  1  0
 27 28  2  0
 29 30  1  0
 31 29  2  0
M  END
$$$$
