VYF.pdb
     RDKit          3D

 31 32  0  0  1  0  0  0  0  0999 V2000
    8.2814  -12.7979   21.9384 C   0  0  0  0  0  0  0  0  0  0  0  0
    7.5704  -13.6772   20.9484 C   0  0  1  0  0  0  0  0  0  0  0  0
    7.2506  -12.9828   19.6652 C   0  0  0  0  0  0  0  0  0  0  0  0
    8.3197  -14.9468   20.6501 C   0  0  2  0  0  0  0  0  0  0  0  0
    7.6805  -15.6166   19.5623 N   0  0  0  0  0  0  0  0  0  0  0  0
    8.4820  -15.8330   21.7986 C   0  0  0  0  0  0  0  0  0  0  0  0
    7.6249  -16.6637   22.1957 O   0  0  0  0  0  0  0  0  0  0  0  0
   10.7628  -21.1424   18.9415 O   0  0  0  0  0  0  0  0  0  0  0  0
   10.8864  -20.2411   19.9945 C   0  0  0  0  0  0  0  0  0  0  0  0
   11.4366  -19.0000   19.7915 C   0  0  0  0  0  0  0  0  0  0  0  0
   11.5577  -18.1066   20.8403 C   0  0  0  0  0  0  0  0  0  0  0  0
   11.1407  -18.4063   22.1247 C   0  0  0  0  0  0  0  0  0  0  0  0
   11.2663  -17.4953   23.2666 C   0  0  0  0  0  0  0  0  0  0  0  0
   10.0435  -16.6962   23.5988 C   0  0  2  0  0  0  0  0  0  0  0  0
    9.6938  -15.7678   22.5383 N   0  0  0  0  0  0  0  0  0  0  0  0
   10.2986  -15.9152   24.8253 C   0  0  0  0  0  0  0  0  0  0  0  0
   11.0559  -14.9047   24.8846 O   0  0  0  0  0  0  0  0  0  0  0  0
   10.5909  -19.6539   22.3161 C   0  0  0  0  0  0  0  0  0  0  0  0
   10.4627  -20.5649   21.2659 C   0  0  0  0  0  0  0  0  0  0  0  0
    9.6796  -16.2762   26.0508 N   0  0  0  0  0  0  0  0  0  0  0  0
   10.0138  -15.6333   27.3325 C   0  0  1  0  0  0  0  0  0  0  0  0
    8.7018  -15.1942   27.9316 C   0  0  0  0  0  0  0  0  0  0  0  0
    8.1678  -13.9920   27.2639 C   0  0  0  0  0  0  0  0  0  0  0  0
    7.0250  -14.0221   26.4960 C   0  0  0  0  0  0  0  0  0  0  0  0
    6.5146  -12.8940   25.8694 C   0  0  0  0  0  0  0  0  0  0  0  0
    7.1480  -11.6770   25.9967 C   0  0  0  0  0  0  0  0  0  0  0  0
    8.2948  -11.6319   26.7634 C   0  0  0  0  0  0  0  0  0  0  0  0
    8.8010  -12.7500   27.3847 C   0  0  0  0  0  0  0  0  0  0  0  0
   10.6986  -16.5818   28.2005 C   0  0  0  0  0  0  0  0  0  0  0  0
   10.9164  -17.8838   27.7697 O   0  0  0  0  0  0  0  0  0  0  0  0
   11.0863  -16.2011   29.3450 O   0  0  0  0  0  0  0  0  0  0  0  0
  2  1  1  1
  3  2  1  0
  4  5  1  6
  4  2  1  0
  6  4  1  0
  7  6  2  0
  8  9  1  0
  9 10  2  0
 10 11  1  0
 12 11  2  0
 12 13  1  0
 14 13  1  6
 14 15  1  0
 15  6  1  0
 16 14  1  0
 16 20  1  0
 17 16  2  0
 18 12  1  0
 19 18  2  0
 19  9  1  0
 21 22  1  1
 21 20  1  0
 21 29  1  0
 23 28  1  0
 23 22  1  0
 24 23  2  0
 25 26  2  0
 25 24  1  0
 26 27  1  0
 27 28  2  0
 29 30  1  0
 31 29  2  0
M  END
$$$$
