VYF.pdb
     RDKit          3D

 31 32  0  0  1  0  0  0  0  0999 V2000
    5.2967  -20.3890   22.9787 C   0  0  0  0  0  0  0  0  0  0  0  0
    6.4925  -19.4972   23.1621 C   0  0  1  0  0  0  0  0  0  0  0  0
    7.6116  -20.1549   23.9011 C   0  0  0  0  0  0  0  0  0  0  0  0
    7.0144  -18.9445   21.8642 C   0  0  2  0  0  0  0  0  0  0  0  0
    7.3341  -20.0311   20.9939 N   0  0  0  0  0  0  0  0  0  0  0  0
    8.1432  -18.0307   22.0107 C   0  0  0  0  0  0  0  0  0  0  0  0
    9.3501  -18.3417   21.8402 O   0  0  0  0  0  0  0  0  0  0  0  0
    7.6844  -13.4891   16.5367 O   0  0  0  0  0  0  0  0  0  0  0  0
    7.8789  -13.6965   17.8989 C   0  0  0  0  0  0  0  0  0  0  0  0
    8.6767  -14.7213   18.3432 C   0  0  0  0  0  0  0  0  0  0  0  0
    8.8678  -14.9244   19.6978 C   0  0  0  0  0  0  0  0  0  0  0  0
    8.2791  -14.1243   20.6604 C   0  0  0  0  0  0  0  0  0  0  0  0
    8.4422  -14.3157   22.1048 C   0  0  0  0  0  0  0  0  0  0  0  0
    8.9117  -15.6725   22.5323 C   0  0  2  0  0  0  0  0  0  0  0  0
    7.8799  -16.6819   22.3731 N   0  0  0  0  0  0  0  0  0  0  0  0
    9.2876  -15.6232   23.9591 C   0  0  0  0  0  0  0  0  0  0  0  0
   10.2826  -14.9903   24.4146 O   0  0  0  0  0  0  0  0  0  0  0  0
    7.4809  -13.1000   20.2028 C   0  0  0  0  0  0  0  0  0  0  0  0
    7.2799  -12.8841   18.8382 C   0  0  0  0  0  0  0  0  0  0  0  0
    8.5171  -16.3137   24.9311 N   0  0  0  0  0  0  0  0  0  0  0  0
    8.9019  -16.3840   26.3506 C   0  0  1  0  0  0  0  0  0  0  0  0
    7.7129  -15.8803   27.1288 C   0  0  0  0  0  0  0  0  0  0  0  0
    7.5672  -14.4161   27.0229 C   0  0  0  0  0  0  0  0  0  0  0  0
    6.3977  -13.8204   26.6058 C   0  0  0  0  0  0  0  0  0  0  0  0
    6.2523  -12.4438   26.5090 C   0  0  0  0  0  0  0  0  0  0  0  0
    7.2969  -11.6061   26.8339 C   0  0  0  0  0  0  0  0  0  0  0  0
    8.4754  -12.1893   27.2535 C   0  0  0  0  0  0  0  0  0  0  0  0
    8.6198  -13.5540   27.3497 C   0  0  0  0  0  0  0  0  0  0  0  0
    9.2240  -17.7583   26.7106 C   0  0  0  0  0  0  0  0  0  0  0  0
    9.6679  -18.0534   27.9929 O   0  0  0  0  0  0  0  0  0  0  0  0
    9.0946  -18.6699   25.8403 O   0  0  0  0  0  0  0  0  0  0  0  0
  2  1  1  6
  3  2  1  0
  4  5  1  6
  4  2  1  0
  6  4  1  0
  7  6  2  0
  8  9  1  0
  9 10  2  0
 10 11  1  0
 12 11  2  0
 12 13  1  0
 14 13  1  1
 14 15  1  0
 15  6  1  0
 16 14  1  0
 16 20  1  0
 17 16  2  0
 18 12  1  0
 19 18  2  0
 19  9  1  0
 21 22  1  1
 21 20  1  0
 21 29  1  0
 23 28  1  0
 23 22  1  0
 24 23  2  0
 25 26  2  0
 25 24  1  0
 26 27  1  0
 27 28  2  0
 29 30  1  0
 31 29  2  0
M  END
$$$$
