VYF.pdb
     RDKit          3D

 31 32  0  0  1  0  0  0  0  0999 V2000
    3.4972  -18.6164   21.9971 C   0  0  0  0  0  0  0  0  0  0  0  0
    4.8808  -18.1494   22.3528 C   0  0  1  0  0  0  0  0  0  0  0  0
    5.6375  -19.1286   23.1890 C   0  0  0  0  0  0  0  0  0  0  0  0
    5.7042  -17.7885   21.1469 C   0  0  2  0  0  0  0  0  0  0  0  0
    5.8111  -18.9339   20.3001 N   0  0  0  0  0  0  0  0  0  0  0  0
    7.0178  -17.2342   21.4600 C   0  0  0  0  0  0  0  0  0  0  0  0
    8.1086  -17.8479   21.3337 O   0  0  0  0  0  0  0  0  0  0  0  0
    8.6654  -13.3331   16.0941 O   0  0  0  0  0  0  0  0  0  0  0  0
    8.5809  -13.4481   17.4783 C   0  0  0  0  0  0  0  0  0  0  0  0
    7.6927  -12.6815   18.1907 C   0  0  0  0  0  0  0  0  0  0  0  0
    7.6113  -12.7985   19.5663 C   0  0  0  0  0  0  0  0  0  0  0  0
    8.4026  -13.6751   20.2865 C   0  0  0  0  0  0  0  0  0  0  0  0
    8.3596  -13.8177   21.7450 C   0  0  0  0  0  0  0  0  0  0  0  0
    8.3374  -15.2240   22.2608 C   0  0  2  0  0  0  0  0  0  0  0  0
    7.0917  -15.9008   21.9461 N   0  0  0  0  0  0  0  0  0  0  0  0
    8.4867  -15.1994   23.7293 C   0  0  0  0  0  0  0  0  0  0  0  0
    8.5712  -14.1451   24.4216 O   0  0  0  0  0  0  0  0  0  0  0  0
    9.2898  -14.4385   19.5613 C   0  0  0  0  0  0  0  0  0  0  0  0
    9.3818  -14.3301   18.1724 C   0  0  0  0  0  0  0  0  0  0  0  0
    8.5453  -16.4105   24.4677 N   0  0  0  0  0  0  0  0  0  0  0  0
    8.5238  -16.4488   25.9394 C   0  0  1  0  0  0  0  0  0  0  0  0
    7.1915  -15.8756   26.3506 C   0  0  0  0  0  0  0  0  0  0  0  0
    7.2589  -14.4151   26.5473 C   0  0  0  0  0  0  0  0  0  0  0  0
    8.4047  -13.7812   26.9735 C   0  0  0  0  0  0  0  0  0  0  0  0
    8.4764  -12.4074   27.1556 C   0  0  0  0  0  0  0  0  0  0  0  0
    7.3784  -11.6117   26.9108 C   0  0  0  0  0  0  0  0  0  0  0  0
    6.2227  -12.2335   26.4832 C   0  0  0  0  0  0  0  0  0  0  0  0
    6.1515  -13.5954   26.3025 C   0  0  0  0  0  0  0  0  0  0  0  0
    8.6728  -17.8219   26.4028 C   0  0  0  0  0  0  0  0  0  0  0  0
    8.9126  -18.0781   27.7464 O   0  0  0  0  0  0  0  0  0  0  0  0
    8.5823  -18.7682   25.5654 O   0  0  0  0  0  0  0  0  0  0  0  0
  2  1  1  6
  3  2  1  0
  4  5  1  6
  4  2  1  0
  6  4  1  0
  7  6  2  0
  8  9  1  0
  9 10  2  0
 10 11  1  0
 12 11  2  0
 12 13  1  0
 14 13  1  1
 14 15  1  0
 15  6  1  0
 16 14  1  0
 16 20  1  0
 17 16  2  0
 18 12  1  0
 19 18  2  0
 19  9  1  0
 21 22  1  6
 21 20  1  0
 21 29  1  0
 23 28  1  0
 23 22  1  0
 24 23  2  0
 25 26  2  0
 25 24  1  0
 26 27  1  0
 27 28  2  0
 29 30  1  0
 31 29  2  0
M  END
$$$$
