VYF.pdb
     RDKit          3D

 31 32  0  0  1  0  0  0  0  0999 V2000
    8.9342  -13.5630   17.8469 C   0  0  0  0  0  0  0  0  0  0  0  0
    8.4036  -13.8451   19.2245 C   0  0  1  0  0  0  0  0  0  0  0  0
    7.3284  -12.8988   19.6482 C   0  0  0  0  0  0  0  0  0  0  0  0
    7.9103  -15.2572   19.3833 C   0  0  2  0  0  0  0  0  0  0  0  0
    7.0361  -15.5668   18.2968 N   0  0  0  0  0  0  0  0  0  0  0  0
    7.2777  -15.5318   20.6697 C   0  0  0  0  0  0  0  0  0  0  0  0
    6.2656  -14.9343   21.1182 O   0  0  0  0  0  0  0  0  0  0  0  0
    1.9745  -18.8521   19.6710 O   0  0  0  0  0  0  0  0  0  0  0  0
    3.1326  -18.7078   20.4290 C   0  0  0  0  0  0  0  0  0  0  0  0
    4.3598  -19.0145   19.8961 C   0  0  0  0  0  0  0  0  0  0  0  0
    5.5087  -18.8697   20.6523 C   0  0  0  0  0  0  0  0  0  0  0  0
    5.4869  -18.4176   21.9593 C   0  0  0  0  0  0  0  0  0  0  0  0
    6.6786  -18.2660   22.7999 C   0  0  0  0  0  0  0  0  0  0  0  0
    7.3064  -16.9059   22.7993 C   0  0  2  0  0  0  0  0  0  0  0  0
    7.8322  -16.5484   21.4937 N   0  0  0  0  0  0  0  0  0  0  0  0
    8.4249  -16.8927   23.7626 C   0  0  0  0  0  0  0  0  0  0  0  0
    9.5379  -17.4614   23.5733 O   0  0  0  0  0  0  0  0  0  0  0  0
    4.2505  -18.1134   22.4830 C   0  0  0  0  0  0  0  0  0  0  0  0
    3.0832  -18.2550   21.7304 C   0  0  0  0  0  0  0  0  0  0  0  0
    8.3002  -16.2115   25.0019 N   0  0  0  0  0  0  0  0  0  0  0  0
    9.4034  -16.1126   25.9719 C   0  0  1  0  0  0  0  0  0  0  0  0
    9.6232  -14.6390   26.2024 C   0  0  0  0  0  0  0  0  0  0  0  0
    8.3834  -13.9574   26.6205 C   0  0  0  0  0  0  0  0  0  0  0  0
    7.4157  -13.5706   25.7202 C   0  0  0  0  0  0  0  0  0  0  0  0
    6.2452  -12.9339   26.1073 C   0  0  0  0  0  0  0  0  0  0  0  0
    6.0050  -12.6600   27.4361 C   0  0  0  0  0  0  0  0  0  0  0  0
    6.9665  -13.0418   28.3499 C   0  0  0  0  0  0  0  0  0  0  0  0
    8.1270  -13.6732   27.9664 C   0  0  0  0  0  0  0  0  0  0  0  0
    9.0400  -16.7913   27.2086 C   0  0  0  0  0  0  0  0  0  0  0  0
    9.9758  -16.9279   28.2255 O   0  0  0  0  0  0  0  0  0  0  0  0
    7.8667  -17.2517   27.3371 O   0  0  0  0  0  0  0  0  0  0  0  0
  2  1  1  6
  3  2  1  0
  4  5  1  6
  4  2  1  0
  6  4  1  0
  7  6  2  0
  8  9  1  0
  9 10  2  0
 10 11  1  0
 12 11  2  0
 12 13  1  0
 14 13  1  6
 14 15  1  0
 15  6  1  0
 16 14  1  0
 16 20  1  0
 17 16  2  0
 18 12  1  0
 19 18  2  0
 19  9  1  0
 21 22  1  1
 21 20  1  0
 21 29  1  0
 23 28  1  0
 23 22  1  0
 24 23  2  0
 25 26  2  0
 25 24  1  0
 26 27  1  0
 27 28  2  0
 29 30  1  0
 31 29  2  0
M  END
$$$$
