VYF.pdb
     RDKit          3D

 31 32  0  0  1  0  0  0  0  0999 V2000
    4.9653  -19.8894   22.7528 C   0  0  0  0  0  0  0  0  0  0  0  0
    6.2437  -19.1209   22.9372 C   0  0  1  0  0  0  0  0  0  0  0  0
    7.3417  -19.9368   23.5367 C   0  0  0  0  0  0  0  0  0  0  0  0
    6.7354  -18.4897   21.6635 C   0  0  2  0  0  0  0  0  0  0  0  0
    6.9192  -19.5110   20.6819 N   0  0  0  0  0  0  0  0  0  0  0  0
    7.9396  -17.6798   21.8200 C   0  0  0  0  0  0  0  0  0  0  0  0
    9.0937  -18.0253   21.4578 O   0  0  0  0  0  0  0  0  0  0  0  0
    7.7978  -13.2653   16.6200 O   0  0  0  0  0  0  0  0  0  0  0  0
    7.9951  -13.4603   17.9836 C   0  0  0  0  0  0  0  0  0  0  0  0
    9.2599  -13.4421   18.5167 C   0  0  0  0  0  0  0  0  0  0  0  0
    9.4524  -13.6361   19.8724 C   0  0  0  0  0  0  0  0  0  0  0  0
    8.4047  -13.8546   20.7487 C   0  0  0  0  0  0  0  0  0  0  0  0
    8.5666  -14.0812   22.1882 C   0  0  0  0  0  0  0  0  0  0  0  0
    8.9306  -15.4777   22.5899 C   0  0  2  0  0  0  0  0  0  0  0  0
    7.8206  -16.3995   22.4255 N   0  0  0  0  0  0  0  0  0  0  0  0
    9.3218  -15.4815   24.0135 C   0  0  0  0  0  0  0  0  0  0  0  0
   10.3330  -14.8822   24.4784 O   0  0  0  0  0  0  0  0  0  0  0  0
    7.1410  -13.8710   20.2026 C   0  0  0  0  0  0  0  0  0  0  0  0
    6.9330  -13.6764   18.8358 C   0  0  0  0  0  0  0  0  0  0  0  0
    8.5482  -16.1887   24.9710 N   0  0  0  0  0  0  0  0  0  0  0  0
    8.8699  -16.1955   26.4078 C   0  0  1  0  0  0  0  0  0  0  0  0
    7.6186  -15.7419   27.1159 C   0  0  0  0  0  0  0  0  0  0  0  0
    7.3768  -14.2981   26.9336 C   0  0  0  0  0  0  0  0  0  0  0  0
    8.2975  -13.3441   27.3062 C   0  0  0  0  0  0  0  0  0  0  0  0
    8.0786  -11.9849   27.1328 C   0  0  0  0  0  0  0  0  0  0  0  0
    6.9056  -11.5321   26.5691 C   0  0  0  0  0  0  0  0  0  0  0  0
    5.9733  -12.4772   26.1909 C   0  0  0  0  0  0  0  0  0  0  0  0
    6.1902  -13.8248   26.3626 C   0  0  0  0  0  0  0  0  0  0  0  0
    9.2545  -17.5374   26.8245 C   0  0  0  0  0  0  0  0  0  0  0  0
    9.2709  -18.5728   25.8993 O   0  0  0  0  0  0  0  0  0  0  0  0
    9.5689  -17.7405   28.0348 O   0  0  0  0  0  0  0  0  0  0  0  0
  2  1  1  6
  3  2  1  0
  4  5  1  6
  4  2  1  0
  6  4  1  0
  7  6  2  0
  8  9  1  0
  9 10  2  0
 10 11  1  0
 12 11  2  0
 12 13  1  0
 14 13  1  1
 14 15  1  0
 15  6  1  0
 16 14  1  0
 16 20  1  0
 17 16  2  0
 18 12  1  0
 19 18  2  0
 19  9  1  0
 21 22  1  1
 21 20  1  0
 21 29  1  0
 23 28  1  0
 23 22  1  0
 24 23  2  0
 25 26  2  0
 25 24  1  0
 26 27  1  0
 27 28  2  0
 29 30  1  0
 31 29  2  0
M  END
$$$$
