VYF.pdb
     RDKit          3D

 31 32  0  0  1  0  0  0  0  0999 V2000
    8.6263  -12.5421   19.0046 C   0  0  0  0  0  0  0  0  0  0  0  0
    8.5664  -13.3573   20.2658 C   0  0  1  0  0  0  0  0  0  0  0  0
    7.4845  -12.9221   21.1991 C   0  0  0  0  0  0  0  0  0  0  0  0
    8.4293  -14.8319   20.0030 C   0  0  2  0  0  0  0  0  0  0  0  0
    7.2850  -15.0501   19.1763 N   0  0  0  0  0  0  0  0  0  0  0  0
    8.3798  -15.6550   21.2075 C   0  0  0  0  0  0  0  0  0  0  0  0
    7.3343  -15.9313   21.8501 O   0  0  0  0  0  0  0  0  0  0  0  0
   11.3451  -21.2937   27.4361 O   0  0  0  0  0  0  0  0  0  0  0  0
   11.1471  -20.5424   26.2817 C   0  0  0  0  0  0  0  0  0  0  0  0
   12.1501  -19.7490   25.7832 C   0  0  0  0  0  0  0  0  0  0  0  0
   11.9499  -19.0037   24.6355 C   0  0  0  0  0  0  0  0  0  0  0  0
   10.7542  -19.0152   23.9403 C   0  0  0  0  0  0  0  0  0  0  0  0
   10.4955  -18.2280   22.7307 C   0  0  0  0  0  0  0  0  0  0  0  0
    9.6875  -16.9818   22.9260 C   0  0  2  0  0  0  0  0  0  0  0  0
    9.5950  -16.1953   21.7087 N   0  0  0  0  0  0  0  0  0  0  0  0
   10.3315  -16.1492   23.9611 C   0  0  0  0  0  0  0  0  0  0  0  0
   11.4836  -15.6401   23.8543 O   0  0  0  0  0  0  0  0  0  0  0  0
    9.7555  -19.8143   24.4498 C   0  0  0  0  0  0  0  0  0  0  0  0
    9.9448  -20.5716   25.6074 C   0  0  0  0  0  0  0  0  0  0  0  0
    9.6597  -15.8675   25.1796 N   0  0  0  0  0  0  0  0  0  0  0  0
   10.3697  -15.4856   26.4117 C   0  0  1  0  0  0  0  0  0  0  0  0
   10.1663  -13.9996   26.5649 C   0  0  0  0  0  0  0  0  0  0  0  0
    8.7759  -13.6024   26.2731 C   0  0  0  0  0  0  0  0  0  0  0  0
    8.3721  -13.2005   25.0193 C   0  0  0  0  0  0  0  0  0  0  0  0
    7.0648  -12.8306   24.7370 C   0  0  0  0  0  0  0  0  0  0  0  0
    6.1035  -12.8528   25.7238 C   0  0  0  0  0  0  0  0  0  0  0  0
    6.4939  -13.2535   26.9857 C   0  0  0  0  0  0  0  0  0  0  0  0
    7.7898  -13.6204   27.2658 C   0  0  0  0  0  0  0  0  0  0  0  0
    9.8198  -16.2130   27.5478 C   0  0  0  0  0  0  0  0  0  0  0  0
   10.4037  -16.0855   28.8012 O   0  0  0  0  0  0  0  0  0  0  0  0
    8.8102  -16.9580   27.3723 O   0  0  0  0  0  0  0  0  0  0  0  0
  2  1  1  6
  3  2  1  0
  4  5  1  1
  4  2  1  0
  6  4  1  0
  7  6  2  0
  8  9  1  0
  9 10  2  0
 10 11  1  0
 12 11  2  0
 12 13  1  0
 14 13  1  6
 14 15  1  0
 15  6  1  0
 16 14  1  0
 16 20  1  0
 17 16  2  0
 18 12  1  0
 19 18  2  0
 19  9  1  0
 21 22  1  1
 21 20  1  0
 21 29  1  0
 23 28  1  0
 23 22  1  0
 24 23  2  0
 25 26  2  0
 25 24  1  0
 26 27  1  0
 27 28  2  0
 29 30  1  0
 31 29  2  0
M  END
$$$$
