VYF.pdb
     RDKit          3D

 31 32  0  0  1  0  0  0  0  0999 V2000
    8.4704  -13.0854   21.2841 C   0  0  0  0  0  0  0  0  0  0  0  0
    7.6495  -13.7532   20.2168 C   0  0  1  0  0  0  0  0  0  0  0  0
    7.9331  -13.2367   18.8443 C   0  0  0  0  0  0  0  0  0  0  0  0
    7.7918  -15.2506   20.2208 C   0  0  2  0  0  0  0  0  0  0  0  0
    7.0572  -15.7880   19.1199 N   0  0  0  0  0  0  0  0  0  0  0  0
    7.4088  -15.8874   21.4771 C   0  0  0  0  0  0  0  0  0  0  0  0
    6.2347  -16.2084   21.7948 O   0  0  0  0  0  0  0  0  0  0  0  0
    7.2208  -21.3460   28.2290 O   0  0  0  0  0  0  0  0  0  0  0  0
    7.5497  -20.6079   27.0960 C   0  0  0  0  0  0  0  0  0  0  0  0
    8.8486  -20.2329   26.8585 C   0  0  0  0  0  0  0  0  0  0  0  0
    9.1718  -19.4996   25.7313 C   0  0  0  0  0  0  0  0  0  0  0  0
    8.2257  -19.1110   24.8001 C   0  0  0  0  0  0  0  0  0  0  0  0
    8.5235  -18.3198   23.6022 C   0  0  0  0  0  0  0  0  0  0  0  0
    8.1846  -16.8629   23.6841 C   0  0  2  0  0  0  0  0  0  0  0  0
    8.4252  -16.1754   22.4278 N   0  0  0  0  0  0  0  0  0  0  0  0
    9.0258  -16.2315   24.7200 C   0  0  0  0  0  0  0  0  0  0  0  0
   10.2244  -15.8700   24.5449 O   0  0  0  0  0  0  0  0  0  0  0  0
    6.9265  -19.4925   25.0491 C   0  0  0  0  0  0  0  0  0  0  0  0
    6.5870  -20.2330   26.1830 C   0  0  0  0  0  0  0  0  0  0  0  0
    8.5077  -15.9889   26.0193 N   0  0  0  0  0  0  0  0  0  0  0  0
    9.2947  -15.3446   27.0839 C   0  0  1  0  0  0  0  0  0  0  0  0
    8.3073  -14.5712   27.9203 C   0  0  0  0  0  0  0  0  0  0  0  0
    7.7187  -13.4436   27.1731 C   0  0  0  0  0  0  0  0  0  0  0  0
    8.4178  -12.2854   26.9156 C   0  0  0  0  0  0  0  0  0  0  0  0
    7.8719  -11.2232   26.2090 C   0  0  0  0  0  0  0  0  0  0  0  0
    6.5818  -11.2919   25.7297 C   0  0  0  0  0  0  0  0  0  0  0  0
    5.8689  -12.4470   25.9804 C   0  0  0  0  0  0  0  0  0  0  0  0
    6.4100  -13.5002   26.6809 C   0  0  0  0  0  0  0  0  0  0  0  0
    9.9793  -16.3565   27.8774 C   0  0  0  0  0  0  0  0  0  0  0  0
    9.7956  -17.7030   27.5919 O   0  0  0  0  0  0  0  0  0  0  0  0
   10.7363  -15.9890   28.8245 O   0  0  0  0  0  0  0  0  0  0  0  0
  2  1  1  1
  3  2  1  0
  4  5  1  6
  4  2  1  0
  6  4  1  0
  7  6  2  0
  8  9  1  0
  9 10  2  0
 10 11  1  0
 12 11  2  0
 12 13  1  0
 14 13  1  6
 14 15  1  0
 15  6  1  0
 16 14  1  0
 16 20  1  0
 17 16  2  0
 18 12  1  0
 19 18  2  0
 19  9  1  0
 21 22  1  1
 21 20  1  0
 21 29  1  0
 23 28  1  0
 23 22  1  0
 24 23  2  0
 25 26  2  0
 25 24  1  0
 26 27  1  0
 27 28  2  0
 29 30  1  0
 31 29  2  0
M  END
$$$$
