VYF.pdb
     RDKit          3D

 31 32  0  0  1  0  0  0  0  0999 V2000
    8.0548  -13.6193   22.2703 C   0  0  0  0  0  0  0  0  0  0  0  0
    7.4897  -14.8074   21.5438 C   0  0  1  0  0  0  0  0  0  0  0  0
    6.4742  -14.4401   20.5118 C   0  0  0  0  0  0  0  0  0  0  0  0
    8.5510  -15.6644   20.9101 C   0  0  2  0  0  0  0  0  0  0  0  0
    7.9277  -16.5852   20.0134 N   0  0  0  0  0  0  0  0  0  0  0  0
    9.4158  -16.3532   21.8632 C   0  0  0  0  0  0  0  0  0  0  0  0
    9.2602  -17.5393   22.2523 O   0  0  0  0  0  0  0  0  0  0  0  0
   17.5648  -17.9299   25.1529 O   0  0  0  0  0  0  0  0  0  0  0  0
   16.4175  -17.3502   24.6197 C   0  0  0  0  0  0  0  0  0  0  0  0
   15.6121  -18.0557   23.7608 C   0  0  0  0  0  0  0  0  0  0  0  0
   14.4725  -17.4764   23.2328 C   0  0  0  0  0  0  0  0  0  0  0  0
   14.0883  -16.1821   23.5336 C   0  0  0  0  0  0  0  0  0  0  0  0
   12.8985  -15.5257   22.9831 C   0  0  0  0  0  0  0  0  0  0  0  0
   11.6140  -16.2837   23.1230 C   0  0  2  0  0  0  0  0  0  0  0  0
   10.5240  -15.6473   22.4048 N   0  0  0  0  0  0  0  0  0  0  0  0
   11.2462  -16.3461   24.5514 C   0  0  0  0  0  0  0  0  0  0  0  0
   11.9646  -16.8659   25.4523 O   0  0  0  0  0  0  0  0  0  0  0  0
   14.9040  -15.4843   24.3958 C   0  0  0  0  0  0  0  0  0  0  0  0
   16.0569  -16.0574   24.9357 C   0  0  0  0  0  0  0  0  0  0  0  0
   10.0150  -15.8020   25.0026 N   0  0  0  0  0  0  0  0  0  0  0  0
    9.5903  -15.8513   26.4115 C   0  0  1  0  0  0  0  0  0  0  0  0
    8.0916  -15.6871   26.3996 C   0  0  0  0  0  0  0  0  0  0  0  0
    7.6949  -14.2690   26.3112 C   0  0  0  0  0  0  0  0  0  0  0  0
    8.5326  -13.2445   26.6922 C   0  0  0  0  0  0  0  0  0  0  0  0
    8.1677  -11.9084   26.6067 C   0  0  0  0  0  0  0  0  0  0  0  0
    6.9261  -11.5523   26.1270 C   0  0  0  0  0  0  0  0  0  0  0  0
    6.0756  -12.5689   25.7415 C   0  0  0  0  0  0  0  0  0  0  0  0
    6.4373  -13.8935   25.8260 C   0  0  0  0  0  0  0  0  0  0  0  0
    9.9765  -17.1255   27.0026 C   0  0  0  0  0  0  0  0  0  0  0  0
   10.5989  -18.0914   26.2229 O   0  0  0  0  0  0  0  0  0  0  0  0
    9.7346  -17.3346   28.2285 O   0  0  0  0  0  0  0  0  0  0  0  0
  2  1  1  6
  3  2  1  0
  4  5  1  1
  4  2  1  0
  6  4  1  0
  7  6  2  0
  8  9  1  0
  9 10  2  0
 10 11  1  0
 12 11  2  0
 12 13  1  0
 14 13  1  1
 14 15  1  0
 15  6  1  0
 16 14  1  0
 16 20  1  0
 17 16  2  0
 18 12  1  0
 19 18  2  0
 19  9  1  0
 21 22  1  6
 21 20  1  0
 21 29  1  0
 23 28  1  0
 23 22  1  0
 24 23  2  0
 25 26  2  0
 25 24  1  0
 26 27  1  0
 27 28  2  0
 29 30  1  0
 31 29  2  0
M  END
$$$$
