VYF.pdb
     RDKit          3D

 31 32  0  0  1  0  0  0  0  0999 V2000
    5.9750  -20.4763   22.0366 C   0  0  0  0  0  0  0  0  0  0  0  0
    7.1378  -19.5797   22.3576 C   0  0  1  0  0  0  0  0  0  0  0  0
    8.3246  -20.3180   22.8844 C   0  0  0  0  0  0  0  0  0  0  0  0
    7.5615  -18.7310   21.1904 C   0  0  2  0  0  0  0  0  0  0  0  0
    7.9343  -19.5856   20.1081 N   0  0  0  0  0  0  0  0  0  0  0  0
    8.6168  -17.7705   21.4973 C   0  0  0  0  0  0  0  0  0  0  0  0
    9.8382  -17.9355   21.2455 O   0  0  0  0  0  0  0  0  0  0  0  0
    7.8991  -13.3107   16.4816 O   0  0  0  0  0  0  0  0  0  0  0  0
    8.0737  -13.5097   17.8478 C   0  0  0  0  0  0  0  0  0  0  0  0
    7.2858  -12.8488   18.7569 C   0  0  0  0  0  0  0  0  0  0  0  0
    7.4620  -13.0490   20.1140 C   0  0  0  0  0  0  0  0  0  0  0  0
    8.4208  -13.9075   20.6209 C   0  0  0  0  0  0  0  0  0  0  0  0
    8.6512  -14.1352   22.0509 C   0  0  0  0  0  0  0  0  0  0  0  0
    9.1993  -15.4809   22.4152 C   0  0  2  0  0  0  0  0  0  0  0  0
    8.2579  -16.5490   22.1290 N   0  0  0  0  0  0  0  0  0  0  0  0
    9.4924  -15.5045   23.8619 C   0  0  0  0  0  0  0  0  0  0  0  0
   10.4373  -14.8685   24.4102 O   0  0  0  0  0  0  0  0  0  0  0  0
    9.2052  -14.5644   19.6997 C   0  0  0  0  0  0  0  0  0  0  0  0
    9.0375  -14.3713   18.3272 C   0  0  0  0  0  0  0  0  0  0  0  0
    8.6932  -16.2758   24.7462 N   0  0  0  0  0  0  0  0  0  0  0  0
    8.9172  -16.3074   26.2011 C   0  0  1  0  0  0  0  0  0  0  0  0
    7.6031  -15.9229   26.8322 C   0  0  0  0  0  0  0  0  0  0  0  0
    7.3544  -14.4715   26.7427 C   0  0  0  0  0  0  0  0  0  0  0  0
    8.3057  -13.5382   27.0898 C   0  0  0  0  0  0  0  0  0  0  0  0
    8.0801  -12.1718   27.0031 C   0  0  0  0  0  0  0  0  0  0  0  0
    6.8687  -11.6903   26.5567 C   0  0  0  0  0  0  0  0  0  0  0  0
    5.9054  -12.6144   26.2054 C   0  0  0  0  0  0  0  0  0  0  0  0
    6.1289  -13.9691   26.2912 C   0  0  0  0  0  0  0  0  0  0  0  0
    9.3284  -17.6432   26.6116 C   0  0  0  0  0  0  0  0  0  0  0  0
    9.4091  -18.6631   25.6727 O   0  0  0  0  0  0  0  0  0  0  0  0
    9.6065  -17.8554   27.8293 O   0  0  0  0  0  0  0  0  0  0  0  0
  2  1  1  6
  3  2  1  0
  4  5  1  6
  4  2  1  0
  6  4  1  0
  7  6  2  0
  8  9  1  0
  9 10  2  0
 10 11  1  0
 12 11  2  0
 12 13  1  0
 14 13  1  1
 14 15  1  0
 15  6  1  0
 16 14  1  0
 16 20  1  0
 17 16  2  0
 18 12  1  0
 19 18  2  0
 19  9  1  0
 21 22  1  1
 21 20  1  0
 21 29  1  0
 23 28  1  0
 23 22  1  0
 24 23  2  0
 25 26  2  0
 25 24  1  0
 26 27  1  0
 27 28  2  0
 29 30  1  0
 31 29  2  0
M  END
$$$$
