VYF.pdb
     RDKit          3D

 31 32  0  0  1  0  0  0  0  0999 V2000
    8.1656  -12.6997   21.4069 C   0  0  0  0  0  0  0  0  0  0  0  0
    7.5070  -13.2917   20.1925 C   0  0  1  0  0  0  0  0  0  0  0  0
    7.4253  -12.3415   19.0430 C   0  0  0  0  0  0  0  0  0  0  0  0
    8.1618  -14.5662   19.7349 C   0  0  2  0  0  0  0  0  0  0  0  0
    7.5318  -15.0031   18.5296 N   0  0  0  0  0  0  0  0  0  0  0  0
    8.1817  -15.6258   20.7387 C   0  0  0  0  0  0  0  0  0  0  0  0
    7.1979  -16.3466   21.0466 O   0  0  0  0  0  0  0  0  0  0  0  0
   11.1954  -22.1969   25.7530 O   0  0  0  0  0  0  0  0  0  0  0  0
   11.0790  -21.1253   24.8729 C   0  0  0  0  0  0  0  0  0  0  0  0
   11.9575  -20.0723   24.9333 C   0  0  0  0  0  0  0  0  0  0  0  0
   11.8389  -19.0090   24.0569 C   0  0  0  0  0  0  0  0  0  0  0  0
   10.8504  -18.9474   23.0914 C   0  0  0  0  0  0  0  0  0  0  0  0
   10.6797  -17.8320   22.1553 C   0  0  0  0  0  0  0  0  0  0  0  0
    9.5452  -16.9003   22.4535 C   0  0  2  0  0  0  0  0  0  0  0  0
    9.3960  -15.8782   21.4327 N   0  0  0  0  0  0  0  0  0  0  0  0
    9.8029  -16.2266   23.7416 C   0  0  0  0  0  0  0  0  0  0  0  0
   10.7264  -15.3857   23.9363 O   0  0  0  0  0  0  0  0  0  0  0  0
    9.9750  -20.0089   23.0406 C   0  0  0  0  0  0  0  0  0  0  0  0
   10.0838  -21.0884   23.9193 C   0  0  0  0  0  0  0  0  0  0  0  0
    8.9913  -16.5021   24.8734 N   0  0  0  0  0  0  0  0  0  0  0  0
    9.2595  -15.9325   26.2043 C   0  0  1  0  0  0  0  0  0  0  0  0
    7.9217  -15.4994   26.7482 C   0  0  0  0  0  0  0  0  0  0  0  0
    7.5459  -14.1535   26.2753 C   0  0  0  0  0  0  0  0  0  0  0  0
    7.7187  -13.0264   27.0475 C   0  0  0  0  0  0  0  0  0  0  0  0
    7.3722  -11.7571   26.6068 C   0  0  0  0  0  0  0  0  0  0  0  0
    6.8307  -11.5761   25.3527 C   0  0  0  0  0  0  0  0  0  0  0  0
    6.6516  -12.6972   24.5676 C   0  0  0  0  0  0  0  0  0  0  0  0
    6.9952  -13.9557   25.0042 C   0  0  0  0  0  0  0  0  0  0  0  0
    9.8761  -16.9375   27.0598 C   0  0  0  0  0  0  0  0  0  0  0  0
   10.4842  -16.5573   28.2490 O   0  0  0  0  0  0  0  0  0  0  0  0
    9.8493  -18.1523   26.7014 O   0  0  0  0  0  0  0  0  0  0  0  0
  2  1  1  1
  3  2  1  0
  4  5  1  6
  4  2  1  0
  6  4  1  0
  7  6  2  0
  8  9  1  0
  9 10  2  0
 10 11  1  0
 12 11  2  0
 12 13  1  0
 14 13  1  6
 14 15  1  0
 15  6  1  0
 16 14  1  0
 16 20  1  0
 17 16  2  0
 18 12  1  0
 19 18  2  0
 19  9  1  0
 21 22  1  1
 21 20  1  0
 21 29  1  0
 23 28  1  0
 23 22  1  0
 24 23  2  0
 25 26  2  0
 25 24  1  0
 26 27  1  0
 27 28  2  0
 29 30  1  0
 31 29  2  0
M  END
$$$$
