NFP.pdb
     RDKit          3D

 27 28  0  0  1  0  0  0  0  0999 V2000
   11.4019  -19.8150   19.0825 N   0  0  0  0  0  0  0  0  0  0  0  0
   10.4423  -19.5680   20.0833 C   0  0  0  0  0  0  0  0  0  0  0  0
    9.3327  -20.1486   20.0364 O   0  0  0  0  0  0  0  0  0  0  0  0
   10.6777  -18.6329   21.2220 C   0  0  0  0  0  0  0  0  0  0  0  0
    9.9326  -17.3627   20.9117 C   0  0  2  0  0  0  0  0  0  0  0  0
   10.5554  -16.7109   19.7922 N   0  0  0  0  0  0  0  0  0  0  0  0
    9.8222  -16.4658   22.0917 C   0  0  0  0  0  0  0  0  0  0  0  0
   10.8741  -15.8694   22.4522 O   0  0  0  0  0  0  0  0  0  0  0  0
    8.6032  -16.2837   22.7822 N   0  0  0  0  0  0  0  0  0  0  0  0
    8.5875  -15.4312   23.9570 C   0  0  1  0  0  0  0  0  0  0  0  0
    7.2122  -14.7800   23.9498 C   0  0  0  0  0  0  0  0  0  0  0  0
    7.1061  -13.8893   25.1335 C   0  0  0  0  0  0  0  0  0  0  0  0
    6.5842  -14.3397   26.3379 C   0  0  0  0  0  0  0  0  0  0  0  0
    6.4879  -13.5000   27.4424 C   0  0  0  0  0  0  0  0  0  0  0  0
    6.9144  -12.1876   27.3605 C   0  0  0  0  0  0  0  0  0  0  0  0
    7.4354  -11.7218   26.1737 C   0  0  0  0  0  0  0  0  0  0  0  0
    7.5211  -12.5667   25.0976 C   0  0  0  0  0  0  0  0  0  0  0  0
    8.8219  -16.1981   25.1962 C   0  0  0  0  0  0  0  0  0  0  0  0
    8.2618  -17.3464   25.2412 O   0  0  0  0  0  0  0  0  0  0  0  0
    9.5793  -15.8034   26.3002 N   0  0  0  0  0  0  0  0  0  0  0  0
    9.7215  -14.4024   26.7425 C   0  0  0  0  0  0  0  0  0  0  0  0
   11.2530  -14.3068   26.7715 C   0  0  0  0  0  0  0  0  0  0  0  0
   11.6208  -15.6490   27.3679 C   0  0  0  0  0  0  0  0  0  0  0  0
   10.3877  -16.5208   27.2635 C   0  0  1  0  0  0  0  0  0  0  0  0
    9.6786  -16.6520   28.5716 C   0  0  0  0  0  0  0  0  0  0  0  0
   10.1117  -17.4052   29.4725 O   0  0  0  0  0  0  0  0  0  0  0  0
    8.5195  -15.9379   28.8154 O   0  0  0  0  0  0  0  0  0  0  0  0
  2  1  1  0
  3  2  2  0
  4  2  1  0
  5  4  1  0
  5  6  1  6
  7  5  1  0
  7  8  2  0
  9  7  1  0
 10  9  1  0
 10 11  1  1
 11 12  1  0
 12 13  2  0
 12 17  1  0
 13 14  1  0
 14 15  2  0
 16 15  1  0
 17 16  2  0
 18 10  1  0
 19 18  2  0
 20 18  1  0
 20 24  1  0
 21 22  1  0
 21 20  1  0
 22 23  1  0
 23 24  1  0
 24 25  1  1
 25 27  1  0
 26 25  2  0
M  END
$$$$
