NFP.pdb
     RDKit          3D

 27 28  0  0  1  0  0  0  0  0999 V2000
   11.0480  -19.2612   20.0224 N   0  0  0  0  0  0  0  0  0  0  0  0
   11.6348  -17.9854   19.9171 C   0  0  0  0  0  0  0  0  0  0  0  0
   12.2144  -17.6541   18.8566 O   0  0  0  0  0  0  0  0  0  0  0  0
   11.6047  -16.9832   21.0223 C   0  0  0  0  0  0  0  0  0  0  0  0
   10.1619  -16.7911   21.4050 C   0  0  2  0  0  0  0  0  0  0  0  0
    9.4473  -16.2335   20.2894 N   0  0  0  0  0  0  0  0  0  0  0  0
   10.0046  -15.9734   22.6361 C   0  0  0  0  0  0  0  0  0  0  0  0
   10.9660  -15.2153   22.9412 O   0  0  0  0  0  0  0  0  0  0  0  0
    8.8391  -16.0355   23.4322 N   0  0  0  0  0  0  0  0  0  0  0  0
    8.8571  -15.4160   24.7448 C   0  0  1  0  0  0  0  0  0  0  0  0
    7.4112  -15.4579   25.2174 C   0  0  0  0  0  0  0  0  0  0  0  0
    6.9821  -14.0745   25.5456 C   0  0  0  0  0  0  0  0  0  0  0  0
    5.8498  -13.8261   26.3085 C   0  0  0  0  0  0  0  0  0  0  0  0
    5.4538  -12.5279   26.6120 C   0  0  0  0  0  0  0  0  0  0  0  0
    6.1881  -11.4495   26.1549 C   0  0  0  0  0  0  0  0  0  0  0  0
    7.3151  -11.6754   25.3962 C   0  0  0  0  0  0  0  0  0  0  0  0
    7.6872  -12.9632   25.1089 C   0  0  0  0  0  0  0  0  0  0  0  0
    9.7564  -16.1255   25.6756 C   0  0  0  0  0  0  0  0  0  0  0  0
   10.4030  -17.1051   25.1691 O   0  0  0  0  0  0  0  0  0  0  0  0
    9.9679  -15.8388   27.0252 N   0  0  0  0  0  0  0  0  0  0  0  0
    9.1014  -14.9494   27.8234 C   0  0  0  0  0  0  0  0  0  0  0  0
   10.1670  -13.9856   28.3629 C   0  0  0  0  0  0  0  0  0  0  0  0
   11.2919  -14.9441   28.6921 C   0  0  0  0  0  0  0  0  0  0  0  0
   10.9721  -16.2444   27.9860 C   0  0  1  0  0  0  0  0  0  0  0  0
   10.4363  -17.2770   28.9230 C   0  0  0  0  0  0  0  0  0  0  0  0
    9.2110  -17.5243   28.9852 O   0  0  0  0  0  0  0  0  0  0  0  0
   11.2908  -17.9862   29.7475 O   0  0  0  0  0  0  0  0  0  0  0  0
  2  1  1  0
  3  2  2  0
  4  2  1  0
  5  4  1  0
  5  6  1  6
  7  5  1  0
  7  8  2  0
  9  7  1  0
 10  9  1  0
 10 11  1  1
 11 12  1  0
 12 13  2  0
 12 17  1  0
 13 14  1  0
 14 15  2  0
 16 15  1  0
 17 16  2  0
 18 10  1  0
 19 18  2  0
 20 18  1  0
 20 24  1  0
 21 22  1  0
 21 20  1  0
 22 23  1  0
 23 24  1  0
 24 25  1  1
 25 27  1  0
 26 25  2  0
M  END
$$$$
