NFP.pdb
     RDKit          3D

 27 28  0  0  1  0  0  0  0  0999 V2000
    2.7690  -21.8315   21.4269 N   0  0  0  0  0  0  0  0  0  0  0  0
    3.8763  -20.9759   21.2683 C   0  0  0  0  0  0  0  0  0  0  0  0
    4.8686  -21.3609   20.6067 O   0  0  0  0  0  0  0  0  0  0  0  0
    3.9359  -19.6060   21.8569 C   0  0  0  0  0  0  0  0  0  0  0  0
    5.2611  -19.4846   22.5597 C   0  0  2  0  0  0  0  0  0  0  0  0
    5.2674  -20.3479   23.7090 N   0  0  0  0  0  0  0  0  0  0  0  0
    5.5902  -18.0790   22.9131 C   0  0  0  0  0  0  0  0  0  0  0  0
    5.4429  -17.2156   22.0050 O   0  0  0  0  0  0  0  0  0  0  0  0
    6.0465  -17.7179   24.2006 N   0  0  0  0  0  0  0  0  0  0  0  0
    6.5642  -16.3776   24.4067 C   0  0  1  0  0  0  0  0  0  0  0  0
    6.5221  -16.1690   25.9135 C   0  0  0  0  0  0  0  0  0  0  0  0
    6.8879  -14.7594   26.2048 C   0  0  0  0  0  0  0  0  0  0  0  0
    5.9214  -13.7859   26.4145 C   0  0  0  0  0  0  0  0  0  0  0  0
    6.2711  -12.4676   26.6868 C   0  0  0  0  0  0  0  0  0  0  0  0
    7.6016  -12.0984   26.7543 C   0  0  0  0  0  0  0  0  0  0  0  0
    8.5757  -13.0502   26.5491 C   0  0  0  0  0  0  0  0  0  0  0  0
    8.2085  -14.3437   26.2820 C   0  0  0  0  0  0  0  0  0  0  0  0
    7.9322  -16.2283   23.8730 C   0  0  0  0  0  0  0  0  0  0  0  0
    8.7128  -17.2176   24.0885 O   0  0  0  0  0  0  0  0  0  0  0  0
    8.4476  -15.1382   23.1700 N   0  0  0  0  0  0  0  0  0  0  0  0
    7.9985  -13.7457   23.3656 C   0  0  0  0  0  0  0  0  0  0  0  0
    7.6531  -13.3913   21.9129 C   0  0  0  0  0  0  0  0  0  0  0  0
    8.8021  -14.0398   21.1701 C   0  0  0  0  0  0  0  0  0  0  0  0
    9.4553  -15.0016   22.1394 C   0  0  1  0  0  0  0  0  0  0  0  0
   10.7292  -14.4583   22.6992 C   0  0  0  0  0  0  0  0  0  0  0  0
   11.7443  -14.3135   21.9816 O   0  0  0  0  0  0  0  0  0  0  0  0
   10.8130  -14.1016   24.0329 O   0  0  0  0  0  0  0  0  0  0  0  0
  2  1  1  0
  3  2  2  0
  4  2  1  0
  5  4  1  0
  5  6  1  1
  7  5  1  0
  7  8  2  0
  9  7  1  0
 10  9  1  0
 10 11  1  1
 11 12  1  0
 12 13  2  0
 12 17  1  0
 13 14  1  0
 14 15  2  0
 16 15  1  0
 17 16  2  0
 18 10  1  0
 19 18  2  0
 20 18  1  0
 20 24  1  0
 21 22  1  0
 21 20  1  0
 22 23  1  0
 23 24  1  0
 24 25  1  1
 25 27  1  0
 26 25  2  0
M  END
$$$$
