NFP.pdb
     RDKit          3D

 27 28  0  0  1  0  0  0  0  0999 V2000
   10.9666  -16.4476   17.4873 N   0  0  0  0  0  0  0  0  0  0  0  0
   11.3695  -16.9253   18.7493 C   0  0  0  0  0  0  0  0  0  0  0  0
   11.6958  -18.1279   18.8828 O   0  0  0  0  0  0  0  0  0  0  0  0
   11.4312  -16.0607   19.9639 C   0  0  0  0  0  0  0  0  0  0  0  0
   10.8247  -16.8454   21.0958 C   0  0  2  0  0  0  0  0  0  0  0  0
    9.6816  -17.5688   20.6102 N   0  0  0  0  0  0  0  0  0  0  0  0
   10.4914  -15.9907   22.2652 C   0  0  0  0  0  0  0  0  0  0  0  0
   11.4097  -15.2447   22.7036 O   0  0  0  0  0  0  0  0  0  0  0  0
    9.2114  -16.0061   22.8632 N   0  0  0  0  0  0  0  0  0  0  0  0
    9.0209  -15.3081   24.1215 C   0  0  1  0  0  0  0  0  0  0  0  0
    7.5183  -15.0911   24.2253 C   0  0  0  0  0  0  0  0  0  0  0  0
    7.2692  -13.9470   25.1389 C   0  0  0  0  0  0  0  0  0  0  0  0
    6.5485  -14.0993   26.3150 C   0  0  0  0  0  0  0  0  0  0  0  0
    6.3190  -13.0235   27.1661 C   0  0  0  0  0  0  0  0  0  0  0  0
    6.8094  -11.7694   26.8532 C   0  0  0  0  0  0  0  0  0  0  0  0
    7.5271  -11.5980   25.6903 C   0  0  0  0  0  0  0  0  0  0  0  0
    7.7415  -12.6722   24.8660 C   0  0  0  0  0  0  0  0  0  0  0  0
    9.5407  -16.0836   25.2648 C   0  0  0  0  0  0  0  0  0  0  0  0
    9.7478  -17.3238   25.0336 O   0  0  0  0  0  0  0  0  0  0  0  0
    9.8239  -15.6078   26.5461 N   0  0  0  0  0  0  0  0  0  0  0  0
    9.2801  -14.3506   27.0961 C   0  0  0  0  0  0  0  0  0  0  0  0
   10.5934  -13.6758   27.5149 C   0  0  0  0  0  0  0  0  0  0  0  0
   11.3533  -14.8474   28.1000 C   0  0  0  0  0  0  0  0  0  0  0  0
   10.6413  -16.0998   27.6351 C   0  0  1  0  0  0  0  0  0  0  0  0
    9.7994  -16.7016   28.7122 C   0  0  0  0  0  0  0  0  0  0  0  0
    8.5506  -16.6245   28.6799 O   0  0  0  0  0  0  0  0  0  0  0  0
   10.3879  -17.3615   29.7758 O   0  0  0  0  0  0  0  0  0  0  0  0
  2  1  1  0
  3  2  2  0
  4  2  1  0
  5  4  1  0
  5  6  1  6
  7  5  1  0
  7  8  2  0
  9  7  1  0
 10  9  1  0
 10 11  1  1
 11 12  1  0
 12 13  2  0
 12 17  1  0
 13 14  1  0
 14 15  2  0
 16 15  1  0
 17 16  2  0
 18 10  1  0
 19 18  2  0
 20 18  1  0
 20 24  1  0
 21 22  1  0
 21 20  1  0
 22 23  1  0
 23 24  1  0
 24 25  1  1
 25 27  1  0
 26 25  2  0
M  END
$$$$
