NFP.pdb
     RDKit          3D

 27 28  0  0  1  0  0  0  0  0999 V2000
   12.2551  -17.0737   17.9050 N   0  0  0  0  0  0  0  0  0  0  0  0
   12.3311  -17.2920   19.2942 C   0  0  0  0  0  0  0  0  0  0  0  0
   12.7826  -18.3775   19.7283 O   0  0  0  0  0  0  0  0  0  0  0  0
   11.8946  -16.2808   20.3010 C   0  0  0  0  0  0  0  0  0  0  0  0
   11.0440  -17.0023   21.3114 C   0  0  2  0  0  0  0  0  0  0  0  0
    9.8917  -17.5531   20.6520 N   0  0  0  0  0  0  0  0  0  0  0  0
   10.6715  -16.1378   22.4615 C   0  0  0  0  0  0  0  0  0  0  0  0
   11.6126  -15.5357   23.0477 O   0  0  0  0  0  0  0  0  0  0  0  0
    9.3316  -15.9913   22.8848 N   0  0  0  0  0  0  0  0  0  0  0  0
    9.0603  -15.2313   24.0914 C   0  0  1  0  0  0  0  0  0  0  0  0
    7.6480  -14.6954   23.9074 C   0  0  0  0  0  0  0  0  0  0  0  0
    7.2948  -13.8790   25.0966 C   0  0  0  0  0  0  0  0  0  0  0  0
    7.6429  -12.5387   25.1879 C   0  0  0  0  0  0  0  0  0  0  0  0
    7.3090  -11.7800   26.3047 C   0  0  0  0  0  0  0  0  0  0  0  0
    6.6169  -12.3526   27.3556 C   0  0  0  0  0  0  0  0  0  0  0  0
    6.2624  -13.6815   27.2838 C   0  0  0  0  0  0  0  0  0  0  0  0
    6.6018  -14.4106   26.1736 C   0  0  0  0  0  0  0  0  0  0  0  0
    9.1740  -16.0652   25.3039 C   0  0  0  0  0  0  0  0  0  0  0  0
    8.8718  -17.2977   25.1486 O   0  0  0  0  0  0  0  0  0  0  0  0
    9.5715  -15.6515   26.5763 N   0  0  0  0  0  0  0  0  0  0  0  0
    9.1564  -14.3770   27.1946 C   0  0  0  0  0  0  0  0  0  0  0  0
   10.5391  -13.8106   27.5449 C   0  0  0  0  0  0  0  0  0  0  0  0
   11.2472  -15.0510   28.0472 C   0  0  0  0  0  0  0  0  0  0  0  0
   10.4181  -16.2345   27.5959 C   0  0  1  0  0  0  0  0  0  0  0  0
    9.6043  -16.8090   28.7091 C   0  0  0  0  0  0  0  0  0  0  0  0
   10.1430  -17.4212   29.6585 O   0  0  0  0  0  0  0  0  0  0  0  0
    8.2278  -16.6746   28.7128 O   0  0  0  0  0  0  0  0  0  0  0  0
  2  1  1  0
  3  2  2  0
  4  2  1  0
  5  4  1  0
  5  6  1  6
  7  5  1  0
  7  8  2  0
  9  7  1  0
 10  9  1  0
 10 11  1  6
 11 12  1  0
 12 13  2  0
 12 17  1  0
 13 14  1  0
 14 15  2  0
 16 15  1  0
 17 16  2  0
 18 10  1  0
 19 18  2  0
 20 18  1  0
 20 24  1  0
 21 22  1  0
 21 20  1  0
 22 23  1  0
 23 24  1  0
 24 25  1  1
 25 27  1  0
 26 25  2  0
M  END
$$$$
