NFP.pdb
     RDKit          3D

 27 28  0  0  1  0  0  0  0  0999 V2000
   13.2096  -19.5693   20.0096 N   0  0  0  0  0  0  0  0  0  0  0  0
   11.9831  -19.2441   20.6204 C   0  0  0  0  0  0  0  0  0  0  0  0
   10.9206  -19.7477   20.1867 O   0  0  0  0  0  0  0  0  0  0  0  0
   11.8748  -18.3128   21.7813 C   0  0  0  0  0  0  0  0  0  0  0  0
   11.1866  -17.0690   21.2870 C   0  0  2  0  0  0  0  0  0  0  0  0
   12.0291  -16.4135   20.3245 N   0  0  0  0  0  0  0  0  0  0  0  0
   10.7896  -16.1609   22.3945 C   0  0  0  0  0  0  0  0  0  0  0  0
   11.7216  -15.5700   23.0062 O   0  0  0  0  0  0  0  0  0  0  0  0
    9.4372  -15.9628   22.7520 N   0  0  0  0  0  0  0  0  0  0  0  0
    9.1353  -15.1531   23.9182 C   0  0  1  0  0  0  0  0  0  0  0  0
    7.7759  -14.5353   23.6249 C   0  0  0  0  0  0  0  0  0  0  0  0
    7.3777  -13.6989   24.7856 C   0  0  0  0  0  0  0  0  0  0  0  0
    6.6423  -14.2214   25.8401 C   0  0  0  0  0  0  0  0  0  0  0  0
    6.2727  -13.4322   26.9241 C   0  0  0  0  0  0  0  0  0  0  0  0
    6.6347  -12.0989   26.9720 C   0  0  0  0  0  0  0  0  0  0  0  0
    7.3647  -11.5617   25.9349 C   0  0  0  0  0  0  0  0  0  0  0  0
    7.7182  -12.3578   24.8763 C   0  0  0  0  0  0  0  0  0  0  0  0
    9.1138  -15.9574   25.1557 C   0  0  0  0  0  0  0  0  0  0  0  0
    8.6650  -17.1473   25.0251 O   0  0  0  0  0  0  0  0  0  0  0  0
    9.5272  -15.5573   26.4275 N   0  0  0  0  0  0  0  0  0  0  0  0
    9.2091  -14.2438   27.0211 C   0  0  0  0  0  0  0  0  0  0  0  0
   10.6286  -13.7860   27.3826 C   0  0  0  0  0  0  0  0  0  0  0  0
   11.2270  -15.0717   27.9129 C   0  0  0  0  0  0  0  0  0  0  0  0
   10.3103  -16.1909   27.4673 C   0  0  1  0  0  0  0  0  0  0  0  0
    9.4382  -16.6799   28.5771 C   0  0  0  0  0  0  0  0  0  0  0  0
    8.2123  -16.4289   28.5986 O   0  0  0  0  0  0  0  0  0  0  0  0
    9.9726  -17.4262   29.6118 O   0  0  0  0  0  0  0  0  0  0  0  0
  2  1  1  0
  3  2  2  0
  4  2  1  0
  5  4  1  0
  5  6  1  6
  7  5  1  0
  7  8  2  0
  9  7  1  0
 10  9  1  0
 10 11  1  6
 11 12  1  0
 12 13  2  0
 12 17  1  0
 13 14  1  0
 14 15  2  0
 16 15  1  0
 17 16  2  0
 18 10  1  0
 19 18  2  0
 20 18  1  0
 20 24  1  0
 21 22  1  0
 21 20  1  0
 22 23  1  0
 23 24  1  0
 24 25  1  1
 25 27  1  0
 26 25  2  0
M  END
$$$$
