NFP.pdb
     RDKit          3D

 27 28  0  0  1  0  0  0  0  0999 V2000
   12.3477  -20.1954   20.1478 N   0  0  0  0  0  0  0  0  0  0  0  0
   11.2150  -19.5229   20.6457 C   0  0  0  0  0  0  0  0  0  0  0  0
   10.0942  -19.7225   20.1217 O   0  0  0  0  0  0  0  0  0  0  0  0
   11.2755  -18.5644   21.7878 C   0  0  0  0  0  0  0  0  0  0  0  0
   10.7240  -17.2540   21.2943 C   0  0  2  0  0  0  0  0  0  0  0  0
   11.6128  -16.7100   20.3043 N   0  0  0  0  0  0  0  0  0  0  0  0
   10.4623  -16.2954   22.3995 C   0  0  0  0  0  0  0  0  0  0  0  0
   11.4705  -15.8322   23.0003 O   0  0  0  0  0  0  0  0  0  0  0  0
    9.1519  -15.9154   22.7665 N   0  0  0  0  0  0  0  0  0  0  0  0
    8.9674  -15.1108   23.9604 C   0  0  1  0  0  0  0  0  0  0  0  0
    7.6060  -14.4543   23.7838 C   0  0  0  0  0  0  0  0  0  0  0  0
    7.3550  -13.5685   24.9490 C   0  0  0  0  0  0  0  0  0  0  0  0
    6.6855  -14.0226   26.0766 C   0  0  0  0  0  0  0  0  0  0  0  0
    6.4538  -13.1875   27.1644 C   0  0  0  0  0  0  0  0  0  0  0  0
    6.8905  -11.8760   27.1426 C   0  0  0  0  0  0  0  0  0  0  0  0
    7.5569  -11.4065   26.0325 C   0  0  0  0  0  0  0  0  0  0  0  0
    7.7744  -12.2470   24.9715 C   0  0  0  0  0  0  0  0  0  0  0  0
    9.0242  -15.9278   25.1884 C   0  0  0  0  0  0  0  0  0  0  0  0
    8.5930  -17.1252   25.0673 O   0  0  0  0  0  0  0  0  0  0  0  0
    9.4931  -15.5323   26.4422 N   0  0  0  0  0  0  0  0  0  0  0  0
    9.2241  -14.2108   27.0423 C   0  0  0  0  0  0  0  0  0  0  0  0
   10.6651  -13.7806   27.3484 C   0  0  0  0  0  0  0  0  0  0  0  0
   11.2571  -15.0765   27.8607 C   0  0  0  0  0  0  0  0  0  0  0  0
   10.3020  -16.1784   27.4543 C   0  0  1  0  0  0  0  0  0  0  0  0
    9.4628  -16.6463   28.5979 C   0  0  0  0  0  0  0  0  0  0  0  0
    8.2571  -16.3244   28.6932 O   0  0  0  0  0  0  0  0  0  0  0  0
   10.0060  -17.4514   29.5827 O   0  0  0  0  0  0  0  0  0  0  0  0
  2  1  1  0
  3  2  2  0
  4  2  1  0
  5  4  1  0
  5  6  1  6
  7  5  1  0
  7  8  2  0
  9  7  1  0
 10  9  1  0
 10 11  1  6
 11 12  1  0
 12 13  2  0
 12 17  1  0
 13 14  1  0
 14 15  2  0
 16 15  1  0
 17 16  2  0
 18 10  1  0
 19 18  2  0
 20 18  1  0
 20 24  1  0
 21 22  1  0
 21 20  1  0
 22 23  1  0
 23 24  1  0
 24 25  1  1
 25 27  1  0
 26 25  2  0
M  END
$$$$
