NFP.pdb
     RDKit          3D

 27 28  0  0  1  0  0  0  0  0999 V2000
   10.1654  -20.4616   21.0624 N   0  0  0  0  0  0  0  0  0  0  0  0
   11.2630  -19.5893   20.9300 C   0  0  0  0  0  0  0  0  0  0  0  0
   11.9875  -19.6533   19.9095 O   0  0  0  0  0  0  0  0  0  0  0  0
   11.6199  -18.5700   21.9598 C   0  0  0  0  0  0  0  0  0  0  0  0
   11.1241  -17.2412   21.4563 C   0  0  2  0  0  0  0  0  0  0  0  0
   12.1035  -16.6768   20.5686 N   0  0  0  0  0  0  0  0  0  0  0  0
   10.7675  -16.3124   22.5604 C   0  0  0  0  0  0  0  0  0  0  0  0
   11.7249  -15.7905   23.1952 O   0  0  0  0  0  0  0  0  0  0  0  0
    9.4247  -16.0220   22.8903 N   0  0  0  0  0  0  0  0  0  0  0  0
    9.1542  -15.2111   24.0635 C   0  0  1  0  0  0  0  0  0  0  0  0
    7.7835  -14.6008   23.8101 C   0  0  0  0  0  0  0  0  0  0  0  0
    7.4243  -13.7494   24.9727 C   0  0  0  0  0  0  0  0  0  0  0  0
    6.7280  -14.2592   26.0595 C   0  0  0  0  0  0  0  0  0  0  0  0
    6.3948  -13.4561   27.1451 C   0  0  0  0  0  0  0  0  0  0  0  0
    6.7546  -12.1215   27.1621 C   0  0  0  0  0  0  0  0  0  0  0  0
    7.4461  -11.5968   26.0928 C   0  0  0  0  0  0  0  0  0  0  0  0
    7.7642  -12.4065   25.0332 C   0  0  0  0  0  0  0  0  0  0  0  0
    9.1742  -16.0128   25.3026 C   0  0  0  0  0  0  0  0  0  0  0  0
    8.8798  -17.2485   25.1577 O   0  0  0  0  0  0  0  0  0  0  0  0
    9.4773  -15.5662   26.5899 N   0  0  0  0  0  0  0  0  0  0  0  0
    8.9543  -14.3143   27.1712 C   0  0  0  0  0  0  0  0  0  0  0  0
   10.2799  -13.6630   27.5884 C   0  0  0  0  0  0  0  0  0  0  0  0
   11.0327  -14.8548   28.1411 C   0  0  0  0  0  0  0  0  0  0  0  0
   10.3011  -16.0893   27.6593 C   0  0  1  0  0  0  0  0  0  0  0  0
    9.4645  -16.7032   28.7338 C   0  0  0  0  0  0  0  0  0  0  0  0
    9.9841  -17.1916   29.7623 O   0  0  0  0  0  0  0  0  0  0  0  0
    8.0873  -16.7444   28.6124 O   0  0  0  0  0  0  0  0  0  0  0  0
  2  1  1  0
  3  2  2  0
  4  2  1  0
  5  4  1  0
  5  6  1  1
  7  5  1  0
  7  8  2  0
  9  7  1  0
 10  9  1  0
 10 11  1  6
 11 12  1  0
 12 13  2  0
 12 17  1  0
 13 14  1  0
 14 15  2  0
 16 15  1  0
 17 16  2  0
 18 10  1  0
 19 18  2  0
 20 18  1  0
 20 24  1  0
 21 22  1  0
 21 20  1  0
 22 23  1  0
 23 24  1  0
 24 25  1  1
 25 27  1  0
 26 25  2  0
M  END
$$$$
