NFP.pdb
     RDKit          3D

 27 28  0  0  1  0  0  0  0  0999 V2000
    7.7332  -20.1017   19.6024 N   0  0  0  0  0  0  0  0  0  0  0  0
    9.0252  -19.5424   19.5665 C   0  0  0  0  0  0  0  0  0  0  0  0
    9.7469  -19.7111   18.5560 O   0  0  0  0  0  0  0  0  0  0  0  0
    9.5959  -18.7421   20.6892 C   0  0  0  0  0  0  0  0  0  0  0  0
    9.3161  -17.2946   20.3866 C   0  0  2  0  0  0  0  0  0  0  0  0
   10.2262  -16.8395   19.3714 N   0  0  0  0  0  0  0  0  0  0  0  0
    9.3609  -16.4410   21.6024 C   0  0  0  0  0  0  0  0  0  0  0  0
   10.5032  -16.1731   22.0666 O   0  0  0  0  0  0  0  0  0  0  0  0
    8.1869  -15.9490   22.2154 N   0  0  0  0  0  0  0  0  0  0  0  0
    8.3037  -15.2339   23.4731 C   0  0  1  0  0  0  0  0  0  0  0  0
    6.9752  -14.5101   23.6370 C   0  0  0  0  0  0  0  0  0  0  0  0
    6.9990  -13.7660   24.9220 C   0  0  0  0  0  0  0  0  0  0  0  0
    6.4101  -14.2780   26.0696 C   0  0  0  0  0  0  0  0  0  0  0  0
    6.4361  -13.5756   27.2698 C   0  0  0  0  0  0  0  0  0  0  0  0
    7.0554  -12.3419   27.3429 C   0  0  0  0  0  0  0  0  0  0  0  0
    7.6457  -11.8168   26.2147 C   0  0  0  0  0  0  0  0  0  0  0  0
    7.6082  -12.5262   25.0422 C   0  0  0  0  0  0  0  0  0  0  0  0
    8.5710  -16.1465   24.6020 C   0  0  0  0  0  0  0  0  0  0  0  0
    7.8654  -17.2123   24.6206 O   0  0  0  0  0  0  0  0  0  0  0  0
    9.4989  -15.9663   25.6291 N   0  0  0  0  0  0  0  0  0  0  0  0
   10.1171  -14.6678   25.9616 C   0  0  0  0  0  0  0  0  0  0  0  0
   11.5956  -15.0737   25.8943 C   0  0  0  0  0  0  0  0  0  0  0  0
   11.5591  -16.4320   26.5621 C   0  0  0  0  0  0  0  0  0  0  0  0
   10.1074  -16.8599   26.5921 C   0  0  1  0  0  0  0  0  0  0  0  0
    9.4982  -16.6901   27.9454 C   0  0  0  0  0  0  0  0  0  0  0  0
    8.8467  -15.6630   28.2402 O   0  0  0  0  0  0  0  0  0  0  0  0
    9.6433  -17.6729   28.9077 O   0  0  0  0  0  0  0  0  0  0  0  0
  2  1  1  0
  3  2  2  0
  4  2  1  0
  5  4  1  0
  5  6  1  6
  7  5  1  0
  7  8  2  0
  9  7  1  0
 10  9  1  0
 10 11  1  1
 11 12  1  0
 12 13  2  0
 12 17  1  0
 13 14  1  0
 14 15  2  0
 16 15  1  0
 17 16  2  0
 18 10  1  0
 19 18  2  0
 20 18  1  0
 20 24  1  0
 21 22  1  0
 21 20  1  0
 22 23  1  0
 23 24  1  0
 24 25  1  1
 25 27  1  0
 26 25  2  0
M  END
$$$$
