NFP.pdb
     RDKit          3D

 27 28  0  0  1  0  0  0  0  0999 V2000
   11.9255  -17.1007   17.8465 N   0  0  0  0  0  0  0  0  0  0  0  0
   11.9849  -17.4953   19.1970 C   0  0  0  0  0  0  0  0  0  0  0  0
   12.0699  -18.7119   19.4853 O   0  0  0  0  0  0  0  0  0  0  0  0
   11.9517  -16.5244   20.3297 C   0  0  0  0  0  0  0  0  0  0  0  0
   11.1848  -17.1769   21.4483 C   0  0  2  0  0  0  0  0  0  0  0  0
   10.0769  -17.9087   20.8978 N   0  0  0  0  0  0  0  0  0  0  0  0
   10.7533  -16.2032   22.4849 C   0  0  0  0  0  0  0  0  0  0  0  0
   11.6421  -15.4383   22.9508 O   0  0  0  0  0  0  0  0  0  0  0  0
    9.4154  -16.1305   22.9330 N   0  0  0  0  0  0  0  0  0  0  0  0
    9.1113  -15.3101   24.0913 C   0  0  1  0  0  0  0  0  0  0  0  0
    7.6991  -14.7977   23.8484 C   0  0  0  0  0  0  0  0  0  0  0  0
    7.3295  -13.8879   24.9624 C   0  0  0  0  0  0  0  0  0  0  0  0
    7.5706  -12.5228   24.8968 C   0  0  0  0  0  0  0  0  0  0  0  0
    7.2219  -11.6765   25.9439 C   0  0  0  0  0  0  0  0  0  0  0  0
    6.6224  -12.1843   27.0814 C   0  0  0  0  0  0  0  0  0  0  0  0
    6.3748  -13.5366   27.1655 C   0  0  0  0  0  0  0  0  0  0  0  0
    6.7268  -14.3524   26.1216 C   0  0  0  0  0  0  0  0  0  0  0  0
    9.2047  -16.0775   25.3486 C   0  0  0  0  0  0  0  0  0  0  0  0
    8.8722  -17.3089   25.2621 O   0  0  0  0  0  0  0  0  0  0  0  0
    9.6128  -15.6033   26.5964 N   0  0  0  0  0  0  0  0  0  0  0  0
    9.1805  -14.3129   27.1681 C   0  0  0  0  0  0  0  0  0  0  0  0
   10.5561  -13.7044   27.4725 C   0  0  0  0  0  0  0  0  0  0  0  0
   11.2977  -14.9082   28.0141 C   0  0  0  0  0  0  0  0  0  0  0  0
   10.4868  -16.1260   27.6255 C   0  0  1  0  0  0  0  0  0  0  0  0
    9.7023  -16.6701   28.7743 C   0  0  0  0  0  0  0  0  0  0  0  0
   10.2716  -17.1577   29.7765 O   0  0  0  0  0  0  0  0  0  0  0  0
    8.3196  -16.6457   28.7531 O   0  0  0  0  0  0  0  0  0  0  0  0
  2  1  1  0
  3  2  2  0
  4  2  1  0
  5  4  1  0
  5  6  1  6
  7  5  1  0
  7  8  2  0
  9  7  1  0
 10  9  1  0
 10 11  1  6
 11 12  1  0
 12 13  2  0
 12 17  1  0
 13 14  1  0
 14 15  2  0
 16 15  1  0
 17 16  2  0
 18 10  1  0
 19 18  2  0
 20 18  1  0
 20 24  1  0
 21 22  1  0
 21 20  1  0
 22 23  1  0
 23 24  1  0
 24 25  1  1
 25 27  1  0
 26 25  2  0
M  END
$$$$
