LNT.pdb
     RDKit          3D

 24 23  0  0  1  0  0  0  0  0999 V2000
    8.9786  -13.8638   18.7224 C   0  0  0  0  0  0  0  0  0  0  0  0
    7.6725  -13.5848   19.4657 C   0  0  2  0  0  0  0  0  0  0  0  0
    7.4892  -12.0983   19.4962 C   0  0  0  0  0  0  0  0  0  0  0  0
    7.7723  -14.2344   20.8087 C   0  0  0  0  0  0  0  0  0  0  0  0
    7.8227  -15.7345   20.7640 C   0  0  2  0  0  0  0  0  0  0  0  0
    6.6164  -16.2247   20.1659 N   0  0  0  0  0  0  0  0  0  0  0  0
    7.9988  -16.2104   22.1612 C   0  0  0  0  0  0  0  0  0  0  0  0
    7.0589  -16.3197   22.9603 O   0  0  0  0  0  0  0  0  0  0  0  0
   10.3519  -18.3246   26.3604 N   0  0  0  0  0  0  0  0  0  0  0  0
   11.0871  -18.5788   25.1791 C   0  0  0  0  0  0  0  0  0  0  0  0
   12.0843  -19.3475   25.2833 O   0  0  0  0  0  0  0  0  0  0  0  0
   10.7243  -17.9887   23.8914 C   0  0  0  0  0  0  0  0  0  0  0  0
    9.5785  -17.0300   23.9381 C   0  0  2  0  0  0  0  0  0  0  0  0
    9.3089  -16.5548   22.5955 N   0  0  0  0  0  0  0  0  0  0  0  0
    9.8184  -15.8748   24.8182 C   0  0  0  0  0  0  0  0  0  0  0  0
   10.7009  -15.0239   24.5402 O   0  0  0  0  0  0  0  0  0  0  0  0
    8.1627  -12.4527   27.7367 C   0  0  0  0  0  0  0  0  0  0  0  0
    7.9959  -13.7179   26.9617 C   0  0  1  0  0  0  0  0  0  0  0  0
    7.5055  -13.3898   25.7027 O   0  0  0  0  0  0  0  0  0  0  0  0
    9.2829  -14.5089   26.8653 C   0  0  2  0  0  0  0  0  0  0  0  0
    9.0765  -15.6609   26.0131 N   0  0  0  0  0  0  0  0  0  0  0  0
    9.7814  -14.9333   28.1802 C   0  0  0  0  0  0  0  0  0  0  0  0
    9.6126  -16.1230   28.5437 O   0  0  0  0  0  0  0  0  0  0  0  0
   10.4369  -14.0851   29.0564 O   0  0  0  0  0  0  0  0  0  0  0  0
  2  1  1  6
  3  2  1  0
  4  2  1  0
  4  5  1  0
  5  7  1  0
  5  6  1  1
  7  8  2  0
  9 10  1  0
 10 12  1  0
 11 10  2  0
 13 12  1  6
 14 13  1  0
 14  7  1  0
 15 13  1  0
 16 15  2  0
 18 17  1  1
 19 18  1  0
 20 21  1  6
 20 18  1  0
 21 15  1  0
 22 24  1  0
 22 20  1  0
 23 22  2  0
M  END
$$$$
