LNT.pdb
     RDKit          3D

 24 23  0  0  1  0  0  0  0  0999 V2000
    9.4061  -12.7922   19.9157 C   0  0  0  0  0  0  0  0  0  0  0  0
    8.0017  -13.1544   19.4334 C   0  0  2  0  0  0  0  0  0  0  0  0
    7.1828  -11.9005   19.4731 C   0  0  0  0  0  0  0  0  0  0  0  0
    7.4996  -14.2620   20.3031 C   0  0  0  0  0  0  0  0  0  0  0  0
    8.4558  -15.4105   20.4496 C   0  0  2  0  0  0  0  0  0  0  0  0
    8.1231  -16.4206   19.4892 N   0  0  0  0  0  0  0  0  0  0  0  0
    8.3458  -15.8986   21.8494 C   0  0  0  0  0  0  0  0  0  0  0  0
    7.2822  -16.2966   22.3436 O   0  0  0  0  0  0  0  0  0  0  0  0
    9.9193  -18.7227   22.6552 N   0  0  0  0  0  0  0  0  0  0  0  0
   10.8572  -18.3176   23.6333 C   0  0  0  0  0  0  0  0  0  0  0  0
   11.8306  -19.0945   23.8451 O   0  0  0  0  0  0  0  0  0  0  0  0
   10.7218  -17.0634   24.3727 C   0  0  0  0  0  0  0  0  0  0  0  0
    9.4923  -16.2747   24.0558 C   0  0  2  0  0  0  0  0  0  0  0  0
    9.5188  -15.9067   22.6541 N   0  0  0  0  0  0  0  0  0  0  0  0
    9.3532  -15.0566   24.8704 C   0  0  0  0  0  0  0  0  0  0  0  0
   10.1686  -14.1069   24.7558 O   0  0  0  0  0  0  0  0  0  0  0  0
    6.5297  -12.4909   25.1339 C   0  0  0  0  0  0  0  0  0  0  0  0
    6.7426  -13.1578   26.4527 C   0  0  1  0  0  0  0  0  0  0  0  0
    5.8008  -14.1731   26.5785 O   0  0  0  0  0  0  0  0  0  0  0  0
    8.1517  -13.6877   26.6100 C   0  0  2  0  0  0  0  0  0  0  0  0
    8.3047  -14.8896   25.8174 N   0  0  0  0  0  0  0  0  0  0  0  0
    8.4975  -13.9570   28.0119 C   0  0  0  0  0  0  0  0  0  0  0  0
    8.7376  -15.1369   28.3672 O   0  0  0  0  0  0  0  0  0  0  0  0
    8.5754  -12.9706   28.9803 O   0  0  0  0  0  0  0  0  0  0  0  0
  2  1  1  1
  3  2  1  0
  4  2  1  0
  4  5  1  0
  5  7  1  0
  5  6  1  6
  7  8  2  0
  9 10  1  0
 10 12  1  0
 11 10  2  0
 13 12  1  1
 14 13  1  0
 14  7  1  0
 15 13  1  0
 16 15  2  0
 18 17  1  6
 19 18  1  0
 20 21  1  6
 20 18  1  0
 21 15  1  0
 22 24  1  0
 22 20  1  0
 23 22  2  0
M  END
$$$$
