LNT.pdb
     RDKit          3D

 24 23  0  0  1  0  0  0  0  0999 V2000
    9.4126  -12.2703   18.8481 C   0  0  0  0  0  0  0  0  0  0  0  0
    8.1498  -13.1313   18.8481 C   0  0  2  0  0  0  0  0  0  0  0  0
    6.9987  -12.2292   19.1730 C   0  0  0  0  0  0  0  0  0  0  0  0
    8.3674  -14.2482   19.8179 C   0  0  0  0  0  0  0  0  0  0  0  0
    9.6549  -14.9946   19.6173 C   0  0  2  0  0  0  0  0  0  0  0  0
    9.6081  -15.6762   18.3577 N   0  0  0  0  0  0  0  0  0  0  0  0
    9.8049  -15.9287   20.7639 C   0  0  0  0  0  0  0  0  0  0  0  0
    8.8401  -16.4357   21.3519 O   0  0  0  0  0  0  0  0  0  0  0  0
   12.5798  -19.9799   20.8326 N   0  0  0  0  0  0  0  0  0  0  0  0
   12.9454  -18.6140   20.8655 C   0  0  0  0  0  0  0  0  0  0  0  0
   13.4520  -18.1344   19.8123 O   0  0  0  0  0  0  0  0  0  0  0  0
   12.7533  -17.7828   22.0531 C   0  0  0  0  0  0  0  0  0  0  0  0
   11.3701  -17.2442   22.2283 C   0  0  2  0  0  0  0  0  0  0  0  0
   11.1192  -16.2516   21.2021 N   0  0  0  0  0  0  0  0  0  0  0  0
   11.1419  -16.6379   23.5500 C   0  0  0  0  0  0  0  0  0  0  0  0
   11.8357  -15.6661   23.9427 O   0  0  0  0  0  0  0  0  0  0  0  0
    8.2144  -14.8538   24.8176 C   0  0  0  0  0  0  0  0  0  0  0  0
    8.4441  -15.9940   25.7538 C   0  0  1  0  0  0  0  0  0  0  0  0
    7.5496  -17.0069   25.4260 O   0  0  0  0  0  0  0  0  0  0  0  0
    9.8747  -16.4874   25.7214 C   0  0  2  0  0  0  0  0  0  0  0  0
   10.1395  -17.1109   24.4418 N   0  0  0  0  0  0  0  0  0  0  0  0
   10.1707  -17.4244   26.8132 C   0  0  0  0  0  0  0  0  0  0  0  0
   10.4455  -18.6179   26.5377 O   0  0  0  0  0  0  0  0  0  0  0  0
   10.1645  -17.0631   28.1498 O   0  0  0  0  0  0  0  0  0  0  0  0
  2  1  1  1
  3  2  1  0
  4  2  1  0
  4  5  1  0
  5  7  1  0
  5  6  1  6
  7  8  2  0
  9 10  1  0
 10 12  1  0
 11 10  2  0
 13 12  1  1
 14 13  1  0
 14  7  1  0
 15 13  1  0
 16 15  2  0
 18 17  1  6
 19 18  1  0
 20 21  1  6
 20 18  1  0
 21 15  1  0
 22 24  1  0
 22 20  1  0
 23 22  2  0
M  END
$$$$
