LNT.pdb
     RDKit          3D

 24 23  0  0  1  0  0  0  0  0999 V2000
    7.4487  -11.7767   24.5439 C   0  0  0  0  0  0  0  0  0  0  0  0
    6.3617  -12.6634   25.1509 C   0  0  2  0  0  0  0  0  0  0  0  0
    5.9113  -12.0061   26.4195 C   0  0  0  0  0  0  0  0  0  0  0  0
    6.9410  -14.0311   25.3218 C   0  0  0  0  0  0  0  0  0  0  0  0
    7.6329  -14.5629   24.0998 C   0  0  2  0  0  0  0  0  0  0  0  0
    6.6461  -15.0060   23.1600 N   0  0  0  0  0  0  0  0  0  0  0  0
    8.5283  -15.6628   24.5451 C   0  0  0  0  0  0  0  0  0  0  0  0
    8.2847  -16.3749   25.5286 O   0  0  0  0  0  0  0  0  0  0  0  0
   10.4295  -18.2017   21.2464 N   0  0  0  0  0  0  0  0  0  0  0  0
   11.1094  -17.0801   21.7758 C   0  0  0  0  0  0  0  0  0  0  0  0
   11.1965  -16.0633   21.0311 O   0  0  0  0  0  0  0  0  0  0  0  0
   11.6893  -17.0806   23.1181 C   0  0  0  0  0  0  0  0  0  0  0  0
   10.7097  -16.8732   24.2278 C   0  0  2  0  0  0  0  0  0  0  0  0
    9.7184  -15.9043   23.8042 N   0  0  0  0  0  0  0  0  0  0  0  0
   11.3326  -16.4089   25.4781 C   0  0  0  0  0  0  0  0  0  0  0  0
   12.3775  -15.7106   25.4581 O   0  0  0  0  0  0  0  0  0  0  0  0
    9.2869  -15.0801   28.5270 C   0  0  0  0  0  0  0  0  0  0  0  0
   10.7743  -14.9831   28.4390 C   0  0  1  0  0  0  0  0  0  0  0  0
   11.2537  -14.5829   29.6813 O   0  0  0  0  0  0  0  0  0  0  0  0
   11.4113  -16.2815   27.9923 C   0  0  2  0  0  0  0  0  0  0  0  0
   10.7947  -16.7200   26.7579 N   0  0  0  0  0  0  0  0  0  0  0  0
   11.3129  -17.3352   29.0108 C   0  0  0  0  0  0  0  0  0  0  0  0
   11.9062  -17.1843   30.1068 O   0  0  0  0  0  0  0  0  0  0  0  0
   10.5927  -18.5040   28.8307 O   0  0  0  0  0  0  0  0  0  0  0  0
  2  1  1  1
  3  2  1  0
  4  2  1  0
  4  5  1  0
  5  7  1  0
  5  6  1  6
  7  8  2  0
  9 10  1  0
 10 12  1  0
 11 10  2  0
 13 12  1  6
 14 13  1  0
 14  7  1  0
 15 13  1  0
 16 15  2  0
 18 17  1  1
 19 18  1  0
 20 21  1  6
 20 18  1  0
 21 15  1  0
 22 24  1  0
 22 20  1  0
 23 22  2  0
M  END
$$$$
