LNT.pdb
     RDKit          3D

 24 23  0  0  1  0  0  0  0  0999 V2000
    9.3338  -12.7326   18.5965 C   0  0  0  0  0  0  0  0  0  0  0  0
    7.9041  -13.2537   18.7401 C   0  0  2  0  0  0  0  0  0  0  0  0
    7.0384  -12.0816   19.0879 C   0  0  0  0  0  0  0  0  0  0  0  0
    7.9244  -14.3461   19.7607 C   0  0  0  0  0  0  0  0  0  0  0  0
    8.8547  -15.4779   19.4316 C   0  0  2  0  0  0  0  0  0  0  0  0
    8.3451  -16.1859   18.2948 N   0  0  0  0  0  0  0  0  0  0  0  0
    8.9477  -16.3368   20.6414 C   0  0  0  0  0  0  0  0  0  0  0  0
    7.9673  -16.6257   21.3407 O   0  0  0  0  0  0  0  0  0  0  0  0
   10.6129  -19.8077   20.1752 N   0  0  0  0  0  0  0  0  0  0  0  0
   11.7558  -19.4574   20.9313 C   0  0  0  0  0  0  0  0  0  0  0  0
   12.8300  -20.0611   20.6526 O   0  0  0  0  0  0  0  0  0  0  0  0
   11.7135  -18.4475   21.9879 C   0  0  0  0  0  0  0  0  0  0  0  0
   10.4034  -17.7429   22.1340 C   0  0  2  0  0  0  0  0  0  0  0  0
   10.2236  -16.8475   21.0084 N   0  0  0  0  0  0  0  0  0  0  0  0
   10.2898  -16.9735   23.3837 C   0  0  0  0  0  0  0  0  0  0  0  0
   11.0848  -16.0336   23.6375 O   0  0  0  0  0  0  0  0  0  0  0  0
    7.7187  -14.7030   24.6943 C   0  0  0  0  0  0  0  0  0  0  0  0
    7.8377  -15.8275   25.6693 C   0  0  1  0  0  0  0  0  0  0  0  0
    6.8020  -16.7220   25.4230 O   0  0  0  0  0  0  0  0  0  0  0  0
    9.1867  -16.5104   25.6001 C   0  0  2  0  0  0  0  0  0  0  0  0
    9.2897  -17.2469   24.3579 N   0  0  0  0  0  0  0  0  0  0  0  0
    9.4230  -17.4046   26.7411 C   0  0  0  0  0  0  0  0  0  0  0  0
    9.5811  -18.6326   26.5338 O   0  0  0  0  0  0  0  0  0  0  0  0
    9.4827  -16.9660   28.0531 O   0  0  0  0  0  0  0  0  0  0  0  0
  2  1  1  1
  3  2  1  0
  4  2  1  0
  4  5  1  0
  5  7  1  0
  5  6  1  6
  7  8  2  0
  9 10  1  0
 10 12  1  0
 11 10  2  0
 13 12  1  6
 14 13  1  0
 14  7  1  0
 15 13  1  0
 16 15  2  0
 18 17  1  6
 19 18  1  0
 20 21  1  6
 20 18  1  0
 21 15  1  0
 22 24  1  0
 22 20  1  0
 23 22  2  0
M  END
$$$$
