LNT.pdb
     RDKit          3D

 24 23  0  0  1  0  0  0  0  0999 V2000
    8.1652  -12.3085   21.2563 C   0  0  0  0  0  0  0  0  0  0  0  0
    8.5959  -13.5360   20.4539 C   0  0  2  0  0  0  0  0  0  0  0  0
    8.3970  -13.2102   19.0052 C   0  0  0  0  0  0  0  0  0  0  0  0
    7.8011  -14.7001   20.9522 C   0  0  0  0  0  0  0  0  0  0  0  0
    8.4685  -16.0306   20.7535 C   0  0  2  0  0  0  0  0  0  0  0  0
    7.6110  -16.8710   19.9714 N   0  0  0  0  0  0  0  0  0  0  0  0
    8.7390  -16.5927   22.1027 C   0  0  0  0  0  0  0  0  0  0  0  0
    7.8791  -17.1783   22.7745 O   0  0  0  0  0  0  0  0  0  0  0  0
   12.0883  -19.8082   25.1986 N   0  0  0  0  0  0  0  0  0  0  0  0
   12.2510  -18.4335   24.9085 C   0  0  0  0  0  0  0  0  0  0  0  0
   12.8988  -17.7470   25.7482 O   0  0  0  0  0  0  0  0  0  0  0  0
   11.7025  -17.8204   23.6996 C   0  0  0  0  0  0  0  0  0  0  0  0
   10.4352  -17.0537   23.9012 C   0  0  2  0  0  0  0  0  0  0  0  0
   10.0472  -16.4486   22.6426 N   0  0  0  0  0  0  0  0  0  0  0  0
   10.5444  -16.0033   24.9267 C   0  0  0  0  0  0  0  0  0  0  0  0
   11.2200  -14.9644   24.7169 O   0  0  0  0  0  0  0  0  0  0  0  0
    8.6412  -13.3030   28.3472 C   0  0  0  0  0  0  0  0  0  0  0  0
    8.6081  -14.4930   27.4460 C   0  0  1  0  0  0  0  0  0  0  0  0
    7.9922  -14.1159   26.2578 O   0  0  0  0  0  0  0  0  0  0  0  0
    9.9868  -15.0661   27.1969 C   0  0  2  0  0  0  0  0  0  0  0  0
    9.9014  -16.1045   26.1916 N   0  0  0  0  0  0  0  0  0  0  0  0
   10.6053  -15.5938   28.4201 C   0  0  0  0  0  0  0  0  0  0  0  0
   10.9153  -14.7989   29.3410 O   0  0  0  0  0  0  0  0  0  0  0  0
   10.8709  -16.9377   28.6208 O   0  0  0  0  0  0  0  0  0  0  0  0
  2  1  1  1
  3  2  1  0
  4  2  1  0
  4  5  1  0
  5  7  1  0
  5  6  1  6
  7  8  2  0
  9 10  1  0
 10 12  1  0
 11 10  2  0
 13 12  1  6
 14 13  1  0
 14  7  1  0
 15 13  1  0
 16 15  2  0
 18 17  1  1
 19 18  1  0
 20 21  1  6
 20 18  1  0
 21 15  1  0
 22 24  1  0
 22 20  1  0
 23 22  2  0
M  END
$$$$
