LNT.pdb
     RDKit          3D

 24 23  0  0  1  0  0  0  0  0999 V2000
    5.6299  -12.7579   25.9271 C   0  0  0  0  0  0  0  0  0  0  0  0
    7.1367  -12.9871   25.8116 C   0  0  2  0  0  0  0  0  0  0  0  0
    7.8122  -11.7324   26.2738 C   0  0  0  0  0  0  0  0  0  0  0  0
    7.4253  -13.3727   24.3962 C   0  0  0  0  0  0  0  0  0  0  0  0
    7.0204  -14.7758   24.0464 C   0  0  2  0  0  0  0  0  0  0  0  0
    5.7602  -15.0659   24.6635 N   0  0  0  0  0  0  0  0  0  0  0  0
    8.1049  -15.6768   24.5173 C   0  0  0  0  0  0  0  0  0  0  0  0
    7.9525  -16.4935   25.4357 O   0  0  0  0  0  0  0  0  0  0  0  0
   13.7861  -17.2724   22.7248 N   0  0  0  0  0  0  0  0  0  0  0  0
   12.4443  -17.5522   23.0741 C   0  0  0  0  0  0  0  0  0  0  0  0
   12.1890  -18.7286   23.4570 O   0  0  0  0  0  0  0  0  0  0  0  0
   11.3914  -16.5402   23.0013 C   0  0  0  0  0  0  0  0  0  0  0  0
   10.4403  -16.5362   24.1544 C   0  0  2  0  0  0  0  0  0  0  0  0
    9.3743  -15.5931   23.8805 N   0  0  0  0  0  0  0  0  0  0  0  0
   11.0758  -16.1855   25.4350 C   0  0  0  0  0  0  0  0  0  0  0  0
   11.8943  -15.2345   25.5101 O   0  0  0  0  0  0  0  0  0  0  0  0
   10.3716  -14.3341   28.1035 C   0  0  0  0  0  0  0  0  0  0  0  0
   10.5485  -15.6838   28.7170 C   0  0  1  0  0  0  0  0  0  0  0  0
    9.2891  -16.2494   28.8831 O   0  0  0  0  0  0  0  0  0  0  0  0
   11.4520  -16.5771   27.8943 C   0  0  2  0  0  0  0  0  0  0  0  0
   10.8030  -16.8923   26.6391 N   0  0  0  0  0  0  0  0  0  0  0  0
   11.8160  -17.8120   28.6013 C   0  0  0  0  0  0  0  0  0  0  0  0
   11.4424  -18.9165   28.1358 O   0  0  0  0  0  0  0  0  0  0  0  0
   12.5588  -17.8303   29.7697 O   0  0  0  0  0  0  0  0  0  0  0  0
  2  1  1  6
  3  2  1  0
  4  2  1  0
  4  5  1  0
  5  7  1  0
  5  6  1  1
  7  8  2  0
  9 10  1  0
 10 12  1  0
 11 10  2  0
 13 12  1  6
 14 13  1  0
 14  7  1  0
 15 13  1  0
 16 15  2  0
 18 17  1  6
 19 18  1  0
 20 21  1  6
 20 18  1  0
 21 15  1  0
 22 24  1  0
 22 20  1  0
 23 22  2  0
M  END
$$$$
