LNT.pdb
     RDKit          3D

 24 23  0  0  1  0  0  0  0  0999 V2000
    9.0094  -13.2849   18.2104 C   0  0  0  0  0  0  0  0  0  0  0  0
    7.5873  -13.4919   18.7309 C   0  0  2  0  0  0  0  0  0  0  0  0
    6.7487  -12.3780   18.1831 C   0  0  0  0  0  0  0  0  0  0  0  0
    7.6591  -13.5506   20.2232 C   0  0  0  0  0  0  0  0  0  0  0  0
    8.6873  -14.5087   20.7521 C   0  0  2  0  0  0  0  0  0  0  0  0
    8.8615  -15.5739   19.8097 N   0  0  0  0  0  0  0  0  0  0  0  0
    8.2014  -14.9908   22.0717 C   0  0  0  0  0  0  0  0  0  0  0  0
    7.3169  -14.4126   22.7174 O   0  0  0  0  0  0  0  0  0  0  0  0
    9.7190  -19.5684   25.9908 N   0  0  0  0  0  0  0  0  0  0  0  0
    8.8492  -18.5899   25.4557 C   0  0  0  0  0  0  0  0  0  0  0  0
    7.8747  -18.2377   26.1784 O   0  0  0  0  0  0  0  0  0  0  0  0
    9.0533  -18.0041   24.1316 C   0  0  0  0  0  0  0  0  0  0  0  0
    8.4888  -16.6312   23.9561 C   0  0  2  0  0  0  0  0  0  0  0  0
    8.7825  -16.1709   22.6134 N   0  0  0  0  0  0  0  0  0  0  0  0
    9.0137  -15.6551   24.9248 C   0  0  0  0  0  0  0  0  0  0  0  0
   10.1643  -15.1673   24.7906 O   0  0  0  0  0  0  0  0  0  0  0  0
    7.1775  -12.4226   25.9816 C   0  0  0  0  0  0  0  0  0  0  0  0
    7.5618  -13.2056   27.1934 C   0  0  1  0  0  0  0  0  0  0  0  0
    6.4341  -13.8836   27.6430 O   0  0  0  0  0  0  0  0  0  0  0  0
    8.7088  -14.1563   26.9258 C   0  0  2  0  0  0  0  0  0  0  0  0
    8.2596  -15.2171   26.0488 N   0  0  0  0  0  0  0  0  0  0  0  0
    9.2696  -14.7217   28.1600 C   0  0  0  0  0  0  0  0  0  0  0  0
    9.2144  -15.9621   28.3450 O   0  0  0  0  0  0  0  0  0  0  0  0
    9.8650  -13.9550   29.1473 O   0  0  0  0  0  0  0  0  0  0  0  0
  2  1  1  6
  3  2  1  0
  4  2  1  0
  4  5  1  0
  5  7  1  0
  5  6  1  6
  7  8  2  0
  9 10  1  0
 10 12  1  0
 11 10  2  0
 13 12  1  1
 14 13  1  0
 14  7  1  0
 15 13  1  0
 16 15  2  0
 18 17  1  6
 19 18  1  0
 20 21  1  6
 20 18  1  0
 21 15  1  0
 22 24  1  0
 22 20  1  0
 23 22  2  0
M  END
$$$$
