LNT.pdb
     RDKit          3D

 24 23  0  0  1  0  0  0  0  0999 V2000
    9.2272  -12.7159   19.3737 C   0  0  0  0  0  0  0  0  0  0  0  0
    7.8364  -13.2582   19.7018 C   0  0  2  0  0  0  0  0  0  0  0  0
    6.9261  -12.0785   19.8561 C   0  0  0  0  0  0  0  0  0  0  0  0
    7.9648  -14.1176   20.9185 C   0  0  0  0  0  0  0  0  0  0  0  0
    8.8963  -15.2836   20.7523 C   0  0  2  0  0  0  0  0  0  0  0  0
    8.3457  -16.1873   19.7861 N   0  0  0  0  0  0  0  0  0  0  0  0
    9.0584  -15.9112   22.0901 C   0  0  0  0  0  0  0  0  0  0  0  0
    8.1005  -16.2063   22.8175 O   0  0  0  0  0  0  0  0  0  0  0  0
   12.5933  -18.8452   21.6814 N   0  0  0  0  0  0  0  0  0  0  0  0
   11.7841  -18.7478   22.8374 C   0  0  0  0  0  0  0  0  0  0  0  0
   10.9719  -19.6929   23.0453 O   0  0  0  0  0  0  0  0  0  0  0  0
   11.8706  -17.6149   23.7578 C   0  0  0  0  0  0  0  0  0  0  0  0
   10.6343  -16.7796   23.8469 C   0  0  2  0  0  0  0  0  0  0  0  0
   10.3763  -16.1829   22.5514 N   0  0  0  0  0  0  0  0  0  0  0  0
   10.7206  -15.7140   24.8588 C   0  0  0  0  0  0  0  0  0  0  0  0
   11.5670  -14.7907   24.7531 O   0  0  0  0  0  0  0  0  0  0  0  0
    8.4856  -12.9937   25.8357 C   0  0  0  0  0  0  0  0  0  0  0  0
    8.6649  -13.8535   27.0432 C   0  0  1  0  0  0  0  0  0  0  0  0
    7.5621  -14.6949   27.1398 O   0  0  0  0  0  0  0  0  0  0  0  0
    9.9583  -14.6388   27.0050 C   0  0  2  0  0  0  0  0  0  0  0  0
    9.8645  -15.6710   25.9941 N   0  0  0  0  0  0  0  0  0  0  0  0
   10.2942  -15.2319   28.3060 C   0  0  0  0  0  0  0  0  0  0  0  0
   10.3081  -16.4817   28.4235 O   0  0  0  0  0  0  0  0  0  0  0  0
   10.6012  -14.4819   29.4287 O   0  0  0  0  0  0  0  0  0  0  0  0
  2  1  1  1
  3  2  1  0
  4  2  1  0
  4  5  1  0
  5  7  1  0
  5  6  1  6
  7  8  2  0
  9 10  1  0
 10 12  1  0
 11 10  2  0
 13 12  1  6
 14 13  1  0
 14  7  1  0
 15 13  1  0
 16 15  2  0
 18 17  1  6
 19 18  1  0
 20 21  1  6
 20 18  1  0
 21 15  1  0
 22 24  1  0
 22 20  1  0
 23 22  2  0
M  END
$$$$
