LNT.pdb
     RDKit          3D

 24 23  0  0  1  0  0  0  0  0999 V2000
    9.1680  -12.3324   19.4335 C   0  0  0  0  0  0  0  0  0  0  0  0
    8.0139  -13.3343   19.4548 C   0  0  2  0  0  0  0  0  0  0  0  0
    6.7544  -12.5644   19.1998 C   0  0  0  0  0  0  0  0  0  0  0  0
    8.0613  -14.0465   20.7686 C   0  0  0  0  0  0  0  0  0  0  0  0
    9.4350  -14.4971   21.1746 C   0  0  2  0  0  0  0  0  0  0  0  0
    9.9480  -15.3885   20.1769 N   0  0  0  0  0  0  0  0  0  0  0  0
    9.3093  -15.1458   22.5062 C   0  0  0  0  0  0  0  0  0  0  0  0
    8.4269  -14.8466   23.3219 O   0  0  0  0  0  0  0  0  0  0  0  0
   11.4362  -19.1962   21.7354 N   0  0  0  0  0  0  0  0  0  0  0  0
   10.6075  -19.0183   22.8678 C   0  0  0  0  0  0  0  0  0  0  0  0
    9.5174  -19.6566   22.8816 O   0  0  0  0  0  0  0  0  0  0  0  0
   10.9794  -18.1418   23.9775 C   0  0  0  0  0  0  0  0  0  0  0  0
   10.1622  -16.8961   24.0979 C   0  0  2  0  0  0  0  0  0  0  0  0
   10.2484  -16.1560   22.8546 N   0  0  0  0  0  0  0  0  0  0  0  0
   10.5844  -16.0248   25.2066 C   0  0  0  0  0  0  0  0  0  0  0  0
   11.6644  -15.3844   25.1489 O   0  0  0  0  0  0  0  0  0  0  0  0
    8.7548  -13.0405   26.6882 C   0  0  0  0  0  0  0  0  0  0  0  0
    9.0050  -14.0449   27.7642 C   0  0  1  0  0  0  0  0  0  0  0  0
    7.8360  -14.7739   27.9526 O   0  0  0  0  0  0  0  0  0  0  0  0
   10.1763  -14.9498   27.4474 C   0  0  2  0  0  0  0  0  0  0  0  0
    9.8057  -15.8622   26.3861 N   0  0  0  0  0  0  0  0  0  0  0  0
   10.6408  -15.6996   28.6219 C   0  0  0  0  0  0  0  0  0  0  0  0
   10.5756  -16.9532   28.6126 O   0  0  0  0  0  0  0  0  0  0  0  0
   11.1546  -15.0956   29.7569 O   0  0  0  0  0  0  0  0  0  0  0  0
  2  1  1  1
  3  2  1  0
  4  2  1  0
  4  5  1  0
  5  7  1  0
  5  6  1  6
  7  8  2  0
  9 10  1  0
 10 12  1  0
 11 10  2  0
 13 12  1  6
 14 13  1  0
 14  7  1  0
 15 13  1  0
 16 15  2  0
 18 17  1  6
 19 18  1  0
 20 21  1  6
 20 18  1  0
 21 15  1  0
 22 24  1  0
 22 20  1  0
 23 22  2  0
M  END
$$$$
