LNT.pdb
     RDKit          3D

 24 23  0  0  1  0  0  0  0  0999 V2000
    7.0272  -13.2813   21.3823 C   0  0  0  0  0  0  0  0  0  0  0  0
    8.0730  -13.7453   20.3687 C   0  0  2  0  0  0  0  0  0  0  0  0
    8.3029  -12.6101   19.4186 C   0  0  0  0  0  0  0  0  0  0  0  0
    7.5612  -15.0004   19.7377 C   0  0  0  0  0  0  0  0  0  0  0  0
    7.1684  -16.0664   20.7197 C   0  0  2  0  0  0  0  0  0  0  0  0
    6.3844  -15.4745   21.7629 N   0  0  0  0  0  0  0  0  0  0  0  0
    8.4234  -16.6787   21.2295 C   0  0  0  0  0  0  0  0  0  0  0  0
    9.2186  -17.2911   20.5039 O   0  0  0  0  0  0  0  0  0  0  0  0
   12.1986  -18.0356   21.8638 N   0  0  0  0  0  0  0  0  0  0  0  0
   11.6441  -16.8945   21.2383 C   0  0  0  0  0  0  0  0  0  0  0  0
   11.7958  -16.8004   19.9877 O   0  0  0  0  0  0  0  0  0  0  0  0
   10.9270  -15.8642   21.9882 C   0  0  0  0  0  0  0  0  0  0  0  0
   10.0731  -16.3757   23.1032 C   0  0  2  0  0  0  0  0  0  0  0  0
    8.7199  -16.5529   22.6151 N   0  0  0  0  0  0  0  0  0  0  0  0
   10.0490  -15.4867   24.2761 C   0  0  0  0  0  0  0  0  0  0  0  0
   11.1013  -14.9409   24.6940 O   0  0  0  0  0  0  0  0  0  0  0  0
    7.4471  -12.4393   27.0999 C   0  0  0  0  0  0  0  0  0  0  0  0
    7.4747  -13.5726   26.1283 C   0  0  1  0  0  0  0  0  0  0  0  0
    7.1490  -13.0713   24.8729 O   0  0  0  0  0  0  0  0  0  0  0  0
    8.8106  -14.2842   26.1102 C   0  0  2  0  0  0  0  0  0  0  0  0
    8.8522  -15.2006   24.9901 N   0  0  0  0  0  0  0  0  0  0  0  0
    9.0820  -15.0015   27.3629 C   0  0  0  0  0  0  0  0  0  0  0  0
    9.2035  -14.3483   28.4281 O   0  0  0  0  0  0  0  0  0  0  0  0
    9.2140  -16.3776   27.4396 O   0  0  0  0  0  0  0  0  0  0  0  0
  2  1  1  1
  3  2  1  0
  4  2  1  0
  4  5  1  0
  5  7  1  0
  5  6  1  1
  7  8  2  0
  9 10  1  0
 10 12  1  0
 11 10  2  0
 13 12  1  6
 14 13  1  0
 14  7  1  0
 15 13  1  0
 16 15  2  0
 18 17  1  1
 19 18  1  0
 20 21  1  6
 20 18  1  0
 21 15  1  0
 22 24  1  0
 22 20  1  0
 23 22  2  0
M  END
$$$$
