YLR.pdb
     RDKit          3D

 32 32  0  0  1  0  0  0  0  0999 V2000
   28.4135  -13.2729  -17.6177 O   0  0  0  0  0  0  0  0  0  0  0  0
   27.7705  -14.3473  -17.0363 C   0  0  0  0  0  0  0  0  0  0  0  0
   27.5558  -14.4218  -15.6594 C   0  0  0  0  0  0  0  0  0  0  0  0
   26.9030  -15.5312  -15.1466 C   0  0  0  0  0  0  0  0  0  0  0  0
   26.4608  -16.5589  -15.9487 C   0  0  0  0  0  0  0  0  0  0  0  0
   25.7701  -17.7308  -15.4009 C   0  0  0  0  0  0  0  0  0  0  0  0
   26.6817  -18.6329  -14.5899 C   0  0  2  0  0  0  0  0  0  0  0  0
   27.6007  -19.2573  -15.5287 N   0  0  0  0  0  0  0  0  0  0  0  0
   25.8351  -19.7336  -14.0359 C   0  0  0  0  0  0  0  0  0  0  0  0
   25.5809  -20.6940  -14.8084 O   0  0  0  0  0  0  0  0  0  0  0  0
   26.6816  -16.4683  -17.3072 C   0  0  0  0  0  0  0  0  0  0  0  0
   27.3334  -15.3670  -17.8460 C   0  0  0  0  0  0  0  0  0  0  0  0
   26.0603  -21.0403   -8.6438 C   0  0  0  0  0  0  0  0  0  0  0  0
   25.9943  -21.0442  -10.1506 C   0  0  1  0  0  0  0  0  0  0  0  0
   26.6409  -22.3566  -10.6017 C   0  0  0  0  0  0  0  0  0  0  0  0
   24.6295  -20.9608  -10.7227 C   0  0  0  0  0  0  0  0  0  0  0  0
   24.5197  -20.8176  -12.1981 C   0  0  2  0  0  0  0  0  0  0  0  0
   25.3284  -19.7395  -12.7311 N   0  0  0  0  0  0  0  0  0  0  0  0
   23.1317  -20.7440  -12.7154 C   0  0  0  0  0  0  0  0  0  0  0  0
   22.4751  -19.6493  -12.6958 O   0  0  0  0  0  0  0  0  0  0  0  0
   22.2559  -26.7561  -16.9775 N   0  0  0  0  0  0  0  0  0  0  0  0
   20.9614  -26.4904  -16.4162 C   0  0  0  0  0  0  0  0  0  0  0  0
   20.1909  -27.4680  -16.0882 N   0  0  0  0  0  0  0  0  0  0  0  0
   20.5064  -25.1686  -16.2124 N   0  0  0  0  0  0  0  0  0  0  0  0
   21.1053  -24.0321  -16.8680 C   0  0  0  0  0  0  0  0  0  0  0  0
   21.4428  -22.9259  -15.9292 C   0  0  0  0  0  0  0  0  0  0  0  0
   20.7123  -22.9061  -14.6395 C   0  0  0  0  0  0  0  0  0  0  0  0
   21.0675  -21.8178  -13.6849 C   0  0  2  0  0  0  0  0  0  0  0  0
   22.4455  -21.8613  -13.2579 N   0  0  0  0  0  0  0  0  0  0  0  0
   20.1315  -21.6065  -12.5750 C   0  0  0  0  0  0  0  0  0  0  0  0
   18.7988  -21.2905  -12.9021 O   0  0  0  0  0  0  0  0  0  0  0  0
   20.4005  -21.6801  -11.3717 O   0  0  0  0  0  0  0  0  0  0  0  0
  2  1  1  0
  3  2  2  0
  4  3  1  0
  5  4  2  0
  5 11  1  0
  6  5  1  0
  7  6  1  0
  7  8  1  6
  9  7  1  0
  9 10  2  0
 11 12  2  0
 12  2  1  0
 14 13  1  1
 14 15  1  0
 17 16  1  1
 16 14  1  0
 17 18  1  0
 18  9  1  0
 19 17  1  0
 20 19  2  0
 21 22  1  0
 22 24  1  0
 23 22  2  0
 24 25  1  0
 25 26  1  0
 26 27  1  0
 28 27  1  1
 28 29  1  0
 29 19  1  0
 30 31  1  0
 30 28  1  0
 32 30  2  0
M  END
$$$$
