YLR.pdb
     RDKit          3D

 32 32  0  0  1  0  0  0  0  0999 V2000
   21.5078  -20.0143  -25.2750 O   0  0  0  0  0  0  0  0  0  0  0  0
   22.4355  -19.9380  -24.2554 C   0  0  0  0  0  0  0  0  0  0  0  0
   23.4927  -19.0275  -24.2864 C   0  0  0  0  0  0  0  0  0  0  0  0
   24.3856  -19.0081  -23.2270 C   0  0  0  0  0  0  0  0  0  0  0  0
   24.2640  -19.8549  -22.1485 C   0  0  0  0  0  0  0  0  0  0  0  0
   25.2115  -19.8300  -21.0296 C   0  0  0  0  0  0  0  0  0  0  0  0
   24.7486  -18.9570  -19.8779 C   0  0  2  0  0  0  0  0  0  0  0  0
   24.8071  -17.5800  -20.3427 N   0  0  0  0  0  0  0  0  0  0  0  0
   25.7705  -19.0779  -18.7933 C   0  0  0  0  0  0  0  0  0  0  0  0
   26.9355  -19.3954  -19.1480 O   0  0  0  0  0  0  0  0  0  0  0  0
   23.2129  -20.7481  -22.1348 C   0  0  0  0  0  0  0  0  0  0  0  0
   22.3046  -20.7875  -23.1842 C   0  0  0  0  0  0  0  0  0  0  0  0
   25.0776  -16.2139  -14.8032 C   0  0  0  0  0  0  0  0  0  0  0  0
   25.8975  -16.4546  -16.0460 C   0  0  1  0  0  0  0  0  0  0  0  0
   26.6137  -15.1351  -16.3458 C   0  0  0  0  0  0  0  0  0  0  0  0
   26.9073  -17.5340  -15.9366 C   0  0  0  0  0  0  0  0  0  0  0  0
   26.5081  -18.8869  -16.4053 C   0  0  2  0  0  0  0  0  0  0  0  0
   25.4926  -18.8589  -17.4391 N   0  0  0  0  0  0  0  0  0  0  0  0
   26.1400  -19.8365  -15.3272 C   0  0  0  0  0  0  0  0  0  0  0  0
   26.9342  -20.0765  -14.3568 O   0  0  0  0  0  0  0  0  0  0  0  0
   21.8420  -19.9344   -9.3579 N   0  0  0  0  0  0  0  0  0  0  0  0
   22.5718  -21.1276   -9.0337 C   0  0  0  0  0  0  0  0  0  0  0  0
   22.0384  -22.0203   -8.2752 N   0  0  0  0  0  0  0  0  0  0  0  0
   23.8752  -21.3494   -9.5314 N   0  0  0  0  0  0  0  0  0  0  0  0
   24.5691  -20.3835  -10.3474 C   0  0  0  0  0  0  0  0  0  0  0  0
   23.8987  -20.1316  -11.6535 C   0  0  0  0  0  0  0  0  0  0  0  0
   24.7415  -20.2614  -12.8661 C   0  0  0  0  0  0  0  0  0  0  0  0
   24.0351  -20.5601  -14.1442 C   0  0  2  0  0  0  0  0  0  0  0  0
   24.9048  -20.5340  -15.2958 N   0  0  0  0  0  0  0  0  0  0  0  0
   22.7742  -19.8428  -14.3638 C   0  0  0  0  0  0  0  0  0  0  0  0
   21.5924  -20.4522  -13.9000 O   0  0  0  0  0  0  0  0  0  0  0  0
   22.6471  -18.7471  -14.9196 O   0  0  0  0  0  0  0  0  0  0  0  0
  2  1  1  0
  3  2  2  0
  4  3  1  0
  5  4  2  0
  5 11  1  0
  6  5  1  0
  7  6  1  0
  7  8  1  6
  9  7  1  0
  9 10  2  0
 11 12  2  0
 12  2  1  0
 14 13  1  1
 14 15  1  0
 17 16  1  1
 16 14  1  0
 17 18  1  0
 18  9  1  0
 19 17  1  0
 20 19  2  0
 21 22  1  0
 22 24  1  0
 23 22  2  0
 24 25  1  0
 25 26  1  0
 26 27  1  0
 28 27  1  1
 28 29  1  0
 29 19  1  0
 30 31  1  0
 30 28  1  0
 32 30  2  0
M  END
$$$$
