YLR.pdb
     RDKit          3D

 32 32  0  0  1  0  0  0  0  0999 V2000
   31.5695  -33.4366  -16.5104 O   0  0  0  0  0  0  0  0  0  0  0  0
   30.5358  -32.5221  -16.5428 C   0  0  0  0  0  0  0  0  0  0  0  0
   30.1092  -31.9328  -17.7338 C   0  0  0  0  0  0  0  0  0  0  0  0
   29.0651  -31.0229  -17.6894 C   0  0  0  0  0  0  0  0  0  0  0  0
   28.4371  -30.6826  -16.5126 C   0  0  0  0  0  0  0  0  0  0  0  0
   27.3323  -29.7192  -16.4712 C   0  0  0  0  0  0  0  0  0  0  0  0
   27.7228  -28.3446  -16.9816 C   0  0  2  0  0  0  0  0  0  0  0  0
   28.5985  -27.7562  -15.9803 N   0  0  0  0  0  0  0  0  0  0  0  0
   26.4823  -27.5102  -16.9970 C   0  0  0  0  0  0  0  0  0  0  0  0
   26.2625  -26.8062  -15.9773 O   0  0  0  0  0  0  0  0  0  0  0  0
   28.8721  -31.2749  -15.3453 C   0  0  0  0  0  0  0  0  0  0  0  0
   29.9164  -32.1898  -15.3629 C   0  0  0  0  0  0  0  0  0  0  0  0
   24.6835  -24.9466  -21.4681 C   0  0  0  0  0  0  0  0  0  0  0  0
   24.9624  -25.2643  -20.0203 C   0  0  1  0  0  0  0  0  0  0  0  0
   24.9732  -23.9220  -19.2842 C   0  0  0  0  0  0  0  0  0  0  0  0
   23.9768  -26.1599  -19.3695 C   0  0  0  0  0  0  0  0  0  0  0  0
   24.3448  -26.7257  -18.0452 C   0  0  2  0  0  0  0  0  0  0  0  0
   25.5816  -27.4808  -18.0681 N   0  0  0  0  0  0  0  0  0  0  0  0
   23.2678  -27.4938  -17.3747 C   0  0  0  0  0  0  0  0  0  0  0  0
   23.4694  -28.6786  -16.9440 O   0  0  0  0  0  0  0  0  0  0  0  0
   20.3994  -27.6228  -10.7366 N   0  0  0  0  0  0  0  0  0  0  0  0
   19.5534  -28.7577  -10.9765 C   0  0  0  0  0  0  0  0  0  0  0  0
   18.5467  -28.9822  -10.2064 N   0  0  0  0  0  0  0  0  0  0  0  0
   19.8003  -29.6445  -12.0481 N   0  0  0  0  0  0  0  0  0  0  0  0
   20.8792  -29.4481  -12.9850 C   0  0  0  0  0  0  0  0  0  0  0  0
   20.4175  -28.9661  -14.3165 C   0  0  0  0  0  0  0  0  0  0  0  0
   21.4183  -28.2540  -15.1464 C   0  0  0  0  0  0  0  0  0  0  0  0
   20.9359  -27.6849  -16.4369 C   0  0  2  0  0  0  0  0  0  0  0  0
   21.9614  -26.9799  -17.1679 N   0  0  0  0  0  0  0  0  0  0  0  0
   19.6669  -26.9506  -16.3803 C   0  0  0  0  0  0  0  0  0  0  0  0
   18.4863  -27.7059  -16.2442 O   0  0  0  0  0  0  0  0  0  0  0  0
   19.5321  -25.7242  -16.4400 O   0  0  0  0  0  0  0  0  0  0  0  0
  2  1  1  0
  3  2  2  0
  4  3  1  0
  5  4  2  0
  5 11  1  0
  6  5  1  0
  7  6  1  0
  7  8  1  1
  9  7  1  0
  9 10  2  0
 11 12  2  0
 12  2  1  0
 14 13  1  6
 14 15  1  0
 17 16  1  6
 16 14  1  0
 17 18  1  0
 18  9  1  0
 19 17  1  0
 20 19  2  0
 21 22  1  0
 22 24  1  0
 23 22  2  0
 24 25  1  0
 25 26  1  0
 26 27  1  0
 28 27  1  1
 28 29  1  0
 29 19  1  0
 30 31  1  0
 30 28  1  0
 32 30  2  0
M  END
$$$$
