YLR.pdb
     RDKit          3D

 32 32  0  0  1  0  0  0  0  0999 V2000
   22.2169  -25.1763  -24.9377 O   0  0  0  0  0  0  0  0  0  0  0  0
   21.9177  -24.6822  -23.6838 C   0  0  0  0  0  0  0  0  0  0  0  0
   22.0878  -23.3349  -23.3618 C   0  0  0  0  0  0  0  0  0  0  0  0
   21.7664  -22.9107  -22.0825 C   0  0  0  0  0  0  0  0  0  0  0  0
   21.2864  -23.7723  -21.1219 C   0  0  0  0  0  0  0  0  0  0  0  0
   20.9475  -23.3181  -19.7695 C   0  0  0  0  0  0  0  0  0  0  0  0
   22.1300  -22.7215  -19.0289 C   0  0  2  0  0  0  0  0  0  0  0  0
   23.0353  -23.8190  -18.7263 N   0  0  0  0  0  0  0  0  0  0  0  0
   21.6218  -22.2217  -17.7147 C   0  0  0  0  0  0  0  0  0  0  0  0
   21.6958  -23.0162  -16.7416 O   0  0  0  0  0  0  0  0  0  0  0  0
   21.1248  -25.1003  -21.4580 C   0  0  0  0  0  0  0  0  0  0  0  0
   21.4395  -25.5505  -22.7332 C   0  0  0  0  0  0  0  0  0  0  0  0
   22.2306  -16.9701  -15.8845 C   0  0  0  0  0  0  0  0  0  0  0  0
   22.1252  -18.4671  -16.0344 C   0  0  1  0  0  0  0  0  0  0  0  0
   22.8594  -19.0681  -14.8328 C   0  0  0  0  0  0  0  0  0  0  0  0
   20.7434  -19.0022  -16.0683 C   0  0  0  0  0  0  0  0  0  0  0  0
   20.5880  -20.4691  -16.2509 C   0  0  2  0  0  0  0  0  0  0  0  0
   21.0829  -20.9435  -17.5279 N   0  0  0  0  0  0  0  0  0  0  0  0
   19.2248  -20.9892  -15.9851 C   0  0  0  0  0  0  0  0  0  0  0  0
   18.3152  -20.9501  -16.8801 O   0  0  0  0  0  0  0  0  0  0  0  0
   17.0711  -27.7085  -11.1774 N   0  0  0  0  0  0  0  0  0  0  0  0
   17.8474  -26.5078  -11.0464 C   0  0  0  0  0  0  0  0  0  0  0  0
   18.8153  -26.4583  -10.1992 N   0  0  0  0  0  0  0  0  0  0  0  0
   17.5730  -25.3663  -11.8321 N   0  0  0  0  0  0  0  0  0  0  0  0
   16.2626  -25.0894  -12.3673 C   0  0  0  0  0  0  0  0  0  0  0  0
   16.2363  -23.9013  -13.2653 C   0  0  0  0  0  0  0  0  0  0  0  0
   17.5406  -23.2558  -13.5475 C   0  0  0  0  0  0  0  0  0  0  0  0
   17.5268  -22.1016  -14.4906 C   0  0  2  0  0  0  0  0  0  0  0  0
   18.8389  -21.5557  -14.7427 N   0  0  0  0  0  0  0  0  0  0  0  0
   16.5190  -21.0686  -14.2264 C   0  0  0  0  0  0  0  0  0  0  0  0
   15.1837  -21.3649  -14.5612 O   0  0  0  0  0  0  0  0  0  0  0  0
   16.7292  -19.9554  -13.7341 O   0  0  0  0  0  0  0  0  0  0  0  0
  2  1  1  0
  3  2  2  0
  4  3  1  0
  5  4  2  0
  5 11  1  0
  6  5  1  0
  7  6  1  0
  7  8  1  1
  9  7  1  0
  9 10  2  0
 11 12  2  0
 12  2  1  0
 14 13  1  1
 14 15  1  0
 17 16  1  6
 16 14  1  0
 17 18  1  0
 18  9  1  0
 19 17  1  0
 20 19  2  0
 21 22  1  0
 22 24  1  0
 23 22  2  0
 24 25  1  0
 25 26  1  0
 26 27  1  0
 28 27  1  1
 28 29  1  0
 29 19  1  0
 30 31  1  0
 30 28  1  0
 32 30  2  0
M  END
$$$$
