YLR.pdb
     RDKit          3D

 32 32  0  0  1  0  0  0  0  0999 V2000
   28.5239  -16.6401  -20.7424 O   0  0  0  0  0  0  0  0  0  0  0  0
   28.2936  -17.2778  -19.5398 C   0  0  0  0  0  0  0  0  0  0  0  0
   29.1656  -17.1496  -18.4578 C   0  0  0  0  0  0  0  0  0  0  0  0
   28.8696  -17.8194  -17.2815 C   0  0  0  0  0  0  0  0  0  0  0  0
   27.7469  -18.6046  -17.1460 C   0  0  0  0  0  0  0  0  0  0  0  0
   27.4381  -19.3111  -15.8987 C   0  0  0  0  0  0  0  0  0  0  0  0
   28.4708  -20.3636  -15.5403 C   0  0  2  0  0  0  0  0  0  0  0  0
   28.2888  -21.4668  -16.4706 N   0  0  0  0  0  0  0  0  0  0  0  0
   28.1129  -20.8913  -14.1880 C   0  0  0  0  0  0  0  0  0  0  0  0
   27.1838  -21.7388  -14.1402 O   0  0  0  0  0  0  0  0  0  0  0  0
   26.8964  -18.7197  -18.2258 C   0  0  0  0  0  0  0  0  0  0  0  0
   27.1705  -18.0586  -19.4157 C   0  0  0  0  0  0  0  0  0  0  0  0
   31.8260  -20.9857  -10.0185 C   0  0  0  0  0  0  0  0  0  0  0  0
   30.7272  -21.3473  -10.9864 C   0  0  1  0  0  0  0  0  0  0  0  0
   30.6444  -22.8760  -10.9849 C   0  0  0  0  0  0  0  0  0  0  0  0
   29.3912  -20.7947  -10.6595 C   0  0  0  0  0  0  0  0  0  0  0  0
   28.3298  -20.9303  -11.6911 C   0  0  2  0  0  0  0  0  0  0  0  0
   28.7503  -20.4928  -13.0073 N   0  0  0  0  0  0  0  0  0  0  0  0
   27.0246  -20.3287  -11.3251 C   0  0  0  0  0  0  0  0  0  0  0  0
   26.6474  -19.2139  -11.8202 O   0  0  0  0  0  0  0  0  0  0  0  0
   20.7623  -19.1679  -15.5101 N   0  0  0  0  0  0  0  0  0  0  0  0
   20.3165  -19.1096  -14.1466 C   0  0  0  0  0  0  0  0  0  0  0  0
   19.2835  -18.4061  -13.8384 N   0  0  0  0  0  0  0  0  0  0  0  0
   20.9901  -19.8124  -13.1228 N   0  0  0  0  0  0  0  0  0  0  0  0
   22.2506  -20.4791  -13.3392 C   0  0  0  0  0  0  0  0  0  0  0  0
   22.7392  -21.2112  -12.1375 C   0  0  0  0  0  0  0  0  0  0  0  0
   24.2055  -21.2230  -11.9204 C   0  0  0  0  0  0  0  0  0  0  0  0
   24.6838  -20.8606  -10.5559 C   0  0  2  0  0  0  0  0  0  0  0  0
   26.1185  -20.9343  -10.4164 N   0  0  0  0  0  0  0  0  0  0  0  0
   23.9680  -21.4852   -9.4378 C   0  0  0  0  0  0  0  0  0  0  0  0
   22.6518  -21.0518   -9.1877 O   0  0  0  0  0  0  0  0  0  0  0  0
   24.4107  -22.3619   -8.6887 O   0  0  0  0  0  0  0  0  0  0  0  0
  2  1  1  0
  3  2  2  0
  4  3  1  0
  5  4  2  0
  5 11  1  0
  6  5  1  0
  7  6  1  0
  7  8  1  6
  9  7  1  0
  9 10  2  0
 11 12  2  0
 12  2  1  0
 14 13  1  1
 14 15  1  0
 17 16  1  1
 16 14  1  0
 17 18  1  0
 18  9  1  0
 19 17  1  0
 20 19  2  0
 21 22  1  0
 22 24  1  0
 23 22  2  0
 24 25  1  0
 25 26  1  0
 26 27  1  0
 28 27  1  6
 28 29  1  0
 29 19  1  0
 30 31  1  0
 30 28  1  0
 32 30  2  0
M  END
$$$$
