YLR.pdb
     RDKit          3D

 32 32  0  0  1  0  0  0  0  0999 V2000
   21.6324  -15.6821  -22.0886 O   0  0  0  0  0  0  0  0  0  0  0  0
   21.5680  -16.6223  -21.0797 C   0  0  0  0  0  0  0  0  0  0  0  0
   22.2844  -17.8185  -21.1390 C   0  0  0  0  0  0  0  0  0  0  0  0
   22.1707  -18.7152  -20.0888 C   0  0  0  0  0  0  0  0  0  0  0  0
   21.3765  -18.4653  -18.9925 C   0  0  0  0  0  0  0  0  0  0  0  0
   21.2598  -19.4175  -17.8835 C   0  0  0  0  0  0  0  0  0  0  0  0
   22.0696  -19.0136  -16.6654 C   0  0  2  0  0  0  0  0  0  0  0  0
   23.4701  -19.0627  -17.0550 N   0  0  0  0  0  0  0  0  0  0  0  0
   21.8822  -20.0818  -15.6362 C   0  0  0  0  0  0  0  0  0  0  0  0
   22.8029  -20.2173  -14.7890 O   0  0  0  0  0  0  0  0  0  0  0  0
   20.6756  -17.2779  -18.9509 C   0  0  0  0  0  0  0  0  0  0  0  0
   20.7726  -16.3626  -19.9906 C   0  0  0  0  0  0  0  0  0  0  0  0
   19.7637  -17.6362  -12.4271 C   0  0  0  0  0  0  0  0  0  0  0  0
   20.3345  -18.8848  -13.0518 C   0  0  1  0  0  0  0  0  0  0  0  0
   20.6662  -19.8277  -11.8922 C   0  0  0  0  0  0  0  0  0  0  0  0
   19.4336  -19.5860  -13.9971 C   0  0  0  0  0  0  0  0  0  0  0  0
   19.8470  -20.9397  -14.4510 C   0  0  2  0  0  0  0  0  0  0  0  0
   20.7576  -20.9130  -15.5782 N   0  0  0  0  0  0  0  0  0  0  0  0
   18.7293  -21.8833  -14.6955 C   0  0  0  0  0  0  0  0  0  0  0  0
   17.6519  -21.5003  -15.2634 O   0  0  0  0  0  0  0  0  0  0  0  0
   21.7427  -26.6880  -17.7692 N   0  0  0  0  0  0  0  0  0  0  0  0
   21.8007  -27.2428  -16.4463 C   0  0  0  0  0  0  0  0  0  0  0  0
   22.9415  -27.4730  -15.8961 N   0  0  0  0  0  0  0  0  0  0  0  0
   20.6247  -27.5463  -15.7248 N   0  0  0  0  0  0  0  0  0  0  0  0
   19.3082  -27.2148  -16.2120 C   0  0  0  0  0  0  0  0  0  0  0  0
   18.9221  -25.8022  -15.9400 C   0  0  0  0  0  0  0  0  0  0  0  0
   18.0808  -25.5645  -14.7429 C   0  0  0  0  0  0  0  0  0  0  0  0
   17.6615  -24.1571  -14.4873 C   0  0  2  0  0  0  0  0  0  0  0  0
   18.7736  -23.2518  -14.3233 N   0  0  0  0  0  0  0  0  0  0  0  0
   16.6192  -23.9721  -13.4714 C   0  0  0  0  0  0  0  0  0  0  0  0
   15.2804  -24.1213  -13.8817 O   0  0  0  0  0  0  0  0  0  0  0  0
   16.8030  -23.6969  -12.2815 O   0  0  0  0  0  0  0  0  0  0  0  0
  2  1  1  0
  3  2  2  0
  4  3  1  0
  5  4  2  0
  5 11  1  0
  6  5  1  0
  7  6  1  0
  7  8  1  6
  9  7  1  0
  9 10  2  0
 11 12  2  0
 12  2  1  0
 14 13  1  1
 14 15  1  0
 17 16  1  6
 16 14  1  0
 17 18  1  0
 18  9  1  0
 19 17  1  0
 20 19  2  0
 21 22  1  0
 22 24  1  0
 23 22  2  0
 24 25  1  0
 25 26  1  0
 26 27  1  0
 28 27  1  1
 28 29  1  0
 29 19  1  0
 30 31  1  0
 30 28  1  0
 32 30  2  0
M  END
$$$$
