YLR.pdb
     RDKit          3D

 32 32  0  0  1  0  0  0  0  0999 V2000
   18.5555  -13.9500  -15.4104 O   0  0  0  0  0  0  0  0  0  0  0  0
   18.0486  -12.8003  -14.8384 C   0  0  0  0  0  0  0  0  0  0  0  0
   17.0506  -12.0463  -15.4575 C   0  0  0  0  0  0  0  0  0  0  0  0
   16.5903  -10.9033  -14.8238 C   0  0  0  0  0  0  0  0  0  0  0  0
   17.0839  -10.4887  -13.6074 C   0  0  0  0  0  0  0  0  0  0  0  0
   16.5931   -9.2783  -12.9408 C   0  0  0  0  0  0  0  0  0  0  0  0
   15.7074   -9.5757  -11.7451 C   0  0  2  0  0  0  0  0  0  0  0  0
   14.5211  -10.2450  -12.2554 N   0  0  0  0  0  0  0  0  0  0  0  0
   15.2465   -8.2625  -11.1991 C   0  0  0  0  0  0  0  0  0  0  0  0
   14.2910   -7.7053  -11.7993 O   0  0  0  0  0  0  0  0  0  0  0  0
   18.0700  -11.2462  -13.0103 C   0  0  0  0  0  0  0  0  0  0  0  0
   18.5483  -12.3958  -13.6247 C   0  0  0  0  0  0  0  0  0  0  0  0
   13.7042   -7.4359   -6.0962 C   0  0  0  0  0  0  0  0  0  0  0  0
   13.8972   -7.3467   -7.5894 C   0  0  1  0  0  0  0  0  0  0  0  0
   12.6171   -6.7193   -8.1475 C   0  0  0  0  0  0  0  0  0  0  0  0
   15.0586   -6.5371   -8.0283 C   0  0  0  0  0  0  0  0  0  0  0  0
   15.2957   -6.4280   -9.4916 C   0  0  2  0  0  0  0  0  0  0  0  0
   15.8176   -7.6453  -10.0801 N   0  0  0  0  0  0  0  0  0  0  0  0
   16.0990   -5.2525   -9.9069 C   0  0  0  0  0  0  0  0  0  0  0  0
   17.3578   -5.2043   -9.6993 O   0  0  0  0  0  0  0  0  0  0  0  0
   16.3185   -3.2490  -17.7118 N   0  0  0  0  0  0  0  0  0  0  0  0
   16.6350   -4.4790  -17.0423 C   0  0  0  0  0  0  0  0  0  0  0  0
   16.8880   -5.5375  -17.7296 N   0  0  0  0  0  0  0  0  0  0  0  0
   16.6762   -4.5583  -15.6324 N   0  0  0  0  0  0  0  0  0  0  0  0
   16.4339   -3.4176  -14.7836 C   0  0  0  0  0  0  0  0  0  0  0  0
   16.5658   -3.7290  -13.3330 C   0  0  0  0  0  0  0  0  0  0  0  0
   16.2121   -2.6431  -12.3880 C   0  0  0  0  0  0  0  0  0  0  0  0
   16.3109   -2.9608  -10.9350 C   0  0  2  0  0  0  0  0  0  0  0  0
   15.5395   -4.1186  -10.5508 N   0  0  0  0  0  0  0  0  0  0  0  0
   16.1388   -1.8291  -10.0172 C   0  0  0  0  0  0  0  0  0  0  0  0
   16.9986   -0.7259  -10.1800 O   0  0  0  0  0  0  0  0  0  0  0  0
   15.3059   -1.7486   -9.1086 O   0  0  0  0  0  0  0  0  0  0  0  0
  2  1  1  0
  3  2  2  0
  4  3  1  0
  5  4  2  0
  5 11  1  0
  6  5  1  0
  7  6  1  0
  7  8  1  6
  9  7  1  0
  9 10  2  0
 11 12  2  0
 12  2  1  0
 14 13  1  1
 14 15  1  0
 17 16  1  1
 16 14  1  0
 17 18  1  0
 18  9  1  0
 19 17  1  0
 20 19  2  0
 21 22  1  0
 22 24  1  0
 23 22  2  0
 24 25  1  0
 25 26  1  0
 26 27  1  0
 28 27  1  6
 28 29  1  0
 29 19  1  0
 30 31  1  0
 30 28  1  0
 32 30  2  0
M  END
$$$$
