YLR.pdb
     RDKit          3D

 32 32  0  0  1  0  0  0  0  0999 V2000
   29.1949  -16.6354  -18.8542 O   0  0  0  0  0  0  0  0  0  0  0  0
   28.6238  -17.2519  -17.7589 C   0  0  0  0  0  0  0  0  0  0  0  0
   29.1008  -17.0449  -16.4638 C   0  0  0  0  0  0  0  0  0  0  0  0
   28.4774  -17.6978  -15.4126 C   0  0  0  0  0  0  0  0  0  0  0  0
   27.4063  -18.5413  -15.6038 C   0  0  0  0  0  0  0  0  0  0  0  0
   26.7499  -19.2297  -14.4878 C   0  0  0  0  0  0  0  0  0  0  0  0
   27.6603  -20.2154  -13.7791 C   0  0  2  0  0  0  0  0  0  0  0  0
   27.9184  -21.2987  -14.7147 N   0  0  0  0  0  0  0  0  0  0  0  0
   26.8765  -20.8104  -12.6535 C   0  0  0  0  0  0  0  0  0  0  0  0
   26.2024  -21.8399  -12.9170 O   0  0  0  0  0  0  0  0  0  0  0  0
   26.9484  -18.7341  -16.8906 C   0  0  0  0  0  0  0  0  0  0  0  0
   27.5558  -18.0914  -17.9611 C   0  0  0  0  0  0  0  0  0  0  0  0
   27.9850  -19.4527   -7.3858 C   0  0  0  0  0  0  0  0  0  0  0  0
   27.6505  -20.1270   -8.6927 C   0  0  1  0  0  0  0  0  0  0  0  0
   28.2457  -21.5351   -8.6100 C   0  0  0  0  0  0  0  0  0  0  0  0
   26.2034  -20.2353   -8.9947 C   0  0  0  0  0  0  0  0  0  0  0  0
   25.8255  -20.5847  -10.3892 C   0  0  2  0  0  0  0  0  0  0  0  0
   26.8622  -20.2845  -11.3564 N   0  0  0  0  0  0  0  0  0  0  0  0
   24.5159  -20.0483  -10.8329 C   0  0  0  0  0  0  0  0  0  0  0  0
   24.4432  -19.1024  -11.6873 O   0  0  0  0  0  0  0  0  0  0  0  0
   19.4285  -24.1935  -14.4462 N   0  0  0  0  0  0  0  0  0  0  0  0
   19.1586  -23.0504  -15.2719 C   0  0  0  0  0  0  0  0  0  0  0  0
   18.0020  -22.9130  -15.8200 N   0  0  0  0  0  0  0  0  0  0  0  0
   20.1409  -22.0612  -15.5009 N   0  0  0  0  0  0  0  0  0  0  0  0
   21.3431  -21.9638  -14.7100 C   0  0  0  0  0  0  0  0  0  0  0  0
   21.1069  -21.3942  -13.3541 C   0  0  0  0  0  0  0  0  0  0  0  0
   22.2976  -21.2383  -12.4850 C   0  0  0  0  0  0  0  0  0  0  0  0
   22.0779  -20.6012  -11.1554 C   0  0  2  0  0  0  0  0  0  0  0  0
   23.2739  -20.5357  -10.3501 N   0  0  0  0  0  0  0  0  0  0  0  0
   20.9080  -21.0701  -10.4043 C   0  0  0  0  0  0  0  0  0  0  0  0
   19.6577  -20.5155  -10.7392 O   0  0  0  0  0  0  0  0  0  0  0  0
   20.9127  -21.9114   -9.5000 O   0  0  0  0  0  0  0  0  0  0  0  0
  2  1  1  0
  3  2  2  0
  4  3  1  0
  5  4  2  0
  5 11  1  0
  6  5  1  0
  7  6  1  0
  7  8  1  6
  9  7  1  0
  9 10  2  0
 11 12  2  0
 12  2  1  0
 14 13  1  1
 14 15  1  0
 17 16  1  1
 16 14  1  0
 17 18  1  0
 18  9  1  0
 19 17  1  0
 20 19  2  0
 21 22  1  0
 22 24  1  0
 23 22  2  0
 24 25  1  0
 25 26  1  0
 26 27  1  0
 28 27  1  6
 28 29  1  0
 29 19  1  0
 30 31  1  0
 30 28  1  0
 32 30  2  0
M  END
$$$$
