YLR.pdb
     RDKit          3D

 32 32  0  0  1  0  0  0  0  0999 V2000
   12.7919  -14.5841  -17.8207 O   0  0  0  0  0  0  0  0  0  0  0  0
   13.6711  -13.6049  -17.4035 C   0  0  0  0  0  0  0  0  0  0  0  0
   13.2902  -12.6039  -16.5088 C   0  0  0  0  0  0  0  0  0  0  0  0
   14.2270  -11.6539  -16.1347 C   0  0  0  0  0  0  0  0  0  0  0  0
   15.5169  -11.6655  -16.6153 C   0  0  0  0  0  0  0  0  0  0  0  0
   16.5046  -10.6579  -16.2160 C   0  0  0  0  0  0  0  0  0  0  0  0
   17.5125  -11.1799  -15.2088 C   0  0  2  0  0  0  0  0  0  0  0  0
   16.7908  -11.3992  -13.9651 N   0  0  0  0  0  0  0  0  0  0  0  0
   18.4833  -10.0748  -14.9418 C   0  0  0  0  0  0  0  0  0  0  0  0
   18.1874   -9.2743  -14.0169 O   0  0  0  0  0  0  0  0  0  0  0  0
   15.8757  -12.6623  -17.4988 C   0  0  0  0  0  0  0  0  0  0  0  0
   14.9556  -13.6260  -17.8893 C   0  0  0  0  0  0  0  0  0  0  0  0
   24.0087  -10.7629  -15.2996 C   0  0  0  0  0  0  0  0  0  0  0  0
   22.5791  -10.4189  -14.9640 C   0  0  1  0  0  0  0  0  0  0  0  0
   22.5465  -10.1585  -13.4557 C   0  0  0  0  0  0  0  0  0  0  0  0
   22.0335   -9.2335  -15.6669 C   0  0  0  0  0  0  0  0  0  0  0  0
   20.6298   -8.8508  -15.3631 C   0  0  2  0  0  0  0  0  0  0  0  0
   19.6733   -9.8991  -15.6575 N   0  0  0  0  0  0  0  0  0  0  0  0
   20.1957   -7.5586  -15.9476 C   0  0  0  0  0  0  0  0  0  0  0  0
   19.4232   -7.5177  -16.9632 O   0  0  0  0  0  0  0  0  0  0  0  0
   13.5340   -3.2643  -16.5125 N   0  0  0  0  0  0  0  0  0  0  0  0
   14.4788   -2.1913  -16.6441 C   0  0  0  0  0  0  0  0  0  0  0  0
   14.0640   -0.9963  -16.8823 N   0  0  0  0  0  0  0  0  0  0  0  0
   15.8678   -2.4160  -16.5176 N   0  0  0  0  0  0  0  0  0  0  0  0
   16.4201   -3.7161  -16.2262 C   0  0  0  0  0  0  0  0  0  0  0  0
   17.9095   -3.7278  -16.2053 C   0  0  0  0  0  0  0  0  0  0  0  0
   18.5567   -5.0193  -15.8731 C   0  0  0  0  0  0  0  0  0  0  0  0
   20.0471   -5.0432  -15.8800 C   0  0  2  0  0  0  0  0  0  0  0  0
   20.5992   -6.2995  -15.4326 N   0  0  0  0  0  0  0  0  0  0  0  0
   20.7107   -3.8809  -15.2790 C   0  0  0  0  0  0  0  0  0  0  0  0
   20.7048   -2.6795  -16.0135 O   0  0  0  0  0  0  0  0  0  0  0  0
   21.2780   -3.8528  -14.1822 O   0  0  0  0  0  0  0  0  0  0  0  0
  2  1  1  0
  3  2  2  0
  4  3  1  0
  5  4  2  0
  5 11  1  0
  6  5  1  0
  7  6  1  0
  7  8  1  1
  9  7  1  0
  9 10  2  0
 11 12  2  0
 12  2  1  0
 14 13  1  6
 14 15  1  0
 17 16  1  6
 16 14  1  0
 17 18  1  0
 18  9  1  0
 19 17  1  0
 20 19  2  0
 21 22  1  0
 22 24  1  0
 23 22  2  0
 24 25  1  0
 25 26  1  0
 26 27  1  0
 28 27  1  1
 28 29  1  0
 29 19  1  0
 30 31  1  0
 30 28  1  0
 32 30  2  0
M  END
$$$$
