QIL.pdb
     RDKit          3D

 26 25  0  0  1  0  0  0  0  0999 V2000
   27.5517  -16.9326  -14.9564 N   0  0  0  0  0  0  0  0  0  0  0  0
   28.2076  -17.2944  -16.1886 C   0  0  0  0  0  0  0  0  0  0  0  0
   29.1728  -16.5893  -16.5189 O   0  0  0  0  0  0  0  0  0  0  0  0
   27.6614  -18.4484  -16.9061 C   0  0  0  0  0  0  0  0  0  0  0  0
   26.7148  -19.2665  -16.0879 C   0  0  0  0  0  0  0  0  0  0  0  0
   27.4069  -20.2117  -15.1660 C   0  0  2  0  0  0  0  0  0  0  0  0
   28.1017  -21.2766  -15.8533 N   0  0  0  0  0  0  0  0  0  0  0  0
   26.3450  -20.8460  -14.3066 C   0  0  0  0  0  0  0  0  0  0  0  0
   25.6627  -21.8181  -14.7273 O   0  0  0  0  0  0  0  0  0  0  0  0
   26.7824  -20.6775   -8.7692 C   0  0  0  0  0  0  0  0  0  0  0  0
   26.5343  -21.1396  -10.1737 C   0  0  0  0  0  0  0  0  0  0  0  0
   25.2156  -20.6194  -10.7057 C   0  0  2  0  0  0  0  0  0  0  0  0
   24.0619  -21.0467   -9.8344 C   0  0  0  0  0  0  0  0  0  0  0  0
   25.0199  -20.9216  -12.1548 C   0  0  2  0  0  0  0  0  0  0  0  0
   26.0633  -20.3856  -12.9952 N   0  0  0  0  0  0  0  0  0  0  0  0
   23.7204  -20.3118  -12.5695 C   0  0  0  0  0  0  0  0  0  0  0  0
   23.5164  -19.0697  -12.4410 O   0  0  0  0  0  0  0  0  0  0  0  0
   20.7576  -19.5676  -17.3634 C   0  0  0  0  0  0  0  0  0  0  0  0
   20.4734  -19.7798  -15.8800 C   0  0  1  0  0  0  0  0  0  0  0  0
   19.3598  -20.8379  -15.8373 C   0  0  0  0  0  0  0  0  0  0  0  0
   21.6550  -20.3839  -15.2094 C   0  0  0  0  0  0  0  0  0  0  0  0
   21.5190  -20.5055  -13.7133 C   0  0  2  0  0  0  0  0  0  0  0  0
   22.6868  -21.1163  -13.1174 N   0  0  0  0  0  0  0  0  0  0  0  0
   20.3097  -21.2060  -13.2904 C   0  0  0  0  0  0  0  0  0  0  0  0
   19.2554  -20.5496  -13.1019 O   0  0  0  0  0  0  0  0  0  0  0  0
   20.2425  -22.5742  -13.0781 O   0  0  0  0  0  0  0  0  0  0  0  0
  2  1  1  0
  3  2  2  0
  4  2  1  0
  5  4  1  0
  6  7  1  6
  6  5  1  0
  8  6  1  0
  9  8  2  0
 10 11  1  0
 12 14  1  0
 12 11  1  0
 12 13  1  1
 14 15  1  6
 15  8  1  0
 16 17  2  0
 16 14  1  0
 19 20  1  6
 19 18  1  0
 21 19  1  0
 22 21  1  6
 22 23  1  0
 23 16  1  0
 24 22  1  0
 25 24  2  0
 26 24  1  0
M  END
$$$$
