QIL.pdb
     RDKit          3D

 26 25  0  0  1  0  0  0  0  0999 V2000
   18.9051  -18.0143  -15.9108 N   0  0  0  0  0  0  0  0  0  0  0  0
   19.5297  -16.7523  -16.2218 C   0  0  0  0  0  0  0  0  0  0  0  0
   18.7630  -15.7921  -16.3894 O   0  0  0  0  0  0  0  0  0  0  0  0
   20.9920  -16.7486  -16.3037 C   0  0  0  0  0  0  0  0  0  0  0  0
   21.6099  -18.0761  -16.0022 C   0  0  0  0  0  0  0  0  0  0  0  0
   22.8773  -18.3132  -16.7506 C   0  0  2  0  0  0  0  0  0  0  0  0
   22.6657  -18.7881  -18.0993 N   0  0  0  0  0  0  0  0  0  0  0  0
   23.6336  -19.3835  -16.0082 C   0  0  0  0  0  0  0  0  0  0  0  0
   23.2892  -20.5932  -16.0818 O   0  0  0  0  0  0  0  0  0  0  0  0
   28.7831  -20.2193  -16.3841 C   0  0  0  0  0  0  0  0  0  0  0  0
   27.3033  -20.2753  -16.1497 C   0  0  0  0  0  0  0  0  0  0  0  0
   26.9614  -20.0398  -14.6936 C   0  0  2  0  0  0  0  0  0  0  0  0
   27.7553  -20.9455  -13.7869 C   0  0  0  0  0  0  0  0  0  0  0  0
   25.4910  -20.0683  -14.4356 C   0  0  2  0  0  0  0  0  0  0  0  0
   24.7590  -19.0859  -15.1982 N   0  0  0  0  0  0  0  0  0  0  0  0
   25.2841  -19.7872  -12.9827 C   0  0  0  0  0  0  0  0  0  0  0  0
   25.6811  -18.7011  -12.4692 O   0  0  0  0  0  0  0  0  0  0  0  0
   20.6415  -20.6813  -10.6469 C   0  0  0  0  0  0  0  0  0  0  0  0
   22.0038  -20.0860  -10.9877 C   0  0  1  0  0  0  0  0  0  0  0  0
   21.9713  -18.6638  -10.4064 C   0  0  0  0  0  0  0  0  0  0  0  0
   23.0803  -20.8127  -10.2640 C   0  0  0  0  0  0  0  0  0  0  0  0
   24.4728  -20.4788  -10.7343 C   0  0  2  0  0  0  0  0  0  0  0  0
   24.6365  -20.7358  -12.1483 N   0  0  0  0  0  0  0  0  0  0  0  0
   25.5240  -21.1478   -9.9730 C   0  0  0  0  0  0  0  0  0  0  0  0
   26.0568  -22.1835  -10.4433 O   0  0  0  0  0  0  0  0  0  0  0  0
   25.9848  -20.7101   -8.7411 O   0  0  0  0  0  0  0  0  0  0  0  0
  2  1  1  0
  3  2  2  0
  4  2  1  0
  5  4  1  0
  6  7  1  6
  6  5  1  0
  8  6  1  0
  9  8  2  0
 10 11  1  0
 12 14  1  0
 12 11  1  0
 12 13  1  1
 14 15  1  6
 15  8  1  0
 16 17  2  0
 16 14  1  0
 19 20  1  1
 19 18  1  0
 21 19  1  0
 22 21  1  1
 22 23  1  0
 23 16  1  0
 24 22  1  0
 25 24  2  0
 26 24  1  0
M  END
$$$$
