QIL.pdb
     RDKit          3D

 26 25  0  0  1  0  0  0  0  0999 V2000
   22.8075  -24.0115  -14.0522 N   0  0  0  0  0  0  0  0  0  0  0  0
   21.5809  -23.7365  -13.3455 C   0  0  0  0  0  0  0  0  0  0  0  0
   20.6693  -24.5638  -13.4950 O   0  0  0  0  0  0  0  0  0  0  0  0
   21.5520  -22.5168  -12.5353 C   0  0  0  0  0  0  0  0  0  0  0  0
   22.7996  -21.7002  -12.6413 C   0  0  0  0  0  0  0  0  0  0  0  0
   22.7602  -20.7168  -13.7611 C   0  0  2  0  0  0  0  0  0  0  0  0
   22.5410  -21.3280  -15.0525 N   0  0  0  0  0  0  0  0  0  0  0  0
   24.1063  -20.0425  -13.8030 C   0  0  0  0  0  0  0  0  0  0  0  0
   24.5503  -19.4144  -12.8051 O   0  0  0  0  0  0  0  0  0  0  0  0
   27.5665  -22.6906  -16.0034 C   0  0  0  0  0  0  0  0  0  0  0  0
   27.5327  -21.5377  -15.0456 C   0  0  0  0  0  0  0  0  0  0  0  0
   27.2451  -20.2321  -15.7563 C   0  0  2  0  0  0  0  0  0  0  0  0
   28.5143  -19.4762  -16.0570 C   0  0  0  0  0  0  0  0  0  0  0  0
   26.2076  -19.4142  -15.0605 C   0  0  2  0  0  0  0  0  0  0  0  0
   24.9320  -20.0805  -14.9553 N   0  0  0  0  0  0  0  0  0  0  0  0
   26.0206  -18.1595  -15.8500 C   0  0  0  0  0  0  0  0  0  0  0  0
   25.3972  -18.1726  -16.9510 O   0  0  0  0  0  0  0  0  0  0  0  0
   27.2508  -12.8848  -16.8599 C   0  0  0  0  0  0  0  0  0  0  0  0
   26.1259  -13.1972  -15.8784 C   0  0  1  0  0  0  0  0  0  0  0  0
   24.8816  -13.4069  -16.7556 C   0  0  0  0  0  0  0  0  0  0  0  0
   26.3825  -14.4921  -15.1943 C   0  0  0  0  0  0  0  0  0  0  0  0
   26.2754  -15.6963  -16.0945 C   0  0  2  0  0  0  0  0  0  0  0  0
   26.5401  -16.9250  -15.3789 N   0  0  0  0  0  0  0  0  0  0  0  0
   27.1155  -15.6131  -17.2859 C   0  0  0  0  0  0  0  0  0  0  0  0
   28.3383  -15.8850  -17.1938 O   0  0  0  0  0  0  0  0  0  0  0  0
   26.6474  -15.2474  -18.5384 O   0  0  0  0  0  0  0  0  0  0  0  0
  2  1  1  0
  3  2  2  0
  4  2  1  0
  5  4  1  0
  6  7  1  6
  6  5  1  0
  8  6  1  0
  9  8  2  0
 10 11  1  0
 12 14  1  0
 12 11  1  0
 12 13  1  1
 14 15  1  6
 15  8  1  0
 16 17  2  0
 16 14  1  0
 19 20  1  6
 19 18  1  0
 21 19  1  0
 22 21  1  1
 22 23  1  0
 23 16  1  0
 24 22  1  0
 25 24  2  0
 26 24  1  0
M  END
$$$$
