QIL.pdb
     RDKit          3D

 26 25  0  0  1  0  0  0  0  0999 V2000
   18.0566   -8.2035  -21.0900 N   0  0  0  0  0  0  0  0  0  0  0  0
   18.4501   -9.5052  -21.5699 C   0  0  0  0  0  0  0  0  0  0  0  0
   18.3510   -9.6874  -22.7926 O   0  0  0  0  0  0  0  0  0  0  0  0
   18.9199  -10.4593  -20.5630 C   0  0  0  0  0  0  0  0  0  0  0  0
   18.9852   -9.8873  -19.1834 C   0  0  0  0  0  0  0  0  0  0  0  0
   19.4780  -10.8630  -18.1698 C   0  0  2  0  0  0  0  0  0  0  0  0
   18.5887  -11.9859  -17.9760 N   0  0  0  0  0  0  0  0  0  0  0  0
   19.5696  -10.1278  -16.8585 C   0  0  0  0  0  0  0  0  0  0  0  0
   18.5848  -10.0704  -16.0748 O   0  0  0  0  0  0  0  0  0  0  0  0
   22.5701   -9.3517  -11.8523 C   0  0  0  0  0  0  0  0  0  0  0  0
   21.8606   -8.5784  -12.9230 C   0  0  0  0  0  0  0  0  0  0  0  0
   21.7522   -9.3754  -14.2058 C   0  0  2  0  0  0  0  0  0  0  0  0
   23.1110   -9.7635  -14.7309 C   0  0  0  0  0  0  0  0  0  0  0  0
   20.8801   -8.7148  -15.2220 C   0  0  2  0  0  0  0  0  0  0  0  0
   20.7563   -9.4705  -16.4451 N   0  0  0  0  0  0  0  0  0  0  0  0
   21.4914   -7.3904  -15.5459 C   0  0  0  0  0  0  0  0  0  0  0  0
   22.1588   -7.2263  -16.6082 O   0  0  0  0  0  0  0  0  0  0  0  0
   22.4479   -3.2990  -17.7356 C   0  0  0  0  0  0  0  0  0  0  0  0
   21.1774   -3.2347  -16.8942 C   0  0  1  0  0  0  0  0  0  0  0  0
   20.0595   -2.8891  -17.8904 C   0  0  0  0  0  0  0  0  0  0  0  0
   20.8530   -4.5781  -16.3458 C   0  0  0  0  0  0  0  0  0  0  0  0
   21.6351   -4.9446  -15.1106 C   0  0  2  0  0  0  0  0  0  0  0  0
   21.3347   -6.2876  -14.6655 N   0  0  0  0  0  0  0  0  0  0  0  0
   21.4703   -3.9980  -14.0111 C   0  0  0  0  0  0  0  0  0  0  0  0
   20.4815   -4.1142  -13.2453 O   0  0  0  0  0  0  0  0  0  0  0  0
   22.3481   -2.9578  -13.7479 O   0  0  0  0  0  0  0  0  0  0  0  0
  2  1  1  0
  3  2  2  0
  4  2  1  0
  5  4  1  0
  6  7  1  1
  6  5  1  0
  8  6  1  0
  9  8  2  0
 10 11  1  0
 12 14  1  0
 12 11  1  0
 12 13  1  6
 14 15  1  6
 15  8  1  0
 16 17  2  0
 16 14  1  0
 19 20  1  6
 19 18  1  0
 21 19  1  0
 22 21  1  6
 22 23  1  0
 23 16  1  0
 24 22  1  0
 25 24  2  0
 26 24  1  0
M  END
$$$$
