QIL.pdb
     RDKit          3D

 26 25  0  0  1  0  0  0  0  0999 V2000
   44.1225  -10.1122   -5.0269 N   0  0  0  0  0  0  0  0  0  0  0  0
   45.5226  -10.3973   -5.2221 C   0  0  0  0  0  0  0  0  0  0  0  0
   46.1023  -10.9517   -4.2764 O   0  0  0  0  0  0  0  0  0  0  0  0
   46.0975  -10.0014   -6.5096 C   0  0  0  0  0  0  0  0  0  0  0  0
   45.0964   -9.4248   -7.4583 C   0  0  0  0  0  0  0  0  0  0  0  0
   44.3632  -10.4642   -8.2358 C   0  0  2  0  0  0  0  0  0  0  0  0
   45.2212  -11.2484   -9.0948 N   0  0  0  0  0  0  0  0  0  0  0  0
   43.3790   -9.7420   -9.1180 C   0  0  0  0  0  0  0  0  0  0  0  0
   43.7347   -9.2489  -10.2216 O   0  0  0  0  0  0  0  0  0  0  0  0
   39.8348  -12.2774  -10.2542 C   0  0  0  0  0  0  0  0  0  0  0  0
   40.2472  -10.9552  -10.8283 C   0  0  0  0  0  0  0  0  0  0  0  0
   39.8684   -9.8092   -9.9140 C   0  0  2  0  0  0  0  0  0  0  0  0
   38.6698   -9.0592  -10.4368 C   0  0  0  0  0  0  0  0  0  0  0  0
   41.0292   -8.9315   -9.5798 C   0  0  2  0  0  0  0  0  0  0  0  0
   42.0176   -9.5826   -8.7544 N   0  0  0  0  0  0  0  0  0  0  0  0
   40.4989   -7.7489   -8.8363 C   0  0  0  0  0  0  0  0  0  0  0  0
   39.9017   -7.8924   -7.7301 O   0  0  0  0  0  0  0  0  0  0  0  0
   43.2426   -3.0295   -8.7024 C   0  0  0  0  0  0  0  0  0  0  0  0
   42.4344   -4.3005   -8.4618 C   0  0  1  0  0  0  0  0  0  0  0  0
   42.4772   -4.5152   -6.9407 C   0  0  0  0  0  0  0  0  0  0  0  0
   41.0075   -4.0797   -8.8164 C   0  0  0  0  0  0  0  0  0  0  0  0
   40.1337   -5.2952   -8.6408 C   0  0  2  0  0  0  0  0  0  0  0  0
   40.6552   -6.4377   -9.3581 N   0  0  0  0  0  0  0  0  0  0  0  0
   38.7362   -5.0680   -8.9975 C   0  0  0  0  0  0  0  0  0  0  0  0
   38.0424   -4.2922   -8.2943 O   0  0  0  0  0  0  0  0  0  0  0  0
   38.1083   -5.6615  -10.0816 O   0  0  0  0  0  0  0  0  0  0  0  0
  2  1  1  0
  3  2  2  0
  4  2  1  0
  5  4  1  0
  6  7  1  6
  6  5  1  0
  8  6  1  0
  9  8  2  0
 10 11  1  0
 12 14  1  0
 12 11  1  0
 12 13  1  6
 14 15  1  1
 15  8  1  0
 16 17  2  0
 16 14  1  0
 19 20  1  1
 19 18  1  0
 21 19  1  0
 22 21  1  6
 22 23  1  0
 23 16  1  0
 24 22  1  0
 25 24  2  0
 26 24  1  0
M  END
$$$$
