QIL.pdb
     RDKit          3D

 26 25  0  0  1  0  0  0  0  0999 V2000
   21.2227  -21.7886  -12.8121 N   0  0  0  0  0  0  0  0  0  0  0  0
   20.8706  -20.4132  -12.5593 C   0  0  0  0  0  0  0  0  0  0  0  0
   19.8404  -20.0040  -13.1153 O   0  0  0  0  0  0  0  0  0  0  0  0
   21.7660  -19.6600  -11.6785 C   0  0  0  0  0  0  0  0  0  0  0  0
   22.8312  -20.5000  -11.0506 C   0  0  0  0  0  0  0  0  0  0  0  0
   24.1246  -20.4516  -11.7905 C   0  0  2  0  0  0  0  0  0  0  0  0
   24.1047  -21.1981  -13.0280 N   0  0  0  0  0  0  0  0  0  0  0  0
   25.1651  -21.0794  -10.9006 C   0  0  0  0  0  0  0  0  0  0  0  0
   25.1022  -22.2977  -10.5859 O   0  0  0  0  0  0  0  0  0  0  0  0
   31.0221  -21.6434  -10.2347 C   0  0  0  0  0  0  0  0  0  0  0  0
   29.7245  -21.5983   -9.4850 C   0  0  0  0  0  0  0  0  0  0  0  0
   28.6260  -20.9640  -10.3117 C   0  0  2  0  0  0  0  0  0  0  0  0
   29.0605  -19.6379  -10.8823 C   0  0  0  0  0  0  0  0  0  0  0  0
   27.3202  -20.9100   -9.5897 C   0  0  2  0  0  0  0  0  0  0  0  0
   26.2556  -20.3383  -10.3784 N   0  0  0  0  0  0  0  0  0  0  0  0
   27.5136  -20.0630   -8.3741 C   0  0  0  0  0  0  0  0  0  0  0  0
   27.3042  -18.8157   -8.4124 O   0  0  0  0  0  0  0  0  0  0  0  0
   26.4371  -21.9580   -3.3377 C   0  0  0  0  0  0  0  0  0  0  0  0
   26.5624  -21.1063   -4.5968 C   0  0  1  0  0  0  0  0  0  0  0  0
   25.6219  -19.9136   -4.3636 C   0  0  0  0  0  0  0  0  0  0  0  0
   27.9351  -20.5457   -4.7062 C   0  0  0  0  0  0  0  0  0  0  0  0
   28.1997  -19.8111   -5.9955 C   0  0  2  0  0  0  0  0  0  0  0  0
   27.9371  -20.6428   -7.1493 N   0  0  0  0  0  0  0  0  0  0  0  0
   29.5403  -19.2385   -6.0785 C   0  0  0  0  0  0  0  0  0  0  0  0
   29.7761  -18.1448   -5.5076 O   0  0  0  0  0  0  0  0  0  0  0  0
   30.5936  -19.8307   -6.7579 O   0  0  0  0  0  0  0  0  0  0  0  0
  2  1  1  0
  3  2  2  0
  4  2  1  0
  5  4  1  0
  6  7  1  6
  6  5  1  0
  8  6  1  0
  9  8  2  0
 10 11  1  0
 12 14  1  0
 12 11  1  0
 12 13  1  1
 14 15  1  6
 15  8  1  0
 16 17  2  0
 16 14  1  0
 19 20  1  1
 19 18  1  0
 21 19  1  0
 22 21  1  1
 22 23  1  0
 23 16  1  0
 24 22  1  0
 25 24  2  0
 26 24  1  0
M  END
$$$$
