QIL.pdb
     RDKit          3D

 26 25  0  0  1  0  0  0  0  0999 V2000
   22.0259  -17.5572  -15.6865 N   0  0  0  0  0  0  0  0  0  0  0  0
   20.6739  -18.0371  -15.8325 C   0  0  0  0  0  0  0  0  0  0  0  0
   19.9230  -17.3439  -16.5349 O   0  0  0  0  0  0  0  0  0  0  0  0
   20.3434  -19.2833  -15.1376 C   0  0  0  0  0  0  0  0  0  0  0  0
   21.4881  -19.8587  -14.3673 C   0  0  0  0  0  0  0  0  0  0  0  0
   22.5091  -20.5089  -15.2376 C   0  0  2  0  0  0  0  0  0  0  0  0
   21.9921  -21.6325  -15.9857 N   0  0  0  0  0  0  0  0  0  0  0  0
   23.5933  -21.0300  -14.3313 C   0  0  0  0  0  0  0  0  0  0  0  0
   23.4478  -22.1086  -13.6965 O   0  0  0  0  0  0  0  0  0  0  0  0
   28.8329  -20.6861  -15.6630 C   0  0  0  0  0  0  0  0  0  0  0  0
   27.4717  -21.0443  -15.1467 C   0  0  0  0  0  0  0  0  0  0  0  0
   27.2362  -20.4809  -13.7611 C   0  0  2  0  0  0  0  0  0  0  0  0
   28.3350  -20.8800  -12.8091 C   0  0  0  0  0  0  0  0  0  0  0  0
   25.8630  -20.7664  -13.2492 C   0  0  2  0  0  0  0  0  0  0  0  0
   24.8187  -20.3399  -14.1492 N   0  0  0  0  0  0  0  0  0  0  0  0
   25.7026  -20.0309  -11.9585 C   0  0  0  0  0  0  0  0  0  0  0  0
   25.7103  -18.7661  -11.9273 O   0  0  0  0  0  0  0  0  0  0  0  0
   21.9065  -21.5243   -8.5634 C   0  0  0  0  0  0  0  0  0  0  0  0
   22.9312  -20.7946   -9.4258 C   0  0  1  0  0  0  0  0  0  0  0  0
   22.3608  -19.3791   -9.6066 C   0  0  0  0  0  0  0  0  0  0  0  0
   24.2124  -20.6417   -8.6869 C   0  0  0  0  0  0  0  0  0  0  0  0
   25.3224  -20.0257   -9.4994 C   0  0  2  0  0  0  0  0  0  0  0  0
   25.5381  -20.7390  -10.7390 N   0  0  0  0  0  0  0  0  0  0  0  0
   26.5786  -19.8915   -8.7672 C   0  0  0  0  0  0  0  0  0  0  0  0
   27.5625  -20.5961   -9.1038 O   0  0  0  0  0  0  0  0  0  0  0  0
   26.7650  -19.0218   -7.7039 O   0  0  0  0  0  0  0  0  0  0  0  0
  2  1  1  0
  3  2  2  0
  4  2  1  0
  5  4  1  0
  6  7  1  1
  6  5  1  0
  8  6  1  0
  9  8  2  0
 10 11  1  0
 12 14  1  0
 12 11  1  0
 12 13  1  1
 14 15  1  6
 15  8  1  0
 16 17  2  0
 16 14  1  0
 19 20  1  1
 19 18  1  0
 21 19  1  0
 22 21  1  1
 22 23  1  0
 23 16  1  0
 24 22  1  0
 25 24  2  0
 26 24  1  0
M  END
$$$$
