QIL.pdb
     RDKit          3D

 26 25  0  0  1  0  0  0  0  0999 V2000
   19.5428  -19.3717  -14.0275 N   0  0  0  0  0  0  0  0  0  0  0  0
   20.2858  -18.5370  -13.1160 C   0  0  0  0  0  0  0  0  0  0  0  0
   20.7217  -17.4742  -13.5834 O   0  0  0  0  0  0  0  0  0  0  0  0
   20.4400  -19.0375  -11.7483 C   0  0  0  0  0  0  0  0  0  0  0  0
   21.4337  -20.1477  -11.6275 C   0  0  0  0  0  0  0  0  0  0  0  0
   22.7046  -19.8754  -12.3577 C   0  0  2  0  0  0  0  0  0  0  0  0
   22.6384  -20.2024  -13.7641 N   0  0  0  0  0  0  0  0  0  0  0  0
   23.7639  -20.7500  -11.7398 C   0  0  0  0  0  0  0  0  0  0  0  0
   23.7141  -22.0045  -11.8448 O   0  0  0  0  0  0  0  0  0  0  0  0
   28.0325  -21.0895  -13.8086 C   0  0  0  0  0  0  0  0  0  0  0  0
   26.8228  -21.1573  -12.9255 C   0  0  0  0  0  0  0  0  0  0  0  0
   27.1730  -20.8759  -11.4796 C   0  0  2  0  0  0  0  0  0  0  0  0
   28.3609  -21.6888  -11.0312 C   0  0  0  0  0  0  0  0  0  0  0  0
   25.9934  -20.9815  -10.5704 C   0  0  2  0  0  0  0  0  0  0  0  0
   24.8582  -20.2106  -11.0170 N   0  0  0  0  0  0  0  0  0  0  0  0
   26.4120  -20.4712   -9.2299 C   0  0  0  0  0  0  0  0  0  0  0  0
   27.0834  -19.4041   -9.1227 O   0  0  0  0  0  0  0  0  0  0  0  0
   28.1633  -18.0455   -5.0028 C   0  0  0  0  0  0  0  0  0  0  0  0
   28.0891  -18.8387   -6.3034 C   0  0  1  0  0  0  0  0  0  0  0  0
   29.0626  -20.0116   -6.1082 C   0  0  0  0  0  0  0  0  0  0  0  0
   26.7372  -19.4357   -6.4674 C   0  0  0  0  0  0  0  0  0  0  0  0
   26.7492  -20.9050   -6.8030 C   0  0  2  0  0  0  0  0  0  0  0  0
   26.0637  -21.1757   -8.0475 N   0  0  0  0  0  0  0  0  0  0  0  0
   26.2198  -21.7528   -5.7385 C   0  0  0  0  0  0  0  0  0  0  0  0
   24.9882  -21.9969   -5.7046 O   0  0  0  0  0  0  0  0  0  0  0  0
   26.9987  -22.3195   -4.7415 O   0  0  0  0  0  0  0  0  0  0  0  0
  2  1  1  0
  3  2  2  0
  4  2  1  0
  5  4  1  0
  6  7  1  6
  6  5  1  0
  8  6  1  0
  9  8  2  0
 10 11  1  0
 12 14  1  0
 12 11  1  0
 12 13  1  1
 14 15  1  6
 15  8  1  0
 16 17  2  0
 16 14  1  0
 19 20  1  1
 19 18  1  0
 21 19  1  0
 22 21  1  1
 22 23  1  0
 23 16  1  0
 24 22  1  0
 25 24  2  0
 26 24  1  0
M  END
$$$$
