QIL.pdb
     RDKit          3D

 26 25  0  0  1  0  0  0  0  0999 V2000
   13.8289  -23.7061    1.5862 N   0  0  0  0  0  0  0  0  0  0  0  0
   12.8026  -22.7041    1.7354 C   0  0  0  0  0  0  0  0  0  0  0  0
   11.6404  -23.0788    1.5194 O   0  0  0  0  0  0  0  0  0  0  0  0
   13.2482  -21.3640    2.1236 C   0  0  0  0  0  0  0  0  0  0  0  0
   14.7117  -21.2835    2.4173 C   0  0  0  0  0  0  0  0  0  0  0  0
   15.5010  -20.7009    1.2948 C   0  0  2  0  0  0  0  0  0  0  0  0
   15.5644  -21.5590    0.1335 N   0  0  0  0  0  0  0  0  0  0  0  0
   16.9090  -20.5146    1.7964 C   0  0  0  0  0  0  0  0  0  0  0  0
   17.7237  -21.4754    1.8193 O   0  0  0  0  0  0  0  0  0  0  0  0
   21.5635  -17.7123    1.8538 C   0  0  0  0  0  0  0  0  0  0  0  0
   20.6371  -17.4583    3.0048 C   0  0  0  0  0  0  0  0  0  0  0  0
   19.1883  -17.6375    2.6030 C   0  0  2  0  0  0  0  0  0  0  0  0
   18.3034  -16.6049    3.2537 C   0  0  0  0  0  0  0  0  0  0  0  0
   18.7100  -19.0403    2.7836 C   0  0  2  0  0  0  0  0  0  0  0  0
   17.3826  -19.2619    2.2627 N   0  0  0  0  0  0  0  0  0  0  0  0
   18.6943  -19.3243    4.2505 C   0  0  0  0  0  0  0  0  0  0  0  0
   17.6331  -19.1896    4.9261 O   0  0  0  0  0  0  0  0  0  0  0  0
   19.6792  -22.3244    8.5785 C   0  0  0  0  0  0  0  0  0  0  0  0
   20.8435  -21.4297    8.1659 C   0  0  1  0  0  0  0  0  0  0  0  0
   22.0999  -22.2854    8.3914 C   0  0  0  0  0  0  0  0  0  0  0  0
   20.7837  -21.1445    6.7079 C   0  0  0  0  0  0  0  0  0  0  0  0
   19.8590  -20.0129    6.3389 C   0  0  2  0  0  0  0  0  0  0  0  0
   19.8731  -19.7520    4.9163 N   0  0  0  0  0  0  0  0  0  0  0  0
   20.1144  -18.7822    7.0820 C   0  0  0  0  0  0  0  0  0  0  0  0
   21.0165  -18.0031    6.6859 O   0  0  0  0  0  0  0  0  0  0  0  0
   19.4154  -18.4056    8.2184 O   0  0  0  0  0  0  0  0  0  0  0  0
  2  1  1  0
  3  2  2  0
  4  2  1  0
  5  4  1  0
  6  7  1  6
  6  5  1  0
  8  6  1  0
  9  8  2  0
 10 11  1  0
 12 14  1  0
 12 11  1  0
 12 13  1  1
 14 15  1  1
 15  8  1  0
 16 17  2  0
 16 14  1  0
 19 20  1  6
 19 18  1  0
 21 19  1  0
 22 21  1  6
 22 23  1  0
 23 16  1  0
 24 22  1  0
 25 24  2  0
 26 24  1  0
M  END
$$$$
