QIL.pdb
     RDKit          3D

 26 25  0  0  1  0  0  0  0  0999 V2000
   16.0513  -24.1428  -15.3793 N   0  0  0  0  0  0  0  0  0  0  0  0
   14.9487  -23.8142  -14.5100 C   0  0  0  0  0  0  0  0  0  0  0  0
   13.9948  -23.2247  -15.0397 O   0  0  0  0  0  0  0  0  0  0  0  0
   15.0805  -24.2126  -13.1068 C   0  0  0  0  0  0  0  0  0  0  0  0
   16.3349  -24.9726  -12.8175 C   0  0  0  0  0  0  0  0  0  0  0  0
   17.5546  -24.1157  -12.8391 C   0  0  2  0  0  0  0  0  0  0  0  0
   18.4168  -24.3750  -13.9698 N   0  0  0  0  0  0  0  0  0  0  0  0
   18.3375  -24.4322  -11.5920 C   0  0  0  0  0  0  0  0  0  0  0  0
   19.0940  -25.4382  -11.5367 O   0  0  0  0  0  0  0  0  0  0  0  0
   21.5697  -21.7208   -7.2860 C   0  0  0  0  0  0  0  0  0  0  0  0
   20.6672  -22.8798   -7.5862 C   0  0  0  0  0  0  0  0  0  0  0  0
   19.8679  -22.6493   -8.8514 C   0  0  2  0  0  0  0  0  0  0  0  0
   19.0795  -21.3663   -8.7800 C   0  0  0  0  0  0  0  0  0  0  0  0
   19.0510  -23.8370   -9.2407 C   0  0  2  0  0  0  0  0  0  0  0  0
   18.2630  -23.6222  -10.4303 N   0  0  0  0  0  0  0  0  0  0  0  0
   18.1233  -24.1352   -8.1080 C   0  0  0  0  0  0  0  0  0  0  0  0
   17.0733  -23.4514   -7.9322 O   0  0  0  0  0  0  0  0  0  0  0  0
   16.2070  -28.8881   -7.3730 C   0  0  0  0  0  0  0  0  0  0  0  0
   16.3874  -27.3735   -7.3662 C   0  0  1  0  0  0  0  0  0  0  0  0
   14.9616  -26.8050   -7.2922 C   0  0  0  0  0  0  0  0  0  0  0  0
   17.0786  -26.9417   -6.1226 C   0  0  0  0  0  0  0  0  0  0  0  0
   17.4939  -25.4928   -6.1199 C   0  0  2  0  0  0  0  0  0  0  0  0
   18.4027  -25.1943   -7.2047 N   0  0  0  0  0  0  0  0  0  0  0  0
   18.0588  -25.0482   -4.8490 C   0  0  0  0  0  0  0  0  0  0  0  0
   19.3040  -24.9228   -4.7422 O   0  0  0  0  0  0  0  0  0  0  0  0
   17.3003  -24.7481   -3.7281 O   0  0  0  0  0  0  0  0  0  0  0  0
  2  1  1  0
  3  2  2  0
  4  2  1  0
  5  4  1  0
  6  7  1  6
  6  5  1  0
  8  6  1  0
  9  8  2  0
 10 11  1  0
 12 14  1  0
 12 11  1  0
 12 13  1  1
 14 15  1  6
 15  8  1  0
 16 17  2  0
 16 14  1  0
 19 20  1  1
 19 18  1  0
 21 19  1  0
 22 21  1  1
 22 23  1  0
 23 16  1  0
 24 22  1  0
 25 24  2  0
 26 24  1  0
M  END
$$$$
