QIL.pdb
     RDKit          3D

 26 25  0  0  1  0  0  0  0  0999 V2000
   27.8997  -17.9881  -16.5568 N   0  0  0  0  0  0  0  0  0  0  0  0
   27.8964  -18.3725  -17.9467 C   0  0  0  0  0  0  0  0  0  0  0  0
   28.5963  -17.6833  -18.7037 O   0  0  0  0  0  0  0  0  0  0  0  0
   27.0704  -19.5279  -18.3039 C   0  0  0  0  0  0  0  0  0  0  0  0
   26.4368  -20.1957  -17.1260 C   0  0  0  0  0  0  0  0  0  0  0  0
   27.4081  -20.9703  -16.3020 C   0  0  2  0  0  0  0  0  0  0  0  0
   27.9280  -22.1381  -16.9765 N   0  0  0  0  0  0  0  0  0  0  0  0
   26.6678  -21.4465  -15.0799 C   0  0  0  0  0  0  0  0  0  0  0  0
   25.9202  -22.4597  -15.1260 O   0  0  0  0  0  0  0  0  0  0  0  0
   29.0599  -20.9280  -10.2640 C   0  0  0  0  0  0  0  0  0  0  0  0
   28.2243  -21.4891  -11.3751 C   0  0  0  0  0  0  0  0  0  0  0  0
   26.8325  -20.8927  -11.3803 C   0  0  2  0  0  0  0  0  0  0  0  0
   26.0799  -21.2372  -10.1204 C   0  0  0  0  0  0  0  0  0  0  0  0
   26.0802  -21.1974  -12.6335 C   0  0  2  0  0  0  0  0  0  0  0  0
   26.7741  -20.7854  -13.8298 N   0  0  0  0  0  0  0  0  0  0  0  0
   24.7799  -20.4645  -12.5665 C   0  0  0  0  0  0  0  0  0  0  0  0
   24.7457  -19.2000  -12.5954 O   0  0  0  0  0  0  0  0  0  0  0  0
   20.6423  -19.6020  -16.0957 C   0  0  0  0  0  0  0  0  0  0  0  0
   20.7430  -19.7827  -14.5845 C   0  0  1  0  0  0  0  0  0  0  0  0
   19.6036  -20.7489  -14.2242 C   0  0  0  0  0  0  0  0  0  0  0  0
   22.0105  -20.4748  -14.2309 C   0  0  0  0  0  0  0  0  0  0  0  0
   22.2990  -20.5144  -12.7521 C   0  0  2  0  0  0  0  0  0  0  0  0
   23.5544  -21.1745  -12.4689 N   0  0  0  0  0  0  0  0  0  0  0  0
   21.2246  -21.1089  -11.9618 C   0  0  0  0  0  0  0  0  0  0  0  0
   21.2791  -22.3304  -11.6743 O   0  0  0  0  0  0  0  0  0  0  0  0
   20.1254  -20.4040  -11.4967 O   0  0  0  0  0  0  0  0  0  0  0  0
  2  1  1  0
  3  2  2  0
  4  2  1  0
  5  4  1  0
  6  7  1  6
  6  5  1  0
  8  6  1  0
  9  8  2  0
 10 11  1  0
 12 14  1  0
 12 11  1  0
 12 13  1  1
 14 15  1  6
 15  8  1  0
 16 17  2  0
 16 14  1  0
 19 20  1  6
 19 18  1  0
 21 19  1  0
 22 21  1  6
 22 23  1  0
 23 16  1  0
 24 22  1  0
 25 24  2  0
 26 24  1  0
M  END
$$$$
