QIL.pdb
     RDKit          3D

 26 25  0  0  1  0  0  0  0  0999 V2000
   28.9308  -17.7817  -18.3317 N   0  0  0  0  0  0  0  0  0  0  0  0
   29.0718  -18.7618  -17.2834 C   0  0  0  0  0  0  0  0  0  0  0  0
   29.2691  -19.9292  -17.6524 O   0  0  0  0  0  0  0  0  0  0  0  0
   28.9664  -18.2688  -15.9083 C   0  0  0  0  0  0  0  0  0  0  0  0
   27.5711  -17.9123  -15.5074 C   0  0  0  0  0  0  0  0  0  0  0  0
   26.6331  -19.0695  -15.5671 C   0  0  2  0  0  0  0  0  0  0  0  0
   25.8361  -19.0991  -16.7725 N   0  0  0  0  0  0  0  0  0  0  0  0
   25.6871  -18.9304  -14.4033 C   0  0  0  0  0  0  0  0  0  0  0  0
   25.1172  -17.8343  -14.1558 O   0  0  0  0  0  0  0  0  0  0  0  0
   21.1470  -20.4195  -14.4786 C   0  0  0  0  0  0  0  0  0  0  0  0
   22.4599  -19.8150  -14.0802 C   0  0  0  0  0  0  0  0  0  0  0  0
   23.0841  -20.5572  -12.9174 C   0  0  2  0  0  0  0  0  0  0  0  0
   22.1053  -20.7304  -11.7839 C   0  0  0  0  0  0  0  0  0  0  0  0
   24.3934  -19.9744  -12.4985 C   0  0  2  0  0  0  0  0  0  0  0  0
   25.3941  -20.0146  -13.5374 N   0  0  0  0  0  0  0  0  0  0  0  0
   24.8886  -20.7713  -11.3357 C   0  0  0  0  0  0  0  0  0  0  0  0
   25.1529  -22.0026  -11.4585 O   0  0  0  0  0  0  0  0  0  0  0  0
   28.1199  -18.6351   -7.6952 C   0  0  0  0  0  0  0  0  0  0  0  0
   27.4096  -19.5747   -8.6642 C   0  0  1  0  0  0  0  0  0  0  0  0
   28.4651  -20.6257   -9.0424 C   0  0  0  0  0  0  0  0  0  0  0  0
   26.3177  -20.3052   -7.9679 C   0  0  0  0  0  0  0  0  0  0  0  0
   25.3309  -20.9676   -8.8948 C   0  0  2  0  0  0  0  0  0  0  0  0
   25.0726  -20.1608  -10.0671 N   0  0  0  0  0  0  0  0  0  0  0  0
   24.0753  -21.3358   -8.2468 C   0  0  0  0  0  0  0  0  0  0  0  0
   24.0975  -22.1302   -7.2741 O   0  0  0  0  0  0  0  0  0  0  0  0
   22.8339  -20.8591   -8.6385 O   0  0  0  0  0  0  0  0  0  0  0  0
  2  1  1  0
  3  2  2  0
  4  2  1  0
  5  4  1  0
  6  7  1  6
  6  5  1  0
  8  6  1  0
  9  8  2  0
 10 11  1  0
 12 14  1  0
 12 11  1  0
 12 13  1  1
 14 15  1  6
 15  8  1  0
 16 17  2  0
 16 14  1  0
 19 20  1  1
 19 18  1  0
 21 19  1  0
 22 21  1  1
 22 23  1  0
 23 16  1  0
 24 22  1  0
 25 24  2  0
 26 24  1  0
M  END
$$$$
