QIL.pdb
     RDKit          3D

 26 25  0  0  1  0  0  0  0  0999 V2000
   23.1353  -15.3443  -16.0632 N   0  0  0  0  0  0  0  0  0  0  0  0
   22.9150  -16.4807  -16.9232 C   0  0  0  0  0  0  0  0  0  0  0  0
   23.3611  -17.5646  -16.5181 O   0  0  0  0  0  0  0  0  0  0  0  0
   22.1924  -16.2261  -18.1714 C   0  0  0  0  0  0  0  0  0  0  0  0
   21.7913  -14.7969  -18.3480 C   0  0  0  0  0  0  0  0  0  0  0  0
   20.3132  -14.6053  -18.3804 C   0  0  2  0  0  0  0  0  0  0  0  0
   19.6903  -15.1546  -19.5634 N   0  0  0  0  0  0  0  0  0  0  0  0
   20.0613  -13.1203  -18.3852 C   0  0  0  0  0  0  0  0  0  0  0  0
   20.0823  -12.4606  -19.4583 O   0  0  0  0  0  0  0  0  0  0  0  0
   17.1306   -8.5688  -18.0044 C   0  0  0  0  0  0  0  0  0  0  0  0
   17.9692   -9.0824  -16.8727 C   0  0  0  0  0  0  0  0  0  0  0  0
   18.1604  -10.5820  -16.9578 C   0  0  2  0  0  0  0  0  0  0  0  0
   17.4791  -11.2909  -15.8149 C   0  0  0  0  0  0  0  0  0  0  0  0
   19.5904  -10.9707  -17.1407 C   0  0  2  0  0  0  0  0  0  0  0  0
   19.7909  -12.3987  -17.1947 N   0  0  0  0  0  0  0  0  0  0  0  0
   20.3552  -10.4309  -15.9761 C   0  0  0  0  0  0  0  0  0  0  0  0
   19.9832  -10.6669  -14.7900 O   0  0  0  0  0  0  0  0  0  0  0  0
   25.7548  -10.4940  -15.8916 C   0  0  0  0  0  0  0  0  0  0  0  0
   24.2569  -10.5438  -15.6082 C   0  0  1  0  0  0  0  0  0  0  0  0
   24.1243  -11.3756  -14.3228 C   0  0  0  0  0  0  0  0  0  0  0  0
   23.7472   -9.1849  -15.2855 C   0  0  0  0  0  0  0  0  0  0  0  0
   22.2598   -9.1247  -15.0495 C   0  0  2  0  0  0  0  0  0  0  0  0
   21.5172   -9.6406  -16.1784 N   0  0  0  0  0  0  0  0  0  0  0  0
   21.7773   -7.7939  -14.6914 C   0  0  0  0  0  0  0  0  0  0  0  0
   22.0301   -7.3372  -13.5490 O   0  0  0  0  0  0  0  0  0  0  0  0
   21.0441   -6.9820  -15.5428 O   0  0  0  0  0  0  0  0  0  0  0  0
  2  1  1  0
  3  2  2  0
  4  2  1  0
  5  4  1  0
  6  7  1  6
  6  5  1  0
  8  6  1  0
  9  8  2  0
 10 11  1  0
 12 14  1  0
 12 11  1  0
 12 13  1  1
 14 15  1  1
 15  8  1  0
 16 17  2  0
 16 14  1  0
 19 20  1  1
 19 18  1  0
 21 19  1  0
 22 21  1  6
 22 23  1  0
 23 16  1  0
 24 22  1  0
 25 24  2  0
 26 24  1  0
M  END
$$$$
