QIL.pdb
     RDKit          3D

 26 25  0  0  1  0  0  0  0  0999 V2000
   15.4786  -11.8383  -18.8536 N   0  0  0  0  0  0  0  0  0  0  0  0
   16.2380  -11.1120  -19.8412 C   0  0  0  0  0  0  0  0  0  0  0  0
   15.7152  -11.0070  -20.9608 O   0  0  0  0  0  0  0  0  0  0  0  0
   17.5344  -10.5835  -19.4110 C   0  0  0  0  0  0  0  0  0  0  0  0
   17.8633  -10.8960  -17.9866 C   0  0  0  0  0  0  0  0  0  0  0  0
   19.0927  -11.7264  -17.8402 C   0  0  2  0  0  0  0  0  0  0  0  0
   18.8146  -13.1178  -17.5648 N   0  0  0  0  0  0  0  0  0  0  0  0
   19.8580  -11.1774  -16.6649 C   0  0  0  0  0  0  0  0  0  0  0  0
   19.3615  -11.1800  -15.5069 O   0  0  0  0  0  0  0  0  0  0  0  0
   24.7247  -12.7492  -15.5693 C   0  0  0  0  0  0  0  0  0  0  0  0
   23.3308  -12.1988  -15.5271 C   0  0  0  0  0  0  0  0  0  0  0  0
   23.3247  -10.6894  -15.6472 C   0  0  2  0  0  0  0  0  0  0  0  0
   24.2027  -10.0492  -14.6022 C   0  0  0  0  0  0  0  0  0  0  0  0
   21.9448  -10.1220  -15.7041 C   0  0  2  0  0  0  0  0  0  0  0  0
   21.1616  -10.6359  -16.8016 N   0  0  0  0  0  0  0  0  0  0  0  0
   22.0738   -8.6425  -15.8689 C   0  0  0  0  0  0  0  0  0  0  0  0
   22.3811   -8.1388  -16.9882 O   0  0  0  0  0  0  0  0  0  0  0  0
   21.6635   -3.9569  -16.9398 C   0  0  0  0  0  0  0  0  0  0  0  0
   20.7552   -4.2881  -15.7601 C   0  0  1  0  0  0  0  0  0  0  0  0
   19.3491   -3.8625  -16.2110 C   0  0  0  0  0  0  0  0  0  0  0  0
   20.7024   -5.7585  -15.5463 C   0  0  0  0  0  0  0  0  0  0  0  0
   21.9537   -6.3380  -14.9380 C   0  0  2  0  0  0  0  0  0  0  0  0
   21.8534   -7.7711  -14.7700 N   0  0  0  0  0  0  0  0  0  0  0  0
   22.3394   -5.7063  -13.6793 C   0  0  0  0  0  0  0  0  0  0  0  0
   22.0613   -6.2783  -12.5961 O   0  0  0  0  0  0  0  0  0  0  0  0
   23.0055   -4.4935  -13.5947 O   0  0  0  0  0  0  0  0  0  0  0  0
  2  1  1  0
  3  2  2  0
  4  2  1  0
  5  4  1  0
  6  7  1  1
  6  5  1  0
  8  6  1  0
  9  8  2  0
 10 11  1  0
 12 14  1  0
 12 11  1  0
 12 13  1  1
 14 15  1  6
 15  8  1  0
 16 17  2  0
 16 14  1  0
 19 20  1  6
 19 18  1  0
 21 19  1  0
 22 21  1  1
 22 23  1  0
 23 16  1  0
 24 22  1  0
 25 24  2  0
 26 24  1  0
M  END
$$$$
