MLA.pdb
     RDKit          3D

 22 21  0  0  1  0  0  0  0  0999 V2000
   25.3177  -19.7727   -8.2911 C   0  0  0  0  0  0  0  0  0  0  0  0
   25.1185  -21.3522   -9.1422 S   0  0  0  0  0  0  0  0  0  0  0  0
   26.2661  -21.4963  -10.5250 C   0  0  0  0  0  0  0  0  0  0  0  0
   26.0389  -20.3308  -11.4633 C   0  0  0  0  0  0  0  0  0  0  0  0
   24.9647  -20.7468  -12.4693 C   0  0  2  0  0  0  0  0  0  0  0  0
   25.5329  -21.7896  -13.2791 N   0  0  0  0  0  0  0  0  0  0  0  0
   24.5902  -19.5880  -13.3135 C   0  0  0  0  0  0  0  0  0  0  0  0
   24.0321  -18.5911  -12.7821 O   0  0  0  0  0  0  0  0  0  0  0  0
   26.8550  -16.5592  -15.1134 C   0  0  0  0  0  0  0  0  0  0  0  0
   27.0138  -17.9737  -15.7173 C   0  0  2  0  0  0  0  0  0  0  0  0
   28.2062  -17.9155  -16.6338 C   0  0  0  0  0  0  0  0  0  0  0  0
   25.7362  -18.2580  -16.4146 C   0  0  0  0  0  0  0  0  0  0  0  0
   24.5299  -18.4931  -15.5667 C   0  0  2  0  0  0  0  0  0  0  0  0
   24.8727  -19.6396  -14.6941 N   0  0  0  0  0  0  0  0  0  0  0  0
   23.3138  -18.9076  -16.2884 C   0  0  0  0  0  0  0  0  0  0  0  0
   22.8173  -18.2010  -17.2420 O   0  0  0  0  0  0  0  0  0  0  0  0
   21.2920  -21.7981  -17.0772 C   0  0  0  0  0  0  0  0  0  0  0  0
   21.2603  -20.3395  -16.5984 C   0  0  2  0  0  0  0  0  0  0  0  0
   22.5730  -20.0963  -16.0296 N   0  0  0  0  0  0  0  0  0  0  0  0
   20.1866  -20.1414  -15.5898 C   0  0  0  0  0  0  0  0  0  0  0  0
   20.4512  -20.0142  -14.3657 O   0  0  0  0  0  0  0  0  0  0  0  0
   18.8456  -20.0861  -15.9394 O   0  0  0  0  0  0  0  0  0  0  0  0
  1  2  1  0
  2  3  1  0
  3  4  1  0
  4  5  1  0
  5  6  1  6
  7  5  1  0
  7  8  2  0
 10  9  1  6
 10 12  1  0
 10 11  1  0
 13 12  1  6
 13 14  1  0
 13 15  1  0
 14  7  1  0
 15 16  2  0
 15 19  1  0
 18 17  1  1
 18 20  1  0
 19 18  1  0
 20 21  2  0
 20 22  1  0
M  END
$$$$
