MLA.pdb
     RDKit          3D

 22 21  0  0  1  0  0  0  0  0999 V2000
   17.6440  -10.5928  -17.0949 C   0  0  0  0  0  0  0  0  0  0  0  0
   18.6530  -11.5662  -15.9577 S   0  0  0  0  0  0  0  0  0  0  0  0
   17.7222  -12.0126  -14.4798 C   0  0  0  0  0  0  0  0  0  0  0  0
   16.8080  -10.8615  -14.1200 C   0  0  0  0  0  0  0  0  0  0  0  0
   15.9937  -11.2803  -12.8951 C   0  0  2  0  0  0  0  0  0  0  0  0
   15.0893  -12.3103  -13.3275 N   0  0  0  0  0  0  0  0  0  0  0  0
   15.2365  -10.1184  -12.3730 C   0  0  0  0  0  0  0  0  0  0  0  0
   14.0683   -9.9029  -12.7932 O   0  0  0  0  0  0  0  0  0  0  0  0
   15.4117   -6.8613   -7.3662 C   0  0  0  0  0  0  0  0  0  0  0  0
   15.0001   -6.6864   -8.8463 C   0  0  2  0  0  0  0  0  0  0  0  0
   13.5240   -6.3926   -8.8472 C   0  0  0  0  0  0  0  0  0  0  0  0
   15.3572   -7.9607   -9.5154 C   0  0  0  0  0  0  0  0  0  0  0  0
   15.2015   -8.0231  -10.9990 C   0  0  2  0  0  0  0  0  0  0  0  0
   15.8529   -9.2861  -11.4160 N   0  0  0  0  0  0  0  0  0  0  0  0
   15.8910   -6.9646  -11.7579 C   0  0  0  0  0  0  0  0  0  0  0  0
   17.1630   -6.7902  -11.6753 O   0  0  0  0  0  0  0  0  0  0  0  0
   15.1262   -4.7244  -14.6101 C   0  0  0  0  0  0  0  0  0  0  0  0
   15.9935   -5.0374  -13.3823 C   0  0  2  0  0  0  0  0  0  0  0  0
   15.2572   -6.0458  -12.6426 N   0  0  0  0  0  0  0  0  0  0  0  0
   16.2082   -3.8142  -12.5656 C   0  0  0  0  0  0  0  0  0  0  0  0
   15.4458   -3.5223  -11.6074 O   0  0  0  0  0  0  0  0  0  0  0  0
   17.2520   -2.9348  -12.8126 O   0  0  0  0  0  0  0  0  0  0  0  0
  1  2  1  0
  2  3  1  0
  3  4  1  0
  4  5  1  0
  5  6  1  6
  7  5  1  0
  7  8  2  0
 10  9  1  1
 10 12  1  0
 10 11  1  0
 13 12  1  1
 13 14  1  0
 13 15  1  0
 14  7  1  0
 15 16  2  0
 15 19  1  0
 18 17  1  6
 18 20  1  0
 19 18  1  0
 20 21  2  0
 20 22  1  0
M  END
$$$$
