MLA.pdb
     RDKit          3D

 22 21  0  0  1  0  0  0  0  0999 V2000
   17.2087  -20.6022  -16.6923 C   0  0  0  0  0  0  0  0  0  0  0  0
   17.2591  -22.1687  -15.7966 S   0  0  0  0  0  0  0  0  0  0  0  0
   18.9554  -22.6509  -15.4223 C   0  0  0  0  0  0  0  0  0  0  0  0
   19.7202  -21.4211  -14.9830 C   0  0  0  0  0  0  0  0  0  0  0  0
   20.5622  -21.8077  -13.7662 C   0  0  2  0  0  0  0  0  0  0  0  0
   19.7339  -21.6151  -12.6074 N   0  0  0  0  0  0  0  0  0  0  0  0
   21.7621  -20.9417  -13.6890 C   0  0  0  0  0  0  0  0  0  0  0  0
   21.7484  -19.9327  -12.9345 O   0  0  0  0  0  0  0  0  0  0  0  0
   26.5457  -19.6216  -12.8194 C   0  0  0  0  0  0  0  0  0  0  0  0
   25.6448  -20.7433  -12.2531 C   0  0  2  0  0  0  0  0  0  0  0  0
   26.5455  -21.6594  -11.4689 C   0  0  0  0  0  0  0  0  0  0  0  0
   25.0164  -21.3870  -13.4321 C   0  0  0  0  0  0  0  0  0  0  0  0
   24.1567  -20.5315  -14.3031 C   0  0  2  0  0  0  0  0  0  0  0  0
   22.8882  -21.2779  -14.4684 N   0  0  0  0  0  0  0  0  0  0  0  0
   24.6555  -20.3108  -15.6721 C   0  0  0  0  0  0  0  0  0  0  0  0
   24.9035  -21.2896  -16.4693 O   0  0  0  0  0  0  0  0  0  0  0  0
   25.1181  -17.4394  -17.9992 C   0  0  0  0  0  0  0  0  0  0  0  0
   25.4504  -18.8825  -17.5935 C   0  0  2  0  0  0  0  0  0  0  0  0
   24.9092  -19.0366  -16.2557 N   0  0  0  0  0  0  0  0  0  0  0  0
   26.9193  -19.1087  -17.6140 C   0  0  0  0  0  0  0  0  0  0  0  0
   27.6265  -18.9233  -16.5893 O   0  0  0  0  0  0  0  0  0  0  0  0
   27.5856  -19.5329  -18.7542 O   0  0  0  0  0  0  0  0  0  0  0  0
  1  2  1  0
  2  3  1  0
  3  4  1  0
  4  5  1  0
  5  6  1  1
  7  5  1  0
  7  8  2  0
 10  9  1  6
 10 12  1  0
 10 11  1  0
 13 12  1  1
 13 14  1  0
 13 15  1  0
 14  7  1  0
 15 16  2  0
 15 19  1  0
 18 17  1  1
 18 20  1  0
 19 18  1  0
 20 21  2  0
 20 22  1  0
M  END
$$$$
