MLA.pdb
     RDKit          3D

 22 21  0  0  1  0  0  0  0  0999 V2000
   18.3383   -8.9398  -22.2125 C   0  0  0  0  0  0  0  0  0  0  0  0
   17.5181  -10.3395  -21.4207 S   0  0  0  0  0  0  0  0  0  0  0  0
   18.7089  -11.4062  -20.5876 C   0  0  0  0  0  0  0  0  0  0  0  0
   18.8695  -10.9272  -19.1611 C   0  0  0  0  0  0  0  0  0  0  0  0
   20.1035  -11.6157  -18.5760 C   0  0  2  0  0  0  0  0  0  0  0  0
   19.8079  -13.0210  -18.5155 N   0  0  0  0  0  0  0  0  0  0  0  0
   20.3766  -11.0898  -17.2178 C   0  0  0  0  0  0  0  0  0  0  0  0
   19.5670  -11.3379  -16.2848 O   0  0  0  0  0  0  0  0  0  0  0  0
   22.5771  -12.0498  -13.8576 C   0  0  0  0  0  0  0  0  0  0  0  0
   23.3994  -11.7141  -15.1232 C   0  0  2  0  0  0  0  0  0  0  0  0
   24.8198  -12.1152  -14.8284 C   0  0  0  0  0  0  0  0  0  0  0  0
   23.2218  -10.2582  -15.3426 C   0  0  0  0  0  0  0  0  0  0  0  0
   21.8468   -9.7771  -15.6703 C   0  0  2  0  0  0  0  0  0  0  0  0
   21.5423  -10.3231  -17.0130 N   0  0  0  0  0  0  0  0  0  0  0  0
   21.6970   -8.3172  -15.8046 C   0  0  0  0  0  0  0  0  0  0  0  0
   22.3383   -7.6491  -16.6976 O   0  0  0  0  0  0  0  0  0  0  0  0
   19.3754   -5.6675  -14.7114 C   0  0  0  0  0  0  0  0  0  0  0  0
   20.8007   -6.0585  -15.1276 C   0  0  2  0  0  0  0  0  0  0  0  0
   20.8537   -7.5027  -14.9957 N   0  0  0  0  0  0  0  0  0  0  0  0
   21.8034   -5.3965  -14.2526 C   0  0  0  0  0  0  0  0  0  0  0  0
   22.3669   -6.0171  -13.3135 O   0  0  0  0  0  0  0  0  0  0  0  0
   22.1700   -4.0695  -14.4216 O   0  0  0  0  0  0  0  0  0  0  0  0
  1  2  1  0
  2  3  1  0
  3  4  1  0
  4  5  1  0
  5  6  1  1
  7  5  1  0
  7  8  2  0
 10  9  1  1
 10 12  1  0
 10 11  1  0
 13 12  1  6
 13 14  1  0
 13 15  1  0
 14  7  1  0
 15 16  2  0
 15 19  1  0
 18 17  1  1
 18 20  1  0
 19 18  1  0
 20 21  2  0
 20 22  1  0
M  END
$$$$
