MLA.pdb
     RDKit          3D

 22 21  0  0  1  0  0  0  0  0999 V2000
   21.5208  -20.9498  -12.9750 C   0  0  0  0  0  0  0  0  0  0  0  0
   22.4210  -19.5300  -13.6325 S   0  0  0  0  0  0  0  0  0  0  0  0
   24.1818  -19.6475  -13.2642 C   0  0  0  0  0  0  0  0  0  0  0  0
   24.3478  -20.2899  -11.9040 C   0  0  0  0  0  0  0  0  0  0  0  0
   25.8470  -20.4274  -11.6350 C   0  0  2  0  0  0  0  0  0  0  0  0
   26.3595  -21.3640  -12.5974 N   0  0  0  0  0  0  0  0  0  0  0  0
   26.0672  -20.9328  -10.2595 C   0  0  0  0  0  0  0  0  0  0  0  0
   25.9206  -22.1614  -10.0218 O   0  0  0  0  0  0  0  0  0  0  0  0
   28.3047  -18.2382   -5.2823 C   0  0  0  0  0  0  0  0  0  0  0  0
   27.7133  -19.5901   -5.7442 C   0  0  2  0  0  0  0  0  0  0  0  0
   28.7332  -20.6422   -5.4002 C   0  0  0  0  0  0  0  0  0  0  0  0
   27.4703  -19.4455   -7.1999 C   0  0  0  0  0  0  0  0  0  0  0  0
   26.6078  -20.4725   -7.8564 C   0  0  2  0  0  0  0  0  0  0  0  0
   26.4363  -20.0150   -9.2545 N   0  0  0  0  0  0  0  0  0  0  0  0
   25.2407  -20.5946   -7.3200 C   0  0  0  0  0  0  0  0  0  0  0  0
   24.3422  -19.7015   -7.5441 O   0  0  0  0  0  0  0  0  0  0  0  0
   22.9657  -23.1951   -6.2365 C   0  0  0  0  0  0  0  0  0  0  0  0
   23.4075  -21.7405   -6.0201 C   0  0  2  0  0  0  0  0  0  0  0  0
   24.7671  -21.6761   -6.5233 N   0  0  0  0  0  0  0  0  0  0  0  0
   23.3446  -21.3816   -4.5791 C   0  0  0  0  0  0  0  0  0  0  0  0
   24.3899  -21.2072   -3.8997 O   0  0  0  0  0  0  0  0  0  0  0  0
   22.1405  -21.2204   -3.9097 O   0  0  0  0  0  0  0  0  0  0  0  0
  1  2  1  0
  2  3  1  0
  3  4  1  0
  4  5  1  0
  5  6  1  6
  7  5  1  0
  7  8  2  0
 10  9  1  6
 10 12  1  0
 10 11  1  0
 13 12  1  1
 13 14  1  0
 13 15  1  0
 14  7  1  0
 15 16  2  0
 15 19  1  0
 18 17  1  1
 18 20  1  0
 19 18  1  0
 20 21  2  0
 20 22  1  0
M  END
$$$$
