MLA.pdb
     RDKit          3D

 22 21  0  0  1  0  0  0  0  0999 V2000
   12.7151  -10.9765  -19.6941 C   0  0  0  0  0  0  0  0  0  0  0  0
   13.7341  -10.7242  -18.2256 S   0  0  0  0  0  0  0  0  0  0  0  0
   15.3470  -10.0465  -18.6604 C   0  0  0  0  0  0  0  0  0  0  0  0
   16.1056   -9.7513  -17.3846 C   0  0  0  0  0  0  0  0  0  0  0  0
   17.4469   -9.1288  -17.7750 C   0  0  2  0  0  0  0  0  0  0  0  0
   18.2172  -10.1624  -18.4108 N   0  0  0  0  0  0  0  0  0  0  0  0
   18.1460   -8.6392  -16.5636 C   0  0  0  0  0  0  0  0  0  0  0  0
   17.5935   -7.7670  -15.8414 O   0  0  0  0  0  0  0  0  0  0  0  0
   23.2838  -10.5806  -13.9195 C   0  0  0  0  0  0  0  0  0  0  0  0
   22.1975   -9.4922  -13.7581 C   0  0  2  0  0  0  0  0  0  0  0  0
   21.6749   -9.6155  -12.3521 C   0  0  0  0  0  0  0  0  0  0  0  0
   21.1833   -9.7798  -14.8011 C   0  0  0  0  0  0  0  0  0  0  0  0
   20.1120   -8.7619  -15.0148 C   0  0  2  0  0  0  0  0  0  0  0  0
   19.4161   -9.1695  -16.2570 N   0  0  0  0  0  0  0  0  0  0  0  0
   20.5794   -7.3874  -15.2678 C   0  0  0  0  0  0  0  0  0  0  0  0
   21.3342   -7.1016  -16.2697 O   0  0  0  0  0  0  0  0  0  0  0  0
   19.6765   -3.9529  -14.4828 C   0  0  0  0  0  0  0  0  0  0  0  0
   20.8305   -4.9407  -14.7075 C   0  0  2  0  0  0  0  0  0  0  0  0
   20.2607   -6.2535  -14.4669 N   0  0  0  0  0  0  0  0  0  0  0  0
   21.9531   -4.6572  -13.7755 C   0  0  0  0  0  0  0  0  0  0  0  0
   22.0645   -5.2639  -12.6782 O   0  0  0  0  0  0  0  0  0  0  0  0
   22.9314   -3.7165  -14.0617 O   0  0  0  0  0  0  0  0  0  0  0  0
  1  2  1  0
  2  3  1  0
  3  4  1  0
  4  5  1  0
  5  6  1  1
  7  5  1  0
  7  8  2  0
 10  9  1  1
 10 12  1  0
 10 11  1  0
 13 12  1  6
 13 14  1  0
 13 15  1  0
 14  7  1  0
 15 16  2  0
 15 19  1  0
 18 17  1  1
 18 20  1  0
 19 18  1  0
 20 21  2  0
 20 22  1  0
M  END
$$$$
