MLA.pdb
     RDKit          3D

 22 21  0  0  1  0  0  0  0  0999 V2000
   15.6360   -9.8729  -19.8868 C   0  0  0  0  0  0  0  0  0  0  0  0
   16.1399  -11.5287  -20.3997 S   0  0  0  0  0  0  0  0  0  0  0  0
   17.5601  -12.1015  -19.4485 C   0  0  0  0  0  0  0  0  0  0  0  0
   17.6358  -11.3010  -18.1664 C   0  0  0  0  0  0  0  0  0  0  0  0
   18.8752  -11.7663  -17.4007 C   0  0  2  0  0  0  0  0  0  0  0  0
   18.5472  -13.0332  -16.8062 N   0  0  0  0  0  0  0  0  0  0  0  0
   19.2173  -10.7795  -16.3495 C   0  0  0  0  0  0  0  0  0  0  0  0
   18.6812  -10.8760  -15.2134 O   0  0  0  0  0  0  0  0  0  0  0  0
   22.1179   -9.6303  -13.2183 C   0  0  0  0  0  0  0  0  0  0  0  0
   22.5116   -9.9340  -14.6823 C   0  0  2  0  0  0  0  0  0  0  0  0
   24.0135  -10.0285  -14.7099 C   0  0  0  0  0  0  0  0  0  0  0  0
   21.9677   -8.8120  -15.4851 C   0  0  0  0  0  0  0  0  0  0  0  0
   20.4847   -8.7369  -15.6417 C   0  0  2  0  0  0  0  0  0  0  0  0
   20.1384   -9.7572  -16.6578 N   0  0  0  0  0  0  0  0  0  0  0  0
   19.9632   -7.4668  -16.1770 C   0  0  0  0  0  0  0  0  0  0  0  0
   20.2938   -7.0362  -17.3435 O   0  0  0  0  0  0  0  0  0  0  0  0
   17.3917   -4.9314  -15.2480 C   0  0  0  0  0  0  0  0  0  0  0  0
   18.6520   -5.3164  -16.0362 C   0  0  2  0  0  0  0  0  0  0  0  0
   19.0626   -6.5991  -15.4955 N   0  0  0  0  0  0  0  0  0  0  0  0
   19.7131   -4.2900  -15.8637 C   0  0  0  0  0  0  0  0  0  0  0  0
   20.7079   -4.4928  -15.1195 O   0  0  0  0  0  0  0  0  0  0  0  0
   19.6655   -3.0627  -16.5081 O   0  0  0  0  0  0  0  0  0  0  0  0
  1  2  1  0
  2  3  1  0
  3  4  1  0
  4  5  1  0
  5  6  1  1
  7  5  1  0
  7  8  2  0
 10  9  1  1
 10 12  1  0
 10 11  1  0
 13 12  1  6
 13 14  1  0
 13 15  1  0
 14  7  1  0
 15 16  2  0
 15 19  1  0
 18 17  1  1
 18 20  1  0
 19 18  1  0
 20 21  2  0
 20 22  1  0
M  END
$$$$
