MLA.pdb
     RDKit          3D

 22 21  0  0  1  0  0  0  0  0999 V2000
   13.8881  -10.3231   -9.9818 C   0  0  0  0  0  0  0  0  0  0  0  0
   13.5484   -8.7852   -9.0996 S   0  0  0  0  0  0  0  0  0  0  0  0
   15.0753   -7.9228   -8.6817 C   0  0  0  0  0  0  0  0  0  0  0  0
   15.7442   -7.4783   -9.9644 C   0  0  0  0  0  0  0  0  0  0  0  0
   17.1065   -6.8879   -9.5975 C   0  0  2  0  0  0  0  0  0  0  0  0
   16.8531   -5.7001   -8.8288 N   0  0  0  0  0  0  0  0  0  0  0  0
   17.8574   -6.5511  -10.8298 C   0  0  0  0  0  0  0  0  0  0  0  0
   17.9357   -5.3482  -11.1964 O   0  0  0  0  0  0  0  0  0  0  0  0
   22.1466   -6.6186  -12.9781 C   0  0  0  0  0  0  0  0  0  0  0  0
   21.5903   -7.7907  -12.1370 C   0  0  2  0  0  0  0  0  0  0  0  0
   22.6718   -8.8364  -12.0936 C   0  0  0  0  0  0  0  0  0  0  0  0
   20.3571   -8.2333  -12.8317 C   0  0  0  0  0  0  0  0  0  0  0  0
   19.1893   -7.3031  -12.8147 C   0  0  2  0  0  0  0  0  0  0  0  0
   18.4640   -7.5959  -11.5570 N   0  0  0  0  0  0  0  0  0  0  0  0
   18.1984   -7.5037  -13.8870 C   0  0  0  0  0  0  0  0  0  0  0  0
   17.4972   -8.5792  -13.9696 O   0  0  0  0  0  0  0  0  0  0  0  0
   16.6243   -5.4763  -16.5926 C   0  0  0  0  0  0  0  0  0  0  0  0
   16.9655   -6.8454  -15.9870 C   0  0  2  0  0  0  0  0  0  0  0  0
   17.9067   -6.5657  -14.9183 N   0  0  0  0  0  0  0  0  0  0  0  0
   17.5607   -7.7400  -17.0139 C   0  0  0  0  0  0  0  0  0  0  0  0
   18.8077   -7.8494  -17.1461 O   0  0  0  0  0  0  0  0  0  0  0  0
   16.7809   -8.4971  -17.8756 O   0  0  0  0  0  0  0  0  0  0  0  0
  1  2  1  0
  2  3  1  0
  3  4  1  0
  4  5  1  0
  5  6  1  1
  7  5  1  0
  7  8  2  0
 10  9  1  6
 10 12  1  0
 10 11  1  0
 13 12  1  6
 13 14  1  0
 13 15  1  0
 14  7  1  0
 15 16  2  0
 15 19  1  0
 18 17  1  6
 18 20  1  0
 19 18  1  0
 20 21  2  0
 20 22  1  0
M  END
$$$$
