IYL.pdb
     RDKit          3D

 29 29  0  0  1  0  0  0  0  0999 V2000
    6.9030  -21.0565   28.6714 C   0  0  0  0  0  0  0  0  0  0  0  0
    6.4610  -21.0457   27.2299 C   0  0  0  0  0  0  0  0  0  0  0  0
    7.1613  -19.9466   26.4268 C   0  0  2  0  0  0  0  0  0  0  0  0
    6.9432  -18.5949   27.0681 C   0  0  0  0  0  0  0  0  0  0  0  0
    6.6187  -20.0164   25.0235 C   0  0  2  0  0  0  0  0  0  0  0  0
    6.6712  -21.3961   24.5818 N   0  0  0  0  0  0  0  0  0  0  0  0
    7.3016  -19.1022   24.0992 C   0  0  0  0  0  0  0  0  0  0  0  0
    8.4140  -19.3784   23.5909 O   0  0  0  0  0  0  0  0  0  0  0  0
    8.4747  -11.8249   19.0530 O   0  0  0  0  0  0  0  0  0  0  0  0
    7.9655  -12.8239   19.9034 C   0  0  0  0  0  0  0  0  0  0  0  0
    7.8471  -14.1199   19.4418 C   0  0  0  0  0  0  0  0  0  0  0  0
    7.3542  -15.1049   20.2581 C   0  0  0  0  0  0  0  0  0  0  0  0
    6.9583  -14.8556   21.5561 C   0  0  0  0  0  0  0  0  0  0  0  0
    6.3804  -15.8885   22.4065 C   0  0  0  0  0  0  0  0  0  0  0  0
    7.3814  -16.8488   22.9293 C   0  0  2  0  0  0  0  0  0  0  0  0
    6.6943  -17.8680   23.7640 N   0  0  0  0  0  0  0  0  0  0  0  0
    8.4118  -16.2815   23.7731 C   0  0  0  0  0  0  0  0  0  0  0  0
    9.4086  -15.7010   23.2024 O   0  0  0  0  0  0  0  0  0  0  0  0
    7.0804  -13.5646   21.9989 C   0  0  0  0  0  0  0  0  0  0  0  0
    7.5786  -12.5496   21.1895 C   0  0  0  0  0  0  0  0  0  0  0  0
   10.3336  -12.9286   27.3929 C   0  0  0  0  0  0  0  0  0  0  0  0
   10.0111  -14.2789   28.0126 C   0  0  1  0  0  0  0  0  0  0  0  0
    9.4895  -13.9743   29.4200 C   0  0  0  0  0  0  0  0  0  0  0  0
    8.9793  -15.0187   27.2131 C   0  0  0  0  0  0  0  0  0  0  0  0
    9.5192  -15.5393   25.9143 C   0  0  2  0  0  0  0  0  0  0  0  0
    8.4795  -16.2643   25.1829 N   0  0  0  0  0  0  0  0  0  0  0  0
   10.7778  -16.2612   26.0636 C   0  0  0  0  0  0  0  0  0  0  0  0
   10.8045  -17.6488   26.1921 O   0  0  0  0  0  0  0  0  0  0  0  0
   11.9128  -15.7083   26.0900 O   0  0  0  0  0  0  0  0  0  0  0  0
  2  1  1  0
  3  4  1  1
  3  2  1  0
  5  6  1  6
  5  3  1  0
  7  8  2  0
  7  5  1  0
  9 10  1  0
 10 20  2  0
 10 11  1  0
 11 12  2  0
 12 13  1  0
 13 14  1  0
 15 14  1  1
 15 16  1  0
 15 17  1  0
 16  7  1  0
 17 18  2  0
 19 13  2  0
 20 19  1  0
 22 21  1  6
 22 24  1  0
 23 22  1  0
 25 24  1  1
 25 27  1  0
 26 17  1  0
 26 25  1  0
 27 29  2  0
 27 28  1  0
M  END
$$$$
