IYL.pdb
     RDKit          3D

 29 29  0  0  1  0  0  0  0  0999 V2000
    7.9950  -12.3671   18.0857 C   0  0  0  0  0  0  0  0  0  0  0  0
    8.2124  -13.8475   18.2713 C   0  0  0  0  0  0  0  0  0  0  0  0
    7.8628  -14.3018   19.6908 C   0  0  2  0  0  0  0  0  0  0  0  0
    8.7476  -13.6134   20.7052 C   0  0  0  0  0  0  0  0  0  0  0  0
    8.0070  -15.8008   19.7188 C   0  0  2  0  0  0  0  0  0  0  0  0
    7.1912  -16.3579   18.6578 N   0  0  0  0  0  0  0  0  0  0  0  0
    7.6978  -16.3815   21.0317 C   0  0  0  0  0  0  0  0  0  0  0  0
    6.5315  -16.4036   21.4914 O   0  0  0  0  0  0  0  0  0  0  0  0
    9.4826  -20.2358   28.9067 O   0  0  0  0  0  0  0  0  0  0  0  0
    9.4807  -19.7916   27.5713 C   0  0  0  0  0  0  0  0  0  0  0  0
    8.4119  -20.0945   26.7513 C   0  0  0  0  0  0  0  0  0  0  0  0
    8.3943  -19.6681   25.4484 C   0  0  0  0  0  0  0  0  0  0  0  0
    9.4238  -18.9302   24.9015 C   0  0  0  0  0  0  0  0  0  0  0  0
    9.4340  -18.5252   23.5014 C   0  0  0  0  0  0  0  0  0  0  0  0
    8.5292  -17.3876   23.2110 C   0  0  2  0  0  0  0  0  0  0  0  0
    8.7410  -16.9371   21.8111 N   0  0  0  0  0  0  0  0  0  0  0  0
    8.7184  -16.2116   24.0337 C   0  0  0  0  0  0  0  0  0  0  0  0
    9.6622  -15.3967   23.7152 O   0  0  0  0  0  0  0  0  0  0  0  0
   10.4778  -18.6391   25.7272 C   0  0  0  0  0  0  0  0  0  0  0  0
   10.5170  -19.0598   27.0520 C   0  0  0  0  0  0  0  0  0  0  0  0
    6.4274  -11.1964   25.9412 C   0  0  0  0  0  0  0  0  0  0  0  0
    7.4380  -12.2581   26.3446 C   0  0  1  0  0  0  0  0  0  0  0  0
    7.2347  -12.4733   27.8473 C   0  0  0  0  0  0  0  0  0  0  0  0
    7.2218  -13.5377   25.5916 C   0  0  0  0  0  0  0  0  0  0  0  0
    8.2671  -14.5697   25.8944 C   0  0  2  0  0  0  0  0  0  0  0  0
    7.9851  -15.8101   25.1710 N   0  0  0  0  0  0  0  0  0  0  0  0
    8.5119  -14.7373   27.3226 C   0  0  0  0  0  0  0  0  0  0  0  0
    7.8007  -15.6718   28.0732 O   0  0  0  0  0  0  0  0  0  0  0  0
    9.3600  -14.0707   27.9790 O   0  0  0  0  0  0  0  0  0  0  0  0
  2  1  1  0
  3  4  1  1
  3  2  1  0
  5  6  1  6
  5  3  1  0
  7  8  2  0
  7  5  1  0
  9 10  1  0
 10 20  2  0
 10 11  1  0
 11 12  2  0
 12 13  1  0
 13 14  1  0
 15 14  1  1
 15 16  1  0
 15 17  1  0
 16  7  1  0
 17 18  2  0
 19 13  2  0
 20 19  1  0
 22 21  1  6
 22 24  1  0
 23 22  1  0
 25 24  1  1
 25 27  1  0
 26 17  1  0
 26 25  1  0
 27 29  2  0
 27 28  1  0
M  END
$$$$
