IYL.pdb
     RDKit          3D

 29 29  0  0  1  0  0  0  0  0999 V2000
    7.7517  -11.9325   18.7570 C   0  0  0  0  0  0  0  0  0  0  0  0
    8.1461  -13.3878   18.7596 C   0  0  0  0  0  0  0  0  0  0  0  0
    8.1207  -13.9832   20.1696 C   0  0  2  0  0  0  0  0  0  0  0  0
    9.0257  -13.2025   21.0955 C   0  0  0  0  0  0  0  0  0  0  0  0
    8.5287  -15.4275   20.0425 C   0  0  2  0  0  0  0  0  0  0  0  0
    7.6323  -16.0743   19.1046 N   0  0  0  0  0  0  0  0  0  0  0  0
    8.5887  -16.1216   21.3352 C   0  0  0  0  0  0  0  0  0  0  0  0
    7.5754  -16.6432   21.8579 O   0  0  0  0  0  0  0  0  0  0  0  0
   12.0256  -20.8396   27.9210 O   0  0  0  0  0  0  0  0  0  0  0  0
   11.8285  -20.0900   26.7464 C   0  0  0  0  0  0  0  0  0  0  0  0
   12.6399  -19.0040   26.4838 C   0  0  0  0  0  0  0  0  0  0  0  0
   12.4617  -18.2643   25.3433 C   0  0  0  0  0  0  0  0  0  0  0  0
   11.4813  -18.5613   24.4192 C   0  0  0  0  0  0  0  0  0  0  0  0
   11.2526  -17.7425   23.2353 C   0  0  0  0  0  0  0  0  0  0  0  0
    9.9764  -16.9896   23.2778 C   0  0  2  0  0  0  0  0  0  0  0  0
    9.8238  -16.2114   22.0213 N   0  0  0  0  0  0  0  0  0  0  0  0
    9.8531  -16.0271   24.3520 C   0  0  0  0  0  0  0  0  0  0  0  0
   10.6761  -15.0379   24.3746 O   0  0  0  0  0  0  0  0  0  0  0  0
   10.6833  -19.6407   24.6946 C   0  0  0  0  0  0  0  0  0  0  0  0
   10.8462  -20.4060   25.8440 C   0  0  0  0  0  0  0  0  0  0  0  0
    5.6272  -13.4675   26.1220 C   0  0  0  0  0  0  0  0  0  0  0  0
    7.1192  -13.6689   25.9103 C   0  0  1  0  0  0  0  0  0  0  0  0
    7.7411  -12.2717   25.9927 C   0  0  0  0  0  0  0  0  0  0  0  0
    7.7058  -14.5730   26.9541 C   0  0  0  0  0  0  0  0  0  0  0  0
    9.0483  -15.1139   26.5611 C   0  0  2  0  0  0  0  0  0  0  0  0
    8.9211  -16.0109   25.4119 N   0  0  0  0  0  0  0  0  0  0  0  0
    9.7976  -15.6636   27.6854 C   0  0  0  0  0  0  0  0  0  0  0  0
   10.1666  -17.0072   27.7205 O   0  0  0  0  0  0  0  0  0  0  0  0
   10.1621  -14.9913   28.6903 O   0  0  0  0  0  0  0  0  0  0  0  0
  2  1  1  0
  3  4  1  1
  3  2  1  0
  5  6  1  6
  5  3  1  0
  7  8  2  0
  7  5  1  0
  9 10  1  0
 10 20  2  0
 10 11  1  0
 11 12  2  0
 12 13  1  0
 13 14  1  0
 15 14  1  6
 15 16  1  0
 15 17  1  0
 16  7  1  0
 17 18  2  0
 19 13  2  0
 20 19  1  0
 22 21  1  1
 22 24  1  0
 23 22  1  0
 25 24  1  1
 25 27  1  0
 26 17  1  0
 26 25  1  0
 27 29  2  0
 27 28  1  0
M  END
$$$$
