IYL.pdb
     RDKit          3D

 29 29  0  0  1  0  0  0  0  0999 V2000
    7.8738  -12.1734   18.7324 C   0  0  0  0  0  0  0  0  0  0  0  0
    7.9240  -13.6687   18.9185 C   0  0  0  0  0  0  0  0  0  0  0  0
    7.4784  -14.0840   20.3230 C   0  0  2  0  0  0  0  0  0  0  0  0
    8.3655  -13.4542   21.3729 C   0  0  0  0  0  0  0  0  0  0  0  0
    7.5098  -15.5893   20.3651 C   0  0  2  0  0  0  0  0  0  0  0  0
    6.6509  -16.0935   19.3117 N   0  0  0  0  0  0  0  0  0  0  0  0
    7.1623  -16.1327   21.6843 C   0  0  0  0  0  0  0  0  0  0  0  0
    5.9794  -16.1682   22.0987 O   0  0  0  0  0  0  0  0  0  0  0  0
    8.1278  -20.4849   29.3774 O   0  0  0  0  0  0  0  0  0  0  0  0
    8.2233  -19.9694   28.0714 C   0  0  0  0  0  0  0  0  0  0  0  0
    7.0753  -19.7596   27.3333 C   0  0  0  0  0  0  0  0  0  0  0  0
    7.1512  -19.2568   26.0601 C   0  0  0  0  0  0  0  0  0  0  0  0
    8.3548  -18.9423   25.4635 C   0  0  0  0  0  0  0  0  0  0  0  0
    8.4419  -18.4623   24.0901 C   0  0  0  0  0  0  0  0  0  0  0  0
    7.9208  -17.0859   23.9134 C   0  0  2  0  0  0  0  0  0  0  0  0
    8.1864  -16.6354   22.5227 N   0  0  0  0  0  0  0  0  0  0  0  0
    8.5097  -16.0789   24.7705 C   0  0  0  0  0  0  0  0  0  0  0  0
    9.7577  -15.8064   24.6136 O   0  0  0  0  0  0  0  0  0  0  0  0
    9.4849  -19.1577   26.2080 C   0  0  0  0  0  0  0  0  0  0  0  0
    9.4323  -19.6655   27.5013 C   0  0  0  0  0  0  0  0  0  0  0  0
    5.8806  -11.6770   26.7059 C   0  0  0  0  0  0  0  0  0  0  0  0
    6.8859  -12.6485   26.1085 C   0  0  1  0  0  0  0  0  0  0  0  0
    7.7883  -11.8054   25.2028 C   0  0  0  0  0  0  0  0  0  0  0  0
    7.6924  -13.3302   27.1744 C   0  0  0  0  0  0  0  0  0  0  0  0
    8.6230  -14.3673   26.6197 C   0  0  2  0  0  0  0  0  0  0  0  0
    7.8886  -15.3183   25.7844 N   0  0  0  0  0  0  0  0  0  0  0  0
    9.4748  -14.9766   27.6351 C   0  0  0  0  0  0  0  0  0  0  0  0
   10.5926  -14.3113   28.1353 O   0  0  0  0  0  0  0  0  0  0  0  0
    9.2790  -16.1220   28.1297 O   0  0  0  0  0  0  0  0  0  0  0  0
  2  1  1  0
  3  4  1  1
  3  2  1  0
  5  6  1  6
  5  3  1  0
  7  8  2  0
  7  5  1  0
  9 10  1  0
 10 20  2  0
 10 11  1  0
 11 12  2  0
 12 13  1  0
 13 14  1  0
 15 14  1  1
 15 16  1  0
 15 17  1  0
 16  7  1  0
 17 18  2  0
 19 13  2  0
 20 19  1  0
 22 21  1  1
 22 24  1  0
 23 22  1  0
 25 24  1  1
 25 27  1  0
 26 17  1  0
 26 25  1  0
 27 29  2  0
 27 28  1  0
M  END
$$$$
