IYL.pdb
     RDKit          3D

 29 29  0  0  1  0  0  0  0  0999 V2000
    8.0267  -18.9563   28.6174 C   0  0  0  0  0  0  0  0  0  0  0  0
    8.0659  -19.3519   27.1631 C   0  0  0  0  0  0  0  0  0  0  0  0
    6.6620  -19.4520   26.5611 C   0  0  2  0  0  0  0  0  0  0  0  0
    5.8223  -20.4492   27.3267 C   0  0  0  0  0  0  0  0  0  0  0  0
    6.8324  -19.8291   25.1128 C   0  0  2  0  0  0  0  0  0  0  0  0
    7.5172  -21.1054   25.0509 N   0  0  0  0  0  0  0  0  0  0  0  0
    7.5067  -18.7889   24.3256 C   0  0  0  0  0  0  0  0  0  0  0  0
    8.7399  -18.8188   24.1011 O   0  0  0  0  0  0  0  0  0  0  0  0
    8.7269  -12.4005   18.4341 O   0  0  0  0  0  0  0  0  0  0  0  0
    8.1381  -13.3273   19.3143 C   0  0  0  0  0  0  0  0  0  0  0  0
    7.4634  -12.8762   20.4314 C   0  0  0  0  0  0  0  0  0  0  0  0
    6.8832  -13.7662   21.2980 C   0  0  0  0  0  0  0  0  0  0  0  0
    6.9439  -15.1305   21.1020 C   0  0  0  0  0  0  0  0  0  0  0  0
    6.3779  -16.0801   22.0517 C   0  0  0  0  0  0  0  0  0  0  0  0
    7.3736  -16.6218   23.0070 C   0  0  2  0  0  0  0  0  0  0  0  0
    6.7507  -17.7143   23.7982 N   0  0  0  0  0  0  0  0  0  0  0  0
    7.8869  -15.6786   23.9779 C   0  0  0  0  0  0  0  0  0  0  0  0
    7.3184  -14.5271   24.0608 O   0  0  0  0  0  0  0  0  0  0  0  0
    7.6181  -15.5625   19.9901 C   0  0  0  0  0  0  0  0  0  0  0  0
    8.2133  -14.6786   19.0968 C   0  0  0  0  0  0  0  0  0  0  0  0
    7.6226  -12.3043   25.1672 C   0  0  0  0  0  0  0  0  0  0  0  0
    8.0452  -12.8011   26.5405 C   0  0  1  0  0  0  0  0  0  0  0  0
    6.9679  -12.3053   27.5095 C   0  0  0  0  0  0  0  0  0  0  0  0
    8.1440  -14.2978   26.5777 C   0  0  0  0  0  0  0  0  0  0  0  0
    9.3461  -14.8155   25.8454 C   0  0  2  0  0  0  0  0  0  0  0  0
    8.9539  -15.8487   24.8861 N   0  0  0  0  0  0  0  0  0  0  0  0
   10.4419  -15.1895   26.7324 C   0  0  0  0  0  0  0  0  0  0  0  0
   11.4361  -14.2760   27.0783 O   0  0  0  0  0  0  0  0  0  0  0  0
   10.5795  -16.3358   27.2440 O   0  0  0  0  0  0  0  0  0  0  0  0
  2  1  1  0
  3  4  1  1
  3  2  1  0
  5  6  1  1
  5  3  1  0
  7  8  2  0
  7  5  1  0
  9 10  1  0
 10 20  2  0
 10 11  1  0
 11 12  2  0
 12 13  1  0
 13 14  1  0
 15 14  1  6
 15 16  1  0
 15 17  1  0
 16  7  1  0
 17 18  2  0
 19 13  2  0
 20 19  1  0
 22 21  1  6
 22 24  1  0
 23 22  1  0
 25 24  1  1
 25 27  1  0
 26 17  1  0
 26 25  1  0
 27 29  2  0
 27 28  1  0
M  END
$$$$
