IYL.pdb
     RDKit          3D

 29 29  0  0  1  0  0  0  0  0999 V2000
    6.7351  -20.7379   28.6065 C   0  0  0  0  0  0  0  0  0  0  0  0
    6.4263  -20.7720   27.1312 C   0  0  0  0  0  0  0  0  0  0  0  0
    7.1223  -19.6366   26.3763 C   0  0  2  0  0  0  0  0  0  0  0  0
    6.7732  -18.2975   26.9853 C   0  0  0  0  0  0  0  0  0  0  0  0
    6.6993  -19.7453   24.9348 C   0  0  2  0  0  0  0  0  0  0  0  0
    6.8844  -21.1181   24.5070 N   0  0  0  0  0  0  0  0  0  0  0  0
    7.3871  -18.7853   24.0621 C   0  0  0  0  0  0  0  0  0  0  0  0
    8.5849  -18.9343   23.7226 O   0  0  0  0  0  0  0  0  0  0  0  0
    8.5574  -12.1038   18.3315 O   0  0  0  0  0  0  0  0  0  0  0  0
    8.0277  -13.0683   19.2088 C   0  0  0  0  0  0  0  0  0  0  0  0
    8.2606  -14.4087   18.9728 C   0  0  0  0  0  0  0  0  0  0  0  0
    7.7527  -15.3607   19.8186 C   0  0  0  0  0  0  0  0  0  0  0  0
    6.9973  -15.0338   20.9259 C   0  0  0  0  0  0  0  0  0  0  0  0
    6.4082  -16.0458   21.7936 C   0  0  0  0  0  0  0  0  0  0  0  0
    7.3545  -16.5799   22.8020 C   0  0  2  0  0  0  0  0  0  0  0  0
    6.6858  -17.6528   23.5826 N   0  0  0  0  0  0  0  0  0  0  0  0
    7.8328  -15.6248   23.7790 C   0  0  0  0  0  0  0  0  0  0  0  0
    7.2319  -14.4896   23.8589 O   0  0  0  0  0  0  0  0  0  0  0  0
    6.7736  -13.7000   21.1456 C   0  0  0  0  0  0  0  0  0  0  0  0
    7.2794  -12.7169   20.3022 C   0  0  0  0  0  0  0  0  0  0  0  0
    8.9829  -11.7628   26.6089 C   0  0  0  0  0  0  0  0  0  0  0  0
    8.2553  -12.9764   27.1647 C   0  0  1  0  0  0  0  0  0  0  0  0
    6.9420  -12.4422   27.7439 C   0  0  0  0  0  0  0  0  0  0  0  0
    7.9882  -13.9950   26.0959 C   0  0  0  0  0  0  0  0  0  0  0  0
    9.2226  -14.7441   25.6907 C   0  0  2  0  0  0  0  0  0  0  0  0
    8.8961  -15.7669   24.6963 N   0  0  0  0  0  0  0  0  0  0  0  0
   10.0026  -15.2230   26.8264 C   0  0  0  0  0  0  0  0  0  0  0  0
   10.4645  -16.5367   26.8838 O   0  0  0  0  0  0  0  0  0  0  0  0
   10.3140  -14.5117   27.8223 O   0  0  0  0  0  0  0  0  0  0  0  0
  2  1  1  0
  3  4  1  1
  3  2  1  0
  5  6  1  6
  5  3  1  0
  7  8  2  0
  7  5  1  0
  9 10  1  0
 10 20  2  0
 10 11  1  0
 11 12  2  0
 12 13  1  0
 13 14  1  0
 15 14  1  6
 15 16  1  0
 15 17  1  0
 16  7  1  0
 17 18  2  0
 19 13  2  0
 20 19  1  0
 22 21  1  6
 22 24  1  0
 23 22  1  0
 25 24  1  1
 25 27  1  0
 26 17  1  0
 26 25  1  0
 27 29  2  0
 27 28  1  0
M  END
$$$$
