IYL.pdb
     RDKit          3D

 29 29  0  0  1  0  0  0  0  0999 V2000
    8.2124  -19.3438   28.6057 C   0  0  0  0  0  0  0  0  0  0  0  0
    8.1544  -19.7271   27.1487 C   0  0  0  0  0  0  0  0  0  0  0  0
    6.7281  -19.6589   26.5972 C   0  0  2  0  0  0  0  0  0  0  0  0
    5.7987  -20.5315   27.4099 C   0  0  0  0  0  0  0  0  0  0  0  0
    6.7972  -20.0754   25.1513 C   0  0  2  0  0  0  0  0  0  0  0  0
    7.3751  -21.4033   25.0859 N   0  0  0  0  0  0  0  0  0  0  0  0
    7.5122  -19.1073   24.3100 C   0  0  0  0  0  0  0  0  0  0  0  0
    8.7168  -19.2596   23.9972 O   0  0  0  0  0  0  0  0  0  0  0  0
    8.4465  -12.0674   18.8834 O   0  0  0  0  0  0  0  0  0  0  0  0
    7.9713  -13.0278   19.7958 C   0  0  0  0  0  0  0  0  0  0  0  0
    7.8046  -14.3361   19.3866 C   0  0  0  0  0  0  0  0  0  0  0  0
    7.3438  -15.2839   20.2635 C   0  0  0  0  0  0  0  0  0  0  0  0
    7.0288  -14.9841   21.5729 C   0  0  0  0  0  0  0  0  0  0  0  0
    6.4845  -15.9771   22.4904 C   0  0  0  0  0  0  0  0  0  0  0  0
    7.4969  -16.9419   22.9820 C   0  0  2  0  0  0  0  0  0  0  0  0
    6.8301  -17.9630   23.8307 N   0  0  0  0  0  0  0  0  0  0  0  0
    8.5512  -16.3806   23.7999 C   0  0  0  0  0  0  0  0  0  0  0  0
    9.6192  -15.9699   23.2109 O   0  0  0  0  0  0  0  0  0  0  0  0
    7.1981  -13.6815   21.9632 C   0  0  0  0  0  0  0  0  0  0  0  0
    7.6650  -12.7036   21.0919 C   0  0  0  0  0  0  0  0  0  0  0  0
    8.5966  -12.1160   27.9423 C   0  0  0  0  0  0  0  0  0  0  0  0
    9.4430  -13.2601   27.4074 C   0  0  1  0  0  0  0  0  0  0  0  0
   10.1000  -13.8979   28.6350 C   0  0  0  0  0  0  0  0  0  0  0  0
    8.6072  -14.2650   26.6708 C   0  0  0  0  0  0  0  0  0  0  0  0
    9.4324  -15.2167   25.8567 C   0  0  2  0  0  0  0  0  0  0  0  0
    8.5746  -16.2038   25.2000 N   0  0  0  0  0  0  0  0  0  0  0  0
   10.5566  -15.7797   26.5962 C   0  0  0  0  0  0  0  0  0  0  0  0
   10.5755  -17.1217   26.9718 O   0  0  0  0  0  0  0  0  0  0  0  0
   11.5741  -15.1202   26.9489 O   0  0  0  0  0  0  0  0  0  0  0  0
  2  1  1  0
  3  4  1  1
  3  2  1  0
  5  6  1  1
  5  3  1  0
  7  8  2  0
  7  5  1  0
  9 10  1  0
 10 20  2  0
 10 11  1  0
 11 12  2  0
 12 13  1  0
 13 14  1  0
 15 14  1  1
 15 16  1  0
 15 17  1  0
 16  7  1  0
 17 18  2  0
 19 13  2  0
 20 19  1  0
 22 21  1  1
 22 24  1  0
 23 22  1  0
 25 24  1  1
 25 27  1  0
 26 17  1  0
 26 25  1  0
 27 29  2  0
 27 28  1  0
M  END
$$$$
