WQS.pdb
     RDKit          3D

 30 31  0  0  1  0  0  0  0  0999 V2000
    6.2921  -17.4992   23.9582 N   0  0  0  0  0  0  0  0  0  0  0  0
    7.2987  -16.4951   23.6679 C   0  0  1  0  0  0  0  0  0  0  0  0
    7.9946  -16.0073   24.8852 C   0  0  0  0  0  0  0  0  0  0  0  0
    7.2524  -15.0994   25.7511 C   0  0  0  0  0  0  0  0  0  0  0  0
    6.2479  -15.5131   26.6342 C   0  0  0  0  0  0  0  0  0  0  0  0
    5.7731  -14.4496   27.3024 N   0  0  0  0  0  0  0  0  0  0  0  0
    6.4320  -13.3369   26.8903 C   0  0  0  0  0  0  0  0  0  0  0  0
    6.2729  -12.0321   27.2963 C   0  0  0  0  0  0  0  0  0  0  0  0
    7.0579  -11.0623   26.7260 C   0  0  0  0  0  0  0  0  0  0  0  0
    7.9762  -11.4339   25.7675 C   0  0  0  0  0  0  0  0  0  0  0  0
    8.1184  -12.7527   25.3754 C   0  0  0  0  0  0  0  0  0  0  0  0
    7.3414  -13.7469   25.9342 C   0  0  0  0  0  0  0  0  0  0  0  0
    8.1601  -16.8264   22.5237 C   0  0  0  0  0  0  0  0  0  0  0  0
    8.6761  -17.9680   22.4570 O   0  0  0  0  0  0  0  0  0  0  0  0
    8.7508  -12.7813   17.9864 N   0  0  0  0  0  0  0  0  0  0  0  0
    7.7919  -13.8009   17.9497 C   0  0  0  0  0  0  0  0  0  0  0  0
    6.7516  -13.6654   17.2628 O   0  0  0  0  0  0  0  0  0  0  0  0
    8.0061  -15.0472   18.7261 C   0  0  0  0  0  0  0  0  0  0  0  0
    9.2704  -14.9060   19.5433 C   0  0  0  0  0  0  0  0  0  0  0  0
    9.4802  -16.0241   20.5281 C   0  0  2  0  0  0  0  0  0  0  0  0
    8.4171  -15.9008   21.5104 N   0  0  0  0  0  0  0  0  0  0  0  0
   10.8085  -16.0552   21.1463 C   0  0  0  0  0  0  0  0  0  0  0  0
   11.4535  -15.0267   21.4677 O   0  0  0  0  0  0  0  0  0  0  0  0
   12.3177  -19.6792   22.0904 O   0  0  0  0  0  0  0  0  0  0  0  0
   13.0051  -18.6476   22.7018 C   0  0  0  0  0  0  0  0  0  0  0  0
   12.8412  -17.3320   21.9338 C   0  0  2  0  0  0  0  0  0  0  0  0
   11.4947  -17.2921   21.4408 N   0  0  0  0  0  0  0  0  0  0  0  0
   13.8434  -17.3543   20.8372 C   0  0  0  0  0  0  0  0  0  0  0  0
   13.3985  -17.4444   19.6647 O   0  0  0  0  0  0  0  0  0  0  0  0
   15.2014  -17.2838   21.0217 O   0  0  0  0  0  0  0  0  0  0  0  0
  2  1  1  1
  2  3  1  0
  3  4  1  0
  4  5  2  0
  5  6  1  0
  7  6  1  0
  8  7  2  0
  9  8  1  0
 10 11  1  0
 10  9  2  0
 11 12  2  0
 12  4  1  0
 12  7  1  0
 13  2  1  0
 13 21  1  0
 14 13  2  0
 16 15  1  0
 17 16  2  0
 18 16  1  0
 20 19  1  6
 19 18  1  0
 20 21  1  0
 22 20  1  0
 23 22  2  0
 25 24  1  0
 26 25  1  6
 26 28  1  0
 26 27  1  0
 27 22  1  0
 28 30  1  0
 29 28  2  0
M  END
$$$$
