WQS.pdb
     RDKit          3D

 30 31  0  0  1  0  0  0  0  0999 V2000
    6.1447  -17.5317   24.4738 N   0  0  0  0  0  0  0  0  0  0  0  0
    7.1027  -16.5977   23.9120 C   0  0  1  0  0  0  0  0  0  0  0  0
    7.9048  -15.9008   24.9488 C   0  0  0  0  0  0  0  0  0  0  0  0
    7.2080  -14.9243   25.7771 C   0  0  0  0  0  0  0  0  0  0  0  0
    6.3626  -15.2666   26.8393 C   0  0  0  0  0  0  0  0  0  0  0  0
    5.8921  -14.1487   27.4153 N   0  0  0  0  0  0  0  0  0  0  0  0
    6.3990  -13.0691   26.7675 C   0  0  0  0  0  0  0  0  0  0  0  0
    6.1870  -11.7315   27.0094 C   0  0  0  0  0  0  0  0  0  0  0  0
    6.8100  -10.8083   26.2086 C   0  0  0  0  0  0  0  0  0  0  0  0
    7.6249  -11.2578   25.1917 C   0  0  0  0  0  0  0  0  0  0  0  0
    7.8232  -12.6082   24.9676 C   0  0  0  0  0  0  0  0  0  0  0  0
    7.2086  -13.5567   25.7594 C   0  0  0  0  0  0  0  0  0  0  0  0
    7.8550  -17.1303   22.7669 C   0  0  0  0  0  0  0  0  0  0  0  0
    8.2699  -18.3136   22.8048 O   0  0  0  0  0  0  0  0  0  0  0  0
    6.7820  -13.8768   18.4227 N   0  0  0  0  0  0  0  0  0  0  0  0
    8.0413  -13.4735   18.8831 C   0  0  0  0  0  0  0  0  0  0  0  0
    8.6597  -12.5492   18.3036 O   0  0  0  0  0  0  0  0  0  0  0  0
    8.6480  -14.1415   20.0611 C   0  0  0  0  0  0  0  0  0  0  0  0
    9.1093  -15.5241   19.6586 C   0  0  0  0  0  0  0  0  0  0  0  0
    9.3158  -16.4539   20.8233 C   0  0  2  0  0  0  0  0  0  0  0  0
    8.1183  -16.3503   21.6391 N   0  0  0  0  0  0  0  0  0  0  0  0
   10.5375  -16.2087   21.5945 C   0  0  0  0  0  0  0  0  0  0  0  0
   11.1788  -15.1293   21.5623 O   0  0  0  0  0  0  0  0  0  0  0  0
   11.1034  -18.0359   24.8464 O   0  0  0  0  0  0  0  0  0  0  0  0
   12.3914  -17.8486   24.3814 C   0  0  0  0  0  0  0  0  0  0  0  0
   12.4046  -17.0522   23.0725 C   0  0  2  0  0  0  0  0  0  0  0  0
   11.1126  -17.2051   22.4684 N   0  0  0  0  0  0  0  0  0  0  0  0
   13.4901  -17.6282   22.2373 C   0  0  0  0  0  0  0  0  0  0  0  0
   13.1378  -18.2935   21.2304 O   0  0  0  0  0  0  0  0  0  0  0  0
   14.8304  -17.4814   22.4927 O   0  0  0  0  0  0  0  0  0  0  0  0
  2  1  1  1
  2  3  1  0
  3  4  1  0
  4  5  2  0
  5  6  1  0
  7  6  1  0
  8  7  2  0
  9  8  1  0
 10 11  1  0
 10  9  2  0
 11 12  2  0
 12  4  1  0
 12  7  1  0
 13  2  1  0
 13 21  1  0
 14 13  2  0
 16 15  1  0
 17 16  2  0
 18 16  1  0
 20 19  1  6
 19 18  1  0
 20 21  1  0
 22 20  1  0
 23 22  2  0
 25 24  1  0
 26 25  1  1
 26 28  1  0
 26 27  1  0
 27 22  1  0
 28 30  1  0
 29 28  2  0
M  END
$$$$
