WQS.pdb
     RDKit          3D

 30 31  0  0  1  0  0  0  0  0999 V2000
    6.5037  -17.6433   24.2476 N   0  0  0  0  0  0  0  0  0  0  0  0
    7.3700  -16.5437   23.8657 C   0  0  1  0  0  0  0  0  0  0  0  0
    8.0193  -15.8898   25.0297 C   0  0  0  0  0  0  0  0  0  0  0  0
    7.2543  -14.8579   25.7190 C   0  0  0  0  0  0  0  0  0  0  0  0
    6.0606  -15.1035   26.4080 C   0  0  0  0  0  0  0  0  0  0  0  0
    5.6124  -13.9595   26.9495 N   0  0  0  0  0  0  0  0  0  0  0  0
    6.4731  -12.9562   26.6413 C   0  0  0  0  0  0  0  0  0  0  0  0
    6.4116  -11.6239   26.9785 C   0  0  0  0  0  0  0  0  0  0  0  0
    7.4057  -10.7853   26.5421 C   0  0  0  0  0  0  0  0  0  0  0  0
    8.4282  -11.3114   25.7819 C   0  0  0  0  0  0  0  0  0  0  0  0
    8.4689  -12.6548   25.4555 C   0  0  0  0  0  0  0  0  0  0  0  0
    7.4815  -13.5192   25.8827 C   0  0  0  0  0  0  0  0  0  0  0  0
    8.2468  -16.8427   22.7243 C   0  0  0  0  0  0  0  0  0  0  0  0
    8.6089  -18.0272   22.5252 O   0  0  0  0  0  0  0  0  0  0  0  0
    6.8236  -12.9977   18.3728 N   0  0  0  0  0  0  0  0  0  0  0  0
    7.9064  -13.8608   18.1656 C   0  0  0  0  0  0  0  0  0  0  0  0
    8.7311  -13.6312   17.2493 O   0  0  0  0  0  0  0  0  0  0  0  0
    8.0801  -15.0524   19.0327 C   0  0  0  0  0  0  0  0  0  0  0  0
    9.3804  -14.9213   19.7933 C   0  0  0  0  0  0  0  0  0  0  0  0
    9.6247  -16.0413   20.7678 C   0  0  2  0  0  0  0  0  0  0  0  0
    8.6854  -15.8398   21.8574 N   0  0  0  0  0  0  0  0  0  0  0  0
   11.0079  -16.1532   21.2389 C   0  0  0  0  0  0  0  0  0  0  0  0
   11.9958  -16.2967   20.4768 O   0  0  0  0  0  0  0  0  0  0  0  0
   11.7700  -17.1971   25.1235 O   0  0  0  0  0  0  0  0  0  0  0  0
   12.6487  -16.2442   24.6437 C   0  0  0  0  0  0  0  0  0  0  0  0
   12.6999  -16.2494   23.1123 C   0  0  2  0  0  0  0  0  0  0  0  0
   11.3526  -16.1067   22.6412 N   0  0  0  0  0  0  0  0  0  0  0  0
   13.3031  -17.5473   22.7133 C   0  0  0  0  0  0  0  0  0  0  0  0
   14.5190  -17.7147   22.9859 O   0  0  0  0  0  0  0  0  0  0  0  0
   12.6266  -18.5573   22.0765 O   0  0  0  0  0  0  0  0  0  0  0  0
  2  1  1  1
  2  3  1  0
  3  4  1  0
  4  5  2  0
  5  6  1  0
  7  6  1  0
  8  7  2  0
  9  8  1  0
 10 11  1  0
 10  9  2  0
 11 12  2  0
 12  4  1  0
 12  7  1  0
 13  2  1  0
 13 21  1  0
 14 13  2  0
 16 15  1  0
 17 16  2  0
 18 16  1  0
 20 19  1  6
 19 18  1  0
 20 21  1  0
 22 20  1  0
 23 22  2  0
 25 24  1  0
 26 25  1  1
 26 28  1  0
 26 27  1  0
 27 22  1  0
 28 30  1  0
 29 28  2  0
M  END
$$$$
