WQS.pdb
     RDKit          3D

 30 31  0  0  1  0  0  0  0  0999 V2000
    9.0935  -16.4581   24.5608 N   0  0  0  0  0  0  0  0  0  0  0  0
    8.0663  -16.5972   23.5454 C   0  0  1  0  0  0  0  0  0  0  0  0
    6.9800  -15.5947   23.6827 C   0  0  0  0  0  0  0  0  0  0  0  0
    6.7584  -15.0389   25.0120 C   0  0  0  0  0  0  0  0  0  0  0  0
    6.2291  -15.7692   26.0827 C   0  0  0  0  0  0  0  0  0  0  0  0
    6.1680  -14.9866   27.1720 N   0  0  0  0  0  0  0  0  0  0  0  0
    6.6412  -13.7536   26.8590 C   0  0  0  0  0  0  0  0  0  0  0  0
    6.7600  -12.6397   27.6575 C   0  0  0  0  0  0  0  0  0  0  0  0
    7.2667  -11.4871   27.1127 C   0  0  0  0  0  0  0  0  0  0  0  0
    7.6372  -11.4906   25.7849 C   0  0  0  0  0  0  0  0  0  0  0  0
    7.5086  -12.6232   25.0016 C   0  0  0  0  0  0  0  0  0  0  0  0
    7.0024  -13.7951   25.5259 C   0  0  0  0  0  0  0  0  0  0  0  0
    8.5923  -16.7938   22.1868 C   0  0  0  0  0  0  0  0  0  0  0  0
    7.8919  -17.4015   21.3419 O   0  0  0  0  0  0  0  0  0  0  0  0
    9.6601  -12.8248   18.3440 N   0  0  0  0  0  0  0  0  0  0  0  0
    8.5205  -13.4983   18.7999 C   0  0  0  0  0  0  0  0  0  0  0  0
    7.3823  -12.9995   18.6319 O   0  0  0  0  0  0  0  0  0  0  0  0
    8.6583  -14.8075   19.4848 C   0  0  0  0  0  0  0  0  0  0  0  0
   10.1079  -15.0147   19.8616 C   0  0  0  0  0  0  0  0  0  0  0  0
   10.3872  -16.3641   20.4656 C   0  0  2  0  0  0  0  0  0  0  0  0
    9.8523  -16.3201   21.8155 N   0  0  0  0  0  0  0  0  0  0  0  0
   11.7954  -16.7686   20.4378 C   0  0  0  0  0  0  0  0  0  0  0  0
   12.6494  -16.3829   21.2740 O   0  0  0  0  0  0  0  0  0  0  0  0
   13.1297  -20.2448   18.9110 O   0  0  0  0  0  0  0  0  0  0  0  0
   13.8591  -19.1814   18.4135 C   0  0  0  0  0  0  0  0  0  0  0  0
   13.7244  -17.9430   19.3056 C   0  0  2  0  0  0  0  0  0  0  0  0
   12.3240  -17.6583   19.4296 N   0  0  0  0  0  0  0  0  0  0  0  0
   14.4648  -16.8489   18.6257 C   0  0  0  0  0  0  0  0  0  0  0  0
   13.7745  -15.9409   18.0969 O   0  0  0  0  0  0  0  0  0  0  0  0
   15.8322  -16.7695   18.5409 O   0  0  0  0  0  0  0  0  0  0  0  0
  2  1  1  1
  2  3  1  0
  3  4  1  0
  4  5  2  0
  5  6  1  0
  7  6  1  0
  8  7  2  0
  9  8  1  0
 10 11  1  0
 10  9  2  0
 11 12  2  0
 12  4  1  0
 12  7  1  0
 13  2  1  0
 13 21  1  0
 14 13  2  0
 16 15  1  0
 17 16  2  0
 18 16  1  0
 20 19  1  1
 19 18  1  0
 20 21  1  0
 22 20  1  0
 23 22  2  0
 25 24  1  0
 26 25  1  6
 26 28  1  0
 26 27  1  0
 27 22  1  0
 28 30  1  0
 29 28  2  0
M  END
$$$$
