WQS.pdb
     RDKit          3D

 30 31  0  0  1  0  0  0  0  0999 V2000
    7.6578  -17.3752   22.8077 N   0  0  0  0  0  0  0  0  0  0  0  0
    8.3198  -16.1000   22.6050 C   0  0  1  0  0  0  0  0  0  0  0  0
    7.4264  -14.9404   22.8527 C   0  0  0  0  0  0  0  0  0  0  0  0
    6.9368  -14.7630   24.2142 C   0  0  0  0  0  0  0  0  0  0  0  0
    6.3713  -15.7908   24.9782 C   0  0  0  0  0  0  0  0  0  0  0  0
    6.0400  -15.3177   26.1903 N   0  0  0  0  0  0  0  0  0  0  0  0
    6.3680  -14.0024   26.2576 C   0  0  0  0  0  0  0  0  0  0  0  0
    6.2064  -13.1184   27.2992 C   0  0  0  0  0  0  0  0  0  0  0  0
    6.6123  -11.8187   27.1319 C   0  0  0  0  0  0  0  0  0  0  0  0
    7.1667  -11.4493   25.9250 C   0  0  0  0  0  0  0  0  0  0  0  0
    7.3193  -12.3562   24.8919 C   0  0  0  0  0  0  0  0  0  0  0  0
    6.9197  -13.6692   25.0353 C   0  0  0  0  0  0  0  0  0  0  0  0
    9.6590  -16.0201   23.2061 C   0  0  0  0  0  0  0  0  0  0  0  0
   10.4256  -15.0859   22.8695 O   0  0  0  0  0  0  0  0  0  0  0  0
   11.0778  -18.9543   28.3952 N   0  0  0  0  0  0  0  0  0  0  0  0
   12.3788  -18.5798   28.0383 C   0  0  0  0  0  0  0  0  0  0  0  0
   13.3321  -18.7757   28.8291 O   0  0  0  0  0  0  0  0  0  0  0  0
   12.6324  -17.9487   26.7194 C   0  0  0  0  0  0  0  0  0  0  0  0
   11.3141  -17.7609   26.0030 C   0  0  0  0  0  0  0  0  0  0  0  0
   11.4327  -16.9978   24.7117 C   0  0  2  0  0  0  0  0  0  0  0  0
   10.0970  -16.9592   24.1421 N   0  0  0  0  0  0  0  0  0  0  0  0
   12.4230  -17.5319   23.7728 C   0  0  0  0  0  0  0  0  0  0  0  0
   12.1500  -18.3513   22.8610 O   0  0  0  0  0  0  0  0  0  0  0  0
   14.7520  -15.8842   20.5611 O   0  0  0  0  0  0  0  0  0  0  0  0
   13.9742  -16.0965   21.6837 C   0  0  0  0  0  0  0  0  0  0  0  0
   14.6405  -17.0824   22.6490 C   0  0  2  0  0  0  0  0  0  0  0  0
   13.8164  -17.1530   23.8210 N   0  0  0  0  0  0  0  0  0  0  0  0
   15.9926  -16.5403   22.9415 C   0  0  0  0  0  0  0  0  0  0  0  0
   16.1650  -16.0307   24.0779 O   0  0  0  0  0  0  0  0  0  0  0  0
   17.0467  -16.5611   22.0631 O   0  0  0  0  0  0  0  0  0  0  0  0
  2  1  1  1
  2  3  1  0
  3  4  1  0
  4  5  2  0
  5  6  1  0
  7  6  1  0
  8  7  2  0
  9  8  1  0
 10 11  1  0
 10  9  2  0
 11 12  2  0
 12  4  1  0
 12  7  1  0
 13  2  1  0
 13 21  1  0
 14 13  2  0
 16 15  1  0
 17 16  2  0
 18 16  1  0
 20 19  1  1
 19 18  1  0
 20 21  1  0
 22 20  1  0
 23 22  2  0
 25 24  1  0
 26 25  1  6
 26 28  1  0
 26 27  1  0
 27 22  1  0
 28 30  1  0
 29 28  2  0
M  END
$$$$
