WQS.pdb
     RDKit          3D

 30 31  0  0  1  0  0  0  0  0999 V2000
    6.7717  -17.8644   23.8538 N   0  0  0  0  0  0  0  0  0  0  0  0
    7.5632  -16.6842   23.5599 C   0  0  1  0  0  0  0  0  0  0  0  0
    8.0864  -16.0218   24.7812 C   0  0  0  0  0  0  0  0  0  0  0  0
    7.1869  -15.1068   25.4731 C   0  0  0  0  0  0  0  0  0  0  0  0
    6.0097  -15.5094   26.1149 C   0  0  0  0  0  0  0  0  0  0  0  0
    5.4162  -14.4420   26.6728 N   0  0  0  0  0  0  0  0  0  0  0  0
    6.1636  -13.3374   26.4214 C   0  0  0  0  0  0  0  0  0  0  0  0
    5.9383  -12.0322   26.7932 C   0  0  0  0  0  0  0  0  0  0  0  0
    6.8412  -11.0717   26.4135 C   0  0  0  0  0  0  0  0  0  0  0  0
    7.9399  -11.4527   25.6733 C   0  0  0  0  0  0  0  0  0  0  0  0
    8.1455  -12.7716   25.3113 C   0  0  0  0  0  0  0  0  0  0  0  0
    7.2526  -13.7566   25.6813 C   0  0  0  0  0  0  0  0  0  0  0  0
    8.5268  -16.8687   22.4652 C   0  0  0  0  0  0  0  0  0  0  0  0
    8.9649  -18.0191   22.2235 O   0  0  0  0  0  0  0  0  0  0  0  0
    7.7996  -12.5480   19.7914 N   0  0  0  0  0  0  0  0  0  0  0  0
    7.5925  -13.8880   19.4422 C   0  0  0  0  0  0  0  0  0  0  0  0
    6.4655  -14.4149   19.5993 O   0  0  0  0  0  0  0  0  0  0  0  0
    8.7099  -14.6890   18.8839 C   0  0  0  0  0  0  0  0  0  0  0  0
    9.8788  -14.6364   19.8416 C   0  0  0  0  0  0  0  0  0  0  0  0
   10.0185  -15.8702   20.6913 C   0  0  2  0  0  0  0  0  0  0  0  0
    8.9653  -15.7941   21.6889 N   0  0  0  0  0  0  0  0  0  0  0  0
   11.3423  -16.0540   21.2923 C   0  0  0  0  0  0  0  0  0  0  0  0
   12.4109  -16.0809   20.6331 O   0  0  0  0  0  0  0  0  0  0  0  0
   11.7533  -17.3191   25.3118 O   0  0  0  0  0  0  0  0  0  0  0  0
   12.6478  -16.3875   24.8195 C   0  0  0  0  0  0  0  0  0  0  0  0
   12.8057  -16.5102   23.3004 C   0  0  2  0  0  0  0  0  0  0  0  0
   11.5282  -16.2221   22.7152 N   0  0  0  0  0  0  0  0  0  0  0  0
   13.2485  -17.9028   23.0319 C   0  0  0  0  0  0  0  0  0  0  0  0
   12.4078  -18.6722   22.5008 O   0  0  0  0  0  0  0  0  0  0  0  0
   14.4969  -18.3927   23.3226 O   0  0  0  0  0  0  0  0  0  0  0  0
  2  1  1  1
  2  3  1  0
  3  4  1  0
  4  5  2  0
  5  6  1  0
  7  6  1  0
  8  7  2  0
  9  8  1  0
 10 11  1  0
 10  9  2  0
 11 12  2  0
 12  4  1  0
 12  7  1  0
 13  2  1  0
 13 21  1  0
 14 13  2  0
 16 15  1  0
 17 16  2  0
 18 16  1  0
 20 19  1  1
 19 18  1  0
 20 21  1  0
 22 20  1  0
 23 22  2  0
 25 24  1  0
 26 25  1  1
 26 28  1  0
 26 27  1  0
 27 22  1  0
 28 30  1  0
 29 28  2  0
M  END
$$$$
