WQS.pdb
     RDKit          3D

 30 31  0  0  1  0  0  0  0  0999 V2000
    8.2891  -13.9695   20.8708 N   0  0  0  0  0  0  0  0  0  0  0  0
    8.2804  -15.1229   21.7512 C   0  0  1  0  0  0  0  0  0  0  0  0
    6.9443  -15.3876   22.3418 C   0  0  0  0  0  0  0  0  0  0  0  0
    6.7314  -14.9505   23.7161 C   0  0  0  0  0  0  0  0  0  0  0  0
    6.2433  -15.7825   24.7307 C   0  0  0  0  0  0  0  0  0  0  0  0
    6.1797  -15.0948   25.8822 N   0  0  0  0  0  0  0  0  0  0  0  0
    6.6113  -13.8264   25.6652 C   0  0  0  0  0  0  0  0  0  0  0  0
    6.7126  -12.7791   26.5515 C   0  0  0  0  0  0  0  0  0  0  0  0
    7.1757  -11.5707   26.0964 C   0  0  0  0  0  0  0  0  0  0  0  0
    7.5215  -11.4533   24.7671 C   0  0  0  0  0  0  0  0  0  0  0  0
    7.4112  -12.5206   23.8945 C   0  0  0  0  0  0  0  0  0  0  0  0
    6.9488  -13.7466   24.3277 C   0  0  0  0  0  0  0  0  0  0  0  0
    8.9877  -16.2926   21.2102 C   0  0  0  0  0  0  0  0  0  0  0  0
    8.6933  -16.7091   20.0641 O   0  0  0  0  0  0  0  0  0  0  0  0
   12.8334  -15.5214   18.7718 N   0  0  0  0  0  0  0  0  0  0  0  0
   13.2288  -14.5508   19.7001 C   0  0  0  0  0  0  0  0  0  0  0  0
   13.8901  -13.5525   19.3277 O   0  0  0  0  0  0  0  0  0  0  0  0
   12.8646  -14.7024   21.1307 C   0  0  0  0  0  0  0  0  0  0  0  0
   11.4596  -15.2533   21.2244 C   0  0  0  0  0  0  0  0  0  0  0  0
   11.3556  -16.5018   22.0575 C   0  0  2  0  0  0  0  0  0  0  0  0
    9.9787  -16.9500   21.9419 N   0  0  0  0  0  0  0  0  0  0  0  0
   11.7744  -16.3442   23.4530 C   0  0  0  0  0  0  0  0  0  0  0  0
   12.9337  -16.0089   23.8006 O   0  0  0  0  0  0  0  0  0  0  0  0
    8.9902  -16.6711   26.5683 O   0  0  0  0  0  0  0  0  0  0  0  0
   10.1747  -15.9883   26.7709 C   0  0  0  0  0  0  0  0  0  0  0  0
   11.3108  -16.5736   25.9258 C   0  0  2  0  0  0  0  0  0  0  0  0
   10.8727  -16.5656   24.5599 N   0  0  0  0  0  0  0  0  0  0  0  0
   11.5509  -17.9492   26.4336 C   0  0  0  0  0  0  0  0  0  0  0  0
   11.9511  -18.0530   27.6209 O   0  0  0  0  0  0  0  0  0  0  0  0
   11.3659  -19.0936   25.6993 O   0  0  0  0  0  0  0  0  0  0  0  0
  2  1  1  6
  2  3  1  0
  3  4  1  0
  4  5  2  0
  5  6  1  0
  7  6  1  0
  8  7  2  0
  9  8  1  0
 10 11  1  0
 10  9  2  0
 11 12  2  0
 12  4  1  0
 12  7  1  0
 13  2  1  0
 13 21  1  0
 14 13  2  0
 16 15  1  0
 17 16  2  0
 18 16  1  0
 20 19  1  6
 19 18  1  0
 20 21  1  0
 22 20  1  0
 23 22  2  0
 25 24  1  0
 26 25  1  1
 26 28  1  0
 26 27  1  0
 27 22  1  0
 28 30  1  0
 29 28  2  0
M  END
$$$$
