WQS.pdb
     RDKit          3D

 30 31  0  0  1  0  0  0  0  0999 V2000
    9.4158  -17.9429   19.2054 N   0  0  0  0  0  0  0  0  0  0  0  0
   10.3672  -16.9595   19.6883 C   0  0  1  0  0  0  0  0  0  0  0  0
    9.9412  -16.3200   20.9585 C   0  0  0  0  0  0  0  0  0  0  0  0
    8.7440  -15.4897   20.9108 C   0  0  0  0  0  0  0  0  0  0  0  0
    7.5142  -15.8645   21.4649 C   0  0  0  0  0  0  0  0  0  0  0  0
    6.6194  -14.8815   21.2756 N   0  0  0  0  0  0  0  0  0  0  0  0
    7.2166  -13.8605   20.6101 C   0  0  0  0  0  0  0  0  0  0  0  0
    6.6839  -12.6598   20.2013 C   0  0  0  0  0  0  0  0  0  0  0  0
    7.4883  -11.7746   19.5295 C   0  0  0  0  0  0  0  0  0  0  0  0
    8.8002  -12.1237   19.2901 C   0  0  0  0  0  0  0  0  0  0  0  0
    9.3138  -13.3369   19.7111 C   0  0  0  0  0  0  0  0  0  0  0  0
    8.5256  -14.2443   20.3893 C   0  0  0  0  0  0  0  0  0  0  0  0
   11.7672  -17.4041   19.6299 C   0  0  0  0  0  0  0  0  0  0  0  0
   12.0261  -18.6262   19.7457 O   0  0  0  0  0  0  0  0  0  0  0  0
   16.2525  -13.4181   18.2857 N   0  0  0  0  0  0  0  0  0  0  0  0
   15.7265  -14.2533   17.2927 C   0  0  0  0  0  0  0  0  0  0  0  0
   15.8559  -13.9542   16.0818 O   0  0  0  0  0  0  0  0  0  0  0  0
   15.0129  -15.4975   17.6730 C   0  0  0  0  0  0  0  0  0  0  0  0
   14.9877  -15.6084   19.1808 C   0  0  0  0  0  0  0  0  0  0  0  0
   14.2162  -16.7974   19.6854 C   0  0  2  0  0  0  0  0  0  0  0  0
   12.8145  -16.4986   19.4486 N   0  0  0  0  0  0  0  0  0  0  0  0
   14.4814  -17.1524   21.0823 C   0  0  0  0  0  0  0  0  0  0  0  0
   14.5002  -16.3203   22.0228 O   0  0  0  0  0  0  0  0  0  0  0  0
   13.9253  -20.9108   22.2093 O   0  0  0  0  0  0  0  0  0  0  0  0
   14.0564  -19.9957   23.2368 C   0  0  0  0  0  0  0  0  0  0  0  0
   15.0188  -18.8644   22.8605 C   0  0  2  0  0  0  0  0  0  0  0  0
   14.7472  -18.5105   21.4972 N   0  0  0  0  0  0  0  0  0  0  0  0
   16.3929  -19.3997   23.0418 C   0  0  0  0  0  0  0  0  0  0  0  0
   17.0852  -19.5469   22.0027 O   0  0  0  0  0  0  0  0  0  0  0  0
   16.9437  -19.7374   24.2524 O   0  0  0  0  0  0  0  0  0  0  0  0
  2  1  1  1
  2  3  1  0
  3  4  1  0
  4  5  2  0
  5  6  1  0
  7  6  1  0
  8  7  2  0
  9  8  1  0
 10 11  1  0
 10  9  2  0
 11 12  2  0
 12  4  1  0
 12  7  1  0
 13  2  1  0
 13 21  1  0
 14 13  2  0
 16 15  1  0
 17 16  2  0
 18 16  1  0
 20 19  1  1
 19 18  1  0
 20 21  1  0
 22 20  1  0
 23 22  2  0
 25 24  1  0
 26 25  1  6
 26 28  1  0
 26 27  1  0
 27 22  1  0
 28 30  1  0
 29 28  2  0
M  END
$$$$
