WQS.pdb
     RDKit          3D

 30 31  0  0  1  0  0  0  0  0999 V2000
    6.3509  -18.4029   24.3624 N   0  0  0  0  0  0  0  0  0  0  0  0
    6.9537  -17.1210   24.0479 C   0  0  1  0  0  0  0  0  0  0  0  0
    7.5630  -16.4642   25.2317 C   0  0  0  0  0  0  0  0  0  0  0  0
    6.8841  -15.2852   25.7552 C   0  0  0  0  0  0  0  0  0  0  0  0
    5.5837  -15.3018   26.2735 C   0  0  0  0  0  0  0  0  0  0  0  0
    5.2526  -14.0697   26.6921 N   0  0  0  0  0  0  0  0  0  0  0  0
    6.2952  -13.2302   26.4676 C   0  0  0  0  0  0  0  0  0  0  0  0
    6.4000  -11.8842   26.7321 C   0  0  0  0  0  0  0  0  0  0  0  0
    7.5646  -11.2358   26.4078 C   0  0  0  0  0  0  0  0  0  0  0  0
    8.5851  -11.9594   25.8288 C   0  0  0  0  0  0  0  0  0  0  0  0
    8.4567  -13.3124   25.5725 C   0  0  0  0  0  0  0  0  0  0  0  0
    7.2959  -13.9879   25.8899 C   0  0  0  0  0  0  0  0  0  0  0  0
    7.7698  -17.1286   22.8253 C   0  0  0  0  0  0  0  0  0  0  0  0
    8.4922  -18.1242   22.5785 O   0  0  0  0  0  0  0  0  0  0  0  0
    8.3448  -12.0786   18.1976 N   0  0  0  0  0  0  0  0  0  0  0  0
    8.1738  -13.4422   17.9296 C   0  0  0  0  0  0  0  0  0  0  0  0
    7.4142  -13.8137   17.0036 O   0  0  0  0  0  0  0  0  0  0  0  0
    8.8935  -14.4529   18.7436 C   0  0  0  0  0  0  0  0  0  0  0  0
    8.0396  -14.8226   19.9354 C   0  0  0  0  0  0  0  0  0  0  0  0
    8.6062  -15.9482   20.7574 C   0  0  2  0  0  0  0  0  0  0  0  0
    7.7597  -16.0545   21.9332 N   0  0  0  0  0  0  0  0  0  0  0  0
   10.0229  -15.8022   21.1029 C   0  0  0  0  0  0  0  0  0  0  0  0
   10.9354  -15.6412   20.2552 O   0  0  0  0  0  0  0  0  0  0  0  0
   11.4243  -16.4637   25.0433 O   0  0  0  0  0  0  0  0  0  0  0  0
   11.9297  -15.3953   24.3267 C   0  0  0  0  0  0  0  0  0  0  0  0
   11.8721  -15.6548   22.8178 C   0  0  2  0  0  0  0  0  0  0  0  0
   10.4921  -15.8325   22.4690 N   0  0  0  0  0  0  0  0  0  0  0  0
   12.6795  -16.8766   22.5672 C   0  0  0  0  0  0  0  0  0  0  0  0
   12.0533  -17.9055   22.2063 O   0  0  0  0  0  0  0  0  0  0  0  0
   14.0430  -16.9504   22.7028 O   0  0  0  0  0  0  0  0  0  0  0  0
  2  1  1  1
  2  3  1  0
  3  4  1  0
  4  5  2  0
  5  6  1  0
  7  6  1  0
  8  7  2  0
  9  8  1  0
 10 11  1  0
 10  9  2  0
 11 12  2  0
 12  4  1  0
 12  7  1  0
 13  2  1  0
 13 21  1  0
 14 13  2  0
 16 15  1  0
 17 16  2  0
 18 16  1  0
 20 19  1  1
 19 18  1  0
 20 21  1  0
 22 20  1  0
 23 22  2  0
 25 24  1  0
 26 25  1  1
 26 28  1  0
 26 27  1  0
 27 22  1  0
 28 30  1  0
 29 28  2  0
M  END
$$$$
