YGA.pdb
     RDKit          3D

 22 22  0  0  1  0  0  0  0  0999 V2000
   21.9611  -19.0049  -14.6144 O   0  0  0  0  0  0  0  0  0  0  0  0
   22.3560  -17.6623  -14.6512 C   0  0  0  0  0  0  0  0  0  0  0  0
   23.6673  -17.3134  -14.4862 C   0  0  0  0  0  0  0  0  0  0  0  0
   24.0208  -15.9598  -14.5298 C   0  0  0  0  0  0  0  0  0  0  0  0
   23.0734  -14.9861  -14.7346 C   0  0  0  0  0  0  0  0  0  0  0  0
   23.4339  -13.5591  -14.7823 C   0  0  0  0  0  0  0  0  0  0  0  0
   23.2723  -12.9934  -16.1732 C   0  0  2  0  0  0  0  0  0  0  0  0
   24.0512  -13.7602  -17.1044 N   0  0  0  0  0  0  0  0  0  0  0  0
   23.7054  -11.5596  -16.1447 C   0  0  0  0  0  0  0  0  0  0  0  0
   24.8098  -11.2271  -16.6437 O   0  0  0  0  0  0  0  0  0  0  0  0
   21.7624  -15.3578  -14.8980 C   0  0  0  0  0  0  0  0  0  0  0  0
   21.3762  -16.6979  -14.8601 C   0  0  0  0  0  0  0  0  0  0  0  0
   22.9051  -10.5383  -15.5657 N   0  0  0  0  0  0  0  0  0  0  0  0
   23.2564   -9.1344  -15.6297 C   0  0  0  0  0  0  0  0  0  0  0  0
   22.2745   -8.3501  -14.8702 C   0  0  0  0  0  0  0  0  0  0  0  0
   21.2362   -8.8830  -14.4321 O   0  0  0  0  0  0  0  0  0  0  0  0
   21.9441   -4.8274  -13.5241 C   0  0  0  0  0  0  0  0  0  0  0  0
   21.4342   -6.2147  -13.8891 C   0  0  2  0  0  0  0  0  0  0  0  0
   22.4532   -6.9588  -14.5975 N   0  0  0  0  0  0  0  0  0  0  0  0
   20.2389   -6.0712  -14.7590 C   0  0  0  0  0  0  0  0  0  0  0  0
   20.4171   -6.0873  -16.0027 O   0  0  0  0  0  0  0  0  0  0  0  0
   18.9762   -5.9251  -14.2218 O   0  0  0  0  0  0  0  0  0  0  0  0
  2  1  1  0
  3  2  2  0
  4  3  1  0
  5  4  2  0
  5 11  1  0
  6  7  1  0
  6  5  1  0
  7  8  1  6
  7  9  1  0
  9 13  1  0
  9 10  2  0
 11 12  2  0
 12  2  1  0
 13 14  1  0
 14 15  1  0
 15 19  1  0
 15 16  2  0
 18 20  1  0
 18 17  1  6
 19 18  1  0
 20 22  1  0
 21 20  2  0
M  END
$$$$
