YGA.pdb
     RDKit          3D

 22 22  0  0  1  0  0  0  0  0999 V2000
   21.4014  -16.3978  -20.5430 O   0  0  0  0  0  0  0  0  0  0  0  0
   20.9198  -15.1640  -20.0895 C   0  0  0  0  0  0  0  0  0  0  0  0
   19.5803  -14.9581  -19.9110 C   0  0  0  0  0  0  0  0  0  0  0  0
   19.1396  -13.7099  -19.4560 C   0  0  0  0  0  0  0  0  0  0  0  0
   20.0299  -12.6981  -19.1889 C   0  0  0  0  0  0  0  0  0  0  0  0
   19.5775  -11.3811  -18.7098 C   0  0  0  0  0  0  0  0  0  0  0  0
   19.5267  -11.3283  -17.2014 C   0  0  2  0  0  0  0  0  0  0  0  0
   18.6750  -12.3727  -16.7059 N   0  0  0  0  0  0  0  0  0  0  0  0
   19.0259   -9.9745  -16.8007 C   0  0  0  0  0  0  0  0  0  0  0  0
   17.7987   -9.7129  -16.8707 O   0  0  0  0  0  0  0  0  0  0  0  0
   21.3705  -12.9257  -19.3748 C   0  0  0  0  0  0  0  0  0  0  0  0
   21.8432  -14.1579  -19.8271 C   0  0  0  0  0  0  0  0  0  0  0  0
   19.8962   -8.9524  -16.3354 N   0  0  0  0  0  0  0  0  0  0  0  0
   19.4293   -7.6324  -15.9641 C   0  0  0  0  0  0  0  0  0  0  0  0
   20.5509   -6.8500  -15.4293 C   0  0  0  0  0  0  0  0  0  0  0  0
   21.6554   -7.3864  -15.2142 O   0  0  0  0  0  0  0  0  0  0  0  0
   21.2638   -3.2314  -14.5657 C   0  0  0  0  0  0  0  0  0  0  0  0
   21.5818   -4.7184  -14.6405 C   0  0  2  0  0  0  0  0  0  0  0  0
   20.4385   -5.4569  -15.1320 N   0  0  0  0  0  0  0  0  0  0  0  0
   21.9290   -5.2021  -13.2798 C   0  0  0  0  0  0  0  0  0  0  0  0
   23.0248   -4.8304  -12.7904 O   0  0  0  0  0  0  0  0  0  0  0  0
   21.0787   -6.0308  -12.5764 O   0  0  0  0  0  0  0  0  0  0  0  0
  2  1  1  0
  3  2  2  0
  4  3  1  0
  5  4  2  0
  5 11  1  0
  6  7  1  0
  6  5  1  0
  7  8  1  6
  7  9  1  0
  9 13  1  0
  9 10  2  0
 11 12  2  0
 12  2  1  0
 13 14  1  0
 14 15  1  0
 15 19  1  0
 15 16  2  0
 18 20  1  0
 18 17  1  1
 19 18  1  0
 20 22  1  0
 21 20  2  0
M  END
$$$$
