YGA.pdb
     RDKit          3D

 22 22  0  0  1  0  0  0  0  0999 V2000
   23.3754  -21.5405   -7.3226 O   0  0  0  0  0  0  0  0  0  0  0  0
   24.0509  -21.2665   -8.5179 C   0  0  0  0  0  0  0  0  0  0  0  0
   25.4163  -21.2978   -8.5734 C   0  0  0  0  0  0  0  0  0  0  0  0
   26.0533  -21.0177   -9.7879 C   0  0  0  0  0  0  0  0  0  0  0  0
   25.3286  -20.7145  -10.9150 C   0  0  0  0  0  0  0  0  0  0  0  0
   25.9882  -20.4183  -12.1979 C   0  0  0  0  0  0  0  0  0  0  0  0
   25.0529  -20.6333  -13.3640 C   0  0  2  0  0  0  0  0  0  0  0  0
   24.8270  -22.0385  -13.5543 N   0  0  0  0  0  0  0  0  0  0  0  0
   25.6708  -20.0072  -14.5765 C   0  0  0  0  0  0  0  0  0  0  0  0
   26.0529  -18.8106  -14.5399 O   0  0  0  0  0  0  0  0  0  0  0  0
   23.9586  -20.6885  -10.8376 C   0  0  0  0  0  0  0  0  0  0  0  0
   23.2922  -20.9627   -9.6429 C   0  0  0  0  0  0  0  0  0  0  0  0
   25.8473  -20.7226  -15.7913 N   0  0  0  0  0  0  0  0  0  0  0  0
   26.3822  -20.1124  -16.9913 C   0  0  0  0  0  0  0  0  0  0  0  0
   25.2846  -19.5317  -17.7750 C   0  0  0  0  0  0  0  0  0  0  0  0
   25.4925  -19.0636  -18.9115 O   0  0  0  0  0  0  0  0  0  0  0  0
   23.4650  -17.8952  -19.0846 C   0  0  0  0  0  0  0  0  0  0  0  0
   22.8908  -18.9047  -18.1002 C   0  0  2  0  0  0  0  0  0  0  0  0
   23.9432  -19.4732  -17.2857 N   0  0  0  0  0  0  0  0  0  0  0  0
   22.2222  -19.9895  -18.8632 C   0  0  0  0  0  0  0  0  0  0  0  0
   22.7725  -21.1189  -18.8755 O   0  0  0  0  0  0  0  0  0  0  0  0
   21.0380  -19.7664  -19.5357 O   0  0  0  0  0  0  0  0  0  0  0  0
  2  1  1  0
  3  2  2  0
  4  3  1  0
  5  4  2  0
  5 11  1  0
  6  7  1  0
  6  5  1  0
  7  8  1  6
  7  9  1  0
  9 13  1  0
  9 10  2  0
 11 12  2  0
 12  2  1  0
 13 14  1  0
 14 15  1  0
 15 19  1  0
 15 16  2  0
 18 20  1  0
 18 17  1  6
 19 18  1  0
 20 22  1  0
 21 20  2  0
M  END
$$$$
