YGA.pdb
     RDKit          3D

 22 22  0  0  1  0  0  0  0  0999 V2000
   21.3289   -9.8952    7.1939 O   0  0  0  0  0  0  0  0  0  0  0  0
   20.5351  -11.0354    7.3665 C   0  0  0  0  0  0  0  0  0  0  0  0
   19.4428  -11.0101    8.1879 C   0  0  0  0  0  0  0  0  0  0  0  0
   18.6752  -12.1715    8.3333 C   0  0  0  0  0  0  0  0  0  0  0  0
   19.0040  -13.3266    7.6659 C   0  0  0  0  0  0  0  0  0  0  0  0
   18.2036  -14.5542    7.8114 C   0  0  0  0  0  0  0  0  0  0  0  0
   18.8716  -15.7329    7.1442 C   0  0  2  0  0  0  0  0  0  0  0  0
   18.3144  -15.9321    5.8359 N   0  0  0  0  0  0  0  0  0  0  0  0
   18.6709  -16.9348    8.0154 C   0  0  0  0  0  0  0  0  0  0  0  0
   18.6583  -16.8091    9.2658 O   0  0  0  0  0  0  0  0  0  0  0  0
   20.1046  -13.3306    6.8461 C   0  0  0  0  0  0  0  0  0  0  0  0
   20.8911  -12.1904    6.6789 C   0  0  0  0  0  0  0  0  0  0  0  0
   18.4905  -18.2377    7.4783 N   0  0  0  0  0  0  0  0  0  0  0  0
   18.1239  -19.3787    8.2920 C   0  0  0  0  0  0  0  0  0  0  0  0
   16.9467  -20.0357    7.7102 C   0  0  0  0  0  0  0  0  0  0  0  0
   16.1354  -19.3905    7.0176 O   0  0  0  0  0  0  0  0  0  0  0  0
   14.2496  -21.2463    7.6764 C   0  0  0  0  0  0  0  0  0  0  0  0
   15.5013  -22.0299    7.3065 C   0  0  2  0  0  0  0  0  0  0  0  0
   16.6726  -21.4248    7.9031 N   0  0  0  0  0  0  0  0  0  0  0  0
   15.6478  -22.0271    5.8285 C   0  0  0  0  0  0  0  0  0  0  0  0
   16.6756  -21.4900    5.3451 O   0  0  0  0  0  0  0  0  0  0  0  0
   14.6895  -22.5941    5.0134 O   0  0  0  0  0  0  0  0  0  0  0  0
  2  1  1  0
  3  2  2  0
  4  3  1  0
  5  4  2  0
  5 11  1  0
  6  7  1  0
  6  5  1  0
  7  8  1  6
  7  9  1  0
  9 13  1  0
  9 10  2  0
 11 12  2  0
 12  2  1  0
 13 14  1  0
 14 15  1  0
 15 19  1  0
 15 16  2  0
 18 20  1  0
 18 17  1  6
 19 18  1  0
 20 22  1  0
 21 20  2  0
M  END
$$$$
