YGA.pdb
     RDKit          3D

 22 22  0  0  1  0  0  0  0  0999 V2000
   24.9167  -21.8027   -8.0727 O   0  0  0  0  0  0  0  0  0  0  0  0
   25.5000  -21.3143   -9.2479 C   0  0  0  0  0  0  0  0  0  0  0  0
   25.7939  -22.1546  -10.2852 C   0  0  0  0  0  0  0  0  0  0  0  0
   26.3768  -21.6265  -11.4431 C   0  0  0  0  0  0  0  0  0  0  0  0
   26.6546  -20.2851  -11.5482 C   0  0  0  0  0  0  0  0  0  0  0  0
   27.2676  -19.7187  -12.7615 C   0  0  0  0  0  0  0  0  0  0  0  0
   26.2239  -19.1661  -13.7028 C   0  0  2  0  0  0  0  0  0  0  0  0
   25.3853  -20.2299  -14.1788 N   0  0  0  0  0  0  0  0  0  0  0  0
   26.9322  -18.4789  -14.8298 C   0  0  0  0  0  0  0  0  0  0  0  0
   27.3400  -19.1449  -15.8144 O   0  0  0  0  0  0  0  0  0  0  0  0
   26.3515  -19.4588  -10.4952 C   0  0  0  0  0  0  0  0  0  0  0  0
   25.7702  -19.9525   -9.3270 C   0  0  0  0  0  0  0  0  0  0  0  0
   27.1680  -17.0778  -14.8337 N   0  0  0  0  0  0  0  0  0  0  0  0
   27.8942  -16.4067  -15.8923 C   0  0  0  0  0  0  0  0  0  0  0  0
   26.9854  -16.1378  -17.0138 C   0  0  0  0  0  0  0  0  0  0  0  0
   25.7981  -15.8184  -16.8082 O   0  0  0  0  0  0  0  0  0  0  0  0
   27.2558  -15.7388  -20.7630 C   0  0  0  0  0  0  0  0  0  0  0  0
   26.5011  -15.8650  -19.4469 C   0  0  2  0  0  0  0  0  0  0  0  0
   27.4057  -16.2262  -18.3767 N   0  0  0  0  0  0  0  0  0  0  0  0
   25.4650  -16.9197  -19.5892 C   0  0  0  0  0  0  0  0  0  0  0  0
   24.3421  -16.5778  -20.0373 O   0  0  0  0  0  0  0  0  0  0  0  0
   25.7249  -18.2297  -19.2417 O   0  0  0  0  0  0  0  0  0  0  0  0
  2  1  1  0
  3  2  2  0
  4  3  1  0
  5  4  2  0
  5 11  1  0
  6  7  1  0
  6  5  1  0
  7  8  1  6
  7  9  1  0
  9 13  1  0
  9 10  2  0
 11 12  2  0
 12  2  1  0
 13 14  1  0
 14 15  1  0
 15 19  1  0
 15 16  2  0
 18 20  1  0
 18 17  1  6
 19 18  1  0
 20 22  1  0
 21 20  2  0
M  END
$$$$
