YGA.pdb
     RDKit          3D

 22 22  0  0  1  0  0  0  0  0999 V2000
   28.2164  -19.0448   -5.5700 O   0  0  0  0  0  0  0  0  0  0  0  0
   27.9326  -19.6625   -6.7939 C   0  0  0  0  0  0  0  0  0  0  0  0
   28.9387  -20.1343   -7.5898 C   0  0  0  0  0  0  0  0  0  0  0  0
   28.6127  -20.7456   -8.8061 C   0  0  0  0  0  0  0  0  0  0  0  0
   27.3046  -20.8757   -9.2057 C   0  0  0  0  0  0  0  0  0  0  0  0
   26.9501  -21.5170  -10.4831 C   0  0  0  0  0  0  0  0  0  0  0  0
   26.5663  -20.4959  -11.5275 C   0  0  2  0  0  0  0  0  0  0  0  0
   25.3326  -19.8611  -11.1577 N   0  0  0  0  0  0  0  0  0  0  0  0
   26.4485  -21.2002  -12.8443 C   0  0  0  0  0  0  0  0  0  0  0  0
   27.3876  -21.9280  -13.2536 O   0  0  0  0  0  0  0  0  0  0  0  0
   26.3097  -20.3951   -8.3917 C   0  0  0  0  0  0  0  0  0  0  0  0
   26.6000  -19.7807   -7.1733 C   0  0  0  0  0  0  0  0  0  0  0  0
   25.2970  -21.0784  -13.6677 N   0  0  0  0  0  0  0  0  0  0  0  0
   25.1787  -21.7336  -14.9542 C   0  0  0  0  0  0  0  0  0  0  0  0
   23.9002  -22.4525  -15.0206 C   0  0  0  0  0  0  0  0  0  0  0  0
   23.0413  -22.1463  -15.8707 O   0  0  0  0  0  0  0  0  0  0  0  0
   22.3603  -25.5572  -13.5529 C   0  0  0  0  0  0  0  0  0  0  0  0
   22.2976  -24.1915  -14.2227 C   0  0  2  0  0  0  0  0  0  0  0  0
   23.5775  -23.5227  -14.1303 N   0  0  0  0  0  0  0  0  0  0  0  0
   21.2657  -23.3706  -13.5390 C   0  0  0  0  0  0  0  0  0  0  0  0
   20.0628  -23.6996  -13.6921 O   0  0  0  0  0  0  0  0  0  0  0  0
   21.6143  -22.2844  -12.7626 O   0  0  0  0  0  0  0  0  0  0  0  0
  2  1  1  0
  3  2  2  0
  4  3  1  0
  5  4  2  0
  5 11  1  0
  6  7  1  0
  6  5  1  0
  7  8  1  1
  7  9  1  0
  9 13  1  0
  9 10  2  0
 11 12  2  0
 12  2  1  0
 13 14  1  0
 14 15  1  0
 15 19  1  0
 15 16  2  0
 18 20  1  0
 18 17  1  1
 19 18  1  0
 20 22  1  0
 21 20  2  0
M  END
$$$$
