YGA.pdb
     RDKit          3D

 22 22  0  0  1  0  0  0  0  0999 V2000
   22.1422  -13.5481  -17.7646 O   0  0  0  0  0  0  0  0  0  0  0  0
   23.4610  -13.2358  -17.4138 C   0  0  0  0  0  0  0  0  0  0  0  0
   24.1381  -13.9886  -16.4954 C   0  0  0  0  0  0  0  0  0  0  0  0
   25.4554  -13.6429  -16.1722 C   0  0  0  0  0  0  0  0  0  0  0  0
   26.0705  -12.5652  -16.7621 C   0  0  0  0  0  0  0  0  0  0  0  0
   27.4558  -12.1925  -16.4297 C   0  0  0  0  0  0  0  0  0  0  0  0
   28.3723  -12.3504  -17.6197 C   0  0  2  0  0  0  0  0  0  0  0  0
   28.3831  -13.7210  -18.0476 N   0  0  0  0  0  0  0  0  0  0  0  0
   29.7397  -11.8899  -17.2170 C   0  0  0  0  0  0  0  0  0  0  0  0
   30.6090  -12.7294  -16.8725 O   0  0  0  0  0  0  0  0  0  0  0  0
   25.3729  -11.8227  -17.6816 C   0  0  0  0  0  0  0  0  0  0  0  0
   24.0587  -12.1398  -18.0264 C   0  0  0  0  0  0  0  0  0  0  0  0
   30.1038  -10.5166  -17.2074 N   0  0  0  0  0  0  0  0  0  0  0  0
   31.4369  -10.0600  -16.8717 C   0  0  0  0  0  0  0  0  0  0  0  0
   31.4686   -8.5921  -16.8860 C   0  0  0  0  0  0  0  0  0  0  0  0
   30.5000   -7.9390  -17.3210 O   0  0  0  0  0  0  0  0  0  0  0  0
   33.7808   -5.8492  -15.6694 C   0  0  0  0  0  0  0  0  0  0  0  0
   32.5448   -6.4011  -16.3662 C   0  0  2  0  0  0  0  0  0  0  0  0
   32.5914   -7.8467  -16.4108 N   0  0  0  0  0  0  0  0  0  0  0  0
   32.5001   -5.8696  -17.7523 C   0  0  0  0  0  0  0  0  0  0  0  0
   32.9385   -6.6036  -18.6730 O   0  0  0  0  0  0  0  0  0  0  0  0
   31.9951   -4.6138  -18.0213 O   0  0  0  0  0  0  0  0  0  0  0  0
  2  1  1  0
  3  2  2  0
  4  3  1  0
  5  4  2  0
  5 11  1  0
  6  7  1  0
  6  5  1  0
  7  8  1  1
  7  9  1  0
  9 13  1  0
  9 10  2  0
 11 12  2  0
 12  2  1  0
 13 14  1  0
 14 15  1  0
 15 19  1  0
 15 16  2  0
 18 20  1  0
 18 17  1  6
 19 18  1  0
 20 22  1  0
 21 20  2  0
M  END
$$$$
