YGA.pdb
     RDKit          3D

 22 22  0  0  1  0  0  0  0  0999 V2000
   21.9804   -9.9846    7.4412 O   0  0  0  0  0  0  0  0  0  0  0  0
   21.0930  -11.0671    7.4142 C   0  0  0  0  0  0  0  0  0  0  0  0
   21.4606  -12.2862    7.9113 C   0  0  0  0  0  0  0  0  0  0  0  0
   20.5438  -13.3430    7.8655 C   0  0  0  0  0  0  0  0  0  0  0  0
   19.2898  -13.1706    7.3313 C   0  0  0  0  0  0  0  0  0  0  0  0
   18.3173  -14.2752    7.2780 C   0  0  0  0  0  0  0  0  0  0  0  0
   18.1679  -14.8140    5.8751 C   0  0  2  0  0  0  0  0  0  0  0  0
   17.4717  -13.8598    5.0585 N   0  0  0  0  0  0  0  0  0  0  0  0
   17.4274  -16.1138    5.9532 C   0  0  0  0  0  0  0  0  0  0  0  0
   16.2554  -16.1969    5.5073 O   0  0  0  0  0  0  0  0  0  0  0  0
   18.9409  -11.9386    6.8376 C   0  0  0  0  0  0  0  0  0  0  0  0
   19.8305  -10.8643    6.8679 C   0  0  0  0  0  0  0  0  0  0  0  0
   18.0048  -17.2811    6.5214 N   0  0  0  0  0  0  0  0  0  0  0  0
   17.3064  -18.5483    6.5913 C   0  0  0  0  0  0  0  0  0  0  0  0
   18.2401  -19.5977    7.0191 C   0  0  0  0  0  0  0  0  0  0  0  0
   19.3507  -19.3028    7.5025 O   0  0  0  0  0  0  0  0  0  0  0  0
   18.8585  -21.8161    9.0064 C   0  0  0  0  0  0  0  0  0  0  0  0
   18.8038  -21.9822    7.4940 C   0  0  2  0  0  0  0  0  0  0  0  0
   17.9313  -20.9884    6.9065 N   0  0  0  0  0  0  0  0  0  0  0  0
   18.2834  -23.3374    7.1804 C   0  0  0  0  0  0  0  0  0  0  0  0
   17.1372  -23.4192    6.6724 O   0  0  0  0  0  0  0  0  0  0  0  0
   19.0315  -24.4683    7.4373 O   0  0  0  0  0  0  0  0  0  0  0  0
  2  1  1  0
  3  2  2  0
  4  3  1  0
  5  4  2  0
  5 11  1  0
  6  7  1  0
  6  5  1  0
  7  8  1  6
  7  9  1  0
  9 13  1  0
  9 10  2  0
 11 12  2  0
 12  2  1  0
 13 14  1  0
 14 15  1  0
 15 19  1  0
 15 16  2  0
 18 20  1  0
 18 17  1  1
 19 18  1  0
 20 22  1  0
 21 20  2  0
M  END
$$$$
