YGA.pdb
     RDKit          3D

 22 22  0  0  1  0  0  0  0  0999 V2000
   20.4012  -22.9527   -7.6571 O   0  0  0  0  0  0  0  0  0  0  0  0
   20.6318  -22.1249   -8.7623 C   0  0  0  0  0  0  0  0  0  0  0  0
   21.4036  -21.0026   -8.6473 C   0  0  0  0  0  0  0  0  0  0  0  0
   21.6099  -20.2014   -9.7764 C   0  0  0  0  0  0  0  0  0  0  0  0
   21.0505  -20.5271  -10.9883 C   0  0  0  0  0  0  0  0  0  0  0  0
   21.2607  -19.6916  -12.1826 C   0  0  0  0  0  0  0  0  0  0  0  0
   22.1726  -20.3685  -13.1782 C   0  0  2  0  0  0  0  0  0  0  0  0
   23.4663  -20.5760  -12.5910 N   0  0  0  0  0  0  0  0  0  0  0  0
   22.2551  -19.5011  -14.3968 C   0  0  0  0  0  0  0  0  0  0  0  0
   22.7909  -18.3667  -14.3250 O   0  0  0  0  0  0  0  0  0  0  0  0
   20.2788  -21.6581  -11.0821 C   0  0  0  0  0  0  0  0  0  0  0  0
   20.0533  -22.4785   -9.9763 C   0  0  0  0  0  0  0  0  0  0  0  0
   21.7433  -19.9141  -15.6562 N   0  0  0  0  0  0  0  0  0  0  0  0
   21.8019  -19.0803  -16.8393 C   0  0  0  0  0  0  0  0  0  0  0  0
   23.1568  -19.1273  -17.4033 C   0  0  0  0  0  0  0  0  0  0  0  0
   24.0658  -19.7535  -16.8240 O   0  0  0  0  0  0  0  0  0  0  0  0
   24.7990  -19.6894  -20.2917 C   0  0  0  0  0  0  0  0  0  0  0  0
   24.8189  -18.6307  -19.1977 C   0  0  2  0  0  0  0  0  0  0  0  0
   23.4999  -18.4695  -18.6247 N   0  0  0  0  0  0  0  0  0  0  0  0
   25.2570  -17.3405  -19.7889 C   0  0  0  0  0  0  0  0  0  0  0  0
   24.3674  -16.5107  -20.1028 O   0  0  0  0  0  0  0  0  0  0  0  0
   26.5938  -17.0614  -19.9870 O   0  0  0  0  0  0  0  0  0  0  0  0
  2  1  1  0
  3  2  2  0
  4  3  1  0
  5  4  2  0
  5 11  1  0
  6  7  1  0
  6  5  1  0
  7  8  1  1
  7  9  1  0
  9 13  1  0
  9 10  2  0
 11 12  2  0
 12  2  1  0
 13 14  1  0
 14 15  1  0
 15 19  1  0
 15 16  2  0
 18 20  1  0
 18 17  1  6
 19 18  1  0
 20 22  1  0
 21 20  2  0
M  END
$$$$
