YGA.pdb
     RDKit          3D

 22 22  0  0  1  0  0  0  0  0999 V2000
   22.8824   -1.2169  -15.5342 O   0  0  0  0  0  0  0  0  0  0  0  0
   22.3841   -2.4872  -15.8470 C   0  0  0  0  0  0  0  0  0  0  0  0
   21.3866   -2.6405  -16.7689 C   0  0  0  0  0  0  0  0  0  0  0  0
   20.9162   -3.9278  -17.0532 C   0  0  0  0  0  0  0  0  0  0  0  0
   21.4407   -5.0295  -16.4218 C   0  0  0  0  0  0  0  0  0  0  0  0
   20.9535   -6.3883  -16.7130 C   0  0  0  0  0  0  0  0  0  0  0  0
   21.8634   -7.1072  -17.6805 C   0  0  2  0  0  0  0  0  0  0  0  0
   21.9978   -6.3382  -18.8857 N   0  0  0  0  0  0  0  0  0  0  0  0
   21.2765   -8.4582  -17.9536 C   0  0  0  0  0  0  0  0  0  0  0  0
   20.5979   -8.6496  -18.9939 O   0  0  0  0  0  0  0  0  0  0  0  0
   22.4415   -4.8536  -15.4994 C   0  0  0  0  0  0  0  0  0  0  0  0
   22.9333   -3.5845  -15.1928 C   0  0  0  0  0  0  0  0  0  0  0  0
   21.4577   -9.5552  -17.0691 N   0  0  0  0  0  0  0  0  0  0  0  0
   20.9182  -10.8736  -17.3324 C   0  0  0  0  0  0  0  0  0  0  0  0
   19.5371  -10.9438  -16.8389 C   0  0  0  0  0  0  0  0  0  0  0  0
   19.0336   -9.9868  -16.2187 O   0  0  0  0  0  0  0  0  0  0  0  0
   16.3493  -12.3743  -17.5853 C   0  0  0  0  0  0  0  0  0  0  0  0
   17.3750  -12.1392  -16.4851 C   0  0  2  0  0  0  0  0  0  0  0  0
   18.7109  -12.0923  -17.0394 N   0  0  0  0  0  0  0  0  0  0  0  0
   17.2899  -13.2530  -15.5062 C   0  0  0  0  0  0  0  0  0  0  0  0
   16.2584  -13.3249  -14.7924 O   0  0  0  0  0  0  0  0  0  0  0  0
   18.3073  -14.1772  -15.3836 O   0  0  0  0  0  0  0  0  0  0  0  0
  2  1  1  0
  3  2  2  0
  4  3  1  0
  5  4  2  0
  5 11  1  0
  6  7  1  0
  6  5  1  0
  7  8  1  6
  7  9  1  0
  9 13  1  0
  9 10  2  0
 11 12  2  0
 12  2  1  0
 13 14  1  0
 14 15  1  0
 15 19  1  0
 15 16  2  0
 18 20  1  0
 18 17  1  6
 19 18  1  0
 20 22  1  0
 21 20  2  0
M  END
$$$$
