YGA.pdb
     RDKit          3D

 22 22  0  0  1  0  0  0  0  0999 V2000
   31.2326  -10.8030  -17.8238 O   0  0  0  0  0  0  0  0  0  0  0  0
   29.8406  -10.6676  -17.7621 C   0  0  0  0  0  0  0  0  0  0  0  0
   29.2672   -9.6448  -17.0597 C   0  0  0  0  0  0  0  0  0  0  0  0
   27.8715   -9.5447  -17.0228 C   0  0  0  0  0  0  0  0  0  0  0  0
   27.0781  -10.4547  -17.6787 C   0  0  0  0  0  0  0  0  0  0  0  0
   25.6090  -10.3591  -17.6468 C   0  0  0  0  0  0  0  0  0  0  0  0
   25.0587  -10.7399  -16.2929 C   0  0  2  0  0  0  0  0  0  0  0  0
   25.4904  -12.0649  -15.9468 N   0  0  0  0  0  0  0  0  0  0  0  0
   23.5649  -10.6479  -16.3561 C   0  0  0  0  0  0  0  0  0  0  0  0
   22.8687  -11.6932  -16.3108 O   0  0  0  0  0  0  0  0  0  0  0  0
   27.6740  -11.4741  -18.3781 C   0  0  0  0  0  0  0  0  0  0  0  0
   29.0621  -11.6028  -18.4352 C   0  0  0  0  0  0  0  0  0  0  0  0
   22.8869   -9.4042  -16.4675 N   0  0  0  0  0  0  0  0  0  0  0  0
   21.4438   -9.2892  -16.4164 C   0  0  0  0  0  0  0  0  0  0  0  0
   21.0683   -7.8707  -16.3640 C   0  0  0  0  0  0  0  0  0  0  0  0
   21.9417   -6.9830  -16.3066 O   0  0  0  0  0  0  0  0  0  0  0  0
   17.8900   -5.8270  -16.6147 C   0  0  0  0  0  0  0  0  0  0  0  0
   19.3849   -6.0286  -16.4088 C   0  0  2  0  0  0  0  0  0  0  0  0
   19.7061   -7.4392  -16.3759 N   0  0  0  0  0  0  0  0  0  0  0  0
   19.7780   -5.4067  -15.1186 C   0  0  0  0  0  0  0  0  0  0  0  0
   19.9452   -6.1662  -14.1318 O   0  0  0  0  0  0  0  0  0  0  0  0
   19.9539   -4.0426  -15.0060 O   0  0  0  0  0  0  0  0  0  0  0  0
  2  1  1  0
  3  2  2  0
  4  3  1  0
  5  4  2  0
  5 11  1  0
  6  7  1  0
  6  5  1  0
  7  8  1  6
  7  9  1  0
  9 13  1  0
  9 10  2  0
 11 12  2  0
 12  2  1  0
 13 14  1  0
 14 15  1  0
 15 19  1  0
 15 16  2  0
 18 20  1  0
 18 17  1  1
 19 18  1  0
 20 22  1  0
 21 20  2  0
M  END
$$$$
