YGA.pdb
     RDKit          3D

 22 22  0  0  1  0  0  0  0  0999 V2000
   27.2357  -16.3525  -19.3039 O   0  0  0  0  0  0  0  0  0  0  0  0
   27.5036  -17.5562  -18.6410 C   0  0  0  0  0  0  0  0  0  0  0  0
   28.6515  -18.2541  -18.8938 C   0  0  0  0  0  0  0  0  0  0  0  0
   28.8818  -19.4534  -18.2098 C   0  0  0  0  0  0  0  0  0  0  0  0
   27.9755  -19.9332  -17.2953 C   0  0  0  0  0  0  0  0  0  0  0  0
   28.2075  -21.1936  -16.5700 C   0  0  0  0  0  0  0  0  0  0  0  0
   28.1317  -22.3860  -17.4938 C   0  0  2  0  0  0  0  0  0  0  0  0
   26.8050  -22.5028  -18.0303 N   0  0  0  0  0  0  0  0  0  0  0  0
   28.5174  -23.6042  -16.7121 C   0  0  0  0  0  0  0  0  0  0  0  0
   29.6660  -23.6905  -16.2096 O   0  0  0  0  0  0  0  0  0  0  0  0
   26.8294  -19.2170  -17.0564 C   0  0  0  0  0  0  0  0  0  0  0  0
   26.5691  -18.0181  -17.7208 C   0  0  0  0  0  0  0  0  0  0  0  0
   27.6223  -24.6889  -16.5101 N   0  0  0  0  0  0  0  0  0  0  0  0
   28.0172  -25.9227  -15.8618 C   0  0  0  0  0  0  0  0  0  0  0  0
   28.3435  -26.9276  -16.8815 C   0  0  0  0  0  0  0  0  0  0  0  0
   28.4279  -26.6098  -18.0840 O   0  0  0  0  0  0  0  0  0  0  0  0
   29.2866  -30.5933  -16.9904 C   0  0  0  0  0  0  0  0  0  0  0  0
   28.8800  -29.2576  -17.5973 C   0  0  2  0  0  0  0  0  0  0  0  0
   28.5774  -28.2992  -16.5561 N   0  0  0  0  0  0  0  0  0  0  0  0
   27.6740  -29.4626  -18.4396 C   0  0  0  0  0  0  0  0  0  0  0  0
   27.8265  -30.0351  -19.5476 O   0  0  0  0  0  0  0  0  0  0  0  0
   26.4287  -29.0396  -18.0214 O   0  0  0  0  0  0  0  0  0  0  0  0
  2  1  1  0
  3  2  2  0
  4  3  1  0
  5  4  2  0
  5 11  1  0
  6  7  1  0
  6  5  1  0
  7  8  1  1
  7  9  1  0
  9 13  1  0
  9 10  2  0
 11 12  2  0
 12  2  1  0
 13 14  1  0
 14 15  1  0
 15 19  1  0
 15 16  2  0
 18 20  1  0
 18 17  1  1
 19 18  1  0
 20 22  1  0
 21 20  2  0
M  END
$$$$
