YGA.pdb
     RDKit          3D

 22 22  0  0  1  0  0  0  0  0999 V2000
   26.6933  -33.0442  -14.0109 O   0  0  0  0  0  0  0  0  0  0  0  0
   26.1114  -33.4838  -12.8159 C   0  0  0  0  0  0  0  0  0  0  0  0
   26.8520  -33.5822  -11.6712 C   0  0  0  0  0  0  0  0  0  0  0  0
   26.2323  -34.0260  -10.4972 C   0  0  0  0  0  0  0  0  0  0  0  0
   24.8999  -34.3609  -10.4821 C   0  0  0  0  0  0  0  0  0  0  0  0
   24.2377  -34.8289   -9.2529 C   0  0  0  0  0  0  0  0  0  0  0  0
   23.3397  -33.7647   -8.6682 C   0  0  2  0  0  0  0  0  0  0  0  0
   24.1350  -32.6881   -8.1485 N   0  0  0  0  0  0  0  0  0  0  0  0
   22.5055  -34.3979   -7.5972 C   0  0  0  0  0  0  0  0  0  0  0  0
   21.7963  -35.4005   -7.8639 O   0  0  0  0  0  0  0  0  0  0  0  0
   24.1744  -34.2550  -11.6423 C   0  0  0  0  0  0  0  0  0  0  0  0
   24.7611  -33.8161  -12.8295 C   0  0  0  0  0  0  0  0  0  0  0  0
   22.4808  -33.9039   -6.2653 N   0  0  0  0  0  0  0  0  0  0  0  0
   21.7188  -34.5354   -5.2075 C   0  0  0  0  0  0  0  0  0  0  0  0
   20.7171  -33.5913   -4.6965 C   0  0  0  0  0  0  0  0  0  0  0  0
   20.6454  -32.4323   -5.1499 O   0  0  0  0  0  0  0  0  0  0  0  0
   17.6886  -33.6317   -2.4650 C   0  0  0  0  0  0  0  0  0  0  0  0
   18.8755  -32.9551   -3.1367 C   0  0  2  0  0  0  0  0  0  0  0  0
   19.7871  -33.9441   -3.6704 N   0  0  0  0  0  0  0  0  0  0  0  0
   19.5865  -32.1267   -2.1296 C   0  0  0  0  0  0  0  0  0  0  0  0
   18.9605  -31.1647   -1.6184 O   0  0  0  0  0  0  0  0  0  0  0  0
   20.8891  -32.4027   -1.7669 O   0  0  0  0  0  0  0  0  0  0  0  0
  2  1  1  0
  3  2  2  0
  4  3  1  0
  5  4  2  0
  5 11  1  0
  6  7  1  0
  6  5  1  0
  7  8  1  1
  7  9  1  0
  9 13  1  0
  9 10  2  0
 11 12  2  0
 12  2  1  0
 13 14  1  0
 14 15  1  0
 15 19  1  0
 15 16  2  0
 18 20  1  0
 18 17  1  1
 19 18  1  0
 20 22  1  0
 21 20  2  0
M  END
$$$$
