YGA.pdb
     RDKit          3D

 22 22  0  0  1  0  0  0  0  0999 V2000
   28.6738  -19.0685   -4.1622 O   0  0  0  0  0  0  0  0  0  0  0  0
   28.2120  -19.4117   -5.4385 C   0  0  0  0  0  0  0  0  0  0  0  0
   27.5778  -18.4907   -6.2246 C   0  0  0  0  0  0  0  0  0  0  0  0
   27.1311  -18.8740   -7.4945 C   0  0  0  0  0  0  0  0  0  0  0  0
   27.3211  -20.1541   -7.9562 C   0  0  0  0  0  0  0  0  0  0  0  0
   26.8555  -20.5683   -9.2904 C   0  0  0  0  0  0  0  0  0  0  0  0
   25.3552  -20.4480   -9.4152 C   0  0  2  0  0  0  0  0  0  0  0  0
   24.7170  -21.2479   -8.4080 N   0  0  0  0  0  0  0  0  0  0  0  0
   24.9672  -20.8880  -10.7935 C   0  0  0  0  0  0  0  0  0  0  0  0
   24.6607  -22.0879  -11.0068 O   0  0  0  0  0  0  0  0  0  0  0  0
   27.9602  -21.0633   -7.1510 C   0  0  0  0  0  0  0  0  0  0  0  0
   28.4178  -20.7141   -5.8801 C   0  0  0  0  0  0  0  0  0  0  0  0
   24.9297  -19.9887  -11.8929 N   0  0  0  0  0  0  0  0  0  0  0  0
   24.5451  -20.3969  -13.2285 C   0  0  0  0  0  0  0  0  0  0  0  0
   23.2212  -19.8466  -13.5453 C   0  0  0  0  0  0  0  0  0  0  0  0
   22.5846  -19.1919  -12.6966 O   0  0  0  0  0  0  0  0  0  0  0  0
   21.0389  -19.4280  -16.5951 C   0  0  0  0  0  0  0  0  0  0  0  0
   21.3083  -19.4430  -15.0967 C   0  0  2  0  0  0  0  0  0  0  0  0
   22.6025  -20.0285  -14.8205 N   0  0  0  0  0  0  0  0  0  0  0  0
   20.2539  -20.2487  -14.4295 C   0  0  0  0  0  0  0  0  0  0  0  0
   20.4938  -21.4639  -14.2191 O   0  0  0  0  0  0  0  0  0  0  0  0
   19.0524  -19.6838  -14.0532 O   0  0  0  0  0  0  0  0  0  0  0  0
  2  1  1  0
  3  2  2  0
  4  3  1  0
  5  4  2  0
  5 11  1  0
  6  7  1  0
  6  5  1  0
  7  8  1  1
  7  9  1  0
  9 13  1  0
  9 10  2  0
 11 12  2  0
 12  2  1  0
 13 14  1  0
 14 15  1  0
 15 19  1  0
 15 16  2  0
 18 20  1  0
 18 17  1  6
 19 18  1  0
 20 22  1  0
 21 20  2  0
M  END
$$$$
