IRT.pdb
     RDKit          3D

 27 26  0  0  1  0  0  0  0  0999 V2000
    7.2922  -11.9345   18.4888 C   0  0  0  0  0  0  0  0  0  0  0  0
    7.6797  -13.4229   18.3714 C   0  0  0  0  0  0  0  0  0  0  0  0
    7.8539  -13.9119   19.7590 C   0  0  2  0  0  0  0  0  0  0  0  0
    8.8856  -12.9919   20.4261 C   0  0  0  0  0  0  0  0  0  0  0  0
    8.1684  -15.3437   19.9590 C   0  0  2  0  0  0  0  0  0  0  0  0
    7.0984  -16.0817   19.2330 N   0  0  0  0  0  0  0  0  0  0  0  0
    8.1832  -15.8732   21.3094 C   0  0  0  0  0  0  0  0  0  0  0  0
    7.0846  -15.9396   21.9772 O   0  0  0  0  0  0  0  0  0  0  0  0
   11.9288  -20.9275   23.9147 N   0  0  0  0  0  0  0  0  0  0  0  0
   12.1000  -20.8930   25.3162 C   0  0  0  0  0  0  0  0  0  0  0  0
   13.0038  -21.5626   25.9423 N   0  0  0  0  0  0  0  0  0  0  0  0
   11.2054  -20.0575   26.0704 N   0  0  0  0  0  0  0  0  0  0  0  0
   10.1465  -19.3121   25.4136 C   0  0  0  0  0  0  0  0  0  0  0  0
   10.6357  -17.9055   25.1872 C   0  0  0  0  0  0  0  0  0  0  0  0
   10.4657  -17.5253   23.7740 C   0  0  0  0  0  0  0  0  0  0  0  0
    9.2613  -16.6834   23.4402 C   0  0  2  0  0  0  0  0  0  0  0  0
    9.3069  -16.3632   22.0422 N   0  0  0  0  0  0  0  0  0  0  0  0
    9.1897  -15.5305   24.3546 C   0  0  0  0  0  0  0  0  0  0  0  0
   10.0443  -14.5880   24.2030 O   0  0  0  0  0  0  0  0  0  0  0  0
   13.0682  -21.4431   26.9865 C   0  0  0  0  0  0  0  0  0  0  0  0
    6.9110  -12.2032   26.9078 C   0  0  2  0  0  0  0  0  0  0  0  0
    6.9104  -13.4891   26.1076 O   0  0  0  0  0  0  0  0  0  0  0  0
    6.6447  -13.1490   24.7873 C   0  0  1  0  0  0  0  0  0  0  0  0
    8.2860  -14.1315   26.2472 N   0  0  0  0  0  0  0  0  0  0  0  0
    8.2671  -15.3383   25.4038 C   0  0  0  0  0  0  0  0  0  0  0  0
    8.6111  -14.4476   27.6367 O   0  0  0  0  0  0  0  0  0  0  0  0
    8.7353  -15.6155   28.0864 O   0  0  0  0  0  0  0  0  0  0  0  0
  1  2  1  0
  2  3  1  0
  3  5  1  0
  3  4  1  6
  5  6  1  6
  7  8  2  0
  7  5  1  0
  9 10  1  0
 10 12  1  0
 11 10  2  0
 12 13  1  0
 13 14  1  0
 14 15  1  0
 16 15  1  1
 16 17  1  0
 17  7  1  0
 18 16  1  0
 19 18  2  0
 21 20  1  1
 21 22  1  0
 23 21  1  0
 23 24  1  1
 24 18  1  0
 25 27  1  0
 25 23  1  0
 26 25  2  0
M  END
$$$$
