IRT.pdb
     RDKit          3D

 27 26  0  0  1  0  0  0  0  0999 V2000
    7.0017  -11.8655   28.0835 C   0  0  0  0  0  0  0  0  0  0  0  0
    6.0996  -12.8636   27.3288 C   0  0  0  0  0  0  0  0  0  0  0  0
    6.9446  -13.4584   26.2672 C   0  0  2  0  0  0  0  0  0  0  0  0
    7.6003  -12.2907   25.5175 C   0  0  0  0  0  0  0  0  0  0  0  0
    6.3224  -14.4357   25.3471 C   0  0  2  0  0  0  0  0  0  0  0  0
    5.8973  -15.5693   26.2136 N   0  0  0  0  0  0  0  0  0  0  0  0
    7.1316  -15.0129   24.2905 C   0  0  0  0  0  0  0  0  0  0  0  0
    7.7619  -16.1149   24.5038 O   0  0  0  0  0  0  0  0  0  0  0  0
    7.9836  -12.9980   15.8320 N   0  0  0  0  0  0  0  0  0  0  0  0
    7.7064  -14.3511   16.1269 C   0  0  0  0  0  0  0  0  0  0  0  0
    7.1860  -15.1738   15.2845 N   0  0  0  0  0  0  0  0  0  0  0  0
    8.0303  -14.8190   17.4472 N   0  0  0  0  0  0  0  0  0  0  0  0
    8.7401  -13.9706   18.3878 C   0  0  0  0  0  0  0  0  0  0  0  0
    9.0105  -14.7757   19.6319 C   0  0  0  0  0  0  0  0  0  0  0  0
    8.1357  -14.3302   20.7305 C   0  0  0  0  0  0  0  0  0  0  0  0
    8.1721  -15.1454   21.9973 C   0  0  2  0  0  0  0  0  0  0  0  0
    7.3354  -14.5049   22.9713 N   0  0  0  0  0  0  0  0  0  0  0  0
    9.5694  -15.3681   22.4072 C   0  0  0  0  0  0  0  0  0  0  0  0
   10.1991  -14.3948   22.9529 O   0  0  0  0  0  0  0  0  0  0  0  0
    7.0957  -16.1820   15.5746 C   0  0  0  0  0  0  0  0  0  0  0  0
   11.1059  -19.0677   23.0711 C   0  0  2  0  0  0  0  0  0  0  0  0
   11.6370  -17.8480   23.7950 O   0  0  0  0  0  0  0  0  0  0  0  0
   12.9097  -18.1657   24.2519 C   0  0  1  0  0  0  0  0  0  0  0  0
   11.6785  -16.6917   22.8022 N   0  0  0  0  0  0  0  0  0  0  0  0
   10.3139  -16.5575   22.2655 C   0  0  0  0  0  0  0  0  0  0  0  0
   12.6587  -16.9088   21.7400 O   0  0  0  0  0  0  0  0  0  0  0  0
   12.3626  -17.1202   20.5361 O   0  0  0  0  0  0  0  0  0  0  0  0
  1  2  1  0
  2  3  1  0
  3  5  1  0
  3  4  1  6
  5  6  1  1
  7  8  2  0
  7  5  1  0
  9 10  1  0
 10 12  1  0
 11 10  2  0
 12 13  1  0
 13 14  1  0
 14 15  1  0
 16 15  1  6
 16 17  1  0
 17  7  1  0
 18 16  1  0
 19 18  2  0
 21 20  1  1
 21 22  1  0
 23 21  1  0
 23 24  1  1
 24 18  1  0
 25 27  1  0
 25 23  1  0
 26 25  2  0
M  END
$$$$
