IRT.pdb
     RDKit          3D

 27 26  0  0  1  0  0  0  0  0999 V2000
    7.2797  -11.7278   28.4669 C   0  0  0  0  0  0  0  0  0  0  0  0
    6.4422  -12.9281   27.9800 C   0  0  0  0  0  0  0  0  0  0  0  0
    7.0954  -13.4078   26.7398 C   0  0  2  0  0  0  0  0  0  0  0  0
    7.2702  -12.1840   25.8302 C   0  0  0  0  0  0  0  0  0  0  0  0
    6.4843  -14.5517   26.0280 C   0  0  2  0  0  0  0  0  0  0  0  0
    6.5144  -15.6769   27.0025 N   0  0  0  0  0  0  0  0  0  0  0  0
    7.1203  -15.0429   24.8202 C   0  0  0  0  0  0  0  0  0  0  0  0
    7.7211  -16.1813   24.8373 O   0  0  0  0  0  0  0  0  0  0  0  0
    8.2652  -15.6234   16.7122 N   0  0  0  0  0  0  0  0  0  0  0  0
    8.4156  -14.2192   16.7221 C   0  0  0  0  0  0  0  0  0  0  0  0
    8.9977  -13.5564   15.7844 N   0  0  0  0  0  0  0  0  0  0  0  0
    7.8826  -13.5058   17.8509 N   0  0  0  0  0  0  0  0  0  0  0  0
    6.9227  -14.1296   18.7440 C   0  0  0  0  0  0  0  0  0  0  0  0
    7.6862  -14.8058   19.8526 C   0  0  0  0  0  0  0  0  0  0  0  0
    7.2645  -14.2769   21.1615 C   0  0  0  0  0  0  0  0  0  0  0  0
    7.7538  -15.0169   22.3795 C   0  0  2  0  0  0  0  0  0  0  0  0
    7.1731  -14.4081   23.5420 N   0  0  0  0  0  0  0  0  0  0  0  0
    9.2253  -15.0841   22.3648 C   0  0  0  0  0  0  0  0  0  0  0  0
    9.8790  -14.0448   22.7311 O   0  0  0  0  0  0  0  0  0  0  0  0
    9.3987  -14.0988   14.9758 C   0  0  0  0  0  0  0  0  0  0  0  0
   11.1370  -18.6018   22.7856 C   0  0  2  0  0  0  0  0  0  0  0  0
   11.6867  -17.2912   23.3089 O   0  0  0  0  0  0  0  0  0  0  0  0
   13.0394  -17.4855   23.5579 C   0  0  1  0  0  0  0  0  0  0  0  0
   11.4685  -16.2277   22.2384 N   0  0  0  0  0  0  0  0  0  0  0  0
   10.0186  -16.1865   21.9850 C   0  0  0  0  0  0  0  0  0  0  0  0
   12.2233  -16.5072   21.0184 O   0  0  0  0  0  0  0  0  0  0  0  0
   11.7008  -16.8359   19.9227 O   0  0  0  0  0  0  0  0  0  0  0  0
  1  2  1  0
  2  3  1  0
  3  5  1  0
  3  4  1  6
  5  6  1  1
  7  8  2  0
  7  5  1  0
  9 10  1  0
 10 12  1  0
 11 10  2  0
 12 13  1  0
 13 14  1  0
 14 15  1  0
 16 15  1  6
 16 17  1  0
 17  7  1  0
 18 16  1  0
 19 18  2  0
 21 20  1  1
 21 22  1  0
 23 21  1  0
 23 24  1  1
 24 18  1  0
 25 27  1  0
 25 23  1  0
 26 25  2  0
M  END
$$$$
