IRT.pdb
     RDKit          3D

 27 26  0  0  1  0  0  0  0  0999 V2000
    7.0664  -11.8339   28.1764 C   0  0  0  0  0  0  0  0  0  0  0  0
    6.2128  -12.9696   27.5758 C   0  0  0  0  0  0  0  0  0  0  0  0
    6.9610  -13.4655   26.3971 C   0  0  2  0  0  0  0  0  0  0  0  0
    7.4023  -12.2296   25.6012 C   0  0  0  0  0  0  0  0  0  0  0  0
    6.3147  -14.4827   25.5390 C   0  0  2  0  0  0  0  0  0  0  0  0
    6.1106  -15.6636   26.4223 N   0  0  0  0  0  0  0  0  0  0  0  0
    7.0276  -14.9664   24.3718 C   0  0  0  0  0  0  0  0  0  0  0  0
    7.9058  -15.8981   24.5056 O   0  0  0  0  0  0  0  0  0  0  0  0
    7.0764  -13.9402   16.1292 N   0  0  0  0  0  0  0  0  0  0  0  0
    8.3899  -14.4037   16.3623 C   0  0  0  0  0  0  0  0  0  0  0  0
    9.4062  -14.0578   15.6518 N   0  0  0  0  0  0  0  0  0  0  0  0
    8.5846  -15.3124   17.4593 N   0  0  0  0  0  0  0  0  0  0  0  0
    7.7587  -15.2336   18.6509 C   0  0  0  0  0  0  0  0  0  0  0  0
    8.4123  -14.2737   19.6104 C   0  0  0  0  0  0  0  0  0  0  0  0
    7.5443  -14.0471   20.7791 C   0  0  0  0  0  0  0  0  0  0  0  0
    7.7295  -14.9776   21.9498 C   0  0  2  0  0  0  0  0  0  0  0  0
    6.8812  -14.5338   23.0187 N   0  0  0  0  0  0  0  0  0  0  0  0
    9.1614  -15.0874   22.2781 C   0  0  0  0  0  0  0  0  0  0  0  0
    9.7548  -14.0492   22.7382 O   0  0  0  0  0  0  0  0  0  0  0  0
   10.3553  -14.4003   15.9531 C   0  0  0  0  0  0  0  0  0  0  0  0
   11.0216  -18.5155   23.2348 C   0  0  2  0  0  0  0  0  0  0  0  0
   11.5942  -17.1734   23.6409 O   0  0  0  0  0  0  0  0  0  0  0  0
   12.9397  -17.3716   23.9234 C   0  0  1  0  0  0  0  0  0  0  0  0
   11.4102  -16.2100   22.4737 N   0  0  0  0  0  0  0  0  0  0  0  0
    9.9759  -16.2306   22.1417 C   0  0  0  0  0  0  0  0  0  0  0  0
   12.2371  -16.5696   21.3233 O   0  0  0  0  0  0  0  0  0  0  0  0
   11.7871  -17.0445   20.2492 O   0  0  0  0  0  0  0  0  0  0  0  0
  1  2  1  0
  2  3  1  0
  3  5  1  0
  3  4  1  6
  5  6  1  1
  7  8  2  0
  7  5  1  0
  9 10  1  0
 10 12  1  0
 11 10  2  0
 12 13  1  0
 13 14  1  0
 14 15  1  0
 16 15  1  6
 16 17  1  0
 17  7  1  0
 18 16  1  0
 19 18  2  0
 21 20  1  1
 21 22  1  0
 23 21  1  0
 23 24  1  1
 24 18  1  0
 25 27  1  0
 25 23  1  0
 26 25  2  0
M  END
$$$$
