IRT.pdb
     RDKit          3D

 27 26  0  0  1  0  0  0  0  0999 V2000
    6.9120  -11.7061   28.1561 C   0  0  0  0  0  0  0  0  0  0  0  0
    6.0847  -12.8437   27.5231 C   0  0  0  0  0  0  0  0  0  0  0  0
    6.8660  -13.3194   26.3576 C   0  0  2  0  0  0  0  0  0  0  0  0
    7.1859  -12.0837   25.5054 C   0  0  0  0  0  0  0  0  0  0  0  0
    6.3091  -14.4272   25.5506 C   0  0  2  0  0  0  0  0  0  0  0  0
    6.2072  -15.5786   26.4889 N   0  0  0  0  0  0  0  0  0  0  0  0
    7.0605  -14.9022   24.4042 C   0  0  0  0  0  0  0  0  0  0  0  0
    7.7853  -15.9603   24.5146 O   0  0  0  0  0  0  0  0  0  0  0  0
    9.9745  -15.1191   17.1995 N   0  0  0  0  0  0  0  0  0  0  0  0
    8.7140  -14.6719   16.7461 C   0  0  0  0  0  0  0  0  0  0  0  0
    8.1558  -15.0873   15.6629 N   0  0  0  0  0  0  0  0  0  0  0  0
    8.0297  -13.6976   17.5522 N   0  0  0  0  0  0  0  0  0  0  0  0
    8.6751  -13.0948   18.7047 C   0  0  0  0  0  0  0  0  0  0  0  0
    8.8168  -14.1526   19.7678 C   0  0  0  0  0  0  0  0  0  0  0  0
    7.9345  -13.8531   20.9091 C   0  0  0  0  0  0  0  0  0  0  0  0
    7.9192  -14.8559   22.0337 C   0  0  2  0  0  0  0  0  0  0  0  0
    7.1087  -14.3321   23.0956 N   0  0  0  0  0  0  0  0  0  0  0  0
    9.3001  -15.2116   22.4038 C   0  0  0  0  0  0  0  0  0  0  0  0
   10.1060  -14.2622   22.7050 O   0  0  0  0  0  0  0  0  0  0  0  0
    7.2169  -14.6839   15.4085 C   0  0  0  0  0  0  0  0  0  0  0  0
   10.7813  -17.7608   24.9406 C   0  0  2  0  0  0  0  0  0  0  0  0
   11.3484  -18.0301   23.5623 O   0  0  0  0  0  0  0  0  0  0  0  0
   10.5663  -19.0224   22.9852 C   0  0  2  0  0  0  0  0  0  0  0  0
   11.2771  -16.7343   22.7620 N   0  0  0  0  0  0  0  0  0  0  0  0
    9.8525  -16.5076   22.4668 C   0  0  0  0  0  0  0  0  0  0  0  0
   12.0800  -16.7922   21.5420 O   0  0  0  0  0  0  0  0  0  0  0  0
   11.6004  -16.8825   20.3829 O   0  0  0  0  0  0  0  0  0  0  0  0
  1  2  1  0
  2  3  1  0
  3  5  1  0
  3  4  1  6
  5  6  1  1
  7  8  2  0
  7  5  1  0
  9 10  1  0
 10 12  1  0
 11 10  2  0
 12 13  1  0
 13 14  1  0
 14 15  1  0
 16 15  1  6
 16 17  1  0
 17  7  1  0
 18 16  1  0
 19 18  2  0
 21 20  1  1
 21 22  1  0
 23 21  1  0
 23 24  1  6
 24 18  1  0
 25 27  1  0
 25 23  1  0
 26 25  2  0
M  END
$$$$
