IRT.pdb
     RDKit          3D

 27 26  0  0  1  0  0  0  0  0999 V2000
    7.3952  -12.0390   28.1738 C   0  0  0  0  0  0  0  0  0  0  0  0
    6.4725  -13.1571   27.6467 C   0  0  0  0  0  0  0  0  0  0  0  0
    7.0401  -13.5773   26.3443 C   0  0  2  0  0  0  0  0  0  0  0  0
    7.1851  -12.3074   25.4946 C   0  0  0  0  0  0  0  0  0  0  0  0
    6.3642  -14.6688   25.6092 C   0  0  2  0  0  0  0  0  0  0  0  0
    6.3718  -15.8288   26.5423 N   0  0  0  0  0  0  0  0  0  0  0  0
    6.9486  -15.1412   24.3683 C   0  0  0  0  0  0  0  0  0  0  0  0
    7.4584  -16.3221   24.3161 O   0  0  0  0  0  0  0  0  0  0  0  0
   10.1942  -14.4896   17.2330 N   0  0  0  0  0  0  0  0  0  0  0  0
    8.9350  -14.4707   16.5938 C   0  0  0  0  0  0  0  0  0  0  0  0
    8.7164  -14.9776   15.4308 N   0  0  0  0  0  0  0  0  0  0  0  0
    7.8471  -13.8460   17.2962 N   0  0  0  0  0  0  0  0  0  0  0  0
    8.0588  -13.1989   18.5787 C   0  0  0  0  0  0  0  0  0  0  0  0
    8.3109  -14.2704   19.6071 C   0  0  0  0  0  0  0  0  0  0  0  0
    7.5844  -13.9662   20.8523 C   0  0  0  0  0  0  0  0  0  0  0  0
    7.7076  -14.9696   21.9697 C   0  0  2  0  0  0  0  0  0  0  0  0
    7.0391  -14.4437   23.1254 N   0  0  0  0  0  0  0  0  0  0  0  0
    9.1229  -15.3299   22.1628 C   0  0  0  0  0  0  0  0  0  0  0  0
    9.9308  -14.4121   22.5460 O   0  0  0  0  0  0  0  0  0  0  0  0
    7.7534  -14.8660   15.0197 C   0  0  0  0  0  0  0  0  0  0  0  0
   10.9190  -17.9235   24.2990 C   0  0  2  0  0  0  0  0  0  0  0  0
   11.3160  -18.1437   22.8541 O   0  0  0  0  0  0  0  0  0  0  0  0
   10.4659  -19.1144   22.3399 C   0  0  2  0  0  0  0  0  0  0  0  0
   11.1558  -16.8201   22.1145 N   0  0  0  0  0  0  0  0  0  0  0  0
    9.7073  -16.5988   21.9704 C   0  0  0  0  0  0  0  0  0  0  0  0
   11.8342  -16.8236   20.8199 O   0  0  0  0  0  0  0  0  0  0  0  0
   11.2488  -16.9557   19.7146 O   0  0  0  0  0  0  0  0  0  0  0  0
  1  2  1  0
  2  3  1  0
  3  5  1  0
  3  4  1  6
  5  6  1  1
  7  8  2  0
  7  5  1  0
  9 10  1  0
 10 12  1  0
 11 10  2  0
 12 13  1  0
 13 14  1  0
 14 15  1  0
 16 15  1  6
 16 17  1  0
 17  7  1  0
 18 16  1  0
 19 18  2  0
 21 20  1  1
 21 22  1  0
 23 21  1  0
 23 24  1  6
 24 18  1  0
 25 27  1  0
 25 23  1  0
 26 25  2  0
M  END
$$$$
