IRT.pdb
     RDKit          3D

 27 26  0  0  1  0  0  0  0  0999 V2000
    7.2234  -11.0392   26.5263 C   0  0  0  0  0  0  0  0  0  0  0  0
    7.4880  -12.5540   26.6475 C   0  0  0  0  0  0  0  0  0  0  0  0
    6.1913  -13.2193   26.3814 C   0  0  2  0  0  0  0  0  0  0  0  0
    5.2564  -12.8455   27.5398 C   0  0  0  0  0  0  0  0  0  0  0  0
    6.1967  -14.6743   26.1135 C   0  0  2  0  0  0  0  0  0  0  0  0
    7.0212  -15.2670   27.2023 N   0  0  0  0  0  0  0  0  0  0  0  0
    6.7645  -15.1526   24.8672 C   0  0  0  0  0  0  0  0  0  0  0  0
    6.3563  -16.2678   24.3705 O   0  0  0  0  0  0  0  0  0  0  0  0
    8.3883  -15.8099   17.3950 N   0  0  0  0  0  0  0  0  0  0  0  0
    8.3896  -14.4240   17.1236 C   0  0  0  0  0  0  0  0  0  0  0  0
    8.7501  -13.9170   15.9965 N   0  0  0  0  0  0  0  0  0  0  0  0
    7.9610  -13.5443   18.1770 N   0  0  0  0  0  0  0  0  0  0  0  0
    7.3834  -14.0698   19.4011 C   0  0  0  0  0  0  0  0  0  0  0  0
    8.4943  -14.2509   20.4022 C   0  0  0  0  0  0  0  0  0  0  0  0
    8.0115  -13.9542   21.7622 C   0  0  0  0  0  0  0  0  0  0  0  0
    8.1997  -15.0331   22.7972 C   0  0  2  0  0  0  0  0  0  0  0  0
    7.7654  -14.5231   24.0662 N   0  0  0  0  0  0  0  0  0  0  0  0
    9.5855  -15.5310   22.7525 C   0  0  0  0  0  0  0  0  0  0  0  0
   10.5156  -14.7617   23.1825 O   0  0  0  0  0  0  0  0  0  0  0  0
    8.8082  -12.8679   15.9261 C   0  0  0  0  0  0  0  0  0  0  0  0
   11.2401  -18.4904   24.3265 C   0  0  2  0  0  0  0  0  0  0  0  0
   11.5163  -18.5758   22.8397 O   0  0  0  0  0  0  0  0  0  0  0  0
   10.5404  -19.3967   22.2891 C   0  0  2  0  0  0  0  0  0  0  0  0
   11.4418  -17.1657   22.2648 N   0  0  0  0  0  0  0  0  0  0  0  0
   10.0189  -16.7869   22.2797 C   0  0  0  0  0  0  0  0  0  0  0  0
   12.0091  -17.0853   20.9202 O   0  0  0  0  0  0  0  0  0  0  0  0
   11.3271  -17.0810   19.8636 O   0  0  0  0  0  0  0  0  0  0  0  0
  1  2  1  0
  2  3  1  0
  3  5  1  0
  3  4  1  1
  5  6  1  1
  7  8  2  0
  7  5  1  0
  9 10  1  0
 10 12  1  0
 11 10  2  0
 12 13  1  0
 13 14  1  0
 14 15  1  0
 16 15  1  6
 16 17  1  0
 17  7  1  0
 18 16  1  0
 19 18  2  0
 21 20  1  1
 21 22  1  0
 23 21  1  0
 23 24  1  6
 24 18  1  0
 25 27  1  0
 25 23  1  0
 26 25  2  0
M  END
$$$$
