SYS.pdb
     RDKit          3D

 25 25  0  0  1  0  0  0  0  0999 V2000
   26.9319  -21.2227  -18.7847 O   0  0  0  0  0  0  0  0  0  0  0  0
   27.8534  -20.4262  -18.1057 C   0  0  0  0  0  0  0  0  0  0  0  0
   28.5991  -21.3348  -17.1544 C   0  0  2  0  0  0  0  0  0  0  0  0
   29.0978  -22.5289  -17.7791 N   0  0  0  0  0  0  0  0  0  0  0  0
   27.7096  -21.7004  -15.9856 C   0  0  0  0  0  0  0  0  0  0  0  0
   27.2773  -22.8692  -15.8583 O   0  0  0  0  0  0  0  0  0  0  0  0
   23.8075  -20.8169   -8.0120 O   0  0  0  0  0  0  0  0  0  0  0  0
   24.5601  -20.6228   -9.1861 C   0  0  0  0  0  0  0  0  0  0  0  0
   24.0648  -19.8512  -10.2157 C   0  0  0  0  0  0  0  0  0  0  0  0
   24.8106  -19.6625  -11.3715 C   0  0  0  0  0  0  0  0  0  0  0  0
   26.0544  -20.2255  -11.5408 C   0  0  0  0  0  0  0  0  0  0  0  0
   26.8166  -20.0175  -12.7851 C   0  0  0  0  0  0  0  0  0  0  0  0
   26.4811  -20.9628  -13.8959 C   0  0  2  0  0  0  0  0  0  0  0  0
   27.3532  -20.7268  -15.0192 N   0  0  0  0  0  0  0  0  0  0  0  0
   25.0425  -20.9272  -14.2566 C   0  0  0  0  0  0  0  0  0  0  0  0
   24.5479  -20.0484  -14.9994 O   0  0  0  0  0  0  0  0  0  0  0  0
   26.5463  -20.9957  -10.5113 C   0  0  0  0  0  0  0  0  0  0  0  0
   25.8007  -21.1894   -9.3452 C   0  0  0  0  0  0  0  0  0  0  0  0
   20.7461  -23.1141  -14.4864 O   0  0  0  0  0  0  0  0  0  0  0  0
   22.0538  -23.2200  -14.0032 C   0  0  0  0  0  0  0  0  0  0  0  0
   22.7313  -21.8781  -14.1599 C   0  0  2  0  0  0  0  0  0  0  0  0
   24.1130  -21.9074  -13.7716 N   0  0  0  0  0  0  0  0  0  0  0  0
   21.9507  -20.8744  -13.3782 C   0  0  0  0  0  0  0  0  0  0  0  0
   22.4882  -20.4271  -12.3324 O   0  0  0  0  0  0  0  0  0  0  0  0
   20.6935  -20.4353  -13.7573 O   0  0  0  0  0  0  0  0  0  0  0  0
  1  2  1  0
  2  3  1  0
  3  4  1  6
  5  6  2  0
  5  3  1  0
  7  8  1  0
  8  9  2  0
  8 18  1  0
  9 10  1  0
 10 11  2  0
 11 12  1  0
 13 12  1  1
 13 15  1  0
 13 14  1  0
 14  5  1  0
 15 16  2  0
 17 11  1  0
 18 17  2  0
 20 19  1  0
 21 20  1  1
 22 15  1  0
 22 21  1  0
 23 25  1  0
 23 21  1  0
 24 23  2  0
M  END
$$$$
