SYS.pdb
     RDKit          3D

 25 25  0  0  1  0  0  0  0  0999 V2000
   28.4267  -20.2311  -18.7619 O   0  0  0  0  0  0  0  0  0  0  0  0
   27.4320  -20.8529  -18.0080 C   0  0  0  0  0  0  0  0  0  0  0  0
   28.1311  -21.6067  -16.8991 C   0  0  2  0  0  0  0  0  0  0  0  0
   28.7791  -22.8086  -17.3467 N   0  0  0  0  0  0  0  0  0  0  0  0
   27.1465  -21.9347  -15.7973 C   0  0  0  0  0  0  0  0  0  0  0  0
   26.4907  -23.0016  -15.8290 O   0  0  0  0  0  0  0  0  0  0  0  0
   22.8376  -20.9750   -8.0266 O   0  0  0  0  0  0  0  0  0  0  0  0
   23.7190  -20.8426   -9.1166 C   0  0  0  0  0  0  0  0  0  0  0  0
   23.3522  -20.1163  -10.2295 C   0  0  0  0  0  0  0  0  0  0  0  0
   24.2248  -19.9885  -11.3019 C   0  0  0  0  0  0  0  0  0  0  0  0
   25.4721  -20.5690  -11.3046 C   0  0  0  0  0  0  0  0  0  0  0  0
   26.3711  -20.4262  -12.4639 C   0  0  0  0  0  0  0  0  0  0  0  0
   25.9688  -21.2090  -13.6744 C   0  0  2  0  0  0  0  0  0  0  0  0
   26.9523  -21.0406  -14.7148 N   0  0  0  0  0  0  0  0  0  0  0  0
   24.5888  -20.8962  -14.1199 C   0  0  0  0  0  0  0  0  0  0  0  0
   24.2666  -19.7920  -14.6155 O   0  0  0  0  0  0  0  0  0  0  0  0
   25.8355  -21.2939  -10.1923 C   0  0  0  0  0  0  0  0  0  0  0  0
   24.9619  -21.4263   -9.1094 C   0  0  0  0  0  0  0  0  0  0  0  0
   21.6555  -23.8142  -14.6360 O   0  0  0  0  0  0  0  0  0  0  0  0
   21.5774  -22.5914  -15.3094 C   0  0  0  0  0  0  0  0  0  0  0  0
   22.1877  -21.5228  -14.4319 C   0  0  2  0  0  0  0  0  0  0  0  0
   23.5205  -21.8484  -14.0097 N   0  0  0  0  0  0  0  0  0  0  0  0
   21.2721  -21.2995  -13.2745 C   0  0  0  0  0  0  0  0  0  0  0  0
   20.1052  -20.9119  -13.5406 O   0  0  0  0  0  0  0  0  0  0  0  0
   21.6561  -21.4998  -11.9594 O   0  0  0  0  0  0  0  0  0  0  0  0
  1  2  1  0
  2  3  1  0
  3  4  1  6
  5  6  2  0
  5  3  1  0
  7  8  1  0
  8  9  2  0
  8 18  1  0
  9 10  1  0
 10 11  2  0
 11 12  1  0
 13 12  1  1
 13 15  1  0
 13 14  1  0
 14  5  1  0
 15 16  2  0
 17 11  1  0
 18 17  2  0
 20 19  1  0
 21 20  1  6
 22 15  1  0
 22 21  1  0
 23 25  1  0
 23 21  1  0
 24 23  2  0
M  END
$$$$
