SYS.pdb
     RDKit          3D

 25 25  0  0  1  0  0  0  0  0999 V2000
   29.4561  -20.7887  -12.8388 O   0  0  0  0  0  0  0  0  0  0  0  0
   30.3324  -20.3163  -11.8624 C   0  0  0  0  0  0  0  0  0  0  0  0
   30.1825  -21.2257  -10.6636 C   0  0  2  0  0  0  0  0  0  0  0  0
   30.8339  -22.4961  -10.8263 N   0  0  0  0  0  0  0  0  0  0  0  0
   28.7156  -21.4370  -10.3562 C   0  0  0  0  0  0  0  0  0  0  0  0
   28.2018  -22.5744  -10.4646 O   0  0  0  0  0  0  0  0  0  0  0  0
   28.7714  -20.1365   -3.5926 O   0  0  0  0  0  0  0  0  0  0  0  0
   28.1150  -19.9791   -4.8283 C   0  0  0  0  0  0  0  0  0  0  0  0
   28.3387  -18.8606   -5.6026 C   0  0  0  0  0  0  0  0  0  0  0  0
   27.6893  -18.7098   -6.8204 C   0  0  0  0  0  0  0  0  0  0  0  0
   26.8091  -19.6508   -7.3026 C   0  0  0  0  0  0  0  0  0  0  0  0
   26.1248  -19.4560   -8.5935 C   0  0  0  0  0  0  0  0  0  0  0  0
   26.4923  -20.4425   -9.6574 C   0  0  2  0  0  0  0  0  0  0  0  0
   27.9027  -20.3525   -9.9417 N   0  0  0  0  0  0  0  0  0  0  0  0
   25.6438  -20.3148  -10.8675 C   0  0  0  0  0  0  0  0  0  0  0  0
   25.7157  -19.3396  -11.6503 O   0  0  0  0  0  0  0  0  0  0  0  0
   26.5873  -20.7664   -6.5273 C   0  0  0  0  0  0  0  0  0  0  0  0
   27.2380  -20.9243   -5.3005 C   0  0  0  0  0  0  0  0  0  0  0  0
   23.8779  -23.5766  -12.5152 O   0  0  0  0  0  0  0  0  0  0  0  0
   24.0731  -22.4457  -13.3138 C   0  0  0  0  0  0  0  0  0  0  0  0
   23.9264  -21.2169  -12.4461 C   0  0  2  0  0  0  0  0  0  0  0  0
   24.6735  -21.3105  -11.2239 N   0  0  0  0  0  0  0  0  0  0  0  0
   22.4707  -21.0000  -12.1979 C   0  0  0  0  0  0  0  0  0  0  0  0
   22.1041  -20.9314  -10.9964 O   0  0  0  0  0  0  0  0  0  0  0  0
   21.5420  -20.8760  -13.2172 O   0  0  0  0  0  0  0  0  0  0  0  0
  1  2  1  0
  2  3  1  0
  3  4  1  6
  5  6  2  0
  5  3  1  0
  7  8  1  0
  8  9  2  0
  8 18  1  0
  9 10  1  0
 10 11  2  0
 11 12  1  0
 13 12  1  1
 13 15  1  0
 13 14  1  0
 14  5  1  0
 15 16  2  0
 17 11  1  0
 18 17  2  0
 20 19  1  0
 21 20  1  1
 22 15  1  0
 22 21  1  0
 23 25  1  0
 23 21  1  0
 24 23  2  0
M  END
$$$$
