SYS.pdb
     RDKit          3D

 25 25  0  0  1  0  0  0  0  0999 V2000
   26.8449  -10.2212  -22.8646 O   0  0  0  0  0  0  0  0  0  0  0  0
   25.7032   -9.7744  -22.2001 C   0  0  0  0  0  0  0  0  0  0  0  0
   25.2222  -10.9205  -21.3388 C   0  0  2  0  0  0  0  0  0  0  0  0
   24.7700  -12.0537  -22.0979 N   0  0  0  0  0  0  0  0  0  0  0  0
   24.1185  -10.4463  -20.4180 C   0  0  0  0  0  0  0  0  0  0  0  0
   22.9498  -10.3074  -20.8471 O   0  0  0  0  0  0  0  0  0  0  0  0
   19.7390   -9.1309  -12.8060 O   0  0  0  0  0  0  0  0  0  0  0  0
   20.6899   -9.4549  -13.7926 C   0  0  0  0  0  0  0  0  0  0  0  0
   20.2915   -9.7500  -15.0790 C   0  0  0  0  0  0  0  0  0  0  0  0
   21.2328  -10.0687  -16.0485 C   0  0  0  0  0  0  0  0  0  0  0  0
   22.5810  -10.1046  -15.7769 C   0  0  0  0  0  0  0  0  0  0  0  0
   23.5552  -10.4594  -16.8245 C   0  0  0  0  0  0  0  0  0  0  0  0
   23.4129   -9.6949  -18.1033 C   0  0  2  0  0  0  0  0  0  0  0  0
   24.3907  -10.1529  -19.0583 N   0  0  0  0  0  0  0  0  0  0  0  0
   23.4452   -8.2267  -17.8936 C   0  0  0  0  0  0  0  0  0  0  0  0
   24.4978   -7.5980  -17.6376 O   0  0  0  0  0  0  0  0  0  0  0  0
   22.9759   -9.8099  -14.4915 C   0  0  0  0  0  0  0  0  0  0  0  0
   22.0335   -9.4880  -13.5109 C   0  0  0  0  0  0  0  0  0  0  0  0
   21.8658   -5.3263  -20.0155 O   0  0  0  0  0  0  0  0  0  0  0  0
   21.3631   -5.2625  -18.7123 C   0  0  0  0  0  0  0  0  0  0  0  0
   22.3145   -5.9979  -17.7967 C   0  0  2  0  0  0  0  0  0  0  0  0
   22.2593   -7.4219  -17.9699 N   0  0  0  0  0  0  0  0  0  0  0  0
   22.0088   -5.5918  -16.3933 C   0  0  0  0  0  0  0  0  0  0  0  0
   21.1365   -6.2642  -15.7854 O   0  0  0  0  0  0  0  0  0  0  0  0
   22.6361   -4.5317  -15.7613 O   0  0  0  0  0  0  0  0  0  0  0  0
  1  2  1  0
  2  3  1  0
  3  4  1  6
  5  6  2  0
  5  3  1  0
  7  8  1  0
  8  9  2  0
  8 18  1  0
  9 10  1  0
 10 11  2  0
 11 12  1  0
 13 12  1  1
 13 15  1  0
 13 14  1  0
 14  5  1  0
 15 16  2  0
 17 11  1  0
 18 17  2  0
 20 19  1  0
 21 20  1  6
 22 15  1  0
 22 21  1  0
 23 25  1  0
 23 21  1  0
 24 23  2  0
M  END
$$$$
