SYS.pdb
     RDKit          3D

 25 25  0  0  1  0  0  0  0  0999 V2000
   19.4790  -13.7289  -17.5443 O   0  0  0  0  0  0  0  0  0  0  0  0
   19.8763  -12.5184  -16.9775 C   0  0  0  0  0  0  0  0  0  0  0  0
   21.3873  -12.4871  -17.0284 C   0  0  2  0  0  0  0  0  0  0  0  0
   22.0027  -13.6272  -16.4070 N   0  0  0  0  0  0  0  0  0  0  0  0
   21.8992  -11.2150  -16.3876 C   0  0  0  0  0  0  0  0  0  0  0  0
   21.9665  -11.1150  -15.1407 O   0  0  0  0  0  0  0  0  0  0  0  0
   28.1250  -12.0852  -15.4380 O   0  0  0  0  0  0  0  0  0  0  0  0
   27.1228  -11.1961  -15.8709 C   0  0  0  0  0  0  0  0  0  0  0  0
   26.6884  -10.1773  -15.0499 C   0  0  0  0  0  0  0  0  0  0  0  0
   25.6999   -9.3029  -15.4812 C   0  0  0  0  0  0  0  0  0  0  0  0
   25.1186   -9.4095  -16.7235 C   0  0  0  0  0  0  0  0  0  0  0  0
   24.0620   -8.4735  -17.1478 C   0  0  0  0  0  0  0  0  0  0  0  0
   22.6841   -8.8236  -16.6799 C   0  0  2  0  0  0  0  0  0  0  0  0
   22.3095  -10.1195  -17.1880 N   0  0  0  0  0  0  0  0  0  0  0  0
   21.6925   -7.7654  -16.9924 C   0  0  0  0  0  0  0  0  0  0  0  0
   21.5575   -7.2748  -18.1369 O   0  0  0  0  0  0  0  0  0  0  0  0
   25.5541  -10.4278  -17.5410 C   0  0  0  0  0  0  0  0  0  0  0  0
   26.5488  -11.3114  -17.1130 C   0  0  0  0  0  0  0  0  0  0  0  0
   18.1767   -7.3710  -15.1444 O   0  0  0  0  0  0  0  0  0  0  0  0
   18.4421   -6.7161  -16.3509 C   0  0  0  0  0  0  0  0  0  0  0  0
   19.8628   -6.2016  -16.3128 C   0  0  2  0  0  0  0  0  0  0  0  0
   20.8143   -7.2277  -15.9927 N   0  0  0  0  0  0  0  0  0  0  0  0
   19.9153   -5.0668  -15.3447 C   0  0  0  0  0  0  0  0  0  0  0  0
   20.7324   -5.1698  -14.3936 O   0  0  0  0  0  0  0  0  0  0  0  0
   19.1178   -3.9408  -15.4584 O   0  0  0  0  0  0  0  0  0  0  0  0
  1  2  1  0
  2  3  1  0
  3  4  1  1
  5  6  2  0
  5  3  1  0
  7  8  1  0
  8  9  2  0
  8 18  1  0
  9 10  1  0
 10 11  2  0
 11 12  1  0
 13 12  1  6
 13 15  1  0
 13 14  1  0
 14  5  1  0
 15 16  2  0
 17 11  1  0
 18 17  2  0
 20 19  1  0
 21 20  1  1
 22 15  1  0
 22 21  1  0
 23 25  1  0
 23 21  1  0
 24 23  2  0
M  END
$$$$
