SYS.pdb
     RDKit          3D

 25 25  0  0  1  0  0  0  0  0999 V2000
   22.1786   -7.1481  -20.6210 O   0  0  0  0  0  0  0  0  0  0  0  0
   22.6536   -7.7638  -19.4636 C   0  0  0  0  0  0  0  0  0  0  0  0
   21.4454   -8.2860  -18.7190 C   0  0  2  0  0  0  0  0  0  0  0  0
   20.3753   -8.6971  -19.5854 N   0  0  0  0  0  0  0  0  0  0  0  0
   20.9453   -7.2386  -17.7475 C   0  0  0  0  0  0  0  0  0  0  0  0
   19.8308   -7.3700  -17.1908 O   0  0  0  0  0  0  0  0  0  0  0  0
   21.4509   -9.7555  -11.8203 O   0  0  0  0  0  0  0  0  0  0  0  0
   21.6872   -8.6602  -12.6729 C   0  0  0  0  0  0  0  0  0  0  0  0
   22.5969   -8.7590  -13.7040 C   0  0  0  0  0  0  0  0  0  0  0  0
   22.8265   -7.6763  -14.5423 C   0  0  0  0  0  0  0  0  0  0  0  0
   22.1701   -6.4773  -14.3868 C   0  0  0  0  0  0  0  0  0  0  0  0
   22.4450   -5.3415  -15.2851 C   0  0  0  0  0  0  0  0  0  0  0  0
   21.4549   -5.1590  -16.3925 C   0  0  2  0  0  0  0  0  0  0  0  0
   21.7297   -6.0953  -17.4536 N   0  0  0  0  0  0  0  0  0  0  0  0
   21.3787   -3.7532  -16.8600 C   0  0  0  0  0  0  0  0  0  0  0  0
   22.2789   -3.2124  -17.5426 O   0  0  0  0  0  0  0  0  0  0  0  0
   21.2625   -6.3813  -13.3562 C   0  0  0  0  0  0  0  0  0  0  0  0
   21.0267   -7.4675  -12.5089 C   0  0  0  0  0  0  0  0  0  0  0  0
   18.7639    0.1421  -17.8791 O   0  0  0  0  0  0  0  0  0  0  0  0
   18.7435   -1.1236  -17.2855 C   0  0  0  0  0  0  0  0  0  0  0  0
   20.1702   -1.5736  -17.0704 C   0  0  2  0  0  0  0  0  0  0  0  0
   20.2569   -2.9111  -16.5562 N   0  0  0  0  0  0  0  0  0  0  0  0
   20.8345   -0.5838  -16.1722 C   0  0  0  0  0  0  0  0  0  0  0  0
   20.7973   -0.8235  -14.9378 O   0  0  0  0  0  0  0  0  0  0  0  0
   21.4697    0.5533  -16.6417 O   0  0  0  0  0  0  0  0  0  0  0  0
  1  2  1  0
  2  3  1  0
  3  4  1  6
  5  6  2  0
  5  3  1  0
  7  8  1  0
  8  9  2  0
  8 18  1  0
  9 10  1  0
 10 11  2  0
 11 12  1  0
 13 12  1  1
 13 15  1  0
 13 14  1  0
 14  5  1  0
 15 16  2  0
 17 11  1  0
 18 17  2  0
 20 19  1  0
 21 20  1  1
 22 15  1  0
 22 21  1  0
 23 25  1  0
 23 21  1  0
 24 23  2  0
M  END
$$$$
