SYS.pdb
     RDKit          3D

 25 25  0  0  1  0  0  0  0  0999 V2000
   27.1325   -9.7766  -16.4274 O   0  0  0  0  0  0  0  0  0  0  0  0
   25.9444   -9.0479  -16.4709 C   0  0  0  0  0  0  0  0  0  0  0  0
   24.8176  -10.0533  -16.5497 C   0  0  2  0  0  0  0  0  0  0  0  0
   24.8437  -10.8466  -17.7476 N   0  0  0  0  0  0  0  0  0  0  0  0
   23.4849   -9.3455  -16.4321 C   0  0  0  0  0  0  0  0  0  0  0  0
   22.9206   -8.8816  -17.4498 O   0  0  0  0  0  0  0  0  0  0  0  0
   18.4272  -13.6601  -17.3222 O   0  0  0  0  0  0  0  0  0  0  0  0
   18.9740  -12.6088  -16.5617 C   0  0  0  0  0  0  0  0  0  0  0  0
   20.0530  -12.8317  -15.7331 C   0  0  0  0  0  0  0  0  0  0  0  0
   20.5889  -11.7920  -14.9851 C   0  0  0  0  0  0  0  0  0  0  0  0
   20.0787  -10.5153  -15.0345 C   0  0  0  0  0  0  0  0  0  0  0  0
   20.6614   -9.4351  -14.2183 C   0  0  0  0  0  0  0  0  0  0  0  0
   21.5994   -8.5272  -14.9504 C   0  0  2  0  0  0  0  0  0  0  0  0
   22.8566   -9.1973  -15.1703 N   0  0  0  0  0  0  0  0  0  0  0  0
   21.7488   -7.2096  -14.2855 C   0  0  0  0  0  0  0  0  0  0  0  0
   22.6725   -6.9543  -13.4789 O   0  0  0  0  0  0  0  0  0  0  0  0
   19.0011  -10.2957  -15.8624 C   0  0  0  0  0  0  0  0  0  0  0  0
   18.4570  -11.3380  -16.6181 C   0  0  0  0  0  0  0  0  0  0  0  0
   22.7744   -3.0420  -14.6323 O   0  0  0  0  0  0  0  0  0  0  0  0
   22.5175   -4.3878  -14.9110 C   0  0  0  0  0  0  0  0  0  0  0  0
   21.2063   -4.7682  -14.2625 C   0  0  2  0  0  0  0  0  0  0  0  0
   20.8342   -6.1297  -14.5244 N   0  0  0  0  0  0  0  0  0  0  0  0
   20.1663   -3.8037  -14.7271 C   0  0  0  0  0  0  0  0  0  0  0  0
   19.6021   -4.0613  -15.8216 O   0  0  0  0  0  0  0  0  0  0  0  0
   19.8155   -2.6707  -14.0128 O   0  0  0  0  0  0  0  0  0  0  0  0
  1  2  1  0
  2  3  1  0
  3  4  1  6
  5  6  2  0
  5  3  1  0
  7  8  1  0
  8  9  2  0
  8 18  1  0
  9 10  1  0
 10 11  2  0
 11 12  1  0
 13 12  1  1
 13 15  1  0
 13 14  1  0
 14  5  1  0
 15 16  2  0
 17 11  1  0
 18 17  2  0
 20 19  1  0
 21 20  1  6
 22 15  1  0
 22 21  1  0
 23 25  1  0
 23 21  1  0
 24 23  2  0
M  END
$$$$
