SYS.pdb
     RDKit          3D

 25 25  0  0  1  0  0  0  0  0999 V2000
   20.4456  -11.2930  -19.8653 O   0  0  0  0  0  0  0  0  0  0  0  0
   20.6639  -10.6408  -18.6522 C   0  0  0  0  0  0  0  0  0  0  0  0
   22.1488  -10.7158  -18.3766 C   0  0  2  0  0  0  0  0  0  0  0  0
   22.6124  -12.0489  -18.1070 N   0  0  0  0  0  0  0  0  0  0  0  0
   22.5061   -9.8051  -17.2216 C   0  0  0  0  0  0  0  0  0  0  0  0
   22.2309  -10.1347  -16.0448 O   0  0  0  0  0  0  0  0  0  0  0  0
   28.2791  -12.1753  -16.4835 O   0  0  0  0  0  0  0  0  0  0  0  0
   27.4863  -11.0118  -16.4915 C   0  0  0  0  0  0  0  0  0  0  0  0
   27.3202  -10.2857  -17.6516 C   0  0  0  0  0  0  0  0  0  0  0  0
   26.5373   -9.1391  -17.6548 C   0  0  0  0  0  0  0  0  0  0  0  0
   25.9028   -8.6822  -16.5229 C   0  0  0  0  0  0  0  0  0  0  0  0
   25.0887   -7.4539  -16.5549 C   0  0  0  0  0  0  0  0  0  0  0  0
   23.6138   -7.6710  -16.4222 C   0  0  2  0  0  0  0  0  0  0  0  0
   23.1566   -8.5675  -17.4543 N   0  0  0  0  0  0  0  0  0  0  0  0
   22.8543   -6.3975  -16.3771 C   0  0  0  0  0  0  0  0  0  0  0  0
   22.7476   -5.6325  -17.3631 O   0  0  0  0  0  0  0  0  0  0  0  0
   26.0706   -9.4090  -15.3659 C   0  0  0  0  0  0  0  0  0  0  0  0
   26.8572  -10.5642  -15.3560 C   0  0  0  0  0  0  0  0  0  0  0  0
   19.4359   -5.6986  -15.9904 O   0  0  0  0  0  0  0  0  0  0  0  0
   19.9567   -4.9651  -14.9201 C   0  0  0  0  0  0  0  0  0  0  0  0
   21.4290   -4.7334  -15.1711 C   0  0  2  0  0  0  0  0  0  0  0  0
   22.1859   -5.9530  -15.1873 N   0  0  0  0  0  0  0  0  0  0  0  0
   21.9272   -3.7783  -14.1380 C   0  0  0  0  0  0  0  0  0  0  0  0
   22.8066   -4.2063  -13.3467 O   0  0  0  0  0  0  0  0  0  0  0  0
   21.4654   -2.4776  -14.0281 O   0  0  0  0  0  0  0  0  0  0  0  0
  1  2  1  0
  2  3  1  0
  3  4  1  1
  5  6  2  0
  5  3  1  0
  7  8  1  0
  8  9  2  0
  8 18  1  0
  9 10  1  0
 10 11  2  0
 11 12  1  0
 13 12  1  6
 13 15  1  0
 13 14  1  0
 14  5  1  0
 15 16  2  0
 17 11  1  0
 18 17  2  0
 20 19  1  0
 21 20  1  1
 22 15  1  0
 22 21  1  0
 23 25  1  0
 23 21  1  0
 24 23  2  0
M  END
$$$$
