SYS.pdb
     RDKit          3D

 25 25  0  0  1  0  0  0  0  0999 V2000
   15.9392  -11.4297  -14.9212 O   0  0  0  0  0  0  0  0  0  0  0  0
   15.2172  -10.6717  -14.0000 C   0  0  0  0  0  0  0  0  0  0  0  0
   16.0679   -9.4681  -13.6620 C   0  0  2  0  0  0  0  0  0  0  0  0
   17.3229   -9.8099  -13.0512 N   0  0  0  0  0  0  0  0  0  0  0  0
   15.2974   -8.5282  -12.7598 C   0  0  0  0  0  0  0  0  0  0  0  0
   14.1719   -8.0989  -13.1034 O   0  0  0  0  0  0  0  0  0  0  0  0
   10.5220  -11.5805   -9.1315 O   0  0  0  0  0  0  0  0  0  0  0  0
   11.6149  -10.6934   -9.1664 C   0  0  0  0  0  0  0  0  0  0  0  0
   12.8708  -11.1431   -9.5145 C   0  0  0  0  0  0  0  0  0  0  0  0
   13.9455  -10.2647   -9.5477 C   0  0  0  0  0  0  0  0  0  0  0  0
   13.8107   -8.9304   -9.2409 C   0  0  0  0  0  0  0  0  0  0  0  0
   14.9735   -8.0250   -9.2725 C   0  0  0  0  0  0  0  0  0  0  0  0
   15.1594   -7.2817  -10.5582 C   0  0  2  0  0  0  0  0  0  0  0  0
   15.8375   -8.1205  -11.5144 N   0  0  0  0  0  0  0  0  0  0  0  0
   15.8192   -5.9673  -10.3636 C   0  0  0  0  0  0  0  0  0  0  0  0
   17.0470   -5.8466  -10.1478 O   0  0  0  0  0  0  0  0  0  0  0  0
   12.5557   -8.4842   -8.8933 C   0  0  0  0  0  0  0  0  0  0  0  0
   11.4697   -9.3633   -8.8581 C   0  0  0  0  0  0  0  0  0  0  0  0
   15.7799   -1.1938  -10.9496 O   0  0  0  0  0  0  0  0  0  0  0  0
   15.0522   -2.3790  -11.0928 C   0  0  0  0  0  0  0  0  0  0  0  0
   15.7536   -3.4676  -10.3135 C   0  0  2  0  0  0  0  0  0  0  0  0
   15.0855   -4.7346  -10.4092 N   0  0  0  0  0  0  0  0  0  0  0  0
   15.8856   -3.0091   -8.8993 C   0  0  0  0  0  0  0  0  0  0  0  0
   15.3197   -3.7093   -8.0207 O   0  0  0  0  0  0  0  0  0  0  0  0
   16.5894   -1.8730   -8.5373 O   0  0  0  0  0  0  0  0  0  0  0  0
  1  2  1  0
  2  3  1  0
  3  4  1  1
  5  6  2  0
  5  3  1  0
  7  8  1  0
  8  9  2  0
  8 18  1  0
  9 10  1  0
 10 11  2  0
 11 12  1  0
 13 12  1  1
 13 15  1  0
 13 14  1  0
 14  5  1  0
 15 16  2  0
 17 11  1  0
 18 17  2  0
 20 19  1  0
 21 20  1  6
 22 15  1  0
 22 21  1  0
 23 25  1  0
 23 21  1  0
 24 23  2  0
M  END
$$$$
