SYS.pdb
     RDKit          3D

 25 25  0  0  1  0  0  0  0  0999 V2000
   21.1925   -8.3269  -18.8920 O   0  0  0  0  0  0  0  0  0  0  0  0
   22.3086   -8.4749  -18.0693 C   0  0  0  0  0  0  0  0  0  0  0  0
   21.7907   -8.7136  -16.6688 C   0  0  2  0  0  0  0  0  0  0  0  0
   20.8074   -9.7588  -16.5947 N   0  0  0  0  0  0  0  0  0  0  0  0
   21.2193   -7.4308  -16.1040 C   0  0  0  0  0  0  0  0  0  0  0  0
   19.9930   -7.1901  -16.1903 O   0  0  0  0  0  0  0  0  0  0  0  0
   18.2992   -7.3390   -9.7430 O   0  0  0  0  0  0  0  0  0  0  0  0
   19.2334   -6.8125  -10.6556 C   0  0  0  0  0  0  0  0  0  0  0  0
   19.0240   -5.5816  -11.2401 C   0  0  0  0  0  0  0  0  0  0  0  0
   19.9481   -5.0665  -12.1392 C   0  0  0  0  0  0  0  0  0  0  0  0
   21.0936   -5.7464  -12.4827 C   0  0  0  0  0  0  0  0  0  0  0  0
   22.0495   -5.1789  -13.4506 C   0  0  0  0  0  0  0  0  0  0  0  0
   21.6144   -5.2471  -14.8810 C   0  0  2  0  0  0  0  0  0  0  0  0
   22.0624   -6.4842  -15.4700 N   0  0  0  0  0  0  0  0  0  0  0  0
   22.0227   -4.0501  -15.6562 C   0  0  0  0  0  0  0  0  0  0  0  0
   23.1146   -3.9724  -16.2649 O   0  0  0  0  0  0  0  0  0  0  0  0
   21.2999   -6.9754  -11.8978 C   0  0  0  0  0  0  0  0  0  0  0  0
   20.3737   -7.4995  -10.9918 C   0  0  0  0  0  0  0  0  0  0  0  0
   21.4828   -1.2211  -18.9906 O   0  0  0  0  0  0  0  0  0  0  0  0
   21.1760   -2.2852  -18.1370 C   0  0  0  0  0  0  0  0  0  0  0  0
   21.4612   -1.8555  -16.7163 C   0  0  2  0  0  0  0  0  0  0  0  0
   21.1847   -2.8895  -15.7597 N   0  0  0  0  0  0  0  0  0  0  0  0
   20.6761   -0.6157  -16.4441 C   0  0  0  0  0  0  0  0  0  0  0  0
   19.4724   -0.7680  -16.1114 O   0  0  0  0  0  0  0  0  0  0  0  0
   21.2153    0.6557  -16.5436 O   0  0  0  0  0  0  0  0  0  0  0  0
  1  2  1  0
  2  3  1  0
  3  4  1  6
  5  6  2  0
  5  3  1  0
  7  8  1  0
  8  9  2  0
  8 18  1  0
  9 10  1  0
 10 11  2  0
 11 12  1  0
 13 12  1  1
 13 15  1  0
 13 14  1  0
 14  5  1  0
 15 16  2  0
 17 11  1  0
 18 17  2  0
 20 19  1  0
 21 20  1  6
 22 15  1  0
 22 21  1  0
 23 25  1  0
 23 21  1  0
 24 23  2  0
M  END
$$$$
