SYS.pdb
     RDKit          3D

 25 25  0  0  1  0  0  0  0  0999 V2000
   24.1384  -20.6037  -16.6616 O   0  0  0  0  0  0  0  0  0  0  0  0
   25.5130  -20.6491  -16.8918 C   0  0  0  0  0  0  0  0  0  0  0  0
   25.9813  -22.0243  -16.4718 C   0  0  2  0  0  0  0  0  0  0  0  0
   25.3118  -23.0909  -17.1638 N   0  0  0  0  0  0  0  0  0  0  0  0
   25.8090  -22.1944  -14.9777 C   0  0  0  0  0  0  0  0  0  0  0  0
   25.3074  -23.2436  -14.5121 O   0  0  0  0  0  0  0  0  0  0  0  0
   26.7401  -20.2940   -6.2994 O   0  0  0  0  0  0  0  0  0  0  0  0
   26.8021  -20.2836   -7.7060 C   0  0  0  0  0  0  0  0  0  0  0  0
   25.8606  -19.5974   -8.4432 C   0  0  0  0  0  0  0  0  0  0  0  0
   25.9258  -19.5899   -9.8301 C   0  0  0  0  0  0  0  0  0  0  0  0
   26.9134  -20.2537  -10.5206 C   0  0  0  0  0  0  0  0  0  0  0  0
   26.9484  -20.2379  -11.9941 C   0  0  0  0  0  0  0  0  0  0  0  0
   26.0089  -21.1956  -12.6577 C   0  0  2  0  0  0  0  0  0  0  0  0
   26.2120  -21.1703  -14.0846 N   0  0  0  0  0  0  0  0  0  0  0  0
   24.5964  -20.9690  -12.2652 C   0  0  0  0  0  0  0  0  0  0  0  0
   24.1863  -21.1018  -11.0892 O   0  0  0  0  0  0  0  0  0  0  0  0
   27.8518  -20.9383   -9.7819 C   0  0  0  0  0  0  0  0  0  0  0  0
   27.7919  -20.9497   -8.3856 C   0  0  0  0  0  0  0  0  0  0  0  0
   20.2827  -19.0527  -13.2517 O   0  0  0  0  0  0  0  0  0  0  0  0
   21.5665  -19.3066  -13.7441 C   0  0  0  0  0  0  0  0  0  0  0  0
   22.2568  -20.2688  -12.8050 C   0  0  2  0  0  0  0  0  0  0  0  0
   23.5960  -20.5798  -13.2180 N   0  0  0  0  0  0  0  0  0  0  0  0
   21.4072  -21.4907  -12.6919 C   0  0  0  0  0  0  0  0  0  0  0  0
   21.8195  -22.5246  -13.2781 O   0  0  0  0  0  0  0  0  0  0  0  0
   20.2176  -21.5193  -11.9840 O   0  0  0  0  0  0  0  0  0  0  0  0
  1  2  1  0
  2  3  1  0
  3  4  1  6
  5  6  2  0
  5  3  1  0
  7  8  1  0
  8  9  2  0
  8 18  1  0
  9 10  1  0
 10 11  2  0
 11 12  1  0
 13 12  1  1
 13 15  1  0
 13 14  1  0
 14  5  1  0
 15 16  2  0
 17 11  1  0
 18 17  2  0
 20 19  1  0
 21 20  1  6
 22 15  1  0
 22 21  1  0
 23 25  1  0
 23 21  1  0
 24 23  2  0
M  END
$$$$
