VDT.pdb
     RDKit          3D

 23 22  0  0  1  0  0  0  0  0999 V2000
    8.2344  -14.7643   18.0620 C   0  0  0  0  0  0  0  0  0  0  0  0
    7.7016  -13.5502   18.8553 C   0  0  2  0  0  0  0  0  0  0  0  0
    7.7010  -12.3727   17.9586 C   0  0  0  0  0  0  0  0  0  0  0  0
    8.5614  -13.4780   20.0804 C   0  0  2  0  0  0  0  0  0  0  0  0
    9.9319  -13.2427   19.5395 N   0  0  0  0  0  0  0  0  0  0  0  0
    8.5616  -14.6358   20.9595 C   0  0  0  0  0  0  0  0  0  0  0  0
    7.4622  -15.0451   21.4216 O   0  0  0  0  0  0  0  0  0  0  0  0
    9.7459  -15.3195   21.3080 N   0  0  0  0  0  0  0  0  0  0  0  0
    9.6883  -16.4903   22.2199 C   0  0  1  0  0  0  0  0  0  0  0  0
   10.9560  -17.2659   22.0125 C   0  0  0  0  0  0  0  0  0  0  0  0
   11.1576  -18.4240   22.8893 C   0  0  0  0  0  0  0  0  0  0  0  0
   12.2131  -18.9232   23.2823 O   0  0  0  0  0  0  0  0  0  0  0  0
    9.6608  -15.9354   23.5984 C   0  0  0  0  0  0  0  0  0  0  0  0
   10.6244  -15.1851   23.9142 O   0  0  0  0  0  0  0  0  0  0  0  0
    9.9594  -19.0360   23.3323 O   0  0  0  0  0  0  0  0  0  0  0  0
    7.6337  -13.3808   25.4607 C   0  0  0  0  0  0  0  0  0  0  0  0
    7.6213  -14.6636   26.2232 C   0  0  1  0  0  0  0  0  0  0  0  0
    6.3968  -15.3155   25.9622 O   0  0  0  0  0  0  0  0  0  0  0  0
    8.6989  -15.6245   25.8760 C   0  0  2  0  0  0  0  0  0  0  0  0
    8.6748  -16.1680   24.5617 N   0  0  0  0  0  0  0  0  0  0  0  0
    8.8872  -16.6301   26.9589 C   0  0  0  0  0  0  0  0  0  0  0  0
    9.0852  -16.2385   28.2711 O   0  0  0  0  0  0  0  0  0  0  0  0
    8.8704  -17.8473   26.7066 O   0  0  0  0  0  0  0  0  0  0  0  0
  2  1  1  6
  2  3  1  0
  4  6  1  0
  4  2  1  0
  4  5  1  6
  6  8  1  0
  7  6  2  0
  8  9  1  0
  9 13  1  0
  9 10  1  1
 11 10  1  0
 11 12  2  0
 13 14  2  0
 13 20  1  0
 15 11  1  0
 17 16  1  6
 18 17  1  0
 19 17  1  0
 19 21  1  0
 19 20  1  6
 21 22  1  0
 23 21  2  0
M  END
$$$$
