VDT.pdb
     RDKit          3D

 23 22  0  0  1  0  0  0  0  0999 V2000
    7.1957  -12.8645   21.3702 C   0  0  0  0  0  0  0  0  0  0  0  0
    8.2129  -13.2397   20.2694 C   0  0  2  0  0  0  0  0  0  0  0  0
    7.8422  -12.5216   19.0294 C   0  0  0  0  0  0  0  0  0  0  0  0
    8.2017  -14.7373   20.2232 C   0  0  2  0  0  0  0  0  0  0  0  0
    6.8926  -15.0636   19.5858 N   0  0  0  0  0  0  0  0  0  0  0  0
    8.3320  -15.4408   21.4888 C   0  0  0  0  0  0  0  0  0  0  0  0
    7.2916  -15.8891   22.0419 O   0  0  0  0  0  0  0  0  0  0  0  0
    9.5802  -15.6438   22.1152 N   0  0  0  0  0  0  0  0  0  0  0  0
    9.6598  -16.4118   23.3839 C   0  0  1  0  0  0  0  0  0  0  0  0
   10.9449  -17.1856   23.3438 C   0  0  0  0  0  0  0  0  0  0  0  0
   11.2445  -18.0049   24.5225 C   0  0  0  0  0  0  0  0  0  0  0  0
   10.5581  -18.1958   25.5277 O   0  0  0  0  0  0  0  0  0  0  0  0
    9.7178  -15.4011   24.4720 C   0  0  0  0  0  0  0  0  0  0  0  0
   10.6779  -14.5846   24.4209 O   0  0  0  0  0  0  0  0  0  0  0  0
   12.5013  -18.6566   24.4760 O   0  0  0  0  0  0  0  0  0  0  0  0
    7.5059  -12.4645   25.4874 C   0  0  0  0  0  0  0  0  0  0  0  0
    7.7466  -13.3507   26.6638 C   0  0  1  0  0  0  0  0  0  0  0  0
    6.5994  -14.1520   26.8494 O   0  0  0  0  0  0  0  0  0  0  0  0
    8.8996  -14.2783   26.5406 C   0  0  2  0  0  0  0  0  0  0  0  0
    8.8144  -15.2772   25.5316 N   0  0  0  0  0  0  0  0  0  0  0  0
    9.3252  -14.7817   27.8765 C   0  0  0  0  0  0  0  0  0  0  0  0
    9.6924  -13.9089   28.8853 O   0  0  0  0  0  0  0  0  0  0  0  0
    9.3599  -16.0013   28.1153 O   0  0  0  0  0  0  0  0  0  0  0  0
  2  1  1  1
  2  3  1  0
  4  6  1  0
  4  2  1  0
  4  5  1  1
  6  8  1  0
  7  6  2  0
  8  9  1  0
  9 13  1  0
  9 10  1  6
 11 10  1  0
 11 12  2  0
 13 14  2  0
 13 20  1  0
 15 11  1  0
 17 16  1  6
 18 17  1  0
 19 17  1  0
 19 21  1  0
 19 20  1  6
 21 22  1  0
 23 21  2  0
M  END
$$$$
