VDT.pdb
     RDKit          3D

 23 22  0  0  1  0  0  0  0  0999 V2000
    7.0848  -13.1812   21.0111 C   0  0  0  0  0  0  0  0  0  0  0  0
    8.2469  -13.3439   20.0059 C   0  0  2  0  0  0  0  0  0  0  0  0
    7.9358  -12.5419   18.8014 C   0  0  0  0  0  0  0  0  0  0  0  0
    8.3993  -14.8233   19.8234 C   0  0  2  0  0  0  0  0  0  0  0  0
    7.1806  -15.2143   19.0563 N   0  0  0  0  0  0  0  0  0  0  0  0
    8.5150  -15.6315   21.0263 C   0  0  0  0  0  0  0  0  0  0  0  0
    7.4622  -16.0659   21.5672 O   0  0  0  0  0  0  0  0  0  0  0  0
    9.7620  -15.9507   21.6049 N   0  0  0  0  0  0  0  0  0  0  0  0
    9.8186  -16.7361   22.8642 C   0  0  1  0  0  0  0  0  0  0  0  0
   11.1438  -17.4400   22.8783 C   0  0  0  0  0  0  0  0  0  0  0  0
   11.1145  -18.8691   23.2057 C   0  0  0  0  0  0  0  0  0  0  0  0
   11.7898  -19.7855   22.7344 O   0  0  0  0  0  0  0  0  0  0  0  0
    9.7673  -15.7434   23.9690 C   0  0  0  0  0  0  0  0  0  0  0  0
   10.5904  -14.7902   23.8979 O   0  0  0  0  0  0  0  0  0  0  0  0
   10.1724  -19.2200   24.2037 O   0  0  0  0  0  0  0  0  0  0  0  0
    7.7826  -12.8670   27.2548 C   0  0  0  0  0  0  0  0  0  0  0  0
    7.6844  -13.9771   26.2622 C   0  0  1  0  0  0  0  0  0  0  0  0
    7.4230  -13.4097   24.9963 O   0  0  0  0  0  0  0  0  0  0  0  0
    8.9038  -14.8111   26.1125 C   0  0  2  0  0  0  0  0  0  0  0  0
    8.8989  -15.7724   25.0642 N   0  0  0  0  0  0  0  0  0  0  0  0
    9.3580  -15.3346   27.4312 C   0  0  0  0  0  0  0  0  0  0  0  0
    9.6789  -14.4771   28.4685 O   0  0  0  0  0  0  0  0  0  0  0  0
    9.4589  -16.5578   27.6295 O   0  0  0  0  0  0  0  0  0  0  0  0
  2  1  1  1
  2  3  1  0
  4  6  1  0
  4  2  1  0
  4  5  1  1
  6  8  1  0
  7  6  2  0
  8  9  1  0
  9 13  1  0
  9 10  1  6
 11 10  1  0
 11 12  2  0
 13 14  2  0
 13 20  1  0
 15 11  1  0
 17 16  1  1
 18 17  1  0
 19 17  1  0
 19 21  1  0
 19 20  1  6
 21 22  1  0
 23 21  2  0
M  END
$$$$
