VDT.pdb
     RDKit          3D

 23 22  0  0  1  0  0  0  0  0999 V2000
    8.2874  -14.5130   17.9671 C   0  0  0  0  0  0  0  0  0  0  0  0
    7.9440  -13.4091   18.9922 C   0  0  2  0  0  0  0  0  0  0  0  0
    7.8963  -12.1122   18.2805 C   0  0  0  0  0  0  0  0  0  0  0  0
    8.9642  -13.5567   20.0796 C   0  0  2  0  0  0  0  0  0  0  0  0
   10.2607  -13.2953   19.3888 N   0  0  0  0  0  0  0  0  0  0  0  0
    9.0144  -14.8337   20.7729 C   0  0  0  0  0  0  0  0  0  0  0  0
    7.9606  -15.2744   21.3066 O   0  0  0  0  0  0  0  0  0  0  0  0
   10.1973  -15.5979   20.8637 N   0  0  0  0  0  0  0  0  0  0  0  0
   10.2034  -16.8716   21.6276 C   0  0  1  0  0  0  0  0  0  0  0  0
   11.5060  -17.5529   21.3266 C   0  0  0  0  0  0  0  0  0  0  0  0
   11.7571  -18.8121   22.0350 C   0  0  0  0  0  0  0  0  0  0  0  0
   10.9581  -19.5417   22.6243 O   0  0  0  0  0  0  0  0  0  0  0  0
   10.1586  -16.4889   23.0630 C   0  0  0  0  0  0  0  0  0  0  0  0
   11.0889  -15.7390   23.4671 O   0  0  0  0  0  0  0  0  0  0  0  0
   13.1117  -19.2260   22.0271 O   0  0  0  0  0  0  0  0  0  0  0  0
    7.8863  -14.3282   25.1352 C   0  0  0  0  0  0  0  0  0  0  0  0
    8.0280  -15.6553   25.8029 C   0  0  1  0  0  0  0  0  0  0  0  0
    6.8644  -16.4073   25.5321 O   0  0  0  0  0  0  0  0  0  0  0  0
    9.1809  -16.4770   25.3550 C   0  0  2  0  0  0  0  0  0  0  0  0
    9.1895  -16.8810   23.9913 N   0  0  0  0  0  0  0  0  0  0  0  0
    9.4679  -17.5692   26.3266 C   0  0  0  0  0  0  0  0  0  0  0  0
    9.6788  -17.2965   27.6666 O   0  0  0  0  0  0  0  0  0  0  0  0
    9.5244  -18.7538   25.9536 O   0  0  0  0  0  0  0  0  0  0  0  0
  2  1  1  6
  2  3  1  0
  4  6  1  0
  4  2  1  0
  4  5  1  6
  6  8  1  0
  7  6  2  0
  8  9  1  0
  9 13  1  0
  9 10  1  1
 11 10  1  0
 11 12  2  0
 13 14  2  0
 13 20  1  0
 15 11  1  0
 17 16  1  6
 18 17  1  0
 19 17  1  0
 19 21  1  0
 19 20  1  6
 21 22  1  0
 23 21  2  0
M  END
$$$$
