VDT.pdb
     RDKit          3D

 23 22  0  0  1  0  0  0  0  0999 V2000
    7.5892  -12.5949   18.4918 C   0  0  0  0  0  0  0  0  0  0  0  0
    7.6840  -13.5895   19.6705 C   0  0  2  0  0  0  0  0  0  0  0  0
    8.2009  -12.8628   20.8518 C   0  0  0  0  0  0  0  0  0  0  0  0
    8.5075  -14.7291   19.1527 C   0  0  2  0  0  0  0  0  0  0  0  0
    7.6148  -15.3885   18.1553 N   0  0  0  0  0  0  0  0  0  0  0  0
    8.9781  -15.7025   20.1247 C   0  0  0  0  0  0  0  0  0  0  0  0
    8.1938  -16.6186   20.4923 O   0  0  0  0  0  0  0  0  0  0  0  0
   10.2811  -15.6611   20.6652 N   0  0  0  0  0  0  0  0  0  0  0  0
   10.6862  -16.6399   21.7062 C   0  0  1  0  0  0  0  0  0  0  0  0
   12.1848  -16.7100   21.6773 C   0  0  0  0  0  0  0  0  0  0  0  0
   12.8104  -17.6018   22.6591 C   0  0  0  0  0  0  0  0  0  0  0  0
   12.2742  -18.3388   23.4880 O   0  0  0  0  0  0  0  0  0  0  0  0
   10.2367  -16.0691   23.0027 C   0  0  0  0  0  0  0  0  0  0  0  0
   10.7862  -14.9895   23.3545 O   0  0  0  0  0  0  0  0  0  0  0  0
   14.2266  -17.5982   22.6314 O   0  0  0  0  0  0  0  0  0  0  0  0
    7.2180  -14.3327   24.3346 C   0  0  0  0  0  0  0  0  0  0  0  0
    7.5149  -15.5086   25.2041 C   0  0  1  0  0  0  0  0  0  0  0  0
    6.6428  -16.5558   24.8360 O   0  0  0  0  0  0  0  0  0  0  0  0
    8.8951  -16.0471   25.1025 C   0  0  2  0  0  0  0  0  0  0  0  0
    9.2717  -16.6153   23.8541 N   0  0  0  0  0  0  0  0  0  0  0  0
    9.2317  -16.8815   26.2898 C   0  0  0  0  0  0  0  0  0  0  0  0
    9.0953  -16.3850   27.5740 O   0  0  0  0  0  0  0  0  0  0  0  0
    9.6438  -18.0464   26.1525 O   0  0  0  0  0  0  0  0  0  0  0  0
  2  1  1  6
  2  3  1  0
  4  6  1  0
  4  2  1  0
  4  5  1  6
  6  8  1  0
  7  6  2  0
  8  9  1  0
  9 13  1  0
  9 10  1  1
 11 10  1  0
 11 12  2  0
 13 14  2  0
 13 20  1  0
 15 11  1  0
 17 16  1  6
 18 17  1  0
 19 17  1  0
 19 21  1  0
 19 20  1  6
 21 22  1  0
 23 21  2  0
M  END
$$$$
