VDT.pdb
     RDKit          3D

 23 22  0  0  1  0  0  0  0  0999 V2000
    7.5871  -12.9568   18.9225 C   0  0  0  0  0  0  0  0  0  0  0  0
    7.4826  -13.4272   20.3906 C   0  0  2  0  0  0  0  0  0  0  0  0
    8.1972  -12.4513   21.2436 C   0  0  0  0  0  0  0  0  0  0  0  0
    7.9934  -14.8358   20.3852 C   0  0  2  0  0  0  0  0  0  0  0  0
    6.9951  -15.5729   19.5567 N   0  0  0  0  0  0  0  0  0  0  0  0
    8.1538  -15.4879   21.6746 C   0  0  0  0  0  0  0  0  0  0  0  0
    7.1295  -15.9337   22.2590 O   0  0  0  0  0  0  0  0  0  0  0  0
    9.4139  -15.6441   22.2906 N   0  0  0  0  0  0  0  0  0  0  0  0
    9.5209  -16.3345   23.6012 C   0  0  1  0  0  0  0  0  0  0  0  0
   10.8272  -17.0728   23.5984 C   0  0  0  0  0  0  0  0  0  0  0  0
   10.9396  -18.1865   22.6510 C   0  0  0  0  0  0  0  0  0  0  0  0
   10.0981  -19.0343   22.3492 O   0  0  0  0  0  0  0  0  0  0  0  0
    9.5549  -15.2609   24.6284 C   0  0  0  0  0  0  0  0  0  0  0  0
   10.4805  -14.4116   24.5137 O   0  0  0  0  0  0  0  0  0  0  0  0
   12.1977  -18.2799   22.0068 O   0  0  0  0  0  0  0  0  0  0  0  0
    7.4725  -12.2634   25.4424 C   0  0  0  0  0  0  0  0  0  0  0  0
    7.6228  -13.0896   26.6761 C   0  0  1  0  0  0  0  0  0  0  0  0
    6.4355  -13.8325   26.8520 O   0  0  0  0  0  0  0  0  0  0  0  0
    8.7398  -14.0679   26.6586 C   0  0  2  0  0  0  0  0  0  0  0  0
    8.6636  -15.1114   25.6951 N   0  0  0  0  0  0  0  0  0  0  0  0
    9.0743  -14.5213   28.0378 C   0  0  0  0  0  0  0  0  0  0  0  0
    9.4245  -13.6149   29.0227 O   0  0  0  0  0  0  0  0  0  0  0  0
    9.0460  -15.7281   28.3351 O   0  0  0  0  0  0  0  0  0  0  0  0
  2  1  1  6
  2  3  1  0
  4  6  1  0
  4  2  1  0
  4  5  1  6
  6  8  1  0
  7  6  2  0
  8  9  1  0
  9 13  1  0
  9 10  1  6
 11 10  1  0
 11 12  2  0
 13 14  2  0
 13 20  1  0
 15 11  1  0
 17 16  1  6
 18 17  1  0
 19 17  1  0
 19 21  1  0
 19 20  1  6
 21 22  1  0
 23 21  2  0
M  END
$$$$
