VDT.pdb
     RDKit          3D

 23 22  0  0  1  0  0  0  0  0999 V2000
    8.3087  -12.9870   21.0381 C   0  0  0  0  0  0  0  0  0  0  0  0
    8.3354  -13.4043   19.5507 C   0  0  2  0  0  0  0  0  0  0  0  0
    7.3245  -12.6033   18.8246 C   0  0  0  0  0  0  0  0  0  0  0  0
    8.1531  -14.8915   19.5604 C   0  0  2  0  0  0  0  0  0  0  0  0
    6.8013  -15.0801   20.1635 N   0  0  0  0  0  0  0  0  0  0  0  0
    9.1392  -15.6758   20.2856 C   0  0  0  0  0  0  0  0  0  0  0  0
   10.0481  -16.2577   19.6338 O   0  0  0  0  0  0  0  0  0  0  0  0
    9.1181  -15.8031   21.6910 N   0  0  0  0  0  0  0  0  0  0  0  0
   10.1954  -16.5524   22.3864 C   0  0  1  0  0  0  0  0  0  0  0  0
   11.4888  -15.8739   22.0425 C   0  0  0  0  0  0  0  0  0  0  0  0
   12.6501  -16.7497   21.8561 C   0  0  0  0  0  0  0  0  0  0  0  0
   12.8440  -17.6050   20.9908 O   0  0  0  0  0  0  0  0  0  0  0  0
    9.9241  -16.4055   23.8403 C   0  0  0  0  0  0  0  0  0  0  0  0
   10.1562  -15.2692   24.3365 O   0  0  0  0  0  0  0  0  0  0  0  0
   13.6770  -16.5692   22.8149 O   0  0  0  0  0  0  0  0  0  0  0  0
    6.9657  -15.7696   25.4259 C   0  0  0  0  0  0  0  0  0  0  0  0
    7.5217  -16.9273   26.1860 C   0  0  1  0  0  0  0  0  0  0  0  0
    6.8677  -18.0967   25.7416 O   0  0  0  0  0  0  0  0  0  0  0  0
    8.9781  -17.1628   26.0177 C   0  0  2  0  0  0  0  0  0  0  0  0
    9.4407  -17.4015   24.6939 N   0  0  0  0  0  0  0  0  0  0  0  0
    9.4842  -18.1272   27.0341 C   0  0  0  0  0  0  0  0  0  0  0  0
   10.1930  -19.2547   26.6589 O   0  0  0  0  0  0  0  0  0  0  0  0
    9.2801  -17.9396   28.2461 O   0  0  0  0  0  0  0  0  0  0  0  0
  2  1  1  1
  2  3  1  0
  4  6  1  0
  4  2  1  0
  4  5  1  1
  6  8  1  0
  7  6  2  0
  8  9  1  0
  9 13  1  0
  9 10  1  1
 11 10  1  0
 11 12  2  0
 13 14  2  0
 13 20  1  0
 15 11  1  0
 17 16  1  6
 18 17  1  0
 19 17  1  0
 19 21  1  0
 19 20  1  6
 21 22  1  0
 23 21  2  0
M  END
$$$$
