VDT.pdb
     RDKit          3D

 23 22  0  0  1  0  0  0  0  0999 V2000
    7.6126  -12.5922   18.3716 C   0  0  0  0  0  0  0  0  0  0  0  0
    7.7719  -13.5797   19.5492 C   0  0  2  0  0  0  0  0  0  0  0  0
    8.4201  -12.8647   20.6714 C   0  0  0  0  0  0  0  0  0  0  0  0
    8.5002  -14.7564   18.9746 C   0  0  2  0  0  0  0  0  0  0  0  0
    7.5326  -15.3291   17.9938 N   0  0  0  0  0  0  0  0  0  0  0  0
    8.9382  -15.7841   19.9050 C   0  0  0  0  0  0  0  0  0  0  0  0
    8.1048  -16.6494   20.2872 O   0  0  0  0  0  0  0  0  0  0  0  0
   10.2621  -15.8500   20.3892 N   0  0  0  0  0  0  0  0  0  0  0  0
   10.6444  -16.8981   21.3696 C   0  0  1  0  0  0  0  0  0  0  0  0
   12.1126  -17.1490   21.1876 C   0  0  0  0  0  0  0  0  0  0  0  0
   12.7055  -18.1773   22.0488 C   0  0  0  0  0  0  0  0  0  0  0  0
   12.2789  -18.6409   23.1075 O   0  0  0  0  0  0  0  0  0  0  0  0
   10.3995  -16.3117   22.7130 C   0  0  0  0  0  0  0  0  0  0  0  0
   11.1379  -15.3424   23.0389 O   0  0  0  0  0  0  0  0  0  0  0  0
   13.9377  -18.6933   21.5778 O   0  0  0  0  0  0  0  0  0  0  0  0
    7.7853  -14.2331   24.4084 C   0  0  0  0  0  0  0  0  0  0  0  0
    8.0170  -15.4649   25.2185 C   0  0  1  0  0  0  0  0  0  0  0  0
    6.9674  -16.3694   24.9486 O   0  0  0  0  0  0  0  0  0  0  0  0
    9.2844  -16.1860   24.9380 C   0  0  2  0  0  0  0  0  0  0  0  0
    9.4359  -16.7335   23.6339 N   0  0  0  0  0  0  0  0  0  0  0  0
    9.6228  -17.1223   26.0462 C   0  0  0  0  0  0  0  0  0  0  0  0
    9.7443  -16.6731   27.3492 O   0  0  0  0  0  0  0  0  0  0  0  0
    9.8040  -18.3320   25.8240 O   0  0  0  0  0  0  0  0  0  0  0  0
  2  1  1  6
  2  3  1  0
  4  6  1  0
  4  2  1  0
  4  5  1  6
  6  8  1  0
  7  6  2  0
  8  9  1  0
  9 13  1  0
  9 10  1  1
 11 10  1  0
 11 12  2  0
 13 14  2  0
 13 20  1  0
 15 11  1  0
 17 16  1  6
 18 17  1  0
 19 17  1  0
 19 21  1  0
 19 20  1  6
 21 22  1  0
 23 21  2  0
M  END
$$$$
