VDT.pdb
     RDKit          3D

 23 22  0  0  1  0  0  0  0  0999 V2000
    7.3998  -13.7070   21.7789 C   0  0  0  0  0  0  0  0  0  0  0  0
    8.4191  -13.4670   20.6428 C   0  0  2  0  0  0  0  0  0  0  0  0
    7.8146  -12.5350   19.6647 C   0  0  0  0  0  0  0  0  0  0  0  0
    8.7831  -14.8348   20.1512 C   0  0  2  0  0  0  0  0  0  0  0  0
    7.5662  -15.2829   19.4132 N   0  0  0  0  0  0  0  0  0  0  0  0
    9.1543  -15.8221   21.1518 C   0  0  0  0  0  0  0  0  0  0  0  0
    9.0962  -17.0441   20.8470 O   0  0  0  0  0  0  0  0  0  0  0  0
    9.5820  -15.4607   22.4472 N   0  0  0  0  0  0  0  0  0  0  0  0
   10.1202  -16.4941   23.3683 C   0  0  1  0  0  0  0  0  0  0  0  0
   11.3869  -17.0097   22.7509 C   0  0  0  0  0  0  0  0  0  0  0  0
   11.6663  -18.4366   22.9418 C   0  0  0  0  0  0  0  0  0  0  0  0
   10.8850  -19.3888   22.9167 O   0  0  0  0  0  0  0  0  0  0  0  0
   10.4334  -15.7882   24.6381 C   0  0  0  0  0  0  0  0  0  0  0  0
   11.2695  -14.8471   24.5587 O   0  0  0  0  0  0  0  0  0  0  0  0
   13.0287  -18.7366   23.1875 O   0  0  0  0  0  0  0  0  0  0  0  0
    8.8154  -13.1442   28.0628 C   0  0  0  0  0  0  0  0  0  0  0  0
    8.6779  -14.2921   27.1190 C   0  0  1  0  0  0  0  0  0  0  0  0
    8.4053  -13.7723   25.8353 O   0  0  0  0  0  0  0  0  0  0  0  0
    9.8781  -15.1561   26.9836 C   0  0  2  0  0  0  0  0  0  0  0  0
    9.8902  -16.0712   25.8948 N   0  0  0  0  0  0  0  0  0  0  0  0
   10.2601  -15.7491   28.2957 C   0  0  0  0  0  0  0  0  0  0  0  0
   10.6566  -14.9496   29.3530 O   0  0  0  0  0  0  0  0  0  0  0  0
   10.2308  -16.9797   28.4703 O   0  0  0  0  0  0  0  0  0  0  0  0
  2  1  1  1
  2  3  1  0
  4  6  1  0
  4  2  1  0
  4  5  1  1
  6  8  1  0
  7  6  2  0
  8  9  1  0
  9 13  1  0
  9 10  1  6
 11 10  1  0
 11 12  2  0
 13 14  2  0
 13 20  1  0
 15 11  1  0
 17 16  1  1
 18 17  1  0
 19 17  1  0
 19 21  1  0
 19 20  1  6
 21 22  1  0
 23 21  2  0
M  END
$$$$
