VDT.pdb
     RDKit          3D

 23 22  0  0  1  0  0  0  0  0999 V2000
    7.2705  -13.3953   20.5670 C   0  0  0  0  0  0  0  0  0  0  0  0
    8.4742  -13.3308   19.6003 C   0  0  2  0  0  0  0  0  0  0  0  0
    8.1695  -12.3401   18.5437 C   0  0  0  0  0  0  0  0  0  0  0  0
    8.7014  -14.7470   19.1667 C   0  0  2  0  0  0  0  0  0  0  0  0
    7.4576  -15.0938   18.4190 N   0  0  0  0  0  0  0  0  0  0  0  0
    8.9489  -15.7284   20.2102 C   0  0  0  0  0  0  0  0  0  0  0  0
    7.9724  -16.3748   20.6772 O   0  0  0  0  0  0  0  0  0  0  0  0
   10.2420  -15.9864   20.7132 N   0  0  0  0  0  0  0  0  0  0  0  0
   10.4474  -17.0536   21.7255 C   0  0  1  0  0  0  0  0  0  0  0  0
   11.8784  -17.4905   21.6126 C   0  0  0  0  0  0  0  0  0  0  0  0
   12.2290  -18.2560   20.4119 C   0  0  0  0  0  0  0  0  0  0  0  0
   13.2455  -18.1873   19.7191 O   0  0  0  0  0  0  0  0  0  0  0  0
   10.2223  -16.4132   23.0477 C   0  0  0  0  0  0  0  0  0  0  0  0
   10.8929  -15.3707   23.2811 O   0  0  0  0  0  0  0  0  0  0  0  0
   11.2488  -19.1977   20.0133 O   0  0  0  0  0  0  0  0  0  0  0  0
    7.6576  -14.3069   24.4227 C   0  0  0  0  0  0  0  0  0  0  0  0
    7.8413  -15.4269   25.3917 C   0  0  1  0  0  0  0  0  0  0  0  0
    6.8015  -16.3590   25.1846 O   0  0  0  0  0  0  0  0  0  0  0  0
    9.1171  -16.1766   25.2685 C   0  0  2  0  0  0  0  0  0  0  0  0
    9.3448  -16.8581   24.0409 N   0  0  0  0  0  0  0  0  0  0  0  0
    9.3771  -16.9925   26.4876 C   0  0  0  0  0  0  0  0  0  0  0  0
    9.3763  -16.4173   27.7459 O   0  0  0  0  0  0  0  0  0  0  0  0
    9.6012  -18.2123   26.4008 O   0  0  0  0  0  0  0  0  0  0  0  0
  2  1  1  1
  2  3  1  0
  4  6  1  0
  4  2  1  0
  4  5  1  1
  6  8  1  0
  7  6  2  0
  8  9  1  0
  9 13  1  0
  9 10  1  1
 11 10  1  0
 11 12  2  0
 13 14  2  0
 13 20  1  0
 15 11  1  0
 17 16  1  6
 18 17  1  0
 19 17  1  0
 19 21  1  0
 19 20  1  6
 21 22  1  0
 23 21  2  0
M  END
$$$$
