VDT.pdb
     RDKit          3D

 23 22  0  0  1  0  0  0  0  0999 V2000
    6.9709  -12.9689   20.6667 C   0  0  0  0  0  0  0  0  0  0  0  0
    8.2705  -13.2129   19.8674 C   0  0  2  0  0  0  0  0  0  0  0  0
    8.1607  -12.5031   18.5733 C   0  0  0  0  0  0  0  0  0  0  0  0
    8.4249  -14.7026   19.8208 C   0  0  2  0  0  0  0  0  0  0  0  0
    7.3653  -15.1401   18.8656 N   0  0  0  0  0  0  0  0  0  0  0  0
    8.2952  -15.4223   21.0773 C   0  0  0  0  0  0  0  0  0  0  0  0
    7.1976  -15.9828   21.3432 O   0  0  0  0  0  0  0  0  0  0  0  0
    9.3544  -15.5201   22.0047 N   0  0  0  0  0  0  0  0  0  0  0  0
    9.1694  -16.2784   23.2682 C   0  0  1  0  0  0  0  0  0  0  0  0
   10.3295  -17.2233   23.3820 C   0  0  0  0  0  0  0  0  0  0  0  0
   10.4419  -17.9618   24.6440 C   0  0  0  0  0  0  0  0  0  0  0  0
    9.5782  -18.1741   25.4965 O   0  0  0  0  0  0  0  0  0  0  0  0
    9.2325  -15.2742   24.3620 C   0  0  0  0  0  0  0  0  0  0  0  0
   10.2631  -14.5473   24.3897 O   0  0  0  0  0  0  0  0  0  0  0  0
   11.7300  -18.4947   24.8955 O   0  0  0  0  0  0  0  0  0  0  0  0
    7.2570  -12.0887   25.2551 C   0  0  0  0  0  0  0  0  0  0  0  0
    7.2711  -13.0532   26.3939 C   0  0  1  0  0  0  0  0  0  0  0  0
    6.0498  -13.7609   26.3824 O   0  0  0  0  0  0  0  0  0  0  0  0
    8.3535  -14.0692   26.3582 C   0  0  2  0  0  0  0  0  0  0  0  0
    8.2637  -15.0669   25.3484 N   0  0  0  0  0  0  0  0  0  0  0  0
    8.6394  -14.5931   27.7231 C   0  0  0  0  0  0  0  0  0  0  0  0
    8.9964  -13.7429   28.7546 O   0  0  0  0  0  0  0  0  0  0  0  0
    8.5634  -15.8100   27.9663 O   0  0  0  0  0  0  0  0  0  0  0  0
  2  1  1  1
  2  3  1  0
  4  6  1  0
  4  2  1  0
  4  5  1  6
  6  8  1  0
  7  6  2  0
  8  9  1  0
  9 13  1  0
  9 10  1  1
 11 10  1  0
 11 12  2  0
 13 14  2  0
 13 20  1  0
 15 11  1  0
 17 16  1  6
 18 17  1  0
 19 17  1  0
 19 21  1  0
 19 20  1  6
 21 22  1  0
 23 21  2  0
M  END
$$$$
