VDT.pdb
     RDKit          3D

 23 22  0  0  1  0  0  0  0  0999 V2000
    9.1770  -13.2830   20.3504 C   0  0  0  0  0  0  0  0  0  0  0  0
    7.9219  -13.9690   19.7658 C   0  0  2  0  0  0  0  0  0  0  0  0
    7.0184  -12.9191   19.2443 C   0  0  0  0  0  0  0  0  0  0  0  0
    7.4003  -14.8341   20.8724 C   0  0  2  0  0  0  0  0  0  0  0  0
    6.9296  -13.8562   21.8964 N   0  0  0  0  0  0  0  0  0  0  0  0
    8.3302  -15.7779   21.4709 C   0  0  0  0  0  0  0  0  0  0  0  0
    8.5598  -16.8635   20.8723 O   0  0  0  0  0  0  0  0  0  0  0  0
    8.9876  -15.5191   22.6925 N   0  0  0  0  0  0  0  0  0  0  0  0
    9.9733  -16.4926   23.2278 C   0  0  1  0  0  0  0  0  0  0  0  0
   11.1318  -16.5072   22.2743 C   0  0  0  0  0  0  0  0  0  0  0  0
   12.2077  -17.4567   22.5768 C   0  0  0  0  0  0  0  0  0  0  0  0
   12.1478  -18.5269   23.1842 O   0  0  0  0  0  0  0  0  0  0  0  0
   10.4122  -15.9516   24.5406 C   0  0  0  0  0  0  0  0  0  0  0  0
   10.8693  -14.7759   24.5320 O   0  0  0  0  0  0  0  0  0  0  0  0
   13.4815  -17.0682   22.0944 O   0  0  0  0  0  0  0  0  0  0  0  0
    9.1073  -13.8699   26.1388 C   0  0  0  0  0  0  0  0  0  0  0  0
    9.0456  -15.0063   27.1043 C   0  0  1  0  0  0  0  0  0  0  0  0
    7.8598  -15.7297   26.8527 O   0  0  0  0  0  0  0  0  0  0  0  0
   10.1647  -15.9786   27.0200 C   0  0  2  0  0  0  0  0  0  0  0  0
   10.3632  -16.6214   25.7668 N   0  0  0  0  0  0  0  0  0  0  0  0
   10.1646  -16.8961   28.1937 C   0  0  0  0  0  0  0  0  0  0  0  0
   10.3579  -16.4153   29.4766 O   0  0  0  0  0  0  0  0  0  0  0  0
    9.9900  -18.1181   28.0459 O   0  0  0  0  0  0  0  0  0  0  0  0
  2  1  1  1
  2  3  1  0
  4  6  1  0
  4  2  1  0
  4  5  1  1
  6  8  1  0
  7  6  2  0
  8  9  1  0
  9 13  1  0
  9 10  1  6
 11 10  1  0
 11 12  2  0
 13 14  2  0
 13 20  1  0
 15 11  1  0
 17 16  1  6
 18 17  1  0
 19 17  1  0
 19 21  1  0
 19 20  1  6
 21 22  1  0
 23 21  2  0
M  END
$$$$
