HWI.pdb
     RDKit          3D

 33 35  0  0  1  0  0  0  0  0999 V2000
   10.7958  -19.9021   20.8098 N   0  0  0  0  0  0  0  0  0  0  0  0
   10.0140  -19.7198   22.0038 C   0  0  1  0  0  0  0  0  0  0  0  0
   10.5195  -20.5446   23.1550 C   0  0  0  0  0  0  0  0  0  0  0  0
   10.4619  -21.9637   22.8009 C   0  0  0  0  0  0  0  0  0  0  0  0
   11.5171  -22.8013   22.5977 C   0  0  0  0  0  0  0  0  0  0  0  0
   10.9770  -24.0099   22.2897 N   0  0  0  0  0  0  0  0  0  0  0  0
    9.6513  -23.9519   22.2946 C   0  0  0  0  0  0  0  0  0  0  0  0
    9.3351  -22.6932   22.6091 N   0  0  0  0  0  0  0  0  0  0  0  0
   10.0488  -18.3145   22.4150 C   0  0  0  0  0  0  0  0  0  0  0  0
   11.0464  -17.5646   22.1658 O   0  0  0  0  0  0  0  0  0  0  0  0
    8.9367  -17.7534   23.1188 N   0  0  0  0  0  0  0  0  0  0  0  0
    8.9343  -16.3545   23.4647 C   0  0  1  0  0  0  0  0  0  0  0  0
    7.6093  -15.7294   23.6202 C   0  0  0  0  0  0  0  0  0  0  0  0
    7.5360  -14.2871   23.7768 C   0  0  0  0  0  0  0  0  0  0  0  0
    7.9230  -13.2264   22.9889 C   0  0  0  0  0  0  0  0  0  0  0  0
    7.6133  -12.0508   23.6071 N   0  0  0  0  0  0  0  0  0  0  0  0
    7.0407  -12.3549   24.7650 C   0  0  0  0  0  0  0  0  0  0  0  0
    6.5421  -11.5150   25.7656 C   0  0  0  0  0  0  0  0  0  0  0  0
    5.9737  -12.0375   26.9149 C   0  0  0  0  0  0  0  0  0  0  0  0
    5.9027  -13.3936   27.0663 C   0  0  0  0  0  0  0  0  0  0  0  0
    6.3975  -14.2029   26.0735 C   0  0  0  0  0  0  0  0  0  0  0  0
    6.9692  -13.7132   24.9174 C   0  0  0  0  0  0  0  0  0  0  0  0
    9.8726  -16.0827   24.6002 C   0  0  0  0  0  0  0  0  0  0  0  0
   10.6197  -15.0855   24.6084 O   0  0  0  0  0  0  0  0  0  0  0  0
    9.0598  -13.2910   28.0182 C   0  0  0  0  0  0  0  0  0  0  0  0
    9.7740  -14.3345   27.1804 C   0  0  0  0  0  0  0  0  0  0  0  0
    9.6661  -15.7129   27.7832 C   0  0  2  0  0  0  0  0  0  0  0  0
   10.3990  -15.6185   29.1352 C   0  0  0  0  0  0  0  0  0  0  0  0
   10.4252  -16.7637   26.9727 C   0  0  2  0  0  0  0  0  0  0  0  0
    9.8861  -16.9987   25.6679 N   0  0  0  0  0  0  0  0  0  0  0  0
   10.6613  -17.9702   27.7459 C   0  0  0  0  0  0  0  0  0  0  0  0
   11.6862  -18.1401   28.6606 O   0  0  0  0  0  0  0  0  0  0  0  0
    9.8946  -19.0008   27.6191 O   0  0  0  0  0  0  0  0  0  0  0  0
  2  1  1  6
  2  3  1  0
  3  4  1  0
  4  8  1  0
  4  5  2  0
  5  6  1  0
  7  6  1  0
  8  7  2  0
  9  2  1  0
 10  9  2  0
 11  9  1  0
 12 13  1  1
 12 11  1  0
 13 14  1  0
 14 22  1  0
 14 15  2  0
 15 16  1  0
 17 16  1  0
 17 18  2  0
 19 18  1  0
 20 19  2  0
 21 22  2  0
 21 20  1  0
 22 17  1  0
 23 12  1  0
 24 23  2  0
 26 25  1  0
 27 26  1  0
 27 29  1  0
 27 28  1  1
 29 30  1  6
 30 23  1  0
 31 32  1  0
 31 29  1  0
 33 31  2  0
M  END
$$$$
