HWI.pdb
     RDKit          3D

 33 35  0  0  1  0  0  0  0  0999 V2000
    9.9852  -18.3552   20.6831 N   0  0  0  0  0  0  0  0  0  0  0  0
   10.7819  -17.1586   20.7422 C   0  0  1  0  0  0  0  0  0  0  0  0
   10.6454  -16.3139   19.5056 C   0  0  0  0  0  0  0  0  0  0  0  0
   11.1450  -17.0584   18.3486 C   0  0  0  0  0  0  0  0  0  0  0  0
   12.4471  -17.2409   17.9912 C   0  0  0  0  0  0  0  0  0  0  0  0
   12.4187  -17.9882   16.8564 N   0  0  0  0  0  0  0  0  0  0  0  0
   11.1704  -18.2696   16.5050 C   0  0  0  0  0  0  0  0  0  0  0  0
   10.3875  -17.6975   17.4232 N   0  0  0  0  0  0  0  0  0  0  0  0
   10.3724  -16.3409   21.8862 C   0  0  0  0  0  0  0  0  0  0  0  0
   10.9695  -15.2584   22.1881 O   0  0  0  0  0  0  0  0  0  0  0  0
    9.2707  -16.7578   22.6983 N   0  0  0  0  0  0  0  0  0  0  0  0
    8.9658  -16.0516   23.9169 C   0  0  1  0  0  0  0  0  0  0  0  0
    7.7435  -16.4760   24.6213 C   0  0  0  0  0  0  0  0  0  0  0  0
    6.8008  -15.4579   25.0512 C   0  0  0  0  0  0  0  0  0  0  0  0
    5.5162  -15.5021   25.5446 C   0  0  0  0  0  0  0  0  0  0  0  0
    5.0751  -14.2384   25.8067 N   0  0  0  0  0  0  0  0  0  0  0  0
    6.0576  -13.4054   25.4875 C   0  0  0  0  0  0  0  0  0  0  0  0
    6.1111  -12.0105   25.5686 C   0  0  0  0  0  0  0  0  0  0  0  0
    7.2460  -11.3185   25.1809 C   0  0  0  0  0  0  0  0  0  0  0  0
    8.3245  -12.0153   24.7136 C   0  0  0  0  0  0  0  0  0  0  0  0
    8.2539  -13.3847   24.6409 C   0  0  0  0  0  0  0  0  0  0  0  0
    7.1384  -14.1026   25.0193 C   0  0  0  0  0  0  0  0  0  0  0  0
   10.1742  -15.9576   24.7971 C   0  0  0  0  0  0  0  0  0  0  0  0
   11.0050  -15.0372   24.6731 O   0  0  0  0  0  0  0  0  0  0  0  0
    9.9922  -13.2526   28.3856 C   0  0  0  0  0  0  0  0  0  0  0  0
   10.6193  -14.3035   27.4893 C   0  0  0  0  0  0  0  0  0  0  0  0
   10.2617  -15.7027   27.9244 C   0  0  2  0  0  0  0  0  0  0  0  0
   10.8669  -15.8522   29.3335 C   0  0  0  0  0  0  0  0  0  0  0  0
   10.9406  -16.7705   27.0664 C   0  0  2  0  0  0  0  0  0  0  0  0
   10.3452  -16.9519   25.7776 N   0  0  0  0  0  0  0  0  0  0  0  0
   11.1457  -18.0031   27.8066 C   0  0  0  0  0  0  0  0  0  0  0  0
   10.4565  -19.1840   27.5904 O   0  0  0  0  0  0  0  0  0  0  0  0
   12.0218  -18.0721   28.7520 O   0  0  0  0  0  0  0  0  0  0  0  0
  2  1  1  6
  2  3  1  0
  3  4  1  0
  4  8  1  0
  4  5  2  0
  5  6  1  0
  7  6  1  0
  8  7  2  0
  9  2  1  0
 10  9  2  0
 11  9  1  0
 12 13  1  1
 12 11  1  0
 13 14  1  0
 14 22  1  0
 14 15  2  0
 15 16  1  0
 17 16  1  0
 17 18  2  0
 19 18  1  0
 20 19  2  0
 21 22  2  0
 21 20  1  0
 22 17  1  0
 23 12  1  0
 24 23  2  0
 26 25  1  0
 27 26  1  0
 27 29  1  0
 27 28  1  1
 29 30  1  6
 30 23  1  0
 31 32  1  0
 31 29  1  0
 33 31  2  0
M  END
$$$$
