HWI.pdb
     RDKit          3D

 33 35  0  0  1  0  0  0  0  0999 V2000
    9.9323  -16.8521   18.5746 N   0  0  0  0  0  0  0  0  0  0  0  0
   10.5466  -17.3362   19.7822 C   0  0  1  0  0  0  0  0  0  0  0  0
   12.0354  -17.1258   19.7956 C   0  0  0  0  0  0  0  0  0  0  0  0
   12.6908  -18.2320   19.0961 C   0  0  0  0  0  0  0  0  0  0  0  0
   12.9529  -19.4742   19.5909 C   0  0  0  0  0  0  0  0  0  0  0  0
   13.5709  -20.1503   18.5868 N   0  0  0  0  0  0  0  0  0  0  0  0
   13.6986  -19.3864   17.5092 C   0  0  0  0  0  0  0  0  0  0  0  0
   13.1571  -18.2068   17.8232 N   0  0  0  0  0  0  0  0  0  0  0  0
    9.9887  -16.6375   20.9423 C   0  0  0  0  0  0  0  0  0  0  0  0
   10.0762  -15.3747   21.0738 O   0  0  0  0  0  0  0  0  0  0  0  0
    9.3229  -17.3823   21.9665 N   0  0  0  0  0  0  0  0  0  0  0  0
    8.8629  -16.7161   23.1586 C   0  0  1  0  0  0  0  0  0  0  0  0
    7.5488  -17.1418   23.6707 C   0  0  0  0  0  0  0  0  0  0  0  0
    6.8319  -16.2524   24.5681 C   0  0  0  0  0  0  0  0  0  0  0  0
    5.7103  -16.3990   25.3530 C   0  0  0  0  0  0  0  0  0  0  0  0
    5.4570  -15.2385   26.0231 N   0  0  0  0  0  0  0  0  0  0  0  0
    6.3973  -14.3697   25.6735 C   0  0  0  0  0  0  0  0  0  0  0  0
    6.5878  -13.0449   26.0778 C   0  0  0  0  0  0  0  0  0  0  0  0
    7.6462  -12.2974   25.5898 C   0  0  0  0  0  0  0  0  0  0  0  0
    8.5123  -12.8693   24.7010 C   0  0  0  0  0  0  0  0  0  0  0  0
    8.3095  -14.1714   24.3152 C   0  0  0  0  0  0  0  0  0  0  0  0
    7.2652  -14.9419   24.7831 C   0  0  0  0  0  0  0  0  0  0  0  0
    9.9392  -16.6794   24.1999 C   0  0  0  0  0  0  0  0  0  0  0  0
   10.9962  -17.3269   24.0726 O   0  0  0  0  0  0  0  0  0  0  0  0
   11.0243  -13.1908   29.3336 C   0  0  0  0  0  0  0  0  0  0  0  0
   11.3415  -14.3705   28.4344 C   0  0  0  0  0  0  0  0  0  0  0  0
   10.3299  -14.5235   27.3261 C   0  0  2  0  0  0  0  0  0  0  0  0
    8.9912  -14.7951   28.0389 C   0  0  0  0  0  0  0  0  0  0  0  0
   10.5962  -15.7556   26.4610 C   0  0  2  0  0  0  0  0  0  0  0  0
    9.7169  -15.8844   25.3391 N   0  0  0  0  0  0  0  0  0  0  0  0
   10.7170  -16.9594   27.2644 C   0  0  0  0  0  0  0  0  0  0  0  0
   11.8891  -17.4139   27.8437 O   0  0  0  0  0  0  0  0  0  0  0  0
    9.6922  -17.7095   27.4949 O   0  0  0  0  0  0  0  0  0  0  0  0
  2  1  1  6
  2  3  1  0
  3  4  1  0
  4  8  1  0
  4  5  2  0
  5  6  1  0
  7  6  1  0
  8  7  2  0
  9  2  1  0
 10  9  2  0
 11  9  1  0
 12 13  1  1
 12 11  1  0
 13 14  1  0
 14 22  1  0
 14 15  2  0
 15 16  1  0
 17 16  1  0
 17 18  2  0
 19 18  1  0
 20 19  2  0
 21 22  2  0
 21 20  1  0
 22 17  1  0
 23 12  1  0
 24 23  2  0
 26 25  1  0
 27 26  1  0
 27 29  1  0
 27 28  1  1
 29 30  1  6
 30 23  1  0
 31 32  1  0
 31 29  1  0
 33 31  2  0
M  END
$$$$
