HWI.pdb
     RDKit          3D

 33 35  0  0  1  0  0  0  0  0999 V2000
   11.5476  -17.9297   19.2612 N   0  0  0  0  0  0  0  0  0  0  0  0
   10.8404  -18.4683   20.3924 C   0  0  1  0  0  0  0  0  0  0  0  0
   11.5790  -19.6029   21.0469 C   0  0  0  0  0  0  0  0  0  0  0  0
   11.8966  -20.6209   20.0442 C   0  0  0  0  0  0  0  0  0  0  0  0
   11.0458  -21.1630   19.1285 C   0  0  0  0  0  0  0  0  0  0  0  0
   11.7836  -22.0598   18.4223 N   0  0  0  0  0  0  0  0  0  0  0  0
   13.0361  -22.0920   18.8594 C   0  0  0  0  0  0  0  0  0  0  0  0
   13.1050  -21.2068   19.8569 N   0  0  0  0  0  0  0  0  0  0  0  0
   10.6431  -17.4256   21.4020 C   0  0  0  0  0  0  0  0  0  0  0  0
   11.5674  -16.6092   21.7162 O   0  0  0  0  0  0  0  0  0  0  0  0
    9.3800  -17.3086   22.0637 N   0  0  0  0  0  0  0  0  0  0  0  0
    9.1715  -16.2693   23.0399 C   0  0  1  0  0  0  0  0  0  0  0  0
    7.9211  -15.5013   22.9092 C   0  0  0  0  0  0  0  0  0  0  0  0
    7.8512  -14.1806   23.5102 C   0  0  0  0  0  0  0  0  0  0  0  0
    8.3499  -12.9481   23.1526 C   0  0  0  0  0  0  0  0  0  0  0  0
    7.9838  -12.0130   24.0756 N   0  0  0  0  0  0  0  0  0  0  0  0
    7.2665  -12.6357   25.0023 C   0  0  0  0  0  0  0  0  0  0  0  0
    6.6601  -12.1291   26.1559 C   0  0  0  0  0  0  0  0  0  0  0  0
    5.9446  -12.9561   27.0051 C   0  0  0  0  0  0  0  0  0  0  0  0
    5.8342  -14.2846   26.7051 C   0  0  0  0  0  0  0  0  0  0  0  0
    6.4364  -14.7644   25.5682 C   0  0  0  0  0  0  0  0  0  0  0  0
    7.1555  -13.9665   24.7025 C   0  0  0  0  0  0  0  0  0  0  0  0
    9.4325  -16.7763   24.4250 C   0  0  0  0  0  0  0  0  0  0  0  0
    9.1978  -17.9574   24.7454 O   0  0  0  0  0  0  0  0  0  0  0  0
   10.2761  -12.5231   28.1255 C   0  0  0  0  0  0  0  0  0  0  0  0
   10.6676  -13.7149   27.2726 C   0  0  0  0  0  0  0  0  0  0  0  0
    9.9313  -14.9667   27.6798 C   0  0  2  0  0  0  0  0  0  0  0  0
   10.5334  -15.3616   29.0420 C   0  0  0  0  0  0  0  0  0  0  0  0
   10.2180  -16.1411   26.7439 C   0  0  2  0  0  0  0  0  0  0  0  0
    9.9546  -15.8680   25.3639 N   0  0  0  0  0  0  0  0  0  0  0  0
    9.6233  -17.3732   27.2313 C   0  0  0  0  0  0  0  0  0  0  0  0
   10.2685  -18.3088   28.0214 O   0  0  0  0  0  0  0  0  0  0  0  0
    8.4035  -17.6814   26.9427 O   0  0  0  0  0  0  0  0  0  0  0  0
  2  1  1  6
  2  3  1  0
  3  4  1  0
  4  8  1  0
  4  5  2  0
  5  6  1  0
  7  6  1  0
  8  7  2  0
  9  2  1  0
 10  9  2  0
 11  9  1  0
 12 13  1  1
 12 11  1  0
 13 14  1  0
 14 22  1  0
 14 15  2  0
 15 16  1  0
 17 16  1  0
 17 18  2  0
 19 18  1  0
 20 19  2  0
 21 22  2  0
 21 20  1  0
 22 17  1  0
 23 12  1  0
 24 23  2  0
 26 25  1  0
 27 26  1  0
 27 29  1  0
 27 28  1  1
 29 30  1  6
 30 23  1  0
 31 32  1  0
 31 29  1  0
 33 31  2  0
M  END
$$$$
