HWI.pdb
     RDKit          3D

 33 35  0  0  1  0  0  0  0  0999 V2000
   11.3725  -16.5686   19.2547 N   0  0  0  0  0  0  0  0  0  0  0  0
   11.5181  -17.3783   20.4350 C   0  0  1  0  0  0  0  0  0  0  0  0
   12.9542  -17.7104   20.7324 C   0  0  0  0  0  0  0  0  0  0  0  0
   13.4672  -18.6196   19.7064 C   0  0  0  0  0  0  0  0  0  0  0  0
   14.1690  -18.2816   18.5885 C   0  0  0  0  0  0  0  0  0  0  0  0
   14.4233  -19.4503   17.9430 N   0  0  0  0  0  0  0  0  0  0  0  0
   13.9141  -20.4797   18.6078 C   0  0  0  0  0  0  0  0  0  0  0  0
   13.3262  -19.9681   19.6922 N   0  0  0  0  0  0  0  0  0  0  0  0
   10.9759  -16.6708   21.5972 C   0  0  0  0  0  0  0  0  0  0  0  0
   11.5761  -15.6788   22.1218 O   0  0  0  0  0  0  0  0  0  0  0  0
    9.7361  -17.0953   22.1714 N   0  0  0  0  0  0  0  0  0  0  0  0
    9.1661  -16.3657   23.2757 C   0  0  1  0  0  0  0  0  0  0  0  0
    7.7001  -16.2201   23.2663 C   0  0  0  0  0  0  0  0  0  0  0  0
    7.0624  -15.5430   24.3821 C   0  0  0  0  0  0  0  0  0  0  0  0
    6.4281  -15.9836   25.5219 C   0  0  0  0  0  0  0  0  0  0  0  0
    6.0070  -14.9175   26.2611 N   0  0  0  0  0  0  0  0  0  0  0  0
    6.3652  -13.8199   25.6069 C   0  0  0  0  0  0  0  0  0  0  0  0
    6.1706  -12.4756   25.9388 C   0  0  0  0  0  0  0  0  0  0  0  0
    6.6277  -11.4650   25.1100 C   0  0  0  0  0  0  0  0  0  0  0  0
    7.2770  -11.7937   23.9535 C   0  0  0  0  0  0  0  0  0  0  0  0
    7.4589  -13.1190   23.6438 C   0  0  0  0  0  0  0  0  0  0  0  0
    7.0156  -14.1483   24.4482 C   0  0  0  0  0  0  0  0  0  0  0  0
    9.7214  -16.8498   24.5800 C   0  0  0  0  0  0  0  0  0  0  0  0
   10.1110  -18.0237   24.7308 O   0  0  0  0  0  0  0  0  0  0  0  0
   10.1062  -12.6426   28.4885 C   0  0  0  0  0  0  0  0  0  0  0  0
   10.5170  -13.7538   27.5411 C   0  0  0  0  0  0  0  0  0  0  0  0
    9.9767  -15.0937   27.9746 C   0  0  2  0  0  0  0  0  0  0  0  0
   10.7779  -15.4599   29.2387 C   0  0  0  0  0  0  0  0  0  0  0  0
   10.2758  -16.1977   26.9602 C   0  0  2  0  0  0  0  0  0  0  0  0
    9.7886  -15.9290   25.6416 N   0  0  0  0  0  0  0  0  0  0  0  0
    9.9167  -17.5085   27.4722 C   0  0  0  0  0  0  0  0  0  0  0  0
   10.7983  -18.4033   28.0537 O   0  0  0  0  0  0  0  0  0  0  0  0
    8.6999  -17.9345   27.4117 O   0  0  0  0  0  0  0  0  0  0  0  0
  2  1  1  6
  2  3  1  0
  3  4  1  0
  4  8  1  0
  4  5  2  0
  5  6  1  0
  7  6  1  0
  8  7  2  0
  9  2  1  0
 10  9  2  0
 11  9  1  0
 12 13  1  1
 12 11  1  0
 13 14  1  0
 14 22  1  0
 14 15  2  0
 15 16  1  0
 17 16  1  0
 17 18  2  0
 19 18  1  0
 20 19  2  0
 21 22  2  0
 21 20  1  0
 22 17  1  0
 23 12  1  0
 24 23  2  0
 26 25  1  0
 27 26  1  0
 27 29  1  0
 27 28  1  1
 29 30  1  6
 30 23  1  0
 31 32  1  0
 31 29  1  0
 33 31  2  0
M  END
$$$$
