HWI.pdb
     RDKit          3D

 33 35  0  0  1  0  0  0  0  0999 V2000
   11.9175  -16.5310   19.1853 N   0  0  0  0  0  0  0  0  0  0  0  0
   11.3751  -17.4054   20.1908 C   0  0  1  0  0  0  0  0  0  0  0  0
   12.4083  -18.3360   20.7634 C   0  0  0  0  0  0  0  0  0  0  0  0
   12.5227  -19.5211   19.9118 C   0  0  0  0  0  0  0  0  0  0  0  0
   11.5023  -20.2341   19.3579 C   0  0  0  0  0  0  0  0  0  0  0  0
   12.0901  -21.2401   18.6583 N   0  0  0  0  0  0  0  0  0  0  0  0
   13.4119  -21.1772   18.7571 C   0  0  0  0  0  0  0  0  0  0  0  0
   13.6773  -20.1197   19.5282 N   0  0  0  0  0  0  0  0  0  0  0  0
   10.8262  -16.6169   21.2964 C   0  0  0  0  0  0  0  0  0  0  0  0
   11.3952  -15.5589   21.7163 O   0  0  0  0  0  0  0  0  0  0  0  0
    9.6155  -17.0354   21.9337 N   0  0  0  0  0  0  0  0  0  0  0  0
    9.0834  -16.2778   23.0380 C   0  0  1  0  0  0  0  0  0  0  0  0
    7.6376  -15.9985   22.9932 C   0  0  0  0  0  0  0  0  0  0  0  0
    7.0029  -15.4327   24.1710 C   0  0  0  0  0  0  0  0  0  0  0  0
    6.2920  -15.9746   25.2182 C   0  0  0  0  0  0  0  0  0  0  0  0
    5.9163  -14.9899   26.0839 N   0  0  0  0  0  0  0  0  0  0  0  0
    6.3779  -13.8439   25.5994 C   0  0  0  0  0  0  0  0  0  0  0  0
    6.2645  -12.5462   26.1076 C   0  0  0  0  0  0  0  0  0  0  0  0
    6.8259  -11.4699   25.4415 C   0  0  0  0  0  0  0  0  0  0  0  0
    7.4983  -11.6869   24.2719 C   0  0  0  0  0  0  0  0  0  0  0  0
    7.5995  -12.9679   23.7880 C   0  0  0  0  0  0  0  0  0  0  0  0
    7.0516  -14.0604   24.4278 C   0  0  0  0  0  0  0  0  0  0  0  0
    9.5554  -16.8355   24.3458 C   0  0  0  0  0  0  0  0  0  0  0  0
    9.9998  -17.9957   24.4411 O   0  0  0  0  0  0  0  0  0  0  0  0
    9.1523  -12.9550   28.5474 C   0  0  0  0  0  0  0  0  0  0  0  0
    9.7953  -13.8867   27.5376 C   0  0  0  0  0  0  0  0  0  0  0  0
    9.5470  -15.3369   27.8696 C   0  0  2  0  0  0  0  0  0  0  0  0
   10.4413  -15.6283   29.0900 C   0  0  0  0  0  0  0  0  0  0  0  0
   10.0319  -16.2778   26.7665 C   0  0  2  0  0  0  0  0  0  0  0  0
    9.4792  -16.0008   25.4757 N   0  0  0  0  0  0  0  0  0  0  0  0
    9.9370  -17.6701   27.1687 C   0  0  0  0  0  0  0  0  0  0  0  0
   10.9598  -18.4016   27.7474 O   0  0  0  0  0  0  0  0  0  0  0  0
    8.8443  -18.3365   27.0020 O   0  0  0  0  0  0  0  0  0  0  0  0
  2  1  1  6
  2  3  1  0
  3  4  1  0
  4  8  1  0
  4  5  2  0
  5  6  1  0
  7  6  1  0
  8  7  2  0
  9  2  1  0
 10  9  2  0
 11  9  1  0
 12 13  1  1
 12 11  1  0
 13 14  1  0
 14 22  1  0
 14 15  2  0
 15 16  1  0
 17 16  1  0
 17 18  2  0
 19 18  1  0
 20 19  2  0
 21 22  2  0
 21 20  1  0
 22 17  1  0
 23 12  1  0
 24 23  2  0
 26 25  1  0
 27 26  1  0
 27 29  1  0
 27 28  1  1
 29 30  1  6
 30 23  1  0
 31 32  1  0
 31 29  1  0
 33 31  2  0
M  END
$$$$
