HWI.pdb
     RDKit          3D

 33 35  0  0  1  0  0  0  0  0999 V2000
   11.2186  -18.6711   20.6020 N   0  0  0  0  0  0  0  0  0  0  0  0
   11.8776  -17.4050   20.7824 C   0  0  1  0  0  0  0  0  0  0  0  0
   11.8788  -16.5725   19.5301 C   0  0  0  0  0  0  0  0  0  0  0  0
   12.9458  -17.0321   18.6398 C   0  0  0  0  0  0  0  0  0  0  0  0
   13.8265  -18.0457   18.8709 C   0  0  0  0  0  0  0  0  0  0  0  0
   14.6251  -18.1005   17.7726 N   0  0  0  0  0  0  0  0  0  0  0  0
   14.2776  -17.1754   16.8870 C   0  0  0  0  0  0  0  0  0  0  0  0
   13.2447  -16.5187   17.4209 N   0  0  0  0  0  0  0  0  0  0  0  0
   11.2018  -16.6335   21.8281 C   0  0  0  0  0  0  0  0  0  0  0  0
   11.4660  -15.4062   22.0364 O   0  0  0  0  0  0  0  0  0  0  0  0
   10.2132  -17.2640   22.6481 N   0  0  0  0  0  0  0  0  0  0  0  0
    9.5050  -16.4969   23.6413 C   0  0  1  0  0  0  0  0  0  0  0  0
    8.0397  -16.4481   23.4966 C   0  0  0  0  0  0  0  0  0  0  0  0
    7.4800  -15.8488   22.2976 C   0  0  0  0  0  0  0  0  0  0  0  0
    6.7220  -16.3381   21.2576 C   0  0  0  0  0  0  0  0  0  0  0  0
    6.4476  -15.3380   20.3717 N   0  0  0  0  0  0  0  0  0  0  0  0
    7.0182  -14.2338   20.8368 C   0  0  0  0  0  0  0  0  0  0  0  0
    7.0338  -12.9410   20.3042 C   0  0  0  0  0  0  0  0  0  0  0  0
    7.6953  -11.9123   20.9532 C   0  0  0  0  0  0  0  0  0  0  0  0
    8.3397  -12.1718   22.1299 C   0  0  0  0  0  0  0  0  0  0  0  0
    8.3139  -13.4473   22.6378 C   0  0  0  0  0  0  0  0  0  0  0  0
    7.6640  -14.4930   22.0154 C   0  0  0  0  0  0  0  0  0  0  0  0
    9.9690  -16.8505   25.0211 C   0  0  0  0  0  0  0  0  0  0  0  0
   10.5702  -17.9161   25.2571 O   0  0  0  0  0  0  0  0  0  0  0  0
    9.0128  -12.5296   28.5617 C   0  0  0  0  0  0  0  0  0  0  0  0
    9.6485  -13.6046   27.7007 C   0  0  0  0  0  0  0  0  0  0  0  0
    9.5546  -14.9679   28.3390 C   0  0  2  0  0  0  0  0  0  0  0  0
   10.5229  -14.9182   29.5366 C   0  0  0  0  0  0  0  0  0  0  0  0
   10.0812  -16.0756   27.4262 C   0  0  2  0  0  0  0  0  0  0  0  0
    9.7006  -15.9336   26.0538 N   0  0  0  0  0  0  0  0  0  0  0  0
    9.8284  -17.3937   27.9812 C   0  0  0  0  0  0  0  0  0  0  0  0
   10.7185  -18.1115   28.7612 O   0  0  0  0  0  0  0  0  0  0  0  0
    8.7087  -17.9998   27.7693 O   0  0  0  0  0  0  0  0  0  0  0  0
  2  1  1  6
  2  3  1  0
  3  4  1  0
  4  8  1  0
  4  5  2  0
  5  6  1  0
  7  6  1  0
  8  7  2  0
  9  2  1  0
 10  9  2  0
 11  9  1  0
 12 13  1  1
 12 11  1  0
 13 14  1  0
 14 22  1  0
 14 15  2  0
 15 16  1  0
 17 16  1  0
 17 18  2  0
 19 18  1  0
 20 19  2  0
 21 22  2  0
 21 20  1  0
 22 17  1  0
 23 12  1  0
 24 23  2  0
 26 25  1  0
 27 26  1  0
 27 29  1  0
 27 28  1  1
 29 30  1  6
 30 23  1  0
 31 32  1  0
 31 29  1  0
 33 31  2  0
M  END
$$$$
