HWI.pdb
     RDKit          3D

 33 35  0  0  1  0  0  0  0  0999 V2000
   10.7430  -16.4280   18.6552 N   0  0  0  0  0  0  0  0  0  0  0  0
   11.1080  -17.1212   19.8619 C   0  0  1  0  0  0  0  0  0  0  0  0
   12.5973  -17.2533   20.0225 C   0  0  0  0  0  0  0  0  0  0  0  0
   13.0990  -18.2724   19.0993 C   0  0  0  0  0  0  0  0  0  0  0  0
   12.3614  -19.0544   18.2621 C   0  0  0  0  0  0  0  0  0  0  0  0
   13.2546  -19.8441   17.6096 N   0  0  0  0  0  0  0  0  0  0  0  0
   14.4944  -19.5845   18.0049 C   0  0  0  0  0  0  0  0  0  0  0  0
   14.3980  -18.6178   18.9211 N   0  0  0  0  0  0  0  0  0  0  0  0
   10.5980  -16.3973   21.0286 C   0  0  0  0  0  0  0  0  0  0  0  0
   10.8557  -15.1664   21.2228 O   0  0  0  0  0  0  0  0  0  0  0  0
    9.7848  -17.0803   21.9875 N   0  0  0  0  0  0  0  0  0  0  0  0
    9.2321  -16.3604   23.1067 C   0  0  1  0  0  0  0  0  0  0  0  0
    7.7624  -16.3540   23.2089 C   0  0  0  0  0  0  0  0  0  0  0  0
    7.1499  -15.7357   24.3720 C   0  0  0  0  0  0  0  0  0  0  0  0
    6.6169  -16.2325   25.5402 C   0  0  0  0  0  0  0  0  0  0  0  0
    6.1713  -15.2067   26.3209 N   0  0  0  0  0  0  0  0  0  0  0  0
    6.4149  -14.0792   25.6648 C   0  0  0  0  0  0  0  0  0  0  0  0
    6.1515  -12.7555   26.0301 C   0  0  0  0  0  0  0  0  0  0  0  0
    6.4889  -11.7059   25.1925 C   0  0  0  0  0  0  0  0  0  0  0  0
    7.0872  -11.9754   23.9939 C   0  0  0  0  0  0  0  0  0  0  0  0
    7.3381  -13.2813   23.6518 C   0  0  0  0  0  0  0  0  0  0  0  0
    7.0142  -14.3484   24.4640 C   0  0  0  0  0  0  0  0  0  0  0  0
    9.9291  -16.7328   24.3792 C   0  0  0  0  0  0  0  0  0  0  0  0
   10.4046  -17.8709   24.5568 O   0  0  0  0  0  0  0  0  0  0  0  0
   11.1747  -13.6330   29.7521 C   0  0  0  0  0  0  0  0  0  0  0  0
   11.2223  -14.8817   28.8923 C   0  0  0  0  0  0  0  0  0  0  0  0
   10.5295  -14.6815   27.5675 C   0  0  2  0  0  0  0  0  0  0  0  0
    9.0398  -14.5001   27.9167 C   0  0  0  0  0  0  0  0  0  0  0  0
   10.5988  -15.9250   26.6807 C   0  0  2  0  0  0  0  0  0  0  0  0
   10.0300  -15.7485   25.3793 N   0  0  0  0  0  0  0  0  0  0  0  0
   10.1311  -17.1092   27.3795 C   0  0  0  0  0  0  0  0  0  0  0  0
    8.9069  -17.7216   27.1740 O   0  0  0  0  0  0  0  0  0  0  0  0
   10.8627  -17.6850   28.2735 O   0  0  0  0  0  0  0  0  0  0  0  0
  2  1  1  6
  2  3  1  0
  3  4  1  0
  4  8  1  0
  4  5  2  0
  5  6  1  0
  7  6  1  0
  8  7  2  0
  9  2  1  0
 10  9  2  0
 11  9  1  0
 12 13  1  1
 12 11  1  0
 13 14  1  0
 14 22  1  0
 14 15  2  0
 15 16  1  0
 17 16  1  0
 17 18  2  0
 19 18  1  0
 20 19  2  0
 21 22  2  0
 21 20  1  0
 22 17  1  0
 23 12  1  0
 24 23  2  0
 26 25  1  0
 27 26  1  0
 27 29  1  0
 27 28  1  1
 29 30  1  6
 30 23  1  0
 31 32  1  0
 31 29  1  0
 33 31  2  0
M  END
$$$$
