HWI.pdb
     RDKit          3D

 33 35  0  0  1  0  0  0  0  0999 V2000
   10.7905  -19.2326   19.9058 N   0  0  0  0  0  0  0  0  0  0  0  0
   10.4532  -19.4151   21.2925 C   0  0  1  0  0  0  0  0  0  0  0  0
   11.5187  -20.1563   22.0519 C   0  0  0  0  0  0  0  0  0  0  0  0
   11.5011  -21.5678   21.6648 C   0  0  0  0  0  0  0  0  0  0  0  0
   10.4418  -22.2698   21.1734 C   0  0  0  0  0  0  0  0  0  0  0  0
   10.8986  -23.5329   20.9654 N   0  0  0  0  0  0  0  0  0  0  0  0
   12.1776  -23.6363   21.3037 C   0  0  0  0  0  0  0  0  0  0  0  0
   12.5475  -22.4273   21.7338 N   0  0  0  0  0  0  0  0  0  0  0  0
   10.2713  -18.1133   21.9388 C   0  0  0  0  0  0  0  0  0  0  0  0
   11.1159  -17.1710   21.8044 O   0  0  0  0  0  0  0  0  0  0  0  0
    9.1153  -17.8786   22.7485 N   0  0  0  0  0  0  0  0  0  0  0  0
    8.9640  -16.6247   23.4423 C   0  0  1  0  0  0  0  0  0  0  0  0
    7.7538  -15.8492   23.1193 C   0  0  0  0  0  0  0  0  0  0  0  0
    7.7218  -14.4377   23.4611 C   0  0  0  0  0  0  0  0  0  0  0  0
    8.2930  -13.3142   22.9069 C   0  0  0  0  0  0  0  0  0  0  0  0
    7.9335  -12.2094   23.6214 N   0  0  0  0  0  0  0  0  0  0  0  0
    7.1494  -12.6192   24.6104 C   0  0  0  0  0  0  0  0  0  0  0  0
    6.5201  -11.8825   25.6186 C   0  0  0  0  0  0  0  0  0  0  0  0
    5.7313  -12.5075   26.5695 C   0  0  0  0  0  0  0  0  0  0  0  0
    5.5705  -13.8634   26.5155 C   0  0  0  0  0  0  0  0  0  0  0  0
    6.1961  -14.5705   25.5185 C   0  0  0  0  0  0  0  0  0  0  0  0
    6.9879  -13.9773   24.5571 C   0  0  0  0  0  0  0  0  0  0  0  0
    9.2046  -16.7939   24.9111 C   0  0  0  0  0  0  0  0  0  0  0  0
    8.4852  -17.5313   25.6122 O   0  0  0  0  0  0  0  0  0  0  0  0
   10.0364  -12.4042   27.8249 C   0  0  0  0  0  0  0  0  0  0  0  0
   10.6028  -13.5900   27.0673 C   0  0  0  0  0  0  0  0  0  0  0  0
   10.1636  -14.9035   27.6646 C   0  0  2  0  0  0  0  0  0  0  0  0
   10.8812  -14.9858   29.0256 C   0  0  0  0  0  0  0  0  0  0  0  0
   10.6619  -16.1043   26.8601 C   0  0  2  0  0  0  0  0  0  0  0  0
   10.2780  -16.0856   25.4815 N   0  0  0  0  0  0  0  0  0  0  0  0
   10.3836  -17.3578   27.5390 C   0  0  0  0  0  0  0  0  0  0  0  0
   11.3345  -18.1641   28.1402 O   0  0  0  0  0  0  0  0  0  0  0  0
    9.1789  -17.8133   27.6245 O   0  0  0  0  0  0  0  0  0  0  0  0
  2  1  1  6
  2  3  1  0
  3  4  1  0
  4  8  1  0
  4  5  2  0
  5  6  1  0
  7  6  1  0
  8  7  2  0
  9  2  1  0
 10  9  2  0
 11  9  1  0
 12 13  1  1
 12 11  1  0
 13 14  1  0
 14 22  1  0
 14 15  2  0
 15 16  1  0
 17 16  1  0
 17 18  2  0
 19 18  1  0
 20 19  2  0
 21 22  2  0
 21 20  1  0
 22 17  1  0
 23 12  1  0
 24 23  2  0
 26 25  1  0
 27 26  1  0
 27 29  1  0
 27 28  1  1
 29 30  1  6
 30 23  1  0
 31 32  1  0
 31 29  1  0
 33 31  2  0
M  END
$$$$
