HWI.pdb
     RDKit          3D

 33 35  0  0  1  0  0  0  0  0999 V2000
   10.7874  -18.4510   20.1204 N   0  0  0  0  0  0  0  0  0  0  0  0
   11.1963  -17.0716   20.1161 C   0  0  1  0  0  0  0  0  0  0  0  0
   10.8963  -16.3857   18.8120 C   0  0  0  0  0  0  0  0  0  0  0  0
   11.6181  -17.0574   17.7302 C   0  0  0  0  0  0  0  0  0  0  0  0
   12.9377  -16.9236   17.4185 C   0  0  0  0  0  0  0  0  0  0  0  0
   13.1494  -17.7324   16.3469 N   0  0  0  0  0  0  0  0  0  0  0  0
   12.0302  -18.3500   15.9906 C   0  0  0  0  0  0  0  0  0  0  0  0
   11.0888  -17.9344   16.8418 N   0  0  0  0  0  0  0  0  0  0  0  0
   10.4972  -16.3391   21.1744 C   0  0  0  0  0  0  0  0  0  0  0  0
   10.7818  -15.1318   21.4586 O   0  0  0  0  0  0  0  0  0  0  0  0
    9.4614  -16.9861   21.9199 N   0  0  0  0  0  0  0  0  0  0  0  0
    8.8998  -16.3431   23.0808 C   0  0  1  0  0  0  0  0  0  0  0  0
    7.4438  -16.4827   23.2560 C   0  0  0  0  0  0  0  0  0  0  0  0
    6.8060  -15.7792   24.3553 C   0  0  0  0  0  0  0  0  0  0  0  0
    6.0662  -16.1888   25.4418 C   0  0  0  0  0  0  0  0  0  0  0  0
    5.7026  -15.1084   26.1906 N   0  0  0  0  0  0  0  0  0  0  0  0
    6.2001  -14.0321   25.5946 C   0  0  0  0  0  0  0  0  0  0  0  0
    6.1119  -12.6851   25.9592 C   0  0  0  0  0  0  0  0  0  0  0  0
    6.7102  -11.7000   25.1919 C   0  0  0  0  0  0  0  0  0  0  0  0
    7.3943  -12.0568   24.0641 C   0  0  0  0  0  0  0  0  0  0  0  0
    7.4702  -13.3844   23.7216 C   0  0  0  0  0  0  0  0  0  0  0  0
    6.8855  -14.3888   24.4648 C   0  0  0  0  0  0  0  0  0  0  0  0
    9.6946  -16.6669   24.3085 C   0  0  0  0  0  0  0  0  0  0  0  0
   10.5251  -17.5957   24.3252 O   0  0  0  0  0  0  0  0  0  0  0  0
    9.4452  -12.5444   28.2977 C   0  0  0  0  0  0  0  0  0  0  0  0
   10.0012  -13.5576   27.3152 C   0  0  0  0  0  0  0  0  0  0  0  0
    9.7325  -14.9755   27.7539 C   0  0  2  0  0  0  0  0  0  0  0  0
   10.6595  -15.2043   28.9631 C   0  0  0  0  0  0  0  0  0  0  0  0
   10.1606  -16.0007   26.7037 C   0  0  2  0  0  0  0  0  0  0  0  0
    9.4710  -15.8830   25.4552 N   0  0  0  0  0  0  0  0  0  0  0  0
   10.1838  -17.3475   27.2468 C   0  0  0  0  0  0  0  0  0  0  0  0
   11.3243  -18.0269   27.6386 O   0  0  0  0  0  0  0  0  0  0  0  0
    9.0928  -18.0196   27.4022 O   0  0  0  0  0  0  0  0  0  0  0  0
  2  1  1  6
  2  3  1  0
  3  4  1  0
  4  8  1  0
  4  5  2  0
  5  6  1  0
  7  6  1  0
  8  7  2  0
  9  2  1  0
 10  9  2  0
 11  9  1  0
 12 13  1  1
 12 11  1  0
 13 14  1  0
 14 22  1  0
 14 15  2  0
 15 16  1  0
 17 16  1  0
 17 18  2  0
 19 18  1  0
 20 19  2  0
 21 22  2  0
 21 20  1  0
 22 17  1  0
 23 12  1  0
 24 23  2  0
 26 25  1  0
 27 26  1  0
 27 29  1  0
 27 28  1  1
 29 30  1  6
 30 23  1  0
 31 32  1  0
 31 29  1  0
 33 31  2  0
M  END
$$$$
