HWI.pdb
     RDKit          3D

 33 35  0  0  1  0  0  0  0  0999 V2000
    8.6800  -16.8962   20.3223 N   0  0  0  0  0  0  0  0  0  0  0  0
    9.9344  -17.0147   21.0169 C   0  0  1  0  0  0  0  0  0  0  0  0
   11.0909  -16.4907   20.2111 C   0  0  0  0  0  0  0  0  0  0  0  0
   11.2234  -17.2739   18.9816 C   0  0  0  0  0  0  0  0  0  0  0  0
   10.4926  -18.3665   18.6230 C   0  0  0  0  0  0  0  0  0  0  0  0
   10.9726  -18.7521   17.4113 N   0  0  0  0  0  0  0  0  0  0  0  0
   11.9551  -17.9533   17.0145 C   0  0  0  0  0  0  0  0  0  0  0  0
   12.1089  -17.0444   17.9807 N   0  0  0  0  0  0  0  0  0  0  0  0
    9.8864  -16.2571   22.2695 C   0  0  0  0  0  0  0  0  0  0  0  0
   10.4174  -15.1060   22.3809 O   0  0  0  0  0  0  0  0  0  0  0  0
    9.2270  -16.8140   23.4106 N   0  0  0  0  0  0  0  0  0  0  0  0
    9.2757  -16.1281   24.6770 C   0  0  1  0  0  0  0  0  0  0  0  0
    8.1081  -16.3113   25.5565 C   0  0  0  0  0  0  0  0  0  0  0  0
    6.9362  -15.4816   25.3367 C   0  0  0  0  0  0  0  0  0  0  0  0
    5.6415  -15.7510   24.9534 C   0  0  0  0  0  0  0  0  0  0  0  0
    4.9209  -14.5941   24.9047 N   0  0  0  0  0  0  0  0  0  0  0  0
    5.7383  -13.6073   25.2498 C   0  0  0  0  0  0  0  0  0  0  0  0
    5.4911  -12.2353   25.3566 C   0  0  0  0  0  0  0  0  0  0  0  0
    6.4934  -11.3595   25.7383 C   0  0  0  0  0  0  0  0  0  0  0  0
    7.7387  -11.8504   26.0126 C   0  0  0  0  0  0  0  0  0  0  0  0
    7.9631  -13.2005   25.9024 C   0  0  0  0  0  0  0  0  0  0  0  0
    6.9860  -14.0982   25.5248 C   0  0  0  0  0  0  0  0  0  0  0  0
   10.5913  -16.3532   25.3569 C   0  0  0  0  0  0  0  0  0  0  0  0
   11.5836  -15.6387   25.1167 O   0  0  0  0  0  0  0  0  0  0  0  0
   10.0623  -13.9579   28.9820 C   0  0  0  0  0  0  0  0  0  0  0  0
   10.7664  -14.9308   28.0554 C   0  0  0  0  0  0  0  0  0  0  0  0
   10.6444  -16.3557   28.5347 C   0  0  2  0  0  0  0  0  0  0  0  0
   11.4812  -16.4178   29.8269 C   0  0  0  0  0  0  0  0  0  0  0  0
   11.2933  -17.3511   27.5726 C   0  0  2  0  0  0  0  0  0  0  0  0
   10.6738  -17.4084   26.2837 N   0  0  0  0  0  0  0  0  0  0  0  0
   11.4927  -18.6477   28.1958 C   0  0  0  0  0  0  0  0  0  0  0  0
   12.6935  -19.1060   28.7098 O   0  0  0  0  0  0  0  0  0  0  0  0
   10.5180  -19.4858   28.3115 O   0  0  0  0  0  0  0  0  0  0  0  0
  2  1  1  6
  2  3  1  0
  3  4  1  0
  4  8  1  0
  4  5  2  0
  5  6  1  0
  7  6  1  0
  8  7  2  0
  9  2  1  0
 10  9  2  0
 11  9  1  0
 12 13  1  1
 12 11  1  0
 13 14  1  0
 14 22  1  0
 14 15  2  0
 15 16  1  0
 17 16  1  0
 17 18  2  0
 19 18  1  0
 20 19  2  0
 21 22  2  0
 21 20  1  0
 22 17  1  0
 23 12  1  0
 24 23  2  0
 26 25  1  0
 27 26  1  0
 27 29  1  0
 27 28  1  1
 29 30  1  6
 30 23  1  0
 31 32  1  0
 31 29  1  0
 33 31  2  0
M  END
$$$$
