HWI.pdb
     RDKit          3D

 33 35  0  0  1  0  0  0  0  0999 V2000
    9.5453  -16.2091   19.4228 N   0  0  0  0  0  0  0  0  0  0  0  0
   10.1368  -17.0204   20.4533 C   0  0  1  0  0  0  0  0  0  0  0  0
   11.6248  -17.1638   20.2908 C   0  0  0  0  0  0  0  0  0  0  0  0
   11.9158  -17.8098   19.0100 C   0  0  0  0  0  0  0  0  0  0  0  0
   12.6708  -17.3092   17.9923 C   0  0  0  0  0  0  0  0  0  0  0  0
   12.6529  -18.2557   17.0172 N   0  0  0  0  0  0  0  0  0  0  0  0
   11.9280  -19.3039   17.3870 C   0  0  0  0  0  0  0  0  0  0  0  0
   11.4750  -19.0290   18.6128 N   0  0  0  0  0  0  0  0  0  0  0  0
    9.8890  -16.4206   21.7663 C   0  0  0  0  0  0  0  0  0  0  0  0
   10.2460  -15.2304   22.0410 O   0  0  0  0  0  0  0  0  0  0  0  0
    9.2274  -17.1823   22.7808 N   0  0  0  0  0  0  0  0  0  0  0  0
    9.0449  -16.6245   24.0969 C   0  0  1  0  0  0  0  0  0  0  0  0
    7.7825  -16.9671   24.7747 C   0  0  0  0  0  0  0  0  0  0  0  0
    6.8005  -15.9176   24.9855 C   0  0  0  0  0  0  0  0  0  0  0  0
    5.4389  -15.9196   25.1898 C   0  0  0  0  0  0  0  0  0  0  0  0
    4.9901  -14.6409   25.3440 N   0  0  0  0  0  0  0  0  0  0  0  0
    6.0431  -13.8399   25.2404 C   0  0  0  0  0  0  0  0  0  0  0  0
    6.1200  -12.4463   25.3240 C   0  0  0  0  0  0  0  0  0  0  0  0
    7.3323  -11.7913   25.1873 C   0  0  0  0  0  0  0  0  0  0  0  0
    8.4647  -12.5239   24.9677 C   0  0  0  0  0  0  0  0  0  0  0  0
    8.3700  -13.8914   24.8885 C   0  0  0  0  0  0  0  0  0  0  0  0
    7.1778  -14.5730   25.0204 C   0  0  0  0  0  0  0  0  0  0  0  0
   10.2650  -16.8337   24.9404 C   0  0  0  0  0  0  0  0  0  0  0  0
   11.0596  -17.7684   24.7225 O   0  0  0  0  0  0  0  0  0  0  0  0
   10.2750  -12.9393   29.1216 C   0  0  0  0  0  0  0  0  0  0  0  0
   10.7773  -13.8641   28.0291 C   0  0  0  0  0  0  0  0  0  0  0  0
   10.6195  -15.3169   28.4025 C   0  0  2  0  0  0  0  0  0  0  0  0
   11.6263  -15.5494   29.5455 C   0  0  0  0  0  0  0  0  0  0  0  0
   11.0475  -16.2573   27.2756 C   0  0  2  0  0  0  0  0  0  0  0  0
   10.4877  -15.9339   25.9987 N   0  0  0  0  0  0  0  0  0  0  0  0
   10.8997  -17.6514   27.6550 C   0  0  0  0  0  0  0  0  0  0  0  0
   11.9460  -18.5177   27.9212 O   0  0  0  0  0  0  0  0  0  0  0  0
    9.7315  -18.1879   27.7707 O   0  0  0  0  0  0  0  0  0  0  0  0
  2  1  1  6
  2  3  1  0
  3  4  1  0
  4  8  1  0
  4  5  2  0
  5  6  1  0
  7  6  1  0
  8  7  2  0
  9  2  1  0
 10  9  2  0
 11  9  1  0
 12 13  1  1
 12 11  1  0
 13 14  1  0
 14 22  1  0
 14 15  2  0
 15 16  1  0
 17 16  1  0
 17 18  2  0
 19 18  1  0
 20 19  2  0
 21 22  2  0
 21 20  1  0
 22 17  1  0
 23 12  1  0
 24 23  2  0
 26 25  1  0
 27 26  1  0
 27 29  1  0
 27 28  1  1
 29 30  1  6
 30 23  1  0
 31 32  1  0
 31 29  1  0
 33 31  2  0
M  END
$$$$
