TWM.pdb
     RDKit          3D

 30 31  0  0  1  0  0  0  0  0999 V2000
   28.8588  -19.1306  -16.2917 C   0  0  0  0  0  0  0  0  0  0  0  0
   27.9046  -19.5163  -15.1796 C   0  0  1  0  0  0  0  0  0  0  0  0
   26.6350  -19.1351  -15.5129 O   0  0  0  0  0  0  0  0  0  0  0  0
   28.0448  -20.9545  -14.7934 C   0  0  2  0  0  0  0  0  0  0  0  0
   27.7133  -21.8784  -15.8249 N   0  0  0  0  0  0  0  0  0  0  0  0
   27.3178  -21.2124  -13.5043 C   0  0  0  0  0  0  0  0  0  0  0  0
   26.1638  -21.7284  -13.4881 O   0  0  0  0  0  0  0  0  0  0  0  0
   27.8940  -20.8843  -12.2525 N   0  0  0  0  0  0  0  0  0  0  0  0
   27.1405  -20.9511  -10.9938 C   0  0  1  0  0  0  0  0  0  0  0  0
   28.0453  -20.7491   -9.8308 C   0  0  0  0  0  0  0  0  0  0  0  0
   27.3854  -20.6009   -8.5220 C   0  0  0  0  0  0  0  0  0  0  0  0
   26.0090  -20.8626   -8.3069 C   0  0  0  0  0  0  0  0  0  0  0  0
   25.7279  -20.6372   -7.0223 N   0  0  0  0  0  0  0  0  0  0  0  0
   26.7938  -20.2475   -6.3559 C   0  0  0  0  0  0  0  0  0  0  0  0
   26.9661  -19.9126   -5.0325 C   0  0  0  0  0  0  0  0  0  0  0  0
   28.2311  -19.5385   -4.6477 C   0  0  0  0  0  0  0  0  0  0  0  0
   29.2907  -19.4956   -5.5357 C   0  0  0  0  0  0  0  0  0  0  0  0
   29.1052  -19.8371   -6.8578 C   0  0  0  0  0  0  0  0  0  0  0  0
   27.8442  -20.2212   -7.2930 C   0  0  0  0  0  0  0  0  0  0  0  0
   25.8732  -20.2364  -11.0173 C   0  0  0  0  0  0  0  0  0  0  0  0
   25.7270  -18.9969  -10.9216 O   0  0  0  0  0  0  0  0  0  0  0  0
   20.5948  -17.9150  -15.5434 C   0  0  0  0  0  0  0  0  0  0  0  0
   21.8150  -19.0691  -14.9897 S   0  0  0  0  0  0  0  0  0  0  0  0
   22.0052  -19.2762  -13.2354 C   0  0  0  0  0  0  0  0  0  0  0  0
   23.0589  -20.1845  -12.7881 C   0  0  0  0  0  0  0  0  0  0  0  0
   23.3700  -20.3721  -11.3426 C   0  0  2  0  0  0  0  0  0  0  0  0
   24.6576  -21.0080  -11.1751 N   0  0  0  0  0  0  0  0  0  0  0  0
   22.3362  -20.9331  -10.5096 C   0  0  0  0  0  0  0  0  0  0  0  0
   21.8090  -22.0628  -10.7839 O   0  0  0  0  0  0  0  0  0  0  0  0
   21.8414  -20.2971   -9.3760 O   0  0  0  0  0  0  0  0  0  0  0  0
  2  1  1  6
  2  3  1  0
  4  2  1  0
  4  5  1  6
  6  7  2  0
  6  4  1  0
  8  6  1  0
  9  8  1  0
 10 11  1  0
  9 10  1  1
 11 19  1  0
 11 12  2  0
 12 13  1  0
 14 13  1  0
 14 15  2  0
 16 15  1  0
 17 16  2  0
 18 19  2  0
 18 17  1  0
 19 14  1  0
 20 21  2  0
 20  9  1  0
 23 22  1  0
 24 23  1  0
 25 24  1  0
 26 25  1  6
 26 27  1  0
 27 20  1  0
 28 26  1  0
 29 28  2  0
 30 28  1  0
M  END
$$$$
