TWM.pdb
     RDKit          3D

 30 31  0  0  1  0  0  0  0  0999 V2000
   28.7464  -19.4943  -16.5403 C   0  0  0  0  0  0  0  0  0  0  0  0
   27.8632  -19.8496  -15.3613 C   0  0  1  0  0  0  0  0  0  0  0  0
   26.5585  -19.5835  -15.6701 O   0  0  0  0  0  0  0  0  0  0  0  0
   28.1184  -21.2380  -14.8672 C   0  0  2  0  0  0  0  0  0  0  0  0
   27.8692  -22.2614  -15.8253 N   0  0  0  0  0  0  0  0  0  0  0  0
   27.4079  -21.4562  -13.5616 C   0  0  0  0  0  0  0  0  0  0  0  0
   26.3018  -22.0656  -13.5050 O   0  0  0  0  0  0  0  0  0  0  0  0
   27.9466  -20.9846  -12.3394 N   0  0  0  0  0  0  0  0  0  0  0  0
   27.1940  -21.0184  -11.0787 C   0  0  1  0  0  0  0  0  0  0  0  0
   28.0858  -20.7124   -9.9285 C   0  0  0  0  0  0  0  0  0  0  0  0
   27.4228  -20.5799   -8.6195 C   0  0  0  0  0  0  0  0  0  0  0  0
   26.0577  -20.8922   -8.4000 C   0  0  0  0  0  0  0  0  0  0  0  0
   25.7703  -20.6685   -7.1165 N   0  0  0  0  0  0  0  0  0  0  0  0
   26.8218  -20.2337   -6.4549 C   0  0  0  0  0  0  0  0  0  0  0  0
   26.9833  -19.8831   -5.1342 C   0  0  0  0  0  0  0  0  0  0  0  0
   28.2338  -19.4585   -4.7544 C   0  0  0  0  0  0  0  0  0  0  0  0
   29.2896  -19.3818   -5.6448 C   0  0  0  0  0  0  0  0  0  0  0  0
   29.1151  -19.7395   -6.9640 C   0  0  0  0  0  0  0  0  0  0  0  0
   27.8689  -20.1743   -7.3941 C   0  0  0  0  0  0  0  0  0  0  0  0
   25.8951  -20.3655  -11.1405 C   0  0  0  0  0  0  0  0  0  0  0  0
   25.6954  -19.1313  -11.2012 O   0  0  0  0  0  0  0  0  0  0  0  0
   19.2121  -21.1854  -15.0600 C   0  0  0  0  0  0  0  0  0  0  0  0
   20.8552  -21.5887  -14.5452 S   0  0  0  0  0  0  0  0  0  0  0  0
   21.4515  -20.8313  -13.0529 C   0  0  0  0  0  0  0  0  0  0  0  0
   22.7906  -21.2118  -12.6086 C   0  0  0  0  0  0  0  0  0  0  0  0
   23.3934  -20.6493  -11.3670 C   0  0  2  0  0  0  0  0  0  0  0  0
   24.7114  -21.2002  -11.1437 N   0  0  0  0  0  0  0  0  0  0  0  0
   22.5705  -20.6228  -10.1839 C   0  0  0  0  0  0  0  0  0  0  0  0
   22.6501  -21.5448   -9.3046 O   0  0  0  0  0  0  0  0  0  0  0  0
   21.6442  -19.6192   -9.9217 O   0  0  0  0  0  0  0  0  0  0  0  0
  2  1  1  6
  2  3  1  0
  4  2  1  0
  4  5  1  6
  6  7  2  0
  6  4  1  0
  8  6  1  0
  9  8  1  0
 10 11  1  0
  9 10  1  1
 11 19  1  0
 11 12  2  0
 12 13  1  0
 14 13  1  0
 14 15  2  0
 16 15  1  0
 17 16  2  0
 18 19  2  0
 18 17  1  0
 19 14  1  0
 20 21  2  0
 20  9  1  0
 23 22  1  0
 24 23  1  0
 25 24  1  0
 26 25  1  6
 26 27  1  0
 27 20  1  0
 28 26  1  0
 29 28  2  0
 30 28  1  0
M  END
$$$$
