TWM.pdb
     RDKit          3D

 30 31  0  0  1  0  0  0  0  0999 V2000
   28.7737  -19.5442  -17.5130 C   0  0  0  0  0  0  0  0  0  0  0  0
   27.8465  -19.9400  -16.3818 C   0  0  1  0  0  0  0  0  0  0  0  0
   26.5478  -19.8175  -16.7901 O   0  0  0  0  0  0  0  0  0  0  0  0
   28.1986  -21.2760  -15.8089 C   0  0  2  0  0  0  0  0  0  0  0  0
   28.1073  -22.3571  -16.7310 N   0  0  0  0  0  0  0  0  0  0  0  0
   27.4304  -21.5078  -14.5388 C   0  0  0  0  0  0  0  0  0  0  0  0
   26.3678  -22.1925  -14.5248 O   0  0  0  0  0  0  0  0  0  0  0  0
   27.8632  -20.9653  -13.3040 N   0  0  0  0  0  0  0  0  0  0  0  0
   27.0829  -21.0954  -12.0667 C   0  0  1  0  0  0  0  0  0  0  0  0
   27.9193  -20.7623  -10.8829 C   0  0  0  0  0  0  0  0  0  0  0  0
   27.1998  -20.6351   -9.6036 C   0  0  0  0  0  0  0  0  0  0  0  0
   25.7885  -20.7043   -9.4908 C   0  0  0  0  0  0  0  0  0  0  0  0
   25.4558  -20.5562   -8.2072 N   0  0  0  0  0  0  0  0  0  0  0  0
   26.5188  -20.3937   -7.4485 C   0  0  0  0  0  0  0  0  0  0  0  0
   26.6468  -20.2097   -6.0909 C   0  0  0  0  0  0  0  0  0  0  0  0
   27.9233  -20.0673   -5.6026 C   0  0  0  0  0  0  0  0  0  0  0  0
   29.0363  -20.1048   -6.4231 C   0  0  0  0  0  0  0  0  0  0  0  0
   28.8942  -20.2934   -7.7807 C   0  0  0  0  0  0  0  0  0  0  0  0
   27.6236  -20.4417   -8.3198 C   0  0  0  0  0  0  0  0  0  0  0  0
   25.7411  -20.5380  -12.1451 C   0  0  0  0  0  0  0  0  0  0  0  0
   25.4548  -19.3427  -12.3822 O   0  0  0  0  0  0  0  0  0  0  0  0
   22.0768  -24.2489  -15.6286 C   0  0  0  0  0  0  0  0  0  0  0  0
   20.8375  -23.1579  -14.9952 S   0  0  0  0  0  0  0  0  0  0  0  0
   21.3511  -21.9439  -13.8039 C   0  0  0  0  0  0  0  0  0  0  0  0
   22.7280  -22.0322  -13.3226 C   0  0  0  0  0  0  0  0  0  0  0  0
   23.2752  -21.0625  -12.3318 C   0  0  2  0  0  0  0  0  0  0  0  0
   24.6185  -21.4310  -11.9442 N   0  0  0  0  0  0  0  0  0  0  0  0
   22.4312  -20.7038  -11.2199 C   0  0  0  0  0  0  0  0  0  0  0  0
   22.5660  -21.2657  -10.0816 O   0  0  0  0  0  0  0  0  0  0  0  0
   21.4252  -19.7472  -11.3037 O   0  0  0  0  0  0  0  0  0  0  0  0
  2  1  1  6
  2  3  1  0
  4  2  1  0
  4  5  1  6
  6  7  2  0
  6  4  1  0
  8  6  1  0
  9  8  1  0
 10 11  1  0
  9 10  1  1
 11 19  1  0
 11 12  2  0
 12 13  1  0
 14 13  1  0
 14 15  2  0
 16 15  1  0
 17 16  2  0
 18 19  2  0
 18 17  1  0
 19 14  1  0
 20 21  2  0
 20  9  1  0
 23 22  1  0
 24 23  1  0
 25 24  1  0
 26 25  1  1
 26 27  1  0
 27 20  1  0
 28 26  1  0
 29 28  2  0
 30 28  1  0
M  END
$$$$
