TWM.pdb
     RDKit          3D

 30 31  0  0  1  0  0  0  0  0999 V2000
   28.7776  -19.1330  -15.9698 C   0  0  0  0  0  0  0  0  0  0  0  0
   27.7353  -19.6716  -15.0108 C   0  0  1  0  0  0  0  0  0  0  0  0
   26.5761  -19.9247  -15.6894 O   0  0  0  0  0  0  0  0  0  0  0  0
   28.2533  -20.8216  -14.2069 C   0  0  2  0  0  0  0  0  0  0  0  0
   28.6574  -21.9478  -14.9787 N   0  0  0  0  0  0  0  0  0  0  0  0
   27.2795  -21.1640  -13.1153 C   0  0  0  0  0  0  0  0  0  0  0  0
   26.5873  -22.2210  -13.1549 O   0  0  0  0  0  0  0  0  0  0  0  0
   27.0937  -20.3140  -11.9975 N   0  0  0  0  0  0  0  0  0  0  0  0
   26.0071  -20.5083  -11.0288 C   0  0  1  0  0  0  0  0  0  0  0  0
   26.3078  -19.8002   -9.7560 C   0  0  0  0  0  0  0  0  0  0  0  0
   27.4208  -20.3502   -8.9627 C   0  0  0  0  0  0  0  0  0  0  0  0
   28.3416  -21.3038   -9.4648 C   0  0  0  0  0  0  0  0  0  0  0  0
   29.2222  -21.5923   -8.5049 N   0  0  0  0  0  0  0  0  0  0  0  0
   28.9741  -20.9167   -7.4030 C   0  0  0  0  0  0  0  0  0  0  0  0
   29.6133  -20.8987   -6.1847 C   0  0  0  0  0  0  0  0  0  0  0  0
   29.0907  -20.0679   -5.2230 C   0  0  0  0  0  0  0  0  0  0  0  0
   27.9764  -19.2814   -5.4529 C   0  0  0  0  0  0  0  0  0  0  0  0
   27.3478  -19.3062   -6.6790 C   0  0  0  0  0  0  0  0  0  0  0  0
   27.8398  -20.1307   -7.6816 C   0  0  0  0  0  0  0  0  0  0  0  0
   24.6725  -20.3795  -11.5941 C   0  0  0  0  0  0  0  0  0  0  0  0
   24.3942  -19.9135  -12.7221 O   0  0  0  0  0  0  0  0  0  0  0  0
   21.4877  -19.6172  -15.4914 C   0  0  0  0  0  0  0  0  0  0  0  0
   20.9306  -21.2507  -15.1056 S   0  0  0  0  0  0  0  0  0  0  0  0
   20.9241  -21.7274  -13.3942 C   0  0  0  0  0  0  0  0  0  0  0  0
   22.1708  -21.5466  -12.6535 C   0  0  0  0  0  0  0  0  0  0  0  0
   22.2041  -20.8583  -11.3320 C   0  0  2  0  0  0  0  0  0  0  0  0
   23.5489  -20.8351  -10.8015 N   0  0  0  0  0  0  0  0  0  0  0  0
   21.2073  -21.2368  -10.3623 C   0  0  0  0  0  0  0  0  0  0  0  0
   19.9630  -21.1926  -10.6441 O   0  0  0  0  0  0  0  0  0  0  0  0
   21.5182  -21.6608   -9.0748 O   0  0  0  0  0  0  0  0  0  0  0  0
  2  1  1  6
  2  3  1  0
  4  2  1  0
  4  5  1  6
  6  7  2  0
  6  4  1  0
  8  6  1  0
  9  8  1  0
 10 11  1  0
  9 10  1  1
 11 19  1  0
 11 12  2  0
 12 13  1  0
 14 13  1  0
 14 15  2  0
 16 15  1  0
 17 16  2  0
 18 19  2  0
 18 17  1  0
 19 14  1  0
 20 21  2  0
 20  9  1  0
 23 22  1  0
 24 23  1  0
 25 24  1  0
 26 25  1  6
 26 27  1  0
 27 20  1  0
 28 26  1  0
 29 28  2  0
 30 28  1  0
M  END
$$$$
