TWM.pdb
     RDKit          3D

 30 31  0  0  1  0  0  0  0  0999 V2000
   16.9179  -15.6127  -15.9051 C   0  0  0  0  0  0  0  0  0  0  0  0
   17.8814  -14.4451  -15.8374 C   0  0  1  0  0  0  0  0  0  0  0  0
   17.7055  -13.7740  -14.6597 O   0  0  0  0  0  0  0  0  0  0  0  0
   19.2904  -14.8633  -16.1146 C   0  0  2  0  0  0  0  0  0  0  0  0
   19.7840  -15.8844  -15.2537 N   0  0  0  0  0  0  0  0  0  0  0  0
   20.1806  -13.6549  -16.1796 C   0  0  0  0  0  0  0  0  0  0  0  0
   21.0435  -13.4209  -15.2858 O   0  0  0  0  0  0  0  0  0  0  0  0
   20.0874  -12.7249  -17.2439 N   0  0  0  0  0  0  0  0  0  0  0  0
   20.9766  -11.5615  -17.3571 C   0  0  1  0  0  0  0  0  0  0  0  0
   21.2498  -11.2485  -18.7851 C   0  0  0  0  0  0  0  0  0  0  0  0
   22.1157  -10.0825  -19.0326 C   0  0  0  0  0  0  0  0  0  0  0  0
   23.3454   -9.8662  -18.3617 C   0  0  0  0  0  0  0  0  0  0  0  0
   23.8825   -8.7308  -18.8117 N   0  0  0  0  0  0  0  0  0  0  0  0
   23.1221   -8.1659  -19.7254 C   0  0  0  0  0  0  0  0  0  0  0  0
   23.2801   -7.0062  -20.4489 C   0  0  0  0  0  0  0  0  0  0  0  0
   22.2826   -6.6910  -21.3399 C   0  0  0  0  0  0  0  0  0  0  0  0
   21.1672   -7.4905  -21.5128 C   0  0  0  0  0  0  0  0  0  0  0  0
   21.0231   -8.6514  -20.7843 C   0  0  0  0  0  0  0  0  0  0  0  0
   22.0054   -9.0106  -19.8716 C   0  0  0  0  0  0  0  0  0  0  0  0
   20.6439  -10.4656  -16.4596 C   0  0  0  0  0  0  0  0  0  0  0  0
   19.4898  -10.0695  -16.1799 O   0  0  0  0  0  0  0  0  0  0  0  0
   21.6479   -3.0154  -15.5651 C   0  0  0  0  0  0  0  0  0  0  0  0
   21.9613   -4.6263  -16.2240 S   0  0  0  0  0  0  0  0  0  0  0  0
   21.5315   -6.0203  -15.2096 C   0  0  0  0  0  0  0  0  0  0  0  0
   21.7985   -7.3465  -15.7622 C   0  0  0  0  0  0  0  0  0  0  0  0
   21.4978   -8.5893  -14.9964 C   0  0  2  0  0  0  0  0  0  0  0  0
   21.7306   -9.7607  -15.8113 N   0  0  0  0  0  0  0  0  0  0  0  0
   20.2572   -8.6325  -14.2640 C   0  0  0  0  0  0  0  0  0  0  0  0
   19.9853   -7.7573  -13.3754 O   0  0  0  0  0  0  0  0  0  0  0  0
   19.2899   -9.6124  -14.4598 O   0  0  0  0  0  0  0  0  0  0  0  0
  2  1  1  1
  2  3  1  0
  4  2  1  0
  4  5  1  1
  6  7  2  0
  6  4  1  0
  8  6  1  0
  9  8  1  0
 10 11  1  0
  9 10  1  6
 11 19  1  0
 11 12  2  0
 12 13  1  0
 14 13  1  0
 14 15  2  0
 16 15  1  0
 17 16  2  0
 18 19  2  0
 18 17  1  0
 19 14  1  0
 20 21  2  0
 20  9  1  0
 23 22  1  0
 24 23  1  0
 25 24  1  0
 26 25  1  6
 26 27  1  0
 27 20  1  0
 28 26  1  0
 29 28  2  0
 30 28  1  0
M  END
$$$$
