TWM.pdb
     RDKit          3D

 30 31  0  0  1  0  0  0  0  0999 V2000
   26.9566  -19.5179  -15.8769 C   0  0  0  0  0  0  0  0  0  0  0  0
   26.2523  -19.8964  -14.5897 C   0  0  1  0  0  0  0  0  0  0  0  0
   24.9093  -20.0083  -14.8184 O   0  0  0  0  0  0  0  0  0  0  0  0
   26.8772  -21.0886  -13.9377 C   0  0  2  0  0  0  0  0  0  0  0  0
   26.8662  -22.2702  -14.7321 N   0  0  0  0  0  0  0  0  0  0  0  0
   26.2971  -21.2857  -12.5660 C   0  0  0  0  0  0  0  0  0  0  0  0
   25.5690  -22.2825  -12.2933 O   0  0  0  0  0  0  0  0  0  0  0  0
   26.5391  -20.3600  -11.5214 N   0  0  0  0  0  0  0  0  0  0  0  0
   25.9563  -20.5099  -10.1818 C   0  0  1  0  0  0  0  0  0  0  0  0
   26.7777  -19.7927   -9.1704 C   0  0  0  0  0  0  0  0  0  0  0  0
   26.5691  -20.1979   -7.7694 C   0  0  0  0  0  0  0  0  0  0  0  0
   25.5411  -21.0823   -7.3567 C   0  0  0  0  0  0  0  0  0  0  0  0
   25.6248  -21.2461   -6.0353 N   0  0  0  0  0  0  0  0  0  0  0  0
   26.6181  -20.5499   -5.5244 C   0  0  0  0  0  0  0  0  0  0  0  0
   27.0668  -20.4220   -4.2300 C   0  0  0  0  0  0  0  0  0  0  0  0
   28.1484  -19.5990   -4.0276 C   0  0  0  0  0  0  0  0  0  0  0  0
   28.7674  -18.9246   -5.0646 C   0  0  0  0  0  0  0  0  0  0  0  0
   28.3101  -19.0645   -6.3570 C   0  0  0  0  0  0  0  0  0  0  0  0
   27.2195  -19.8853   -6.6100 C   0  0  0  0  0  0  0  0  0  0  0  0
   24.5105  -20.3515  -10.1379 C   0  0  0  0  0  0  0  0  0  0  0  0
   23.8370  -19.5579  -10.8332 O   0  0  0  0  0  0  0  0  0  0  0  0
   18.2515  -24.2393   -6.8188 C   0  0  0  0  0  0  0  0  0  0  0  0
   19.9082  -23.6207   -6.8088 S   0  0  0  0  0  0  0  0  0  0  0  0
   20.3879  -22.5520   -8.1446 C   0  0  0  0  0  0  0  0  0  0  0  0
   21.8041  -22.2033   -8.2353 C   0  0  0  0  0  0  0  0  0  0  0  0
   22.3209  -21.2966   -9.2994 C   0  0  2  0  0  0  0  0  0  0  0  0
   23.7603  -21.1849   -9.2210 N   0  0  0  0  0  0  0  0  0  0  0  0
   21.6523  -20.0319   -9.4749 C   0  0  0  0  0  0  0  0  0  0  0  0
   21.9946  -19.0055   -8.7976 O   0  0  0  0  0  0  0  0  0  0  0  0
   20.6035  -19.8414  -10.3681 O   0  0  0  0  0  0  0  0  0  0  0  0
  2  1  1  6
  2  3  1  0
  4  2  1  0
  4  5  1  6
  6  7  2  0
  6  4  1  0
  8  6  1  0
  9  8  1  0
 10 11  1  0
  9 10  1  1
 11 19  1  0
 11 12  2  0
 12 13  1  0
 14 13  1  0
 14 15  2  0
 16 15  1  0
 17 16  2  0
 18 19  2  0
 18 17  1  0
 19 14  1  0
 20 21  2  0
 20  9  1  0
 23 22  1  0
 24 23  1  0
 25 24  1  0
 26 25  1  1
 26 27  1  0
 27 20  1  0
 28 26  1  0
 29 28  2  0
 30 28  1  0
M  END
$$$$
