TWM.pdb
     RDKit          3D

 30 31  0  0  1  0  0  0  0  0999 V2000
   26.3126  -19.9462  -15.7266 C   0  0  0  0  0  0  0  0  0  0  0  0
   25.6690  -20.2975  -14.4005 C   0  0  1  0  0  0  0  0  0  0  0  0
   24.3089  -20.2946  -14.5367 O   0  0  0  0  0  0  0  0  0  0  0  0
   26.2364  -21.5520  -13.8162 C   0  0  2  0  0  0  0  0  0  0  0  0
   26.0319  -22.7178  -14.6078 N   0  0  0  0  0  0  0  0  0  0  0  0
   25.7784  -21.7079  -12.3939 C   0  0  0  0  0  0  0  0  0  0  0  0
   24.9287  -22.5844  -12.0655 O   0  0  0  0  0  0  0  0  0  0  0  0
   26.2775  -20.8761  -11.3616 N   0  0  0  0  0  0  0  0  0  0  0  0
   25.8794  -21.0347   -9.9569 C   0  0  1  0  0  0  0  0  0  0  0  0
   26.9972  -20.6593   -9.0506 C   0  0  0  0  0  0  0  0  0  0  0  0
   26.7389  -20.8251   -7.6096 C   0  0  0  0  0  0  0  0  0  0  0  0
   26.0241  -21.9214   -7.0652 C   0  0  0  0  0  0  0  0  0  0  0  0
   25.9670  -21.7771   -5.7400 N   0  0  0  0  0  0  0  0  0  0  0  0
   26.5802  -20.6810   -5.3468 C   0  0  0  0  0  0  0  0  0  0  0  0
   26.7673  -20.1439   -4.0938 C   0  0  0  0  0  0  0  0  0  0  0  0
   27.4641  -18.9617   -4.0242 C   0  0  0  0  0  0  0  0  0  0  0  0
   27.9600  -18.3294   -5.1500 C   0  0  0  0  0  0  0  0  0  0  0  0
   27.7688  -18.8800   -6.3987 C   0  0  0  0  0  0  0  0  0  0  0  0
   27.0702  -20.0736   -6.5185 C   0  0  0  0  0  0  0  0  0  0  0  0
   24.5458  -20.5377   -9.6540 C   0  0  0  0  0  0  0  0  0  0  0  0
   24.0740  -19.4348  -10.0116 O   0  0  0  0  0  0  0  0  0  0  0  0
   20.3120  -24.9662   -6.8165 C   0  0  0  0  0  0  0  0  0  0  0  0
   19.4426  -23.4283   -6.7387 S   0  0  0  0  0  0  0  0  0  0  0  0
   20.1493  -22.0470   -7.6042 C   0  0  0  0  0  0  0  0  0  0  0  0
   21.5817  -22.1078   -7.8873 C   0  0  0  0  0  0  0  0  0  0  0  0
   22.2668  -21.0557   -8.6905 C   0  0  2  0  0  0  0  0  0  0  0  0
   23.6625  -21.3835   -8.8778 N   0  0  0  0  0  0  0  0  0  0  0  0
   22.0415  -19.6828   -8.3140 C   0  0  0  0  0  0  0  0  0  0  0  0
   21.1132  -18.9943   -8.8559 O   0  0  0  0  0  0  0  0  0  0  0  0
   22.8056  -19.0184   -7.3607 O   0  0  0  0  0  0  0  0  0  0  0  0
  2  1  1  6
  2  3  1  0
  4  2  1  0
  4  5  1  6
  6  7  2  0
  6  4  1  0
  8  6  1  0
  9  8  1  0
 10 11  1  0
  9 10  1  1
 11 19  1  0
 11 12  2  0
 12 13  1  0
 14 13  1  0
 14 15  2  0
 16 15  1  0
 17 16  2  0
 18 19  2  0
 18 17  1  0
 19 14  1  0
 20 21  2  0
 20  9  1  0
 23 22  1  0
 24 23  1  0
 25 24  1  0
 26 25  1  1
 26 27  1  0
 27 20  1  0
 28 26  1  0
 29 28  2  0
 30 28  1  0
M  END
$$$$
