TWM.pdb
     RDKit          3D

 30 31  0  0  1  0  0  0  0  0999 V2000
   25.1341  -25.1624  -17.9046 C   0  0  0  0  0  0  0  0  0  0  0  0
   26.3826  -25.4084  -17.0819 C   0  0  1  0  0  0  0  0  0  0  0  0
   27.1104  -26.4191  -17.6452 O   0  0  0  0  0  0  0  0  0  0  0  0
   27.1493  -24.1482  -16.8348 C   0  0  2  0  0  0  0  0  0  0  0  0
   28.3542  -24.3246  -16.0969 N   0  0  0  0  0  0  0  0  0  0  0  0
   26.2416  -23.1011  -16.2548 C   0  0  0  0  0  0  0  0  0  0  0  0
   26.0961  -22.9709  -15.0058 O   0  0  0  0  0  0  0  0  0  0  0  0
   25.5075  -22.2181  -17.0841 N   0  0  0  0  0  0  0  0  0  0  0  0
   24.6091  -21.1896  -16.5437 C   0  0  1  0  0  0  0  0  0  0  0  0
   24.6242  -19.9768  -17.4044 C   0  0  0  0  0  0  0  0  0  0  0  0
   23.7743  -18.8602  -16.9555 C   0  0  0  0  0  0  0  0  0  0  0  0
   24.2246  -17.8370  -16.0841 C   0  0  0  0  0  0  0  0  0  0  0  0
   23.2214  -16.9824  -15.8759 N   0  0  0  0  0  0  0  0  0  0  0  0
   22.1376  -17.3413  -16.5305 C   0  0  0  0  0  0  0  0  0  0  0  0
   20.8900  -16.7661  -16.6075 C   0  0  0  0  0  0  0  0  0  0  0  0
   19.9606  -17.4048  -17.3925 C   0  0  0  0  0  0  0  0  0  0  0  0
   20.2495  -18.5706  -18.0786 C   0  0  0  0  0  0  0  0  0  0  0  0
   21.5042  -19.1343  -17.9957 C   0  0  0  0  0  0  0  0  0  0  0  0
   22.4761  -18.5246  -17.2142 C   0  0  0  0  0  0  0  0  0  0  0  0
   23.3247  -21.6983  -16.0869 C   0  0  0  0  0  0  0  0  0  0  0  0
   22.6976  -22.6616  -16.5826 O   0  0  0  0  0  0  0  0  0  0  0  0
   19.3202  -26.4421  -12.7063 C   0  0  0  0  0  0  0  0  0  0  0  0
   20.7173  -25.4861  -13.2176 S   0  0  0  0  0  0  0  0  0  0  0  0
   20.4596  -23.7508  -13.4986 C   0  0  0  0  0  0  0  0  0  0  0  0
   21.5548  -23.0134  -14.1248 C   0  0  0  0  0  0  0  0  0  0  0  0
   21.4680  -21.5471  -14.3779 C   0  0  2  0  0  0  0  0  0  0  0  0
   22.7007  -21.0534  -14.9498 N   0  0  0  0  0  0  0  0  0  0  0  0
   20.9526  -20.7206  -13.3156 C   0  0  0  0  0  0  0  0  0  0  0  0
   21.6667  -19.8034  -12.7881 O   0  0  0  0  0  0  0  0  0  0  0  0
   19.6718  -20.8623  -12.7923 O   0  0  0  0  0  0  0  0  0  0  0  0
  2  1  1  6
  2  3  1  0
  4  2  1  0
  4  5  1  1
  6  7  2  0
  6  4  1  0
  8  6  1  0
  9  8  1  0
 10 11  1  0
  9 10  1  6
 11 19  1  0
 11 12  2  0
 12 13  1  0
 14 13  1  0
 14 15  2  0
 16 15  1  0
 17 16  2  0
 18 19  2  0
 18 17  1  0
 19 14  1  0
 20 21  2  0
 20  9  1  0
 23 22  1  0
 24 23  1  0
 25 24  1  0
 26 25  1  1
 26 27  1  0
 27 20  1  0
 28 26  1  0
 29 28  2  0
 30 28  1  0
M  END
$$$$
