TWM.pdb
     RDKit          3D

 30 31  0  0  1  0  0  0  0  0999 V2000
   26.2469  -19.5188  -15.8160 C   0  0  0  0  0  0  0  0  0  0  0  0
   27.1982  -20.6682  -16.0805 C   0  0  1  0  0  0  0  0  0  0  0  0
   28.0592  -20.3278  -17.0862 O   0  0  0  0  0  0  0  0  0  0  0  0
   27.8587  -21.1497  -14.8279 C   0  0  2  0  0  0  0  0  0  0  0  0
   28.8255  -22.1760  -15.0266 N   0  0  0  0  0  0  0  0  0  0  0  0
   26.8187  -21.4993  -13.8017 C   0  0  0  0  0  0  0  0  0  0  0  0
   26.2031  -22.6029  -13.8342 O   0  0  0  0  0  0  0  0  0  0  0  0
   26.4820  -20.6045  -12.7565 N   0  0  0  0  0  0  0  0  0  0  0  0
   25.3566  -20.8433  -11.8436 C   0  0  1  0  0  0  0  0  0  0  0  0
   25.6240  -20.2353  -10.5129 C   0  0  0  0  0  0  0  0  0  0  0  0
   26.8909  -20.6270   -9.8710 C   0  0  0  0  0  0  0  0  0  0  0  0
   27.8648  -21.4439  -10.4983 C   0  0  0  0  0  0  0  0  0  0  0  0
   28.8880  -21.6088   -9.6581 N   0  0  0  0  0  0  0  0  0  0  0  0
   28.6872  -20.9748   -8.5223 C   0  0  0  0  0  0  0  0  0  0  0  0
   29.4630  -20.8696   -7.3908 C   0  0  0  0  0  0  0  0  0  0  0  0
   28.9539  -20.1197   -6.3581 C   0  0  0  0  0  0  0  0  0  0  0  0
   27.7227  -19.4944   -6.4366 C   0  0  0  0  0  0  0  0  0  0  0  0
   26.9573  -19.6048   -7.5772 C   0  0  0  0  0  0  0  0  0  0  0  0
   27.4304  -20.3527   -8.6467 C   0  0  0  0  0  0  0  0  0  0  0  0
   24.0467  -20.6441  -12.4451 C   0  0  0  0  0  0  0  0  0  0  0  0
   23.5910  -19.5586  -12.8705 O   0  0  0  0  0  0  0  0  0  0  0  0
   23.7488  -26.3270  -15.5559 C   0  0  0  0  0  0  0  0  0  0  0  0
   22.4266  -25.2625  -15.0599 S   0  0  0  0  0  0  0  0  0  0  0  0
   22.8358  -23.5754  -14.6818 C   0  0  0  0  0  0  0  0  0  0  0  0
   21.7322  -22.6989  -14.2952 C   0  0  0  0  0  0  0  0  0  0  0  0
   21.8757  -21.6932  -13.2047 C   0  0  2  0  0  0  0  0  0  0  0  0
   23.1776  -21.7946  -12.5840 N   0  0  0  0  0  0  0  0  0  0  0  0
   20.7928  -21.5806  -12.2602 C   0  0  0  0  0  0  0  0  0  0  0  0
   20.9839  -21.7700  -11.0123 O   0  0  0  0  0  0  0  0  0  0  0  0
   19.4879  -21.2727  -12.6295 O   0  0  0  0  0  0  0  0  0  0  0  0
  2  1  1  1
  2  3  1  0
  4  2  1  0
  4  5  1  6
  6  7  2  0
  6  4  1  0
  8  6  1  0
  9  8  1  0
 10 11  1  0
  9 10  1  1
 11 19  1  0
 11 12  2  0
 12 13  1  0
 14 13  1  0
 14 15  2  0
 16 15  1  0
 17 16  2  0
 18 19  2  0
 18 17  1  0
 19 14  1  0
 20 21  2  0
 20  9  1  0
 23 22  1  0
 24 23  1  0
 25 24  1  0
 26 25  1  1
 26 27  1  0
 27 20  1  0
 28 26  1  0
 29 28  2  0
 30 28  1  0
M  END
$$$$
