TWM.pdb
     RDKit          3D

 30 31  0  0  1  0  0  0  0  0999 V2000
   28.9139  -20.2737  -16.4764 C   0  0  0  0  0  0  0  0  0  0  0  0
   27.9053  -20.3798  -15.3505 C   0  0  1  0  0  0  0  0  0  0  0  0
   26.7036  -19.8759  -15.7633 O   0  0  0  0  0  0  0  0  0  0  0  0
   27.8419  -21.7619  -14.7822 C   0  0  2  0  0  0  0  0  0  0  0  0
   27.4016  -22.7583  -15.6992 N   0  0  0  0  0  0  0  0  0  0  0  0
   27.0684  -21.7518  -13.4944 C   0  0  0  0  0  0  0  0  0  0  0  0
   25.8703  -22.1515  -13.4399 O   0  0  0  0  0  0  0  0  0  0  0  0
   27.6487  -21.2900  -12.2875 N   0  0  0  0  0  0  0  0  0  0  0  0
   26.8934  -21.1995  -11.0313 C   0  0  1  0  0  0  0  0  0  0  0  0
   27.8130  -20.9882   -9.8817 C   0  0  0  0  0  0  0  0  0  0  0  0
   27.1682  -20.7173   -8.5850 C   0  0  0  0  0  0  0  0  0  0  0  0
   25.7632  -20.6496   -8.4102 C   0  0  0  0  0  0  0  0  0  0  0  0
   25.5053  -20.3931   -7.1265 N   0  0  0  0  0  0  0  0  0  0  0  0
   26.6129  -20.2828   -6.4241 C   0  0  0  0  0  0  0  0  0  0  0  0
   26.8200  -20.0285   -5.0879 C   0  0  0  0  0  0  0  0  0  0  0  0
   28.1255  -19.9743   -4.6626 C   0  0  0  0  0  0  0  0  0  0  0  0
   29.1912  -20.1640   -5.5238 C   0  0  0  0  0  0  0  0  0  0  0  0
   28.9696  -20.4216   -6.8593 C   0  0  0  0  0  0  0  0  0  0  0  0
   27.6670  -20.4854   -7.3350 C   0  0  0  0  0  0  0  0  0  0  0  0
   25.6908  -20.3845  -11.1146 C   0  0  0  0  0  0  0  0  0  0  0  0
   25.6521  -19.1341  -11.1570 O   0  0  0  0  0  0  0  0  0  0  0  0
   21.0451  -16.9826  -15.3598 C   0  0  0  0  0  0  0  0  0  0  0  0
   22.3851  -17.9610  -14.7478 S   0  0  0  0  0  0  0  0  0  0  0  0
   22.1623  -18.7569  -13.1751 C   0  0  0  0  0  0  0  0  0  0  0  0
   23.2916  -19.5274  -12.6590 C   0  0  0  0  0  0  0  0  0  0  0  0
   23.1812  -20.3424  -11.4160 C   0  0  2  0  0  0  0  0  0  0  0  0
   24.4107  -21.0605  -11.1647 N   0  0  0  0  0  0  0  0  0  0  0  0
   21.9979  -21.1495  -11.2556 C   0  0  0  0  0  0  0  0  0  0  0  0
   20.9256  -20.6579  -10.7676 O   0  0  0  0  0  0  0  0  0  0  0  0
   21.9392  -22.4944  -11.6047 O   0  0  0  0  0  0  0  0  0  0  0  0
  2  1  1  6
  2  3  1  0
  4  2  1  0
  4  5  1  6
  6  7  2  0
  6  4  1  0
  8  6  1  0
  9  8  1  0
 10 11  1  0
  9 10  1  1
 11 19  1  0
 11 12  2  0
 12 13  1  0
 14 13  1  0
 14 15  2  0
 16 15  1  0
 17 16  2  0
 18 19  2  0
 18 17  1  0
 19 14  1  0
 20 21  2  0
 20  9  1  0
 23 22  1  0
 24 23  1  0
 25 24  1  0
 26 25  1  6
 26 27  1  0
 27 20  1  0
 28 26  1  0
 29 28  2  0
 30 28  1  0
M  END
$$$$
