TWM.pdb
     RDKit          3D

 30 31  0  0  1  0  0  0  0  0999 V2000
   25.8000  -21.1725  -17.4446 C   0  0  0  0  0  0  0  0  0  0  0  0
   26.2067  -22.6080  -17.7095 C   0  0  1  0  0  0  0  0  0  0  0  0
   26.7496  -22.7068  -18.9600 O   0  0  0  0  0  0  0  0  0  0  0  0
   27.0590  -23.1615  -16.6121 C   0  0  2  0  0  0  0  0  0  0  0  0
   27.4400  -24.5220  -16.7887 N   0  0  0  0  0  0  0  0  0  0  0  0
   26.4210  -22.8880  -15.2798 C   0  0  0  0  0  0  0  0  0  0  0  0
   25.4699  -23.5979  -14.8443 O   0  0  0  0  0  0  0  0  0  0  0  0
   26.8564  -21.8201  -14.4573 N   0  0  0  0  0  0  0  0  0  0  0  0
   26.2301  -21.5116  -13.1652 C   0  0  1  0  0  0  0  0  0  0  0  0
   27.1731  -20.7633  -12.2919 C   0  0  0  0  0  0  0  0  0  0  0  0
   26.7010  -20.4891  -10.9235 C   0  0  0  0  0  0  0  0  0  0  0  0
   25.3949  -20.0257  -10.6259 C   0  0  0  0  0  0  0  0  0  0  0  0
   25.2852  -19.8800   -9.3042 N   0  0  0  0  0  0  0  0  0  0  0  0
   26.4021  -20.2046   -8.6883 C   0  0  0  0  0  0  0  0  0  0  0  0
   26.7358  -20.2080   -7.3534 C   0  0  0  0  0  0  0  0  0  0  0  0
   28.0113  -20.6076   -7.0347 C   0  0  0  0  0  0  0  0  0  0  0  0
   28.9273  -20.9909   -7.9976 C   0  0  0  0  0  0  0  0  0  0  0  0
   28.5789  -20.9864   -9.3308 C   0  0  0  0  0  0  0  0  0  0  0  0
   27.3011  -20.5898   -9.7009 C   0  0  0  0  0  0  0  0  0  0  0  0
   24.8567  -21.0411  -13.2641 C   0  0  0  0  0  0  0  0  0  0  0  0
   24.4595  -20.0728  -13.9507 O   0  0  0  0  0  0  0  0  0  0  0  0
   19.5867  -24.0343   -9.5381 C   0  0  0  0  0  0  0  0  0  0  0  0
   19.2680  -23.7745  -11.2580 S   0  0  0  0  0  0  0  0  0  0  0  0
   20.1354  -22.4455  -12.0567 C   0  0  0  0  0  0  0  0  0  0  0  0
   21.5948  -22.4732  -11.9869 C   0  0  0  0  0  0  0  0  0  0  0  0
   22.4318  -21.4540  -12.6812 C   0  0  2  0  0  0  0  0  0  0  0  0
   23.8376  -21.7489  -12.5168 N   0  0  0  0  0  0  0  0  0  0  0  0
   22.1034  -20.0674  -12.4644 C   0  0  0  0  0  0  0  0  0  0  0  0
   22.4903  -19.4548  -11.4134 O   0  0  0  0  0  0  0  0  0  0  0  0
   21.3514  -19.3130  -13.3585 O   0  0  0  0  0  0  0  0  0  0  0  0
  2  1  1  1
  2  3  1  0
  4  2  1  0
  4  5  1  6
  6  7  2  0
  6  4  1  0
  8  6  1  0
  9  8  1  0
 10 11  1  0
  9 10  1  6
 11 19  1  0
 11 12  2  0
 12 13  1  0
 14 13  1  0
 14 15  2  0
 16 15  1  0
 17 16  2  0
 18 19  2  0
 18 17  1  0
 19 14  1  0
 20 21  2  0
 20  9  1  0
 23 22  1  0
 24 23  1  0
 25 24  1  0
 26 25  1  1
 26 27  1  0
 27 20  1  0
 28 26  1  0
 29 28  2  0
 30 28  1  0
M  END
$$$$
