TWM.pdb
     RDKit          3D

 30 31  0  0  1  0  0  0  0  0999 V2000
   26.1551  -23.0010  -17.9587 C   0  0  0  0  0  0  0  0  0  0  0  0
   25.5374  -22.7291  -16.6021 C   0  0  1  0  0  0  0  0  0  0  0  0
   24.1908  -22.9571  -16.6581 O   0  0  0  0  0  0  0  0  0  0  0  0
   26.2495  -23.4553  -15.5054 C   0  0  2  0  0  0  0  0  0  0  0  0
   26.3363  -24.8646  -15.6890 N   0  0  0  0  0  0  0  0  0  0  0  0
   25.6778  -23.0606  -14.1734 C   0  0  0  0  0  0  0  0  0  0  0  0
   25.1364  -23.9094  -13.4089 O   0  0  0  0  0  0  0  0  0  0  0  0
   25.7183  -21.7191  -13.7202 N   0  0  0  0  0  0  0  0  0  0  0  0
   25.1602  -21.3048  -12.4265 C   0  0  1  0  0  0  0  0  0  0  0  0
   25.9725  -20.2094  -11.8328 C   0  0  0  0  0  0  0  0  0  0  0  0
   27.1099  -20.6335  -10.9980 C   0  0  0  0  0  0  0  0  0  0  0  0
   28.2741  -21.2516  -11.5194 C   0  0  0  0  0  0  0  0  0  0  0  0
   29.1092  -21.5070  -10.5106 N   0  0  0  0  0  0  0  0  0  0  0  0
   28.6086  -21.1151   -9.3583 C   0  0  0  0  0  0  0  0  0  0  0  0
   29.1135  -21.1773   -8.0798 C   0  0  0  0  0  0  0  0  0  0  0  0
   28.3227  -20.6721   -7.0761 C   0  0  0  0  0  0  0  0  0  0  0  0
   27.0769  -20.1240   -7.3225 C   0  0  0  0  0  0  0  0  0  0  0  0
   26.5846  -20.0645   -8.6082 C   0  0  0  0  0  0  0  0  0  0  0  0
   27.3479  -20.5631   -9.6550 C   0  0  0  0  0  0  0  0  0  0  0  0
   23.7109  -21.1765  -12.4145 C   0  0  0  0  0  0  0  0  0  0  0  0
   22.9972  -20.8158  -13.3776 O   0  0  0  0  0  0  0  0  0  0  0  0
   17.4669  -23.4133   -7.8398 C   0  0  0  0  0  0  0  0  0  0  0  0
   19.1883  -23.2931   -8.2266 S   0  0  0  0  0  0  0  0  0  0  0  0
   19.6419  -22.3013   -9.6291 C   0  0  0  0  0  0  0  0  0  0  0  0
   21.0688  -22.1857   -9.9225 C   0  0  0  0  0  0  0  0  0  0  0  0
   21.5673  -21.4130  -11.0954 C   0  0  2  0  0  0  0  0  0  0  0  0
   23.0074  -21.5003  -11.1904 N   0  0  0  0  0  0  0  0  0  0  0  0
   21.0568  -20.0771  -11.2744 C   0  0  0  0  0  0  0  0  0  0  0  0
   21.6333  -19.0733  -10.7363 O   0  0  0  0  0  0  0  0  0  0  0  0
   19.9201  -19.7890  -12.0221 O   0  0  0  0  0  0  0  0  0  0  0  0
  2  1  1  6
  2  3  1  0
  4  2  1  0
  4  5  1  6
  6  7  2  0
  6  4  1  0
  8  6  1  0
  9  8  1  0
 10 11  1  0
  9 10  1  6
 11 19  1  0
 11 12  2  0
 12 13  1  0
 14 13  1  0
 14 15  2  0
 16 15  1  0
 17 16  2  0
 18 19  2  0
 18 17  1  0
 19 14  1  0
 20 21  2  0
 20  9  1  0
 23 22  1  0
 24 23  1  0
 25 24  1  0
 26 25  1  1
 26 27  1  0
 27 20  1  0
 28 26  1  0
 29 28  2  0
 30 28  1  0
M  END
$$$$
