EMR.pdb
     RDKit          3D

 29 28  0  0  1  0  0  0  0  0999 V2000
   28.1402  -21.4662  -14.9088 N   0  0  0  0  0  0  0  0  0  0  0  0
   27.8872  -20.6318  -13.7764 C   0  0  1  0  0  0  0  0  0  0  0  0
   27.4801  -19.2202  -14.1384 C   0  0  0  0  0  0  0  0  0  0  0  0
   27.2983  -19.1282  -15.6400 C   0  0  0  0  0  0  0  0  0  0  0  0
   28.3853  -18.3194  -16.2443 C   0  0  0  0  0  0  0  0  0  0  0  0
   29.0951  -18.8014  -17.1538 O   0  0  0  0  0  0  0  0  0  0  0  0
   26.9486  -21.2798  -12.8422 C   0  0  0  0  0  0  0  0  0  0  0  0
   26.2628  -22.2940  -13.1414 O   0  0  0  0  0  0  0  0  0  0  0  0
   28.6304  -17.0268  -15.8145 O   0  0  0  0  0  0  0  0  0  0  0  0
   29.7023  -19.7077   -7.2572 C   0  0  0  0  0  0  0  0  0  0  0  0
   28.0547  -20.4558   -7.3289 S   0  0  0  0  0  0  0  0  0  0  0  0
   27.7213  -20.8771   -9.0730 C   0  0  0  0  0  0  0  0  0  0  0  0
   26.2997  -21.3246   -9.2532 C   0  0  0  0  0  0  0  0  0  0  0  0
   25.7302  -21.1598  -10.6192 C   0  0  2  0  0  0  0  0  0  0  0  0
   26.7927  -20.7589  -11.5479 N   0  0  0  0  0  0  0  0  0  0  0  0
   24.5678  -20.2637  -10.7354 C   0  0  0  0  0  0  0  0  0  0  0  0
   24.7583  -19.0291  -10.8594 O   0  0  0  0  0  0  0  0  0  0  0  0
   22.9392  -20.5882  -18.2085 N   0  0  0  0  0  0  0  0  0  0  0  0
   21.8463  -19.7272  -17.8905 C   0  0  0  0  0  0  0  0  0  0  0  0
   21.1951  -19.1450  -18.8231 N   0  0  0  0  0  0  0  0  0  0  0  0
   21.5437  -19.5653  -16.5069 N   0  0  0  0  0  0  0  0  0  0  0  0
   22.3775  -20.2276  -15.5375 C   0  0  0  0  0  0  0  0  0  0  0  0
   21.8788  -19.9144  -14.1244 C   0  0  0  0  0  0  0  0  0  0  0  0
   22.7849  -20.5192  -13.0916 C   0  0  0  0  0  0  0  0  0  0  0  0
   22.3077  -20.2094  -11.7151 C   0  0  2  0  0  0  0  0  0  0  0  0
   23.2194  -20.7615  -10.7106 N   0  0  0  0  0  0  0  0  0  0  0  0
   20.9919  -20.8397  -11.4753 C   0  0  0  0  0  0  0  0  0  0  0  0
   19.9502  -20.1208  -11.6932 O   0  0  0  0  0  0  0  0  0  0  0  0
   20.8464  -22.1481  -11.0376 O   0  0  0  0  0  0  0  0  0  0  0  0
  2  1  1  6
  2  3  1  0
  3  4  1  0
  4  5  1  0
  5  9  1  0
  5  6  2  0
  7  2  1  0
  7  8  2  0
 10 11  1  0
 11 12  1  0
 13 12  1  0
 14 13  1  1
 14 15  1  0
 15  7  1  0
 16 14  1  0
 17 16  2  0
 18 19  1  0
 19 21  1  0
 20 19  2  0
 21 22  1  0
 22 23  1  0
 23 24  1  0
 25 24  1  6
 25 26  1  0
 25 27  1  0
 26 16  1  0
 27 29  1  0
 28 27  2  0
M  END
$$$$
