EMR.pdb
     RDKit          3D

 29 28  0  0  1  0  0  0  0  0999 V2000
   22.0705  -15.0978  -19.9894 N   0  0  0  0  0  0  0  0  0  0  0  0
   22.7215  -13.8525  -20.2496 C   0  0  1  0  0  0  0  0  0  0  0  0
   22.1086  -13.0714  -21.3914 C   0  0  0  0  0  0  0  0  0  0  0  0
   21.2266  -13.9964  -22.2055 C   0  0  0  0  0  0  0  0  0  0  0  0
   19.8736  -14.0841  -21.6031 C   0  0  0  0  0  0  0  0  0  0  0  0
   19.2014  -13.0466  -21.4157 O   0  0  0  0  0  0  0  0  0  0  0  0
   22.8546  -13.0580  -19.0149 C   0  0  0  0  0  0  0  0  0  0  0  0
   21.9318  -12.9392  -18.1647 O   0  0  0  0  0  0  0  0  0  0  0  0
   19.3364  -15.3072  -21.2411 O   0  0  0  0  0  0  0  0  0  0  0  0
   28.2969   -9.6754  -14.3859 C   0  0  0  0  0  0  0  0  0  0  0  0
   27.9494  -10.5529  -15.9314 S   0  0  0  0  0  0  0  0  0  0  0  0
   26.1428  -10.5153  -16.1868 C   0  0  0  0  0  0  0  0  0  0  0  0
   25.7456  -11.4004  -17.3324 C   0  0  0  0  0  0  0  0  0  0  0  0
   24.2841  -11.5171  -17.5926 C   0  0  2  0  0  0  0  0  0  0  0  0
   24.0607  -12.3900  -18.7503 N   0  0  0  0  0  0  0  0  0  0  0  0
   23.5468  -10.2514  -17.7414 C   0  0  0  0  0  0  0  0  0  0  0  0
   23.1730   -9.8930  -18.8850 O   0  0  0  0  0  0  0  0  0  0  0  0
   16.9465   -8.5373  -15.2932 N   0  0  0  0  0  0  0  0  0  0  0  0
   16.7446   -7.3514  -16.0611 C   0  0  0  0  0  0  0  0  0  0  0  0
   15.8006   -6.5444  -15.7600 N   0  0  0  0  0  0  0  0  0  0  0  0
   17.6373   -7.1381  -17.1518 N   0  0  0  0  0  0  0  0  0  0  0  0
   18.6186   -8.1500  -17.4465 C   0  0  0  0  0  0  0  0  0  0  0  0
   20.0020   -7.6792  -16.9900 C   0  0  0  0  0  0  0  0  0  0  0  0
   21.0607   -8.6662  -17.3883 C   0  0  0  0  0  0  0  0  0  0  0  0
   22.3984   -8.2467  -16.8851 C   0  0  2  0  0  0  0  0  0  0  0  0
   23.2425   -9.4126  -16.6143 N   0  0  0  0  0  0  0  0  0  0  0  0
   22.2597   -7.5252  -15.6021 C   0  0  0  0  0  0  0  0  0  0  0  0
   22.8235   -8.0473  -14.5730 O   0  0  0  0  0  0  0  0  0  0  0  0
   21.5625   -6.3325  -15.4744 O   0  0  0  0  0  0  0  0  0  0  0  0
  2  1  1  1
  2  3  1  0
  3  4  1  0
  4  5  1  0
  5  9  1  0
  5  6  2  0
  7  2  1  0
  7  8  2  0
 10 11  1  0
 11 12  1  0
 13 12  1  0
 14 13  1  6
 14 15  1  0
 15  7  1  0
 16 14  1  0
 17 16  2  0
 18 19  1  0
 19 21  1  0
 20 19  2  0
 21 22  1  0
 22 23  1  0
 23 24  1  0
 25 24  1  1
 25 26  1  0
 25 27  1  0
 26 16  1  0
 27 29  1  0
 28 27  2  0
M  END
$$$$
