EMR.pdb
     RDKit          3D

 29 28  0  0  1  0  0  0  0  0999 V2000
   20.8617  -21.5358  -10.8114 N   0  0  0  0  0  0  0  0  0  0  0  0
   21.2259  -20.9319  -12.0544 C   0  0  1  0  0  0  0  0  0  0  0  0
   20.2433  -19.8864  -12.5349 C   0  0  0  0  0  0  0  0  0  0  0  0
   18.8352  -20.3511  -12.2224 C   0  0  0  0  0  0  0  0  0  0  0  0
   18.3937  -21.3654  -13.2110 C   0  0  0  0  0  0  0  0  0  0  0  0
   17.2274  -21.8143  -13.1716 O   0  0  0  0  0  0  0  0  0  0  0  0
   22.6155  -20.4410  -12.0159 C   0  0  0  0  0  0  0  0  0  0  0  0
   23.0444  -19.5165  -12.7574 O   0  0  0  0  0  0  0  0  0  0  0  0
   19.2592  -21.8285  -14.1867 O   0  0  0  0  0  0  0  0  0  0  0  0
   26.9376  -19.0467   -6.9521 C   0  0  0  0  0  0  0  0  0  0  0  0
   27.1412  -20.7381   -7.5664 S   0  0  0  0  0  0  0  0  0  0  0  0
   26.8813  -20.6985   -9.3723 C   0  0  0  0  0  0  0  0  0  0  0  0
   25.4939  -21.1517   -9.7234 C   0  0  0  0  0  0  0  0  0  0  0  0
   24.9316  -20.6134  -10.9929 C   0  0  2  0  0  0  0  0  0  0  0  0
   23.5266  -21.0169  -11.1164 N   0  0  0  0  0  0  0  0  0  0  0  0
   25.6777  -20.9323  -12.2215 C   0  0  0  0  0  0  0  0  0  0  0  0
   25.8890  -22.1349  -12.5130 O   0  0  0  0  0  0  0  0  0  0  0  0
   27.3606  -18.6109  -19.6805 N   0  0  0  0  0  0  0  0  0  0  0  0
   26.8509  -17.6268  -18.7813 C   0  0  0  0  0  0  0  0  0  0  0  0
   25.9259  -16.8301  -19.1584 N   0  0  0  0  0  0  0  0  0  0  0  0
   27.4278  -17.5940  -17.4780 N   0  0  0  0  0  0  0  0  0  0  0  0
   28.5242  -18.4812  -17.1877 C   0  0  0  0  0  0  0  0  0  0  0  0
   28.0237  -19.6725  -16.3666 C   0  0  0  0  0  0  0  0  0  0  0  0
   27.2929  -19.2072  -15.1407 C   0  0  0  0  0  0  0  0  0  0  0  0
   26.8297  -20.3635  -14.3239 C   0  0  2  0  0  0  0  0  0  0  0  0
   26.1724  -19.9057  -13.0978 N   0  0  0  0  0  0  0  0  0  0  0  0
   27.9834  -21.1840  -13.8973 C   0  0  0  0  0  0  0  0  0  0  0  0
   28.6557  -20.7672  -12.8854 O   0  0  0  0  0  0  0  0  0  0  0  0
   28.3539  -22.3600  -14.5332 O   0  0  0  0  0  0  0  0  0  0  0  0
  2  1  1  1
  2  3  1  0
  3  4  1  0
  4  5  1  0
  5  9  1  0
  5  6  2  0
  7  2  1  0
  7  8  2  0
 10 11  1  0
 11 12  1  0
 13 12  1  0
 14 13  1  1
 14 15  1  0
 15  7  1  0
 16 14  1  0
 17 16  2  0
 18 19  1  0
 19 21  1  0
 20 19  2  0
 21 22  1  0
 22 23  1  0
 23 24  1  0
 25 24  1  1
 25 26  1  0
 25 27  1  0
 26 16  1  0
 27 29  1  0
 28 27  2  0
M  END
$$$$
