EMR.pdb
     RDKit          3D

 29 28  0  0  1  0  0  0  0  0999 V2000
   21.2445  -22.4080  -12.7388 N   0  0  0  0  0  0  0  0  0  0  0  0
   21.0866  -20.9876  -12.7274 C   0  0  1  0  0  0  0  0  0  0  0  0
   19.8201  -20.5208  -12.0436 C   0  0  0  0  0  0  0  0  0  0  0  0
   18.7536  -21.5862  -12.1983 C   0  0  0  0  0  0  0  0  0  0  0  0
   18.0094  -21.7618  -10.9269 C   0  0  0  0  0  0  0  0  0  0  0  0
   17.4687  -20.7787  -10.3751 O   0  0  0  0  0  0  0  0  0  0  0  0
   22.2978  -20.3258  -12.2094 C   0  0  0  0  0  0  0  0  0  0  0  0
   22.4182  -19.0745  -12.1180 O   0  0  0  0  0  0  0  0  0  0  0  0
   17.9019  -23.0079  -10.3344 O   0  0  0  0  0  0  0  0  0  0  0  0
   26.0039  -20.2227   -6.7510 C   0  0  0  0  0  0  0  0  0  0  0  0
   26.4742  -21.0686   -8.2817 S   0  0  0  0  0  0  0  0  0  0  0  0
   25.3824  -20.4488   -9.6061 C   0  0  0  0  0  0  0  0  0  0  0  0
   25.6246  -21.1889  -10.8896 C   0  0  0  0  0  0  0  0  0  0  0  0
   24.7908  -20.7737  -12.0514 C   0  0  2  0  0  0  0  0  0  0  0  0
   23.3863  -21.1074  -11.7907 N   0  0  0  0  0  0  0  0  0  0  0  0
   25.2129  -21.2788  -13.3684 C   0  0  0  0  0  0  0  0  0  0  0  0
   24.3398  -21.6697  -14.1813 O   0  0  0  0  0  0  0  0  0  0  0  0
   29.2946  -17.3980  -17.7878 N   0  0  0  0  0  0  0  0  0  0  0  0
   28.2339  -17.0259  -18.6672 C   0  0  0  0  0  0  0  0  0  0  0  0
   28.4852  -16.7142  -19.8806 N   0  0  0  0  0  0  0  0  0  0  0  0
   26.9193  -17.0239  -18.1157 N   0  0  0  0  0  0  0  0  0  0  0  0
   26.7477  -17.4244  -16.7432 C   0  0  0  0  0  0  0  0  0  0  0  0
   27.0514  -18.9178  -16.5970 C   0  0  0  0  0  0  0  0  0  0  0  0
   26.6411  -19.4164  -15.2417 C   0  0  0  0  0  0  0  0  0  0  0  0
   26.9149  -20.8740  -15.1035 C   0  0  2  0  0  0  0  0  0  0  0  0
   26.5974  -21.3380  -13.7511 N   0  0  0  0  0  0  0  0  0  0  0  0
   28.3531  -21.1468  -15.3111 C   0  0  0  0  0  0  0  0  0  0  0  0
   29.1369  -20.9463  -14.3136 O   0  0  0  0  0  0  0  0  0  0  0  0
   28.8723  -21.6034  -16.5139 O   0  0  0  0  0  0  0  0  0  0  0  0
  2  1  1  1
  2  3  1  0
  3  4  1  0
  4  5  1  0
  5  9  1  0
  5  6  2  0
  7  2  1  0
  7  8  2  0
 10 11  1  0
 11 12  1  0
 13 12  1  0
 14 13  1  1
 14 15  1  0
 15  7  1  0
 16 14  1  0
 17 16  2  0
 18 19  1  0
 19 21  1  0
 20 19  2  0
 21 22  1  0
 22 23  1  0
 23 24  1  0
 25 24  1  1
 25 26  1  0
 25 27  1  0
 26 16  1  0
 27 29  1  0
 28 27  2  0
M  END
$$$$
