EMR.pdb
     RDKit          3D

 29 28  0  0  1  0  0  0  0  0999 V2000
   18.9509  -24.7790  -14.7296 N   0  0  0  0  0  0  0  0  0  0  0  0
   19.0456  -24.3370  -13.3738 C   0  0  1  0  0  0  0  0  0  0  0  0
   18.3433  -23.0228  -13.1109 C   0  0  0  0  0  0  0  0  0  0  0  0
   19.3234  -21.8872  -13.3258 C   0  0  0  0  0  0  0  0  0  0  0  0
   18.8997  -21.0482  -14.4737 C   0  0  0  0  0  0  0  0  0  0  0  0
   17.7182  -20.6473  -14.5558 O   0  0  0  0  0  0  0  0  0  0  0  0
   18.6387  -25.4036  -12.4410 C   0  0  0  0  0  0  0  0  0  0  0  0
   17.4795  -25.8977  -12.4168 O   0  0  0  0  0  0  0  0  0  0  0  0
   19.7986  -20.6977  -15.4660 O   0  0  0  0  0  0  0  0  0  0  0  0
   22.1463  -30.1829   -9.2385 C   0  0  0  0  0  0  0  0  0  0  0  0
   22.0219  -29.8727  -11.0184 S   0  0  0  0  0  0  0  0  0  0  0  0
   20.5103  -28.8890  -11.2973 C   0  0  0  0  0  0  0  0  0  0  0  0
   20.3775  -27.8074  -10.2647 C   0  0  0  0  0  0  0  0  0  0  0  0
   19.2447  -26.8593  -10.4525 C   0  0  2  0  0  0  0  0  0  0  0  0
   19.5717  -25.9111  -11.5229 N   0  0  0  0  0  0  0  0  0  0  0  0
   18.7838  -26.1498   -9.2475 C   0  0  0  0  0  0  0  0  0  0  0  0
   18.7197  -24.8963   -9.2637 O   0  0  0  0  0  0  0  0  0  0  0  0
   12.7337  -22.1190   -8.5357 N   0  0  0  0  0  0  0  0  0  0  0  0
   13.7773  -21.3578   -7.9287 C   0  0  0  0  0  0  0  0  0  0  0  0
   13.6847  -20.0855   -7.8553 N   0  0  0  0  0  0  0  0  0  0  0  0
   14.8935  -22.0906   -7.4294 N   0  0  0  0  0  0  0  0  0  0  0  0
   14.9911  -23.4933   -7.7399 C   0  0  0  0  0  0  0  0  0  0  0  0
   16.3294  -24.0432   -7.2398 C   0  0  0  0  0  0  0  0  0  0  0  0
   16.4435  -25.5126   -7.5249 C   0  0  0  0  0  0  0  0  0  0  0  0
   17.7351  -26.0560   -7.0198 C   0  0  2  0  0  0  0  0  0  0  0  0
   18.4050  -26.8513   -8.0512 N   0  0  0  0  0  0  0  0  0  0  0  0
   17.4967  -26.9670   -5.8800 C   0  0  0  0  0  0  0  0  0  0  0  0
   17.3150  -28.2091   -6.1514 O   0  0  0  0  0  0  0  0  0  0  0  0
   17.4663  -26.5389   -4.5607 O   0  0  0  0  0  0  0  0  0  0  0  0
  2  1  1  6
  2  3  1  0
  3  4  1  0
  4  5  1  0
  5  9  1  0
  5  6  2  0
  7  2  1  0
  7  8  2  0
 10 11  1  0
 11 12  1  0
 13 12  1  0
 14 13  1  1
 14 15  1  0
 15  7  1  0
 16 14  1  0
 17 16  2  0
 18 19  1  0
 19 21  1  0
 20 19  2  0
 21 22  1  0
 22 23  1  0
 23 24  1  0
 25 24  1  6
 25 26  1  0
 25 27  1  0
 26 16  1  0
 27 29  1  0
 28 27  2  0
M  END
$$$$
