EMR.pdb
     RDKit          3D

 29 28  0  0  1  0  0  0  0  0999 V2000
   29.0436  -21.6847  -14.4560 N   0  0  0  0  0  0  0  0  0  0  0  0
   28.1926  -20.6834  -13.8940 C   0  0  1  0  0  0  0  0  0  0  0  0
   27.6014  -19.7407  -14.9193 C   0  0  0  0  0  0  0  0  0  0  0  0
   28.3266  -18.4122  -14.8451 C   0  0  0  0  0  0  0  0  0  0  0  0
   27.7888  -17.4718  -15.8588 C   0  0  0  0  0  0  0  0  0  0  0  0
   26.7616  -16.8030  -15.6121 O   0  0  0  0  0  0  0  0  0  0  0  0
   27.1758  -21.2877  -13.0141 C   0  0  0  0  0  0  0  0  0  0  0  0
   26.4413  -22.2506  -13.3634 O   0  0  0  0  0  0  0  0  0  0  0  0
   28.4107  -17.3200  -17.0859 O   0  0  0  0  0  0  0  0  0  0  0  0
   27.3056  -21.2598   -6.5478 C   0  0  0  0  0  0  0  0  0  0  0  0
   26.7920  -19.6073   -7.0814 S   0  0  0  0  0  0  0  0  0  0  0  0
   25.9908  -19.7839   -8.7115 C   0  0  0  0  0  0  0  0  0  0  0  0
   26.4251  -21.0525   -9.3867 C   0  0  0  0  0  0  0  0  0  0  0  0
   25.9580  -21.2406  -10.7881 C   0  0  2  0  0  0  0  0  0  0  0  0
   26.9971  -20.7824  -11.7166 N   0  0  0  0  0  0  0  0  0  0  0  0
   24.6549  -20.6437  -11.1249 C   0  0  0  0  0  0  0  0  0  0  0  0
   24.5988  -19.4241  -11.4165 O   0  0  0  0  0  0  0  0  0  0  0  0
   23.5555  -22.1399  -17.4563 N   0  0  0  0  0  0  0  0  0  0  0  0
   22.5774  -21.1308  -17.7050 C   0  0  0  0  0  0  0  0  0  0  0  0
   22.6273  -20.4388  -18.7782 N   0  0  0  0  0  0  0  0  0  0  0  0
   21.5764  -20.9528  -16.7058 N   0  0  0  0  0  0  0  0  0  0  0  0
   21.6382  -21.7631  -15.5171 C   0  0  0  0  0  0  0  0  0  0  0  0
   21.9788  -20.8864  -14.3090 C   0  0  0  0  0  0  0  0  0  0  0  0
   21.9677  -21.6933  -13.0432 C   0  0  0  0  0  0  0  0  0  0  0  0
   22.3143  -20.8470  -11.8674 C   0  0  2  0  0  0  0  0  0  0  0  0
   23.4433  -21.4175  -11.1292 N   0  0  0  0  0  0  0  0  0  0  0  0
   21.1798  -20.7964  -10.9207 C   0  0  0  0  0  0  0  0  0  0  0  0
   21.3897  -21.2344   -9.7317 O   0  0  0  0  0  0  0  0  0  0  0  0
   19.9292  -20.3020  -11.2616 O   0  0  0  0  0  0  0  0  0  0  0  0
  2  1  1  6
  2  3  1  0
  3  4  1  0
  4  5  1  0
  5  9  1  0
  5  6  2  0
  7  2  1  0
  7  8  2  0
 10 11  1  0
 11 12  1  0
 13 12  1  0
 14 13  1  1
 14 15  1  0
 15  7  1  0
 16 14  1  0
 17 16  2  0
 18 19  1  0
 19 21  1  0
 20 19  2  0
 21 22  1  0
 22 23  1  0
 23 24  1  0
 25 24  1  6
 25 26  1  0
 25 27  1  0
 26 16  1  0
 27 29  1  0
 28 27  2  0
M  END
$$$$
