EMR.pdb
     RDKit          3D

 29 28  0  0  1  0  0  0  0  0999 V2000
   28.4312  -20.1515  -14.2554 N   0  0  0  0  0  0  0  0  0  0  0  0
   27.5614  -21.2380  -14.5805 C   0  0  1  0  0  0  0  0  0  0  0  0
   28.2727  -22.4268  -15.1891 C   0  0  0  0  0  0  0  0  0  0  0  0
   29.2753  -21.9321  -16.2119 C   0  0  0  0  0  0  0  0  0  0  0  0
   28.6295  -21.7822  -17.5391 C   0  0  0  0  0  0  0  0  0  0  0  0
   28.4768  -20.6459  -18.0381 O   0  0  0  0  0  0  0  0  0  0  0  0
   26.7165  -21.6009  -13.4282 C   0  0  0  0  0  0  0  0  0  0  0  0
   25.8683  -22.5327  -13.4574 O   0  0  0  0  0  0  0  0  0  0  0  0
   28.1881  -22.8896  -18.2422 O   0  0  0  0  0  0  0  0  0  0  0  0
   28.5536  -20.5362   -7.6080 C   0  0  0  0  0  0  0  0  0  0  0  0
   26.8215  -20.3531   -7.1122 S   0  0  0  0  0  0  0  0  0  0  0  0
   25.7941  -20.6823   -8.5841 C   0  0  0  0  0  0  0  0  0  0  0  0
   26.6353  -20.7175   -9.8270 C   0  0  0  0  0  0  0  0  0  0  0  0
   25.9120  -20.9954  -11.0987 C   0  0  2  0  0  0  0  0  0  0  0  0
   26.8440  -20.8868  -12.2263 N   0  0  0  0  0  0  0  0  0  0  0  0
   24.6984  -20.1987  -11.3441 C   0  0  0  0  0  0  0  0  0  0  0  0
   24.8116  -19.0476  -11.8318 O   0  0  0  0  0  0  0  0  0  0  0  0
   19.1170  -22.1676  -15.5658 N   0  0  0  0  0  0  0  0  0  0  0  0
   19.6974  -21.4561  -16.6584 C   0  0  0  0  0  0  0  0  0  0  0  0
   18.9508  -20.9416  -17.5588 N   0  0  0  0  0  0  0  0  0  0  0  0
   21.1200  -21.3646  -16.6761 N   0  0  0  0  0  0  0  0  0  0  0  0
   21.8590  -21.9104  -15.5673 C   0  0  0  0  0  0  0  0  0  0  0  0
   21.5440  -21.1197  -14.2947 C   0  0  0  0  0  0  0  0  0  0  0  0
   22.6548  -21.2533  -13.2939 C   0  0  0  0  0  0  0  0  0  0  0  0
   22.3567  -20.4767  -12.0583 C   0  0  2  0  0  0  0  0  0  0  0  0
   23.3859  -20.7008  -11.0407 N   0  0  0  0  0  0  0  0  0  0  0  0
   21.0793  -20.9276  -11.4659 C   0  0  0  0  0  0  0  0  0  0  0  0
   21.1486  -21.6591  -10.4125 O   0  0  0  0  0  0  0  0  0  0  0  0
   19.8398  -20.5941  -11.9923 O   0  0  0  0  0  0  0  0  0  0  0  0
  2  1  1  1
  2  3  1  0
  3  4  1  0
  4  5  1  0
  5  9  1  0
  5  6  2  0
  7  2  1  0
  7  8  2  0
 10 11  1  0
 11 12  1  0
 13 12  1  0
 14 13  1  1
 14 15  1  0
 15  7  1  0
 16 14  1  0
 17 16  2  0
 18 19  1  0
 19 21  1  0
 20 19  2  0
 21 22  1  0
 22 23  1  0
 23 24  1  0
 25 24  1  6
 25 26  1  0
 25 27  1  0
 26 16  1  0
 27 29  1  0
 28 27  2  0
M  END
$$$$
