EMR.pdb
     RDKit          3D

 29 28  0  0  1  0  0  0  0  0999 V2000
   27.3151  -14.2518  -17.9805 N   0  0  0  0  0  0  0  0  0  0  0  0
   27.5172  -13.4526  -19.1479 C   0  0  1  0  0  0  0  0  0  0  0  0
   26.5022  -13.7038  -20.2416 C   0  0  0  0  0  0  0  0  0  0  0  0
   26.0238  -15.1388  -20.1516 C   0  0  0  0  0  0  0  0  0  0  0  0
   25.0218  -15.4175  -21.2096 C   0  0  0  0  0  0  0  0  0  0  0  0
   25.2554  -15.0970  -22.3954 O   0  0  0  0  0  0  0  0  0  0  0  0
   27.6432  -12.0265  -18.7962 C   0  0  0  0  0  0  0  0  0  0  0  0
   27.9505  -11.1320  -19.6293 O   0  0  0  0  0  0  0  0  0  0  0  0
   23.8202  -16.0327  -20.9042 O   0  0  0  0  0  0  0  0  0  0  0  0
   22.3847   -9.3415  -15.3086 C   0  0  0  0  0  0  0  0  0  0  0  0
   24.0963   -9.5495  -14.7548 S   0  0  0  0  0  0  0  0  0  0  0  0
   25.1374   -9.7080  -16.2452 C   0  0  0  0  0  0  0  0  0  0  0  0
   26.5574  -10.0246  -15.8750 C   0  0  0  0  0  0  0  0  0  0  0  0
   27.4992  -10.2293  -17.0102 C   0  0  2  0  0  0  0  0  0  0  0  0
   27.4148  -11.6190  -17.4723 N   0  0  0  0  0  0  0  0  0  0  0  0
   28.8993   -9.8411  -16.7717 C   0  0  0  0  0  0  0  0  0  0  0  0
   29.5000  -10.3051  -15.7719 O   0  0  0  0  0  0  0  0  0  0  0  0
   35.7871  -13.1000  -18.5158 N   0  0  0  0  0  0  0  0  0  0  0  0
   36.3676  -11.8415  -18.1751 C   0  0  0  0  0  0  0  0  0  0  0  0
   37.6377  -11.7159  -18.1132 N   0  0  0  0  0  0  0  0  0  0  0  0
   35.4625  -10.7712  -17.9151 N   0  0  0  0  0  0  0  0  0  0  0  0
   34.0483  -11.0350  -17.9767 C   0  0  0  0  0  0  0  0  0  0  0  0
   33.2685   -9.7721  -17.6013 C   0  0  0  0  0  0  0  0  0  0  0  0
   31.7902   -9.9986  -17.7308 C   0  0  0  0  0  0  0  0  0  0  0  0
   31.0287   -8.7653  -17.3873 C   0  0  2  0  0  0  0  0  0  0  0  0
   29.5993   -8.9448  -17.6510 N   0  0  0  0  0  0  0  0  0  0  0  0
   31.4709   -7.6377  -18.2352 C   0  0  0  0  0  0  0  0  0  0  0  0
   30.7529   -7.3620  -19.2637 O   0  0  0  0  0  0  0  0  0  0  0  0
   32.6036   -6.8839  -17.9641 O   0  0  0  0  0  0  0  0  0  0  0  0
  2  1  1  1
  2  3  1  0
  3  4  1  0
  4  5  1  0
  5  9  1  0
  5  6  2  0
  7  2  1  0
  7  8  2  0
 10 11  1  0
 11 12  1  0
 13 12  1  0
 14 13  1  1
 14 15  1  0
 15  7  1  0
 16 14  1  0
 17 16  2  0
 18 19  1  0
 19 21  1  0
 20 19  2  0
 21 22  1  0
 22 23  1  0
 23 24  1  0
 25 24  1  6
 25 26  1  0
 25 27  1  0
 26 16  1  0
 27 29  1  0
 28 27  2  0
M  END
$$$$
