EMR.pdb
     RDKit          3D

 29 28  0  0  1  0  0  0  0  0999 V2000
   16.0542  -27.6509   -5.5170 N   0  0  0  0  0  0  0  0  0  0  0  0
   16.5113  -26.6117   -4.6489 C   0  0  1  0  0  0  0  0  0  0  0  0
   15.5260  -25.4746   -4.4882 C   0  0  0  0  0  0  0  0  0  0  0  0
   15.4181  -24.7252   -5.8008 C   0  0  0  0  0  0  0  0  0  0  0  0
   16.7002  -24.0494   -6.1178 C   0  0  0  0  0  0  0  0  0  0  0  0
   17.3524  -23.4843   -5.2130 O   0  0  0  0  0  0  0  0  0  0  0  0
   16.9689  -27.1630   -3.3605 C   0  0  0  0  0  0  0  0  0  0  0  0
   16.3085  -28.0036   -2.6929 O   0  0  0  0  0  0  0  0  0  0  0  0
   17.1925  -24.0331   -7.4112 O   0  0  0  0  0  0  0  0  0  0  0  0
   22.4849  -24.7430    0.0030 C   0  0  0  0  0  0  0  0  0  0  0  0
   22.5599  -26.5489   -0.1097 S   0  0  0  0  0  0  0  0  0  0  0  0
   20.8429  -27.1665   -0.1359 C   0  0  0  0  0  0  0  0  0  0  0  0
   20.1432  -26.7494   -1.3969 C   0  0  0  0  0  0  0  0  0  0  0  0
   18.7183  -27.1635   -1.5219 C   0  0  2  0  0  0  0  0  0  0  0  0
   18.1995  -26.7458   -2.8290 N   0  0  0  0  0  0  0  0  0  0  0  0
   17.8183  -26.7322   -0.4394 C   0  0  0  0  0  0  0  0  0  0  0  0
   17.3612  -25.5632   -0.4544 O   0  0  0  0  0  0  0  0  0  0  0  0
   11.3879  -26.6835   -1.5515 N   0  0  0  0  0  0  0  0  0  0  0  0
   12.7191  -26.2908   -1.8838 C   0  0  0  0  0  0  0  0  0  0  0  0
   13.0664  -26.1696   -3.1075 N   0  0  0  0  0  0  0  0  0  0  0  0
   13.6052  -26.0537   -0.7925 N   0  0  0  0  0  0  0  0  0  0  0  0
   13.1722  -26.4053    0.5351 C   0  0  0  0  0  0  0  0  0  0  0  0
   14.3216  -26.2031    1.5260 C   0  0  0  0  0  0  0  0  0  0  0  0
   15.2097  -27.4126    1.5681 C   0  0  0  0  0  0  0  0  0  0  0  0
   16.6401  -27.0204    1.7053 C   0  0  2  0  0  0  0  0  0  0  0  0
   17.4476  -27.6114    0.6358 N   0  0  0  0  0  0  0  0  0  0  0  0
   17.1922  -27.5339    2.9771 C   0  0  0  0  0  0  0  0  0  0  0  0
   18.1319  -28.4058    2.8976 O   0  0  0  0  0  0  0  0  0  0  0  0
   16.7448  -27.1153    4.2218 O   0  0  0  0  0  0  0  0  0  0  0  0
  2  1  1  6
  2  3  1  0
  3  4  1  0
  4  5  1  0
  5  9  1  0
  5  6  2  0
  7  2  1  0
  7  8  2  0
 10 11  1  0
 11 12  1  0
 13 12  1  0
 14 13  1  1
 14 15  1  0
 15  7  1  0
 16 14  1  0
 17 16  2  0
 18 19  1  0
 19 21  1  0
 20 19  2  0
 21 22  1  0
 22 23  1  0
 23 24  1  0
 25 24  1  6
 25 26  1  0
 25 27  1  0
 26 16  1  0
 27 29  1  0
 28 27  2  0
M  END
$$$$
