EMR.pdb
     RDKit          3D

 29 28  0  0  1  0  0  0  0  0999 V2000
   26.9083  -19.9926  -15.4605 N   0  0  0  0  0  0  0  0  0  0  0  0
   26.6729  -21.4021  -15.4429 C   0  0  1  0  0  0  0  0  0  0  0  0
   27.8847  -22.2270  -15.8179 C   0  0  0  0  0  0  0  0  0  0  0  0
   28.1783  -22.0319  -17.2917 C   0  0  0  0  0  0  0  0  0  0  0  0
   29.5665  -21.5444  -17.4826 C   0  0  0  0  0  0  0  0  0  0  0  0
   30.5348  -22.2568  -17.1387 O   0  0  0  0  0  0  0  0  0  0  0  0
   26.0648  -21.8201  -14.1666 C   0  0  0  0  0  0  0  0  0  0  0  0
   25.6960  -23.0016  -13.9291 O   0  0  0  0  0  0  0  0  0  0  0  0
   29.8113  -20.3018  -18.0406 O   0  0  0  0  0  0  0  0  0  0  0  0
   27.8670  -20.2933   -7.9679 C   0  0  0  0  0  0  0  0  0  0  0  0
   26.2962  -19.4316   -8.2316 S   0  0  0  0  0  0  0  0  0  0  0  0
   25.3266  -20.4158   -9.4239 C   0  0  0  0  0  0  0  0  0  0  0  0
   25.9525  -20.3728  -10.7877 C   0  0  0  0  0  0  0  0  0  0  0  0
   25.2713  -21.1694  -11.8455 C   0  0  2  0  0  0  0  0  0  0  0  0
   25.8759  -20.8720  -13.1486 N   0  0  0  0  0  0  0  0  0  0  0  0
   23.8054  -21.0478  -11.9086 C   0  0  0  0  0  0  0  0  0  0  0  0
   23.2970  -20.1539  -12.6285 O   0  0  0  0  0  0  0  0  0  0  0  0
   16.6851  -24.7383   -8.8519 N   0  0  0  0  0  0  0  0  0  0  0  0
   16.1679  -24.2490  -10.0888 C   0  0  0  0  0  0  0  0  0  0  0  0
   14.9068  -24.1234  -10.2528 N   0  0  0  0  0  0  0  0  0  0  0  0
   17.1234  -23.9235  -11.0955 N   0  0  0  0  0  0  0  0  0  0  0  0
   18.5226  -24.0792  -10.7929 C   0  0  0  0  0  0  0  0  0  0  0  0
   19.2761  -22.7949  -11.1489 C   0  0  0  0  0  0  0  0  0  0  0  0
   20.7520  -22.9640  -10.9332 C   0  0  0  0  0  0  0  0  0  0  0  0
   21.5023  -21.7705  -11.4142 C   0  0  2  0  0  0  0  0  0  0  0  0
   22.9380  -21.9235  -11.1687 N   0  0  0  0  0  0  0  0  0  0  0  0
   21.0781  -20.5650  -10.6708 C   0  0  0  0  0  0  0  0  0  0  0  0
   21.7836  -20.2272   -9.6521 O   0  0  0  0  0  0  0  0  0  0  0  0
   19.9748  -19.8033  -11.0275 O   0  0  0  0  0  0  0  0  0  0  0  0
  2  1  1  1
  2  3  1  0
  3  4  1  0
  4  5  1  0
  5  9  1  0
  5  6  2  0
  7  2  1  0
  7  8  2  0
 10 11  1  0
 11 12  1  0
 13 12  1  0
 14 13  1  1
 14 15  1  0
 15  7  1  0
 16 14  1  0
 17 16  2  0
 18 19  1  0
 19 21  1  0
 20 19  2  0
 21 22  1  0
 22 23  1  0
 23 24  1  0
 25 24  1  1
 25 26  1  0
 25 27  1  0
 26 16  1  0
 27 29  1  0
 28 27  2  0
M  END
$$$$
