EMR.pdb
     RDKit          3D

 29 28  0  0  1  0  0  0  0  0999 V2000
   24.7871  -22.0559  -10.6719 N   0  0  0  0  0  0  0  0  0  0  0  0
   24.8541  -22.0994  -12.0988 C   0  0  1  0  0  0  0  0  0  0  0  0
   23.5735  -22.5676  -12.7549 C   0  0  0  0  0  0  0  0  0  0  0  0
   23.3438  -24.0243  -12.4065 C   0  0  0  0  0  0  0  0  0  0  0  0
   24.0198  -24.9047  -13.3909 C   0  0  0  0  0  0  0  0  0  0  0  0
   24.7093  -24.4077  -14.3079 O   0  0  0  0  0  0  0  0  0  0  0  0
   25.3458  -20.8209  -12.6436 C   0  0  0  0  0  0  0  0  0  0  0  0
   25.1643  -19.7104  -12.0759 O   0  0  0  0  0  0  0  0  0  0  0  0
   23.8994  -26.2812  -13.3113 O   0  0  0  0  0  0  0  0  0  0  0  0
   30.8641  -19.0061  -12.1310 C   0  0  0  0  0  0  0  0  0  0  0  0
   29.3213  -19.7498  -12.7194 S   0  0  0  0  0  0  0  0  0  0  0  0
   29.2831  -19.5650  -14.5345 C   0  0  0  0  0  0  0  0  0  0  0  0
   27.9902  -20.0797  -15.0978 C   0  0  0  0  0  0  0  0  0  0  0  0
   26.7512  -19.6418  -14.3973 C   0  0  2  0  0  0  0  0  0  0  0  0
   26.0546  -20.8136  -13.8555 N   0  0  0  0  0  0  0  0  0  0  0  0
   25.8287  -18.7974  -15.1742 C   0  0  0  0  0  0  0  0  0  0  0  0
   25.0413  -19.3404  -15.9871 O   0  0  0  0  0  0  0  0  0  0  0  0
   25.4884  -11.9244  -17.9254 N   0  0  0  0  0  0  0  0  0  0  0  0
   24.0904  -11.6898  -18.0907 C   0  0  0  0  0  0  0  0  0  0  0  0
   23.6674  -11.0008  -19.0803 N   0  0  0  0  0  0  0  0  0  0  0  0
   23.2280  -12.2564  -17.1071 N   0  0  0  0  0  0  0  0  0  0  0  0
   23.8174  -12.9613  -15.9983 C   0  0  0  0  0  0  0  0  0  0  0  0
   23.7226  -14.4710  -16.2344 C   0  0  0  0  0  0  0  0  0  0  0  0
   24.8206  -15.1950  -15.5106 C   0  0  0  0  0  0  0  0  0  0  0  0
   24.7259  -16.6652  -15.7300 C   0  0  2  0  0  0  0  0  0  0  0  0
   25.8036  -17.3673  -15.0295 N   0  0  0  0  0  0  0  0  0  0  0  0
   24.8869  -16.9803  -17.1655 C   0  0  0  0  0  0  0  0  0  0  0  0
   23.8150  -17.1725  -17.8464 O   0  0  0  0  0  0  0  0  0  0  0  0
   26.1234  -17.0700  -17.7880 O   0  0  0  0  0  0  0  0  0  0  0  0
  2  1  1  1
  2  3  1  0
  3  4  1  0
  4  5  1  0
  5  9  1  0
  5  6  2  0
  7  2  1  0
  7  8  2  0
 10 11  1  0
 11 12  1  0
 13 12  1  0
 14 13  1  6
 14 15  1  0
 15  7  1  0
 16 14  1  0
 17 16  2  0
 18 19  1  0
 19 21  1  0
 20 19  2  0
 21 22  1  0
 22 23  1  0
 23 24  1  0
 25 24  1  6
 25 26  1  0
 25 27  1  0
 26 16  1  0
 27 29  1  0
 28 27  2  0
M  END
$$$$
