EMR.pdb
     RDKit          3D

 29 28  0  0  1  0  0  0  0  0999 V2000
   27.3528  -15.7552  -17.0939 N   0  0  0  0  0  0  0  0  0  0  0  0
   26.7231  -16.0663  -15.8493 C   0  0  1  0  0  0  0  0  0  0  0  0
   25.6320  -15.0936  -15.4585 C   0  0  0  0  0  0  0  0  0  0  0  0
   26.2148  -13.6961  -15.3971 C   0  0  0  0  0  0  0  0  0  0  0  0
   25.2975  -12.7242  -16.0414 C   0  0  0  0  0  0  0  0  0  0  0  0
   24.2296  -13.1173  -16.5594 O   0  0  0  0  0  0  0  0  0  0  0  0
   26.2790  -17.4717  -15.8190 C   0  0  0  0  0  0  0  0  0  0  0  0
   25.7863  -18.0642  -16.8163 O   0  0  0  0  0  0  0  0  0  0  0  0
   25.6062  -11.3756  -16.0797 O   0  0  0  0  0  0  0  0  0  0  0  0
   29.9277  -22.5796  -16.1428 C   0  0  0  0  0  0  0  0  0  0  0  0
   28.4388  -22.3980  -15.1280 S   0  0  0  0  0  0  0  0  0  0  0  0
   28.2822  -20.6312  -14.6987 C   0  0  0  0  0  0  0  0  0  0  0  0
   27.0687  -20.3926  -13.8477 C   0  0  0  0  0  0  0  0  0  0  0  0
   25.9735  -19.6038  -14.4768 C   0  0  2  0  0  0  0  0  0  0  0  0
   26.4002  -18.2087  -14.6302 N   0  0  0  0  0  0  0  0  0  0  0  0
   24.6577  -19.6796  -13.8204 C   0  0  0  0  0  0  0  0  0  0  0  0
   24.5511  -19.3199  -12.6225 O   0  0  0  0  0  0  0  0  0  0  0  0
   17.5962  -16.7633  -16.6428 N   0  0  0  0  0  0  0  0  0  0  0  0
   18.8809  -17.1390  -17.1378 C   0  0  0  0  0  0  0  0  0  0  0  0
   19.3185  -16.6421  -18.2307 N   0  0  0  0  0  0  0  0  0  0  0  0
   19.6161  -18.0774  -16.3560 N   0  0  0  0  0  0  0  0  0  0  0  0
   19.0060  -18.6094  -15.1651 C   0  0  0  0  0  0  0  0  0  0  0  0
   19.9336  -19.6462  -14.5260 C   0  0  0  0  0  0  0  0  0  0  0  0
   21.3127  -19.0845  -14.3364 C   0  0  0  0  0  0  0  0  0  0  0  0
   22.2319  -20.1073  -13.7638 C   0  0  2  0  0  0  0  0  0  0  0  0
   23.4902  -20.1544  -14.5118 N   0  0  0  0  0  0  0  0  0  0  0  0
   21.6312  -21.4539  -13.8727 C   0  0  0  0  0  0  0  0  0  0  0  0
   22.1022  -22.2334  -14.7783 O   0  0  0  0  0  0  0  0  0  0  0  0
   20.6051  -21.8952  -13.0499 O   0  0  0  0  0  0  0  0  0  0  0  0
  2  1  1  6
  2  3  1  0
  3  4  1  0
  4  5  1  0
  5  9  1  0
  5  6  2  0
  7  2  1  0
  7  8  2  0
 10 11  1  0
 11 12  1  0
 13 12  1  0
 14 13  1  1
 14 15  1  0
 15  7  1  0
 16 14  1  0
 17 16  2  0
 18 19  1  0
 19 21  1  0
 20 19  2  0
 21 22  1  0
 22 23  1  0
 23 24  1  0
 25 24  1  6
 25 26  1  0
 25 27  1  0
 26 16  1  0
 27 29  1  0
 28 27  2  0
M  END
$$$$
