EMR.pdb
     RDKit          3D

 29 28  0  0  1  0  0  0  0  0999 V2000
   20.1803  -20.4641  -10.6975 N   0  0  0  0  0  0  0  0  0  0  0  0
   21.1045  -20.8650  -11.7112 C   0  0  1  0  0  0  0  0  0  0  0  0
   20.5547  -20.7513  -13.1164 C   0  0  0  0  0  0  0  0  0  0  0  0
   20.1355  -22.1264  -13.5955 C   0  0  0  0  0  0  0  0  0  0  0  0
   18.8724  -22.5411  -12.9369 C   0  0  0  0  0  0  0  0  0  0  0  0
   17.8107  -21.9232  -13.1700 O   0  0  0  0  0  0  0  0  0  0  0  0
   22.4007  -20.1831  -11.5436 C   0  0  0  0  0  0  0  0  0  0  0  0
   22.6070  -19.2901  -10.6785 O   0  0  0  0  0  0  0  0  0  0  0  0
   18.8482  -23.6113  -12.0596 O   0  0  0  0  0  0  0  0  0  0  0  0
   28.3414  -20.0121   -8.0482 C   0  0  0  0  0  0  0  0  0  0  0  0
   26.6165  -20.3578   -8.4782 S   0  0  0  0  0  0  0  0  0  0  0  0
   26.5838  -20.8832  -10.2256 C   0  0  0  0  0  0  0  0  0  0  0  0
   25.1723  -20.9929  -10.7251 C   0  0  0  0  0  0  0  0  0  0  0  0
   24.8870  -20.3338  -12.0296 C   0  0  2  0  0  0  0  0  0  0  0  0
   23.4755  -20.5281  -12.3784 N   0  0  0  0  0  0  0  0  0  0  0  0
   25.7606  -20.7105  -13.1533 C   0  0  0  0  0  0  0  0  0  0  0  0
   25.7518  -21.8971  -13.5627 O   0  0  0  0  0  0  0  0  0  0  0  0
   27.8991  -14.1753  -17.5349 N   0  0  0  0  0  0  0  0  0  0  0  0
   27.1298  -15.2073  -18.1513 C   0  0  0  0  0  0  0  0  0  0  0  0
   26.7508  -15.0875  -19.3657 N   0  0  0  0  0  0  0  0  0  0  0  0
   26.8218  -16.3415  -17.3445 N   0  0  0  0  0  0  0  0  0  0  0  0
   27.3718  -16.4110  -16.0155 C   0  0  0  0  0  0  0  0  0  0  0  0
   26.8647  -17.6714  -15.3097 C   0  0  0  0  0  0  0  0  0  0  0  0
   27.4837  -18.9028  -15.9048 C   0  0  0  0  0  0  0  0  0  0  0  0
   27.1035  -20.1183  -15.1325 C   0  0  2  0  0  0  0  0  0  0  0  0
   26.6247  -19.7582  -13.7960 N   0  0  0  0  0  0  0  0  0  0  0  0
   28.2825  -20.9878  -14.9329 C   0  0  0  0  0  0  0  0  0  0  0  0
   29.2414  -20.5189  -14.2186 O   0  0  0  0  0  0  0  0  0  0  0  0
   28.3856  -22.2614  -15.4733 O   0  0  0  0  0  0  0  0  0  0  0  0
  2  1  1  1
  2  3  1  0
  3  4  1  0
  4  5  1  0
  5  9  1  0
  5  6  2  0
  7  2  1  0
  7  8  2  0
 10 11  1  0
 11 12  1  0
 13 12  1  0
 14 13  1  1
 14 15  1  0
 15  7  1  0
 16 14  1  0
 17 16  2  0
 18 19  1  0
 19 21  1  0
 20 19  2  0
 21 22  1  0
 22 23  1  0
 23 24  1  0
 25 24  1  6
 25 26  1  0
 25 27  1  0
 26 16  1  0
 27 29  1  0
 28 27  2  0
M  END
$$$$
