EMR.pdb
     RDKit          3D

 29 28  0  0  1  0  0  0  0  0999 V2000
   17.0161  -12.1836  -14.4676 N   0  0  0  0  0  0  0  0  0  0  0  0
   16.7409  -10.7816  -14.4336 C   0  0  1  0  0  0  0  0  0  0  0  0
   15.2676  -10.4476  -14.5197 C   0  0  0  0  0  0  0  0  0  0  0  0
   14.7342  -10.9078  -15.8614 C   0  0  0  0  0  0  0  0  0  0  0  0
   14.8165   -9.8094  -16.8553 C   0  0  0  0  0  0  0  0  0  0  0  0
   15.3685   -8.7291  -16.5527 O   0  0  0  0  0  0  0  0  0  0  0  0
   17.4105  -10.1396  -13.2879 C   0  0  0  0  0  0  0  0  0  0  0  0
   17.5223  -10.6841  -12.1568 O   0  0  0  0  0  0  0  0  0  0  0  0
   14.2874   -9.9609  -18.1252 O   0  0  0  0  0  0  0  0  0  0  0  0
   22.1632   -6.4945  -14.4012 C   0  0  0  0  0  0  0  0  0  0  0  0
   22.0625   -5.8479  -12.7126 S   0  0  0  0  0  0  0  0  0  0  0  0
   20.6558   -6.6737  -11.8944 C   0  0  0  0  0  0  0  0  0  0  0  0
   19.8719   -7.4948  -12.8768 C   0  0  0  0  0  0  0  0  0  0  0  0
   18.6157   -8.1070  -12.3624 C   0  0  2  0  0  0  0  0  0  0  0  0
   17.9591   -8.8562  -13.4392 N   0  0  0  0  0  0  0  0  0  0  0  0
   17.6666   -7.1913  -11.7077 C   0  0  0  0  0  0  0  0  0  0  0  0
   17.0326   -6.3651  -12.4086 O   0  0  0  0  0  0  0  0  0  0  0  0
   13.3697  -10.9702   -9.4793 N   0  0  0  0  0  0  0  0  0  0  0  0
   12.3735  -10.1306   -8.8967 C   0  0  0  0  0  0  0  0  0  0  0  0
   11.1649  -10.5356   -8.8065 N   0  0  0  0  0  0  0  0  0  0  0  0
   12.8054   -8.8510   -8.4401 N   0  0  0  0  0  0  0  0  0  0  0  0
   13.1624   -7.8556   -9.4175 C   0  0  0  0  0  0  0  0  0  0  0  0
   14.6563   -7.9554   -9.7373 C   0  0  0  0  0  0  0  0  0  0  0  0
   15.4433   -6.9660   -8.9279 C   0  0  0  0  0  0  0  0  0  0  0  0
   16.4533   -6.2686   -9.7719 C   0  0  2  0  0  0  0  0  0  0  0  0
   17.4448   -7.2152  -10.2876 N   0  0  0  0  0  0  0  0  0  0  0  0
   17.2004   -5.2803   -8.9650 C   0  0  0  0  0  0  0  0  0  0  0  0
   16.5687   -4.2219   -8.6041 O   0  0  0  0  0  0  0  0  0  0  0  0
   18.5250   -5.4530   -8.5906 O   0  0  0  0  0  0  0  0  0  0  0  0
  2  1  1  1
  2  3  1  0
  3  4  1  0
  4  5  1  0
  5  9  1  0
  5  6  2  0
  7  2  1  0
  7  8  2  0
 10 11  1  0
 11 12  1  0
 13 12  1  0
 14 13  1  6
 14 15  1  0
 15  7  1  0
 16 14  1  0
 17 16  2  0
 18 19  1  0
 19 21  1  0
 20 19  2  0
 21 22  1  0
 22 23  1  0
 23 24  1  0
 25 24  1  1
 25 26  1  0
 25 27  1  0
 26 16  1  0
 27 29  1  0
 28 27  2  0
M  END
$$$$
