EMR.pdb
     RDKit          3D

 29 28  0  0  1  0  0  0  0  0999 V2000
   19.2166  -11.5455  -18.5453 N   0  0  0  0  0  0  0  0  0  0  0  0
   18.6343  -12.2542  -17.4493 C   0  0  1  0  0  0  0  0  0  0  0  0
   19.0821  -13.6960  -17.3492 C   0  0  0  0  0  0  0  0  0  0  0  0
   18.9656  -14.3455  -18.7133 C   0  0  0  0  0  0  0  0  0  0  0  0
   19.5350  -15.7152  -18.6846 C   0  0  0  0  0  0  0  0  0  0  0  0
   20.5391  -15.9922  -19.3762 O   0  0  0  0  0  0  0  0  0  0  0  0
   18.8051  -11.5096  -16.1885 C   0  0  0  0  0  0  0  0  0  0  0  0
   18.4640  -11.9645  -15.0637 O   0  0  0  0  0  0  0  0  0  0  0  0
   18.9683  -16.7025  -17.8975 O   0  0  0  0  0  0  0  0  0  0  0  0
   22.2793   -7.1357  -11.4962 C   0  0  0  0  0  0  0  0  0  0  0  0
   22.0205   -8.3743  -12.7918 S   0  0  0  0  0  0  0  0  0  0  0  0
   21.1206   -7.5598  -14.1545 C   0  0  0  0  0  0  0  0  0  0  0  0
   20.8033   -8.5392  -15.2471 C   0  0  0  0  0  0  0  0  0  0  0  0
   19.6106   -9.4028  -15.0254 C   0  0  2  0  0  0  0  0  0  0  0  0
   19.3739  -10.2264  -16.2160 N   0  0  0  0  0  0  0  0  0  0  0  0
   18.3769   -8.7140  -14.6117 C   0  0  0  0  0  0  0  0  0  0  0  0
   17.7030   -8.0979  -15.4731 O   0  0  0  0  0  0  0  0  0  0  0  0
   12.4912   -9.4053   -8.1149 N   0  0  0  0  0  0  0  0  0  0  0  0
   11.9492   -8.3591   -8.9202 C   0  0  0  0  0  0  0  0  0  0  0  0
   10.7991   -7.8718   -8.6511 N   0  0  0  0  0  0  0  0  0  0  0  0
   12.7520   -7.9124  -10.0103 N   0  0  0  0  0  0  0  0  0  0  0  0
   14.0225   -8.5511  -10.2370 C   0  0  0  0  0  0  0  0  0  0  0  0
   14.6554   -8.0060  -11.5200 C   0  0  0  0  0  0  0  0  0  0  0  0
   15.9968   -8.6345  -11.7630 C   0  0  0  0  0  0  0  0  0  0  0  0
   16.6308   -8.0815  -12.9922 C   0  0  2  0  0  0  0  0  0  0  0  0
   17.9209   -8.7259  -13.2483 N   0  0  0  0  0  0  0  0  0  0  0  0
   16.9114   -6.6402  -12.8197 C   0  0  0  0  0  0  0  0  0  0  0  0
   18.0077   -6.3238  -12.2301 O   0  0  0  0  0  0  0  0  0  0  0  0
   16.0557   -5.6427  -13.2639 O   0  0  0  0  0  0  0  0  0  0  0  0
  2  1  1  6
  2  3  1  0
  3  4  1  0
  4  5  1  0
  5  9  1  0
  5  6  2  0
  7  2  1  0
  7  8  2  0
 10 11  1  0
 11 12  1  0
 13 12  1  0
 14 13  1  6
 14 15  1  0
 15  7  1  0
 16 14  1  0
 17 16  2  0
 18 19  1  0
 19 21  1  0
 20 19  2  0
 21 22  1  0
 22 23  1  0
 23 24  1  0
 25 24  1  1
 25 26  1  0
 25 27  1  0
 26 16  1  0
 27 29  1  0
 28 27  2  0
M  END
$$$$
