IME.pdb
     RDKit          3D

 26 25  0  0  1  0  0  0  0  0999 V2000
    6.7812  -12.6642   17.8145 C   0  0  0  0  0  0  0  0  0  0  0  0
    7.3229  -13.9205   18.4331 C   0  0  0  0  0  0  0  0  0  0  0  0
    7.9228  -13.6526   19.8176 C   0  0  2  0  0  0  0  0  0  0  0  0
    9.0519  -12.6927   19.6666 C   0  0  0  0  0  0  0  0  0  0  0  0
    8.3216  -14.9930   20.3820 C   0  0  2  0  0  0  0  0  0  0  0  0
    7.1053  -15.8206   20.3555 N   0  0  0  0  0  0  0  0  0  0  0  0
    8.7808  -14.9108   21.7953 C   0  0  0  0  0  0  0  0  0  0  0  0
   10.0008  -14.8128   22.0741 O   0  0  0  0  0  0  0  0  0  0  0  0
    7.1830  -10.9918   26.6455 C   0  0  0  0  0  0  0  0  0  0  0  0
    6.4179  -12.6009   27.0063 S   0  0  0  0  0  0  0  0  0  0  0  0
    7.5371  -13.9559   26.4735 C   0  0  0  0  0  0  0  0  0  0  0  0
    7.2663  -14.1766   25.0298 C   0  0  0  0  0  0  0  0  0  0  0  0
    8.3830  -14.8051   24.2380 C   0  0  2  0  0  0  0  0  0  0  0  0
    7.8573  -14.9408   22.8742 N   0  0  0  0  0  0  0  0  0  0  0  0
    8.6998  -16.1294   24.8098 C   0  0  0  0  0  0  0  0  0  0  0  0
    7.8180  -17.0269   24.8305 O   0  0  0  0  0  0  0  0  0  0  0  0
    9.9790  -16.3980   25.3323 N   0  0  0  0  0  0  0  0  0  0  0  0
   10.3637  -17.7484   25.7650 C   0  0  1  0  0  0  0  0  0  0  0  0
   11.6232  -18.0485   25.0285 C   0  0  0  0  0  0  0  0  0  0  0  0
   12.2873  -19.3447   25.3233 C   0  0  0  0  0  0  0  0  0  0  0  0
   13.5708  -19.5124   24.6372 C   0  0  0  0  0  0  0  0  0  0  0  0
   14.5701  -18.7527   24.8867 O   0  0  0  0  0  0  0  0  0  0  0  0
   10.3051  -17.9551   27.1880 C   0  0  0  0  0  0  0  0  0  0  0  0
   10.2335  -17.0203   28.0549 O   0  0  0  0  0  0  0  0  0  0  0  0
   13.7426  -20.5091   23.6878 O   0  0  0  0  0  0  0  0  0  0  0  0
   10.3131  -19.2389   27.7387 O   0  0  0  0  0  0  0  0  0  0  0  0
  2  1  1  0
  3  4  1  6
  3  2  1  0
  5  3  1  0
  5  6  1  1
  7  8  2  0
  7  5  1  0
  9 10  1  0
 10 11  1  0
 11 12  1  0
 13 12  1  1
 13 14  1  0
 14  7  1  0
 15 13  1  0
 16 15  2  0
 17 15  1  0
 18 17  1  0
 18 19  1  1
 19 20  1  0
 20 21  1  0
 21 22  2  0
 23 26  1  0
 23 18  1  0
 24 23  2  0
 25 21  1  0
M  END
$$$$
