IME.pdb
     RDKit          3D

 26 25  0  0  1  0  0  0  0  0999 V2000
    8.0109  -19.8018   19.5246 C   0  0  0  0  0  0  0  0  0  0  0  0
    7.4108  -18.4454   19.7575 C   0  0  0  0  0  0  0  0  0  0  0  0
    8.1701  -17.6726   20.8412 C   0  0  2  0  0  0  0  0  0  0  0  0
    8.3170  -18.5519   22.0347 C   0  0  0  0  0  0  0  0  0  0  0  0
    7.3893  -16.4080   21.0970 C   0  0  2  0  0  0  0  0  0  0  0  0
    7.1810  -15.7882   19.7789 N   0  0  0  0  0  0  0  0  0  0  0  0
    8.1307  -15.4327   21.9421 C   0  0  0  0  0  0  0  0  0  0  0  0
    9.1305  -14.8190   21.4955 O   0  0  0  0  0  0  0  0  0  0  0  0
    7.4143  -11.3729   27.2155 C   0  0  0  0  0  0  0  0  0  0  0  0
    6.0192  -11.9254   26.1891 S   0  0  0  0  0  0  0  0  0  0  0  0
    6.6489  -12.7779   24.6895 C   0  0  0  0  0  0  0  0  0  0  0  0
    7.6869  -13.7318   25.1574 C   0  0  0  0  0  0  0  0  0  0  0  0
    8.5925  -14.2950   24.0935 C   0  0  2  0  0  0  0  0  0  0  0  0
    7.7341  -15.1639   23.2793 N   0  0  0  0  0  0  0  0  0  0  0  0
    9.6689  -15.0769   24.7346 C   0  0  0  0  0  0  0  0  0  0  0  0
   10.4713  -14.5073   25.5189 O   0  0  0  0  0  0  0  0  0  0  0  0
    9.8066  -16.4539   24.4768 N   0  0  0  0  0  0  0  0  0  0  0  0
   10.8676  -17.2509   25.1077 C   0  0  1  0  0  0  0  0  0  0  0  0
   10.2190  -17.9041   26.2787 C   0  0  0  0  0  0  0  0  0  0  0  0
   11.0492  -18.8451   27.0746 C   0  0  0  0  0  0  0  0  0  0  0  0
   10.3235  -19.4688   28.1840 C   0  0  0  0  0  0  0  0  0  0  0  0
    9.6485  -20.5444   28.0247 O   0  0  0  0  0  0  0  0  0  0  0  0
   11.6406  -18.0438   24.1885 C   0  0  0  0  0  0  0  0  0  0  0  0
   11.1535  -18.6951   23.2041 O   0  0  0  0  0  0  0  0  0  0  0  0
   10.3471  -18.9067   29.4521 O   0  0  0  0  0  0  0  0  0  0  0  0
   13.0283  -18.1520   24.3081 O   0  0  0  0  0  0  0  0  0  0  0  0
  2  1  1  0
  3  4  1  1
  3  2  1  0
  5  3  1  0
  5  6  1  6
  7  8  2  0
  7  5  1  0
  9 10  1  0
 10 11  1  0
 11 12  1  0
 13 12  1  1
 13 14  1  0
 14  7  1  0
 15 13  1  0
 16 15  2  0
 17 15  1  0
 18 17  1  0
 18 19  1  1
 19 20  1  0
 20 21  1  0
 21 22  2  0
 23 26  1  0
 23 18  1  0
 24 23  2  0
 25 21  1  0
M  END
$$$$
