IME.pdb
     RDKit          3D

 26 25  0  0  1  0  0  0  0  0999 V2000
    6.7252  -12.9025   18.1901 C   0  0  0  0  0  0  0  0  0  0  0  0
    7.1065  -14.1253   18.9735 C   0  0  0  0  0  0  0  0  0  0  0  0
    7.9755  -13.7694   20.1846 C   0  0  2  0  0  0  0  0  0  0  0  0
    9.1868  -13.0485   19.7026 C   0  0  0  0  0  0  0  0  0  0  0  0
    8.2698  -15.0638   20.9001 C   0  0  2  0  0  0  0  0  0  0  0  0
    6.9814  -15.7655   21.0121 N   0  0  0  0  0  0  0  0  0  0  0  0
    8.7919  -14.8559   22.2782 C   0  0  0  0  0  0  0  0  0  0  0  0
    9.9530  -14.4197   22.4709 O   0  0  0  0  0  0  0  0  0  0  0  0
    6.7690  -11.5149   27.7445 C   0  0  0  0  0  0  0  0  0  0  0  0
    5.8662  -12.8402   26.8880 S   0  0  0  0  0  0  0  0  0  0  0  0
    6.7598  -13.3119   25.3546 C   0  0  0  0  0  0  0  0  0  0  0  0
    7.4460  -14.5956   25.6505 C   0  0  0  0  0  0  0  0  0  0  0  0
    8.5964  -14.9521   24.7457 C   0  0  2  0  0  0  0  0  0  0  0  0
    7.9968  -15.1436   23.4197 N   0  0  0  0  0  0  0  0  0  0  0  0
    9.2207  -16.2029   25.2221 C   0  0  0  0  0  0  0  0  0  0  0  0
    8.5913  -17.2886   25.1300 O   0  0  0  0  0  0  0  0  0  0  0  0
   10.5137  -16.1928   25.7785 N   0  0  0  0  0  0  0  0  0  0  0  0
   11.2115  -17.4393   26.1222 C   0  0  1  0  0  0  0  0  0  0  0  0
   12.6308  -17.2107   25.7319 C   0  0  0  0  0  0  0  0  0  0  0  0
   13.0233  -17.5946   24.3511 C   0  0  0  0  0  0  0  0  0  0  0  0
   14.1482  -16.8164   23.8263 C   0  0  0  0  0  0  0  0  0  0  0  0
   14.7730  -15.9665   24.5511 O   0  0  0  0  0  0  0  0  0  0  0  0
   10.9074  -17.9477   27.4338 C   0  0  0  0  0  0  0  0  0  0  0  0
   10.1973  -17.3376   28.3022 O   0  0  0  0  0  0  0  0  0  0  0  0
   14.5734  -16.9794   22.5160 O   0  0  0  0  0  0  0  0  0  0  0  0
   11.3768  -19.1927   27.8595 O   0  0  0  0  0  0  0  0  0  0  0  0
  2  1  1  0
  3  4  1  6
  3  2  1  0
  5  3  1  0
  5  6  1  1
  7  8  2  0
  7  5  1  0
  9 10  1  0
 10 11  1  0
 11 12  1  0
 13 12  1  1
 13 14  1  0
 14  7  1  0
 15 13  1  0
 16 15  2  0
 17 15  1  0
 18 17  1  0
 18 19  1  1
 19 20  1  0
 20 21  1  0
 21 22  2  0
 23 26  1  0
 23 18  1  0
 24 23  2  0
 25 21  1  0
M  END
$$$$
