IME.pdb
     RDKit          3D

 26 25  0  0  1  0  0  0  0  0999 V2000
    8.9156  -16.8643   18.7896 C   0  0  0  0  0  0  0  0  0  0  0  0
    8.9180  -15.4221   19.2073 C   0  0  0  0  0  0  0  0  0  0  0  0
    7.4947  -14.8637   19.3104 C   0  0  2  0  0  0  0  0  0  0  0  0
    6.9166  -14.7850   17.9397 C   0  0  0  0  0  0  0  0  0  0  0  0
    7.6024  -13.5341   20.0136 C   0  0  2  0  0  0  0  0  0  0  0  0
    8.5698  -12.7433   19.2366 N   0  0  0  0  0  0  0  0  0  0  0  0
    8.1290  -13.6553   21.4004 C   0  0  0  0  0  0  0  0  0  0  0  0
    9.3490  -13.4904   21.6455 O   0  0  0  0  0  0  0  0  0  0  0  0
    7.4238  -10.8736   26.9953 C   0  0  0  0  0  0  0  0  0  0  0  0
    6.2928  -12.2967   27.0127 S   0  0  0  0  0  0  0  0  0  0  0  0
    7.1026  -13.7451   26.2261 C   0  0  0  0  0  0  0  0  0  0  0  0
    6.7667  -13.6764   24.7809 C   0  0  0  0  0  0  0  0  0  0  0  0
    7.8667  -14.0673   23.8289 C   0  0  2  0  0  0  0  0  0  0  0  0
    7.2720  -13.9615   22.4910 N   0  0  0  0  0  0  0  0  0  0  0  0
    8.2809  -15.4571   24.1079 C   0  0  0  0  0  0  0  0  0  0  0  0
    7.4907  -16.4048   23.8614 O   0  0  0  0  0  0  0  0  0  0  0  0
    9.5516  -15.7325   24.6473 N   0  0  0  0  0  0  0  0  0  0  0  0
    9.9723  -17.1053   24.9592 C   0  0  1  0  0  0  0  0  0  0  0  0
   11.3593  -17.2171   24.4278 C   0  0  0  0  0  0  0  0  0  0  0  0
   11.5298  -17.1201   22.9549 C   0  0  0  0  0  0  0  0  0  0  0  0
   12.9194  -17.2727   22.5167 C   0  0  0  0  0  0  0  0  0  0  0  0
   13.3072  -16.8767   21.3632 O   0  0  0  0  0  0  0  0  0  0  0  0
    9.6917  -17.5201   26.3084 C   0  0  0  0  0  0  0  0  0  0  0  0
    9.2281  -16.7567   27.2210 O   0  0  0  0  0  0  0  0  0  0  0  0
   13.8649  -17.8563   23.3473 O   0  0  0  0  0  0  0  0  0  0  0  0
    9.9056  -18.8361   26.7255 O   0  0  0  0  0  0  0  0  0  0  0  0
  2  1  1  0
  3  4  1  6
  3  2  1  0
  5  3  1  0
  5  6  1  6
  7  8  2  0
  7  5  1  0
  9 10  1  0
 10 11  1  0
 11 12  1  0
 13 12  1  1
 13 14  1  0
 14  7  1  0
 15 13  1  0
 16 15  2  0
 17 15  1  0
 18 17  1  0
 18 19  1  1
 19 20  1  0
 20 21  1  0
 21 22  2  0
 23 26  1  0
 23 18  1  0
 24 23  2  0
 25 21  1  0
M  END
$$$$
