IME.pdb
     RDKit          3D

 26 25  0  0  1  0  0  0  0  0999 V2000
    7.8035  -16.0962   17.2812 C   0  0  0  0  0  0  0  0  0  0  0  0
    7.4800  -14.9175   18.1532 C   0  0  0  0  0  0  0  0  0  0  0  0
    7.9929  -15.1178   19.5832 C   0  0  2  0  0  0  0  0  0  0  0  0
    7.5515  -16.4580   20.0610 C   0  0  0  0  0  0  0  0  0  0  0  0
    7.4621  -13.9650   20.3977 C   0  0  2  0  0  0  0  0  0  0  0  0
    7.9556  -12.7447   19.7402 N   0  0  0  0  0  0  0  0  0  0  0  0
    7.9727  -13.9624   21.7957 C   0  0  0  0  0  0  0  0  0  0  0  0
    9.1702  -13.6813   22.0462 O   0  0  0  0  0  0  0  0  0  0  0  0
    6.9709  -11.8194   27.8267 C   0  0  0  0  0  0  0  0  0  0  0  0
    7.1229  -11.7853   26.0154 S   0  0  0  0  0  0  0  0  0  0  0  0
    5.9004  -12.9328   25.2664 C   0  0  0  0  0  0  0  0  0  0  0  0
    6.5671  -14.2577   25.1866 C   0  0  0  0  0  0  0  0  0  0  0  0
    7.7254  -14.3564   24.2287 C   0  0  2  0  0  0  0  0  0  0  0  0
    7.1254  -14.2774   22.8914 N   0  0  0  0  0  0  0  0  0  0  0  0
    8.4061  -15.6530   24.4200 C   0  0  0  0  0  0  0  0  0  0  0  0
    7.8618  -16.7100   24.0078 O   0  0  0  0  0  0  0  0  0  0  0  0
    9.6585  -15.7185   25.0592 N   0  0  0  0  0  0  0  0  0  0  0  0
   10.3659  -16.9945   25.2335 C   0  0  1  0  0  0  0  0  0  0  0  0
   11.6908  -16.7965   24.5821 C   0  0  0  0  0  0  0  0  0  0  0  0
   11.9268  -17.5068   23.2984 C   0  0  0  0  0  0  0  0  0  0  0  0
   13.2721  -17.3008   22.7561 C   0  0  0  0  0  0  0  0  0  0  0  0
   14.1494  -16.6091   23.3806 O   0  0  0  0  0  0  0  0  0  0  0  0
   10.3019  -17.5315   26.5671 C   0  0  0  0  0  0  0  0  0  0  0  0
    9.8413  -16.9056   27.5804 O   0  0  0  0  0  0  0  0  0  0  0  0
   13.6384  -17.8548   21.5381 O   0  0  0  0  0  0  0  0  0  0  0  0
   10.7464  -18.8245   26.8540 O   0  0  0  0  0  0  0  0  0  0  0  0
  2  1  1  0
  3  4  1  1
  3  2  1  0
  5  3  1  0
  5  6  1  6
  7  8  2  0
  7  5  1  0
  9 10  1  0
 10 11  1  0
 11 12  1  0
 13 12  1  1
 13 14  1  0
 14  7  1  0
 15 13  1  0
 16 15  2  0
 17 15  1  0
 18 17  1  0
 18 19  1  1
 19 20  1  0
 20 21  1  0
 21 22  2  0
 23 26  1  0
 23 18  1  0
 24 23  2  0
 25 21  1  0
M  END
$$$$
