IME.pdb
     RDKit          3D

 26 25  0  0  1  0  0  0  0  0999 V2000
    8.2418  -11.5284   19.7933 C   0  0  0  0  0  0  0  0  0  0  0  0
    7.6282  -12.7221   20.4664 C   0  0  0  0  0  0  0  0  0  0  0  0
    8.2838  -14.0277   20.0040 C   0  0  2  0  0  0  0  0  0  0  0  0
    8.0144  -14.2034   18.5494 C   0  0  0  0  0  0  0  0  0  0  0  0
    7.7227  -15.1243   20.8739 C   0  0  2  0  0  0  0  0  0  0  0  0
    6.2665  -15.1008   20.6646 N   0  0  0  0  0  0  0  0  0  0  0  0
    7.9740  -14.8972   22.3232 C   0  0  0  0  0  0  0  0  0  0  0  0
    8.3427  -13.7748   22.7474 O   0  0  0  0  0  0  0  0  0  0  0  0
    6.3833  -11.1394   26.6319 C   0  0  0  0  0  0  0  0  0  0  0  0
    6.4602  -12.9541   26.7073 S   0  0  0  0  0  0  0  0  0  0  0  0
    7.4370  -13.5951   25.2905 C   0  0  0  0  0  0  0  0  0  0  0  0
    7.4762  -15.0718   25.4455 C   0  0  0  0  0  0  0  0  0  0  0  0
    8.4678  -15.8001   24.5764 C   0  0  2  0  0  0  0  0  0  0  0  0
    7.8064  -15.9396   23.2734 N   0  0  0  0  0  0  0  0  0  0  0  0
    8.7489  -17.1255   25.1640 C   0  0  0  0  0  0  0  0  0  0  0  0
    8.2745  -18.1595   24.6262 O   0  0  0  0  0  0  0  0  0  0  0  0
    9.5425  -17.2440   26.3205 N   0  0  0  0  0  0  0  0  0  0  0  0
   10.4970  -18.3485   26.4871 C   0  0  1  0  0  0  0  0  0  0  0  0
   11.3065  -18.3546   25.2367 C   0  0  0  0  0  0  0  0  0  0  0  0
   12.4187  -19.3367   25.1552 C   0  0  0  0  0  0  0  0  0  0  0  0
   13.2113  -19.2206   23.9286 C   0  0  0  0  0  0  0  0  0  0  0  0
   13.5011  -18.0817   23.4215 O   0  0  0  0  0  0  0  0  0  0  0  0
   11.1601  -18.3727   27.7641 C   0  0  0  0  0  0  0  0  0  0  0  0
   11.7249  -19.4004   28.2695 O   0  0  0  0  0  0  0  0  0  0  0  0
   13.6758  -20.3522   23.2743 O   0  0  0  0  0  0  0  0  0  0  0  0
   11.2432  -17.2301   28.5636 O   0  0  0  0  0  0  0  0  0  0  0  0
  2  1  1  0
  3  4  1  6
  3  2  1  0
  5  3  1  0
  5  6  1  1
  7  8  2  0
  7  5  1  0
  9 10  1  0
 10 11  1  0
 11 12  1  0
 13 12  1  1
 13 14  1  0
 14  7  1  0
 15 13  1  0
 16 15  2  0
 17 15  1  0
 18 17  1  0
 18 19  1  6
 19 20  1  0
 20 21  1  0
 21 22  2  0
 23 26  1  0
 23 18  1  0
 24 23  2  0
 25 21  1  0
M  END
$$$$
