IME.pdb
     RDKit          3D

 26 25  0  0  1  0  0  0  0  0999 V2000
    6.9080  -12.6070   18.0644 C   0  0  0  0  0  0  0  0  0  0  0  0
    7.4371  -13.8036   18.8011 C   0  0  0  0  0  0  0  0  0  0  0  0
    8.0312  -13.4116   20.1581 C   0  0  2  0  0  0  0  0  0  0  0  0
    9.0744  -12.3717   19.9355 C   0  0  0  0  0  0  0  0  0  0  0  0
    8.5478  -14.6815   20.7863 C   0  0  2  0  0  0  0  0  0  0  0  0
    7.3922  -15.5880   20.8738 N   0  0  0  0  0  0  0  0  0  0  0  0
    9.0643  -14.4741   22.1666 C   0  0  0  0  0  0  0  0  0  0  0  0
   10.1923  -13.9601   22.3645 O   0  0  0  0  0  0  0  0  0  0  0  0
    7.4928  -12.7946   28.0090 C   0  0  0  0  0  0  0  0  0  0  0  0
    6.5862  -12.1298   26.5804 S   0  0  0  0  0  0  0  0  0  0  0  0
    7.0005  -13.0970   25.0753 C   0  0  0  0  0  0  0  0  0  0  0  0
    7.7939  -14.2651   25.5359 C   0  0  0  0  0  0  0  0  0  0  0  0
    8.9154  -14.6995   24.6290 C   0  0  2  0  0  0  0  0  0  0  0  0
    8.3013  -14.8501   23.3042 N   0  0  0  0  0  0  0  0  0  0  0  0
    9.4541  -15.9897   25.1046 C   0  0  0  0  0  0  0  0  0  0  0  0
    8.7376  -17.0227   25.0506 O   0  0  0  0  0  0  0  0  0  0  0  0
   10.7619  -16.0757   25.6181 N   0  0  0  0  0  0  0  0  0  0  0  0
   11.3551  -17.3656   25.9964 C   0  0  1  0  0  0  0  0  0  0  0  0
   10.3028  -18.0598   26.7897 C   0  0  0  0  0  0  0  0  0  0  0  0
   10.5742  -19.4644   27.1916 C   0  0  0  0  0  0  0  0  0  0  0  0
   10.2930  -19.7321   28.6042 C   0  0  0  0  0  0  0  0  0  0  0  0
    9.1790  -20.2351   28.9837 O   0  0  0  0  0  0  0  0  0  0  0  0
   12.0055  -18.0594   24.9162 C   0  0  0  0  0  0  0  0  0  0  0  0
   13.0212  -18.8216   25.0502 O   0  0  0  0  0  0  0  0  0  0  0  0
   11.2350  -19.4457   29.5816 O   0  0  0  0  0  0  0  0  0  0  0  0
   11.5486  -17.9508   23.6005 O   0  0  0  0  0  0  0  0  0  0  0  0
  2  1  1  0
  3  4  1  6
  3  2  1  0
  5  3  1  0
  5  6  1  1
  7  8  2  0
  7  5  1  0
  9 10  1  0
 10 11  1  0
 11 12  1  0
 13 12  1  1
 13 14  1  0
 14  7  1  0
 15 13  1  0
 16 15  2  0
 17 15  1  0
 18 17  1  0
 18 19  1  6
 19 20  1  0
 20 21  1  0
 21 22  2  0
 23 26  1  0
 23 18  1  0
 24 23  2  0
 25 21  1  0
M  END
$$$$
