IME.pdb
     RDKit          3D

 26 25  0  0  1  0  0  0  0  0999 V2000
    7.6799  -19.6481   18.3810 C   0  0  0  0  0  0  0  0  0  0  0  0
    7.7318  -18.1633   18.5980 C   0  0  0  0  0  0  0  0  0  0  0  0
    8.1500  -17.8184   20.0314 C   0  0  2  0  0  0  0  0  0  0  0  0
    7.2918  -18.5899   20.9735 C   0  0  0  0  0  0  0  0  0  0  0  0
    8.0285  -16.3216   20.1683 C   0  0  2  0  0  0  0  0  0  0  0  0
    8.8536  -15.7492   19.0929 N   0  0  0  0  0  0  0  0  0  0  0  0
    8.5600  -15.8152   21.4630 C   0  0  0  0  0  0  0  0  0  0  0  0
    9.7657  -15.9744   21.7736 O   0  0  0  0  0  0  0  0  0  0  0  0
    6.5998  -11.3814   27.7101 C   0  0  0  0  0  0  0  0  0  0  0  0
    6.2317  -12.1695   26.1137 S   0  0  0  0  0  0  0  0  0  0  0  0
    7.5826  -13.3303   25.6665 C   0  0  0  0  0  0  0  0  0  0  0  0
    7.2592  -13.8434   24.3106 C   0  0  0  0  0  0  0  0  0  0  0  0
    8.3100  -14.7082   23.6648 C   0  0  2  0  0  0  0  0  0  0  0  0
    7.7236  -15.1368   22.3892 N   0  0  0  0  0  0  0  0  0  0  0  0
    8.5825  -15.8724   24.5317 C   0  0  0  0  0  0  0  0  0  0  0  0
    7.7628  -16.8264   24.5707 O   0  0  0  0  0  0  0  0  0  0  0  0
    9.7505  -15.9256   25.3155 N   0  0  0  0  0  0  0  0  0  0  0  0
   10.1335  -17.1445   26.0411 C   0  0  1  0  0  0  0  0  0  0  0  0
   11.0519  -17.8721   25.1212 C   0  0  0  0  0  0  0  0  0  0  0  0
   11.6436  -19.1409   25.6194 C   0  0  0  0  0  0  0  0  0  0  0  0
   12.5159  -19.8004   24.6446 C   0  0  0  0  0  0  0  0  0  0  0  0
   12.0561  -20.6289   23.7842 O   0  0  0  0  0  0  0  0  0  0  0  0
   10.5243  -16.9234   27.4084 C   0  0  0  0  0  0  0  0  0  0  0  0
   10.8796  -15.7948   27.8884 O   0  0  0  0  0  0  0  0  0  0  0  0
   13.8791  -19.5438   24.6248 O   0  0  0  0  0  0  0  0  0  0  0  0
   10.5329  -17.9636   28.3409 O   0  0  0  0  0  0  0  0  0  0  0  0
  2  1  1  0
  3  4  1  1
  3  2  1  0
  5  3  1  0
  5  6  1  6
  7  8  2  0
  7  5  1  0
  9 10  1  0
 10 11  1  0
 11 12  1  0
 13 12  1  1
 13 14  1  0
 14  7  1  0
 15 13  1  0
 16 15  2  0
 17 15  1  0
 18 17  1  0
 18 19  1  6
 19 20  1  0
 20 21  1  0
 21 22  2  0
 23 26  1  0
 23 18  1  0
 24 23  2  0
 25 21  1  0
M  END
$$$$
