IME.pdb
     RDKit          3D

 26 25  0  0  1  0  0  0  0  0999 V2000
    6.3319  -18.0867   18.4195 C   0  0  0  0  0  0  0  0  0  0  0  0
    6.4476  -16.6536   18.8520 C   0  0  0  0  0  0  0  0  0  0  0  0
    7.2670  -16.5188   20.1398 C   0  0  2  0  0  0  0  0  0  0  0  0
    6.7270  -17.4747   21.1468 C   0  0  0  0  0  0  0  0  0  0  0  0
    7.1844  -15.0712   20.5546 C   0  0  2  0  0  0  0  0  0  0  0  0
    7.6119  -14.2903   19.3831 N   0  0  0  0  0  0  0  0  0  0  0  0
    8.1027  -14.7392   21.6778 C   0  0  0  0  0  0  0  0  0  0  0  0
    9.3483  -14.7762   21.5272 O   0  0  0  0  0  0  0  0  0  0  0  0
    7.2918  -11.3478   27.0526 C   0  0  0  0  0  0  0  0  0  0  0  0
    6.0093  -12.6151   26.8205 S   0  0  0  0  0  0  0  0  0  0  0  0
    6.5988  -13.8875   25.6347 C   0  0  0  0  0  0  0  0  0  0  0  0
    7.8802  -13.3795   25.0815 C   0  0  0  0  0  0  0  0  0  0  0  0
    8.5564  -14.2631   24.0660 C   0  0  2  0  0  0  0  0  0  0  0  0
    7.6028  -14.3706   22.9553 N   0  0  0  0  0  0  0  0  0  0  0  0
    8.8106  -15.5883   24.6663 C   0  0  0  0  0  0  0  0  0  0  0  0
    7.8624  -16.4046   24.8003 O   0  0  0  0  0  0  0  0  0  0  0  0
   10.1038  -15.9478   25.0904 N   0  0  0  0  0  0  0  0  0  0  0  0
   10.3811  -17.2664   25.6761 C   0  0  1  0  0  0  0  0  0  0  0  0
   11.6035  -17.7529   24.9777 C   0  0  0  0  0  0  0  0  0  0  0  0
   11.6145  -17.6680   23.4942 C   0  0  0  0  0  0  0  0  0  0  0  0
   12.8564  -18.1577   22.8907 C   0  0  0  0  0  0  0  0  0  0  0  0
   13.8004  -18.6492   23.6016 O   0  0  0  0  0  0  0  0  0  0  0  0
   10.3213  -17.3019   27.1136 C   0  0  0  0  0  0  0  0  0  0  0  0
   10.0946  -16.2879   27.8559 O   0  0  0  0  0  0  0  0  0  0  0  0
   13.0475  -18.1029   21.5178 O   0  0  0  0  0  0  0  0  0  0  0  0
   10.5042  -18.4924   27.8213 O   0  0  0  0  0  0  0  0  0  0  0  0
  2  1  1  0
  3  4  1  1
  3  2  1  0
  5  3  1  0
  5  6  1  6
  7  8  2  0
  7  5  1  0
  9 10  1  0
 10 11  1  0
 11 12  1  0
 13 12  1  1
 13 14  1  0
 14  7  1  0
 15 13  1  0
 16 15  2  0
 17 15  1  0
 18 17  1  0
 18 19  1  1
 19 20  1  0
 20 21  1  0
 21 22  2  0
 23 26  1  0
 23 18  1  0
 24 23  2  0
 25 21  1  0
M  END
$$$$
