IME.pdb
     RDKit          3D

 26 25  0  0  1  0  0  0  0  0999 V2000
    7.1862  -12.3026   19.7475 C   0  0  0  0  0  0  0  0  0  0  0  0
    7.3812  -13.5171   20.6085 C   0  0  0  0  0  0  0  0  0  0  0  0
    8.4110  -14.4768   20.0029 C   0  0  2  0  0  0  0  0  0  0  0  0
    7.9292  -14.9016   18.6588 C   0  0  0  0  0  0  0  0  0  0  0  0
    8.5778  -15.6078   20.9862 C   0  0  2  0  0  0  0  0  0  0  0  0
    7.2689  -16.2759   21.0593 N   0  0  0  0  0  0  0  0  0  0  0  0
    8.9209  -15.1365   22.3556 C   0  0  0  0  0  0  0  0  0  0  0  0
   10.0103  -14.5570   22.5859 O   0  0  0  0  0  0  0  0  0  0  0  0
    7.4702  -11.1875   26.9416 C   0  0  0  0  0  0  0  0  0  0  0  0
    6.1805  -12.4512   26.7300 S   0  0  0  0  0  0  0  0  0  0  0  0
    6.4596  -13.3694   25.1643 C   0  0  0  0  0  0  0  0  0  0  0  0
    7.1869  -14.6108   25.5333 C   0  0  0  0  0  0  0  0  0  0  0  0
    8.4612  -14.8784   24.7760 C   0  0  2  0  0  0  0  0  0  0  0  0
    8.0305  -15.3260   23.4460 N   0  0  0  0  0  0  0  0  0  0  0  0
    9.2221  -15.9411   25.4636 C   0  0  0  0  0  0  0  0  0  0  0  0
    9.6340  -15.7532   26.6377 O   0  0  0  0  0  0  0  0  0  0  0  0
    9.4916  -17.1628   24.8184 N   0  0  0  0  0  0  0  0  0  0  0  0
   10.3320  -18.1927   25.4444 C   0  0  1  0  0  0  0  0  0  0  0  0
   11.6626  -18.0607   24.7879 C   0  0  0  0  0  0  0  0  0  0  0  0
   11.9789  -19.0220   23.6997 C   0  0  0  0  0  0  0  0  0  0  0  0
   13.3368  -18.8770   23.1693 C   0  0  0  0  0  0  0  0  0  0  0  0
   13.6178  -18.0101   22.2706 O   0  0  0  0  0  0  0  0  0  0  0  0
   10.2483  -18.2352   26.8804 C   0  0  0  0  0  0  0  0  0  0  0  0
    9.6960  -17.3382   27.6022 O   0  0  0  0  0  0  0  0  0  0  0  0
   14.3680  -19.6826   23.6299 O   0  0  0  0  0  0  0  0  0  0  0  0
   10.7757  -19.3036   27.6098 O   0  0  0  0  0  0  0  0  0  0  0  0
  2  1  1  0
  3  4  1  6
  3  2  1  0
  5  3  1  0
  5  6  1  1
  7  8  2  0
  7  5  1  0
  9 10  1  0
 10 11  1  0
 11 12  1  0
 13 12  1  1
 13 14  1  0
 14  7  1  0
 15 13  1  0
 16 15  2  0
 17 15  1  0
 18 17  1  0
 18 19  1  1
 19 20  1  0
 20 21  1  0
 21 22  2  0
 23 26  1  0
 23 18  1  0
 24 23  2  0
 25 21  1  0
M  END
$$$$
