IME.pdb
     RDKit          3D

 26 25  0  0  1  0  0  0  0  0999 V2000
    7.7576  -19.0755   18.3848 C   0  0  0  0  0  0  0  0  0  0  0  0
    7.5721  -17.6290   18.7419 C   0  0  0  0  0  0  0  0  0  0  0  0
    8.1067  -17.3226   20.1449 C   0  0  2  0  0  0  0  0  0  0  0  0
    7.5111  -18.2968   21.1016 C   0  0  0  0  0  0  0  0  0  0  0  0
    7.7624  -15.8830   20.4333 C   0  0  2  0  0  0  0  0  0  0  0  0
    8.3645  -15.0976   19.3445 N   0  0  0  0  0  0  0  0  0  0  0  0
    8.3421  -15.3963   21.7148 C   0  0  0  0  0  0  0  0  0  0  0  0
    9.5788  -15.2216   21.8399 O   0  0  0  0  0  0  0  0  0  0  0  0
    7.1874  -10.8599   26.8697 C   0  0  0  0  0  0  0  0  0  0  0  0
    6.2899  -12.4403   26.8300 S   0  0  0  0  0  0  0  0  0  0  0  0
    7.4313  -13.7922   26.3380 C   0  0  0  0  0  0  0  0  0  0  0  0
    7.0520  -14.1746   24.9538 C   0  0  0  0  0  0  0  0  0  0  0  0
    8.1688  -14.6850   24.0812 C   0  0  2  0  0  0  0  0  0  0  0  0
    7.5185  -15.1140   22.8371 N   0  0  0  0  0  0  0  0  0  0  0  0
    8.8247  -15.8276   24.7486 C   0  0  0  0  0  0  0  0  0  0  0  0
    8.2072  -16.9171   24.8703 O   0  0  0  0  0  0  0  0  0  0  0  0
   10.1346  -15.7100   25.2503 N   0  0  0  0  0  0  0  0  0  0  0  0
   10.8061  -16.8350   25.9155 C   0  0  1  0  0  0  0  0  0  0  0  0
   12.1934  -16.8353   25.3732 C   0  0  0  0  0  0  0  0  0  0  0  0
   12.3454  -16.9860   23.9027 C   0  0  0  0  0  0  0  0  0  0  0  0
   13.7365  -16.9131   23.4492 C   0  0  0  0  0  0  0  0  0  0  0  0
   14.6703  -16.4846   24.2125 O   0  0  0  0  0  0  0  0  0  0  0  0
   10.5983  -16.8931   27.3383 C   0  0  0  0  0  0  0  0  0  0  0  0
    9.9894  -16.0014   28.0200 O   0  0  0  0  0  0  0  0  0  0  0  0
   14.0863  -17.3103   22.1669 O   0  0  0  0  0  0  0  0  0  0  0  0
   11.0564  -17.9723   28.0981 O   0  0  0  0  0  0  0  0  0  0  0  0
  2  1  1  0
  3  4  1  1
  3  2  1  0
  5  3  1  0
  5  6  1  6
  7  8  2  0
  7  5  1  0
  9 10  1  0
 10 11  1  0
 11 12  1  0
 13 12  1  1
 13 14  1  0
 14  7  1  0
 15 13  1  0
 16 15  2  0
 17 15  1  0
 18 17  1  0
 18 19  1  1
 19 20  1  0
 20 21  1  0
 21 22  2  0
 23 26  1  0
 23 18  1  0
 24 23  2  0
 25 21  1  0
M  END
$$$$
