IME.pdb
     RDKit          3D

 26 25  0  0  1  0  0  0  0  0999 V2000
    7.2312  -12.1221   19.4151 C   0  0  0  0  0  0  0  0  0  0  0  0
    7.3421  -13.4226   20.1572 C   0  0  0  0  0  0  0  0  0  0  0  0
    8.4280  -14.3221   19.5572 C   0  0  2  0  0  0  0  0  0  0  0  0
    8.0681  -14.6195   18.1425 C   0  0  0  0  0  0  0  0  0  0  0  0
    8.5172  -15.5401   20.4419 C   0  0  2  0  0  0  0  0  0  0  0  0
    7.2079  -16.2046   20.3477 N   0  0  0  0  0  0  0  0  0  0  0  0
    8.7484  -15.1991   21.8721 C   0  0  0  0  0  0  0  0  0  0  0  0
    9.8716  -14.8034   22.2691 O   0  0  0  0  0  0  0  0  0  0  0  0
    7.4598  -12.2042   28.2189 C   0  0  0  0  0  0  0  0  0  0  0  0
    7.4955  -12.7569   26.4873 S   0  0  0  0  0  0  0  0  0  0  0  0
    6.7785  -14.4425   26.3571 C   0  0  0  0  0  0  0  0  0  0  0  0
    6.7192  -14.7591   24.9071 C   0  0  0  0  0  0  0  0  0  0  0  0
    8.0389  -15.0477   24.2406 C   0  0  2  0  0  0  0  0  0  0  0  0
    7.7094  -15.3098   22.8343 N   0  0  0  0  0  0  0  0  0  0  0  0
    8.6493  -16.2388   24.8648 C   0  0  0  0  0  0  0  0  0  0  0  0
    7.9670  -17.2861   25.0092 O   0  0  0  0  0  0  0  0  0  0  0  0
    9.9877  -16.2143   25.3002 N   0  0  0  0  0  0  0  0  0  0  0  0
   10.6042  -17.3771   25.9534 C   0  0  1  0  0  0  0  0  0  0  0  0
   11.9821  -17.4528   25.3928 C   0  0  0  0  0  0  0  0  0  0  0  0
   12.2163  -18.4346   24.3022 C   0  0  0  0  0  0  0  0  0  0  0  0
   13.4926  -18.2435   23.6089 C   0  0  0  0  0  0  0  0  0  0  0  0
   14.6125  -18.3932   24.2101 O   0  0  0  0  0  0  0  0  0  0  0  0
   10.4121  -17.4283   27.3788 C   0  0  0  0  0  0  0  0  0  0  0  0
   10.8628  -18.3498   28.1393 O   0  0  0  0  0  0  0  0  0  0  0  0
   13.5254  -17.8916   22.2674 O   0  0  0  0  0  0  0  0  0  0  0  0
    9.7023  -16.4328   28.0546 O   0  0  0  0  0  0  0  0  0  0  0  0
  2  1  1  0
  3  4  1  6
  3  2  1  0
  5  3  1  0
  5  6  1  1
  7  8  2  0
  7  5  1  0
  9 10  1  0
 10 11  1  0
 11 12  1  0
 13 12  1  1
 13 14  1  0
 14  7  1  0
 15 13  1  0
 16 15  2  0
 17 15  1  0
 18 17  1  0
 18 19  1  1
 19 20  1  0
 20 21  1  0
 21 22  2  0
 23 26  1  0
 23 18  1  0
 24 23  2  0
 25 21  1  0
M  END
$$$$
