APG.pdb
     RDKit          3D

 17 17  0  0  1  0  0  0  0  0999 V2000
    7.0499  -16.8812   17.4235 C   0  0  0  0  0  0  0  0  0  0  0  0
    8.0233  -15.8870   16.7921 C   0  0  2  0  0  0  0  0  0  0  0  0
    8.6686  -16.5504   15.6631 N   0  0  0  0  0  0  0  0  0  0  0  0
    9.0285  -15.4569   17.7814 C   0  0  0  0  0  0  0  0  0  0  0  0
   10.1641  -16.0293   17.7550 O   0  0  0  0  0  0  0  0  0  0  0  0
    8.7436  -14.4600   18.7088 N   0  0  0  0  0  0  0  0  0  0  0  0
    7.4729  -13.8085   18.8647 C   0  0  0  0  0  0  0  0  0  0  0  0
    7.7277  -12.4377   19.4017 C   0  0  0  0  0  0  0  0  0  0  0  0
    9.0170  -12.6039   20.1383 C   0  0  0  0  0  0  0  0  0  0  0  0
    9.6379  -13.9089   19.6775 C   0  0  1  0  0  0  0  0  0  0  0  0
    9.8392  -14.8182   20.8423 C   0  0  0  0  0  0  0  0  0  0  0  0
    8.8640  -15.4884   21.2550 O   0  0  0  0  0  0  0  0  0  0  0  0
   11.1061  -14.9208   21.4675 N   0  0  0  0  0  0  0  0  0  0  0  0
   11.3940  -15.9972   22.3840 C   0  0  0  0  0  0  0  0  0  0  0  0
   12.7653  -15.8497   22.9313 C   0  0  0  0  0  0  0  0  0  0  0  0
   12.9692  -15.7877   24.1692 O   0  0  0  0  0  0  0  0  0  0  0  0
   13.8811  -15.7747   22.0790 O   0  0  0  0  0  0  0  0  0  0  0  0
  2  1  1  1
  2  3  1  0
  4  5  2  0
  4  2  1  0
  6  4  1  0
  7  6  1  0
  8  7  1  0
  9  8  1  0
  9 10  1  0
 10 11  1  1
 10  6  1  0
 11 12  2  0
 13 14  1  0
 13 11  1  0
 14 15  1  0
 15 16  2  0
 15 17  1  0
M  END
$$$$
