APG.pdb
     RDKit          3D

 17 17  0  0  1  0  0  0  0  0999 V2000
    5.4714  -17.3719   20.1034 C   0  0  0  0  0  0  0  0  0  0  0  0
    6.3106  -16.7795   18.9723 C   0  0  2  0  0  0  0  0  0  0  0  0
    6.5395  -17.8331   17.9880 N   0  0  0  0  0  0  0  0  0  0  0  0
    7.5932  -16.2756   19.4968 C   0  0  0  0  0  0  0  0  0  0  0  0
    8.6012  -17.0485   19.4315 O   0  0  0  0  0  0  0  0  0  0  0  0
    7.6953  -15.0001   20.0422 N   0  0  0  0  0  0  0  0  0  0  0  0
    6.6342  -14.0334   20.0998 C   0  0  0  0  0  0  0  0  0  0  0  0
    7.2560  -12.6748   20.0915 C   0  0  0  0  0  0  0  0  0  0  0  0
    8.6016  -12.9217   20.6925 C   0  0  0  0  0  0  0  0  0  0  0  0
    8.8491  -14.4177   20.6517 C   0  0  1  0  0  0  0  0  0  0  0  0
    9.0811  -14.9348   22.0312 C   0  0  0  0  0  0  0  0  0  0  0  0
    8.0949  -15.0790   22.7909 O   0  0  0  0  0  0  0  0  0  0  0  0
   10.3886  -15.2556   22.4715 N   0  0  0  0  0  0  0  0  0  0  0  0
   10.6086  -15.8434   23.7706 C   0  0  0  0  0  0  0  0  0  0  0  0
   12.0554  -16.0993   23.9776 C   0  0  0  0  0  0  0  0  0  0  0  0
   12.8885  -15.9105   23.0565 O   0  0  0  0  0  0  0  0  0  0  0  0
   12.5395  -16.5621   25.2139 O   0  0  0  0  0  0  0  0  0  0  0  0
  2  1  1  1
  2  3  1  0
  4  5  2  0
  4  2  1  0
  6  4  1  0
  7  6  1  0
  8  7  1  0
  9  8  1  0
  9 10  1  0
 10 11  1  1
 10  6  1  0
 11 12  2  0
 13 14  1  0
 13 11  1  0
 14 15  1  0
 15 16  2  0
 15 17  1  0
M  END
$$$$
