APG.pdb
     RDKit          3D

 17 17  0  0  1  0  0  0  0  0999 V2000
    6.4204  -18.1733   25.1744 C   0  0  0  0  0  0  0  0  0  0  0  0
    6.3956  -18.2791   23.6503 C   0  0  2  0  0  0  0  0  0  0  0  0
    6.2233  -19.6867   23.3038 N   0  0  0  0  0  0  0  0  0  0  0  0
    7.6515  -17.7572   23.0808 C   0  0  0  0  0  0  0  0  0  0  0  0
    8.5742  -18.5937   22.8229 O   0  0  0  0  0  0  0  0  0  0  0  0
    7.8188  -16.3985   22.8342 N   0  0  0  0  0  0  0  0  0  0  0  0
    6.8723  -15.3705   23.1673 C   0  0  0  0  0  0  0  0  0  0  0  0
    7.0563  -14.2507   22.1953 C   0  0  0  0  0  0  0  0  0  0  0  0
    8.4897  -14.3892   21.7966 C   0  0  0  0  0  0  0  0  0  0  0  0
    8.9484  -15.7701   22.2249 C   0  0  1  0  0  0  0  0  0  0  0  0
   10.1046  -15.6571   23.1601 C   0  0  0  0  0  0  0  0  0  0  0  0
    9.8801  -15.3671   24.3584 O   0  0  0  0  0  0  0  0  0  0  0  0
   11.4274  -15.8733   22.7019 N   0  0  0  0  0  0  0  0  0  0  0  0
   12.5347  -15.9055   23.6263 C   0  0  0  0  0  0  0  0  0  0  0  0
   13.7949  -16.2090   22.9041 C   0  0  0  0  0  0  0  0  0  0  0  0
   13.9431  -17.2881   22.2783 O   0  0  0  0  0  0  0  0  0  0  0  0
   14.8641  -15.2961   22.8981 O   0  0  0  0  0  0  0  0  0  0  0  0
  2  1  1  1
  2  3  1  0
  4  5  2  0
  4  2  1  0
  6  4  1  0
  7  6  1  0
  8  7  1  0
  9  8  1  0
  9 10  1  0
 10 11  1  1
 10  6  1  0
 11 12  2  0
 13 14  1  0
 13 11  1  0
 14 15  1  0
 15 16  2  0
 15 17  1  0
M  END
$$$$
