APG.pdb
     RDKit          3D

 17 17  0  0  1  0  0  0  0  0999 V2000
    7.2236  -16.9442   24.5537 C   0  0  0  0  0  0  0  0  0  0  0  0
    7.4270  -15.6322   23.7976 C   0  0  2  0  0  0  0  0  0  0  0  0
    8.1553  -15.9340   22.5688 N   0  0  0  0  0  0  0  0  0  0  0  0
    8.1855  -14.6768   24.6258 C   0  0  0  0  0  0  0  0  0  0  0  0
    9.4310  -14.5574   24.3969 O   0  0  0  0  0  0  0  0  0  0  0  0
    7.5595  -13.9329   25.6206 N   0  0  0  0  0  0  0  0  0  0  0  0
    6.1810  -14.0541   26.0059 C   0  0  0  0  0  0  0  0  0  0  0  0
    5.7399  -12.7300   26.5395 C   0  0  0  0  0  0  0  0  0  0  0  0
    7.0132  -12.1356   27.0472 C   0  0  0  0  0  0  0  0  0  0  0  0
    8.1566  -12.9312   26.4465 C   0  0  1  0  0  0  0  0  0  0  0  0
    8.9950  -13.5190   27.5308 C   0  0  0  0  0  0  0  0  0  0  0  0
    9.3695  -12.7764   28.4682 O   0  0  0  0  0  0  0  0  0  0  0  0
    9.3592  -14.8876   27.5000 N   0  0  0  0  0  0  0  0  0  0  0  0
   10.1044  -15.4795   28.5844 C   0  0  0  0  0  0  0  0  0  0  0  0
   10.2124  -16.9465   28.3896 C   0  0  0  0  0  0  0  0  0  0  0  0
   10.7081  -17.6863   29.2756 O   0  0  0  0  0  0  0  0  0  0  0  0
    9.7622  -17.5549   27.2047 O   0  0  0  0  0  0  0  0  0  0  0  0
  2  1  1  1
  2  3  1  0
  4  5  2  0
  4  2  1  0
  6  4  1  0
  7  6  1  0
  8  7  1  0
  9  8  1  0
  9 10  1  0
 10 11  1  1
 10  6  1  0
 11 12  2  0
 13 14  1  0
 13 11  1  0
 14 15  1  0
 15 16  2  0
 15 17  1  0
M  END
$$$$
