APG.pdb
     RDKit          3D

 17 17  0  0  1  0  0  0  0  0999 V2000
    5.5924  -17.4476   19.9343 C   0  0  0  0  0  0  0  0  0  0  0  0
    6.3982  -16.8322   18.7912 C   0  0  2  0  0  0  0  0  0  0  0  0
    6.6059  -17.8682   17.7839 N   0  0  0  0  0  0  0  0  0  0  0  0
    7.6918  -16.3301   19.2897 C   0  0  0  0  0  0  0  0  0  0  0  0
    8.7123  -17.0731   19.1335 O   0  0  0  0  0  0  0  0  0  0  0  0
    7.7908  -15.0877   19.9074 N   0  0  0  0  0  0  0  0  0  0  0  0
    6.6961  -14.1890   20.1468 C   0  0  0  0  0  0  0  0  0  0  0  0
    7.2443  -12.7991   20.1645 C   0  0  0  0  0  0  0  0  0  0  0  0
    8.6597  -13.0059   20.5966 C   0  0  0  0  0  0  0  0  0  0  0  0
    8.9754  -14.4797   20.4260 C   0  0  1  0  0  0  0  0  0  0  0  0
    9.3868  -15.0686   21.7330 C   0  0  0  0  0  0  0  0  0  0  0  0
    8.4957  -15.3779   22.5581 O   0  0  0  0  0  0  0  0  0  0  0  0
   10.7559  -15.2731   22.0336 N   0  0  0  0  0  0  0  0  0  0  0  0
   11.1560  -16.1842   23.0782 C   0  0  0  0  0  0  0  0  0  0  0  0
   12.6339  -16.3139   23.1052 C   0  0  0  0  0  0  0  0  0  0  0  0
   13.3251  -15.7089   23.9621 O   0  0  0  0  0  0  0  0  0  0  0  0
   13.3075  -17.1196   22.1704 O   0  0  0  0  0  0  0  0  0  0  0  0
  2  1  1  1
  2  3  1  0
  4  5  2  0
  4  2  1  0
  6  4  1  0
  7  6  1  0
  8  7  1  0
  9  8  1  0
  9 10  1  0
 10 11  1  1
 10  6  1  0
 11 12  2  0
 13 14  1  0
 13 11  1  0
 14 15  1  0
 15 16  2  0
 15 17  1  0
M  END
$$$$
