APG.pdb
     RDKit          3D

 17 17  0  0  1  0  0  0  0  0999 V2000
    5.6970  -14.8734   22.5100 C   0  0  0  0  0  0  0  0  0  0  0  0
    6.8221  -13.8399   22.4886 C   0  0  2  0  0  0  0  0  0  0  0  0
    7.5814  -14.0327   21.2567 N   0  0  0  0  0  0  0  0  0  0  0  0
    7.6950  -14.0095   23.6648 C   0  0  0  0  0  0  0  0  0  0  0  0
    8.7579  -14.6921   23.5166 O   0  0  0  0  0  0  0  0  0  0  0  0
    7.3665  -13.4417   24.8914 N   0  0  0  0  0  0  0  0  0  0  0  0
    6.1755  -12.6868   25.1656 C   0  0  0  0  0  0  0  0  0  0  0  0
    6.4895  -11.7257   26.2656 C   0  0  0  0  0  0  0  0  0  0  0  0
    7.5937  -12.4125   27.0016 C   0  0  0  0  0  0  0  0  0  0  0  0
    8.1283  -13.5078   26.0986 C   0  0  1  0  0  0  0  0  0  0  0  0
    8.0039  -14.8321   26.7732 C   0  0  0  0  0  0  0  0  0  0  0  0
    6.8692  -15.3570   26.8587 O   0  0  0  0  0  0  0  0  0  0  0  0
    9.1450  -15.4811   27.3054 N   0  0  0  0  0  0  0  0  0  0  0  0
    9.2883  -16.9142   27.2199 C   0  0  0  0  0  0  0  0  0  0  0  0
   10.5462  -17.3425   27.8802 C   0  0  0  0  0  0  0  0  0  0  0  0
   11.6640  -17.1448   27.3424 O   0  0  0  0  0  0  0  0  0  0  0  0
   10.5254  -17.9842   29.1311 O   0  0  0  0  0  0  0  0  0  0  0  0
  2  1  1  1
  2  3  1  0
  4  5  2  0
  4  2  1  0
  6  4  1  0
  7  6  1  0
  8  7  1  0
  9  8  1  0
  9 10  1  0
 10 11  1  1
 10  6  1  0
 11 12  2  0
 13 14  1  0
 13 11  1  0
 14 15  1  0
 15 16  2  0
 15 17  1  0
M  END
$$$$
