APG.pdb
     RDKit          3D

 17 17  0  0  1  0  0  0  0  0999 V2000
    6.5127  -15.3231   22.6712 C   0  0  0  0  0  0  0  0  0  0  0  0
    7.2666  -13.9941   22.6797 C   0  0  2  0  0  0  0  0  0  0  0  0
    8.2105  -14.0097   21.5661 N   0  0  0  0  0  0  0  0  0  0  0  0
    7.9795  -13.8185   23.9583 C   0  0  0  0  0  0  0  0  0  0  0  0
    9.2138  -14.1238   23.9918 O   0  0  0  0  0  0  0  0  0  0  0  0
    7.3243  -13.3354   25.0862 N   0  0  0  0  0  0  0  0  0  0  0  0
    5.9139  -13.0800   25.1824 C   0  0  0  0  0  0  0  0  0  0  0  0
    5.7160  -11.9964   26.1921 C   0  0  0  0  0  0  0  0  0  0  0  0
    6.9058  -12.1508   27.0826 C   0  0  0  0  0  0  0  0  0  0  0  0
    7.9121  -13.0170   26.3491 C   0  0  1  0  0  0  0  0  0  0  0  0
    8.2190  -14.2354   27.1526 C   0  0  0  0  0  0  0  0  0  0  0  0
    8.6017  -14.0915   28.3372 O   0  0  0  0  0  0  0  0  0  0  0  0
    8.0802  -15.5267   26.5873 N   0  0  0  0  0  0  0  0  0  0  0  0
    8.2695  -16.7103   27.3903 C   0  0  0  0  0  0  0  0  0  0  0  0
    7.9605  -17.9234   26.5937 C   0  0  0  0  0  0  0  0  0  0  0  0
    6.9544  -18.6310   26.8486 O   0  0  0  0  0  0  0  0  0  0  0  0
    8.7861  -18.3190   25.5266 O   0  0  0  0  0  0  0  0  0  0  0  0
  2  1  1  1
  2  3  1  0
  4  5  2  0
  4  2  1  0
  6  4  1  0
  7  6  1  0
  8  7  1  0
  9  8  1  0
  9 10  1  0
 10 11  1  1
 10  6  1  0
 11 12  2  0
 13 14  1  0
 13 11  1  0
 14 15  1  0
 15 16  2  0
 15 17  1  0
M  END
$$$$
