APG.pdb
     RDKit          3D

 17 17  0  0  1  0  0  0  0  0999 V2000
    4.8625  -17.0281   21.6001 C   0  0  0  0  0  0  0  0  0  0  0  0
    5.4658  -16.9139   20.2010 C   0  0  2  0  0  0  0  0  0  0  0  0
    5.2653  -18.1913   19.5233 N   0  0  0  0  0  0  0  0  0  0  0  0
    6.9029  -16.5956   20.2880 C   0  0  0  0  0  0  0  0  0  0  0  0
    7.7265  -17.5614   20.2069 O   0  0  0  0  0  0  0  0  0  0  0  0
    7.3402  -15.2854   20.4519 N   0  0  0  0  0  0  0  0  0  0  0  0
    6.4908  -14.1299   20.5354 C   0  0  0  0  0  0  0  0  0  0  0  0
    7.2665  -12.9578   20.0285 C   0  0  0  0  0  0  0  0  0  0  0  0
    8.6811  -13.3502   20.3068 C   0  0  0  0  0  0  0  0  0  0  0  0
    8.6927  -14.8423   20.5798 C   0  0  1  0  0  0  0  0  0  0  0  0
    9.2485  -15.1088   21.9379 C   0  0  0  0  0  0  0  0  0  0  0  0
    8.4818  -15.0270   22.9258 O   0  0  0  0  0  0  0  0  0  0  0  0
   10.6137  -15.4469   22.1055 N   0  0  0  0  0  0  0  0  0  0  0  0
   11.0975  -15.9717   23.3594 C   0  0  0  0  0  0  0  0  0  0  0  0
   12.5588  -16.2173   23.2811 C   0  0  0  0  0  0  0  0  0  0  0  0
   13.2714  -16.2411   24.3153 O   0  0  0  0  0  0  0  0  0  0  0  0
   13.1920  -16.4313   22.0441 O   0  0  0  0  0  0  0  0  0  0  0  0
  2  1  1  1
  2  3  1  0
  4  5  2  0
  4  2  1  0
  6  4  1  0
  7  6  1  0
  8  7  1  0
  9  8  1  0
  9 10  1  0
 10 11  1  1
 10  6  1  0
 11 12  2  0
 13 14  1  0
 13 11  1  0
 14 15  1  0
 15 16  2  0
 15 17  1  0
M  END
$$$$
