APG.pdb
     RDKit          3D

 17 17  0  0  1  0  0  0  0  0999 V2000
    9.3775  -15.6419   28.4734 C   0  0  0  0  0  0  0  0  0  0  0  0
    7.9317  -16.1028   28.2950 C   0  0  2  0  0  0  0  0  0  0  0  0
    7.8992  -17.5507   28.4787 N   0  0  0  0  0  0  0  0  0  0  0  0
    7.4418  -15.7418   26.9519 C   0  0  0  0  0  0  0  0  0  0  0  0
    7.2378  -16.6866   26.1252 O   0  0  0  0  0  0  0  0  0  0  0  0
    7.2106  -14.4151   26.6037 N   0  0  0  0  0  0  0  0  0  0  0  0
    7.3005  -13.2936   27.4970 C   0  0  0  0  0  0  0  0  0  0  0  0
    6.3715  -12.2366   26.9946 C   0  0  0  0  0  0  0  0  0  0  0  0
    6.3086  -12.5191   25.5287 C   0  0  0  0  0  0  0  0  0  0  0  0
    6.8581  -13.9163   25.3118 C   0  0  1  0  0  0  0  0  0  0  0  0
    8.0270  -13.8676   24.3869 C   0  0  0  0  0  0  0  0  0  0  0  0
    9.1142  -13.4177   24.8181 O   0  0  0  0  0  0  0  0  0  0  0  0
    7.9089  -14.3207   23.0500 N   0  0  0  0  0  0  0  0  0  0  0  0
    9.0392  -14.2849   22.1540 C   0  0  0  0  0  0  0  0  0  0  0  0
    9.6693  -15.6258   22.0720 C   0  0  0  0  0  0  0  0  0  0  0  0
   10.2784  -16.1201   23.0531 O   0  0  0  0  0  0  0  0  0  0  0  0
    9.6037  -16.3858   20.8909 O   0  0  0  0  0  0  0  0  0  0  0  0
  2  1  1  6
  2  3  1  0
  4  5  2  0
  4  2  1  0
  6  4  1  0
  7  6  1  0
  8  7  1  0
  9  8  1  0
  9 10  1  0
 10 11  1  6
 10  6  1  0
 11 12  2  0
 13 14  1  0
 13 11  1  0
 14 15  1  0
 15 16  2  0
 15 17  1  0
M  END
$$$$
