APG.pdb
     RDKit          3D

 17 17  0  0  1  0  0  0  0  0999 V2000
    7.8961  -16.4103   17.0027 C   0  0  0  0  0  0  0  0  0  0  0  0
    8.8992  -15.2601   17.0763 C   0  0  2  0  0  0  0  0  0  0  0  0
   10.0094  -15.5787   16.1834 N   0  0  0  0  0  0  0  0  0  0  0  0
    9.3816  -15.0898   18.4592 C   0  0  0  0  0  0  0  0  0  0  0  0
   10.4441  -15.7041   18.7928 O   0  0  0  0  0  0  0  0  0  0  0  0
    8.6982  -14.2849   19.3648 N   0  0  0  0  0  0  0  0  0  0  0  0
    7.5091  -13.5326   19.0755 C   0  0  0  0  0  0  0  0  0  0  0  0
    7.4883  -12.3475   19.9852 C   0  0  0  0  0  0  0  0  0  0  0  0
    8.2747  -12.8201   21.1645 C   0  0  0  0  0  0  0  0  0  0  0  0
    9.0314  -14.0632   20.7366 C   0  0  1  0  0  0  0  0  0  0  0  0
    8.6519  -15.2159   21.6035 C   0  0  0  0  0  0  0  0  0  0  0  0
    7.6255  -15.8730   21.3115 O   0  0  0  0  0  0  0  0  0  0  0  0
    9.4360  -15.5592   22.7321 N   0  0  0  0  0  0  0  0  0  0  0  0
   10.8281  -15.1878   22.8066 C   0  0  0  0  0  0  0  0  0  0  0  0
   11.6662  -16.3899   23.0397 C   0  0  0  0  0  0  0  0  0  0  0  0
   12.0894  -16.6761   24.1873 O   0  0  0  0  0  0  0  0  0  0  0  0
   12.0132  -17.2473   21.9809 O   0  0  0  0  0  0  0  0  0  0  0  0
  2  1  1  1
  2  3  1  0
  4  5  2  0
  4  2  1  0
  6  4  1  0
  7  6  1  0
  8  7  1  0
  9  8  1  0
  9 10  1  0
 10 11  1  1
 10  6  1  0
 11 12  2  0
 13 14  1  0
 13 11  1  0
 14 15  1  0
 15 16  2  0
 15 17  1  0
M  END
$$$$
