APG.pdb
     RDKit          3D

 17 17  0  0  1  0  0  0  0  0999 V2000
    6.3595  -14.8018   22.2510 C   0  0  0  0  0  0  0  0  0  0  0  0
    7.4880  -13.7984   22.4837 C   0  0  2  0  0  0  0  0  0  0  0  0
    8.4839  -13.9961   21.4347 N   0  0  0  0  0  0  0  0  0  0  0  0
    8.0907  -14.0059   23.8133 C   0  0  0  0  0  0  0  0  0  0  0  0
    9.1606  -14.6910   23.8752 O   0  0  0  0  0  0  0  0  0  0  0  0
    7.5093  -13.4699   24.9576 N   0  0  0  0  0  0  0  0  0  0  0  0
    6.3031  -12.6904   24.9899 C   0  0  0  0  0  0  0  0  0  0  0  0
    6.3841  -11.7757   26.1686 C   0  0  0  0  0  0  0  0  0  0  0  0
    7.2822  -12.5182   27.1039 C   0  0  0  0  0  0  0  0  0  0  0  0
    7.9816  -13.5979   26.3002 C   0  0  1  0  0  0  0  0  0  0  0  0
    7.6827  -14.9397   26.8786 C   0  0  0  0  0  0  0  0  0  0  0  0
    6.6941  -15.5740   26.4417 O   0  0  0  0  0  0  0  0  0  0  0  0
    8.4997  -15.4838   27.8998 N   0  0  0  0  0  0  0  0  0  0  0  0
    9.9281  -15.5905   27.7265 C   0  0  0  0  0  0  0  0  0  0  0  0
   10.3290  -17.0173   27.6532 C   0  0  0  0  0  0  0  0  0  0  0  0
   10.3757  -17.7343   28.6835 O   0  0  0  0  0  0  0  0  0  0  0  0
   10.6698  -17.6117   26.4254 O   0  0  0  0  0  0  0  0  0  0  0  0
  2  1  1  6
  2  3  1  0
  4  5  2  0
  4  2  1  0
  6  4  1  0
  7  6  1  0
  8  7  1  0
  9  8  1  0
  9 10  1  0
 10 11  1  1
 10  6  1  0
 11 12  2  0
 13 14  1  0
 13 11  1  0
 14 15  1  0
 15 16  2  0
 15 17  1  0
M  END
$$$$
