APG.pdb
     RDKit          3D

 17 17  0  0  1  0  0  0  0  0999 V2000
    6.7070  -17.5791   18.9358 C   0  0  0  0  0  0  0  0  0  0  0  0
    7.7745  -16.6493   18.3611 C   0  0  2  0  0  0  0  0  0  0  0  0
    8.6375  -17.4441   17.4924 N   0  0  0  0  0  0  0  0  0  0  0  0
    8.5597  -16.0377   19.4491 C   0  0  0  0  0  0  0  0  0  0  0  0
    9.6240  -16.6313   19.8136 O   0  0  0  0  0  0  0  0  0  0  0  0
    8.1501  -14.8536   20.0532 N   0  0  0  0  0  0  0  0  0  0  0  0
    6.9872  -14.0933   19.6883 C   0  0  0  0  0  0  0  0  0  0  0  0
    7.2525  -12.6636   20.0320 C   0  0  0  0  0  0  0  0  0  0  0  0
    8.2358  -12.7682   21.1522 C   0  0  0  0  0  0  0  0  0  0  0  0
    8.7862  -14.1817   21.1422 C   0  0  1  0  0  0  0  0  0  0  0  0
    8.5156  -14.8445   22.4505 C   0  0  0  0  0  0  0  0  0  0  0  0
    7.4848  -15.5482   22.5640 O   0  0  0  0  0  0  0  0  0  0  0  0
    9.4056  -14.6810   23.5403 N   0  0  0  0  0  0  0  0  0  0  0  0
   10.8122  -14.9682   23.3964 C   0  0  0  0  0  0  0  0  0  0  0  0
   11.1058  -16.3405   23.8785 C   0  0  0  0  0  0  0  0  0  0  0  0
   10.7707  -17.3507   23.2113 O   0  0  0  0  0  0  0  0  0  0  0  0
   11.7695  -16.5526   25.0997 O   0  0  0  0  0  0  0  0  0  0  0  0
  2  1  1  1
  2  3  1  0
  4  5  2  0
  4  2  1  0
  6  4  1  0
  7  6  1  0
  8  7  1  0
  9  8  1  0
  9 10  1  0
 10 11  1  1
 10  6  1  0
 11 12  2  0
 13 14  1  0
 13 11  1  0
 14 15  1  0
 15 16  2  0
 15 17  1  0
M  END
$$$$
