APG.pdb
     RDKit          3D

 17 17  0  0  1  0  0  0  0  0999 V2000
    5.0472  -17.1022   21.5111 C   0  0  0  0  0  0  0  0  0  0  0  0
    5.7034  -16.9380   20.1410 C   0  0  2  0  0  0  0  0  0  0  0  0
    5.5727  -18.2058   19.4291 N   0  0  0  0  0  0  0  0  0  0  0  0
    7.1246  -16.5763   20.2947 C   0  0  0  0  0  0  0  0  0  0  0  0
    7.9793  -17.5177   20.2617 O   0  0  0  0  0  0  0  0  0  0  0  0
    7.5146  -15.2525   20.4683 N   0  0  0  0  0  0  0  0  0  0  0  0
    6.6238  -14.1303   20.5713 C   0  0  0  0  0  0  0  0  0  0  0  0
    7.3509  -12.9251   20.0698 C   0  0  0  0  0  0  0  0  0  0  0  0
    8.7816  -13.2675   20.3316 C   0  0  0  0  0  0  0  0  0  0  0  0
    8.8509  -14.7608   20.5889 C   0  0  1  0  0  0  0  0  0  0  0  0
    9.4287  -15.0202   21.9391 C   0  0  0  0  0  0  0  0  0  0  0  0
    8.6897  -14.8882   22.9426 O   0  0  0  0  0  0  0  0  0  0  0  0
   10.7836  -15.4074   22.0823 N   0  0  0  0  0  0  0  0  0  0  0  0
   11.2759  -15.9289   23.3342 C   0  0  0  0  0  0  0  0  0  0  0  0
   12.7026  -16.3147   23.2017 C   0  0  0  0  0  0  0  0  0  0  0  0
   13.0668  -17.1888   22.3764 O   0  0  0  0  0  0  0  0  0  0  0  0
   13.6927  -15.7124   23.9978 O   0  0  0  0  0  0  0  0  0  0  0  0
  2  1  1  1
  2  3  1  0
  4  5  2  0
  4  2  1  0
  6  4  1  0
  7  6  1  0
  8  7  1  0
  9  8  1  0
  9 10  1  0
 10 11  1  1
 10  6  1  0
 11 12  2  0
 13 14  1  0
 13 11  1  0
 14 15  1  0
 15 16  2  0
 15 17  1  0
M  END
$$$$
