APG.pdb
     RDKit          3D

 17 17  0  0  1  0  0  0  0  0999 V2000
    5.9201  -13.9501   21.9218 C   0  0  0  0  0  0  0  0  0  0  0  0
    7.1253  -13.0412   22.1576 C   0  0  2  0  0  0  0  0  0  0  0  0
    7.9712  -13.1048   20.9694 N   0  0  0  0  0  0  0  0  0  0  0  0
    7.8740  -13.4831   23.3485 C   0  0  0  0  0  0  0  0  0  0  0  0
    8.9255  -14.1738   23.1610 O   0  0  0  0  0  0  0  0  0  0  0  0
    7.4449  -13.1545   24.6302 N   0  0  0  0  0  0  0  0  0  0  0  0
    6.2386  -12.4410   24.9453 C   0  0  0  0  0  0  0  0  0  0  0  0
    6.4623  -11.7159   26.2324 C   0  0  0  0  0  0  0  0  0  0  0  0
    7.4961  -12.5547   26.9108 C   0  0  0  0  0  0  0  0  0  0  0  0
    8.1004  -13.4674   25.8607 C   0  0  1  0  0  0  0  0  0  0  0  0
    7.9122  -14.8936   26.2542 C   0  0  0  0  0  0  0  0  0  0  0  0
    6.7772  -15.4076   26.1201 O   0  0  0  0  0  0  0  0  0  0  0  0
    8.9943  -15.6494   26.7683 N   0  0  0  0  0  0  0  0  0  0  0  0
    9.2059  -17.0151   26.3540 C   0  0  0  0  0  0  0  0  0  0  0  0
   10.4330  -17.5574   26.9880 C   0  0  0  0  0  0  0  0  0  0  0  0
   10.3912  -18.1238   28.1084 O   0  0  0  0  0  0  0  0  0  0  0  0
   11.6829  -17.4538   26.3526 O   0  0  0  0  0  0  0  0  0  0  0  0
  2  1  1  6
  2  3  1  0
  4  5  2  0
  4  2  1  0
  6  4  1  0
  7  6  1  0
  8  7  1  0
  9  8  1  0
  9 10  1  0
 10 11  1  1
 10  6  1  0
 11 12  2  0
 13 14  1  0
 13 11  1  0
 14 15  1  0
 15 16  2  0
 15 17  1  0
M  END
$$$$
