HPK.pdb
     RDKit          3D

 27 28  0  0  1  0  0  0  0  0999 V2000
   26.7277  -23.6600  -16.9524 N   0  0  0  0  0  0  0  0  0  0  0  0
   25.7624  -22.6684  -17.1943 C   0  0  1  0  0  0  0  0  0  0  0  0
   25.0783  -22.9960  -18.5140 C   0  0  0  0  0  0  0  0  0  0  0  0
   26.1152  -23.0317  -19.5802 C   0  0  0  0  0  0  0  0  0  0  0  0
   26.6051  -24.1414  -20.2581 C   0  0  0  0  0  0  0  0  0  0  0  0
   27.5259  -23.7149  -21.1311 N   0  0  0  0  0  0  0  0  0  0  0  0
   27.6513  -22.3945  -21.0484 C   0  0  0  0  0  0  0  0  0  0  0  0
   26.7959  -21.9805  -20.1080 N   0  0  0  0  0  0  0  0  0  0  0  0
   24.8054  -22.3263  -16.1433 C   0  0  0  0  0  0  0  0  0  0  0  0
   24.0670  -23.3046  -15.7119 O   0  0  0  0  0  0  0  0  0  0  0  0
   24.5613  -21.1013  -15.5262 N   0  0  0  0  0  0  0  0  0  0  0  0
   25.5896  -20.0579  -15.3512 C   0  0  0  0  0  0  0  0  0  0  0  0
   24.8288  -18.8526  -15.9424 C   0  0  0  0  0  0  0  0  0  0  0  0
   23.3584  -19.2012  -15.8499 C   0  0  0  0  0  0  0  0  0  0  0  0
   23.4278  -20.4615  -14.9483 C   0  0  1  0  0  0  0  0  0  0  0  0
   22.1556  -21.1195  -14.8476 C   0  0  0  0  0  0  0  0  0  0  0  0
   21.3662  -21.5437  -15.6933 O   0  0  0  0  0  0  0  0  0  0  0  0
   21.7047  -21.3287  -13.4678 N   0  0  0  0  0  0  0  0  0  0  0  0
   20.4363  -21.9308  -13.1707 C   0  0  1  0  0  0  0  0  0  0  0  0
   20.3985  -22.4263  -11.7619 C   0  0  0  0  0  0  0  0  0  0  0  0
   19.1337  -23.0919  -11.3452 C   0  0  0  0  0  0  0  0  0  0  0  0
   19.1571  -23.7239   -9.9935 C   0  0  0  0  0  0  0  0  0  0  0  0
   17.8329  -24.4451   -9.7955 C   0  0  0  0  0  0  0  0  0  0  0  0
   17.6839  -24.9045   -8.4239 N   0  0  0  0  0  0  0  0  0  0  0  0
   19.3074  -20.9814  -13.3756 C   0  0  0  0  0  0  0  0  0  0  0  0
   18.1048  -21.4617  -13.8569 O   0  0  0  0  0  0  0  0  0  0  0  0
   19.4338  -19.7629  -13.1189 O   0  0  0  0  0  0  0  0  0  0  0  0
  2  9  1  0
  2  1  1  1
  3  2  1  0
  4  3  1  0
  4  8  1  0
  5  4  2  0
  6  5  1  0
  6  7  1  0
  7  8  2  0
  9 11  1  0
 10  9  2  0
 11 15  1  0
 11 12  1  0
 12 13  1  0
 14 13  1  0
 15 14  1  0
 15 16  1  6
 17 16  2  0
 18 16  1  0
 19 20  1  1
 19 18  1  0
 21 20  1  0
 22 23  1  0
 22 21  1  0
 24 23  1  0
 25 19  1  0
 25 26  1  0
 27 25  2  0
M  END
$$$$
