HPK.pdb
     RDKit          3D

 27 28  0  0  1  0  0  0  0  0999 V2000
   18.5050  -12.3487  -16.0853 N   0  0  0  0  0  0  0  0  0  0  0  0
   18.3381  -10.9541  -16.1171 C   0  0  1  0  0  0  0  0  0  0  0  0
   16.8725  -10.6535  -15.8368 C   0  0  0  0  0  0  0  0  0  0  0  0
   16.0427  -11.5142  -16.7221 C   0  0  0  0  0  0  0  0  0  0  0  0
   15.2275  -12.5790  -16.3577 C   0  0  0  0  0  0  0  0  0  0  0  0
   14.6687  -13.0673  -17.4718 N   0  0  0  0  0  0  0  0  0  0  0  0
   15.0817  -12.3736  -18.5273 C   0  0  0  0  0  0  0  0  0  0  0  0
   15.9147  -11.4320  -18.0726 N   0  0  0  0  0  0  0  0  0  0  0  0
   19.2375  -10.1054  -15.3373 C   0  0  0  0  0  0  0  0  0  0  0  0
   18.7465   -9.6268  -14.2334 O   0  0  0  0  0  0  0  0  0  0  0  0
   20.5531   -9.7274  -15.5971 N   0  0  0  0  0  0  0  0  0  0  0  0
   21.5946  -10.6658  -16.0570 C   0  0  0  0  0  0  0  0  0  0  0  0
   22.1144   -9.8847  -17.2820 C   0  0  0  0  0  0  0  0  0  0  0  0
   21.7372   -8.4377  -17.0450 C   0  0  0  0  0  0  0  0  0  0  0  0
   21.2866   -8.5073  -15.5623 C   0  0  1  0  0  0  0  0  0  0  0  0
   20.6902   -7.2766  -15.1248 C   0  0  0  0  0  0  0  0  0  0  0  0
   19.8985   -6.4972  -15.6578 O   0  0  0  0  0  0  0  0  0  0  0  0
   21.1031   -6.8639  -13.7794 N   0  0  0  0  0  0  0  0  0  0  0  0
   20.5920   -5.6721  -13.1649 C   0  0  1  0  0  0  0  0  0  0  0  0
   19.7903   -6.0016  -11.9481 C   0  0  0  0  0  0  0  0  0  0  0  0
   19.0941   -4.8544  -11.3033 C   0  0  0  0  0  0  0  0  0  0  0  0
   18.2716   -5.1949  -10.1055 C   0  0  0  0  0  0  0  0  0  0  0  0
   17.5690   -3.9257   -9.6491 C   0  0  0  0  0  0  0  0  0  0  0  0
   16.5235   -4.2215   -8.6827 N   0  0  0  0  0  0  0  0  0  0  0  0
   21.6815   -4.7320  -12.7811 C   0  0  0  0  0  0  0  0  0  0  0  0
   22.9680   -5.2157  -12.6420 O   0  0  0  0  0  0  0  0  0  0  0  0
   21.4475   -3.5182  -12.5846 O   0  0  0  0  0  0  0  0  0  0  0  0
  2  9  1  0
  2  1  1  1
  3  2  1  0
  4  3  1  0
  4  8  1  0
  5  4  2  0
  6  5  1  0
  6  7  1  0
  7  8  2  0
  9 11  1  0
 10  9  2  0
 11 15  1  0
 11 12  1  0
 12 13  1  0
 14 13  1  0
 15 14  1  0
 15 16  1  6
 17 16  2  0
 18 16  1  0
 19 20  1  1
 19 18  1  0
 21 20  1  0
 22 23  1  0
 22 21  1  0
 24 23  1  0
 25 19  1  0
 25 26  1  0
 27 25  2  0
M  END
$$$$
