HPK.pdb
     RDKit          3D

 27 28  0  0  1  0  0  0  0  0999 V2000
   27.8313  -25.9752  -20.1505 N   0  0  0  0  0  0  0  0  0  0  0  0
   28.9530  -26.2662  -19.3563 C   0  0  1  0  0  0  0  0  0  0  0  0
   28.5442  -26.1127  -17.8981 C   0  0  0  0  0  0  0  0  0  0  0  0
   27.8786  -24.7920  -17.7372 C   0  0  0  0  0  0  0  0  0  0  0  0
   28.4715  -23.5639  -17.4705 C   0  0  0  0  0  0  0  0  0  0  0  0
   27.5002  -22.6449  -17.4072 N   0  0  0  0  0  0  0  0  0  0  0  0
   26.3200  -23.2180  -17.6186 C   0  0  0  0  0  0  0  0  0  0  0  0
   26.5497  -24.5197  -17.8187 N   0  0  0  0  0  0  0  0  0  0  0  0
   29.7021  -27.4986  -19.5958 C   0  0  0  0  0  0  0  0  0  0  0  0
   28.9950  -28.5875  -19.6500 O   0  0  0  0  0  0  0  0  0  0  0  0
   31.0705  -27.6875  -19.7775 N   0  0  0  0  0  0  0  0  0  0  0  0
   31.8478  -27.0350  -20.8482 C   0  0  0  0  0  0  0  0  0  0  0  0
   32.9909  -26.4373  -20.0014 C   0  0  0  0  0  0  0  0  0  0  0  0
   33.0390  -27.2556  -18.7285 C   0  0  0  0  0  0  0  0  0  0  0  0
   32.0928  -28.4231  -19.1128 C   0  0  1  0  0  0  0  0  0  0  0  0
   31.8076  -29.2735  -17.9916 C   0  0  0  0  0  0  0  0  0  0  0  0
   31.2673  -29.0669  -16.9036 O   0  0  0  0  0  0  0  0  0  0  0  0
   32.2447  -30.6614  -18.1748 N   0  0  0  0  0  0  0  0  0  0  0  0
   31.9327  -31.6841  -17.2176 C   0  0  1  0  0  0  0  0  0  0  0  0
   30.4591  -31.9207  -17.1518 C   0  0  0  0  0  0  0  0  0  0  0  0
   30.0084  -32.9071  -16.1318 C   0  0  0  0  0  0  0  0  0  0  0  0
   28.5328  -33.1135  -16.0478 C   0  0  0  0  0  0  0  0  0  0  0  0
   28.2674  -34.1199  -14.9389 C   0  0  0  0  0  0  0  0  0  0  0  0
   26.8425  -34.3601  -14.7763 N   0  0  0  0  0  0  0  0  0  0  0  0
   32.6112  -32.9710  -17.5362 C   0  0  0  0  0  0  0  0  0  0  0  0
   32.9540  -33.8230  -16.5042 O   0  0  0  0  0  0  0  0  0  0  0  0
   32.8726  -33.2876  -18.7186 O   0  0  0  0  0  0  0  0  0  0  0  0
  2  9  1  0
  2  1  1  6
  3  2  1  0
  4  3  1  0
  4  8  1  0
  5  4  2  0
  6  5  1  0
  6  7  1  0
  7  8  2  0
  9 11  1  0
 10  9  2  0
 11 15  1  0
 11 12  1  0
 12 13  1  0
 14 13  1  0
 15 14  1  0
 15 16  1  1
 17 16  2  0
 18 16  1  0
 19 20  1  6
 19 18  1  0
 21 20  1  0
 22 23  1  0
 22 21  1  0
 24 23  1  0
 25 19  1  0
 25 26  1  0
 27 25  2  0
M  END
$$$$
