HPK.pdb
     RDKit          3D

 27 28  0  0  1  0  0  0  0  0999 V2000
   27.1199  -20.6812  -16.1198 N   0  0  0  0  0  0  0  0  0  0  0  0
   26.7523  -20.1115  -14.8893 C   0  0  1  0  0  0  0  0  0  0  0  0
   26.5927  -18.6123  -15.0988 C   0  0  0  0  0  0  0  0  0  0  0  0
   27.7893  -18.1138  -15.8289 C   0  0  0  0  0  0  0  0  0  0  0  0
   27.8362  -17.5088  -17.0789 C   0  0  0  0  0  0  0  0  0  0  0  0
   29.1157  -17.2217  -17.3476 N   0  0  0  0  0  0  0  0  0  0  0  0
   29.8886  -17.6096  -16.3386 C   0  0  0  0  0  0  0  0  0  0  0  0
   29.0842  -18.1505  -15.4179 N   0  0  0  0  0  0  0  0  0  0  0  0
   25.6405  -20.6878  -14.1348 C   0  0  0  0  0  0  0  0  0  0  0  0
   24.5326  -20.8466  -14.7950 O   0  0  0  0  0  0  0  0  0  0  0  0
   25.5853  -21.0977  -12.8044 N   0  0  0  0  0  0  0  0  0  0  0  0
   26.6821  -21.8149  -12.1268 C   0  0  0  0  0  0  0  0  0  0  0  0
   26.8260  -20.9279  -10.8723 C   0  0  0  0  0  0  0  0  0  0  0  0
   25.5021  -20.2105  -10.7145 C   0  0  0  0  0  0  0  0  0  0  0  0
   24.6407  -20.9872  -11.7445 C   0  0  1  0  0  0  0  0  0  0  0  0
   23.3547  -20.3780  -11.9358 C   0  0  0  0  0  0  0  0  0  0  0  0
   22.9813  -19.2038  -11.9498 O   0  0  0  0  0  0  0  0  0  0  0  0
   22.2707  -21.3405  -12.1582 N   0  0  0  0  0  0  0  0  0  0  0  0
   20.9410  -20.9167  -12.4924 C   0  0  1  0  0  0  0  0  0  0  0  0
   20.7069  -21.0078  -13.9650 C   0  0  0  0  0  0  0  0  0  0  0  0
   19.4079  -20.4633  -14.4473 C   0  0  0  0  0  0  0  0  0  0  0  0
   19.1822  -20.5533  -15.9198 C   0  0  0  0  0  0  0  0  0  0  0  0
   17.8714  -19.8484  -16.2322 C   0  0  0  0  0  0  0  0  0  0  0  0
   17.6577  -19.7464  -17.6669 N   0  0  0  0  0  0  0  0  0  0  0  0
   19.9057  -21.7257  -11.7913 C   0  0  0  0  0  0  0  0  0  0  0  0
   20.1857  -23.0389  -11.4664 O   0  0  0  0  0  0  0  0  0  0  0  0
   18.7934  -21.2340  -11.4952 O   0  0  0  0  0  0  0  0  0  0  0  0
  2  9  1  0
  2  1  1  6
  3  2  1  0
  4  3  1  0
  4  8  1  0
  5  4  2  0
  6  5  1  0
  6  7  1  0
  7  8  2  0
  9 11  1  0
 10  9  2  0
 11 15  1  0
 11 12  1  0
 12 13  1  0
 14 13  1  0
 15 14  1  0
 15 16  1  6
 17 16  2  0
 18 16  1  0
 19 20  1  6
 19 18  1  0
 21 20  1  0
 22 23  1  0
 22 21  1  0
 24 23  1  0
 25 19  1  0
 25 26  1  0
 27 25  2  0
M  END
$$$$
