HPK.pdb
     RDKit          3D

 27 28  0  0  1  0  0  0  0  0999 V2000
   15.2213  -20.5575    1.5706 N   0  0  0  0  0  0  0  0  0  0  0  0
   15.1519  -19.5607    2.5582 C   0  0  1  0  0  0  0  0  0  0  0  0
   13.9163  -19.8294    3.4057 C   0  0  0  0  0  0  0  0  0  0  0  0
   12.7315  -19.8576    2.5064 C   0  0  0  0  0  0  0  0  0  0  0  0
   12.2187  -20.9409    1.8033 C   0  0  0  0  0  0  0  0  0  0  0  0
   11.1476  -20.5171    1.1214 N   0  0  0  0  0  0  0  0  0  0  0  0
   10.9480  -19.2233    1.3499 C   0  0  0  0  0  0  0  0  0  0  0  0
   11.9084  -18.8236    2.1896 N   0  0  0  0  0  0  0  0  0  0  0  0
   16.3315  -19.2734    3.3726 C   0  0  0  0  0  0  0  0  0  0  0  0
   16.8394  -20.2869    4.0080 O   0  0  0  0  0  0  0  0  0  0  0  0
   17.0024  -18.0691    3.5741 N   0  0  0  0  0  0  0  0  0  0  0  0
   17.2616  -17.0914    2.5000 C   0  0  0  0  0  0  0  0  0  0  0  0
   16.7094  -15.8200    3.1778 C   0  0  0  0  0  0  0  0  0  0  0  0
   16.7389  -16.0944    4.6665 C   0  0  0  0  0  0  0  0  0  0  0  0
   17.5770  -17.3994    4.6918 C   0  0  1  0  0  0  0  0  0  0  0  0
   17.6051  -17.9934    5.9987 C   0  0  0  0  0  0  0  0  0  0  0  0
   16.7199  -18.4319    6.7353 O   0  0  0  0  0  0  0  0  0  0  0  0
   18.9508  -18.0999    6.5720 N   0  0  0  0  0  0  0  0  0  0  0  0
   19.1696  -18.6072    7.8964 C   0  0  1  0  0  0  0  0  0  0  0  0
   19.3730  -20.0870    7.8734 C   0  0  0  0  0  0  0  0  0  0  0  0
   18.1360  -20.9072    7.7570 C   0  0  0  0  0  0  0  0  0  0  0  0
   18.3407  -22.3849    7.7952 C   0  0  0  0  0  0  0  0  0  0  0  0
   16.9819  -23.0461    7.6239 C   0  0  0  0  0  0  0  0  0  0  0  0
   17.0926  -24.4954    7.6681 N   0  0  0  0  0  0  0  0  0  0  0  0
   20.3477  -17.9714    8.5490 C   0  0  0  0  0  0  0  0  0  0  0  0
   21.2015  -17.1978    7.7868 O   0  0  0  0  0  0  0  0  0  0  0  0
   20.5719  -18.1282    9.7704 O   0  0  0  0  0  0  0  0  0  0  0  0
  2  9  1  0
  2  1  1  1
  3  2  1  0
  4  3  1  0
  4  8  1  0
  5  4  2  0
  6  5  1  0
  6  7  1  0
  7  8  2  0
  9 11  1  0
 10  9  2  0
 11 15  1  0
 11 12  1  0
 12 13  1  0
 14 13  1  0
 15 14  1  0
 15 16  1  1
 17 16  2  0
 18 16  1  0
 19 20  1  6
 19 18  1  0
 21 20  1  0
 22 23  1  0
 22 21  1  0
 24 23  1  0
 25 19  1  0
 25 26  1  0
 27 25  2  0
M  END
$$$$
