HPK.pdb
     RDKit          3D

 27 28  0  0  1  0  0  0  0  0999 V2000
   25.0137  -14.8022  -17.4803 N   0  0  0  0  0  0  0  0  0  0  0  0
   24.7563  -13.4881  -17.9051 C   0  0  1  0  0  0  0  0  0  0  0  0
   23.8607  -13.5623  -19.1336 C   0  0  0  0  0  0  0  0  0  0  0  0
   24.3745  -14.6406  -20.0205 C   0  0  0  0  0  0  0  0  0  0  0  0
   23.7621  -15.8457  -20.3423 C   0  0  0  0  0  0  0  0  0  0  0  0
   24.5769  -16.5113  -21.1699 N   0  0  0  0  0  0  0  0  0  0  0  0
   25.6756  -15.7983  -21.3944 C   0  0  0  0  0  0  0  0  0  0  0  0
   25.5526  -14.6641  -20.6974 N   0  0  0  0  0  0  0  0  0  0  0  0
   24.2878  -12.4989  -16.9358 C   0  0  0  0  0  0  0  0  0  0  0  0
   23.0055  -12.4773  -16.7262 O   0  0  0  0  0  0  0  0  0  0  0  0
   25.0112  -11.5672  -16.1943 N   0  0  0  0  0  0  0  0  0  0  0  0
   26.2930  -11.8724  -15.5307 C   0  0  0  0  0  0  0  0  0  0  0  0
   27.1431  -10.7059  -16.0761 C   0  0  0  0  0  0  0  0  0  0  0  0
   26.1605   -9.6291  -16.4852 C   0  0  0  0  0  0  0  0  0  0  0  0
   24.8565  -10.1914  -15.8611 C   0  0  1  0  0  0  0  0  0  0  0  0
   23.7016   -9.4392  -16.2637 C   0  0  0  0  0  0  0  0  0  0  0  0
   23.1103   -9.3298  -17.3393 O   0  0  0  0  0  0  0  0  0  0  0  0
   23.1072   -8.6437  -15.1845 N   0  0  0  0  0  0  0  0  0  0  0  0
   21.8753   -7.9296  -15.3630 C   0  0  1  0  0  0  0  0  0  0  0  0
   20.7338   -8.8749  -15.5507 C   0  0  0  0  0  0  0  0  0  0  0  0
   19.4178   -8.2467  -15.8508 C   0  0  0  0  0  0  0  0  0  0  0  0
   18.2845   -9.1969  -16.0502 C   0  0  0  0  0  0  0  0  0  0  0  0
   17.0575   -8.3825  -16.4298 C   0  0  0  0  0  0  0  0  0  0  0  0
   15.9269   -9.2450  -16.7335 N   0  0  0  0  0  0  0  0  0  0  0  0
   21.5752   -7.0390  -14.2078 C   0  0  0  0  0  0  0  0  0  0  0  0
   20.7680   -5.9350  -14.4028 O   0  0  0  0  0  0  0  0  0  0  0  0
   22.0419   -7.2766  -13.0710 O   0  0  0  0  0  0  0  0  0  0  0  0
  2  9  1  0
  2  1  1  1
  3  2  1  0
  4  3  1  0
  4  8  1  0
  5  4  2  0
  6  5  1  0
  6  7  1  0
  7  8  2  0
  9 11  1  0
 10  9  2  0
 11 15  1  0
 11 12  1  0
 12 13  1  0
 14 13  1  0
 15 14  1  0
 15 16  1  6
 17 16  2  0
 18 16  1  0
 19 20  1  1
 19 18  1  0
 21 20  1  0
 22 23  1  0
 22 21  1  0
 24 23  1  0
 25 19  1  0
 25 26  1  0
 27 25  2  0
M  END
$$$$
