HPK.pdb
     RDKit          3D

 27 28  0  0  1  0  0  0  0  0999 V2000
   24.3349  -10.8203  -17.0788 N   0  0  0  0  0  0  0  0  0  0  0  0
   24.1945   -9.7412  -16.1902 C   0  0  1  0  0  0  0  0  0  0  0  0
   25.4699   -8.9132  -16.2571 C   0  0  0  0  0  0  0  0  0  0  0  0
   26.6307   -9.8437  -16.2478 C   0  0  0  0  0  0  0  0  0  0  0  0
   26.7431  -11.0620  -15.5889 C   0  0  0  0  0  0  0  0  0  0  0  0
   27.9564  -11.5613  -15.8547 N   0  0  0  0  0  0  0  0  0  0  0  0
   28.6249  -10.7296  -16.6467 C   0  0  0  0  0  0  0  0  0  0  0  0
   27.8210   -9.6883  -16.8849 N   0  0  0  0  0  0  0  0  0  0  0  0
   22.9914   -8.9128  -16.2511 C   0  0  0  0  0  0  0  0  0  0  0  0
   23.0455   -7.8975  -17.0604 O   0  0  0  0  0  0  0  0  0  0  0  0
   21.7836   -9.0457  -15.5694 N   0  0  0  0  0  0  0  0  0  0  0  0
   21.1898  -10.3477  -15.2104 C   0  0  0  0  0  0  0  0  0  0  0  0
   20.9368  -10.1036  -13.7080 C   0  0  0  0  0  0  0  0  0  0  0  0
   20.8790   -8.6007  -13.5333 C   0  0  0  0  0  0  0  0  0  0  0  0
   20.8238   -8.1506  -15.0167 C   0  0  1  0  0  0  0  0  0  0  0  0
   20.9506   -6.7266  -15.1500 C   0  0  0  0  0  0  0  0  0  0  0  0
   21.8185   -5.9288  -14.7913 O   0  0  0  0  0  0  0  0  0  0  0  0
   19.8273   -6.0950  -15.8502 N   0  0  0  0  0  0  0  0  0  0  0  0
   19.7568   -4.6740  -16.0374 C   0  0  1  0  0  0  0  0  0  0  0  0
   20.0096   -4.3113  -17.4644 C   0  0  0  0  0  0  0  0  0  0  0  0
   20.0929   -2.8535  -17.7552 C   0  0  0  0  0  0  0  0  0  0  0  0
   20.4113   -2.4992  -19.1695 C   0  0  0  0  0  0  0  0  0  0  0  0
   20.5300   -0.9853  -19.2530 C   0  0  0  0  0  0  0  0  0  0  0  0
   20.5949   -0.5381  -20.6351 N   0  0  0  0  0  0  0  0  0  0  0  0
   18.4346   -4.1233  -15.6297 C   0  0  0  0  0  0  0  0  0  0  0  0
   18.3723   -2.8494  -15.0989 O   0  0  0  0  0  0  0  0  0  0  0  0
   17.3869   -4.7954  -15.7612 O   0  0  0  0  0  0  0  0  0  0  0  0
  2  9  1  0
  2  1  1  6
  3  2  1  0
  4  3  1  0
  4  8  1  0
  5  4  2  0
  6  5  1  0
  6  7  1  0
  7  8  2  0
  9 11  1  0
 10  9  2  0
 11 15  1  0
 11 12  1  0
 12 13  1  0
 14 13  1  0
 15 14  1  0
 15 16  1  1
 17 16  2  0
 18 16  1  0
 19 20  1  6
 19 18  1  0
 21 20  1  0
 22 23  1  0
 22 21  1  0
 24 23  1  0
 25 19  1  0
 25 26  1  0
 27 25  2  0
M  END
$$$$
