HPK.pdb
     RDKit          3D

 27 28  0  0  1  0  0  0  0  0999 V2000
   20.5248  -14.3708  -17.2872 N   0  0  0  0  0  0  0  0  0  0  0  0
   20.8581  -13.0482  -17.6239 C   0  0  1  0  0  0  0  0  0  0  0  0
   20.0035  -12.6411  -18.8158 C   0  0  0  0  0  0  0  0  0  0  0  0
   20.1954  -13.6492  -19.8929 C   0  0  0  0  0  0  0  0  0  0  0  0
   21.2700  -13.7727  -20.7652 C   0  0  0  0  0  0  0  0  0  0  0  0
   21.0277  -14.8152  -21.5692 N   0  0  0  0  0  0  0  0  0  0  0  0
   19.8581  -15.3643  -21.2588 C   0  0  0  0  0  0  0  0  0  0  0  0
   19.3536  -14.6572  -20.2424 N   0  0  0  0  0  0  0  0  0  0  0  0
   20.8778  -12.0248  -16.5800 C   0  0  0  0  0  0  0  0  0  0  0  0
   19.7298  -11.4866  -16.2954 O   0  0  0  0  0  0  0  0  0  0  0  0
   21.9478  -11.5334  -15.8353 N   0  0  0  0  0  0  0  0  0  0  0  0
   22.9656  -12.3954  -15.2047 C   0  0  0  0  0  0  0  0  0  0  0  0
   24.2413  -11.7155  -15.7443 C   0  0  0  0  0  0  0  0  0  0  0  0
   23.8378  -10.3031  -16.1114 C   0  0  0  0  0  0  0  0  0  0  0  0
   22.4261  -10.2422  -15.4716 C   0  0  1  0  0  0  0  0  0  0  0  0
   21.7238   -9.0438  -15.8352 C   0  0  0  0  0  0  0  0  0  0  0  0
   20.9641   -8.7717  -16.7665 O   0  0  0  0  0  0  0  0  0  0  0  0
   21.9546   -7.9214  -14.9199 N   0  0  0  0  0  0  0  0  0  0  0  0
   21.3040   -6.6548  -15.0988 C   0  0  1  0  0  0  0  0  0  0  0  0
   19.8202   -6.7997  -15.0033 C   0  0  0  0  0  0  0  0  0  0  0  0
   19.0385   -5.5394  -15.1340 C   0  0  0  0  0  0  0  0  0  0  0  0
   17.9758   -5.5500  -16.1816 C   0  0  0  0  0  0  0  0  0  0  0  0
   17.2836   -4.1961  -16.1540 C   0  0  0  0  0  0  0  0  0  0  0  0
   16.1393   -4.1718  -17.0510 N   0  0  0  0  0  0  0  0  0  0  0  0
   21.7534   -5.6510  -14.0948 C   0  0  0  0  0  0  0  0  0  0  0  0
   22.0665   -4.3731  -14.5162 O   0  0  0  0  0  0  0  0  0  0  0  0
   21.8501   -5.9486  -12.8829 O   0  0  0  0  0  0  0  0  0  0  0  0
  2  9  1  0
  2  1  1  1
  3  2  1  0
  4  3  1  0
  4  8  1  0
  5  4  2  0
  6  5  1  0
  6  7  1  0
  7  8  2  0
  9 11  1  0
 10  9  2  0
 11 15  1  0
 11 12  1  0
 12 13  1  0
 14 13  1  0
 15 14  1  0
 15 16  1  6
 17 16  2  0
 18 16  1  0
 19 20  1  1
 19 18  1  0
 21 20  1  0
 22 23  1  0
 22 21  1  0
 24 23  1  0
 25 19  1  0
 25 26  1  0
 27 25  2  0
M  END
$$$$
