HPK.pdb
     RDKit          3D

 27 28  0  0  1  0  0  0  0  0999 V2000
   21.2701  -21.1120  -14.0178 N   0  0  0  0  0  0  0  0  0  0  0  0
   20.7382  -20.6311  -12.8097 C   0  0  1  0  0  0  0  0  0  0  0  0
   19.4371  -19.9082  -13.1283 C   0  0  0  0  0  0  0  0  0  0  0  0
   19.7237  -18.8578  -14.1420 C   0  0  0  0  0  0  0  0  0  0  0  0
   20.3898  -18.9992  -15.3533 C   0  0  0  0  0  0  0  0  0  0  0  0
   20.4221  -17.7993  -15.9459 N   0  0  0  0  0  0  0  0  0  0  0  0
   19.8137  -16.8995  -15.1803 C   0  0  0  0  0  0  0  0  0  0  0  0
   19.3904  -17.5414  -14.0866 N   0  0  0  0  0  0  0  0  0  0  0  0
   20.6040  -21.5396  -11.6722 C   0  0  0  0  0  0  0  0  0  0  0  0
   19.7000  -22.4653  -11.7926 O   0  0  0  0  0  0  0  0  0  0  0  0
   21.3032  -21.5669  -10.4674 N   0  0  0  0  0  0  0  0  0  0  0  0
   22.7246  -21.1919  -10.3418 C   0  0  0  0  0  0  0  0  0  0  0  0
   22.6172  -20.1825   -9.1797 C   0  0  0  0  0  0  0  0  0  0  0  0
   21.3334  -20.5198   -8.4513 C   0  0  0  0  0  0  0  0  0  0  0  0
   20.9866  -21.8785   -9.1144 C   0  0  1  0  0  0  0  0  0  0  0  0
   19.6849  -22.3464   -8.7292 C   0  0  0  0  0  0  0  0  0  0  0  0
   18.5583  -21.8583   -8.8328 O   0  0  0  0  0  0  0  0  0  0  0  0
   19.6959  -23.6641   -8.0853 N   0  0  0  0  0  0  0  0  0  0  0  0
   18.4877  -24.2968   -7.6390 C   0  0  1  0  0  0  0  0  0  0  0  0
   18.5000  -25.7556   -7.9604 C   0  0  0  0  0  0  0  0  0  0  0  0
   17.2772  -26.5123   -7.5745 C   0  0  0  0  0  0  0  0  0  0  0  0
   17.2631  -27.9517   -7.9681 C   0  0  0  0  0  0  0  0  0  0  0  0
   15.9222  -28.5342   -7.5491 C   0  0  0  0  0  0  0  0  0  0  0  0
   15.7968  -29.9209   -7.9685 N   0  0  0  0  0  0  0  0  0  0  0  0
   18.2801  -24.1303   -6.1737 C   0  0  0  0  0  0  0  0  0  0  0  0
   19.3806  -24.0911   -5.3396 O   0  0  0  0  0  0  0  0  0  0  0  0
   17.1294  -24.0263   -5.6924 O   0  0  0  0  0  0  0  0  0  0  0  0
  2  9  1  0
  2  1  1  6
  3  2  1  0
  4  3  1  0
  4  8  1  0
  5  4  2  0
  6  5  1  0
  6  7  1  0
  7  8  2  0
  9 11  1  0
 10  9  2  0
 11 15  1  0
 11 12  1  0
 12 13  1  0
 14 13  1  0
 15 14  1  0
 15 16  1  6
 17 16  2  0
 18 16  1  0
 19 20  1  1
 19 18  1  0
 21 20  1  0
 22 23  1  0
 22 21  1  0
 24 23  1  0
 25 19  1  0
 25 26  1  0
 27 25  2  0
M  END
$$$$
