HPK.pdb
     RDKit          3D

 27 28  0  0  1  0  0  0  0  0999 V2000
   19.1317  -13.5109  -15.8788 N   0  0  0  0  0  0  0  0  0  0  0  0
   18.2924  -12.4622  -16.2907 C   0  0  1  0  0  0  0  0  0  0  0  0
   17.0379  -13.0785  -16.8935 C   0  0  0  0  0  0  0  0  0  0  0  0
   17.4539  -14.0832  -17.9088 C   0  0  0  0  0  0  0  0  0  0  0  0
   18.4882  -15.0071  -17.8219 C   0  0  0  0  0  0  0  0  0  0  0  0
   18.5064  -15.7103  -18.9608 N   0  0  0  0  0  0  0  0  0  0  0  0
   17.5413  -15.2868  -19.7702 C   0  0  0  0  0  0  0  0  0  0  0  0
   16.9032  -14.3003  -19.1321 N   0  0  0  0  0  0  0  0  0  0  0  0
   17.9853  -11.3795  -15.3575 C   0  0  0  0  0  0  0  0  0  0  0  0
   17.2325  -11.7007  -14.3482 O   0  0  0  0  0  0  0  0  0  0  0  0
   18.3799  -10.0436  -15.3831 N   0  0  0  0  0  0  0  0  0  0  0  0
   19.7413   -9.6029  -15.7424 C   0  0  0  0  0  0  0  0  0  0  0  0
   19.3906   -8.5487  -16.8133 C   0  0  0  0  0  0  0  0  0  0  0  0
   17.9626   -8.1299  -16.5344 C   0  0  0  0  0  0  0  0  0  0  0  0
   17.7448   -8.7908  -15.1481 C   0  0  1  0  0  0  0  0  0  0  0  0
   16.3768   -8.7029  -14.7211 C   0  0  0  0  0  0  0  0  0  0  0  0
   15.3240   -9.1276  -15.2004 O   0  0  0  0  0  0  0  0  0  0  0  0
   16.1938   -7.9620  -13.4687 N   0  0  0  0  0  0  0  0  0  0  0  0
   14.8897   -7.6173  -12.9787 C   0  0  1  0  0  0  0  0  0  0  0  0
   14.6278   -8.2659  -11.6587 C   0  0  0  0  0  0  0  0  0  0  0  0
   13.2286   -8.1712  -11.1589 C   0  0  0  0  0  0  0  0  0  0  0  0
   12.9264   -8.9805   -9.9420 C   0  0  0  0  0  0  0  0  0  0  0  0
   11.4173   -8.9889   -9.7534 C   0  0  0  0  0  0  0  0  0  0  0  0
   11.0324   -9.8257   -8.6282 N   0  0  0  0  0  0  0  0  0  0  0  0
   14.7213   -6.1450  -12.8313 C   0  0  0  0  0  0  0  0  0  0  0  0
   15.8358   -5.3606  -12.6053 O   0  0  0  0  0  0  0  0  0  0  0  0
   13.5907   -5.6135  -12.9092 O   0  0  0  0  0  0  0  0  0  0  0  0
  2  9  1  0
  2  1  1  1
  3  2  1  0
  4  3  1  0
  4  8  1  0
  5  4  2  0
  6  5  1  0
  6  7  1  0
  7  8  2  0
  9 11  1  0
 10  9  2  0
 11 15  1  0
 11 12  1  0
 12 13  1  0
 14 13  1  0
 15 14  1  0
 15 16  1  6
 17 16  2  0
 18 16  1  0
 19 20  1  1
 19 18  1  0
 21 20  1  0
 22 23  1  0
 22 21  1  0
 24 23  1  0
 25 19  1  0
 25 26  1  0
 27 25  2  0
M  END
$$$$
