HPK.pdb
     RDKit          3D

 27 28  0  0  1  0  0  0  0  0999 V2000
   20.8758  -20.0281  -13.2572 N   0  0  0  0  0  0  0  0  0  0  0  0
   22.0592  -20.7843  -13.2902 C   0  0  1  0  0  0  0  0  0  0  0  0
   21.9043  -21.8458  -14.3701 C   0  0  0  0  0  0  0  0  0  0  0  0
   20.5821  -22.5038  -14.1905 C   0  0  0  0  0  0  0  0  0  0  0  0
   19.5406  -22.5915  -15.1061 C   0  0  0  0  0  0  0  0  0  0  0  0
   18.5417  -23.2688  -14.5269 N   0  0  0  0  0  0  0  0  0  0  0  0
   18.8874  -23.6184  -13.2924 C   0  0  0  0  0  0  0  0  0  0  0  0
   20.1246  -23.1545  -13.0886 N   0  0  0  0  0  0  0  0  0  0  0  0
   23.3479  -20.0982  -13.3675 C   0  0  0  0  0  0  0  0  0  0  0  0
   23.4427  -19.1762  -14.2783 O   0  0  0  0  0  0  0  0  0  0  0  0
   24.5010  -20.2814  -12.6074 N   0  0  0  0  0  0  0  0  0  0  0  0
   24.5249  -20.2122  -11.1339 C   0  0  0  0  0  0  0  0  0  0  0  0
   25.2379  -21.5465  -10.8304 C   0  0  0  0  0  0  0  0  0  0  0  0
   25.9999  -21.9079  -12.0878 C   0  0  0  0  0  0  0  0  0  0  0  0
   25.8647  -20.5839  -12.8847 C   0  0  1  0  0  0  0  0  0  0  0  0
   26.3539  -20.7144  -14.2283 C   0  0  0  0  0  0  0  0  0  0  0  0
   26.0129  -21.4253  -15.1752 O   0  0  0  0  0  0  0  0  0  0  0  0
   27.4814  -19.8287  -14.5366 N   0  0  0  0  0  0  0  0  0  0  0  0
   28.0509  -19.7608  -15.8521 C   0  0  1  0  0  0  0  0  0  0  0  0
   28.9716  -18.5908  -15.9745 C   0  0  0  0  0  0  0  0  0  0  0  0
   29.6586  -18.4442  -17.2872 C   0  0  0  0  0  0  0  0  0  0  0  0
   30.6238  -17.3100  -17.3824 C   0  0  0  0  0  0  0  0  0  0  0  0
   31.1995  -17.3076  -18.7900 C   0  0  0  0  0  0  0  0  0  0  0  0
   32.0948  -16.1795  -18.9904 N   0  0  0  0  0  0  0  0  0  0  0  0
   28.8011  -20.9997  -16.1990 C   0  0  0  0  0  0  0  0  0  0  0  0
   28.8580  -21.4031  -17.5190 O   0  0  0  0  0  0  0  0  0  0  0  0
   29.3763  -21.6747  -15.3158 O   0  0  0  0  0  0  0  0  0  0  0  0
  2  9  1  0
  2  1  1  6
  3  2  1  0
  4  3  1  0
  4  8  1  0
  5  4  2  0
  6  5  1  0
  6  7  1  0
  7  8  2  0
  9 11  1  0
 10  9  2  0
 11 15  1  0
 11 12  1  0
 12 13  1  0
 14 13  1  0
 15 14  1  0
 15 16  1  6
 17 16  2  0
 18 16  1  0
 19 20  1  1
 19 18  1  0
 21 20  1  0
 22 23  1  0
 22 21  1  0
 24 23  1  0
 25 19  1  0
 25 26  1  0
 27 25  2  0
M  END
$$$$
