HPK.pdb
     RDKit          3D

 27 28  0  0  1  0  0  0  0  0999 V2000
   16.7668  -20.3729    2.1449 N   0  0  0  0  0  0  0  0  0  0  0  0
   16.1167  -19.5712    3.0979 C   0  0  1  0  0  0  0  0  0  0  0  0
   15.0720  -20.4307    3.7956 C   0  0  0  0  0  0  0  0  0  0  0  0
   14.2713  -21.1284    2.7537 C   0  0  0  0  0  0  0  0  0  0  0  0
   14.2340  -22.4890    2.4742 C   0  0  0  0  0  0  0  0  0  0  0  0
   13.3806  -22.6759    1.4599 N   0  0  0  0  0  0  0  0  0  0  0  0
   12.8708  -21.5102    1.0763 C   0  0  0  0  0  0  0  0  0  0  0  0
   13.4109  -20.5721    1.8609 N   0  0  0  0  0  0  0  0  0  0  0  0
   16.9133  -18.7901    4.0427 C   0  0  0  0  0  0  0  0  0  0  0  0
   17.7773  -19.4621    4.7433 O   0  0  0  0  0  0  0  0  0  0  0  0
   16.8896  -17.4230    4.3099 N   0  0  0  0  0  0  0  0  0  0  0  0
   16.8813  -16.3875    3.2590 C   0  0  0  0  0  0  0  0  0  0  0  0
   15.6747  -15.5530    3.7370 C   0  0  0  0  0  0  0  0  0  0  0  0
   15.5188  -15.8521    5.2129 C   0  0  0  0  0  0  0  0  0  0  0  0
   16.8413  -16.6165    5.4827 C   0  0  1  0  0  0  0  0  0  0  0  0
   16.8703  -17.1901    6.7986 C   0  0  0  0  0  0  0  0  0  0  0  0
   16.3954  -18.2256    7.2683 O   0  0  0  0  0  0  0  0  0  0  0  0
   17.6099  -16.3874    7.7783 N   0  0  0  0  0  0  0  0  0  0  0  0
   17.6903  -16.7676    9.1597 C   0  0  1  0  0  0  0  0  0  0  0  0
   18.7022  -17.8488    9.3568 C   0  0  0  0  0  0  0  0  0  0  0  0
   18.7968  -18.4013   10.7361 C   0  0  0  0  0  0  0  0  0  0  0  0
   19.7784  -19.5107   10.9163 C   0  0  0  0  0  0  0  0  0  0  0  0
   19.6529  -20.0136   12.3461 C   0  0  0  0  0  0  0  0  0  0  0  0
   20.6685  -21.0107   12.6442 N   0  0  0  0  0  0  0  0  0  0  0  0
   18.0431  -15.6155   10.0350 C   0  0  0  0  0  0  0  0  0  0  0  0
   17.7693  -15.6905   11.3870 O   0  0  0  0  0  0  0  0  0  0  0  0
   18.5806  -14.5879    9.5641 O   0  0  0  0  0  0  0  0  0  0  0  0
  2  9  1  0
  2  1  1  1
  3  2  1  0
  4  3  1  0
  4  8  1  0
  5  4  2  0
  6  5  1  0
  6  7  1  0
  7  8  2  0
  9 11  1  0
 10  9  2  0
 11 15  1  0
 11 12  1  0
 12 13  1  0
 14 13  1  0
 15 14  1  0
 15 16  1  1
 17 16  2  0
 18 16  1  0
 19 20  1  6
 19 18  1  0
 21 20  1  0
 22 23  1  0
 22 21  1  0
 24 23  1  0
 25 19  1  0
 25 26  1  0
 27 25  2  0
M  END
$$$$
