HPK.pdb
     RDKit          3D

 27 28  0  0  1  0  0  0  0  0999 V2000
   24.8599  -18.0043  -18.8818 N   0  0  0  0  0  0  0  0  0  0  0  0
   24.9026  -17.5657  -17.5478 C   0  0  1  0  0  0  0  0  0  0  0  0
   23.7228  -16.6295  -17.3270 C   0  0  0  0  0  0  0  0  0  0  0  0
   23.8964  -15.4448  -18.2099 C   0  0  0  0  0  0  0  0  0  0  0  0
   24.5142  -14.2375  -17.9073 C   0  0  0  0  0  0  0  0  0  0  0  0
   24.4432  -13.4573  -18.9927 N   0  0  0  0  0  0  0  0  0  0  0  0
   23.8144  -14.0992  -19.9717 C   0  0  0  0  0  0  0  0  0  0  0  0
   23.4830  -15.3042  -19.4969 N   0  0  0  0  0  0  0  0  0  0  0  0
   25.0406  -18.5473  -16.4733 C   0  0  0  0  0  0  0  0  0  0  0  0
   23.9292  -19.0275  -16.0011 O   0  0  0  0  0  0  0  0  0  0  0  0
   26.1911  -19.0531  -15.8720 N   0  0  0  0  0  0  0  0  0  0  0  0
   27.4339  -19.3479  -16.6103 C   0  0  0  0  0  0  0  0  0  0  0  0
   28.4394  -18.5778  -15.7290 C   0  0  0  0  0  0  0  0  0  0  0  0
   27.7826  -18.4371  -14.3721 C   0  0  0  0  0  0  0  0  0  0  0  0
   26.5778  -19.3985  -14.5456 C   0  0  1  0  0  0  0  0  0  0  0  0
   25.6618  -19.3147  -13.4431 C   0  0  0  0  0  0  0  0  0  0  0  0
   25.1781  -18.3612  -12.8306 O   0  0  0  0  0  0  0  0  0  0  0  0
   25.2124  -20.6193  -12.9462 N   0  0  0  0  0  0  0  0  0  0  0  0
   24.3139  -20.7349  -11.8331 C   0  0  1  0  0  0  0  0  0  0  0  0
   23.0112  -21.3291  -12.2593 C   0  0  0  0  0  0  0  0  0  0  0  0
   21.9758  -21.4455  -11.1959 C   0  0  0  0  0  0  0  0  0  0  0  0
   20.6356  -21.9148  -11.6547 C   0  0  0  0  0  0  0  0  0  0  0  0
   19.6657  -21.7550  -10.4942 C   0  0  0  0  0  0  0  0  0  0  0  0
   18.3260  -22.1815  -10.8656 N   0  0  0  0  0  0  0  0  0  0  0  0
   24.8861  -21.5684  -10.7396 C   0  0  0  0  0  0  0  0  0  0  0  0
   24.6137  -21.2337   -9.4272 O   0  0  0  0  0  0  0  0  0  0  0  0
   25.6053  -22.5609  -10.9931 O   0  0  0  0  0  0  0  0  0  0  0  0
  2  9  1  0
  2  1  1  6
  3  2  1  0
  4  3  1  0
  4  8  1  0
  5  4  2  0
  6  5  1  0
  6  7  1  0
  7  8  2  0
  9 11  1  0
 10  9  2  0
 11 15  1  0
 11 12  1  0
 12 13  1  0
 14 13  1  0
 15 14  1  0
 15 16  1  1
 17 16  2  0
 18 16  1  0
 19 20  1  6
 19 18  1  0
 21 20  1  0
 22 23  1  0
 22 21  1  0
 24 23  1  0
 25 19  1  0
 25 26  1  0
 27 25  2  0
M  END
$$$$
