HPK.pdb
     RDKit          3D

 27 28  0  0  1  0  0  0  0  0999 V2000
   27.8479  -21.2071  -16.0433 N   0  0  0  0  0  0  0  0  0  0  0  0
   27.1486  -20.3482  -15.1791 C   0  0  1  0  0  0  0  0  0  0  0  0
   26.8946  -19.0444  -15.9225 C   0  0  0  0  0  0  0  0  0  0  0  0
   28.2021  -18.5155  -16.3958 C   0  0  0  0  0  0  0  0  0  0  0  0
   29.4686  -18.8018  -15.9009 C   0  0  0  0  0  0  0  0  0  0  0  0
   30.3571  -18.1072  -16.6220 N   0  0  0  0  0  0  0  0  0  0  0  0
   29.7284  -17.3933  -17.5499 C   0  0  0  0  0  0  0  0  0  0  0  0
   28.4218  -17.6410  -17.4126 N   0  0  0  0  0  0  0  0  0  0  0  0
   25.9540  -20.8371  -14.4925 C   0  0  0  0  0  0  0  0  0  0  0  0
   24.8756  -20.9041  -15.2145 O   0  0  0  0  0  0  0  0  0  0  0  0
   25.7920  -21.2472  -13.1709 N   0  0  0  0  0  0  0  0  0  0  0  0
   26.7860  -22.0578  -12.4418 C   0  0  0  0  0  0  0  0  0  0  0  0
   26.9354  -21.1922  -11.1732 C   0  0  0  0  0  0  0  0  0  0  0  0
   25.6699  -20.3661  -11.0803 C   0  0  0  0  0  0  0  0  0  0  0  0
   24.8037  -21.0623  -12.1625 C   0  0  1  0  0  0  0  0  0  0  0  0
   23.5858  -20.3457  -12.4172 C   0  0  0  0  0  0  0  0  0  0  0  0
   23.3550  -19.1743  -12.7220 O   0  0  0  0  0  0  0  0  0  0  0  0
   22.3776  -21.1672  -12.2900 N   0  0  0  0  0  0  0  0  0  0  0  0
   21.0747  -20.6459  -12.5901 C   0  0  1  0  0  0  0  0  0  0  0  0
   20.8995  -20.4642  -14.0625 C   0  0  0  0  0  0  0  0  0  0  0  0
   20.9927  -21.7038  -14.8818 C   0  0  0  0  0  0  0  0  0  0  0  0
   20.9207  -21.5029  -16.3588 C   0  0  0  0  0  0  0  0  0  0  0  0
   21.0816  -22.8628  -17.0203 C   0  0  0  0  0  0  0  0  0  0  0  0
   20.8812  -22.7755  -18.4580 N   0  0  0  0  0  0  0  0  0  0  0  0
   19.9900  -21.5319  -12.0839 C   0  0  0  0  0  0  0  0  0  0  0  0
   20.3163  -22.7844  -11.6009 O   0  0  0  0  0  0  0  0  0  0  0  0
   18.7953  -21.1585  -12.0908 O   0  0  0  0  0  0  0  0  0  0  0  0
  2  9  1  0
  2  1  1  6
  3  2  1  0
  4  3  1  0
  4  8  1  0
  5  4  2  0
  6  5  1  0
  6  7  1  0
  7  8  2  0
  9 11  1  0
 10  9  2  0
 11 15  1  0
 11 12  1  0
 12 13  1  0
 14 13  1  0
 15 14  1  0
 15 16  1  6
 17 16  2  0
 18 16  1  0
 19 20  1  6
 19 18  1  0
 21 20  1  0
 22 23  1  0
 22 21  1  0
 24 23  1  0
 25 19  1  0
 25 26  1  0
 27 25  2  0
M  END
$$$$
