HPK.pdb
     RDKit          3D

 27 28  0  0  1  0  0  0  0  0999 V2000
   28.0083  -19.5486  -19.0457 N   0  0  0  0  0  0  0  0  0  0  0  0
   27.1324  -19.0102  -18.0883 C   0  0  1  0  0  0  0  0  0  0  0  0
   26.2355  -18.0016  -18.7920 C   0  0  0  0  0  0  0  0  0  0  0  0
   27.1013  -16.9757  -19.4333 C   0  0  0  0  0  0  0  0  0  0  0  0
   27.6524  -15.8399  -18.8529 C   0  0  0  0  0  0  0  0  0  0  0  0
   28.3610  -15.2021  -19.7926 N   0  0  0  0  0  0  0  0  0  0  0  0
   28.2929  -15.8676  -20.9408 C   0  0  0  0  0  0  0  0  0  0  0  0
   27.5291  -16.9429  -20.7227 N   0  0  0  0  0  0  0  0  0  0  0  0
   26.3783  -19.9110  -17.2180 C   0  0  0  0  0  0  0  0  0  0  0  0
   25.2761  -20.3859  -17.7162 O   0  0  0  0  0  0  0  0  0  0  0  0
   26.6623  -20.3437  -15.9245 N   0  0  0  0  0  0  0  0  0  0  0  0
   27.9967  -20.8022  -15.4934 C   0  0  0  0  0  0  0  0  0  0  0  0
   28.1700  -19.9259  -14.2353 C   0  0  0  0  0  0  0  0  0  0  0  0
   26.7728  -19.5321  -13.8053 C   0  0  0  0  0  0  0  0  0  0  0  0
   25.9295  -20.4685  -14.7098 C   0  0  1  0  0  0  0  0  0  0  0  0
   24.5279  -20.1659  -14.6358 C   0  0  0  0  0  0  0  0  0  0  0  0
   23.8833  -19.1384  -14.8529 O   0  0  0  0  0  0  0  0  0  0  0  0
   23.6981  -21.3015  -14.2201 N   0  0  0  0  0  0  0  0  0  0  0  0
   22.2707  -21.1957  -14.1156 C   0  0  1  0  0  0  0  0  0  0  0  0
   21.6002  -22.3481  -14.7896 C   0  0  0  0  0  0  0  0  0  0  0  0
   21.8365  -23.6829  -14.1740 C   0  0  0  0  0  0  0  0  0  0  0  0
   21.1707  -24.8307  -14.8568 C   0  0  0  0  0  0  0  0  0  0  0  0
   21.4423  -26.0807  -14.0343 C   0  0  0  0  0  0  0  0  0  0  0  0
   20.6851  -27.2159  -14.5368 N   0  0  0  0  0  0  0  0  0  0  0  0
   21.8185  -21.1403  -12.6978 C   0  0  0  0  0  0  0  0  0  0  0  0
   20.5710  -20.6210  -12.4104 O   0  0  0  0  0  0  0  0  0  0  0  0
   22.5494  -21.5552  -11.7703 O   0  0  0  0  0  0  0  0  0  0  0  0
  2  9  1  0
  2  1  1  6
  3  2  1  0
  4  3  1  0
  4  8  1  0
  5  4  2  0
  6  5  1  0
  6  7  1  0
  7  8  2  0
  9 11  1  0
 10  9  2  0
 11 15  1  0
 11 12  1  0
 12 13  1  0
 14 13  1  0
 15 14  1  0
 15 16  1  6
 17 16  2  0
 18 16  1  0
 19 20  1  1
 19 18  1  0
 21 20  1  0
 22 23  1  0
 22 21  1  0
 24 23  1  0
 25 19  1  0
 25 26  1  0
 27 25  2  0
M  END
$$$$
