HNK.pdb
     RDKit          3D

 28 28  0  0  1  0  0  0  0  0999 V2000
    9.4400  -15.8237   16.6438 N   0  0  0  0  0  0  0  0  0  0  0  0
   10.5597  -14.9359   16.8883 C   0  0  1  0  0  0  0  0  0  0  0  0
   10.0124  -13.5401   17.1939 C   0  0  0  0  0  0  0  0  0  0  0  0
    9.0163  -13.5971   18.2900 C   0  0  0  0  0  0  0  0  0  0  0  0
    8.5770  -14.7054   18.9813 C   0  0  0  0  0  0  0  0  0  0  0  0
    7.6604  -14.3098   19.9061 N   0  0  0  0  0  0  0  0  0  0  0  0
    7.5292  -12.9766   19.7945 C   0  0  0  0  0  0  0  0  0  0  0  0
    8.3506  -12.5605   18.8185 N   0  0  0  0  0  0  0  0  0  0  0  0
   11.3259  -15.4630   18.0451 C   0  0  0  0  0  0  0  0  0  0  0  0
   10.9390  -16.5186   18.6031 O   0  0  0  0  0  0  0  0  0  0  0  0
   15.7272  -14.0727   17.2859 N   0  0  0  0  0  0  0  0  0  0  0  0
   15.3255  -15.1720   18.0853 C   0  0  0  0  0  0  0  0  0  0  0  0
   15.4933  -16.3340   17.6421 O   0  0  0  0  0  0  0  0  0  0  0  0
   14.7246  -14.8780   19.4116 C   0  0  0  0  0  0  0  0  0  0  0  0
   13.3300  -15.4351   19.5319 C   0  0  2  0  0  0  0  0  0  0  0  0
   12.4830  -14.8266   18.5548 N   0  0  0  0  0  0  0  0  0  0  0  0
   12.7943  -15.3014   20.9122 C   0  0  0  0  0  0  0  0  0  0  0  0
   13.1893  -14.3037   21.5853 O   0  0  0  0  0  0  0  0  0  0  0  0
   11.8969  -16.2004   21.4917 N   0  0  0  0  0  0  0  0  0  0  0  0
   11.3967  -16.0247   22.8924 C   0  0  1  0  0  0  0  0  0  0  0  0
   10.0079  -16.5022   22.9641 C   0  0  0  0  0  0  0  0  0  0  0  0
    8.9648  -16.0156   22.0625 C   0  0  0  0  0  0  0  0  0  0  0  0
    7.5971  -16.5340   22.1014 C   0  0  0  0  0  0  0  0  0  0  0  0
    6.6046  -16.0752   21.0912 C   0  0  0  0  0  0  0  0  0  0  0  0
    5.3477  -16.7769   21.1161 N   0  0  0  0  0  0  0  0  0  0  0  0
   12.3282  -16.8006   23.7714 C   0  0  0  0  0  0  0  0  0  0  0  0
   12.3570  -16.5606   25.1632 O   0  0  0  0  0  0  0  0  0  0  0  0
   13.1145  -17.6756   23.3760 O   0  0  0  0  0  0  0  0  0  0  0  0
  2  1  1  1
  2  9  1  0
  3  2  1  0
  4  3  1  0
  5  4  2  0
  6  5  1  0
  7  6  1  0
  7  8  2  0
  8  4  1  0
  9 10  2  0
 11 12  1  0
 12 14  1  0
 13 12  2  0
 15 14  1  1
 15 17  1  0
 16  9  1  0
 16 15  1  0
 17 18  2  0
 19 20  1  0
 19 17  1  0
 20 26  1  0
 20 21  1  6
 22 21  1  0
 23 22  1  0
 24 23  1  0
 25 24  1  0
 26 28  2  0
 26 27  1  0
M  END
$$$$
