HNK.pdb
     RDKit          3D

 28 28  0  0  1  0  0  0  0  0999 V2000
   10.2629  -15.6326   17.2019 N   0  0  0  0  0  0  0  0  0  0  0  0
   10.9162  -14.5796   17.9544 C   0  0  1  0  0  0  0  0  0  0  0  0
   10.0038  -14.1770   19.1148 C   0  0  0  0  0  0  0  0  0  0  0  0
    8.7794  -13.5109   18.6109 C   0  0  0  0  0  0  0  0  0  0  0  0
    8.3759  -13.3529   17.3027 C   0  0  0  0  0  0  0  0  0  0  0  0
    7.1908  -12.6842   17.2876 N   0  0  0  0  0  0  0  0  0  0  0  0
    6.8594  -12.4286   18.5651 C   0  0  0  0  0  0  0  0  0  0  0  0
    7.8237  -12.9313   19.3510 N   0  0  0  0  0  0  0  0  0  0  0  0
   12.2084  -15.1050   18.4617 C   0  0  0  0  0  0  0  0  0  0  0  0
   12.3266  -16.3371   18.6696 O   0  0  0  0  0  0  0  0  0  0  0  0
   15.9690  -13.1378   16.3243 N   0  0  0  0  0  0  0  0  0  0  0  0
   15.9169  -14.2486   17.2033 C   0  0  0  0  0  0  0  0  0  0  0  0
   16.0507  -15.4019   16.7272 O   0  0  0  0  0  0  0  0  0  0  0  0
   15.7051  -13.9762   18.6481 C   0  0  0  0  0  0  0  0  0  0  0  0
   14.5675  -14.7877   19.2113 C   0  0  2  0  0  0  0  0  0  0  0  0
   13.3247  -14.2757   18.7256 N   0  0  0  0  0  0  0  0  0  0  0  0
   14.6138  -14.8559   20.6957 C   0  0  0  0  0  0  0  0  0  0  0  0
   14.9428  -13.7966   21.3074 O   0  0  0  0  0  0  0  0  0  0  0  0
   14.3191  -16.0038   21.4339 N   0  0  0  0  0  0  0  0  0  0  0  0
   14.4792  -16.0483   22.9223 C   0  0  1  0  0  0  0  0  0  0  0  0
   13.6169  -17.1104   23.4610 C   0  0  0  0  0  0  0  0  0  0  0  0
   13.6532  -17.5112   24.8666 C   0  0  0  0  0  0  0  0  0  0  0  0
   12.7608  -18.5366   25.4078 C   0  0  0  0  0  0  0  0  0  0  0  0
   12.8487  -18.9072   26.8469 C   0  0  0  0  0  0  0  0  0  0  0  0
   11.8175  -19.8011   27.3055 N   0  0  0  0  0  0  0  0  0  0  0  0
   15.9345  -16.2885   23.1812 C   0  0  0  0  0  0  0  0  0  0  0  0
   16.5703  -15.6766   24.2842 O   0  0  0  0  0  0  0  0  0  0  0  0
   16.6702  -17.0076   22.4870 O   0  0  0  0  0  0  0  0  0  0  0  0
  2  1  1  1
  2  9  1  0
  3  2  1  0
  4  3  1  0
  5  4  2  0
  6  5  1  0
  7  6  1  0
  7  8  2  0
  8  4  1  0
  9 10  2  0
 11 12  1  0
 12 14  1  0
 13 12  2  0
 15 14  1  1
 15 17  1  0
 16  9  1  0
 16 15  1  0
 17 18  2  0
 19 20  1  0
 19 17  1  0
 20 26  1  0
 20 21  1  6
 22 21  1  0
 23 22  1  0
 24 23  1  0
 25 24  1  0
 26 28  2  0
 26 27  1  0
M  END
$$$$
