HNK.pdb
     RDKit          3D

 28 28  0  0  1  0  0  0  0  0999 V2000
    8.0750  -17.6268   18.7899 N   0  0  0  0  0  0  0  0  0  0  0  0
    9.0092  -16.7891   19.5160 C   0  0  1  0  0  0  0  0  0  0  0  0
    8.2612  -15.5520   20.0170 C   0  0  0  0  0  0  0  0  0  0  0  0
    8.0191  -14.6013   18.9060 C   0  0  0  0  0  0  0  0  0  0  0  0
    8.4438  -14.6975   17.5984 C   0  0  0  0  0  0  0  0  0  0  0  0
    8.0000  -13.6091   16.9126 N   0  0  0  0  0  0  0  0  0  0  0  0
    7.3095  -12.8457   17.7772 C   0  0  0  0  0  0  0  0  0  0  0  0
    7.3288  -13.4541   18.9729 N   0  0  0  0  0  0  0  0  0  0  0  0
    9.5469  -17.5736   20.6556 C   0  0  0  0  0  0  0  0  0  0  0  0
    8.8852  -18.5463   21.0928 O   0  0  0  0  0  0  0  0  0  0  0  0
   14.5024  -18.0969   24.2723 N   0  0  0  0  0  0  0  0  0  0  0  0
   13.3300  -18.5977   23.6529 C   0  0  0  0  0  0  0  0  0  0  0  0
   12.8279  -19.6639   24.0838 O   0  0  0  0  0  0  0  0  0  0  0  0
   12.7623  -17.8217   22.5206 C   0  0  0  0  0  0  0  0  0  0  0  0
   11.2708  -18.0021   22.4084 C   0  0  2  0  0  0  0  0  0  0  0  0
   10.7818  -17.2747   21.2796 N   0  0  0  0  0  0  0  0  0  0  0  0
   10.5696  -17.6377   23.6677 C   0  0  0  0  0  0  0  0  0  0  0  0
   10.6554  -16.4305   24.0418 O   0  0  0  0  0  0  0  0  0  0  0  0
    9.8369  -18.5391   24.4422 N   0  0  0  0  0  0  0  0  0  0  0  0
    9.0799  -18.1021   25.6583 C   0  0  1  0  0  0  0  0  0  0  0  0
    7.6550  -18.4096   25.4665 C   0  0  0  0  0  0  0  0  0  0  0  0
    7.1976  -19.6656   24.8742 C   0  0  0  0  0  0  0  0  0  0  0  0
    5.7778  -19.9730   24.6989 C   0  0  0  0  0  0  0  0  0  0  0  0
    5.3740  -21.2195   23.9923 C   0  0  0  0  0  0  0  0  0  0  0  0
    3.9532  -21.4401   23.9190 N   0  0  0  0  0  0  0  0  0  0  0  0
    9.6857  -18.8342   26.8157 C   0  0  0  0  0  0  0  0  0  0  0  0
   10.7849  -19.6980   26.6131 O   0  0  0  0  0  0  0  0  0  0  0  0
    9.2966  -18.7511   27.9912 O   0  0  0  0  0  0  0  0  0  0  0  0
  2  1  1  1
  2  9  1  0
  3  2  1  0
  4  3  1  0
  5  4  2  0
  6  5  1  0
  7  6  1  0
  7  8  2  0
  8  4  1  0
  9 10  2  0
 11 12  1  0
 12 14  1  0
 13 12  2  0
 15 14  1  1
 15 17  1  0
 16  9  1  0
 16 15  1  0
 17 18  2  0
 19 20  1  0
 19 17  1  0
 20 26  1  0
 20 21  1  6
 22 21  1  0
 23 22  1  0
 24 23  1  0
 25 24  1  0
 26 28  2  0
 26 27  1  0
M  END
$$$$
