HNK.pdb
     RDKit          3D

 28 28  0  0  1  0  0  0  0  0999 V2000
    9.1614  -15.4443   20.8436 N   0  0  0  0  0  0  0  0  0  0  0  0
    7.8590  -14.8785   21.1358 C   0  0  1  0  0  0  0  0  0  0  0  0
    6.9908  -14.9896   19.8809 C   0  0  0  0  0  0  0  0  0  0  0  0
    7.4814  -14.0752   18.8226 C   0  0  0  0  0  0  0  0  0  0  0  0
    8.6003  -13.2711   18.8469 C   0  0  0  0  0  0  0  0  0  0  0  0
    8.6798  -12.5955   17.6683 N   0  0  0  0  0  0  0  0  0  0  0  0
    7.6280  -12.9712   16.9201 C   0  0  0  0  0  0  0  0  0  0  0  0
    6.9151  -13.8617   17.6264 N   0  0  0  0  0  0  0  0  0  0  0  0
    7.2607  -15.6459   22.2566 C   0  0  0  0  0  0  0  0  0  0  0  0
    6.1126  -15.3400   22.6611 O   0  0  0  0  0  0  0  0  0  0  0  0
    5.4943  -18.8756   22.9718 N   0  0  0  0  0  0  0  0  0  0  0  0
    6.6452  -19.5859   23.3959 C   0  0  0  0  0  0  0  0  0  0  0  0
    6.6958  -20.8246   23.2016 O   0  0  0  0  0  0  0  0  0  0  0  0
    7.7313  -18.8125   24.0508 C   0  0  0  0  0  0  0  0  0  0  0  0
    7.4282  -17.3371   24.0841 C   0  0  2  0  0  0  0  0  0  0  0  0
    7.9288  -16.7163   22.8981 N   0  0  0  0  0  0  0  0  0  0  0  0
    7.9377  -16.6920   25.3228 C   0  0  0  0  0  0  0  0  0  0  0  0
    7.4593  -17.1039   26.4210 O   0  0  0  0  0  0  0  0  0  0  0  0
    8.8963  -15.6769   25.3368 N   0  0  0  0  0  0  0  0  0  0  0  0
    9.1694  -14.8655   26.5656 C   0  0  1  0  0  0  0  0  0  0  0  0
    7.9597  -14.1044   26.9106 C   0  0  0  0  0  0  0  0  0  0  0  0
    7.5719  -12.8862   26.2013 C   0  0  0  0  0  0  0  0  0  0  0  0
    6.4962  -12.0161   26.6776 C   0  0  0  0  0  0  0  0  0  0  0  0
    6.0676  -10.8530   25.8532 C   0  0  0  0  0  0  0  0  0  0  0  0
    4.9510  -10.1147   26.3831 N   0  0  0  0  0  0  0  0  0  0  0  0
    9.5720  -15.8385   27.6304 C   0  0  0  0  0  0  0  0  0  0  0  0
   10.1580  -15.3767   28.8299 O   0  0  0  0  0  0  0  0  0  0  0  0
    9.4337  -17.0696   27.5568 O   0  0  0  0  0  0  0  0  0  0  0  0
  2  1  1  6
  2  9  1  0
  3  2  1  0
  4  3  1  0
  5  4  2  0
  6  5  1  0
  7  6  1  0
  7  8  2  0
  8  4  1  0
  9 10  2  0
 11 12  1  0
 12 14  1  0
 13 12  2  0
 15 14  1  1
 15 17  1  0
 16  9  1  0
 16 15  1  0
 17 18  2  0
 19 20  1  0
 19 17  1  0
 20 26  1  0
 20 21  1  1
 22 21  1  0
 23 22  1  0
 24 23  1  0
 25 24  1  0
 26 28  2  0
 26 27  1  0
M  END
$$$$
