HNK.pdb
     RDKit          3D

 28 28  0  0  1  0  0  0  0  0999 V2000
    8.2831  -17.2758   18.9097 N   0  0  0  0  0  0  0  0  0  0  0  0
    9.0992  -16.5136   19.8342 C   0  0  1  0  0  0  0  0  0  0  0  0
    8.2778  -15.3249   20.3376 C   0  0  0  0  0  0  0  0  0  0  0  0
    8.0637  -14.3393   19.2515 C   0  0  0  0  0  0  0  0  0  0  0  0
    8.5213  -14.3943   17.9527 C   0  0  0  0  0  0  0  0  0  0  0  0
    8.0947  -13.2845   17.2908 N   0  0  0  0  0  0  0  0  0  0  0  0
    7.3824  -12.5484   18.1614 C   0  0  0  0  0  0  0  0  0  0  0  0
    7.3717  -13.1944   19.3374 N   0  0  0  0  0  0  0  0  0  0  0  0
    9.4784  -17.4030   20.9603 C   0  0  0  0  0  0  0  0  0  0  0  0
    8.7013  -17.5122   21.9398 O   0  0  0  0  0  0  0  0  0  0  0  0
    9.9867  -20.9987   20.6540 N   0  0  0  0  0  0  0  0  0  0  0  0
   11.3951  -21.0586   20.8022 C   0  0  0  0  0  0  0  0  0  0  0  0
   12.0228  -21.9854   20.2351 O   0  0  0  0  0  0  0  0  0  0  0  0
   12.0474  -20.0101   21.6277 C   0  0  0  0  0  0  0  0  0  0  0  0
   11.0642  -18.9656   22.0880 C   0  0  2  0  0  0  0  0  0  0  0  0
   10.6862  -18.1409   20.9837 N   0  0  0  0  0  0  0  0  0  0  0  0
   11.5860  -18.1768   23.2351 C   0  0  0  0  0  0  0  0  0  0  0  0
   12.5355  -17.3740   22.9929 O   0  0  0  0  0  0  0  0  0  0  0  0
   11.0931  -18.2737   24.5378 N   0  0  0  0  0  0  0  0  0  0  0  0
   11.6193  -17.4161   25.6471 C   0  0  1  0  0  0  0  0  0  0  0  0
   10.5278  -16.5699   26.1516 C   0  0  0  0  0  0  0  0  0  0  0  0
   10.7028  -15.6551   27.2786 C   0  0  0  0  0  0  0  0  0  0  0  0
    9.6297  -14.7748   27.7416 C   0  0  0  0  0  0  0  0  0  0  0  0
    9.8875  -13.8173   28.8519 C   0  0  0  0  0  0  0  0  0  0  0  0
    8.8118  -12.8988   29.1206 N   0  0  0  0  0  0  0  0  0  0  0  0
   12.1591  -18.3535   26.6826 C   0  0  0  0  0  0  0  0  0  0  0  0
   13.1318  -17.9089   27.6054 O   0  0  0  0  0  0  0  0  0  0  0  0
   11.8180  -19.5395   26.8142 O   0  0  0  0  0  0  0  0  0  0  0  0
  2  1  1  6
  2  9  1  0
  3  2  1  0
  4  3  1  0
  5  4  2  0
  6  5  1  0
  7  6  1  0
  7  8  2  0
  8  4  1  0
  9 10  2  0
 11 12  1  0
 12 14  1  0
 13 12  2  0
 15 14  1  6
 15 17  1  0
 16  9  1  0
 16 15  1  0
 17 18  2  0
 19 20  1  0
 19 17  1  0
 20 26  1  0
 20 21  1  1
 22 21  1  0
 23 22  1  0
 24 23  1  0
 25 24  1  0
 26 28  2  0
 26 27  1  0
M  END
$$$$
