HNK.pdb
     RDKit          3D

 28 28  0  0  1  0  0  0  0  0999 V2000
    9.8104  -15.5181   20.0263 N   0  0  0  0  0  0  0  0  0  0  0  0
    8.9625  -14.7654   20.9298 C   0  0  1  0  0  0  0  0  0  0  0  0
    7.5517  -14.7151   20.3398 C   0  0  0  0  0  0  0  0  0  0  0  0
    7.5843  -14.2060   18.9482 C   0  0  0  0  0  0  0  0  0  0  0  0
    7.8822  -12.9314   18.5171 C   0  0  0  0  0  0  0  0  0  0  0  0
    7.7963  -12.8969   17.1595 N   0  0  0  0  0  0  0  0  0  0  0  0
    7.4505  -14.1295   16.7491 C   0  0  0  0  0  0  0  0  0  0  0  0
    7.3261  -14.9073   17.8353 N   0  0  0  0  0  0  0  0  0  0  0  0
    8.9567  -15.4555   22.2438 C   0  0  0  0  0  0  0  0  0  0  0  0
    8.1188  -15.1085   23.1114 O   0  0  0  0  0  0  0  0  0  0  0  0
   10.8805  -19.8301   21.7121 N   0  0  0  0  0  0  0  0  0  0  0  0
   10.0774  -19.4072   22.8008 C   0  0  0  0  0  0  0  0  0  0  0  0
    8.9189  -19.8758   22.9142 O   0  0  0  0  0  0  0  0  0  0  0  0
   10.6626  -18.4257   23.7498 C   0  0  0  0  0  0  0  0  0  0  0  0
    9.8407  -17.1657   23.8319 C   0  0  2  0  0  0  0  0  0  0  0  0
    9.8595  -16.4960   22.5695 N   0  0  0  0  0  0  0  0  0  0  0  0
   10.2783  -16.2873   24.9486 C   0  0  0  0  0  0  0  0  0  0  0  0
   11.4394  -15.7883   24.8632 O   0  0  0  0  0  0  0  0  0  0  0  0
    9.4911  -15.9907   26.0630 N   0  0  0  0  0  0  0  0  0  0  0  0
    9.9630  -15.0616   27.1386 C   0  0  1  0  0  0  0  0  0  0  0  0
    8.8609  -14.1597   27.5042 C   0  0  0  0  0  0  0  0  0  0  0  0
    8.2190  -13.2739   26.5341 C   0  0  0  0  0  0  0  0  0  0  0  0
    7.0504  -12.4618   26.8744 C   0  0  0  0  0  0  0  0  0  0  0  0
    6.4303  -11.5901   25.8392 C   0  0  0  0  0  0  0  0  0  0  0  0
    5.2515  -10.8845   26.2697 N   0  0  0  0  0  0  0  0  0  0  0  0
   10.4115  -15.9278   28.2748 C   0  0  0  0  0  0  0  0  0  0  0  0
   11.1726  -15.3779   29.3300 O   0  0  0  0  0  0  0  0  0  0  0  0
   10.1671  -17.1397   28.3836 O   0  0  0  0  0  0  0  0  0  0  0  0
  2  1  1  6
  2  9  1  0
  3  2  1  0
  4  3  1  0
  5  4  2  0
  6  5  1  0
  7  6  1  0
  7  8  2  0
  8  4  1  0
  9 10  2  0
 11 12  1  0
 12 14  1  0
 13 12  2  0
 15 14  1  6
 15 17  1  0
 16  9  1  0
 16 15  1  0
 17 18  2  0
 19 20  1  0
 19 17  1  0
 20 26  1  0
 20 21  1  1
 22 21  1  0
 23 22  1  0
 24 23  1  0
 25 24  1  0
 26 28  2  0
 26 27  1  0
M  END
$$$$
