HNK.pdb
     RDKit          3D

 28 28  0  0  1  0  0  0  0  0999 V2000
   13.8310  -13.7017   16.5320 N   0  0  0  0  0  0  0  0  0  0  0  0
   13.7021  -15.0350   17.0864 C   0  0  1  0  0  0  0  0  0  0  0  0
   14.9522  -15.8357   16.7160 C   0  0  0  0  0  0  0  0  0  0  0  0
   14.9381  -16.1921   15.2774 C   0  0  0  0  0  0  0  0  0  0  0  0
   13.8924  -16.7033   14.5395 C   0  0  0  0  0  0  0  0  0  0  0  0
   14.3088  -16.8840   13.2566 N   0  0  0  0  0  0  0  0  0  0  0  0
   15.5933  -16.4922   13.1940 C   0  0  0  0  0  0  0  0  0  0  0  0
   15.9595  -16.0783   14.4166 N   0  0  0  0  0  0  0  0  0  0  0  0
   13.5747  -14.9144   18.5603 C   0  0  0  0  0  0  0  0  0  0  0  0
   14.3509  -14.1462   19.1789 O   0  0  0  0  0  0  0  0  0  0  0  0
   11.9185  -15.1202   23.3491 N   0  0  0  0  0  0  0  0  0  0  0  0
   11.0057  -15.9521   22.6537 C   0  0  0  0  0  0  0  0  0  0  0  0
   10.0734  -16.4941   23.2953 O   0  0  0  0  0  0  0  0  0  0  0  0
   11.2111  -16.1330   21.1937 C   0  0  0  0  0  0  0  0  0  0  0  0
   12.5160  -15.5378   20.7325 C   0  0  2  0  0  0  0  0  0  0  0  0
   12.6111  -15.6311   19.3096 N   0  0  0  0  0  0  0  0  0  0  0  0
   13.6819  -16.1502   21.4223 C   0  0  0  0  0  0  0  0  0  0  0  0
   13.8626  -17.3918   21.2481 O   0  0  0  0  0  0  0  0  0  0  0  0
   14.5688  -15.4414   22.2348 N   0  0  0  0  0  0  0  0  0  0  0  0
   15.8158  -16.0686   22.7778 C   0  0  1  0  0  0  0  0  0  0  0  0
   16.9399  -15.1426   22.5753 C   0  0  0  0  0  0  0  0  0  0  0  0
   18.2318  -15.5820   22.0504 C   0  0  0  0  0  0  0  0  0  0  0  0
   19.1356  -14.6737   21.3441 C   0  0  0  0  0  0  0  0  0  0  0  0
   20.4099  -15.1935   20.7767 C   0  0  0  0  0  0  0  0  0  0  0  0
   21.1663  -14.2366   20.0118 N   0  0  0  0  0  0  0  0  0  0  0  0
   15.5469  -16.3551   24.2228 C   0  0  0  0  0  0  0  0  0  0  0  0
   16.4659  -17.1157   24.9792 O   0  0  0  0  0  0  0  0  0  0  0  0
   14.5470  -15.9704   24.8492 O   0  0  0  0  0  0  0  0  0  0  0  0
  2  1  1  6
  2  9  1  0
  3  2  1  0
  4  3  1  0
  5  4  2  0
  6  5  1  0
  7  6  1  0
  7  8  2  0
  8  4  1  0
  9 10  2  0
 11 12  1  0
 12 14  1  0
 13 12  2  0
 15 14  1  1
 15 17  1  0
 16  9  1  0
 16 15  1  0
 17 18  2  0
 19 20  1  0
 19 17  1  0
 20 26  1  0
 20 21  1  1
 22 21  1  0
 23 22  1  0
 24 23  1  0
 25 24  1  0
 26 28  2  0
 26 27  1  0
M  END
$$$$
