HNK.pdb
     RDKit          3D

 28 28  0  0  1  0  0  0  0  0999 V2000
    4.9383  -19.2354   20.2753 N   0  0  0  0  0  0  0  0  0  0  0  0
    4.6146  -17.9662   20.8965 C   0  0  1  0  0  0  0  0  0  0  0  0
    3.6445  -18.2262   22.0508 C   0  0  0  0  0  0  0  0  0  0  0  0
    2.3553  -18.7519   21.5426 C   0  0  0  0  0  0  0  0  0  0  0  0
    2.0374  -19.1194   20.2529 C   0  0  0  0  0  0  0  0  0  0  0  0
    0.7464  -19.5488   20.2255 N   0  0  0  0  0  0  0  0  0  0  0  0
    0.2657  -19.4513   21.4771 C   0  0  0  0  0  0  0  0  0  0  0  0
    1.2439  -18.9704   22.2596 N   0  0  0  0  0  0  0  0  0  0  0  0
    5.8737  -17.3599   21.3966 C   0  0  0  0  0  0  0  0  0  0  0  0
    6.7722  -18.1083   21.8523 O   0  0  0  0  0  0  0  0  0  0  0  0
    8.2372  -14.8726   19.3066 N   0  0  0  0  0  0  0  0  0  0  0  0
    7.6226  -13.7938   19.9905 C   0  0  0  0  0  0  0  0  0  0  0  0
    7.2967  -12.7727   19.3380 O   0  0  0  0  0  0  0  0  0  0  0  0
    7.4001  -13.9401   21.4518 C   0  0  0  0  0  0  0  0  0  0  0  0
    7.3274  -15.3866   21.8665 C   0  0  2  0  0  0  0  0  0  0  0  0
    6.1124  -15.9647   21.3848 N   0  0  0  0  0  0  0  0  0  0  0  0
    7.4947  -15.5541   23.3342 C   0  0  0  0  0  0  0  0  0  0  0  0
    6.5087  -15.2351   24.0627 O   0  0  0  0  0  0  0  0  0  0  0  0
    8.6584  -16.0350   23.9375 N   0  0  0  0  0  0  0  0  0  0  0  0
    8.7302  -16.3095   25.4080 C   0  0  1  0  0  0  0  0  0  0  0  0
    8.3311  -17.7036   25.6508 C   0  0  0  0  0  0  0  0  0  0  0  0
    8.3033  -18.2884   26.9905 C   0  0  0  0  0  0  0  0  0  0  0  0
    7.9120  -19.6785   27.2260 C   0  0  0  0  0  0  0  0  0  0  0  0
    7.8224  -20.1944   28.6195 C   0  0  0  0  0  0  0  0  0  0  0  0
    7.5058  -21.5947   28.7270 N   0  0  0  0  0  0  0  0  0  0  0  0
   10.1415  -16.0248   25.8199 C   0  0  0  0  0  0  0  0  0  0  0  0
   10.4717  -15.9040   27.1880 O   0  0  0  0  0  0  0  0  0  0  0  0
   11.0939  -15.8780   25.0379 O   0  0  0  0  0  0  0  0  0  0  0  0
  2  1  1  1
  2  9  1  0
  3  2  1  0
  4  3  1  0
  5  4  2  0
  6  5  1  0
  7  6  1  0
  7  8  2  0
  8  4  1  0
  9 10  2  0
 11 12  1  0
 12 14  1  0
 13 12  2  0
 15 14  1  1
 15 17  1  0
 16  9  1  0
 16 15  1  0
 17 18  2  0
 19 20  1  0
 19 17  1  0
 20 26  1  0
 20 21  1  6
 22 21  1  0
 23 22  1  0
 24 23  1  0
 25 24  1  0
 26 28  2  0
 26 27  1  0
M  END
$$$$
