HNK.pdb
     RDKit          3D

 28 28  0  0  1  0  0  0  0  0999 V2000
    9.0899  -14.2565   19.4434 N   0  0  0  0  0  0  0  0  0  0  0  0
    8.2701  -15.4116   19.7520 C   0  0  1  0  0  0  0  0  0  0  0  0
    8.0268  -16.1915   18.4583 C   0  0  0  0  0  0  0  0  0  0  0  0
    7.9046  -15.2678   17.3056 C   0  0  0  0  0  0  0  0  0  0  0  0
    8.1666  -13.9152   17.2699 C   0  0  0  0  0  0  0  0  0  0  0  0
    7.9247  -13.4553   16.0122 N   0  0  0  0  0  0  0  0  0  0  0  0
    7.5184  -14.5030   15.2744 C   0  0  0  0  0  0  0  0  0  0  0  0
    7.5107  -15.5873   16.0647 N   0  0  0  0  0  0  0  0  0  0  0  0
    8.9987  -16.2476   20.7386 C   0  0  0  0  0  0  0  0  0  0  0  0
    8.4040  -17.2121   21.2783 O   0  0  0  0  0  0  0  0  0  0  0  0
   13.3288  -18.8902   22.8214 N   0  0  0  0  0  0  0  0  0  0  0  0
   13.2325  -17.4810   22.9391 C   0  0  0  0  0  0  0  0  0  0  0  0
   13.7717  -16.9193   23.9232 O   0  0  0  0  0  0  0  0  0  0  0  0
   12.4920  -16.7488   21.8799 C   0  0  0  0  0  0  0  0  0  0  0  0
   11.0070  -16.7441   22.1343 C   0  0  2  0  0  0  0  0  0  0  0  0
   10.3449  -16.0072   21.1043 N   0  0  0  0  0  0  0  0  0  0  0  0
   10.6768  -16.2435   23.4946 C   0  0  0  0  0  0  0  0  0  0  0  0
   11.4816  -16.5430   24.4258 O   0  0  0  0  0  0  0  0  0  0  0  0
    9.5488  -15.4761   23.7914 N   0  0  0  0  0  0  0  0  0  0  0  0
    9.2630  -14.9969   25.1813 C   0  0  1  0  0  0  0  0  0  0  0  0
    8.1952  -13.9877   25.1254 C   0  0  0  0  0  0  0  0  0  0  0  0
    7.6319  -13.3760   26.3280 C   0  0  0  0  0  0  0  0  0  0  0  0
    6.7254  -12.2291   26.2673 C   0  0  0  0  0  0  0  0  0  0  0  0
    6.2790  -11.5734   27.5270 C   0  0  0  0  0  0  0  0  0  0  0  0
    5.4990  -10.3773   27.3429 N   0  0  0  0  0  0  0  0  0  0  0  0
    8.8813  -16.2092   25.9732 C   0  0  0  0  0  0  0  0  0  0  0  0
    8.4198  -17.3711   25.3156 O   0  0  0  0  0  0  0  0  0  0  0  0
    8.9339  -16.2953   27.2101 O   0  0  0  0  0  0  0  0  0  0  0  0
  2  1  1  6
  2  9  1  0
  3  2  1  0
  4  3  1  0
  5  4  2  0
  6  5  1  0
  7  6  1  0
  7  8  2  0
  8  4  1  0
  9 10  2  0
 11 12  1  0
 12 14  1  0
 13 12  2  0
 15 14  1  6
 15 17  1  0
 16  9  1  0
 16 15  1  0
 17 18  2  0
 19 20  1  0
 19 17  1  0
 20 26  1  0
 20 21  1  6
 22 21  1  0
 23 22  1  0
 24 23  1  0
 25 24  1  0
 26 28  2  0
 26 27  1  0
M  END
$$$$
