HNK.pdb
     RDKit          3D

 28 28  0  0  1  0  0  0  0  0999 V2000
    8.4066  -17.8658   18.2773 N   0  0  0  0  0  0  0  0  0  0  0  0
    9.7820  -17.5925   17.9097 C   0  0  1  0  0  0  0  0  0  0  0  0
    9.8628  -17.4837   16.3856 C   0  0  0  0  0  0  0  0  0  0  0  0
    8.7032  -18.1541   15.7510 C   0  0  0  0  0  0  0  0  0  0  0  0
    7.5132  -18.5277   16.3372 C   0  0  0  0  0  0  0  0  0  0  0  0
    6.7250  -19.1119   15.3941 N   0  0  0  0  0  0  0  0  0  0  0  0
    7.4110  -19.1033   14.2381 C   0  0  0  0  0  0  0  0  0  0  0  0
    8.5996  -18.5243   14.4668 N   0  0  0  0  0  0  0  0  0  0  0  0
   10.1880  -16.3156   18.5483 C   0  0  0  0  0  0  0  0  0  0  0  0
   11.3564  -15.8912   18.3749 O   0  0  0  0  0  0  0  0  0  0  0  0
    6.4021  -13.2242   19.1173 N   0  0  0  0  0  0  0  0  0  0  0  0
    7.8174  -13.2251   19.0390 C   0  0  0  0  0  0  0  0  0  0  0  0
    8.3605  -13.0266   17.9253 O   0  0  0  0  0  0  0  0  0  0  0  0
    8.5778  -13.4635   20.2925 C   0  0  0  0  0  0  0  0  0  0  0  0
    9.7452  -14.3903   20.0732 C   0  0  2  0  0  0  0  0  0  0  0  0
    9.3130  -15.5459   19.3518 N   0  0  0  0  0  0  0  0  0  0  0  0
   10.4277  -14.7372   21.3475 C   0  0  0  0  0  0  0  0  0  0  0  0
   10.7987  -13.7721   22.0793 O   0  0  0  0  0  0  0  0  0  0  0  0
   10.6752  -16.0448   21.7698 N   0  0  0  0  0  0  0  0  0  0  0  0
   11.4835  -16.3393   22.9957 C   0  0  1  0  0  0  0  0  0  0  0  0
   10.8165  -17.4038   23.7598 C   0  0  0  0  0  0  0  0  0  0  0  0
   11.4460  -18.0571   24.9063 C   0  0  0  0  0  0  0  0  0  0  0  0
   10.8363  -19.2028   25.5819 C   0  0  0  0  0  0  0  0  0  0  0  0
   11.5433  -19.8506   26.7206 C   0  0  0  0  0  0  0  0  0  0  0  0
   10.7686  -20.8324   27.4339 N   0  0  0  0  0  0  0  0  0  0  0  0
   12.8471  -16.7302   22.5158 C   0  0  0  0  0  0  0  0  0  0  0  0
   13.9895  -16.4059   23.2807 O   0  0  0  0  0  0  0  0  0  0  0  0
   13.0810  -17.3404   21.4608 O   0  0  0  0  0  0  0  0  0  0  0  0
  2  1  1  6
  2  9  1  0
  3  2  1  0
  4  3  1  0
  5  4  2  0
  6  5  1  0
  7  6  1  0
  7  8  2  0
  8  4  1  0
  9 10  2  0
 11 12  1  0
 12 14  1  0
 13 12  2  0
 15 14  1  1
 15 17  1  0
 16  9  1  0
 16 15  1  0
 17 18  2  0
 19 20  1  0
 19 17  1  0
 20 26  1  0
 20 21  1  6
 22 21  1  0
 23 22  1  0
 24 23  1  0
 25 24  1  0
 26 28  2  0
 26 27  1  0
M  END
$$$$
