HNK.pdb
     RDKit          3D

 28 28  0  0  1  0  0  0  0  0999 V2000
    6.8742  -17.3138   18.8432 N   0  0  0  0  0  0  0  0  0  0  0  0
    7.5949  -16.4347   19.7429 C   0  0  1  0  0  0  0  0  0  0  0  0
    7.1630  -14.9942   19.4607 C   0  0  0  0  0  0  0  0  0  0  0  0
    7.8000  -14.4904   18.2208 C   0  0  0  0  0  0  0  0  0  0  0  0
    8.6602  -15.1584   17.3763 C   0  0  0  0  0  0  0  0  0  0  0  0
    9.0065  -14.3266   16.3565 N   0  0  0  0  0  0  0  0  0  0  0  0
    8.3733  -13.1584   16.5604 C   0  0  0  0  0  0  0  0  0  0  0  0
    7.6509  -13.2705   17.6855 N   0  0  0  0  0  0  0  0  0  0  0  0
    7.2578  -16.8193   21.1363 C   0  0  0  0  0  0  0  0  0  0  0  0
    6.0518  -16.9514   21.4580 O   0  0  0  0  0  0  0  0  0  0  0  0
    6.4613  -19.3587   25.5131 N   0  0  0  0  0  0  0  0  0  0  0  0
    7.8127  -19.2548   25.0985 C   0  0  0  0  0  0  0  0  0  0  0  0
    8.7199  -19.4957   25.9312 O   0  0  0  0  0  0  0  0  0  0  0  0
    8.0742  -18.8631   23.6897 C   0  0  0  0  0  0  0  0  0  0  0  0
    7.9085  -17.3805   23.4793 C   0  0  2  0  0  0  0  0  0  0  0  0
    8.2401  -17.0461   22.1300 N   0  0  0  0  0  0  0  0  0  0  0  0
    8.6840  -16.5876   24.4692 C   0  0  0  0  0  0  0  0  0  0  0  0
    9.9320  -16.4923   24.2748 O   0  0  0  0  0  0  0  0  0  0  0  0
    8.1185  -15.9560   25.5786 N   0  0  0  0  0  0  0  0  0  0  0  0
    8.9233  -15.0691   26.4779 C   0  0  1  0  0  0  0  0  0  0  0  0
    8.0228  -14.0985   27.1173 C   0  0  0  0  0  0  0  0  0  0  0  0
    7.3319  -13.0551   26.3614 C   0  0  0  0  0  0  0  0  0  0  0  0
    6.3663  -12.1502   26.9858 C   0  0  0  0  0  0  0  0  0  0  0  0
    5.6667  -11.1308   26.1567 C   0  0  0  0  0  0  0  0  0  0  0  0
    4.7664  -10.2741   26.8837 N   0  0  0  0  0  0  0  0  0  0  0  0
    9.6024  -15.9725   27.4604 C   0  0  0  0  0  0  0  0  0  0  0  0
   10.7856  -15.5551   28.1092 O   0  0  0  0  0  0  0  0  0  0  0  0
    9.2068  -17.1062   27.7741 O   0  0  0  0  0  0  0  0  0  0  0  0
  2  1  1  6
  2  9  1  0
  3  2  1  0
  4  3  1  0
  5  4  2  0
  6  5  1  0
  7  6  1  0
  7  8  2  0
  8  4  1  0
  9 10  2  0
 11 12  1  0
 12 14  1  0
 13 12  2  0
 15 14  1  1
 15 17  1  0
 16  9  1  0
 16 15  1  0
 17 18  2  0
 19 20  1  0
 19 17  1  0
 20 26  1  0
 20 21  1  1
 22 21  1  0
 23 22  1  0
 24 23  1  0
 25 24  1  0
 26 28  2  0
 26 27  1  0
M  END
$$$$
