HNK.pdb
     RDKit          3D

 28 28  0  0  1  0  0  0  0  0999 V2000
    8.4012  -17.2657   17.8426 N   0  0  0  0  0  0  0  0  0  0  0  0
    9.2392  -16.5741   18.8023 C   0  0  1  0  0  0  0  0  0  0  0  0
    8.3361  -15.7875   19.7546 C   0  0  0  0  0  0  0  0  0  0  0  0
    7.6513  -14.6866   19.0364 C   0  0  0  0  0  0  0  0  0  0  0  0
    7.7299  -14.3676   17.6980 C   0  0  0  0  0  0  0  0  0  0  0  0
    6.9406  -13.2853   17.4586 N   0  0  0  0  0  0  0  0  0  0  0  0
    6.3782  -12.9338   18.6280 C   0  0  0  0  0  0  0  0  0  0  0  0
    6.8143  -13.7850   19.5690 N   0  0  0  0  0  0  0  0  0  0  0  0
   10.0274  -17.5885   19.5459 C   0  0  0  0  0  0  0  0  0  0  0  0
    9.8634  -18.8040   19.2794 O   0  0  0  0  0  0  0  0  0  0  0  0
   15.2718  -18.2528   18.5815 N   0  0  0  0  0  0  0  0  0  0  0  0
   14.1936  -18.6914   19.3903 C   0  0  0  0  0  0  0  0  0  0  0  0
   14.3487  -19.7144   20.1002 O   0  0  0  0  0  0  0  0  0  0  0  0
   12.9340  -17.9053   19.3471 C   0  0  0  0  0  0  0  0  0  0  0  0
   12.2291  -17.9011   20.6786 C   0  0  2  0  0  0  0  0  0  0  0  0
   10.9641  -17.2483   20.5511 N   0  0  0  0  0  0  0  0  0  0  0  0
   13.0699  -17.3084   21.7518 C   0  0  0  0  0  0  0  0  0  0  0  0
   13.5619  -16.1630   21.5266 O   0  0  0  0  0  0  0  0  0  0  0  0
   13.3389  -17.9365   22.9693 N   0  0  0  0  0  0  0  0  0  0  0  0
   14.1106  -17.2542   24.0565 C   0  0  1  0  0  0  0  0  0  0  0  0
   13.9830  -18.0387   25.2935 C   0  0  0  0  0  0  0  0  0  0  0  0
   12.7037  -18.2193   25.9779 C   0  0  0  0  0  0  0  0  0  0  0  0
   12.5837  -18.9927   27.2141 C   0  0  0  0  0  0  0  0  0  0  0  0
   11.2914  -19.0083   27.9529 C   0  0  0  0  0  0  0  0  0  0  0  0
   11.2827  -19.8235   29.1396 N   0  0  0  0  0  0  0  0  0  0  0  0
   15.5234  -17.1550   23.5699 C   0  0  0  0  0  0  0  0  0  0  0  0
   15.9482  -17.9203   22.4611 O   0  0  0  0  0  0  0  0  0  0  0  0
   16.3981  -16.4309   24.0707 O   0  0  0  0  0  0  0  0  0  0  0  0
  2  1  1  6
  2  9  1  0
  3  2  1  0
  4  3  1  0
  5  4  2  0
  6  5  1  0
  7  6  1  0
  7  8  2  0
  8  4  1  0
  9 10  2  0
 11 12  1  0
 12 14  1  0
 13 12  2  0
 15 14  1  6
 15 17  1  0
 16  9  1  0
 16 15  1  0
 17 18  2  0
 19 20  1  0
 19 17  1  0
 20 26  1  0
 20 21  1  1
 22 21  1  0
 23 22  1  0
 24 23  1  0
 25 24  1  0
 26 28  2  0
 26 27  1  0
M  END
$$$$
