HNK.pdb
     RDKit          3D

 28 28  0  0  1  0  0  0  0  0999 V2000
   10.3560  -15.3517   20.3348 N   0  0  0  0  0  0  0  0  0  0  0  0
    9.1397  -14.9875   21.0345 C   0  0  1  0  0  0  0  0  0  0  0  0
    7.9474  -15.3074   20.1306 C   0  0  0  0  0  0  0  0  0  0  0  0
    8.0025  -14.5024   18.8873 C   0  0  0  0  0  0  0  0  0  0  0  0
    8.9614  -13.5871   18.5102 C   0  0  0  0  0  0  0  0  0  0  0  0
    8.6264  -13.0781   17.2935 N   0  0  0  0  0  0  0  0  0  0  0  0
    7.4774  -13.6655   16.9166 C   0  0  0  0  0  0  0  0  0  0  0  0
    7.1129  -14.5201   17.8847 N   0  0  0  0  0  0  0  0  0  0  0  0
    9.0724  -15.7769   22.2897 C   0  0  0  0  0  0  0  0  0  0  0  0
    8.0654  -15.6613   23.0298 O   0  0  0  0  0  0  0  0  0  0  0  0
   10.2675  -20.3733   25.4374 N   0  0  0  0  0  0  0  0  0  0  0  0
   11.0569  -19.2134   25.2359 C   0  0  0  0  0  0  0  0  0  0  0  0
   11.7890  -18.8113   26.1724 O   0  0  0  0  0  0  0  0  0  0  0  0
   10.9680  -18.5388   23.9155 C   0  0  0  0  0  0  0  0  0  0  0  0
   10.0982  -17.3098   23.9707 C   0  0  2  0  0  0  0  0  0  0  0  0
   10.0991  -16.6623   22.6966 N   0  0  0  0  0  0  0  0  0  0  0  0
   10.4952  -16.3959   25.0739 C   0  0  0  0  0  0  0  0  0  0  0  0
   11.5907  -15.7748   24.9366 O   0  0  0  0  0  0  0  0  0  0  0  0
    9.7380  -16.1916   26.2290 N   0  0  0  0  0  0  0  0  0  0  0  0
   10.1410  -15.1946   27.2715 C   0  0  1  0  0  0  0  0  0  0  0  0
    8.9619  -14.4031   27.6525 C   0  0  0  0  0  0  0  0  0  0  0  0
    8.2854  -13.5058   26.7172 C   0  0  0  0  0  0  0  0  0  0  0  0
    7.0694  -12.7765   27.0784 C   0  0  0  0  0  0  0  0  0  0  0  0
    6.4835  -11.7982   26.1215 C   0  0  0  0  0  0  0  0  0  0  0  0
    5.2952  -11.1327   26.5885 N   0  0  0  0  0  0  0  0  0  0  0  0
   10.7085  -15.9842   28.4104 C   0  0  0  0  0  0  0  0  0  0  0  0
   11.4511  -15.3372   29.4230 O   0  0  0  0  0  0  0  0  0  0  0  0
   10.5832  -17.2101   28.5570 O   0  0  0  0  0  0  0  0  0  0  0  0
  2  1  1  6
  2  9  1  0
  3  2  1  0
  4  3  1  0
  5  4  2  0
  6  5  1  0
  7  6  1  0
  7  8  2  0
  8  4  1  0
  9 10  2  0
 11 12  1  0
 12 14  1  0
 13 12  2  0
 15 14  1  6
 15 17  1  0
 16  9  1  0
 16 15  1  0
 17 18  2  0
 19 20  1  0
 19 17  1  0
 20 26  1  0
 20 21  1  1
 22 21  1  0
 23 22  1  0
 24 23  1  0
 25 24  1  0
 26 28  2  0
 26 27  1  0
M  END
$$$$
