HNK.pdb
     RDKit          3D

 28 28  0  0  1  0  0  0  0  0999 V2000
    8.1856  -17.4403   17.3222 N   0  0  0  0  0  0  0  0  0  0  0  0
    8.8605  -16.4772   18.1700 C   0  0  1  0  0  0  0  0  0  0  0  0
    8.0377  -15.1874   18.1866 C   0  0  0  0  0  0  0  0  0  0  0  0
    8.0884  -14.5173   16.8656 C   0  0  0  0  0  0  0  0  0  0  0  0
    8.7701  -14.9169   15.7364 C   0  0  0  0  0  0  0  0  0  0  0  0
    8.5431  -14.0128   14.7450 N   0  0  0  0  0  0  0  0  0  0  0  0
    7.7332  -13.0642   15.2462 C   0  0  0  0  0  0  0  0  0  0  0  0
    7.4673  -13.3798   16.5229 N   0  0  0  0  0  0  0  0  0  0  0  0
    8.9623  -17.0515   19.5349 C   0  0  0  0  0  0  0  0  0  0  0  0
    8.0210  -17.7576   19.9714 O   0  0  0  0  0  0  0  0  0  0  0  0
   10.7609  -20.1280   23.3230 N   0  0  0  0  0  0  0  0  0  0  0  0
   11.5473  -18.9812   23.0482 C   0  0  0  0  0  0  0  0  0  0  0  0
   12.3347  -18.5633   23.9314 O   0  0  0  0  0  0  0  0  0  0  0  0
   11.3892  -18.3384   21.7184 C   0  0  0  0  0  0  0  0  0  0  0  0
   10.1905  -17.4268   21.6746 C   0  0  2  0  0  0  0  0  0  0  0  0
   10.0803  -16.8390   20.3766 N   0  0  0  0  0  0  0  0  0  0  0  0
   10.2243  -16.4102   22.7589 C   0  0  0  0  0  0  0  0  0  0  0  0
   11.0814  -15.4841   22.6486 O   0  0  0  0  0  0  0  0  0  0  0  0
    9.3771  -16.4241   23.8686 N   0  0  0  0  0  0  0  0  0  0  0  0
    9.5061  -15.4209   24.9732 C   0  0  1  0  0  0  0  0  0  0  0  0
    8.1986  -14.7848   25.1918 C   0  0  0  0  0  0  0  0  0  0  0  0
    7.9683  -13.8158   26.2621 C   0  0  0  0  0  0  0  0  0  0  0  0
    6.6493  -13.2362   26.5179 C   0  0  0  0  0  0  0  0  0  0  0  0
    6.4627  -12.3016   27.6615 C   0  0  0  0  0  0  0  0  0  0  0  0
    5.1451  -11.7312   27.7677 N   0  0  0  0  0  0  0  0  0  0  0  0
    9.9972  -16.1750   26.1701 C   0  0  0  0  0  0  0  0  0  0  0  0
   10.6632  -15.4952   27.2140 O   0  0  0  0  0  0  0  0  0  0  0  0
    9.8693  -17.3975   26.3412 O   0  0  0  0  0  0  0  0  0  0  0  0
  2  1  1  6
  2  9  1  0
  3  2  1  0
  4  3  1  0
  5  4  2  0
  6  5  1  0
  7  6  1  0
  7  8  2  0
  8  4  1  0
  9 10  2  0
 11 12  1  0
 12 14  1  0
 13 12  2  0
 15 14  1  6
 15 17  1  0
 16  9  1  0
 16 15  1  0
 17 18  2  0
 19 20  1  0
 19 17  1  0
 20 26  1  0
 20 21  1  1
 22 21  1  0
 23 22  1  0
 24 23  1  0
 25 24  1  0
 26 28  2  0
 26 27  1  0
M  END
$$$$
