HNK.pdb
     RDKit          3D

 28 28  0  0  1  0  0  0  0  0999 V2000
    9.9512  -16.3279   16.6593 N   0  0  0  0  0  0  0  0  0  0  0  0
   10.3647  -15.2879   17.5808 C   0  0  1  0  0  0  0  0  0  0  0  0
    9.3600  -15.2358   18.7336 C   0  0  0  0  0  0  0  0  0  0  0  0
    8.3587  -14.1668   18.5071 C   0  0  0  0  0  0  0  0  0  0  0  0
    8.2596  -13.3100   17.4321 C   0  0  0  0  0  0  0  0  0  0  0  0
    7.1947  -12.4854   17.6260 N   0  0  0  0  0  0  0  0  0  0  0  0
    6.6376  -12.8212   18.8025 C   0  0  0  0  0  0  0  0  0  0  0  0
    7.3477  -13.8342   19.3221 N   0  0  0  0  0  0  0  0  0  0  0  0
   11.7206  -15.6244   18.0822 C   0  0  0  0  0  0  0  0  0  0  0  0
   12.0197  -16.8286   18.2711 O   0  0  0  0  0  0  0  0  0  0  0  0
   17.1718  -15.0458   18.1010 N   0  0  0  0  0  0  0  0  0  0  0  0
   16.3586  -14.2621   18.9575 C   0  0  0  0  0  0  0  0  0  0  0  0
   16.8265  -13.8908   20.0610 O   0  0  0  0  0  0  0  0  0  0  0  0
   14.9890  -13.9254   18.4914 C   0  0  0  0  0  0  0  0  0  0  0  0
   13.9831  -14.9678   18.9055 C   0  0  2  0  0  0  0  0  0  0  0  0
   12.7022  -14.6434   18.3609 N   0  0  0  0  0  0  0  0  0  0  0  0
   13.9450  -15.1497   20.3805 C   0  0  0  0  0  0  0  0  0  0  0  0
   13.4845  -14.1879   21.0641 O   0  0  0  0  0  0  0  0  0  0  0  0
   14.3815  -16.3024   21.0364 N   0  0  0  0  0  0  0  0  0  0  0  0
   14.2588  -16.4609   22.5206 C   0  0  1  0  0  0  0  0  0  0  0  0
   13.5306  -17.7058   22.8065 C   0  0  0  0  0  0  0  0  0  0  0  0
   13.3010  -18.1837   24.1691 C   0  0  0  0  0  0  0  0  0  0  0  0
   12.6264  -19.4520   24.4467 C   0  0  0  0  0  0  0  0  0  0  0  0
   12.3284  -19.8373   25.8534 C   0  0  0  0  0  0  0  0  0  0  0  0
   11.7209  -21.1332   26.0099 N   0  0  0  0  0  0  0  0  0  0  0  0
   15.6559  -16.4634   23.0595 C   0  0  0  0  0  0  0  0  0  0  0  0
   16.7407  -16.8000   22.2197 O   0  0  0  0  0  0  0  0  0  0  0  0
   15.9670  -16.1851   24.2282 O   0  0  0  0  0  0  0  0  0  0  0  0
  2  1  1  6
  2  9  1  0
  3  2  1  0
  4  3  1  0
  5  4  2  0
  6  5  1  0
  7  6  1  0
  7  8  2  0
  8  4  1  0
  9 10  2  0
 11 12  1  0
 12 14  1  0
 13 12  2  0
 15 14  1  1
 15 17  1  0
 16  9  1  0
 16 15  1  0
 17 18  2  0
 19 20  1  0
 19 17  1  0
 20 26  1  0
 20 21  1  6
 22 21  1  0
 23 22  1  0
 24 23  1  0
 25 24  1  0
 26 28  2  0
 26 27  1  0
M  END
$$$$
