AKR.pdb
     RDKit          3D

 26 25  0  0  1  0  0  0  0  0999 V2000
   30.0597  -20.4652  -11.0289 C   0  0  0  0  0  0  0  0  0  0  0  0
   28.9933  -21.4135  -11.5353 C   0  0  2  0  0  0  0  0  0  0  0  0
   29.4992  -22.2806  -12.5780 N   0  0  0  0  0  0  0  0  0  0  0  0
   27.8810  -20.5801  -12.0705 C   0  0  0  0  0  0  0  0  0  0  0  0
   27.3408  -19.7275  -11.3499 O   0  0  0  0  0  0  0  0  0  0  0  0
   27.4171  -20.7380  -13.4011 N   0  0  0  0  0  0  0  0  0  0  0  0
   26.3122  -20.0579  -13.9751 C   0  0  1  0  0  0  0  0  0  0  0  0
   26.4871  -19.5947  -15.3820 C   0  0  0  0  0  0  0  0  0  0  0  0
   27.9068  -19.3130  -15.7738 C   0  0  0  0  0  0  0  0  0  0  0  0
   27.9374  -18.8801  -17.2133 C   0  0  0  0  0  0  0  0  0  0  0  0
   29.3269  -18.5209  -17.6791 C   0  0  0  0  0  0  0  0  0  0  0  0
   29.3675  -18.1412  -19.0759 N   0  0  0  0  0  0  0  0  0  0  0  0
   25.0971  -20.9427  -13.8846 C   0  0  0  0  0  0  0  0  0  0  0  0
   25.1729  -22.0895  -13.3807 O   0  0  0  0  0  0  0  0  0  0  0  0
   20.7716  -22.9811   -7.8151 N   0  0  0  0  0  0  0  0  0  0  0  0
   19.9956  -23.0697   -8.9981 C   0  0  0  0  0  0  0  0  0  0  0  0
   19.0787  -23.9582   -9.0792 N   0  0  0  0  0  0  0  0  0  0  0  0
   20.2220  -22.1861  -10.0934 N   0  0  0  0  0  0  0  0  0  0  0  0
   21.4941  -21.5834  -10.3569 C   0  0  0  0  0  0  0  0  0  0  0  0
   21.3112  -20.6434  -11.5674 C   0  0  0  0  0  0  0  0  0  0  0  0
   22.6329  -20.4152  -12.2437 C   0  0  0  0  0  0  0  0  0  0  0  0
   22.5680  -20.6658  -13.6932 C   0  0  2  0  0  0  0  0  0  0  0  0
   23.8399  -20.5026  -14.3659 N   0  0  0  0  0  0  0  0  0  0  0  0
   21.4252  -20.0873  -14.4371 C   0  0  0  0  0  0  0  0  0  0  0  0
   20.2301  -20.7710  -14.6052 O   0  0  0  0  0  0  0  0  0  0  0  0
   21.4680  -18.9349  -14.9689 O   0  0  0  0  0  0  0  0  0  0  0  0
  2  1  1  6
  3  2  1  0
  4  2  1  0
  4  5  2  0
  6  4  1  0
  7  6  1  0
  7  8  1  6
  9  8  1  0
 10  9  1  0
 11 10  1  0
 12 11  1  0
 13  7  1  0
 14 13  2  0
 16 17  2  0
 16 15  1  0
 18 16  1  0
 19 18  1  0
 20 19  1  0
 22 21  1  1
 21 20  1  0
 22 23  1  0
 23 13  1  0
 24 25  1  0
 24 22  1  0
 26 24  2  0
M  END
$$$$
