AKR.pdb
     RDKit          3D

 26 25  0  0  1  0  0  0  0  0999 V2000
   27.9483  -21.9656  -10.9120 C   0  0  0  0  0  0  0  0  0  0  0  0
   28.9545  -21.1138  -11.6570 C   0  0  2  0  0  0  0  0  0  0  0  0
   29.8387  -20.4132  -10.7501 N   0  0  0  0  0  0  0  0  0  0  0  0
   28.1842  -20.1302  -12.4678 C   0  0  0  0  0  0  0  0  0  0  0  0
   27.6987  -19.1246  -11.9284 O   0  0  0  0  0  0  0  0  0  0  0  0
   27.9887  -20.3159  -13.8599 N   0  0  0  0  0  0  0  0  0  0  0  0
   27.2678  -19.4430  -14.7148 C   0  0  1  0  0  0  0  0  0  0  0  0
   27.8975  -19.1511  -16.0350 C   0  0  0  0  0  0  0  0  0  0  0  0
   27.1209  -18.2046  -16.9007 C   0  0  0  0  0  0  0  0  0  0  0  0
   27.8636  -18.0064  -18.1928 C   0  0  0  0  0  0  0  0  0  0  0  0
   27.2158  -16.9707  -19.0783 C   0  0  0  0  0  0  0  0  0  0  0  0
   27.9326  -16.7700  -20.3205 N   0  0  0  0  0  0  0  0  0  0  0  0
   25.8872  -20.0045  -14.9296 C   0  0  0  0  0  0  0  0  0  0  0  0
   25.7272  -21.1887  -15.3129 O   0  0  0  0  0  0  0  0  0  0  0  0
   18.6589  -22.3316  -10.9754 N   0  0  0  0  0  0  0  0  0  0  0  0
   18.9230  -22.9844  -12.2057 C   0  0  0  0  0  0  0  0  0  0  0  0
   18.2049  -23.9860  -12.5486 N   0  0  0  0  0  0  0  0  0  0  0  0
   19.9730  -22.5416  -13.0618 N   0  0  0  0  0  0  0  0  0  0  0  0
   20.8210  -21.4323  -12.7437 C   0  0  0  0  0  0  0  0  0  0  0  0
   21.8282  -21.2811  -13.9035 C   0  0  0  0  0  0  0  0  0  0  0  0
   22.7005  -20.0803  -13.6718 C   0  0  0  0  0  0  0  0  0  0  0  0
   23.3640  -19.6268  -14.9056 C   0  0  2  0  0  0  0  0  0  0  0  0
   24.7363  -19.2103  -14.7048 N   0  0  0  0  0  0  0  0  0  0  0  0
   22.5986  -18.7331  -15.8053 C   0  0  0  0  0  0  0  0  0  0  0  0
   23.1067  -17.5223  -16.2523 O   0  0  0  0  0  0  0  0  0  0  0  0
   21.4321  -19.0159  -16.2200 O   0  0  0  0  0  0  0  0  0  0  0  0
  2  1  1  1
  3  2  1  0
  4  2  1  0
  4  5  2  0
  6  4  1  0
  7  6  1  0
  7  8  1  6
  9  8  1  0
 10  9  1  0
 11 10  1  0
 12 11  1  0
 13  7  1  0
 14 13  2  0
 16 17  2  0
 16 15  1  0
 18 16  1  0
 19 18  1  0
 20 19  1  0
 22 21  1  1
 21 20  1  0
 22 23  1  0
 23 13  1  0
 24 25  1  0
 24 22  1  0
 26 24  2  0
M  END
$$$$
