AKR.pdb
     RDKit          3D

 26 25  0  0  1  0  0  0  0  0999 V2000
   19.9509  -21.7000  -16.8181 C   0  0  0  0  0  0  0  0  0  0  0  0
   20.6636  -20.4549  -16.3336 C   0  0  2  0  0  0  0  0  0  0  0  0
   20.4684  -19.3407  -17.2366 N   0  0  0  0  0  0  0  0  0  0  0  0
   22.1137  -20.7832  -16.2468 C   0  0  0  0  0  0  0  0  0  0  0  0
   22.4963  -21.7259  -15.5376 O   0  0  0  0  0  0  0  0  0  0  0  0
   23.0821  -20.0357  -16.9639 N   0  0  0  0  0  0  0  0  0  0  0  0
   24.4772  -20.2928  -16.9782 C   0  0  1  0  0  0  0  0  0  0  0  0
   25.2396  -19.7073  -18.1186 C   0  0  0  0  0  0  0  0  0  0  0  0
   26.7005  -20.0449  -18.1307 C   0  0  0  0  0  0  0  0  0  0  0  0
   27.3528  -19.3406  -19.2878 C   0  0  0  0  0  0  0  0  0  0  0  0
   28.8060  -19.7146  -19.4467 C   0  0  0  0  0  0  0  0  0  0  0  0
   29.4507  -19.0039  -20.5313 N   0  0  0  0  0  0  0  0  0  0  0  0
   25.0718  -19.8172  -15.6791 C   0  0  0  0  0  0  0  0  0  0  0  0
   24.8445  -18.6586  -15.2539 O   0  0  0  0  0  0  0  0  0  0  0  0
   24.0421  -21.5353   -7.6528 N   0  0  0  0  0  0  0  0  0  0  0  0
   23.6189  -20.9479   -8.8716 C   0  0  0  0  0  0  0  0  0  0  0  0
   22.3691  -20.7713   -9.0796 N   0  0  0  0  0  0  0  0  0  0  0  0
   24.5631  -20.5532   -9.8638 N   0  0  0  0  0  0  0  0  0  0  0  0
   25.8545  -21.1585   -9.9937 C   0  0  0  0  0  0  0  0  0  0  0  0
   26.5550  -20.4851  -11.1930 C   0  0  0  0  0  0  0  0  0  0  0  0
   25.9036  -20.9166  -12.4758 C   0  0  0  0  0  0  0  0  0  0  0  0
   26.5456  -20.3155  -13.6568 C   0  0  2  0  0  0  0  0  0  0  0  0
   25.9019  -20.6653  -14.9059 N   0  0  0  0  0  0  0  0  0  0  0  0
   28.0250  -20.3485  -13.7225 C   0  0  0  0  0  0  0  0  0  0  0  0
   28.8177  -19.4903  -12.9749 O   0  0  0  0  0  0  0  0  0  0  0  0
   28.6588  -21.1590  -14.4669 O   0  0  0  0  0  0  0  0  0  0  0  0
  2  1  1  6
  3  2  1  0
  4  2  1  0
  4  5  2  0
  6  4  1  0
  7  6  1  0
  7  8  1  6
  9  8  1  0
 10  9  1  0
 11 10  1  0
 12 11  1  0
 13  7  1  0
 14 13  2  0
 16 17  2  0
 16 15  1  0
 18 16  1  0
 19 18  1  0
 20 19  1  0
 22 21  1  1
 21 20  1  0
 22 23  1  0
 23 13  1  0
 24 25  1  0
 24 22  1  0
 26 24  2  0
M  END
$$$$
