AKR.pdb
     RDKit          3D

 26 25  0  0  1  0  0  0  0  0999 V2000
   18.7392  -21.5056  -10.6609 C   0  0  0  0  0  0  0  0  0  0  0  0
   18.7352  -22.8409  -11.3749 C   0  0  2  0  0  0  0  0  0  0  0  0
   17.8717  -22.8244  -12.5364 N   0  0  0  0  0  0  0  0  0  0  0  0
   18.2497  -23.8590  -10.4023 C   0  0  0  0  0  0  0  0  0  0  0  0
   17.0658  -23.8511  -10.0332 O   0  0  0  0  0  0  0  0  0  0  0  0
   19.1179  -24.8510   -9.8799 N   0  0  0  0  0  0  0  0  0  0  0  0
   18.7235  -25.9506   -9.0749 C   0  0  1  0  0  0  0  0  0  0  0  0
   19.5594  -27.1804   -9.1906 C   0  0  0  0  0  0  0  0  0  0  0  0
   19.5590  -27.8088  -10.5519 C   0  0  0  0  0  0  0  0  0  0  0  0
   20.4050  -29.0511  -10.5144 C   0  0  0  0  0  0  0  0  0  0  0  0
   20.4404  -29.7662  -11.8427 C   0  0  0  0  0  0  0  0  0  0  0  0
   21.3659  -30.8799  -11.8534 N   0  0  0  0  0  0  0  0  0  0  0  0
   18.6776  -25.5074   -7.6365 C   0  0  0  0  0  0  0  0  0  0  0  0
   19.6833  -24.9932   -7.0897 O   0  0  0  0  0  0  0  0  0  0  0  0
   12.1169  -22.2662   -2.8321 N   0  0  0  0  0  0  0  0  0  0  0  0
   12.9096  -22.9795   -1.8980 C   0  0  0  0  0  0  0  0  0  0  0  0
   12.6050  -22.9343   -0.6563 N   0  0  0  0  0  0  0  0  0  0  0  0
   14.0362  -23.7429   -2.3219 N   0  0  0  0  0  0  0  0  0  0  0  0
   14.7708  -23.4489   -3.5155 C   0  0  0  0  0  0  0  0  0  0  0  0
   15.8602  -24.5329   -3.6589 C   0  0  0  0  0  0  0  0  0  0  0  0
   15.9683  -24.9645   -5.0937 C   0  0  0  0  0  0  0  0  0  0  0  0
   17.3482  -25.3179   -5.4671 C   0  0  2  0  0  0  0  0  0  0  0  0
   17.4991  -25.6604   -6.8659 N   0  0  0  0  0  0  0  0  0  0  0  0
   18.0965  -26.2120   -4.5535 C   0  0  0  0  0  0  0  0  0  0  0  0
   19.0107  -25.7277   -3.6295 O   0  0  0  0  0  0  0  0  0  0  0  0
   17.9519  -27.4736   -4.5605 O   0  0  0  0  0  0  0  0  0  0  0  0
  2  1  1  1
  3  2  1  0
  4  2  1  0
  4  5  2  0
  6  4  1  0
  7  6  1  0
  7  8  1  1
  9  8  1  0
 10  9  1  0
 11 10  1  0
 12 11  1  0
 13  7  1  0
 14 13  2  0
 16 17  2  0
 16 15  1  0
 18 16  1  0
 19 18  1  0
 20 19  1  0
 22 21  1  1
 21 20  1  0
 22 23  1  0
 23 13  1  0
 24 25  1  0
 24 22  1  0
 26 24  2  0
M  END
$$$$
