AKR.pdb
     RDKit          3D

 26 25  0  0  1  0  0  0  0  0999 V2000
   35.0396  -21.6501  -21.4941 C   0  0  0  0  0  0  0  0  0  0  0  0
   33.6974  -22.2733  -21.8150 C   0  0  2  0  0  0  0  0  0  0  0  0
   33.0467  -21.6032  -22.9208 N   0  0  0  0  0  0  0  0  0  0  0  0
   32.8549  -22.1587  -20.5922 C   0  0  0  0  0  0  0  0  0  0  0  0
   33.1974  -22.7293  -19.5458 O   0  0  0  0  0  0  0  0  0  0  0  0
   31.6547  -21.4037  -20.5931 N   0  0  0  0  0  0  0  0  0  0  0  0
   30.7306  -21.3231  -19.5197 C   0  0  1  0  0  0  0  0  0  0  0  0
   29.9940  -20.0332  -19.3847 C   0  0  0  0  0  0  0  0  0  0  0  0
   29.0099  -19.9924  -18.2541 C   0  0  0  0  0  0  0  0  0  0  0  0
   28.3845  -18.6263  -18.2028 C   0  0  0  0  0  0  0  0  0  0  0  0
   27.4247  -18.4734  -17.0486 C   0  0  0  0  0  0  0  0  0  0  0  0
   26.6709  -17.2383  -17.1081 N   0  0  0  0  0  0  0  0  0  0  0  0
   29.7446  -22.4546  -19.6419 C   0  0  0  0  0  0  0  0  0  0  0  0
   29.0053  -22.5571  -20.6507 O   0  0  0  0  0  0  0  0  0  0  0  0
   28.4764  -30.0733  -14.8091 N   0  0  0  0  0  0  0  0  0  0  0  0
   27.4696  -29.9271  -15.7963 C   0  0  0  0  0  0  0  0  0  0  0  0
   26.6050  -30.8573  -15.9499 N   0  0  0  0  0  0  0  0  0  0  0  0
   27.4081  -28.7627  -16.6162 N   0  0  0  0  0  0  0  0  0  0  0  0
   28.3043  -27.6561  -16.4648 C   0  0  0  0  0  0  0  0  0  0  0  0
   27.9056  -26.5993  -17.5167 C   0  0  0  0  0  0  0  0  0  0  0  0
   28.8565  -25.4377  -17.4625 C   0  0  0  0  0  0  0  0  0  0  0  0
   28.6410  -24.4888  -18.5677 C   0  0  2  0  0  0  0  0  0  0  0  0
   29.6274  -23.4301  -18.6217 N   0  0  0  0  0  0  0  0  0  0  0  0
   27.2560  -24.0218  -18.8083 C   0  0  0  0  0  0  0  0  0  0  0  0
   26.4776  -24.5182  -19.8435 O   0  0  0  0  0  0  0  0  0  0  0  0
   26.6969  -23.1386  -18.0872 O   0  0  0  0  0  0  0  0  0  0  0  0
  2  1  1  1
  3  2  1  0
  4  2  1  0
  4  5  2  0
  6  4  1  0
  7  6  1  0
  7  8  1  6
  9  8  1  0
 10  9  1  0
 11 10  1  0
 12 11  1  0
 13  7  1  0
 14 13  2  0
 16 17  2  0
 16 15  1  0
 18 16  1  0
 19 18  1  0
 20 19  1  0
 22 21  1  1
 21 20  1  0
 22 23  1  0
 23 13  1  0
 24 25  1  0
 24 22  1  0
 26 24  2  0
M  END
$$$$
