AKR.pdb
     RDKit          3D

 26 25  0  0  1  0  0  0  0  0999 V2000
   24.8876  -13.9884  -15.2400 C   0  0  0  0  0  0  0  0  0  0  0  0
   26.1596  -14.7044  -15.6427 C   0  0  2  0  0  0  0  0  0  0  0  0
   26.8448  -14.0158  -16.7158 N   0  0  0  0  0  0  0  0  0  0  0  0
   25.7729  -16.0716  -16.0892 C   0  0  0  0  0  0  0  0  0  0  0  0
   24.9512  -16.2167  -17.0066 O   0  0  0  0  0  0  0  0  0  0  0  0
   26.3277  -17.2280  -15.4845 N   0  0  0  0  0  0  0  0  0  0  0  0
   25.9823  -18.5680  -15.7971 C   0  0  1  0  0  0  0  0  0  0  0  0
   27.0753  -19.5741  -15.6652 C   0  0  0  0  0  0  0  0  0  0  0  0
   26.7292  -20.9413  -16.1746 C   0  0  0  0  0  0  0  0  0  0  0  0
   27.9623  -21.8006  -16.1377 C   0  0  0  0  0  0  0  0  0  0  0  0
   27.7471  -23.1477  -16.7825 C   0  0  0  0  0  0  0  0  0  0  0  0
   28.9431  -23.9641  -16.7842 N   0  0  0  0  0  0  0  0  0  0  0  0
   24.8137  -18.9803  -14.9416 C   0  0  0  0  0  0  0  0  0  0  0  0
   24.8476  -18.8385  -13.6952 O   0  0  0  0  0  0  0  0  0  0  0  0
   16.6103  -20.9286  -16.4013 N   0  0  0  0  0  0  0  0  0  0  0  0
   16.5796  -20.6292  -15.0160 C   0  0  0  0  0  0  0  0  0  0  0  0
   15.5887  -21.0282  -14.3120 N   0  0  0  0  0  0  0  0  0  0  0  0
   17.6332  -19.8931  -14.3998 N   0  0  0  0  0  0  0  0  0  0  0  0
   18.7307  -19.3411  -15.1357 C   0  0  0  0  0  0  0  0  0  0  0  0
   20.0199  -19.9856  -14.5836 C   0  0  0  0  0  0  0  0  0  0  0  0
   21.2136  -19.4703  -15.3359 C   0  0  0  0  0  0  0  0  0  0  0  0
   22.4797  -20.0018  -14.8043 C   0  0  2  0  0  0  0  0  0  0  0  0
   23.6485  -19.5381  -15.5224 N   0  0  0  0  0  0  0  0  0  0  0  0
   22.5269  -21.4421  -14.4616 C   0  0  0  0  0  0  0  0  0  0  0  0
   22.7793  -22.4204  -15.4119 O   0  0  0  0  0  0  0  0  0  0  0  0
   22.3367  -21.8711  -13.2816 O   0  0  0  0  0  0  0  0  0  0  0  0
  2  1  1  6
  3  2  1  0
  4  2  1  0
  4  5  2  0
  6  4  1  0
  7  6  1  0
  7  8  1  1
  9  8  1  0
 10  9  1  0
 11 10  1  0
 12 11  1  0
 13  7  1  0
 14 13  2  0
 16 17  2  0
 16 15  1  0
 18 16  1  0
 19 18  1  0
 20 19  1  0
 22 21  1  6
 21 20  1  0
 22 23  1  0
 23 13  1  0
 24 25  1  0
 24 22  1  0
 26 24  2  0
M  END
$$$$
