AKR.pdb
     RDKit          3D

 26 25  0  0  1  0  0  0  0  0999 V2000
   22.6035  -19.0785  -21.0102 C   0  0  0  0  0  0  0  0  0  0  0  0
   23.1395  -18.8083  -19.6200 C   0  0  2  0  0  0  0  0  0  0  0  0
   24.5751  -18.6239  -19.6262 N   0  0  0  0  0  0  0  0  0  0  0  0
   22.7876  -19.9840  -18.7761 C   0  0  0  0  0  0  0  0  0  0  0  0
   21.9977  -20.8403  -19.2013 O   0  0  0  0  0  0  0  0  0  0  0  0
   23.3399  -20.1524  -17.4810 N   0  0  0  0  0  0  0  0  0  0  0  0
   23.1443  -21.2791  -16.6415 C   0  0  1  0  0  0  0  0  0  0  0  0
   24.3762  -22.0159  -16.2362 C   0  0  0  0  0  0  0  0  0  0  0  0
   25.0770  -22.7232  -17.3574 C   0  0  0  0  0  0  0  0  0  0  0  0
   26.2758  -23.4427  -16.8047 C   0  0  0  0  0  0  0  0  0  0  0  0
   27.0395  -24.1936  -17.8675 C   0  0  0  0  0  0  0  0  0  0  0  0
   28.2267  -24.8417  -17.3502 N   0  0  0  0  0  0  0  0  0  0  0  0
   22.3917  -20.8438  -15.4121 C   0  0  0  0  0  0  0  0  0  0  0  0
   22.7047  -19.7905  -14.8059 O   0  0  0  0  0  0  0  0  0  0  0  0
   18.5406  -25.5860  -10.3880 N   0  0  0  0  0  0  0  0  0  0  0  0
   18.0251  -24.4432   -9.7264 C   0  0  0  0  0  0  0  0  0  0  0  0
   17.9338  -24.4477   -8.4503 N   0  0  0  0  0  0  0  0  0  0  0  0
   17.6092  -23.2943  -10.4605 N   0  0  0  0  0  0  0  0  0  0  0  0
   17.7537  -23.1842  -11.8809 C   0  0  0  0  0  0  0  0  0  0  0  0
   18.7880  -22.0703  -12.1489 C   0  0  0  0  0  0  0  0  0  0  0  0
   19.6385  -22.4343  -13.3324 C   0  0  0  0  0  0  0  0  0  0  0  0
   20.6133  -21.3815  -13.6633 C   0  0  2  0  0  0  0  0  0  0  0  0
   21.3130  -21.6121  -14.9100 N   0  0  0  0  0  0  0  0  0  0  0  0
   21.4893  -20.8930  -12.5733 C   0  0  0  0  0  0  0  0  0  0  0  0
   21.1739  -19.7744  -11.8162 O   0  0  0  0  0  0  0  0  0  0  0  0
   22.5818  -21.4629  -12.2662 O   0  0  0  0  0  0  0  0  0  0  0  0
  2  1  1  6
  3  2  1  0
  4  2  1  0
  4  5  2  0
  6  4  1  0
  7  6  1  0
  7  8  1  1
  9  8  1  0
 10  9  1  0
 11 10  1  0
 12 11  1  0
 13  7  1  0
 14 13  2  0
 16 17  2  0
 16 15  1  0
 18 16  1  0
 19 18  1  0
 20 19  1  0
 22 21  1  1
 21 20  1  0
 22 23  1  0
 23 13  1  0
 24 25  1  0
 24 22  1  0
 26 24  2  0
M  END
$$$$
