AKR.pdb
     RDKit          3D

 26 25  0  0  1  0  0  0  0  0999 V2000
   29.0719  -20.3588  -10.3236 C   0  0  0  0  0  0  0  0  0  0  0  0
   28.3966  -21.2077  -11.3802 C   0  0  2  0  0  0  0  0  0  0  0  0
   29.3293  -21.6329  -12.4021 N   0  0  0  0  0  0  0  0  0  0  0  0
   27.3239  -20.3763  -11.9936 C   0  0  0  0  0  0  0  0  0  0  0  0
   26.4153  -19.9140  -11.2874 O   0  0  0  0  0  0  0  0  0  0  0  0
   27.3140  -20.0955  -13.3835 N   0  0  0  0  0  0  0  0  0  0  0  0
   26.3885  -19.2495  -14.0471 C   0  0  1  0  0  0  0  0  0  0  0  0
   26.8787  -18.5917  -15.2927 C   0  0  0  0  0  0  0  0  0  0  0  0
   25.8920  -17.6658  -15.9388 C   0  0  0  0  0  0  0  0  0  0  0  0
   26.5347  -17.0321  -17.1411 C   0  0  0  0  0  0  0  0  0  0  0  0
   25.6171  -16.0606  -17.8418 C   0  0  0  0  0  0  0  0  0  0  0  0
   26.2803  -15.3311  -18.9026 N   0  0  0  0  0  0  0  0  0  0  0  0
   25.1423  -20.0377  -14.3519 C   0  0  0  0  0  0  0  0  0  0  0  0
   25.2149  -21.2133  -14.7851 O   0  0  0  0  0  0  0  0  0  0  0  0
   17.3419  -22.8552  -12.0989 N   0  0  0  0  0  0  0  0  0  0  0  0
   18.5357  -23.5340  -11.7472 C   0  0  0  0  0  0  0  0  0  0  0  0
   18.4871  -24.7823  -11.4717 N   0  0  0  0  0  0  0  0  0  0  0  0
   19.7837  -22.8473  -11.6967 N   0  0  0  0  0  0  0  0  0  0  0  0
   19.9131  -21.4471  -11.9678 C   0  0  0  0  0  0  0  0  0  0  0  0
   20.6738  -21.3097  -13.3038 C   0  0  0  0  0  0  0  0  0  0  0  0
   21.9794  -20.6014  -13.0798 C   0  0  0  0  0  0  0  0  0  0  0  0
   22.5935  -20.1524  -14.3406 C   0  0  2  0  0  0  0  0  0  0  0  0
   23.8585  -19.4719  -14.1577 N   0  0  0  0  0  0  0  0  0  0  0  0
   21.7111  -19.5055  -15.3391 C   0  0  0  0  0  0  0  0  0  0  0  0
   21.0641  -20.2268  -16.3317 O   0  0  0  0  0  0  0  0  0  0  0  0
   21.4944  -18.2543  -15.3518 O   0  0  0  0  0  0  0  0  0  0  0  0
  2  1  1  1
  3  2  1  0
  4  2  1  0
  4  5  2  0
  6  4  1  0
  7  6  1  0
  7  8  1  6
  9  8  1  0
 10  9  1  0
 11 10  1  0
 12 11  1  0
 13  7  1  0
 14 13  2  0
 16 17  2  0
 16 15  1  0
 18 16  1  0
 19 18  1  0
 20 19  1  0
 22 21  1  1
 21 20  1  0
 22 23  1  0
 23 13  1  0
 24 25  1  0
 24 22  1  0
 26 24  2  0
M  END
$$$$
