MRT.pdb
     RDKit          3D

 27 26  0  0  1  0  0  0  0  0999 V2000
    6.5897  -11.2046   26.6803 C   0  0  0  0  0  0  0  0  0  0  0  0
    7.1642  -12.3537   27.9411 S   0  0  0  0  0  0  0  0  0  0  0  0
    6.4837  -14.0015   27.5760 C   0  0  0  0  0  0  0  0  0  0  0  0
    7.3903  -14.6813   26.5910 C   0  0  0  0  0  0  0  0  0  0  0  0
    6.7801  -15.9986   26.1455 C   0  0  2  0  0  0  0  0  0  0  0  0
    6.7676  -16.9176   27.2592 N   0  0  0  0  0  0  0  0  0  0  0  0
    7.6265  -16.5223   25.0391 C   0  0  0  0  0  0  0  0  0  0  0  0
    8.4190  -17.4629   25.2912 O   0  0  0  0  0  0  0  0  0  0  0  0
    7.8895  -11.9247   19.3376 N   0  0  0  0  0  0  0  0  0  0  0  0
    8.0558  -13.1305   18.6012 C   0  0  0  0  0  0  0  0  0  0  0  0
    7.3920  -13.2862   17.5147 N   0  0  0  0  0  0  0  0  0  0  0  0
    8.9422  -14.1035   19.0934 N   0  0  0  0  0  0  0  0  0  0  0  0
    8.5909  -15.4980   19.0004 C   0  0  0  0  0  0  0  0  0  0  0  0
    8.9885  -16.1455   20.2977 C   0  0  0  0  0  0  0  0  0  0  0  0
    8.0934  -15.7279   21.4236 C   0  0  0  0  0  0  0  0  0  0  0  0
    8.5088  -16.4199   22.6862 C   0  0  2  0  0  0  0  0  0  0  0  0
    7.5826  -16.0160   23.7262 N   0  0  0  0  0  0  0  0  0  0  0  0
    9.8952  -15.9895   23.0969 C   0  0  0  0  0  0  0  0  0  0  0  0
   10.0346  -15.1134   23.9806 O   0  0  0  0  0  0  0  0  0  0  0  0
    7.4108  -14.1626   16.9843 C   0  0  0  0  0  0  0  0  0  0  0  0
   11.4702  -16.1983   25.4144 C   0  0  2  0  0  0  0  0  0  0  0  0
   12.4160  -16.9797   24.5277 O   0  0  0  0  0  0  0  0  0  0  0  0
   11.9876  -18.3117   24.4981 C   0  0  2  0  0  0  0  0  0  0  0  0
   12.3796  -16.3970   23.1336 N   0  0  0  0  0  0  0  0  0  0  0  0
   11.0709  -16.5354   22.5238 C   0  0  0  0  0  0  0  0  0  0  0  0
   13.4006  -17.0523   22.2699 O   0  0  0  0  0  0  0  0  0  0  0  0
   14.6273  -16.8862   22.4896 O   0  0  0  0  0  0  0  0  0  0  0  0
  2  1  1  0
  3  4  1  0
  3  2  1  0
  4  5  1  0
  5  6  1  1
  7  8  2  0
  7  5  1  0
 10  9  1  0
 11 10  2  0
 12 10  1  0
 13 12  1  0
 14 13  1  0
 14 15  1  0
 16 15  1  6
 16 17  1  0
 17  7  1  0
 18 19  2  0
 18 16  1  0
 21 20  1  1
 21 22  1  0
 23 21  1  0
 23 24  1  6
 24 18  1  0
 25 23  1  0
 26 25  2  0
 27 25  1  0
M  END
$$$$
