MRT.pdb
     RDKit          3D

 27 26  0  0  1  0  0  0  0  0999 V2000
    8.6536  -11.5942   20.1987 C   0  0  0  0  0  0  0  0  0  0  0  0
    8.6872  -12.2727   18.5318 S   0  0  0  0  0  0  0  0  0  0  0  0
    8.6723  -14.0889   18.6455 C   0  0  0  0  0  0  0  0  0  0  0  0
    8.0078  -14.4779   19.9344 C   0  0  0  0  0  0  0  0  0  0  0  0
    8.0877  -15.9819   20.1277 C   0  0  2  0  0  0  0  0  0  0  0  0
    7.2377  -16.6318   19.1580 N   0  0  0  0  0  0  0  0  0  0  0  0
    7.6254  -16.2715   21.5124 C   0  0  0  0  0  0  0  0  0  0  0  0
    6.3923  -16.2370   21.7467 O   0  0  0  0  0  0  0  0  0  0  0  0
    5.9149  -19.9982   26.9607 N   0  0  0  0  0  0  0  0  0  0  0  0
    7.1662  -20.5582   27.3409 C   0  0  0  0  0  0  0  0  0  0  0  0
    7.2669  -21.1203   28.4896 N   0  0  0  0  0  0  0  0  0  0  0  0
    8.2429  -20.4737   26.4418 N   0  0  0  0  0  0  0  0  0  0  0  0
    9.1397  -19.3478   26.5096 C   0  0  0  0  0  0  0  0  0  0  0  0
    8.4195  -18.1678   25.9186 C   0  0  0  0  0  0  0  0  0  0  0  0
    8.7315  -17.9991   24.4634 C   0  0  0  0  0  0  0  0  0  0  0  0
    8.0599  -16.7662   23.9396 C   0  0  2  0  0  0  0  0  0  0  0  0
    8.5006  -16.5816   22.5705 N   0  0  0  0  0  0  0  0  0  0  0  0
    8.4767  -15.5546   24.7360 C   0  0  0  0  0  0  0  0  0  0  0  0
    9.6831  -15.2209   24.7688 O   0  0  0  0  0  0  0  0  0  0  0  0
    8.1413  -21.5430   28.8156 C   0  0  0  0  0  0  0  0  0  0  0  0
    6.6303  -11.8691   25.2780 C   0  0  2  0  0  0  0  0  0  0  0  0
    6.8478  -12.6720   26.5427 O   0  0  0  0  0  0  0  0  0  0  0  0
    5.6630  -13.3574   26.8345 C   0  0  2  0  0  0  0  0  0  0  0  0
    7.9694  -13.6588   26.3136 N   0  0  0  0  0  0  0  0  0  0  0  0
    7.5564  -14.7589   25.4632 C   0  0  0  0  0  0  0  0  0  0  0  0
    8.4630  -14.1948   27.6123 O   0  0  0  0  0  0  0  0  0  0  0  0
    8.4026  -15.4257   27.8617 O   0  0  0  0  0  0  0  0  0  0  0  0
  2  1  1  0
  3  4  1  0
  3  2  1  0
  4  5  1  0
  5  6  1  6
  7  8  2  0
  7  5  1  0
 10  9  1  0
 11 10  2  0
 12 10  1  0
 13 12  1  0
 14 13  1  0
 14 15  1  0
 16 15  1  1
 16 17  1  0
 17  7  1  0
 18 19  2  0
 18 16  1  0
 21 20  1  1
 21 22  1  0
 23 21  1  0
 23 24  1  1
 24 18  1  0
 25 23  1  0
 26 25  2  0
 27 25  1  0
M  END
$$$$
