MRT.pdb
     RDKit          3D

 27 26  0  0  1  0  0  0  0  0999 V2000
    7.0229  -11.5633   21.0834 C   0  0  0  0  0  0  0  0  0  0  0  0
    7.7726  -12.0323   19.5156 S   0  0  0  0  0  0  0  0  0  0  0  0
    7.9002  -13.8466   19.4547 C   0  0  0  0  0  0  0  0  0  0  0  0
    8.0515  -14.3587   20.8579 C   0  0  0  0  0  0  0  0  0  0  0  0
    8.1222  -15.8756   20.8534 C   0  0  2  0  0  0  0  0  0  0  0  0
    6.9485  -16.4044   20.1993 N   0  0  0  0  0  0  0  0  0  0  0  0
    8.1782  -16.3164   22.2738 C   0  0  0  0  0  0  0  0  0  0  0  0
    7.1260  -16.7515   22.8029 O   0  0  0  0  0  0  0  0  0  0  0  0
   13.3237  -21.2965   21.6207 N   0  0  0  0  0  0  0  0  0  0  0  0
   13.0927  -20.0447   22.2559 C   0  0  0  0  0  0  0  0  0  0  0  0
   13.0484  -18.9854   21.5339 N   0  0  0  0  0  0  0  0  0  0  0  0
   12.9213  -20.0186   23.6505 N   0  0  0  0  0  0  0  0  0  0  0  0
   12.6691  -18.7639   24.3129 C   0  0  0  0  0  0  0  0  0  0  0  0
   11.2343  -18.4008   24.0489 C   0  0  0  0  0  0  0  0  0  0  0  0
   10.8663  -17.0955   24.6848 C   0  0  0  0  0  0  0  0  0  0  0  0
    9.4275  -16.7826   24.4061 C   0  0  2  0  0  0  0  0  0  0  0  0
    9.3504  -16.2697   23.0519 N   0  0  0  0  0  0  0  0  0  0  0  0
    8.9246  -15.7135   25.3441 C   0  0  0  0  0  0  0  0  0  0  0  0
    8.8936  -15.9359   26.5759 O   0  0  0  0  0  0  0  0  0  0  0  0
   12.9345  -18.0520   21.9405 C   0  0  0  0  0  0  0  0  0  0  0  0
    6.0069  -12.1011   26.4740 C   0  0  2  0  0  0  0  0  0  0  0  0
    6.4578  -13.3721   25.7864 O   0  0  0  0  0  0  0  0  0  0  0  0
    5.9903  -13.3450   24.4675 C   0  0  1  0  0  0  0  0  0  0  0  0
    7.9680  -13.4285   25.7955 N   0  0  0  0  0  0  0  0  0  0  0  0
    8.4765  -14.4460   24.8953 C   0  0  0  0  0  0  0  0  0  0  0  0
    8.4698  -13.6901   27.1730 O   0  0  0  0  0  0  0  0  0  0  0  0
    8.1973  -12.9023   28.1143 O   0  0  0  0  0  0  0  0  0  0  0  0
  2  1  1  0
  3  4  1  0
  3  2  1  0
  4  5  1  0
  5  6  1  1
  7  8  2  0
  7  5  1  0
 10  9  1  0
 11 10  2  0
 12 10  1  0
 13 12  1  0
 14 13  1  0
 14 15  1  0
 16 15  1  1
 16 17  1  0
 17  7  1  0
 18 19  2  0
 18 16  1  0
 21 20  1  1
 21 22  1  0
 23 21  1  0
 23 24  1  1
 24 18  1  0
 25 23  1  0
 26 25  2  0
 27 25  1  0
M  END
$$$$
