MRT.pdb
     RDKit          3D

 27 26  0  0  1  0  0  0  0  0999 V2000
    5.5502  -12.7480   27.2645 C   0  0  0  0  0  0  0  0  0  0  0  0
    6.7051  -11.8245   26.2381 S   0  0  0  0  0  0  0  0  0  0  0  0
    7.3179  -12.9236   24.9235 C   0  0  0  0  0  0  0  0  0  0  0  0
    6.1375  -13.5644   24.2524 C   0  0  0  0  0  0  0  0  0  0  0  0
    6.6020  -14.4147   23.0832 C   0  0  2  0  0  0  0  0  0  0  0  0
    5.4496  -14.9464   22.3944 N   0  0  0  0  0  0  0  0  0  0  0  0
    7.4349  -15.5135   23.6434 C   0  0  0  0  0  0  0  0  0  0  0  0
    6.9045  -16.6406   23.8003 O   0  0  0  0  0  0  0  0  0  0  0  0
    9.6324  -14.5982   18.0949 N   0  0  0  0  0  0  0  0  0  0  0  0
    9.9927  -13.4602   18.8689 C   0  0  0  0  0  0  0  0  0  0  0  0
    9.7371  -12.2922   18.4043 N   0  0  0  0  0  0  0  0  0  0  0  0
   10.6142  -13.6612   20.1131 N   0  0  0  0  0  0  0  0  0  0  0  0
   10.8058  -15.0023   20.6043 C   0  0  0  0  0  0  0  0  0  0  0  0
   10.1965  -15.0656   21.9773 C   0  0  0  0  0  0  0  0  0  0  0  0
   10.3913  -16.4095   22.6093 C   0  0  0  0  0  0  0  0  0  0  0  0
    9.7547  -16.4298   23.9658 C   0  0  2  0  0  0  0  0  0  0  0  0
    8.7857  -15.3518   24.0055 N   0  0  0  0  0  0  0  0  0  0  0  0
   10.7837  -16.1781   25.0398 C   0  0  0  0  0  0  0  0  0  0  0  0
   11.9996  -16.3218   24.7775 O   0  0  0  0  0  0  0  0  0  0  0  0
   10.0504  -11.4373   18.8740 C   0  0  0  0  0  0  0  0  0  0  0  0
   10.8731  -13.7017   28.3240 C   0  0  2  0  0  0  0  0  0  0  0  0
   10.8800  -15.1700   28.6918 O   0  0  0  0  0  0  0  0  0  0  0  0
    9.5800  -15.5346   29.0601 C   0  0  2  0  0  0  0  0  0  0  0  0
   11.3197  -15.9768   27.4918 N   0  0  0  0  0  0  0  0  0  0  0  0
   10.4396  -15.7797   26.3558 C   0  0  0  0  0  0  0  0  0  0  0  0
   11.3732  -17.4258   27.8315 O   0  0  0  0  0  0  0  0  0  0  0  0
   10.6382  -18.2516   27.2326 O   0  0  0  0  0  0  0  0  0  0  0  0
  2  1  1  0
  3  4  1  0
  3  2  1  0
  4  5  1  0
  5  6  1  1
  7  8  2  0
  7  5  1  0
 10  9  1  0
 11 10  2  0
 12 10  1  0
 13 12  1  0
 14 13  1  0
 14 15  1  0
 16 15  1  6
 16 17  1  0
 17  7  1  0
 18 19  2  0
 18 16  1  0
 21 20  1  1
 21 22  1  0
 23 21  1  0
 23 24  1  1
 24 18  1  0
 25 23  1  0
 26 25  2  0
 27 25  1  0
M  END
$$$$
