MRT.pdb
     RDKit          3D

 27 26  0  0  1  0  0  0  0  0999 V2000
    7.7617  -11.4052   27.2493 C   0  0  0  0  0  0  0  0  0  0  0  0
    6.0980  -12.0085   26.9201 S   0  0  0  0  0  0  0  0  0  0  0  0
    6.0713  -13.8083   27.1883 C   0  0  0  0  0  0  0  0  0  0  0  0
    7.0526  -14.4428   26.2456 C   0  0  0  0  0  0  0  0  0  0  0  0
    6.3131  -15.1999   25.1567 C   0  0  2  0  0  0  0  0  0  0  0  0
    5.5958  -16.3045   25.7486 N   0  0  0  0  0  0  0  0  0  0  0  0
    7.3348  -15.6907   24.1922 C   0  0  0  0  0  0  0  0  0  0  0  0
    7.8809  -16.7985   24.4175 O   0  0  0  0  0  0  0  0  0  0  0  0
    9.8116  -13.6019   17.7290 N   0  0  0  0  0  0  0  0  0  0  0  0
    8.5017  -14.1300   17.5579 C   0  0  0  0  0  0  0  0  0  0  0  0
    8.3474  -15.1717   16.8254 N   0  0  0  0  0  0  0  0  0  0  0  0
    7.4281  -13.4892   18.1993 N   0  0  0  0  0  0  0  0  0  0  0  0
    7.6292  -12.8869   19.4929 C   0  0  0  0  0  0  0  0  0  0  0  0
    7.5028  -13.9793   20.5180 C   0  0  0  0  0  0  0  0  0  0  0  0
    8.8411  -14.4256   21.0212 C   0  0  0  0  0  0  0  0  0  0  0  0
    8.6633  -15.4843   22.0668 C   0  0  2  0  0  0  0  0  0  0  0  0
    7.7185  -14.9754   23.0420 N   0  0  0  0  0  0  0  0  0  0  0  0
    9.9678  -15.7583   22.7733 C   0  0  0  0  0  0  0  0  0  0  0  0
   10.4140  -14.9242   23.5937 O   0  0  0  0  0  0  0  0  0  0  0  0
    7.4260  -15.5833   16.6489 C   0  0  0  0  0  0  0  0  0  0  0  0
   13.5221  -18.8899   24.1530 C   0  0  2  0  0  0  0  0  0  0  0  0
   12.1795  -18.6788   23.4865 O   0  0  0  0  0  0  0  0  0  0  0  0
   11.1846  -19.1593   24.3455 C   0  0  1  0  0  0  0  0  0  0  0  0
   11.9774  -17.2011   23.2416 N   0  0  0  0  0  0  0  0  0  0  0  0
   10.7295  -16.9329   22.5526 C   0  0  0  0  0  0  0  0  0  0  0  0
   13.1099  -16.6463   22.4495 O   0  0  0  0  0  0  0  0  0  0  0  0
   13.0880  -16.6767   21.1927 O   0  0  0  0  0  0  0  0  0  0  0  0
  2  1  1  0
  3  4  1  0
  3  2  1  0
  4  5  1  0
  5  6  1  1
  7  8  2  0
  7  5  1  0
 10  9  1  0
 11 10  2  0
 12 10  1  0
 13 12  1  0
 14 13  1  0
 14 15  1  0
 16 15  1  6
 16 17  1  0
 17  7  1  0
 18 19  2  0
 18 16  1  0
 21 20  1  6
 21 22  1  0
 23 21  1  0
 23 24  1  6
 24 18  1  0
 25 23  1  0
 26 25  2  0
 27 25  1  0
M  END
$$$$
