MRT.pdb
     RDKit          3D

 27 26  0  0  1  0  0  0  0  0999 V2000
    7.5384  -11.7047   28.1716 C   0  0  0  0  0  0  0  0  0  0  0  0
    6.1034  -12.7893   28.2382 S   0  0  0  0  0  0  0  0  0  0  0  0
    5.3129  -12.8050   26.5991 C   0  0  0  0  0  0  0  0  0  0  0  0
    5.7632  -14.0363   25.8673 C   0  0  0  0  0  0  0  0  0  0  0  0
    7.2013  -13.8718   25.4080 C   0  0  2  0  0  0  0  0  0  0  0  0
    7.5103  -12.4649   25.3074 N   0  0  0  0  0  0  0  0  0  0  0  0
    7.3160  -14.5333   24.0798 C   0  0  0  0  0  0  0  0  0  0  0  0
    6.9140  -15.7176   23.9689 O   0  0  0  0  0  0  0  0  0  0  0  0
    9.8599  -15.5645   16.5184 N   0  0  0  0  0  0  0  0  0  0  0  0
    8.8341  -14.6377   16.1827 C   0  0  0  0  0  0  0  0  0  0  0  0
    8.8938  -14.0343   15.0524 N   0  0  0  0  0  0  0  0  0  0  0  0
    7.7949  -14.4206   17.1035 N   0  0  0  0  0  0  0  0  0  0  0  0
    7.9674  -13.4509   18.1553 C   0  0  0  0  0  0  0  0  0  0  0  0
    8.5910  -14.1648   19.3222 C   0  0  0  0  0  0  0  0  0  0  0  0
    8.2200  -13.5271   20.6257 C   0  0  0  0  0  0  0  0  0  0  0  0
    8.0780  -14.5789   21.6835 C   0  0  2  0  0  0  0  0  0  0  0  0
    7.8519  -13.8979   22.9436 N   0  0  0  0  0  0  0  0  0  0  0  0
    9.3472  -15.3854   21.8051 C   0  0  0  0  0  0  0  0  0  0  0  0
   10.4153  -14.8139   22.1220 O   0  0  0  0  0  0  0  0  0  0  0  0
    8.2034  -13.3313   14.7718 C   0  0  0  0  0  0  0  0  0  0  0  0
    9.9467  -19.2942   23.1375 C   0  0  2  0  0  0  0  0  0  0  0  0
   10.3974  -19.0183   21.7190 O   0  0  0  0  0  0  0  0  0  0  0  0
    9.3836  -19.4357   20.8492 C   0  0  2  0  0  0  0  0  0  0  0  0
   10.6353  -17.5346   21.5569 N   0  0  0  0  0  0  0  0  0  0  0  0
    9.3947  -16.7830   21.5748 C   0  0  0  0  0  0  0  0  0  0  0  0
   11.3621  -17.2609   20.2862 O   0  0  0  0  0  0  0  0  0  0  0  0
   10.7435  -17.2092   19.1928 O   0  0  0  0  0  0  0  0  0  0  0  0
  2  1  1  0
  3  4  1  0
  3  2  1  0
  4  5  1  0
  5  6  1  6
  7  8  2  0
  7  5  1  0
 10  9  1  0
 11 10  2  0
 12 10  1  0
 13 12  1  0
 14 13  1  0
 14 15  1  0
 16 15  1  6
 16 17  1  0
 17  7  1  0
 18 19  2  0
 18 16  1  0
 21 20  1  6
 21 22  1  0
 23 21  1  0
 23 24  1  6
 24 18  1  0
 25 23  1  0
 26 25  2  0
 27 25  1  0
M  END
$$$$
