MRT.pdb
     RDKit          3D

 27 26  0  0  1  0  0  0  0  0999 V2000
    8.8972  -11.3027   20.1412 C   0  0  0  0  0  0  0  0  0  0  0  0
    8.0213  -11.9862   18.7250 S   0  0  0  0  0  0  0  0  0  0  0  0
    8.1935  -13.7975   18.7568 C   0  0  0  0  0  0  0  0  0  0  0  0
    7.8001  -14.2874   20.1205 C   0  0  0  0  0  0  0  0  0  0  0  0
    8.0339  -15.7843   20.2231 C   0  0  2  0  0  0  0  0  0  0  0  0
    7.1040  -16.4712   19.3580 N   0  0  0  0  0  0  0  0  0  0  0  0
    7.8130  -16.1665   21.6443 C   0  0  0  0  0  0  0  0  0  0  0  0
    6.6406  -16.4180   22.0168 O   0  0  0  0  0  0  0  0  0  0  0  0
   12.6836  -20.5122   24.7015 N   0  0  0  0  0  0  0  0  0  0  0  0
   12.8791  -19.4931   25.6747 C   0  0  0  0  0  0  0  0  0  0  0  0
   14.0764  -19.2035   26.0328 N   0  0  0  0  0  0  0  0  0  0  0  0
   11.7517  -18.8431   26.2051 N   0  0  0  0  0  0  0  0  0  0  0  0
   10.4381  -19.3813   25.9575 C   0  0  0  0  0  0  0  0  0  0  0  0
    9.5299  -18.2211   25.6586 C   0  0  0  0  0  0  0  0  0  0  0  0
    9.5766  -17.8384   24.2112 C   0  0  0  0  0  0  0  0  0  0  0  0
    8.6451  -16.6920   23.9587 C   0  0  2  0  0  0  0  0  0  0  0  0
    8.8516  -16.2598   22.5900 N   0  0  0  0  0  0  0  0  0  0  0  0
    8.9665  -15.5348   24.8717 C   0  0  0  0  0  0  0  0  0  0  0  0
   10.0272  -14.8908   24.7043 O   0  0  0  0  0  0  0  0  0  0  0  0
   14.2764  -18.5035   26.7536 C   0  0  0  0  0  0  0  0  0  0  0  0
    6.7922  -12.4977   25.6072 C   0  0  2  0  0  0  0  0  0  0  0  0
    7.1658  -13.1063   26.9419 O   0  0  0  0  0  0  0  0  0  0  0  0
    6.0898  -13.8844   27.3840 C   0  0  2  0  0  0  0  0  0  0  0  0
    8.3892  -13.9754   26.7624 N   0  0  0  0  0  0  0  0  0  0  0  0
    8.1142  -15.1307   25.9295 C   0  0  0  0  0  0  0  0  0  0  0  0
    8.9027  -14.4288   28.0847 O   0  0  0  0  0  0  0  0  0  0  0  0
    8.9228  -15.6511   28.3791 O   0  0  0  0  0  0  0  0  0  0  0  0
  2  1  1  0
  3  4  1  0
  3  2  1  0
  4  5  1  0
  5  6  1  6
  7  8  2  0
  7  5  1  0
 10  9  1  0
 11 10  2  0
 12 10  1  0
 13 12  1  0
 14 13  1  0
 14 15  1  0
 16 15  1  1
 16 17  1  0
 17  7  1  0
 18 19  2  0
 18 16  1  0
 21 20  1  1
 21 22  1  0
 23 21  1  0
 23 24  1  1
 24 18  1  0
 25 23  1  0
 26 25  2  0
 27 25  1  0
M  END
$$$$
