MRT.pdb
     RDKit          3D

 27 26  0  0  1  0  0  0  0  0999 V2000
    7.4804  -11.3314   26.5206 C   0  0  0  0  0  0  0  0  0  0  0  0
    6.0781  -12.1631   27.2833 S   0  0  0  0  0  0  0  0  0  0  0  0
    5.5145  -13.4872   26.1693 C   0  0  0  0  0  0  0  0  0  0  0  0
    6.7207  -14.1273   25.5451 C   0  0  0  0  0  0  0  0  0  0  0  0
    6.2924  -15.2541   24.6216 C   0  0  2  0  0  0  0  0  0  0  0  0
    5.5987  -16.2609   25.3898 N   0  0  0  0  0  0  0  0  0  0  0  0
    7.5285  -15.8150   24.0114 C   0  0  0  0  0  0  0  0  0  0  0  0
    8.1019  -16.7659   24.5974 O   0  0  0  0  0  0  0  0  0  0  0  0
    9.0599  -14.1878   17.3396 N   0  0  0  0  0  0  0  0  0  0  0  0
    7.8311  -13.5052   17.5585 C   0  0  0  0  0  0  0  0  0  0  0  0
    7.0059  -13.3922   16.5830 N   0  0  0  0  0  0  0  0  0  0  0  0
    7.5696  -12.9821   18.8364 N   0  0  0  0  0  0  0  0  0  0  0  0
    8.5394  -13.1552   19.8881 C   0  0  0  0  0  0  0  0  0  0  0  0
    8.5676  -14.6184   20.2323 C   0  0  0  0  0  0  0  0  0  0  0  0
    9.7195  -14.9556   21.1283 C   0  0  0  0  0  0  0  0  0  0  0  0
    9.2698  -15.9028   22.1990 C   0  0  2  0  0  0  0  0  0  0  0  0
    8.0856  -15.3329   22.8118 N   0  0  0  0  0  0  0  0  0  0  0  0
   10.3296  -16.0439   23.2633 C   0  0  0  0  0  0  0  0  0  0  0  0
   10.6123  -15.0631   23.9887 O   0  0  0  0  0  0  0  0  0  0  0  0
    6.1057  -12.9131   16.6821 C   0  0  0  0  0  0  0  0  0  0  0  0
   10.8014  -15.8180   26.0354 C   0  0  2  0  0  0  0  0  0  0  0  0
   11.3208  -17.2357   25.9271 O   0  0  0  0  0  0  0  0  0  0  0  0
   10.2344  -18.1097   26.0485 C   0  0  2  0  0  0  0  0  0  0  0  0
   11.9790  -17.4181   24.5789 N   0  0  0  0  0  0  0  0  0  0  0  0
   11.0357  -17.2518   23.4897 C   0  0  0  0  0  0  0  0  0  0  0  0
   12.6099  -18.7640   24.4867 O   0  0  0  0  0  0  0  0  0  0  0  0
   12.1523  -19.6335   23.7021 O   0  0  0  0  0  0  0  0  0  0  0  0
  2  1  1  0
  3  4  1  0
  3  2  1  0
  4  5  1  0
  5  6  1  1
  7  8  2  0
  7  5  1  0
 10  9  1  0
 11 10  2  0
 12 10  1  0
 13 12  1  0
 14 13  1  0
 14 15  1  0
 16 15  1  6
 16 17  1  0
 17  7  1  0
 18 19  2  0
 18 16  1  0
 21 20  1  1
 21 22  1  0
 23 21  1  0
 23 24  1  1
 24 18  1  0
 25 23  1  0
 26 25  2  0
 27 25  1  0
M  END
$$$$
