MRT.pdb
     RDKit          3D

 27 26  0  0  1  0  0  0  0  0999 V2000
    7.9791  -12.8094   17.3649 C   0  0  0  0  0  0  0  0  0  0  0  0
    8.2201  -12.3305   19.0833 S   0  0  0  0  0  0  0  0  0  0  0  0
    7.1907  -13.4030   20.1330 C   0  0  0  0  0  0  0  0  0  0  0  0
    7.4479  -14.8313   19.7480 C   0  0  0  0  0  0  0  0  0  0  0  0
    8.5181  -15.4273   20.6454 C   0  0  2  0  0  0  0  0  0  0  0  0
    8.8815  -16.7337   20.1490 N   0  0  0  0  0  0  0  0  0  0  0  0
    7.9393  -15.5252   22.0130 C   0  0  0  0  0  0  0  0  0  0  0  0
    7.5945  -14.4645   22.5897 O   0  0  0  0  0  0  0  0  0  0  0  0
    8.3716  -18.4534   28.3763 N   0  0  0  0  0  0  0  0  0  0  0  0
    8.1367  -19.8508   28.2499 C   0  0  0  0  0  0  0  0  0  0  0  0
    8.8122  -20.6586   28.9825 N   0  0  0  0  0  0  0  0  0  0  0  0
    7.1726  -20.2910   27.3270 N   0  0  0  0  0  0  0  0  0  0  0  0
    6.4519  -19.3258   26.5362 C   0  0  0  0  0  0  0  0  0  0  0  0
    7.4690  -18.4091   25.9155 C   0  0  0  0  0  0  0  0  0  0  0  0
    7.2729  -18.2833   24.4359 C   0  0  0  0  0  0  0  0  0  0  0  0
    7.2549  -16.8361   24.0472 C   0  0  2  0  0  0  0  0  0  0  0  0
    7.7596  -16.7459   22.6908 N   0  0  0  0  0  0  0  0  0  0  0  0
    8.1654  -16.0336   24.9430 C   0  0  0  0  0  0  0  0  0  0  0  0
    9.4042  -16.0786   24.7660 O   0  0  0  0  0  0  0  0  0  0  0  0
    8.7136  -21.6756   28.9078 C   0  0  0  0  0  0  0  0  0  0  0  0
    7.4441  -12.2882   26.1271 C   0  0  2  0  0  0  0  0  0  0  0  0
    7.8390  -13.1484   27.3085 O   0  0  0  0  0  0  0  0  0  0  0  0
    6.6734  -13.5173   27.9897 C   0  0  2  0  0  0  0  0  0  0  0  0
    8.5517  -14.3820   26.8039 N   0  0  0  0  0  0  0  0  0  0  0  0
    7.6829  -15.2155   25.9950 C   0  0  0  0  0  0  0  0  0  0  0  0
    9.0813  -15.1791   27.9450 O   0  0  0  0  0  0  0  0  0  0  0  0
    8.7145  -16.3689   28.1200 O   0  0  0  0  0  0  0  0  0  0  0  0
  2  1  1  0
  3  4  1  0
  3  2  1  0
  4  5  1  0
  5  6  1  6
  7  8  2  0
  7  5  1  0
 10  9  1  0
 11 10  2  0
 12 10  1  0
 13 12  1  0
 14 13  1  0
 14 15  1  0
 16 15  1  1
 16 17  1  0
 17  7  1  0
 18 19  2  0
 18 16  1  0
 21 20  1  1
 21 22  1  0
 23 21  1  0
 23 24  1  1
 24 18  1  0
 25 23  1  0
 26 25  2  0
 27 25  1  0
M  END
$$$$
