MRT.pdb
     RDKit          3D

 27 26  0  0  1  0  0  0  0  0999 V2000
    8.4000  -11.7314   19.1306 C   0  0  0  0  0  0  0  0  0  0  0  0
    7.7922  -12.8529   17.8606 S   0  0  0  0  0  0  0  0  0  0  0  0
    8.1266  -14.5619   18.3890 C   0  0  0  0  0  0  0  0  0  0  0  0
    7.4782  -14.7804   19.7256 C   0  0  0  0  0  0  0  0  0  0  0  0
    8.4883  -15.3480   20.7072 C   0  0  2  0  0  0  0  0  0  0  0  0
    8.9015  -16.6574   20.2604 N   0  0  0  0  0  0  0  0  0  0  0  0
    7.8142  -15.4309   22.0314 C   0  0  0  0  0  0  0  0  0  0  0  0
    7.0942  -14.4680   22.3931 O   0  0  0  0  0  0  0  0  0  0  0  0
    7.6748  -22.0335   27.6173 N   0  0  0  0  0  0  0  0  0  0  0  0
    8.6798  -21.0487   27.4075 C   0  0  0  0  0  0  0  0  0  0  0  0
    9.8851  -21.3130   27.7581 N   0  0  0  0  0  0  0  0  0  0  0  0
    8.3119  -19.8247   26.8233 N   0  0  0  0  0  0  0  0  0  0  0  0
    6.9207  -19.5465   26.5712 C   0  0  0  0  0  0  0  0  0  0  0  0
    6.8347  -18.1388   26.0501 C   0  0  0  0  0  0  0  0  0  0  0  0
    7.4480  -18.0124   24.6895 C   0  0  0  0  0  0  0  0  0  0  0  0
    7.3042  -16.6046   24.1964 C   0  0  2  0  0  0  0  0  0  0  0  0
    7.9439  -16.5335   22.8970 N   0  0  0  0  0  0  0  0  0  0  0  0
    8.0083  -15.6429   25.1212 C   0  0  0  0  0  0  0  0  0  0  0  0
    9.2578  -15.5650   25.0981 O   0  0  0  0  0  0  0  0  0  0  0  0
   10.6508  -20.6453   27.6261 C   0  0  0  0  0  0  0  0  0  0  0  0
    6.6402  -11.8959   25.8371 C   0  0  2  0  0  0  0  0  0  0  0  0
    7.0132  -12.6233   27.1112 O   0  0  0  0  0  0  0  0  0  0  0  0
    5.8434  -13.1455   27.6748 C   0  0  2  0  0  0  0  0  0  0  0  0
    7.9681  -13.7460   26.7766 N   0  0  0  0  0  0  0  0  0  0  0  0
    7.3160  -14.8068   26.0326 C   0  0  0  0  0  0  0  0  0  0  0  0
    8.5655  -14.3076   28.0198 O   0  0  0  0  0  0  0  0  0  0  0  0
    8.3893  -15.5141   28.3267 O   0  0  0  0  0  0  0  0  0  0  0  0
  2  1  1  0
  3  4  1  0
  3  2  1  0
  4  5  1  0
  5  6  1  6
  7  8  2  0
  7  5  1  0
 10  9  1  0
 11 10  2  0
 12 10  1  0
 13 12  1  0
 14 13  1  0
 14 15  1  0
 16 15  1  1
 16 17  1  0
 17  7  1  0
 18 19  2  0
 18 16  1  0
 21 20  1  1
 21 22  1  0
 23 21  1  0
 23 24  1  1
 24 18  1  0
 25 23  1  0
 26 25  2  0
 27 25  1  0
M  END
$$$$
