MRT.pdb
     RDKit          3D

 27 26  0  0  1  0  0  0  0  0999 V2000
    8.1914  -12.1743   28.8360 C   0  0  0  0  0  0  0  0  0  0  0  0
    7.4259  -12.7566   27.3145 S   0  0  0  0  0  0  0  0  0  0  0  0
    7.5363  -14.5725   27.2689 C   0  0  0  0  0  0  0  0  0  0  0  0
    6.9968  -15.0474   25.9507 C   0  0  0  0  0  0  0  0  0  0  0  0
    8.1038  -15.6965   25.1390 C   0  0  2  0  0  0  0  0  0  0  0  0
    9.3419  -14.9916   25.3741 N   0  0  0  0  0  0  0  0  0  0  0  0
    7.7089  -15.6055   23.7069 C   0  0  0  0  0  0  0  0  0  0  0  0
    6.6182  -16.1199   23.3574 O   0  0  0  0  0  0  0  0  0  0  0  0
    7.8755  -15.2221   17.4158 N   0  0  0  0  0  0  0  0  0  0  0  0
    7.7165  -14.0570   16.6151 C   0  0  0  0  0  0  0  0  0  0  0  0
    8.0807  -14.0988   15.3859 N   0  0  0  0  0  0  0  0  0  0  0  0
    7.1655  -12.9057   17.2032 N   0  0  0  0  0  0  0  0  0  0  0  0
    7.3620  -12.6616   18.6097 C   0  0  0  0  0  0  0  0  0  0  0  0
    7.7710  -13.9659   19.2357 C   0  0  0  0  0  0  0  0  0  0  0  0
    7.8361  -13.8684   20.7289 C   0  0  0  0  0  0  0  0  0  0  0  0
    8.3059  -15.1705   21.3030 C   0  0  2  0  0  0  0  0  0  0  0  0
    8.4964  -14.9724   22.7267 N   0  0  0  0  0  0  0  0  0  0  0  0
    9.6306  -15.5695   20.7015 C   0  0  0  0  0  0  0  0  0  0  0  0
    9.6834  -15.9252   19.5021 O   0  0  0  0  0  0  0  0  0  0  0  0
    7.9838  -13.2934   14.7601 C   0  0  0  0  0  0  0  0  0  0  0  0
   14.3410  -15.1561   20.1103 C   0  0  2  0  0  0  0  0  0  0  0  0
   12.9717  -14.7044   20.5712 O   0  0  0  0  0  0  0  0  0  0  0  0
   12.3948  -13.9441   19.5476 C   0  0  1  0  0  0  0  0  0  0  0  0
   12.1194  -15.9209   20.8507 N   0  0  0  0  0  0  0  0  0  0  0  0
   10.8420  -15.5629   21.4372 C   0  0  0  0  0  0  0  0  0  0  0  0
   12.8357  -16.8595   21.7584 O   0  0  0  0  0  0  0  0  0  0  0  0
   12.3471  -17.1690   22.8748 O   0  0  0  0  0  0  0  0  0  0  0  0
  2  1  1  0
  3  4  1  0
  3  2  1  0
  4  5  1  0
  5  6  1  6
  7  8  2  0
  7  5  1  0
 10  9  1  0
 11 10  2  0
 12 10  1  0
 13 12  1  0
 14 13  1  0
 14 15  1  0
 16 15  1  6
 16 17  1  0
 17  7  1  0
 18 19  2  0
 18 16  1  0
 21 20  1  1
 21 22  1  0
 23 21  1  0
 23 24  1  1
 24 18  1  0
 25 23  1  0
 26 25  2  0
 27 25  1  0
M  END
$$$$
