MRT.pdb
     RDKit          3D

 27 26  0  0  1  0  0  0  0  0999 V2000
    6.0186  -11.1749   27.4145 C   0  0  0  0  0  0  0  0  0  0  0  0
    6.7123  -12.2646   26.1609 S   0  0  0  0  0  0  0  0  0  0  0  0
    6.9767  -13.9054   26.9022 C   0  0  0  0  0  0  0  0  0  0  0  0
    7.6077  -14.7956   25.8708 C   0  0  0  0  0  0  0  0  0  0  0  0
    6.5322  -15.5210   25.0815 C   0  0  2  0  0  0  0  0  0  0  0  0
    5.7474  -16.3324   25.9819 N   0  0  0  0  0  0  0  0  0  0  0  0
    7.2246  -16.3699   24.0741 C   0  0  0  0  0  0  0  0  0  0  0  0
    6.5692  -17.2838   23.5158 O   0  0  0  0  0  0  0  0  0  0  0  0
    8.1222  -14.1805   17.5822 N   0  0  0  0  0  0  0  0  0  0  0  0
    9.0009  -13.3467   18.3281 C   0  0  0  0  0  0  0  0  0  0  0  0
   10.1902  -13.1537   17.8879 N   0  0  0  0  0  0  0  0  0  0  0  0
    8.5302  -12.7663   19.5183 N   0  0  0  0  0  0  0  0  0  0  0  0
    7.3421  -13.2895   20.1436 C   0  0  0  0  0  0  0  0  0  0  0  0
    7.6892  -14.6430   20.6984 C   0  0  0  0  0  0  0  0  0  0  0  0
    8.3690  -14.5396   22.0290 C   0  0  0  0  0  0  0  0  0  0  0  0
    9.0064  -15.8505   22.3770 C   0  0  2  0  0  0  0  0  0  0  0  0
    8.5755  -16.1992   23.7170 N   0  0  0  0  0  0  0  0  0  0  0  0
   10.5098  -15.7257   22.3831 C   0  0  0  0  0  0  0  0  0  0  0  0
   11.0436  -14.6601   21.9990 O   0  0  0  0  0  0  0  0  0  0  0  0
   10.8577  -12.5428   18.3683 C   0  0  0  0  0  0  0  0  0  0  0  0
   11.9360  -17.2961   25.7161 C   0  0  2  0  0  0  0  0  0  0  0  0
   12.8923  -17.5434   24.5690 O   0  0  0  0  0  0  0  0  0  0  0  0
   12.6650  -18.8353   24.0812 C   0  0  2  0  0  0  0  0  0  0  0  0
   12.6290  -16.5290   23.4801 N   0  0  0  0  0  0  0  0  0  0  0  0
   11.3662  -16.7716   22.8090 C   0  0  0  0  0  0  0  0  0  0  0  0
   13.7323  -16.5426   22.4798 O   0  0  0  0  0  0  0  0  0  0  0  0
   14.9113  -16.2723   22.8229 O   0  0  0  0  0  0  0  0  0  0  0  0
  2  1  1  0
  3  4  1  0
  3  2  1  0
  4  5  1  0
  5  6  1  1
  7  8  2  0
  7  5  1  0
 10  9  1  0
 11 10  2  0
 12 10  1  0
 13 12  1  0
 14 13  1  0
 14 15  1  0
 16 15  1  1
 16 17  1  0
 17  7  1  0
 18 19  2  0
 18 16  1  0
 21 20  1  1
 21 22  1  0
 23 21  1  0
 23 24  1  6
 24 18  1  0
 25 23  1  0
 26 25  2  0
 27 25  1  0
M  END
$$$$
