MRT.pdb
     RDKit          3D

 27 26  0  0  1  0  0  0  0  0999 V2000
    7.7885  -11.8371   27.3787 C   0  0  0  0  0  0  0  0  0  0  0  0
    6.0301  -11.7998   26.9957 S   0  0  0  0  0  0  0  0  0  0  0  0
    5.5422  -13.4320   26.3556 C   0  0  0  0  0  0  0  0  0  0  0  0
    6.6513  -13.9517   25.4872 C   0  0  0  0  0  0  0  0  0  0  0  0
    6.2371  -15.2631   24.8435 C   0  0  2  0  0  0  0  0  0  0  0  0
    6.0634  -16.2630   25.8707 N   0  0  0  0  0  0  0  0  0  0  0  0
    7.3243  -15.6540   23.9054 C   0  0  0  0  0  0  0  0  0  0  0  0
    7.8739  -16.7716   24.0651 O   0  0  0  0  0  0  0  0  0  0  0  0
    9.9093  -14.4440   17.6190 N   0  0  0  0  0  0  0  0  0  0  0  0
    8.6343  -14.2632   17.0145 C   0  0  0  0  0  0  0  0  0  0  0  0
    8.4017  -14.8251   15.8851 N   0  0  0  0  0  0  0  0  0  0  0  0
    7.6790  -13.4760   17.6799 N   0  0  0  0  0  0  0  0  0  0  0  0
    7.9786  -12.9466   18.9862 C   0  0  0  0  0  0  0  0  0  0  0  0
    7.8452  -14.0780   19.9672 C   0  0  0  0  0  0  0  0  0  0  0  0
    8.9812  -14.1033   20.9430 C   0  0  0  0  0  0  0  0  0  0  0  0
    8.7955  -15.2333   21.9096 C   0  0  2  0  0  0  0  0  0  0  0  0
    7.7663  -14.8342   22.8498 N   0  0  0  0  0  0  0  0  0  0  0  0
   10.0665  -15.4866   22.6819 C   0  0  0  0  0  0  0  0  0  0  0  0
   10.5165  -14.5983   23.4410 O   0  0  0  0  0  0  0  0  0  0  0  0
    7.5478  -14.6416   15.3496 C   0  0  0  0  0  0  0  0  0  0  0  0
   10.9850  -18.1361   25.2603 C   0  0  2  0  0  0  0  0  0  0  0  0
   11.9367  -18.2703   24.0909 O   0  0  0  0  0  0  0  0  0  0  0  0
   11.4469  -19.2686   23.2410 C   0  0  2  0  0  0  0  0  0  0  0  0
   12.0003  -16.9528   23.3532 N   0  0  0  0  0  0  0  0  0  0  0  0
   10.7919  -16.7008   22.5913 C   0  0  0  0  0  0  0  0  0  0  0  0
   13.1764  -16.9250   22.4401 O   0  0  0  0  0  0  0  0  0  0  0  0
   14.3459  -16.9504   22.9011 O   0  0  0  0  0  0  0  0  0  0  0  0
  2  1  1  0
  3  4  1  0
  3  2  1  0
  4  5  1  0
  5  6  1  1
  7  8  2  0
  7  5  1  0
 10  9  1  0
 11 10  2  0
 12 10  1  0
 13 12  1  0
 14 13  1  0
 14 15  1  0
 16 15  1  6
 16 17  1  0
 17  7  1  0
 18 19  2  0
 18 16  1  0
 21 20  1  1
 21 22  1  0
 23 21  1  0
 23 24  1  1
 24 18  1  0
 25 23  1  0
 26 25  2  0
 27 25  1  0
M  END
$$$$
