MRT.pdb
     RDKit          3D

 27 26  0  0  1  0  0  0  0  0999 V2000
    6.1388  -10.8310   28.7283 C   0  0  0  0  0  0  0  0  0  0  0  0
    7.0723  -11.6022   27.3964 S   0  0  0  0  0  0  0  0  0  0  0  0
    6.2899  -13.1934   26.9870 C   0  0  0  0  0  0  0  0  0  0  0  0
    7.0639  -13.8284   25.8680 C   0  0  0  0  0  0  0  0  0  0  0  0
    6.3098  -15.0323   25.3316 C   0  0  2  0  0  0  0  0  0  0  0  0
    6.3351  -16.0872   26.3174 N   0  0  0  0  0  0  0  0  0  0  0  0
    6.9978  -15.4604   24.0833 C   0  0  0  0  0  0  0  0  0  0  0  0
    7.4042  -16.6458   24.0052 O   0  0  0  0  0  0  0  0  0  0  0  0
    7.5533  -15.3636   16.8611 N   0  0  0  0  0  0  0  0  0  0  0  0
    8.7362  -14.6489   16.5237 C   0  0  0  0  0  0  0  0  0  0  0  0
    9.3968  -15.0054   15.4835 N   0  0  0  0  0  0  0  0  0  0  0  0
    9.1338  -13.5792   17.3438 N   0  0  0  0  0  0  0  0  0  0  0  0
    8.3133  -13.1999   18.4660 C   0  0  0  0  0  0  0  0  0  0  0  0
    8.5116  -14.2384   19.5348 C   0  0  0  0  0  0  0  0  0  0  0  0
    7.7303  -13.9179   20.7718 C   0  0  0  0  0  0  0  0  0  0  0  0
    7.8953  -15.0179   21.7760 C   0  0  2  0  0  0  0  0  0  0  0  0
    7.2152  -14.6034   22.9878 N   0  0  0  0  0  0  0  0  0  0  0  0
    9.3535  -15.2260   22.1019 C   0  0  0  0  0  0  0  0  0  0  0  0
   10.0289  -14.2726   22.5522 O   0  0  0  0  0  0  0  0  0  0  0  0
   10.2752  -14.5527   15.2130 C   0  0  0  0  0  0  0  0  0  0  0  0
   11.2222  -18.3936   23.9260 C   0  0  2  0  0  0  0  0  0  0  0  0
   11.7463  -18.0908   22.5385 O   0  0  0  0  0  0  0  0  0  0  0  0
   11.1134  -18.9519   21.6348 C   0  0  2  0  0  0  0  0  0  0  0  0
   11.4244  -16.6553   22.1922 N   0  0  0  0  0  0  0  0  0  0  0  0
   10.0117  -16.4681   21.9215 C   0  0  0  0  0  0  0  0  0  0  0  0
   12.2177  -16.2155   21.0111 O   0  0  0  0  0  0  0  0  0  0  0  0
   11.6653  -16.0512   19.8937 O   0  0  0  0  0  0  0  0  0  0  0  0
  2  1  1  0
  3  4  1  0
  3  2  1  0
  4  5  1  0
  5  6  1  1
  7  8  2  0
  7  5  1  0
 10  9  1  0
 11 10  2  0
 12 10  1  0
 13 12  1  0
 14 13  1  0
 14 15  1  0
 16 15  1  6
 16 17  1  0
 17  7  1  0
 18 19  2  0
 18 16  1  0
 21 20  1  1
 21 22  1  0
 23 21  1  0
 23 24  1  6
 24 18  1  0
 25 23  1  0
 26 25  2  0
 27 25  1  0
M  END
$$$$
