MRT.pdb
     RDKit          3D

 27 26  0  0  1  0  0  0  0  0999 V2000
    9.4819  -11.5484   18.6950 C   0  0  0  0  0  0  0  0  0  0  0  0
    9.0016  -12.3910   20.2114 S   0  0  0  0  0  0  0  0  0  0  0  0
    7.3160  -13.0439   20.0019 C   0  0  0  0  0  0  0  0  0  0  0  0
    6.8949  -13.6916   21.2893 C   0  0  0  0  0  0  0  0  0  0  0  0
    7.0779  -15.1964   21.1988 C   0  0  2  0  0  0  0  0  0  0  0  0
    6.1212  -15.7362   20.2615 N   0  0  0  0  0  0  0  0  0  0  0  0
    6.8502  -15.7488   22.5619 C   0  0  0  0  0  0  0  0  0  0  0  0
    5.7986  -15.4247   23.1665 O   0  0  0  0  0  0  0  0  0  0  0  0
    8.3475  -22.2880   27.8862 N   0  0  0  0  0  0  0  0  0  0  0  0
    8.9580  -22.0880   26.6169 C   0  0  0  0  0  0  0  0  0  0  0  0
    9.9595  -22.8205   26.2917 N   0  0  0  0  0  0  0  0  0  0  0  0
    8.4384  -21.0953   25.7686 N   0  0  0  0  0  0  0  0  0  0  0  0
    7.1642  -20.4951   26.0728 C   0  0  0  0  0  0  0  0  0  0  0  0
    7.3477  -19.0041   26.0124 C   0  0  0  0  0  0  0  0  0  0  0  0
    7.4861  -18.5187   24.6023 C   0  0  0  0  0  0  0  0  0  0  0  0
    7.6142  -17.0256   24.5893 C   0  0  2  0  0  0  0  0  0  0  0  0
    7.7540  -16.6151   23.2057 N   0  0  0  0  0  0  0  0  0  0  0  0
    8.8507  -16.5917   25.3367 C   0  0  0  0  0  0  0  0  0  0  0  0
    9.9721  -16.6932   24.7890 O   0  0  0  0  0  0  0  0  0  0  0  0
   10.4429  -22.7173   25.3943 C   0  0  0  0  0  0  0  0  0  0  0  0
    8.7370  -13.5875   28.0267 C   0  0  2  0  0  0  0  0  0  0  0  0
   10.0357  -14.0878   27.4314 O   0  0  0  0  0  0  0  0  0  0  0  0
   11.0832  -13.6876   28.2690 C   0  0  1  0  0  0  0  0  0  0  0  0
    9.9914  -15.5962   27.3486 N   0  0  0  0  0  0  0  0  0  0  0  0
    8.8087  -16.0649   26.6518 C   0  0  0  0  0  0  0  0  0  0  0  0
   10.0320  -16.1927   28.7126 O   0  0  0  0  0  0  0  0  0  0  0  0
    9.0807  -16.9007   29.1305 O   0  0  0  0  0  0  0  0  0  0  0  0
  2  1  1  0
  3  4  1  0
  3  2  1  0
  4  5  1  0
  5  6  1  6
  7  8  2  0
  7  5  1  0
 10  9  1  0
 11 10  2  0
 12 10  1  0
 13 12  1  0
 14 13  1  0
 14 15  1  0
 16 15  1  6
 16 17  1  0
 17  7  1  0
 18 19  2  0
 18 16  1  0
 21 20  1  6
 21 22  1  0
 23 21  1  0
 23 24  1  6
 24 18  1  0
 25 23  1  0
 26 25  2  0
 27 25  1  0
M  END
$$$$
