PWE.pdb
     RDKit          3D

 31 33  0  0  1  0  0  0  0  0999 V2000
   29.6691  -20.0653  -18.6762 N   0  0  0  0  0  0  0  0  0  0  0  0
   30.8740  -20.7197  -19.1247 C   0  0  0  0  0  0  0  0  0  0  0  0
   30.6203  -21.2710  -20.4983 C   0  0  0  0  0  0  0  0  0  0  0  0
   29.3590  -20.6018  -20.9268 C   0  0  0  0  0  0  0  0  0  0  0  0
   28.6390  -20.3179  -19.6517 C   0  0  1  0  0  0  0  0  0  0  0  0
   27.7610  -21.4134  -19.1939 C   0  0  0  0  0  0  0  0  0  0  0  0
   27.6751  -22.4555  -19.8990 O   0  0  0  0  0  0  0  0  0  0  0  0
   26.9990  -21.3902  -18.0161 N   0  0  0  0  0  0  0  0  0  0  0  0
   26.1969  -22.5307  -17.5299 C   0  0  1  0  0  0  0  0  0  0  0  0
   27.1939  -23.6370  -17.3766 C   0  0  0  0  0  0  0  0  0  0  0  0
   26.8516  -24.9332  -17.9515 C   0  0  0  0  0  0  0  0  0  0  0  0
   26.0477  -25.1261  -19.0776 C   0  0  0  0  0  0  0  0  0  0  0  0
   25.9034  -26.4368  -19.3256 N   0  0  0  0  0  0  0  0  0  0  0  0
   26.5910  -27.1257  -18.3942 C   0  0  0  0  0  0  0  0  0  0  0  0
   26.7536  -28.5026  -18.2424 C   0  0  0  0  0  0  0  0  0  0  0  0
   27.5229  -28.9810  -17.2173 C   0  0  0  0  0  0  0  0  0  0  0  0
   28.1071  -28.0598  -16.3733 C   0  0  0  0  0  0  0  0  0  0  0  0
   27.9500  -26.7140  -16.5180 C   0  0  0  0  0  0  0  0  0  0  0  0
   27.1778  -26.2088  -17.5446 C   0  0  0  0  0  0  0  0  0  0  0  0
   25.4711  -22.1937  -16.3084 C   0  0  0  0  0  0  0  0  0  0  0  0
   26.0352  -21.7424  -15.2823 O   0  0  0  0  0  0  0  0  0  0  0  0
   24.0403  -22.3727  -16.2322 N   0  0  0  0  0  0  0  0  0  0  0  0
   23.2772  -21.9760  -15.0624 C   0  0  1  0  0  0  0  0  0  0  0  0
   22.4068  -20.7713  -15.3611 C   0  0  0  0  0  0  0  0  0  0  0  0
   21.4335  -20.5031  -14.2334 C   0  0  0  0  0  0  0  0  0  0  0  0
   20.5513  -19.3868  -14.6384 C   0  0  0  0  0  0  0  0  0  0  0  0
   20.7362  -18.7787  -15.7166 O   0  0  0  0  0  0  0  0  0  0  0  0
   22.4453  -23.1304  -14.6152 C   0  0  0  0  0  0  0  0  0  0  0  0
   22.0269  -24.1350  -15.4719 O   0  0  0  0  0  0  0  0  0  0  0  0
   19.4816  -18.9555  -13.8549 O   0  0  0  0  0  0  0  0  0  0  0  0
   22.1070  -23.1999  -13.4128 O   0  0  0  0  0  0  0  0  0  0  0  0
  1  2  1  0
  3  2  1  0
  4  3  1  0
  5  4  1  0
  5  1  1  0
  5  6  1  1
  6  8  1  0
  7  6  2  0
  9  8  1  0
  9 10  1  1
 11 10  1  0
 11 19  1  0
 12 11  2  0
 13 12  1  0
 13 14  1  0
 14 15  1  0
 14 19  2  0
 15 16  2  0
 16 17  1  0
 18 17  2  0
 19 18  1  0
 20  9  1  0
 21 20  2  0
 22 20  1  0
 23 22  1  0
 23 24  1  6
 24 25  1  0
 25 26  1  0
 26 30  1  0
 27 26  2  0
 28 23  1  0
 29 28  1  0
 31 28  2  0
M  END
$$$$
