PWE.pdb
     RDKit          3D

 31 33  0  0  1  0  0  0  0  0999 V2000
   26.4570   -8.3400  -20.9034 N   0  0  0  0  0  0  0  0  0  0  0  0
   27.5327   -9.2853  -21.0782 C   0  0  0  0  0  0  0  0  0  0  0  0
   26.9281  -10.6350  -21.3388 C   0  0  0  0  0  0  0  0  0  0  0  0
   25.4999  -10.3361  -21.6440 C   0  0  0  0  0  0  0  0  0  0  0  0
   25.2179   -9.0756  -20.8980 C   0  0  1  0  0  0  0  0  0  0  0  0
   24.7537   -9.2821  -19.5115 C   0  0  0  0  0  0  0  0  0  0  0  0
   23.7995  -10.0804  -19.3048 O   0  0  0  0  0  0  0  0  0  0  0  0
   25.2972   -8.6509  -18.3824 N   0  0  0  0  0  0  0  0  0  0  0  0
   24.7850   -8.8323  -17.0094 C   0  0  1  0  0  0  0  0  0  0  0  0
   26.0153   -8.8088  -16.1565 C   0  0  0  0  0  0  0  0  0  0  0  0
   26.8100  -10.0303  -16.0915 C   0  0  0  0  0  0  0  0  0  0  0  0
   28.1730  -10.1191  -16.3848 C   0  0  0  0  0  0  0  0  0  0  0  0
   28.5932  -11.3870  -16.2582 N   0  0  0  0  0  0  0  0  0  0  0  0
   27.5458  -12.1487  -15.8869 C   0  0  0  0  0  0  0  0  0  0  0  0
   27.4878  -13.5163  -15.6192 C   0  0  0  0  0  0  0  0  0  0  0  0
   26.3010  -14.0776  -15.2347 C   0  0  0  0  0  0  0  0  0  0  0  0
   25.2053  -13.2464  -15.1303 C   0  0  0  0  0  0  0  0  0  0  0  0
   25.2579  -11.9100  -15.3916 C   0  0  0  0  0  0  0  0  0  0  0  0
   26.4444  -11.3223  -15.7817 C   0  0  0  0  0  0  0  0  0  0  0  0
   23.7911   -7.8178  -16.6696 C   0  0  0  0  0  0  0  0  0  0  0  0
   23.9972   -6.5877  -16.8079 O   0  0  0  0  0  0  0  0  0  0  0  0
   22.5008   -8.2011  -16.1469 N   0  0  0  0  0  0  0  0  0  0  0  0
   21.4884   -7.2190  -15.8024 C   0  0  1  0  0  0  0  0  0  0  0  0
   20.4883   -7.0477  -16.9288 C   0  0  0  0  0  0  0  0  0  0  0  0
   19.4202   -6.0382  -16.5668 C   0  0  0  0  0  0  0  0  0  0  0  0
   18.5841   -5.7989  -17.7636 C   0  0  0  0  0  0  0  0  0  0  0  0
   18.0234   -6.7475  -18.3573 O   0  0  0  0  0  0  0  0  0  0  0  0
   20.8037   -7.6514  -14.5499 C   0  0  0  0  0  0  0  0  0  0  0  0
   20.3074   -6.7584  -13.6149 O   0  0  0  0  0  0  0  0  0  0  0  0
   18.3769   -4.5244  -18.2897 O   0  0  0  0  0  0  0  0  0  0  0  0
   20.6687   -8.8753  -14.3282 O   0  0  0  0  0  0  0  0  0  0  0  0
  1  2  1  0
  3  2  1  0
  4  3  1  0
  5  4  1  0
  5  1  1  0
  5  6  1  1
  6  8  1  0
  7  6  2  0
  9  8  1  0
  9 10  1  1
 11 10  1  0
 11 19  1  0
 12 11  2  0
 13 12  1  0
 13 14  1  0
 14 15  1  0
 14 19  2  0
 15 16  2  0
 16 17  1  0
 18 17  2  0
 19 18  1  0
 20  9  1  0
 21 20  2  0
 22 20  1  0
 23 22  1  0
 23 24  1  6
 24 25  1  0
 25 26  1  0
 26 30  1  0
 27 26  2  0
 28 23  1  0
 29 28  1  0
 31 28  2  0
M  END
$$$$
