PWE.pdb
     RDKit          3D

 31 33  0  0  1  0  0  0  0  0999 V2000
   27.5950  -19.1326  -13.3918 N   0  0  0  0  0  0  0  0  0  0  0  0
   28.9782  -18.7840  -13.1758 C   0  0  0  0  0  0  0  0  0  0  0  0
   29.7969  -20.0379  -13.2882 C   0  0  0  0  0  0  0  0  0  0  0  0
   28.8655  -21.0205  -13.9122 C   0  0  0  0  0  0  0  0  0  0  0  0
   27.5098  -20.5680  -13.4854 C   0  0  1  0  0  0  0  0  0  0  0  0
   27.0573  -21.1366  -12.1998 C   0  0  0  0  0  0  0  0  0  0  0  0
   26.9905  -22.3905  -12.0823 O   0  0  0  0  0  0  0  0  0  0  0  0
   26.6879  -20.3822  -11.0760 N   0  0  0  0  0  0  0  0  0  0  0  0
   25.5641  -20.7285  -10.1831 C   0  0  1  0  0  0  0  0  0  0  0  0
   25.9413  -20.1165   -8.8699 C   0  0  0  0  0  0  0  0  0  0  0  0
   27.1794  -20.5727   -8.2479 C   0  0  0  0  0  0  0  0  0  0  0  0
   28.1176  -21.4156   -8.8486 C   0  0  0  0  0  0  0  0  0  0  0  0
   29.1253  -21.6680   -7.9995 N   0  0  0  0  0  0  0  0  0  0  0  0
   28.8853  -21.0147   -6.8460 C   0  0  0  0  0  0  0  0  0  0  0  0
   29.6462  -20.9569   -5.6784 C   0  0  0  0  0  0  0  0  0  0  0  0
   29.2066  -20.2035   -4.6246 C   0  0  0  0  0  0  0  0  0  0  0  0
   28.0129  -19.5291   -4.7754 C   0  0  0  0  0  0  0  0  0  0  0  0
   27.2665  -19.5837   -5.9141 C   0  0  0  0  0  0  0  0  0  0  0  0
   27.6901  -20.3379   -6.9897 C   0  0  0  0  0  0  0  0  0  0  0  0
   24.2882  -20.2677  -10.7237 C   0  0  0  0  0  0  0  0  0  0  0  0
   24.0104  -19.0534  -10.8755 O   0  0  0  0  0  0  0  0  0  0  0  0
   23.2710  -21.2158  -11.1127 N   0  0  0  0  0  0  0  0  0  0  0  0
   22.0286  -20.7974  -11.7370 C   0  0  1  0  0  0  0  0  0  0  0  0
   21.7021  -21.6638  -12.9375 C   0  0  0  0  0  0  0  0  0  0  0  0
   20.3930  -21.2496  -13.5744 C   0  0  0  0  0  0  0  0  0  0  0  0
   20.3862  -21.7299  -14.9737 C   0  0  0  0  0  0  0  0  0  0  0  0
   21.3144  -22.4452  -15.4133 O   0  0  0  0  0  0  0  0  0  0  0  0
   20.9346  -20.8633  -10.7253 C   0  0  0  0  0  0  0  0  0  0  0  0
   21.0271  -21.6094   -9.5622 O   0  0  0  0  0  0  0  0  0  0  0  0
   19.3626  -21.4179  -15.8676 O   0  0  0  0  0  0  0  0  0  0  0  0
   19.8832  -20.2173  -10.9313 O   0  0  0  0  0  0  0  0  0  0  0  0
  1  2  1  0
  3  2  1  0
  4  3  1  0
  5  4  1  0
  5  1  1  0
  5  6  1  1
  6  8  1  0
  7  6  2  0
  9  8  1  0
  9 10  1  1
 11 10  1  0
 11 19  1  0
 12 11  2  0
 13 12  1  0
 13 14  1  0
 14 15  1  0
 14 19  2  0
 15 16  2  0
 16 17  1  0
 18 17  2  0
 19 18  1  0
 20  9  1  0
 21 20  2  0
 22 20  1  0
 23 22  1  0
 23 24  1  6
 24 25  1  0
 25 26  1  0
 26 30  1  0
 27 26  2  0
 28 23  1  0
 29 28  1  0
 31 28  2  0
M  END
$$$$
