PWE.pdb
     RDKit          3D

 31 33  0  0  1  0  0  0  0  0999 V2000
   28.4205  -21.1856  -15.5724 N   0  0  0  0  0  0  0  0  0  0  0  0
   27.4997  -20.7070  -16.5746 C   0  0  0  0  0  0  0  0  0  0  0  0
   27.0701  -19.3211  -16.1876 C   0  0  0  0  0  0  0  0  0  0  0  0
   28.0452  -18.9241  -15.1323 C   0  0  0  0  0  0  0  0  0  0  0  0
   28.4619  -20.2137  -14.5093 C   0  0  1  0  0  0  0  0  0  0  0  0
   27.6070  -20.6493  -13.3868 C   0  0  0  0  0  0  0  0  0  0  0  0
   26.7489  -21.5502  -13.5932 O   0  0  0  0  0  0  0  0  0  0  0  0
   27.6716  -20.1334  -12.0836 N   0  0  0  0  0  0  0  0  0  0  0  0
   26.8363  -20.6127  -10.9643 C   0  0  1  0  0  0  0  0  0  0  0  0
   27.4990  -20.0455   -9.7475 C   0  0  0  0  0  0  0  0  0  0  0  0
   26.9017  -20.3539   -8.4528 C   0  0  0  0  0  0  0  0  0  0  0  0
   25.6253  -20.8890   -8.2635 C   0  0  0  0  0  0  0  0  0  0  0  0
   25.3683  -21.0234   -6.9535 N   0  0  0  0  0  0  0  0  0  0  0  0
   26.4409  -20.5923   -6.2616 C   0  0  0  0  0  0  0  0  0  0  0  0
   26.6550  -20.5480   -4.8841 C   0  0  0  0  0  0  0  0  0  0  0  0
   27.8469  -20.0803   -4.4025 C   0  0  0  0  0  0  0  0  0  0  0  0
   28.7904  -19.6700   -5.3211 C   0  0  0  0  0  0  0  0  0  0  0  0
   28.5845  -19.7112   -6.6675 C   0  0  0  0  0  0  0  0  0  0  0  0
   27.3895  -20.1787   -7.1760 C   0  0  0  0  0  0  0  0  0  0  0  0
   25.4392  -20.2224  -11.1325 C   0  0  0  0  0  0  0  0  0  0  0  0
   25.0826  -19.0379  -11.3435 O   0  0  0  0  0  0  0  0  0  0  0  0
   24.3879  -21.2095  -11.0591 N   0  0  0  0  0  0  0  0  0  0  0  0
   23.0729  -20.9757  -11.6286 C   0  0  1  0  0  0  0  0  0  0  0  0
   22.5498  -22.2180  -12.3225 C   0  0  0  0  0  0  0  0  0  0  0  0
   21.1910  -21.9706  -12.9418 C   0  0  0  0  0  0  0  0  0  0  0  0
   20.7409  -23.2235  -13.5870 C   0  0  0  0  0  0  0  0  0  0  0  0
   20.9695  -24.3363  -13.0616 O   0  0  0  0  0  0  0  0  0  0  0  0
   22.1457  -20.5484  -10.5413 C   0  0  0  0  0  0  0  0  0  0  0  0
   21.0120  -19.7873  -10.7727 O   0  0  0  0  0  0  0  0  0  0  0  0
   20.0482  -23.2358  -14.7970 O   0  0  0  0  0  0  0  0  0  0  0  0
   22.3983  -20.8899   -9.3645 O   0  0  0  0  0  0  0  0  0  0  0  0
  1  2  1  0
  3  2  1  0
  4  3  1  0
  5  4  1  0
  5  1  1  0
  5  6  1  1
  6  8  1  0
  7  6  2  0
  9  8  1  0
  9 10  1  1
 11 10  1  0
 11 19  1  0
 12 11  2  0
 13 12  1  0
 13 14  1  0
 14 15  1  0
 14 19  2  0
 15 16  2  0
 16 17  1  0
 18 17  2  0
 19 18  1  0
 20  9  1  0
 21 20  2  0
 22 20  1  0
 23 22  1  0
 23 24  1  1
 24 25  1  0
 25 26  1  0
 26 30  1  0
 27 26  2  0
 28 23  1  0
 29 28  1  0
 31 28  2  0
M  END
$$$$
