PWE.pdb
     RDKit          3D

 31 33  0  0  1  0  0  0  0  0999 V2000
   28.0249  -20.2916  -16.3532 N   0  0  0  0  0  0  0  0  0  0  0  0
   29.4581  -20.3406  -16.1961 C   0  0  0  0  0  0  0  0  0  0  0  0
   29.8731  -21.7834  -16.1605 C   0  0  0  0  0  0  0  0  0  0  0  0
   28.6698  -22.5155  -16.6484 C   0  0  0  0  0  0  0  0  0  0  0  0
   27.5239  -21.6399  -16.2673 C   0  0  1  0  0  0  0  0  0  0  0  0
   26.9857  -21.8987  -14.9167 C   0  0  0  0  0  0  0  0  0  0  0  0
   26.3508  -22.9691  -14.7127 O   0  0  0  0  0  0  0  0  0  0  0  0
   27.1249  -21.0349  -13.8199 N   0  0  0  0  0  0  0  0  0  0  0  0
   26.4417  -21.2287  -12.5253 C   0  0  1  0  0  0  0  0  0  0  0  0
   27.3494  -20.5704  -11.5332 C   0  0  0  0  0  0  0  0  0  0  0  0
   26.8637  -20.4380  -10.1641 C   0  0  0  0  0  0  0  0  0  0  0  0
   25.5355  -20.2011   -9.8018 C   0  0  0  0  0  0  0  0  0  0  0  0
   25.4292  -20.1015   -8.4680 N   0  0  0  0  0  0  0  0  0  0  0  0
   26.6527  -20.2663   -7.9288 C   0  0  0  0  0  0  0  0  0  0  0  0
   27.0458  -20.2618   -6.5906 C   0  0  0  0  0  0  0  0  0  0  0  0
   28.3600  -20.4713   -6.2739 C   0  0  0  0  0  0  0  0  0  0  0  0
   29.2423  -20.6795   -7.3135 C   0  0  0  0  0  0  0  0  0  0  0  0
   28.8621  -20.6839   -8.6220 C   0  0  0  0  0  0  0  0  0  0  0  0
   27.5417  -20.4741   -8.9649 C   0  0  0  0  0  0  0  0  0  0  0  0
   25.0823  -20.6959  -12.5515 C   0  0  0  0  0  0  0  0  0  0  0  0
   24.8213  -19.5073  -12.8577 O   0  0  0  0  0  0  0  0  0  0  0  0
   23.9580  -21.5375  -12.2161 N   0  0  0  0  0  0  0  0  0  0  0  0
   22.5934  -21.1634  -12.5420 C   0  0  1  0  0  0  0  0  0  0  0  0
   21.7765  -22.3752  -12.9449 C   0  0  0  0  0  0  0  0  0  0  0  0
   20.3362  -22.0003  -13.2204 C   0  0  0  0  0  0  0  0  0  0  0  0
   19.6782  -23.1462  -13.8858 C   0  0  0  0  0  0  0  0  0  0  0  0
   19.4735  -24.2168  -13.2707 O   0  0  0  0  0  0  0  0  0  0  0  0
   21.9845  -20.4850  -11.3615 C   0  0  0  0  0  0  0  0  0  0  0  0
   21.2006  -19.3481  -11.4665 O   0  0  0  0  0  0  0  0  0  0  0  0
   19.2561  -23.0995  -15.2138 O   0  0  0  0  0  0  0  0  0  0  0  0
   22.1876  -20.9599  -10.2220 O   0  0  0  0  0  0  0  0  0  0  0  0
  1  2  1  0
  3  2  1  0
  4  3  1  0
  5  4  1  0
  5  1  1  0
  5  6  1  1
  6  8  1  0
  7  6  2  0
  9  8  1  0
  9 10  1  1
 11 10  1  0
 11 19  1  0
 12 11  2  0
 13 12  1  0
 13 14  1  0
 14 15  1  0
 14 19  2  0
 15 16  2  0
 16 17  1  0
 18 17  2  0
 19 18  1  0
 20  9  1  0
 21 20  2  0
 22 20  1  0
 23 22  1  0
 23 24  1  1
 24 25  1  0
 25 26  1  0
 26 30  1  0
 27 26  2  0
 28 23  1  0
 29 28  1  0
 31 28  2  0
M  END
$$$$
