PWE.pdb
     RDKit          3D

 31 33  0  0  1  0  0  0  0  0999 V2000
   27.3423  -19.5188  -14.2819 N   0  0  0  0  0  0  0  0  0  0  0  0
   28.7647  -19.7117  -14.4263 C   0  0  0  0  0  0  0  0  0  0  0  0
   29.0113  -21.1675  -14.7002 C   0  0  0  0  0  0  0  0  0  0  0  0
   27.6628  -21.7020  -15.0436 C   0  0  0  0  0  0  0  0  0  0  0  0
   26.7150  -20.8158  -14.3078 C   0  0  1  0  0  0  0  0  0  0  0  0
   26.4098  -21.2621  -12.9337 C   0  0  0  0  0  0  0  0  0  0  0  0
   25.8642  -22.3871  -12.7694 O   0  0  0  0  0  0  0  0  0  0  0  0
   26.6819  -20.5230  -11.7725 N   0  0  0  0  0  0  0  0  0  0  0  0
   26.1338  -20.8481  -10.4405 C   0  0  1  0  0  0  0  0  0  0  0  0
   27.2377  -20.4878   -9.4954 C   0  0  0  0  0  0  0  0  0  0  0  0
   26.9706  -20.6251   -8.0679 C   0  0  0  0  0  0  0  0  0  0  0  0
   25.8483  -21.2479   -7.5165 C   0  0  0  0  0  0  0  0  0  0  0  0
   25.8895  -21.1769   -6.1773 N   0  0  0  0  0  0  0  0  0  0  0  0
   27.0115  -20.5229   -5.8188 C   0  0  0  0  0  0  0  0  0  0  0  0
   27.4981  -20.2164   -4.5481 C   0  0  0  0  0  0  0  0  0  0  0  0
   28.6868  -19.5510   -4.4245 C   0  0  0  0  0  0  0  0  0  0  0  0
   29.3530  -19.2124   -5.5838 C   0  0  0  0  0  0  0  0  0  0  0  0
   28.8805  -19.5095   -6.8269 C   0  0  0  0  0  0  0  0  0  0  0  0
   27.6830  -20.1797   -6.9757 C   0  0  0  0  0  0  0  0  0  0  0  0
   24.8733  -20.1528  -10.1952 C   0  0  0  0  0  0  0  0  0  0  0  0
   24.8102  -18.9271   -9.9334 O   0  0  0  0  0  0  0  0  0  0  0  0
   23.6197  -20.8675  -10.2443 N   0  0  0  0  0  0  0  0  0  0  0  0
   22.3507  -20.1829  -10.4155 C   0  0  1  0  0  0  0  0  0  0  0  0
   22.3055  -19.4388  -11.7355 C   0  0  0  0  0  0  0  0  0  0  0  0
   22.0017  -20.3761  -12.8846 C   0  0  0  0  0  0  0  0  0  0  0  0
   22.0644  -19.6013  -14.1434 C   0  0  0  0  0  0  0  0  0  0  0  0
   23.1422  -19.4710  -14.7661 O   0  0  0  0  0  0  0  0  0  0  0  0
   21.2482  -21.1843  -10.3359 C   0  0  0  0  0  0  0  0  0  0  0  0
   21.4316  -22.5306  -10.6036 O   0  0  0  0  0  0  0  0  0  0  0  0
   20.9450  -18.9822  -14.6983 O   0  0  0  0  0  0  0  0  0  0  0  0
   20.1034  -20.7963  -10.0133 O   0  0  0  0  0  0  0  0  0  0  0  0
  1  2  1  0
  3  2  1  0
  4  3  1  0
  5  4  1  0
  5  1  1  0
  5  6  1  1
  6  8  1  0
  7  6  2  0
  9  8  1  0
  9 10  1  1
 11 10  1  0
 11 19  1  0
 12 11  2  0
 13 12  1  0
 13 14  1  0
 14 15  1  0
 14 19  2  0
 15 16  2  0
 16 17  1  0
 18 17  2  0
 19 18  1  0
 20  9  1  0
 21 20  2  0
 22 20  1  0
 23 22  1  0
 23 24  1  6
 24 25  1  0
 25 26  1  0
 26 30  1  0
 27 26  2  0
 28 23  1  0
 29 28  1  0
 31 28  2  0
M  END
$$$$
