PWE.pdb
     RDKit          3D

 31 33  0  0  1  0  0  0  0  0999 V2000
   29.3763  -20.2012  -11.9094 N   0  0  0  0  0  0  0  0  0  0  0  0
   30.5141  -19.6754  -11.1952 C   0  0  0  0  0  0  0  0  0  0  0  0
   31.0944  -20.7836  -10.3643 C   0  0  0  0  0  0  0  0  0  0  0  0
   30.4531  -22.0144  -10.9085 C   0  0  0  0  0  0  0  0  0  0  0  0
   29.1419  -21.5438  -11.4415 C   0  0  1  0  0  0  0  0  0  0  0  0
   28.0457  -21.5548  -10.4522 C   0  0  0  0  0  0  0  0  0  0  0  0
   27.8446  -22.6045   -9.7827 O   0  0  0  0  0  0  0  0  0  0  0  0
   27.1922  -20.4724  -10.1903 N   0  0  0  0  0  0  0  0  0  0  0  0
   25.8107  -20.6139   -9.6883 C   0  0  1  0  0  0  0  0  0  0  0  0
   25.7351  -19.6407   -8.5531 C   0  0  0  0  0  0  0  0  0  0  0  0
   26.9034  -19.5279   -7.6870 C   0  0  0  0  0  0  0  0  0  0  0  0
   27.9721  -18.6512   -7.8890 C   0  0  0  0  0  0  0  0  0  0  0  0
   28.8971  -18.8190   -6.9317 N   0  0  0  0  0  0  0  0  0  0  0  0
   28.4739  -19.7855   -6.0939 C   0  0  0  0  0  0  0  0  0  0  0  0
   29.0788  -20.2999   -4.9473 C   0  0  0  0  0  0  0  0  0  0  0  0
   28.4458  -21.2807   -4.2341 C   0  0  0  0  0  0  0  0  0  0  0  0
   27.2211  -21.7166   -4.6951 C   0  0  0  0  0  0  0  0  0  0  0  0
   26.6273  -21.2169   -5.8152 C   0  0  0  0  0  0  0  0  0  0  0  0
   27.2479  -20.2274   -6.5507 C   0  0  0  0  0  0  0  0  0  0  0  0
   24.8301  -20.3896  -10.7468 C   0  0  0  0  0  0  0  0  0  0  0  0
   24.7983  -19.3416  -11.4363 O   0  0  0  0  0  0  0  0  0  0  0  0
   23.8332  -21.3900  -11.0472 N   0  0  0  0  0  0  0  0  0  0  0  0
   22.8505  -21.2042  -12.0999 C   0  0  1  0  0  0  0  0  0  0  0  0
   22.4471  -22.5318  -12.7106 C   0  0  0  0  0  0  0  0  0  0  0  0
   21.3079  -22.3615  -13.6927 C   0  0  0  0  0  0  0  0  0  0  0  0
   21.8786  -21.9755  -15.0019 C   0  0  0  0  0  0  0  0  0  0  0  0
   22.7453  -22.6848  -15.5606 O   0  0  0  0  0  0  0  0  0  0  0  0
   21.6634  -20.5016  -11.5326 C   0  0  0  0  0  0  0  0  0  0  0  0
   20.9408  -19.5531  -12.2370 O   0  0  0  0  0  0  0  0  0  0  0  0
   21.4900  -20.8187  -15.6764 O   0  0  0  0  0  0  0  0  0  0  0  0
   21.2991  -20.7775  -10.3680 O   0  0  0  0  0  0  0  0  0  0  0  0
  1  2  1  0
  3  2  1  0
  4  3  1  0
  5  4  1  0
  5  1  1  0
  5  6  1  1
  6  8  1  0
  7  6  2  0
  9  8  1  0
  9 10  1  1
 11 10  1  0
 11 19  1  0
 12 11  2  0
 13 12  1  0
 13 14  1  0
 14 15  1  0
 14 19  2  0
 15 16  2  0
 16 17  1  0
 18 17  2  0
 19 18  1  0
 20  9  1  0
 21 20  2  0
 22 20  1  0
 23 22  1  0
 23 24  1  1
 24 25  1  0
 25 26  1  0
 26 30  1  0
 27 26  2  0
 28 23  1  0
 29 28  1  0
 31 28  2  0
M  END
$$$$
