PWE.pdb
     RDKit          3D

 31 33  0  0  1  0  0  0  0  0999 V2000
   29.0109  -21.6441  -14.0895 N   0  0  0  0  0  0  0  0  0  0  0  0
   28.3759  -21.3124  -15.3418 C   0  0  0  0  0  0  0  0  0  0  0  0
   27.8586  -19.9061  -15.2428 C   0  0  0  0  0  0  0  0  0  0  0  0
   28.5307  -19.3605  -14.0292 C   0  0  0  0  0  0  0  0  0  0  0  0
   28.7771  -20.5569  -13.1732 C   0  0  1  0  0  0  0  0  0  0  0  0
   27.6647  -20.8895  -12.2608 C   0  0  0  0  0  0  0  0  0  0  0  0
   27.0124  -21.9499  -12.4624 O   0  0  0  0  0  0  0  0  0  0  0  0
   27.2652  -20.1076  -11.1664 N   0  0  0  0  0  0  0  0  0  0  0  0
   26.1522  -20.4609  -10.2627 C   0  0  1  0  0  0  0  0  0  0  0  0
   26.4484  -19.7010   -9.0071 C   0  0  0  0  0  0  0  0  0  0  0  0
   27.5793  -20.1496   -8.2023 C   0  0  0  0  0  0  0  0  0  0  0  0
   28.7068  -20.8092   -8.6973 C   0  0  0  0  0  0  0  0  0  0  0  0
   29.5452  -21.1114   -7.6943 N   0  0  0  0  0  0  0  0  0  0  0  0
   29.0073  -20.6700   -6.5407 C   0  0  0  0  0  0  0  0  0  0  0  0
   29.5070  -20.7369   -5.2403 C   0  0  0  0  0  0  0  0  0  0  0  0
   28.7838  -20.1972   -4.2122 C   0  0  0  0  0  0  0  0  0  0  0  0
   27.5772  -19.6049   -4.5218 C   0  0  0  0  0  0  0  0  0  0  0  0
   27.0855  -19.5382   -5.7909 C   0  0  0  0  0  0  0  0  0  0  0  0
   27.7977  -20.0766   -6.8436 C   0  0  0  0  0  0  0  0  0  0  0  0
   24.8565  -20.1583  -10.8643 C   0  0  0  0  0  0  0  0  0  0  0  0
   24.5627  -19.0256  -11.3175 O   0  0  0  0  0  0  0  0  0  0  0  0
   23.8373  -21.1764  -10.9617 N   0  0  0  0  0  0  0  0  0  0  0  0
   22.5939  -20.9534  -11.6777 C   0  0  1  0  0  0  0  0  0  0  0  0
   22.0924  -22.2352  -12.3132 C   0  0  0  0  0  0  0  0  0  0  0  0
   22.2328  -22.1932  -13.8197 C   0  0  0  0  0  0  0  0  0  0  0  0
   21.7302  -23.4723  -14.3676 C   0  0  0  0  0  0  0  0  0  0  0  0
   21.3514  -24.3929  -13.6091 O   0  0  0  0  0  0  0  0  0  0  0  0
   21.5830  -20.4040  -10.7286 C   0  0  0  0  0  0  0  0  0  0  0  0
   20.4217  -19.7745  -11.1449 O   0  0  0  0  0  0  0  0  0  0  0  0
   21.6516  -23.7208  -15.7374 O   0  0  0  0  0  0  0  0  0  0  0  0
   21.7878  -20.5138   -9.4993 O   0  0  0  0  0  0  0  0  0  0  0  0
  1  2  1  0
  3  2  1  0
  4  3  1  0
  5  4  1  0
  5  1  1  0
  5  6  1  6
  6  8  1  0
  7  6  2  0
  9  8  1  0
  9 10  1  1
 11 10  1  0
 11 19  1  0
 12 11  2  0
 13 12  1  0
 13 14  1  0
 14 15  1  0
 14 19  2  0
 15 16  2  0
 16 17  1  0
 18 17  2  0
 19 18  1  0
 20  9  1  0
 21 20  2  0
 22 20  1  0
 23 22  1  0
 23 24  1  1
 24 25  1  0
 25 26  1  0
 26 30  1  0
 27 26  2  0
 28 23  1  0
 29 28  1  0
 31 28  2  0
M  END
$$$$
