PWE.pdb
     RDKit          3D

 31 33  0  0  1  0  0  0  0  0999 V2000
   28.0113  -20.2418  -16.0050 N   0  0  0  0  0  0  0  0  0  0  0  0
   29.4416  -20.4076  -15.9150 C   0  0  0  0  0  0  0  0  0  0  0  0
   29.7421  -21.8786  -15.9459 C   0  0  0  0  0  0  0  0  0  0  0  0
   28.4648  -22.4969  -16.4023 C   0  0  0  0  0  0  0  0  0  0  0  0
   27.4093  -21.5494  -15.9407 C   0  0  1  0  0  0  0  0  0  0  0  0
   26.9107  -21.8146  -14.5762 C   0  0  0  0  0  0  0  0  0  0  0  0
   26.1724  -22.8192  -14.3858 O   0  0  0  0  0  0  0  0  0  0  0  0
   27.1959  -21.0255  -13.4518 N   0  0  0  0  0  0  0  0  0  0  0  0
   26.5000  -21.1541  -12.1558 C   0  0  1  0  0  0  0  0  0  0  0  0
   27.5155  -20.7041  -11.1518 C   0  0  0  0  0  0  0  0  0  0  0  0
   27.0520  -20.4649   -9.7895 C   0  0  0  0  0  0  0  0  0  0  0  0
   25.7137  -20.4279   -9.3907 C   0  0  0  0  0  0  0  0  0  0  0  0
   25.6277  -20.1554   -8.0797 N   0  0  0  0  0  0  0  0  0  0  0  0
   26.8748  -20.0098   -7.5913 C   0  0  0  0  0  0  0  0  0  0  0  0
   27.2971  -19.7366   -6.2904 C   0  0  0  0  0  0  0  0  0  0  0  0
   28.6355  -19.6502   -6.0209 C   0  0  0  0  0  0  0  0  0  0  0  0
   29.5118  -19.8412   -7.0688 C   0  0  0  0  0  0  0  0  0  0  0  0
   29.1030  -20.1076   -8.3411 C   0  0  0  0  0  0  0  0  0  0  0  0
   27.7577  -20.1986   -8.6362 C   0  0  0  0  0  0  0  0  0  0  0  0
   25.2524  -20.3955  -12.1395 C   0  0  0  0  0  0  0  0  0  0  0  0
   25.2116  -19.1471  -12.2601 O   0  0  0  0  0  0  0  0  0  0  0  0
   23.9858  -21.0699  -11.9785 N   0  0  0  0  0  0  0  0  0  0  0  0
   22.7226  -20.4095  -12.2548 C   0  0  1  0  0  0  0  0  0  0  0  0
   22.2160  -20.7581  -13.6404 C   0  0  0  0  0  0  0  0  0  0  0  0
   22.5491  -19.6692  -14.6376 C   0  0  0  0  0  0  0  0  0  0  0  0
   21.7643  -19.9117  -15.8680 C   0  0  0  0  0  0  0  0  0  0  0  0
   20.9887  -20.8903  -15.9543 O   0  0  0  0  0  0  0  0  0  0  0  0
   21.7317  -20.8095  -11.2142 C   0  0  0  0  0  0  0  0  0  0  0  0
   20.6394  -20.0292  -10.8736 O   0  0  0  0  0  0  0  0  0  0  0  0
   21.8428  -19.0781  -16.9828 O   0  0  0  0  0  0  0  0  0  0  0  0
   21.8893  -21.8983  -10.6185 O   0  0  0  0  0  0  0  0  0  0  0  0
  1  2  1  0
  3  2  1  0
  4  3  1  0
  5  4  1  0
  5  1  1  0
  5  6  1  1
  6  8  1  0
  7  6  2  0
  9  8  1  0
  9 10  1  1
 11 10  1  0
 11 19  1  0
 12 11  2  0
 13 12  1  0
 13 14  1  0
 14 15  1  0
 14 19  2  0
 15 16  2  0
 16 17  1  0
 18 17  2  0
 19 18  1  0
 20  9  1  0
 21 20  2  0
 22 20  1  0
 23 22  1  0
 23 24  1  6
 24 25  1  0
 25 26  1  0
 26 30  1  0
 27 26  2  0
 28 23  1  0
 29 28  1  0
 31 28  2  0
M  END
$$$$
