PWE.pdb
     RDKit          3D

 31 33  0  0  1  0  0  0  0  0999 V2000
   28.6828  -22.3353  -16.2680 N   0  0  0  0  0  0  0  0  0  0  0  0
   27.8447  -22.1945  -17.4338 C   0  0  0  0  0  0  0  0  0  0  0  0
   27.3023  -20.7942  -17.4504 C   0  0  0  0  0  0  0  0  0  0  0  0
   28.1411  -20.0721  -16.4518 C   0  0  0  0  0  0  0  0  0  0  0  0
   28.5619  -21.1298  -15.4879 C   0  0  1  0  0  0  0  0  0  0  0  0
   27.6217  -21.3392  -14.3685 C   0  0  0  0  0  0  0  0  0  0  0  0
   26.7266  -22.2198  -14.4861 O   0  0  0  0  0  0  0  0  0  0  0  0
   27.6422  -20.6250  -13.1610 N   0  0  0  0  0  0  0  0  0  0  0  0
   26.7685  -20.9264  -12.0094 C   0  0  1  0  0  0  0  0  0  0  0  0
   27.4736  -20.3029  -10.8452 C   0  0  0  0  0  0  0  0  0  0  0  0
   26.8234  -20.3892   -9.5422 C   0  0  0  0  0  0  0  0  0  0  0  0
   25.4430  -20.4447   -9.3349 C   0  0  0  0  0  0  0  0  0  0  0  0
   25.1725  -20.4872   -8.0214 N   0  0  0  0  0  0  0  0  0  0  0  0
   26.3372  -20.4621   -7.3448 C   0  0  0  0  0  0  0  0  0  0  0  0
   26.5715  -20.5023   -5.9704 C   0  0  0  0  0  0  0  0  0  0  0  0
   27.8579  -20.4836   -5.5056 C   0  0  0  0  0  0  0  0  0  0  0  0
   28.8731  -20.4249   -6.4375 C   0  0  0  0  0  0  0  0  0  0  0  0
   28.6481  -20.3848   -7.7808 C   0  0  0  0  0  0  0  0  0  0  0  0
   27.3584  -20.4020   -8.2724 C   0  0  0  0  0  0  0  0  0  0  0  0
   25.4085  -20.4408  -12.2268 C   0  0  0  0  0  0  0  0  0  0  0  0
   25.1571  -19.3139  -12.7182 O   0  0  0  0  0  0  0  0  0  0  0  0
   24.2723  -21.2591  -11.8742 N   0  0  0  0  0  0  0  0  0  0  0  0
   22.9241  -20.9261  -12.2981 C   0  0  1  0  0  0  0  0  0  0  0  0
   22.3564  -21.9997  -13.2055 C   0  0  0  0  0  0  0  0  0  0  0  0
   21.8470  -21.4098  -14.5030 C   0  0  0  0  0  0  0  0  0  0  0  0
   21.0646  -22.4485  -15.2085 C   0  0  0  0  0  0  0  0  0  0  0  0
   21.0211  -23.6237  -14.7801 O   0  0  0  0  0  0  0  0  0  0  0  0
   22.0684  -20.7498  -11.0893 C   0  0  0  0  0  0  0  0  0  0  0  0
   20.8754  -20.0466  -11.1060 O   0  0  0  0  0  0  0  0  0  0  0  0
   20.3433  -22.1818  -16.3716 O   0  0  0  0  0  0  0  0  0  0  0  0
   22.4400  -21.2579  -10.0081 O   0  0  0  0  0  0  0  0  0  0  0  0
  1  2  1  0
  3  2  1  0
  4  3  1  0
  5  4  1  0
  5  1  1  0
  5  6  1  1
  6  8  1  0
  7  6  2  0
  9  8  1  0
  9 10  1  1
 11 10  1  0
 11 19  1  0
 12 11  2  0
 13 12  1  0
 13 14  1  0
 14 15  1  0
 14 19  2  0
 15 16  2  0
 16 17  1  0
 18 17  2  0
 19 18  1  0
 20  9  1  0
 21 20  2  0
 22 20  1  0
 23 22  1  0
 23 24  1  6
 24 25  1  0
 25 26  1  0
 26 30  1  0
 27 26  2  0
 28 23  1  0
 29 28  1  0
 31 28  2  0
M  END
$$$$
