PWE.pdb
     RDKit          3D

 31 33  0  0  1  0  0  0  0  0999 V2000
   26.9555  -21.3134   -7.5162 N   0  0  0  0  0  0  0  0  0  0  0  0
   28.2496  -20.7077   -7.3172 C   0  0  0  0  0  0  0  0  0  0  0  0
   28.0514  -19.2273   -7.1622 C   0  0  0  0  0  0  0  0  0  0  0  0
   26.5850  -19.0826   -6.9372 C   0  0  0  0  0  0  0  0  0  0  0  0
   25.9855  -20.2548   -7.6382 C   0  0  1  0  0  0  0  0  0  0  0  0
   25.6695  -20.0144   -9.0606 C   0  0  0  0  0  0  0  0  0  0  0  0
   25.4083  -18.8379   -9.4324 O   0  0  0  0  0  0  0  0  0  0  0  0
   25.6348  -21.0064  -10.0522 N   0  0  0  0  0  0  0  0  0  0  0  0
   25.3221  -20.7437  -11.4712 C   0  0  1  0  0  0  0  0  0  0  0  0
   26.2358  -21.6628  -12.2208 C   0  0  0  0  0  0  0  0  0  0  0  0
   27.5705  -21.1684  -12.5404 C   0  0  0  0  0  0  0  0  0  0  0  0
   28.7344  -21.4821  -11.8345 C   0  0  0  0  0  0  0  0  0  0  0  0
   29.7863  -20.8406  -12.3657 N   0  0  0  0  0  0  0  0  0  0  0  0
   29.3556  -20.1062  -13.4097 C   0  0  0  0  0  0  0  0  0  0  0  0
   30.0734  -19.2858  -14.2799 C   0  0  0  0  0  0  0  0  0  0  0  0
   29.4181  -18.6430  -15.2941 C   0  0  0  0  0  0  0  0  0  0  0  0
   28.0579  -18.8438  -15.4042 C   0  0  0  0  0  0  0  0  0  0  0  0
   27.3532  -19.6439  -14.5556 C   0  0  0  0  0  0  0  0  0  0  0  0
   27.9934  -20.3018  -13.5249 C   0  0  0  0  0  0  0  0  0  0  0  0
   23.9022  -20.9370  -11.7520 C   0  0  0  0  0  0  0  0  0  0  0  0
   23.1921  -21.7683  -11.1359 O   0  0  0  0  0  0  0  0  0  0  0  0
   23.2446  -20.1604  -12.7763 N   0  0  0  0  0  0  0  0  0  0  0  0
   21.8176  -20.2649  -13.0231 C   0  0  1  0  0  0  0  0  0  0  0  0
   21.2487  -18.9447  -13.5043 C   0  0  0  0  0  0  0  0  0  0  0  0
   19.7825  -19.0741  -13.8575 C   0  0  0  0  0  0  0  0  0  0  0  0
   18.9887  -18.4482  -12.7774 C   0  0  0  0  0  0  0  0  0  0  0  0
   19.3518  -17.3713  -12.2529 O   0  0  0  0  0  0  0  0  0  0  0  0
   21.5797  -21.3402  -14.0289 C   0  0  0  0  0  0  0  0  0  0  0  0
   20.3975  -22.0581  -14.1000 O   0  0  0  0  0  0  0  0  0  0  0  0
   17.8106  -19.0129  -12.2902 O   0  0  0  0  0  0  0  0  0  0  0  0
   22.4857  -21.6104  -14.8483 O   0  0  0  0  0  0  0  0  0  0  0  0
  1  2  1  0
  3  2  1  0
  4  3  1  0
  5  4  1  0
  5  1  1  0
  5  6  1  6
  6  8  1  0
  7  6  2  0
  9  8  1  0
  9 10  1  6
 11 10  1  0
 11 19  1  0
 12 11  2  0
 13 12  1  0
 13 14  1  0
 14 15  1  0
 14 19  2  0
 15 16  2  0
 16 17  1  0
 18 17  2  0
 19 18  1  0
 20  9  1  0
 21 20  2  0
 22 20  1  0
 23 22  1  0
 23 24  1  6
 24 25  1  0
 25 26  1  0
 26 30  1  0
 27 26  2  0
 28 23  1  0
 29 28  1  0
 31 28  2  0
M  END
$$$$
