SQG.pdb
     RDKit          3D

 20 19  0  0  1  0  0  0  0  0999 V2000
   14.3770  -13.5807  -10.6963 O   0  0  0  0  0  0  0  0  0  0  0  0
   14.7447  -12.3408  -11.2274 C   0  0  0  0  0  0  0  0  0  0  0  0
   14.0597  -11.2858  -10.3989 C   0  0  2  0  0  0  0  0  0  0  0  0
   12.6476  -11.3868  -10.5565 N   0  0  0  0  0  0  0  0  0  0  0  0
   14.5270   -9.9149  -10.7204 C   0  0  0  0  0  0  0  0  0  0  0  0
   14.1406   -9.3002  -11.7438 O   0  0  0  0  0  0  0  0  0  0  0  0
   14.5529   -5.1654   -7.1112 N   0  0  0  0  0  0  0  0  0  0  0  0
   15.4870   -4.6981   -8.0749 C   0  0  0  0  0  0  0  0  0  0  0  0
   15.8429   -3.5040   -8.0692 O   0  0  0  0  0  0  0  0  0  0  0  0
   16.0490   -5.6138   -9.0939 C   0  0  0  0  0  0  0  0  0  0  0  0
   15.5358   -7.0145   -8.8596 C   0  0  0  0  0  0  0  0  0  0  0  0
   16.0147   -8.0012   -9.9118 C   0  0  2  0  0  0  0  0  0  0  0  0
   15.4357   -9.3035   -9.8305 N   0  0  0  0  0  0  0  0  0  0  0  0
   17.4454   -7.9541  -10.1842 C   0  0  0  0  0  0  0  0  0  0  0  0
   18.2309   -8.5028   -9.3626 O   0  0  0  0  0  0  0  0  0  0  0  0
   17.9533   -7.3137  -11.3370 N   0  0  0  0  0  0  0  0  0  0  0  0
   19.3966   -7.2110  -11.4902 C   0  0  0  0  0  0  0  0  0  0  0  0
   19.7497   -6.6251  -12.7919 C   0  0  0  0  0  0  0  0  0  0  0  0
   18.8327   -6.3839  -13.6168 O   0  0  0  0  0  0  0  0  0  0  0  0
   21.0459   -6.3263  -13.1518 O   0  0  0  0  0  0  0  0  0  0  0  0
  2  1  1  0
  3  2  1  0
  3  4  1  6
  5  6  2  0
  5  3  1  0
  7  8  1  0
  8  9  2  0
 10  8  1  0
 10 11  1  0
 12 11  1  1
 12 13  1  0
 13  5  1  0
 14 12  1  0
 14 16  1  0
 15 14  2  0
 17 16  1  0
 18 17  1  0
 19 18  2  0
 20 18  1  0
M  END
$$$$
