SQG.pdb
     RDKit          3D

 20 19  0  0  1  0  0  0  0  0999 V2000
   15.2496  -11.6663  -12.1832 O   0  0  0  0  0  0  0  0  0  0  0  0
   14.5198  -11.5941  -10.9928 C   0  0  0  0  0  0  0  0  0  0  0  0
   13.5834  -10.4213  -11.1204 C   0  0  2  0  0  0  0  0  0  0  0  0
   12.8059  -10.5486  -12.3072 N   0  0  0  0  0  0  0  0  0  0  0  0
   14.2931   -9.1186  -11.0951 C   0  0  0  0  0  0  0  0  0  0  0  0
   14.0907   -8.2308  -11.9584 O   0  0  0  0  0  0  0  0  0  0  0  0
   13.6117   -8.7012   -8.1233 N   0  0  0  0  0  0  0  0  0  0  0  0
   13.5427   -7.3180   -7.8041 C   0  0  0  0  0  0  0  0  0  0  0  0
   12.4727   -6.8255   -7.3978 O   0  0  0  0  0  0  0  0  0  0  0  0
   14.7303   -6.4454   -7.9474 C   0  0  0  0  0  0  0  0  0  0  0  0
   15.9372   -7.2806   -8.3026 C   0  0  0  0  0  0  0  0  0  0  0  0
   15.9518   -7.7040   -9.7623 C   0  0  2  0  0  0  0  0  0  0  0  0
   15.2213   -8.8948  -10.0560 N   0  0  0  0  0  0  0  0  0  0  0  0
   17.2436   -7.5679  -10.4226 C   0  0  0  0  0  0  0  0  0  0  0  0
   17.9148   -6.5189  -10.2175 O   0  0  0  0  0  0  0  0  0  0  0  0
   17.7440   -8.5792  -11.2736 N   0  0  0  0  0  0  0  0  0  0  0  0
   19.0792   -8.4161  -11.8283 C   0  0  0  0  0  0  0  0  0  0  0  0
   19.0527   -7.5689  -13.0300 C   0  0  0  0  0  0  0  0  0  0  0  0
   17.9617   -7.0568  -13.3865 O   0  0  0  0  0  0  0  0  0  0  0  0
   20.1738   -7.3085  -13.7877 O   0  0  0  0  0  0  0  0  0  0  0  0
  2  1  1  0
  3  2  1  0
  3  4  1  6
  5  6  2  0
  5  3  1  0
  7  8  1  0
  8  9  2  0
 10  8  1  0
 10 11  1  0
 12 11  1  1
 12 13  1  0
 13  5  1  0
 14 12  1  0
 14 16  1  0
 15 14  2  0
 17 16  1  0
 18 17  1  0
 19 18  2  0
 20 18  1  0
M  END
$$$$
