SQG.pdb
     RDKit          3D

 20 19  0  0  1  0  0  0  0  0999 V2000
   16.8440   -8.6040  -15.9457 O   0  0  0  0  0  0  0  0  0  0  0  0
   17.7794   -9.0373  -16.8901 C   0  0  0  0  0  0  0  0  0  0  0  0
   18.5118  -10.2043  -16.2817 C   0  0  2  0  0  0  0  0  0  0  0  0
   17.5845  -11.2232  -15.9196 N   0  0  0  0  0  0  0  0  0  0  0  0
   19.3424   -9.8124  -15.1164 C   0  0  0  0  0  0  0  0  0  0  0  0
   18.9503   -9.9666  -13.9345 O   0  0  0  0  0  0  0  0  0  0  0  0
   23.8699  -10.8085  -16.8580 N   0  0  0  0  0  0  0  0  0  0  0  0
   23.4290  -11.6070  -15.7681 C   0  0  0  0  0  0  0  0  0  0  0  0
   23.4262  -12.8491  -15.8673 O   0  0  0  0  0  0  0  0  0  0  0  0
   22.9691  -10.9828  -14.5066 C   0  0  0  0  0  0  0  0  0  0  0  0
   22.9808   -9.4793  -14.6475 C   0  0  0  0  0  0  0  0  0  0  0  0
   21.6111   -8.8566  -14.4319 C   0  0  2  0  0  0  0  0  0  0  0  0
   20.6112   -9.2499  -15.3718 N   0  0  0  0  0  0  0  0  0  0  0  0
   21.6339   -7.4435  -14.0773 C   0  0  0  0  0  0  0  0  0  0  0  0
   22.3408   -7.0825  -13.0960 O   0  0  0  0  0  0  0  0  0  0  0  0
   20.8876   -6.4907  -14.8070 N   0  0  0  0  0  0  0  0  0  0  0  0
   20.9383   -5.1006  -14.3802 C   0  0  0  0  0  0  0  0  0  0  0  0
   21.9790   -4.3611  -15.1101 C   0  0  0  0  0  0  0  0  0  0  0  0
   22.0959   -3.1254  -14.9127 O   0  0  0  0  0  0  0  0  0  0  0  0
   22.8367   -4.9626  -16.0054 O   0  0  0  0  0  0  0  0  0  0  0  0
  2  1  1  0
  3  2  1  0
  3  4  1  1
  5  6  2  0
  5  3  1  0
  7  8  1  0
  8  9  2  0
 10  8  1  0
 10 11  1  0
 12 11  1  6
 12 13  1  0
 13  5  1  0
 14 12  1  0
 14 16  1  0
 15 14  2  0
 17 16  1  0
 18 17  1  0
 19 18  2  0
 20 18  1  0
M  END
$$$$
