SQG.pdb
     RDKit          3D

 20 19  0  0  1  0  0  0  0  0999 V2000
   12.4877  -10.5736   -8.8776 O   0  0  0  0  0  0  0  0  0  0  0  0
   12.1907   -9.3597   -8.2509 C   0  0  0  0  0  0  0  0  0  0  0  0
   11.6386   -8.4408   -9.3090 C   0  0  2  0  0  0  0  0  0  0  0  0
   10.9123   -9.1949  -10.2749 N   0  0  0  0  0  0  0  0  0  0  0  0
   12.6916   -7.6256   -9.9631 C   0  0  0  0  0  0  0  0  0  0  0  0
   12.6152   -7.2763  -11.1659 O   0  0  0  0  0  0  0  0  0  0  0  0
   13.2781   -1.8642   -8.2076 N   0  0  0  0  0  0  0  0  0  0  0  0
   14.1248   -2.9997   -8.0915 C   0  0  0  0  0  0  0  0  0  0  0  0
   15.0314   -3.0157   -7.2368 O   0  0  0  0  0  0  0  0  0  0  0  0
   13.9465   -4.1736   -8.9762 C   0  0  0  0  0  0  0  0  0  0  0  0
   15.0810   -5.1478   -8.7661 C   0  0  0  0  0  0  0  0  0  0  0  0
   14.9141   -6.4283   -9.5677 C   0  0  2  0  0  0  0  0  0  0  0  0
   13.8057   -7.2430   -9.1860 N   0  0  0  0  0  0  0  0  0  0  0  0
   16.1566   -7.1337   -9.8539 C   0  0  0  0  0  0  0  0  0  0  0  0
   17.1506   -6.4627  -10.2471 O   0  0  0  0  0  0  0  0  0  0  0  0
   16.2590   -8.5346   -9.6980 N   0  0  0  0  0  0  0  0  0  0  0  0
   17.5267   -9.1736  -10.0168 C   0  0  0  0  0  0  0  0  0  0  0  0
   17.6449   -9.4218  -11.4615 C   0  0  0  0  0  0  0  0  0  0  0  0
   16.7187   -9.0394  -12.2199 O   0  0  0  0  0  0  0  0  0  0  0  0
   18.7296  -10.0574  -12.0258 O   0  0  0  0  0  0  0  0  0  0  0  0
  2  1  1  0
  3  2  1  0
  3  4  1  6
  5  6  2  0
  5  3  1  0
  7  8  1  0
  8  9  2  0
 10  8  1  0
 10 11  1  0
 12 11  1  1
 12 13  1  0
 13  5  1  0
 14 12  1  0
 14 16  1  0
 15 14  2  0
 17 16  1  0
 18 17  1  0
 19 18  2  0
 20 18  1  0
M  END
$$$$
