SQG.pdb
     RDKit          3D

 20 19  0  0  1  0  0  0  0  0999 V2000
   16.6305  -11.4999  -17.4226 O   0  0  0  0  0  0  0  0  0  0  0  0
   16.8849  -10.2487  -16.8530 C   0  0  0  0  0  0  0  0  0  0  0  0
   17.9163  -10.4565  -15.7752 C   0  0  2  0  0  0  0  0  0  0  0  0
   17.3458  -11.1853  -14.6923 N   0  0  0  0  0  0  0  0  0  0  0  0
   18.5070   -9.1823  -15.2969 C   0  0  0  0  0  0  0  0  0  0  0  0
   17.9367   -8.4605  -14.4435 O   0  0  0  0  0  0  0  0  0  0  0  0
   21.4257   -6.7474  -12.7943 N   0  0  0  0  0  0  0  0  0  0  0  0
   22.2853   -5.9812  -13.6272 C   0  0  0  0  0  0  0  0  0  0  0  0
   22.7490   -4.9000  -13.2165 O   0  0  0  0  0  0  0  0  0  0  0  0
   22.6422   -6.4498  -14.9857 C   0  0  0  0  0  0  0  0  0  0  0  0
   21.9451   -7.7580  -15.2737 C   0  0  0  0  0  0  0  0  0  0  0  0
   20.4731   -7.5802  -15.6080 C   0  0  2  0  0  0  0  0  0  0  0  0
   19.7518   -8.7912  -15.8344 N   0  0  0  0  0  0  0  0  0  0  0  0
   20.1850   -6.4844  -16.5242 C   0  0  0  0  0  0  0  0  0  0  0  0
   20.6488   -6.5446  -17.6964 O   0  0  0  0  0  0  0  0  0  0  0  0
   19.4056   -5.3761  -16.1222 N   0  0  0  0  0  0  0  0  0  0  0  0
   19.0719   -4.3694  -17.1183 C   0  0  0  0  0  0  0  0  0  0  0  0
   20.0684   -3.2880  -17.1313 C   0  0  0  0  0  0  0  0  0  0  0  0
   19.7736   -2.1858  -16.6042 O   0  0  0  0  0  0  0  0  0  0  0  0
   21.3170   -3.4269  -17.6974 O   0  0  0  0  0  0  0  0  0  0  0  0
  2  1  1  0
  3  2  1  0
  3  4  1  1
  5  6  2  0
  5  3  1  0
  7  8  1  0
  8  9  2  0
 10  8  1  0
 10 11  1  0
 12 11  1  6
 12 13  1  0
 13  5  1  0
 14 12  1  0
 14 16  1  0
 15 14  2  0
 17 16  1  0
 18 17  1  0
 19 18  2  0
 20 18  1  0
M  END
$$$$
