SQG.pdb
     RDKit          3D

 20 19  0  0  1  0  0  0  0  0999 V2000
   18.4935   -9.1835  -16.7557 O   0  0  0  0  0  0  0  0  0  0  0  0
   19.3222  -10.0277  -17.5010 C   0  0  0  0  0  0  0  0  0  0  0  0
   19.9604  -10.9873  -16.5312 C   0  0  2  0  0  0  0  0  0  0  0  0
   18.9530  -11.7217  -15.8420 N   0  0  0  0  0  0  0  0  0  0  0  0
   20.8662  -10.3103  -15.5707 C   0  0  0  0  0  0  0  0  0  0  0  0
   20.7858  -10.4958  -14.3323 O   0  0  0  0  0  0  0  0  0  0  0  0
   27.1951  -10.8852  -15.3314 N   0  0  0  0  0  0  0  0  0  0  0  0
   26.0788  -10.7217  -16.1956 C   0  0  0  0  0  0  0  0  0  0  0  0
   26.2357  -10.7674  -17.4309 O   0  0  0  0  0  0  0  0  0  0  0  0
   24.7215  -10.4963  -15.6485 C   0  0  0  0  0  0  0  0  0  0  0  0
   24.2968   -9.0707  -15.9087 C   0  0  0  0  0  0  0  0  0  0  0  0
   22.8976   -8.7700  -15.3970 C   0  0  2  0  0  0  0  0  0  0  0  0
   21.8418   -9.4338  -16.0917 N   0  0  0  0  0  0  0  0  0  0  0  0
   22.6602   -7.3726  -15.0590 C   0  0  0  0  0  0  0  0  0  0  0  0
   23.4615   -6.8021  -14.2683 O   0  0  0  0  0  0  0  0  0  0  0  0
   21.5636   -6.6623  -15.5977 N   0  0  0  0  0  0  0  0  0  0  0  0
   21.3332   -5.2997  -15.1426 C   0  0  0  0  0  0  0  0  0  0  0  0
   22.0736   -4.3341  -15.9685 C   0  0  0  0  0  0  0  0  0  0  0  0
   22.8063   -4.7648  -16.8943 O   0  0  0  0  0  0  0  0  0  0  0  0
   22.0014   -2.9718  -15.7740 O   0  0  0  0  0  0  0  0  0  0  0  0
  2  1  1  0
  3  2  1  0
  3  4  1  1
  5  6  2  0
  5  3  1  0
  7  8  1  0
  8  9  2  0
 10  8  1  0
 10 11  1  0
 12 11  1  6
 12 13  1  0
 13  5  1  0
 14 12  1  0
 14 16  1  0
 15 14  2  0
 17 16  1  0
 18 17  1  0
 19 18  2  0
 20 18  1  0
M  END
$$$$
