SQG.pdb
     RDKit          3D

 20 19  0  0  1  0  0  0  0  0999 V2000
   24.3738  -12.4422  -17.0611 O   0  0  0  0  0  0  0  0  0  0  0  0
   24.0994  -11.0753  -16.9561 C   0  0  0  0  0  0  0  0  0  0  0  0
   22.8473  -10.8147  -17.7516 C   0  0  2  0  0  0  0  0  0  0  0  0
   23.1244  -10.9318  -19.1440 N   0  0  0  0  0  0  0  0  0  0  0  0
   22.2410   -9.4955  -17.4463 C   0  0  0  0  0  0  0  0  0  0  0  0
   22.5498   -8.4561  -18.0777 O   0  0  0  0  0  0  0  0  0  0  0  0
   16.3924   -8.8289  -15.3715 N   0  0  0  0  0  0  0  0  0  0  0  0
   16.8958   -7.5025  -15.2869 C   0  0  0  0  0  0  0  0  0  0  0  0
   16.1106   -6.5471  -15.1337 O   0  0  0  0  0  0  0  0  0  0  0  0
   18.3492   -7.2346  -15.3785 C   0  0  0  0  0  0  0  0  0  0  0  0
   19.0826   -8.5101  -15.7180 C   0  0  0  0  0  0  0  0  0  0  0  0
   20.5725   -8.2950  -15.9283 C   0  0  2  0  0  0  0  0  0  0  0  0
   21.2883   -9.4336  -16.4070 N   0  0  0  0  0  0  0  0  0  0  0  0
   21.2293   -7.5208  -14.8830 C   0  0  0  0  0  0  0  0  0  0  0  0
   21.8154   -8.1427  -13.9542 O   0  0  0  0  0  0  0  0  0  0  0  0
   21.2180   -6.1077  -14.8982 N   0  0  0  0  0  0  0  0  0  0  0  0
   22.0051   -5.4005  -13.8994 C   0  0  0  0  0  0  0  0  0  0  0  0
   21.9757   -3.9491  -14.1339 C   0  0  0  0  0  0  0  0  0  0  0  0
   21.3246   -3.5064  -15.1135 O   0  0  0  0  0  0  0  0  0  0  0  0
   22.6319   -3.0464  -13.3255 O   0  0  0  0  0  0  0  0  0  0  0  0
  2  1  1  0
  3  2  1  0
  3  4  1  6
  5  6  2  0
  5  3  1  0
  7  8  1  0
  8  9  2  0
 10  8  1  0
 10 11  1  0
 12 11  1  1
 12 13  1  0
 13  5  1  0
 14 12  1  0
 14 16  1  0
 15 14  2  0
 17 16  1  0
 18 17  1  0
 19 18  2  0
 20 18  1  0
M  END
$$$$
