SQG.pdb
     RDKit          3D

 20 19  0  0  1  0  0  0  0  0999 V2000
   18.0711  -11.6657  -18.1559 O   0  0  0  0  0  0  0  0  0  0  0  0
   18.6090  -10.9174  -17.1045 C   0  0  0  0  0  0  0  0  0  0  0  0
   19.8709  -11.6142  -16.6679 C   0  0  2  0  0  0  0  0  0  0  0  0
   19.5638  -12.9230  -16.1968 N   0  0  0  0  0  0  0  0  0  0  0  0
   20.6196  -10.8489  -15.6408 C   0  0  0  0  0  0  0  0  0  0  0  0
   20.3424  -10.9222  -14.4192 O   0  0  0  0  0  0  0  0  0  0  0  0
   26.7056   -9.5857  -16.0322 N   0  0  0  0  0  0  0  0  0  0  0  0
   25.9900  -10.7751  -15.7271 C   0  0  0  0  0  0  0  0  0  0  0  0
   26.5809  -11.8721  -15.7179 O   0  0  0  0  0  0  0  0  0  0  0  0
   24.5427  -10.7323  -15.4177 C   0  0  0  0  0  0  0  0  0  0  0  0
   24.0199   -9.3295  -15.6157 C   0  0  0  0  0  0  0  0  0  0  0  0
   22.5406   -9.2007  -15.2912 C   0  0  2  0  0  0  0  0  0  0  0  0
   21.6737  -10.0182  -16.0773 N   0  0  0  0  0  0  0  0  0  0  0  0
   22.0870   -7.8373  -15.0489 C   0  0  0  0  0  0  0  0  0  0  0  0
   21.6505   -7.1677  -16.0256 O   0  0  0  0  0  0  0  0  0  0  0  0
   22.1289   -7.2677  -13.7562 N   0  0  0  0  0  0  0  0  0  0  0  0
   21.5912   -5.9279  -13.5746 C   0  0  0  0  0  0  0  0  0  0  0  0
   22.5404   -4.9089  -14.0469 C   0  0  0  0  0  0  0  0  0  0  0  0
   23.6267   -5.2825  -14.5568 O   0  0  0  0  0  0  0  0  0  0  0  0
   22.2936   -3.5562  -13.9564 O   0  0  0  0  0  0  0  0  0  0  0  0
  2  1  1  0
  3  2  1  0
  3  4  1  1
  5  6  2  0
  5  3  1  0
  7  8  1  0
  8  9  2  0
 10  8  1  0
 10 11  1  0
 12 11  1  6
 12 13  1  0
 13  5  1  0
 14 12  1  0
 14 16  1  0
 15 14  2  0
 17 16  1  0
 18 17  1  0
 19 18  2  0
 20 18  1  0
M  END
$$$$
