SQG.pdb
     RDKit          3D

 20 19  0  0  1  0  0  0  0  0999 V2000
   21.9509  -12.2689  -17.0462 O   0  0  0  0  0  0  0  0  0  0  0  0
   21.4832  -10.9685  -16.8349 C   0  0  0  0  0  0  0  0  0  0  0  0
   20.2381  -11.0790  -15.9946 C   0  0  2  0  0  0  0  0  0  0  0  0
   19.2109  -11.7331  -16.7337 N   0  0  0  0  0  0  0  0  0  0  0  0
   19.7683   -9.7635  -15.4943 C   0  0  0  0  0  0  0  0  0  0  0  0
   19.2176   -8.9216  -16.2441 O   0  0  0  0  0  0  0  0  0  0  0  0
   16.9181   -8.7977  -10.1145 N   0  0  0  0  0  0  0  0  0  0  0  0
   16.4027   -9.0958  -11.4049 C   0  0  0  0  0  0  0  0  0  0  0  0
   15.2286   -9.4940  -11.5297 O   0  0  0  0  0  0  0  0  0  0  0  0
   17.2441   -8.9400  -12.6133 C   0  0  0  0  0  0  0  0  0  0  0  0
   18.6519   -8.5708  -12.2106 C   0  0  0  0  0  0  0  0  0  0  0  0
   19.5568   -8.3098  -13.4036 C   0  0  2  0  0  0  0  0  0  0  0  0
   19.9586   -9.4734  -14.1264 N   0  0  0  0  0  0  0  0  0  0  0  0
   20.5924   -7.3106  -13.1750 C   0  0  0  0  0  0  0  0  0  0  0  0
   21.5824   -7.6257  -12.4584 O   0  0  0  0  0  0  0  0  0  0  0  0
   20.5024   -6.0171  -13.7372 N   0  0  0  0  0  0  0  0  0  0  0  0
   21.6581   -5.1388  -13.6364 C   0  0  0  0  0  0  0  0  0  0  0  0
   21.4285   -3.8781  -14.3578 C   0  0  0  0  0  0  0  0  0  0  0  0
   21.0337   -3.9252  -15.5500 O   0  0  0  0  0  0  0  0  0  0  0  0
   21.6268   -2.6406  -13.7849 O   0  0  0  0  0  0  0  0  0  0  0  0
  2  1  1  0
  3  2  1  0
  3  4  1  6
  5  6  2  0
  5  3  1  0
  7  8  1  0
  8  9  2  0
 10  8  1  0
 10 11  1  0
 12 11  1  1
 12 13  1  0
 13  5  1  0
 14 12  1  0
 14 16  1  0
 15 14  2  0
 17 16  1  0
 18 17  1  0
 19 18  2  0
 20 18  1  0
M  END
$$$$
