SAY.pdb
     RDKit          3D

 24 24  0  0  1  0  0  0  0  0999 V2000
   11.5100  -18.2145   20.0022 O   0  0  0  0  0  0  0  0  0  0  0  0
   10.1945  -18.2069   19.5266 C   0  0  0  0  0  0  0  0  0  0  0  0
    9.9246  -16.9520   18.7064 C   0  0  2  0  0  0  0  0  0  0  0  0
   11.1387  -16.4982   18.0617 N   0  0  0  0  0  0  0  0  0  0  0  0
    9.4607  -15.9130   19.6368 C   0  0  0  0  0  0  0  0  0  0  0  0
   10.2952  -15.1304   20.1514 O   0  0  0  0  0  0  0  0  0  0  0  0
    6.2201  -14.6272   21.0149 C   0  0  0  0  0  0  0  0  0  0  0  0
    7.7074  -14.8242   21.0455 C   0  0  2  0  0  0  0  0  0  0  0  0
    8.0887  -15.7417   19.9941 N   0  0  0  0  0  0  0  0  0  0  0  0
    8.2400  -15.2774   22.3159 C   0  0  0  0  0  0  0  0  0  0  0  0
    8.4743  -16.5105   22.4701 O   0  0  0  0  0  0  0  0  0  0  0  0
   10.8814  -15.9200   30.6435 O   0  0  0  0  0  0  0  0  0  0  0  0
   10.5021  -15.4039   29.3911 C   0  0  0  0  0  0  0  0  0  0  0  0
    9.6870  -14.3187   29.2660 C   0  0  0  0  0  0  0  0  0  0  0  0
    9.3156  -13.8131   28.0251 C   0  0  0  0  0  0  0  0  0  0  0  0
    9.8001  -14.4469   26.9040 C   0  0  0  0  0  0  0  0  0  0  0  0
    9.4185  -13.9256   25.5795 C   0  0  0  0  0  0  0  0  0  0  0  0
    8.8713  -15.0327   24.7000 C   0  0  2  0  0  0  0  0  0  0  0  0
    8.5295  -14.4449   23.4286 N   0  0  0  0  0  0  0  0  0  0  0  0
    7.6749  -15.6681   25.2796 C   0  0  0  0  0  0  0  0  0  0  0  0
    6.4032  -15.1787   25.0470 O   0  0  0  0  0  0  0  0  0  0  0  0
   10.6361  -15.5596   26.9951 C   0  0  0  0  0  0  0  0  0  0  0  0
   10.9652  -16.0091   28.2463 C   0  0  0  0  0  0  0  0  0  0  0  0
    7.8042  -16.6781   26.0033 O   0  0  0  0  0  0  0  0  0  0  0  0
  2  3  1  0
  2  1  1  0
  3  4  1  1
  5  9  1  0
  5  3  1  0
  6  5  2  0
  8  7  1  1
  8 10  1  0
  8  9  1  0
 10 19  1  0
 11 10  2  0
 13 12  1  0
 14 13  2  0
 15 14  1  0
 16 22  1  0
 16 15  2  0
 17 16  1  0
 18 17  1  1
 19 18  1  0
 20 21  1  0
 20 18  1  0
 22 23  2  0
 23 13  1  0
 24 20  2  0
M  END
$$$$
