SAY.pdb
     RDKit          3D

 24 24  0  0  1  0  0  0  0  0999 V2000
    7.6126  -22.2725   20.5048 O   0  0  0  0  0  0  0  0  0  0  0  0
    8.5273  -21.6140   21.3335 C   0  0  0  0  0  0  0  0  0  0  0  0
    8.0916  -20.1758   21.5823 C   0  0  2  0  0  0  0  0  0  0  0  0
    7.4826  -19.6187   20.3930 N   0  0  0  0  0  0  0  0  0  0  0  0
    9.2991  -19.4033   21.9072 C   0  0  0  0  0  0  0  0  0  0  0  0
    9.9950  -19.7358   22.8966 O   0  0  0  0  0  0  0  0  0  0  0  0
   11.4942  -16.8334   20.3767 C   0  0  0  0  0  0  0  0  0  0  0  0
   10.8669  -17.4864   21.5733 C   0  0  2  0  0  0  0  0  0  0  0  0
    9.7321  -18.2752   21.1460 N   0  0  0  0  0  0  0  0  0  0  0  0
   10.4683  -16.5765   22.6298 C   0  0  0  0  0  0  0  0  0  0  0  0
   11.3499  -15.8442   23.1643 O   0  0  0  0  0  0  0  0  0  0  0  0
    6.0403  -11.1433   27.8356 O   0  0  0  0  0  0  0  0  0  0  0  0
    6.4150  -12.0543   26.8314 C   0  0  0  0  0  0  0  0  0  0  0  0
    5.8318  -13.2795   26.7036 C   0  0  0  0  0  0  0  0  0  0  0  0
    6.2066  -14.1758   25.7088 C   0  0  0  0  0  0  0  0  0  0  0  0
    7.2000  -13.7888   24.8390 C   0  0  0  0  0  0  0  0  0  0  0  0
    7.6108  -14.7244   23.7770 C   0  0  0  0  0  0  0  0  0  0  0  0
    8.8745  -15.4650   24.1683 C   0  0  2  0  0  0  0  0  0  0  0  0
    9.1486  -16.4286   23.1314 N   0  0  0  0  0  0  0  0  0  0  0  0
    8.7367  -16.1642   25.4580 C   0  0  0  0  0  0  0  0  0  0  0  0
    9.1674  -15.5999   26.6440 O   0  0  0  0  0  0  0  0  0  0  0  0
    7.8184  -12.5428   24.9406 C   0  0  0  0  0  0  0  0  0  0  0  0
    7.4043  -11.7052   25.9421 C   0  0  0  0  0  0  0  0  0  0  0  0
    8.2172  -17.2998   25.4897 O   0  0  0  0  0  0  0  0  0  0  0  0
  2  3  1  0
  2  1  1  0
  3  4  1  6
  5  9  1  0
  5  3  1  0
  6  5  2  0
  8  7  1  6
  8 10  1  0
  8  9  1  0
 10 19  1  0
 11 10  2  0
 13 12  1  0
 14 13  2  0
 15 14  1  0
 16 22  1  0
 16 15  2  0
 17 16  1  0
 18 17  1  6
 19 18  1  0
 20 21  1  0
 20 18  1  0
 22 23  2  0
 23 13  1  0
 24 20  2  0
M  END
$$$$
