SAY.pdb
     RDKit          3D

 24 24  0  0  1  0  0  0  0  0999 V2000
    7.8022  -19.5647   22.3160 O   0  0  0  0  0  0  0  0  0  0  0  0
    6.7474  -18.8516   21.7365 C   0  0  0  0  0  0  0  0  0  0  0  0
    7.1823  -18.2193   20.4207 C   0  0  2  0  0  0  0  0  0  0  0  0
    7.9777  -19.1515   19.6500 N   0  0  0  0  0  0  0  0  0  0  0  0
    8.0057  -17.0472   20.7501 C   0  0  0  0  0  0  0  0  0  0  0  0
    9.2554  -17.1363   20.6899 O   0  0  0  0  0  0  0  0  0  0  0  0
    7.5105  -13.3988   21.3729 C   0  0  0  0  0  0  0  0  0  0  0  0
    8.3115  -14.6658   21.4423 C   0  0  2  0  0  0  0  0  0  0  0  0
    7.4525  -15.7902   21.1417 N   0  0  0  0  0  0  0  0  0  0  0  0
    8.9982  -14.8890   22.6999 C   0  0  0  0  0  0  0  0  0  0  0  0
    9.9945  -14.1638   22.9840 O   0  0  0  0  0  0  0  0  0  0  0  0
    5.9996  -10.9507   26.9438 O   0  0  0  0  0  0  0  0  0  0  0  0
    6.6001  -12.2032   26.7218 C   0  0  0  0  0  0  0  0  0  0  0  0
    7.9180  -12.4361   26.9795 C   0  0  0  0  0  0  0  0  0  0  0  0
    8.5060  -13.6765   26.7579 C   0  0  0  0  0  0  0  0  0  0  0  0
    7.7099  -14.6834   26.2624 C   0  0  0  0  0  0  0  0  0  0  0  0
    8.3144  -16.0058   26.0215 C   0  0  0  0  0  0  0  0  0  0  0  0
    9.3532  -15.9326   24.9197 C   0  0  2  0  0  0  0  0  0  0  0  0
    8.6470  -15.8698   23.6642 N   0  0  0  0  0  0  0  0  0  0  0  0
   10.2485  -17.1029   24.9162 C   0  0  0  0  0  0  0  0  0  0  0  0
   10.3117  -17.9706   23.8421 O   0  0  0  0  0  0  0  0  0  0  0  0
    6.3578  -14.4803   25.9873 C   0  0  0  0  0  0  0  0  0  0  0  0
    5.8383  -13.2358   26.2271 C   0  0  0  0  0  0  0  0  0  0  0  0
   10.9746  -17.3249   25.9082 O   0  0  0  0  0  0  0  0  0  0  0  0
  2  3  1  0
  2  1  1  0
  3  4  1  6
  5  9  1  0
  5  3  1  0
  6  5  2  0
  8  7  1  1
  8 10  1  0
  8  9  1  0
 10 19  1  0
 11 10  2  0
 13 12  1  0
 14 13  2  0
 15 14  1  0
 16 22  1  0
 16 15  2  0
 17 16  1  0
 18 17  1  1
 19 18  1  0
 20 21  1  0
 20 18  1  0
 22 23  2  0
 23 13  1  0
 24 20  2  0
M  END
$$$$
