SAY.pdb
     RDKit          3D

 24 24  0  0  1  0  0  0  0  0999 V2000
    6.2874  -18.4144   23.3371 O   0  0  0  0  0  0  0  0  0  0  0  0
    5.2664  -17.9741   22.4882 C   0  0  0  0  0  0  0  0  0  0  0  0
    5.7696  -17.8557   21.0553 C   0  0  2  0  0  0  0  0  0  0  0  0
    6.2052  -19.1458   20.5639 N   0  0  0  0  0  0  0  0  0  0  0  0
    6.9173  -16.9376   21.0695 C   0  0  0  0  0  0  0  0  0  0  0  0
    8.0778  -17.4012   20.9609 O   0  0  0  0  0  0  0  0  0  0  0  0
    7.4983  -13.2489   20.8925 C   0  0  0  0  0  0  0  0  0  0  0  0
    7.9428  -14.6601   21.1429 C   0  0  2  0  0  0  0  0  0  0  0  0
    6.7825  -15.5221   21.2024 N   0  0  0  0  0  0  0  0  0  0  0  0
    8.7587  -14.8450   22.3273 C   0  0  0  0  0  0  0  0  0  0  0  0
    9.9169  -14.3377   22.3513 O   0  0  0  0  0  0  0  0  0  0  0  0
    5.9805  -10.6873   26.9267 O   0  0  0  0  0  0  0  0  0  0  0  0
    6.6007  -11.9224   26.6649 C   0  0  0  0  0  0  0  0  0  0  0  0
    7.9556  -12.0620   26.6147 C   0  0  0  0  0  0  0  0  0  0  0  0
    8.5629  -13.2858   26.3555 C   0  0  0  0  0  0  0  0  0  0  0  0
    7.7474  -14.3742   26.1468 C   0  0  0  0  0  0  0  0  0  0  0  0
    8.3720  -15.6803   25.8714 C   0  0  0  0  0  0  0  0  0  0  0  0
    9.2447  -15.6118   24.6335 C   0  0  2  0  0  0  0  0  0  0  0  0
    8.3682  -15.5599   23.4899 N   0  0  0  0  0  0  0  0  0  0  0  0
   10.1352  -16.7794   24.5114 C   0  0  0  0  0  0  0  0  0  0  0  0
   11.1371  -17.0327   25.4294 O   0  0  0  0  0  0  0  0  0  0  0  0
    6.3574  -14.2675   26.1908 C   0  0  0  0  0  0  0  0  0  0  0  0
    5.8205  -13.0345   26.4507 C   0  0  0  0  0  0  0  0  0  0  0  0
    9.9878  -17.5680   23.5538 O   0  0  0  0  0  0  0  0  0  0  0  0
  2  3  1  0
  2  1  1  0
  3  4  1  1
  5  9  1  0
  5  3  1  0
  6  5  2  0
  8  7  1  1
  8 10  1  0
  8  9  1  0
 10 19  1  0
 11 10  2  0
 13 12  1  0
 14 13  2  0
 15 14  1  0
 16 22  1  0
 16 15  2  0
 17 16  1  0
 18 17  1  1
 19 18  1  0
 20 21  1  0
 20 18  1  0
 22 23  2  0
 23 13  1  0
 24 20  2  0
M  END
$$$$
