SAY.pdb
     RDKit          3D

 24 24  0  0  1  0  0  0  0  0999 V2000
   10.0250  -12.6628   20.5230 O   0  0  0  0  0  0  0  0  0  0  0  0
    8.8005  -12.5045   19.8655 C   0  0  0  0  0  0  0  0  0  0  0  0
    8.3232  -13.8304   19.2874 C   0  0  2  0  0  0  0  0  0  0  0  0
    7.0746  -13.6522   18.5768 N   0  0  0  0  0  0  0  0  0  0  0  0
    8.1039  -14.7458   20.4163 C   0  0  0  0  0  0  0  0  0  0  0  0
    7.0188  -14.7001   21.0441 O   0  0  0  0  0  0  0  0  0  0  0  0
    9.2676  -18.0276   21.4179 C   0  0  0  0  0  0  0  0  0  0  0  0
    8.7453  -16.6890   21.8504 C   0  0  2  0  0  0  0  0  0  0  0  0
    9.0743  -15.7014   20.8458 N   0  0  0  0  0  0  0  0  0  0  0  0
    9.2034  -16.2433   23.1521 C   0  0  0  0  0  0  0  0  0  0  0  0
   10.1885  -15.4525   23.2104 O   0  0  0  0  0  0  0  0  0  0  0  0
    6.0853  -10.7646   25.9707 O   0  0  0  0  0  0  0  0  0  0  0  0
    6.6285  -12.0500   26.1477 C   0  0  0  0  0  0  0  0  0  0  0  0
    7.8602  -12.2522   26.6949 C   0  0  0  0  0  0  0  0  0  0  0  0
    8.3919  -13.5255   26.8673 C   0  0  0  0  0  0  0  0  0  0  0  0
    7.6297  -14.5979   26.4643 C   0  0  0  0  0  0  0  0  0  0  0  0
    8.1753  -15.9556   26.6395 C   0  0  0  0  0  0  0  0  0  0  0  0
    9.2719  -16.2319   25.6296 C   0  0  2  0  0  0  0  0  0  0  0  0
    8.6346  -16.6219   24.3964 N   0  0  0  0  0  0  0  0  0  0  0  0
   10.1796  -17.3062   26.0690 C   0  0  0  0  0  0  0  0  0  0  0  0
   11.1064  -17.1125   27.0761 O   0  0  0  0  0  0  0  0  0  0  0  0
    6.3655  -14.4276   25.9006 C   0  0  0  0  0  0  0  0  0  0  0  0
    5.8981  -13.1481   25.7576 C   0  0  0  0  0  0  0  0  0  0  0  0
   10.1168  -18.4271   25.5212 O   0  0  0  0  0  0  0  0  0  0  0  0
  2  3  1  0
  2  1  1  0
  3  4  1  1
  5  9  1  0
  5  3  1  0
  6  5  2  0
  8  7  1  6
  8 10  1  0
  8  9  1  0
 10 19  1  0
 11 10  2  0
 13 12  1  0
 14 13  2  0
 15 14  1  0
 16 22  1  0
 16 15  2  0
 17 16  1  0
 18 17  1  1
 19 18  1  0
 20 21  1  0
 20 18  1  0
 22 23  2  0
 23 13  1  0
 24 20  2  0
M  END
$$$$
