SAY.pdb
     RDKit          3D

 24 24  0  0  1  0  0  0  0  0999 V2000
    5.9500  -15.6076   21.1681 O   0  0  0  0  0  0  0  0  0  0  0  0
    6.8580  -15.2031   20.1839 C   0  0  0  0  0  0  0  0  0  0  0  0
    7.6703  -16.3887   19.6791 C   0  0  2  0  0  0  0  0  0  0  0  0
    6.7967  -17.4906   19.3349 N   0  0  0  0  0  0  0  0  0  0  0  0
    8.5588  -16.8071   20.7726 C   0  0  0  0  0  0  0  0  0  0  0  0
    8.1914  -17.7216   21.5487 O   0  0  0  0  0  0  0  0  0  0  0  0
   12.1478  -16.5124   21.6079 C   0  0  0  0  0  0  0  0  0  0  0  0
   10.7246  -16.7533   22.0178 C   0  0  2  0  0  0  0  0  0  0  0  0
    9.8398  -16.2202   21.0051 N   0  0  0  0  0  0  0  0  0  0  0  0
   10.3635  -16.2252   23.3192 C   0  0  0  0  0  0  0  0  0  0  0  0
   10.1087  -14.9909   23.4234 O   0  0  0  0  0  0  0  0  0  0  0  0
    6.4193  -11.0330   26.1881 O   0  0  0  0  0  0  0  0  0  0  0  0
    6.8973  -12.3528   26.0960 C   0  0  0  0  0  0  0  0  0  0  0  0
    7.3173  -13.0541   27.1865 C   0  0  0  0  0  0  0  0  0  0  0  0
    7.7889  -14.3586   27.0890 C   0  0  0  0  0  0  0  0  0  0  0  0
    7.8222  -14.9361   25.8406 C   0  0  0  0  0  0  0  0  0  0  0  0
    8.3180  -16.3184   25.7166 C   0  0  0  0  0  0  0  0  0  0  0  0
    9.8335  -16.3529   25.7369 C   0  0  2  0  0  0  0  0  0  0  0  0
   10.2673  -16.9837   24.5152 N   0  0  0  0  0  0  0  0  0  0  0  0
   10.3606  -17.1072   26.8877 C   0  0  0  0  0  0  0  0  0  0  0  0
   11.0332  -18.3044   26.7297 O   0  0  0  0  0  0  0  0  0  0  0  0
    7.4003  -14.2477   24.7033 C   0  0  0  0  0  0  0  0  0  0  0  0
    6.9465  -12.9656   24.8658 C   0  0  0  0  0  0  0  0  0  0  0  0
   10.1993  -16.6594   28.0428 O   0  0  0  0  0  0  0  0  0  0  0  0
  2  3  1  0
  2  1  1  0
  3  4  1  1
  5  9  1  0
  5  3  1  0
  6  5  2  0
  8  7  1  6
  8 10  1  0
  8  9  1  0
 10 19  1  0
 11 10  2  0
 13 12  1  0
 14 13  2  0
 15 14  1  0
 16 22  1  0
 16 15  2  0
 17 16  1  0
 18 17  1  1
 19 18  1  0
 20 21  1  0
 20 18  1  0
 22 23  2  0
 23 13  1  0
 24 20  2  0
M  END
$$$$
