SAY.pdb
     RDKit          3D

 24 24  0  0  1  0  0  0  0  0999 V2000
    8.2152  -19.3884   20.7251 O   0  0  0  0  0  0  0  0  0  0  0  0
    7.0924  -18.8169   20.1172 C   0  0  0  0  0  0  0  0  0  0  0  0
    7.5053  -17.7197   19.1446 C   0  0  2  0  0  0  0  0  0  0  0  0
    8.4914  -18.2178   18.2091 N   0  0  0  0  0  0  0  0  0  0  0  0
    8.1032  -16.6356   19.9368 C   0  0  0  0  0  0  0  0  0  0  0  0
    9.3380  -16.6435   20.1577 O   0  0  0  0  0  0  0  0  0  0  0  0
    6.9904  -13.4047   21.4930 C   0  0  0  0  0  0  0  0  0  0  0  0
    7.9941  -14.4799   21.1957 C   0  0  2  0  0  0  0  0  0  0  0  0
    7.3434  -15.5546   20.4786 N   0  0  0  0  0  0  0  0  0  0  0  0
    8.6897  -15.0068   22.3539 C   0  0  0  0  0  0  0  0  0  0  0  0
    8.1697  -15.9698   22.9874 O   0  0  0  0  0  0  0  0  0  0  0  0
   10.3209  -15.6770   30.4894 O   0  0  0  0  0  0  0  0  0  0  0  0
   10.0131  -15.4302   29.1392 C   0  0  0  0  0  0  0  0  0  0  0  0
    9.5687  -16.4093   28.3018 C   0  0  0  0  0  0  0  0  0  0  0  0
    9.2660  -16.1592   26.9678 C   0  0  0  0  0  0  0  0  0  0  0  0
    9.4289  -14.8740   26.5041 C   0  0  0  0  0  0  0  0  0  0  0  0
    9.1126  -14.5885   25.0934 C   0  0  0  0  0  0  0  0  0  0  0  0
   10.3220  -14.8240   24.2099 C   0  0  2  0  0  0  0  0  0  0  0  0
    9.9297  -14.5300   22.8540 N   0  0  0  0  0  0  0  0  0  0  0  0
   10.8081  -16.2129   24.2854 C   0  0  0  0  0  0  0  0  0  0  0  0
   10.0472  -17.2779   23.8413 O   0  0  0  0  0  0  0  0  0  0  0  0
    9.8816  -13.8478   27.3331 C   0  0  0  0  0  0  0  0  0  0  0  0
   10.1627  -14.1586   28.6371 C   0  0  0  0  0  0  0  0  0  0  0  0
   11.9391  -16.4436   24.7633 O   0  0  0  0  0  0  0  0  0  0  0  0
  2  3  1  0
  2  1  1  0
  3  4  1  6
  5  9  1  0
  5  3  1  0
  6  5  2  0
  8  7  1  1
  8 10  1  0
  8  9  1  0
 10 19  1  0
 11 10  2  0
 13 12  1  0
 14 13  2  0
 15 14  1  0
 16 22  1  0
 16 15  2  0
 17 16  1  0
 18 17  1  1
 19 18  1  0
 20 21  1  0
 20 18  1  0
 22 23  2  0
 23 13  1  0
 24 20  2  0
M  END
$$$$
