SAY.pdb
     RDKit          3D

 24 24  0  0  1  0  0  0  0  0999 V2000
   11.3105  -16.0737   21.1129 O   0  0  0  0  0  0  0  0  0  0  0  0
   10.0239  -15.7985   21.5881 C   0  0  0  0  0  0  0  0  0  0  0  0
    9.0388  -16.8650   21.1272 C   0  0  2  0  0  0  0  0  0  0  0  0
    8.5025  -16.5293   19.8252 N   0  0  0  0  0  0  0  0  0  0  0  0
    7.9400  -16.8961   22.1029 C   0  0  0  0  0  0  0  0  0  0  0  0
    6.8754  -16.2824   21.8509 O   0  0  0  0  0  0  0  0  0  0  0  0
    6.8881  -18.9288   24.9958 C   0  0  0  0  0  0  0  0  0  0  0  0
    6.8906  -17.6269   24.2497 C   0  0  2  0  0  0  0  0  0  0  0  0
    8.0182  -17.5984   23.3439 N   0  0  0  0  0  0  0  0  0  0  0  0
    6.8959  -16.4414   25.0849 C   0  0  0  0  0  0  0  0  0  0  0  0
    6.0562  -16.3594   26.0269 O   0  0  0  0  0  0  0  0  0  0  0  0
   11.1893  -16.6760   30.3555 O   0  0  0  0  0  0  0  0  0  0  0  0
   10.6254  -15.9140   29.3162 C   0  0  0  0  0  0  0  0  0  0  0  0
    9.6075  -15.0327   29.5276 C   0  0  0  0  0  0  0  0  0  0  0  0
    9.0542  -14.2822   28.4960 C   0  0  0  0  0  0  0  0  0  0  0  0
    9.5690  -14.4537   27.2316 C   0  0  0  0  0  0  0  0  0  0  0  0
    8.9965  -13.6667   26.1249 C   0  0  0  0  0  0  0  0  0  0  0  0
    7.6117  -14.1681   25.7649 C   0  0  2  0  0  0  0  0  0  0  0  0
    7.7776  -15.3385   24.9393 N   0  0  0  0  0  0  0  0  0  0  0  0
    6.8258  -13.1616   25.0298 C   0  0  0  0  0  0  0  0  0  0  0  0
    6.6568  -13.2257   23.6594 O   0  0  0  0  0  0  0  0  0  0  0  0
   10.6102  -15.3468   26.9793 C   0  0  0  0  0  0  0  0  0  0  0  0
   11.1120  -16.0565   28.0378 C   0  0  0  0  0  0  0  0  0  0  0  0
    6.2937  -12.2199   25.6549 O   0  0  0  0  0  0  0  0  0  0  0  0
  2  3  1  0
  2  1  1  0
  3  4  1  6
  5  9  1  0
  5  3  1  0
  6  5  2  0
  8  7  1  1
  8 10  1  0
  8  9  1  0
 10 19  1  0
 11 10  2  0
 13 12  1  0
 14 13  2  0
 15 14  1  0
 16 22  1  0
 16 15  2  0
 17 16  1  0
 18 17  1  6
 19 18  1  0
 20 21  1  0
 20 18  1  0
 22 23  2  0
 23 13  1  0
 24 20  2  0
M  END
$$$$
