SAY.pdb
     RDKit          3D

 24 24  0  0  1  0  0  0  0  0999 V2000
    6.9390  -18.2835   22.4648 O   0  0  0  0  0  0  0  0  0  0  0  0
    5.8848  -17.8253   21.6676 C   0  0  0  0  0  0  0  0  0  0  0  0
    6.3621  -17.5514   20.2472 C   0  0  2  0  0  0  0  0  0  0  0  0
    7.0383  -18.7124   19.7080 N   0  0  0  0  0  0  0  0  0  0  0  0
    7.3131  -16.4327   20.3137 C   0  0  0  0  0  0  0  0  0  0  0  0
    8.5445  -16.6716   20.3267 O   0  0  0  0  0  0  0  0  0  0  0  0
    7.2125  -12.6894   20.1671 C   0  0  0  0  0  0  0  0  0  0  0  0
    7.8873  -14.0036   20.4300 C   0  0  2  0  0  0  0  0  0  0  0  0
    6.9063  -15.0648   20.3651 N   0  0  0  0  0  0  0  0  0  0  0  0
    8.6169  -14.0790   21.6809 C   0  0  0  0  0  0  0  0  0  0  0  0
    9.5466  -13.2482   21.8918 O   0  0  0  0  0  0  0  0  0  0  0  0
   10.7414  -14.8534   30.0737 O   0  0  0  0  0  0  0  0  0  0  0  0
   10.0911  -14.9128   28.8278 C   0  0  0  0  0  0  0  0  0  0  0  0
    9.9041  -16.0848   28.1578 C   0  0  0  0  0  0  0  0  0  0  0  0
    9.2604  -16.1371   26.9264 C   0  0  0  0  0  0  0  0  0  0  0  0
    8.8075  -14.9539   26.3896 C   0  0  0  0  0  0  0  0  0  0  0  0
    8.1219  -14.9884   25.0855 C   0  0  0  0  0  0  0  0  0  0  0  0
    9.1226  -14.9449   23.9474 C   0  0  2  0  0  0  0  0  0  0  0  0
    8.3782  -15.0217   22.7150 N   0  0  0  0  0  0  0  0  0  0  0  0
   10.0843  -16.0598   24.0051 C   0  0  0  0  0  0  0  0  0  0  0  0
   11.3123  -15.9332   24.6270 O   0  0  0  0  0  0  0  0  0  0  0  0
    8.9818  -13.7365   27.0476 C   0  0  0  0  0  0  0  0  0  0  0  0
    9.6237  -13.7519   28.2574 C   0  0  0  0  0  0  0  0  0  0  0  0
    9.7899  -17.1540   23.4793 O   0  0  0  0  0  0  0  0  0  0  0  0
  2  3  1  0
  2  1  1  0
  3  4  1  1
  5  9  1  0
  5  3  1  0
  6  5  2  0
  8  7  1  1
  8 10  1  0
  8  9  1  0
 10 19  1  0
 11 10  2  0
 13 12  1  0
 14 13  2  0
 15 14  1  0
 16 22  1  0
 16 15  2  0
 17 16  1  0
 18 17  1  1
 19 18  1  0
 20 21  1  0
 20 18  1  0
 22 23  2  0
 23 13  1  0
 24 20  2  0
M  END
$$$$
