SAY.pdb
     RDKit          3D

 24 24  0  0  1  0  0  0  0  0999 V2000
    9.4385  -20.4171   22.0184 O   0  0  0  0  0  0  0  0  0  0  0  0
    8.7125  -19.4582   21.3040 C   0  0  0  0  0  0  0  0  0  0  0  0
    9.3683  -19.1774   19.9582 C   0  0  2  0  0  0  0  0  0  0  0  0
    9.6721  -20.4169   19.2750 N   0  0  0  0  0  0  0  0  0  0  0  0
   10.6226  -18.4589   20.2245 C   0  0  0  0  0  0  0  0  0  0  0  0
   11.7007  -19.0985   20.2698 O   0  0  0  0  0  0  0  0  0  0  0  0
   12.1662  -15.3940   19.5216 C   0  0  0  0  0  0  0  0  0  0  0  0
   11.9540  -16.3835   20.6296 C   0  0  2  0  0  0  0  0  0  0  0  0
   10.6835  -17.0483   20.4386 N   0  0  0  0  0  0  0  0  0  0  0  0
   12.0277  -15.8305   21.9681 C   0  0  0  0  0  0  0  0  0  0  0  0
   11.1187  -15.0375   22.3475 O   0  0  0  0  0  0  0  0  0  0  0  0
   10.8825  -14.7088   30.2025 O   0  0  0  0  0  0  0  0  0  0  0  0
   11.0815  -15.1108   28.8692 C   0  0  0  0  0  0  0  0  0  0  0  0
   11.6790  -16.2921   28.5451 C   0  0  0  0  0  0  0  0  0  0  0  0
   11.8729  -16.6840   27.2251 C   0  0  0  0  0  0  0  0  0  0  0  0
   11.4387  -15.8339   26.2341 C   0  0  0  0  0  0  0  0  0  0  0  0
   11.6344  -16.2317   24.8287 C   0  0  0  0  0  0  0  0  0  0  0  0
   12.9168  -15.6433   24.2739 C   0  0  2  0  0  0  0  0  0  0  0  0
   13.0501  -16.1038   22.9142 N   0  0  0  0  0  0  0  0  0  0  0  0
   14.1019  -16.0566   25.0459 C   0  0  0  0  0  0  0  0  0  0  0  0
   14.7098  -15.2140   25.9574 O   0  0  0  0  0  0  0  0  0  0  0  0
   10.8235  -14.6176   26.5297 C   0  0  0  0  0  0  0  0  0  0  0  0
   10.6617  -14.2890   27.8495 C   0  0  0  0  0  0  0  0  0  0  0  0
   14.5776  -17.1995   24.8779 O   0  0  0  0  0  0  0  0  0  0  0  0
  2  3  1  0
  2  1  1  0
  3  4  1  1
  5  9  1  0
  5  3  1  0
  6  5  2  0
  8  7  1  6
  8 10  1  0
  8  9  1  0
 10 19  1  0
 11 10  2  0
 13 12  1  0
 14 13  2  0
 15 14  1  0
 16 22  1  0
 16 15  2  0
 17 16  1  0
 18 17  1  1
 19 18  1  0
 20 21  1  0
 20 18  1  0
 22 23  2  0
 23 13  1  0
 24 20  2  0
M  END
$$$$
