SAY.pdb
     RDKit          3D

 24 24  0  0  1  0  0  0  0  0999 V2000
    7.7801  -14.1556   16.4114 O   0  0  0  0  0  0  0  0  0  0  0  0
    7.8208  -14.0390   17.8048 C   0  0  0  0  0  0  0  0  0  0  0  0
    8.8861  -14.9559   18.3920 C   0  0  2  0  0  0  0  0  0  0  0  0
    8.9786  -16.1801   17.6249 N   0  0  0  0  0  0  0  0  0  0  0  0
    8.4737  -15.2822   19.7646 C   0  0  0  0  0  0  0  0  0  0  0  0
    8.2715  -14.3539   20.5837 O   0  0  0  0  0  0  0  0  0  0  0  0
    7.4740  -18.3193   21.7190 C   0  0  0  0  0  0  0  0  0  0  0  0
    7.8914  -16.8836   21.5922 C   0  0  2  0  0  0  0  0  0  0  0  0
    8.2869  -16.6207   20.2258 N   0  0  0  0  0  0  0  0  0  0  0  0
    8.9422  -16.4679   22.5010 C   0  0  0  0  0  0  0  0  0  0  0  0
   10.1379  -16.4747   22.0893 O   0  0  0  0  0  0  0  0  0  0  0  0
    5.3763  -12.3448   27.5647 O   0  0  0  0  0  0  0  0  0  0  0  0
    6.4994  -12.8141   26.8596 C   0  0  0  0  0  0  0  0  0  0  0  0
    6.4680  -13.0625   25.5199 C   0  0  0  0  0  0  0  0  0  0  0  0
    7.5816  -13.5264   24.8283 C   0  0  0  0  0  0  0  0  0  0  0  0
    8.7393  -13.7327   25.5428 C   0  0  0  0  0  0  0  0  0  0  0  0
    9.9308  -14.2233   24.8278 C   0  0  0  0  0  0  0  0  0  0  0  0
    9.8848  -15.7306   24.6714 C   0  0  2  0  0  0  0  0  0  0  0  0
    8.7480  -16.0439   23.8418 N   0  0  0  0  0  0  0  0  0  0  0  0
    9.7489  -16.4235   25.9647 C   0  0  0  0  0  0  0  0  0  0  0  0
   10.7438  -16.3818   26.9233 O   0  0  0  0  0  0  0  0  0  0  0  0
    8.8070  -13.4890   26.9144 C   0  0  0  0  0  0  0  0  0  0  0  0
    7.6757  -13.0330   27.5377 C   0  0  0  0  0  0  0  0  0  0  0  0
    8.7083  -17.0696   26.2101 O   0  0  0  0  0  0  0  0  0  0  0  0
  2  3  1  0
  2  1  1  0
  3  4  1  6
  5  9  1  0
  5  3  1  0
  6  5  2  0
  8  7  1  6
  8 10  1  0
  8  9  1  0
 10 19  1  0
 11 10  2  0
 13 12  1  0
 14 13  2  0
 15 14  1  0
 16 22  1  0
 16 15  2  0
 17 16  1  0
 18 17  1  1
 19 18  1  0
 20 21  1  0
 20 18  1  0
 22 23  2  0
 23 13  1  0
 24 20  2  0
M  END
$$$$
