SAY.pdb
     RDKit          3D

 24 24  0  0  1  0  0  0  0  0999 V2000
    7.3569  -19.0695   22.0401 O   0  0  0  0  0  0  0  0  0  0  0  0
    6.3242  -18.4401   21.3371 C   0  0  0  0  0  0  0  0  0  0  0  0
    6.8482  -17.8223   20.0471 C   0  0  2  0  0  0  0  0  0  0  0  0
    7.6624  -18.7760   19.3237 N   0  0  0  0  0  0  0  0  0  0  0  0
    7.6805  -16.6700   20.4208 C   0  0  0  0  0  0  0  0  0  0  0  0
    8.9250  -16.8084   20.4967 O   0  0  0  0  0  0  0  0  0  0  0  0
    7.3350  -12.9836   20.6678 C   0  0  0  0  0  0  0  0  0  0  0  0
    8.0125  -14.2709   21.0358 C   0  0  2  0  0  0  0  0  0  0  0  0
    7.1421  -15.3788   20.7075 N   0  0  0  0  0  0  0  0  0  0  0  0
    8.4366  -14.3671   22.4192 C   0  0  0  0  0  0  0  0  0  0  0  0
    8.1077  -13.4453   23.2199 O   0  0  0  0  0  0  0  0  0  0  0  0
    6.3638  -10.6185   27.0470 O   0  0  0  0  0  0  0  0  0  0  0  0
    6.8117  -11.8608   26.5623 C   0  0  0  0  0  0  0  0  0  0  0  0
    8.0516  -12.3503   26.8462 C   0  0  0  0  0  0  0  0  0  0  0  0
    8.4887  -13.5792   26.3640 C   0  0  0  0  0  0  0  0  0  0  0  0
    7.6225  -14.3037   25.5779 C   0  0  0  0  0  0  0  0  0  0  0  0
    8.0669  -15.6090   25.0578 C   0  0  0  0  0  0  0  0  0  0  0  0
    9.4249  -15.4924   24.3939 C   0  0  2  0  0  0  0  0  0  0  0  0
    9.2052  -15.4257   22.9705 N   0  0  0  0  0  0  0  0  0  0  0  0
   10.2970  -16.6405   24.6982 C   0  0  0  0  0  0  0  0  0  0  0  0
   10.6767  -17.5467   23.7260 O   0  0  0  0  0  0  0  0  0  0  0  0
    6.3468  -13.8332   25.2674 C   0  0  0  0  0  0  0  0  0  0  0  0
    5.9758  -12.6155   25.7730 C   0  0  0  0  0  0  0  0  0  0  0  0
   10.7093  -16.8075   25.8656 O   0  0  0  0  0  0  0  0  0  0  0  0
  2  3  1  0
  2  1  1  0
  3  4  1  1
  5  9  1  0
  5  3  1  0
  6  5  2  0
  8  7  1  1
  8 10  1  0
  8  9  1  0
 10 19  1  0
 11 10  2  0
 13 12  1  0
 14 13  2  0
 15 14  1  0
 16 22  1  0
 16 15  2  0
 17 16  1  0
 18 17  1  1
 19 18  1  0
 20 21  1  0
 20 18  1  0
 22 23  2  0
 23 13  1  0
 24 20  2  0
M  END
$$$$
