SAY.pdb
     RDKit          3D

 24 24  0  0  1  0  0  0  0  0999 V2000
    8.3622  -16.9009   14.8505 O   0  0  0  0  0  0  0  0  0  0  0  0
    7.3533  -15.9322   14.8290 C   0  0  0  0  0  0  0  0  0  0  0  0
    7.9494  -14.5312   14.8763 C   0  0  2  0  0  0  0  0  0  0  0  0
    8.9927  -14.3916   13.8826 N   0  0  0  0  0  0  0  0  0  0  0  0
    8.5348  -14.3502   16.2123 C   0  0  0  0  0  0  0  0  0  0  0  0
    9.7283  -14.6808   16.4113 O   0  0  0  0  0  0  0  0  0  0  0  0
    7.5083  -12.9276   19.5316 C   0  0  0  0  0  0  0  0  0  0  0  0
    8.4216  -13.6945   18.6209 C   0  0  2  0  0  0  0  0  0  0  0  0
    7.8077  -13.8092   17.3160 N   0  0  0  0  0  0  0  0  0  0  0  0
    8.8088  -15.0061   19.1033 C   0  0  0  0  0  0  0  0  0  0  0  0
    8.3873  -16.0274   18.4882 O   0  0  0  0  0  0  0  0  0  0  0  0
   17.2007  -15.0588   18.6432 O   0  0  0  0  0  0  0  0  0  0  0  0
   15.8230  -14.8603   18.8465 C   0  0  0  0  0  0  0  0  0  0  0  0
   15.3399  -14.0617   19.8397 C   0  0  0  0  0  0  0  0  0  0  0  0
   13.9767  -13.8695   20.0356 C   0  0  0  0  0  0  0  0  0  0  0  0
   13.1098  -14.5175   19.1862 C   0  0  0  0  0  0  0  0  0  0  0  0
   11.6611  -14.3259   19.3770 C   0  0  0  0  0  0  0  0  0  0  0  0
   11.0392  -15.5365   20.0450 C   0  0  2  0  0  0  0  0  0  0  0  0
    9.6371  -15.2552   20.2289 N   0  0  0  0  0  0  0  0  0  0  0  0
   11.6519  -15.8306   21.3524 C   0  0  0  0  0  0  0  0  0  0  0  0
   11.3746  -15.0740   22.4755 O   0  0  0  0  0  0  0  0  0  0  0  0
   13.5693  -15.3422   18.1595 C   0  0  0  0  0  0  0  0  0  0  0  0
   14.9236  -15.4906   18.0187 C   0  0  0  0  0  0  0  0  0  0  0  0
   12.4460  -16.7892   21.4580 O   0  0  0  0  0  0  0  0  0  0  0  0
  2  3  1  0
  2  1  1  0
  3  4  1  6
  5  9  1  0
  5  3  1  0
  6  5  2  0
  8  7  1  1
  8 10  1  0
  8  9  1  0
 10 19  1  0
 11 10  2  0
 13 12  1  0
 14 13  2  0
 15 14  1  0
 16 22  1  0
 16 15  2  0
 17 16  1  0
 18 17  1  1
 19 18  1  0
 20 21  1  0
 20 18  1  0
 22 23  2  0
 23 13  1  0
 24 20  2  0
M  END
$$$$
