SAY.pdb
     RDKit          3D

 24 24  0  0  1  0  0  0  0  0999 V2000
    9.2724  -15.9837   18.2965 O   0  0  0  0  0  0  0  0  0  0  0  0
   10.4766  -16.6108   17.9596 C   0  0  0  0  0  0  0  0  0  0  0  0
   10.3474  -18.1242   18.0748 C   0  0  2  0  0  0  0  0  0  0  0  0
    9.0349  -18.5543   17.6414 N   0  0  0  0  0  0  0  0  0  0  0  0
   10.5197  -18.4709   19.4927 C   0  0  0  0  0  0  0  0  0  0  0  0
    9.5074  -18.5995   20.2224 O   0  0  0  0  0  0  0  0  0  0  0  0
   13.1016  -20.1035   21.5215 C   0  0  0  0  0  0  0  0  0  0  0  0
   11.9059  -19.2007   21.4394 C   0  0  2  0  0  0  0  0  0  0  0  0
   11.7978  -18.6732   20.0968 N   0  0  0  0  0  0  0  0  0  0  0  0
   11.8898  -18.1153   22.4010 C   0  0  0  0  0  0  0  0  0  0  0  0
   12.3194  -16.9812   22.0428 O   0  0  0  0  0  0  0  0  0  0  0  0
   10.4521  -13.0555   29.4135 O   0  0  0  0  0  0  0  0  0  0  0  0
   10.4523  -14.1188   28.4926 C   0  0  0  0  0  0  0  0  0  0  0  0
   11.1886  -15.2495   28.6843 C   0  0  0  0  0  0  0  0  0  0  0  0
   11.1847  -16.2973   27.7702 C   0  0  0  0  0  0  0  0  0  0  0  0
   10.4043  -16.1629   26.6451 C   0  0  0  0  0  0  0  0  0  0  0  0
   10.3859  -17.2630   25.6646 C   0  0  0  0  0  0  0  0  0  0  0  0
   11.4342  -17.0474   24.5907 C   0  0  2  0  0  0  0  0  0  0  0  0
   11.4253  -18.2108   23.7391 N   0  0  0  0  0  0  0  0  0  0  0  0
   12.7837  -16.8674   25.1542 C   0  0  0  0  0  0  0  0  0  0  0  0
   13.5150  -17.9298   25.6514 O   0  0  0  0  0  0  0  0  0  0  0  0
    9.6384  -15.0199   26.4168 C   0  0  0  0  0  0  0  0  0  0  0  0
    9.6853  -14.0231   27.3551 C   0  0  0  0  0  0  0  0  0  0  0  0
   13.2891  -15.7254   25.1878 O   0  0  0  0  0  0  0  0  0  0  0  0
  2  3  1  0
  2  1  1  0
  3  4  1  1
  5  9  1  0
  5  3  1  0
  6  5  2  0
  8  7  1  6
  8 10  1  0
  8  9  1  0
 10 19  1  0
 11 10  2  0
 13 12  1  0
 14 13  2  0
 15 14  1  0
 16 22  1  0
 16 15  2  0
 17 16  1  0
 18 17  1  1
 19 18  1  0
 20 21  1  0
 20 18  1  0
 22 23  2  0
 23 13  1  0
 24 20  2  0
M  END
$$$$
