KHC.pdb
     RDKit          3D

 26 26  0  0  1  0  0  0  0  0999 V2000
   12.2977  -17.3996   16.4282 N   0  0  0  0  0  0  0  0  0  0  0  0
   11.2255  -17.8597   17.2572 C   0  0  1  0  0  0  0  0  0  0  0  0
   11.3991  -19.3118   17.6160 C   0  0  0  0  0  0  0  0  0  0  0  0
   11.4101  -20.2796   16.5077 C   0  0  0  0  0  0  0  0  0  0  0  0
   11.4588  -21.7268   16.8203 C   0  0  0  0  0  0  0  0  0  0  0  0
   11.5356  -22.6486   15.6528 C   0  0  0  0  0  0  0  0  0  0  0  0
   11.5943  -24.0262   16.0292 N   0  0  0  0  0  0  0  0  0  0  0  0
   11.1256  -17.0941   18.5255 C   0  0  0  0  0  0  0  0  0  0  0  0
   12.2031  -16.6089   18.9663 O   0  0  0  0  0  0  0  0  0  0  0  0
    9.9630  -16.8529   19.2857 N   0  0  0  0  0  0  0  0  0  0  0  0
    9.9053  -16.0846   20.4849 C   0  0  1  0  0  0  0  0  0  0  0  0
    8.5817  -15.4620   20.7858 C   0  0  0  0  0  0  0  0  0  0  0  0
    8.1739  -14.4590   19.7718 C   0  0  0  0  0  0  0  0  0  0  0  0
    8.7904  -14.0136   18.6263 C   0  0  0  0  0  0  0  0  0  0  0  0
    8.0388  -13.0804   18.0080 N   0  0  0  0  0  0  0  0  0  0  0  0
    6.9422  -12.9358   18.7668 C   0  0  0  0  0  0  0  0  0  0  0  0
    7.0049  -13.7545   19.8295 N   0  0  0  0  0  0  0  0  0  0  0  0
   10.2625  -16.9253   21.6478 C   0  0  0  0  0  0  0  0  0  0  0  0
   10.7262  -18.0703   21.4339 O   0  0  0  0  0  0  0  0  0  0  0  0
   10.1088  -16.4996   23.0071 N   0  0  0  0  0  0  0  0  0  0  0  0
   10.9701  -16.9944   24.0634 C   0  0  1  0  0  0  0  0  0  0  0  0
   12.4356  -16.6412   23.7267 C   0  0  0  0  0  0  0  0  0  0  0  0
   13.2286  -17.9811   22.8135 S   0  0  0  0  0  0  0  0  0  0  0  0
   10.6520  -16.4872   25.3952 C   0  0  0  0  0  0  0  0  0  0  0  0
   11.3446  -16.8528   26.3686 O   0  0  0  0  0  0  0  0  0  0  0  0
    9.6070  -15.6116   25.6190 O   0  0  0  0  0  0  0  0  0  0  0  0
  2  1  1  1
  2  3  1  0
  3  4  1  0
  5  4  1  0
  6  5  1  0
  7  6  1  0
  8  2  1  0
  8  9  2  0
 10  8  1  0
 11 10  1  0
 11 12  1  1
 13 14  2  0
 13 12  1  0
 15 14  1  0
 16 17  2  0
 16 15  1  0
 17 13  1  0
 18 11  1  0
 19 18  2  0
 20 18  1  0
 21 22  1  6
 21 20  1  0
 22 23  1  0
 24 21  1  0
 25 24  2  0
 26 24  1  0
M  END
$$$$
