KHC.pdb
     RDKit          3D

 26 26  0  0  1  0  0  0  0  0999 V2000
    8.0074  -18.4339   18.3220 N   0  0  0  0  0  0  0  0  0  0  0  0
    8.7839  -17.4115   17.6892 C   0  0  1  0  0  0  0  0  0  0  0  0
    7.9192  -16.5190   16.8387 C   0  0  0  0  0  0  0  0  0  0  0  0
    7.5837  -16.9992   15.4888 C   0  0  0  0  0  0  0  0  0  0  0  0
    7.9637  -16.1734   14.3192 C   0  0  0  0  0  0  0  0  0  0  0  0
    7.4225  -16.6114   13.0024 C   0  0  0  0  0  0  0  0  0  0  0  0
    7.8808  -15.8079   11.9127 N   0  0  0  0  0  0  0  0  0  0  0  0
    9.4872  -16.5488   18.6719 C   0  0  0  0  0  0  0  0  0  0  0  0
    9.9503  -15.4639   18.2255 O   0  0  0  0  0  0  0  0  0  0  0  0
    9.6922  -16.8105   20.0420 N   0  0  0  0  0  0  0  0  0  0  0  0
    9.5438  -15.8615   21.0951 C   0  0  1  0  0  0  0  0  0  0  0  0
    8.1998  -15.2183   21.1954 C   0  0  0  0  0  0  0  0  0  0  0  0
    7.9557  -14.2252   20.1208 C   0  0  0  0  0  0  0  0  0  0  0  0
    8.4977  -12.9844   19.8817 C   0  0  0  0  0  0  0  0  0  0  0  0
    7.9665  -12.4340   18.7713 N   0  0  0  0  0  0  0  0  0  0  0  0
    7.0846  -13.3317   18.3070 C   0  0  0  0  0  0  0  0  0  0  0  0
    7.0639  -14.4129   19.1032 N   0  0  0  0  0  0  0  0  0  0  0  0
    9.8163  -16.5004   22.4006 C   0  0  0  0  0  0  0  0  0  0  0  0
    8.9085  -17.1852   22.9286 O   0  0  0  0  0  0  0  0  0  0  0  0
   11.0643  -16.3801   23.0936 N   0  0  0  0  0  0  0  0  0  0  0  0
   11.5532  -17.4253   23.9717 C   0  0  1  0  0  0  0  0  0  0  0  0
   11.6854  -18.7381   23.1687 C   0  0  0  0  0  0  0  0  0  0  0  0
   12.9849  -18.6042   21.9230 S   0  0  0  0  0  0  0  0  0  0  0  0
   12.8300  -17.1306   24.6160 C   0  0  0  0  0  0  0  0  0  0  0  0
   13.4478  -16.0921   24.2988 O   0  0  0  0  0  0  0  0  0  0  0  0
   13.3825  -17.9634   25.5699 O   0  0  0  0  0  0  0  0  0  0  0  0
  2  1  1  1
  2  3  1  0
  3  4  1  0
  5  4  1  0
  6  5  1  0
  7  6  1  0
  8  2  1  0
  8  9  2  0
 10  8  1  0
 11 10  1  0
 11 12  1  1
 13 14  2  0
 13 12  1  0
 15 14  1  0
 16 17  2  0
 16 15  1  0
 17 13  1  0
 18 11  1  0
 19 18  2  0
 20 18  1  0
 21 22  1  6
 21 20  1  0
 22 23  1  0
 24 21  1  0
 25 24  2  0
 26 24  1  0
M  END
$$$$
