KHC.pdb
     RDKit          3D

 26 26  0  0  1  0  0  0  0  0999 V2000
    9.9823  -16.3872   19.3377 N   0  0  0  0  0  0  0  0  0  0  0  0
    8.8761  -16.7519   20.1694 C   0  0  1  0  0  0  0  0  0  0  0  0
    8.8018  -18.2445   20.3531 C   0  0  0  0  0  0  0  0  0  0  0  0
    9.5378  -19.0763   19.3879 C   0  0  0  0  0  0  0  0  0  0  0  0
    9.4784  -20.5506   19.5203 C   0  0  0  0  0  0  0  0  0  0  0  0
   10.1864  -21.3334   18.4693 C   0  0  0  0  0  0  0  0  0  0  0  0
   10.0947  -22.7462   18.6654 N   0  0  0  0  0  0  0  0  0  0  0  0
    8.9597  -16.1384   21.5189 C   0  0  0  0  0  0  0  0  0  0  0  0
   10.1217  -15.9629   21.9770 O   0  0  0  0  0  0  0  0  0  0  0  0
    7.8864  -15.7337   22.3388 N   0  0  0  0  0  0  0  0  0  0  0  0
    8.0107  -15.0603   23.5888 C   0  0  1  0  0  0  0  0  0  0  0  0
    6.7484  -14.4755   24.1318 C   0  0  0  0  0  0  0  0  0  0  0  0
    6.9721  -13.6470   25.3418 C   0  0  0  0  0  0  0  0  0  0  0  0
    8.1118  -13.3585   26.0549 C   0  0  0  0  0  0  0  0  0  0  0  0
    7.8339  -12.5513   27.0986 N   0  0  0  0  0  0  0  0  0  0  0  0
    6.5122  -12.3291   27.0443 C   0  0  0  0  0  0  0  0  0  0  0  0
    5.9776  -12.9780   25.9972 N   0  0  0  0  0  0  0  0  0  0  0  0
    8.5367  -15.9842   24.6167 C   0  0  0  0  0  0  0  0  0  0  0  0
    7.9382  -17.0701   24.8026 O   0  0  0  0  0  0  0  0  0  0  0  0
    9.6961  -15.7052   25.4106 N   0  0  0  0  0  0  0  0  0  0  0  0
   10.2229  -16.6694   26.3568 C   0  0  1  0  0  0  0  0  0  0  0  0
   11.7577  -16.7446   26.1989 C   0  0  0  0  0  0  0  0  0  0  0  0
   12.2128  -17.1247   24.4939 S   0  0  0  0  0  0  0  0  0  0  0  0
    9.9012  -16.3895   27.7533 C   0  0  0  0  0  0  0  0  0  0  0  0
    9.2384  -15.3681   28.0335 O   0  0  0  0  0  0  0  0  0  0  0  0
   10.3050  -17.2186   28.7820 O   0  0  0  0  0  0  0  0  0  0  0  0
  2  1  1  6
  2  3  1  0
  3  4  1  0
  5  4  1  0
  6  5  1  0
  7  6  1  0
  8  2  1  0
  8  9  2  0
 10  8  1  0
 11 10  1  0
 11 12  1  1
 13 14  2  0
 13 12  1  0
 15 14  1  0
 16 17  2  0
 16 15  1  0
 17 13  1  0
 18 11  1  0
 19 18  2  0
 20 18  1  0
 21 22  1  1
 21 20  1  0
 22 23  1  0
 24 21  1  0
 25 24  2  0
 26 24  1  0
M  END
$$$$
