KHC.pdb
     RDKit          3D

 26 26  0  0  1  0  0  0  0  0999 V2000
   10.8562  -19.4745   14.8663 N   0  0  0  0  0  0  0  0  0  0  0  0
    9.7393  -19.3316   15.7499 C   0  0  1  0  0  0  0  0  0  0  0  0
    9.5371  -20.5736   16.5770 C   0  0  0  0  0  0  0  0  0  0  0  0
    9.1399  -21.7974   15.8630 C   0  0  0  0  0  0  0  0  0  0  0  0
    8.8684  -23.0266   16.6437 C   0  0  0  0  0  0  0  0  0  0  0  0
    8.5044  -24.2376   15.8565 C   0  0  0  0  0  0  0  0  0  0  0  0
    8.2577  -25.3841   16.6736 N   0  0  0  0  0  0  0  0  0  0  0  0
    9.9046  -18.1918   16.6869 C   0  0  0  0  0  0  0  0  0  0  0  0
   11.0546  -18.0448   17.1836 O   0  0  0  0  0  0  0  0  0  0  0  0
    8.9201  -17.2620   17.0794 N   0  0  0  0  0  0  0  0  0  0  0  0
    9.0998  -16.2260   18.0417 C   0  0  1  0  0  0  0  0  0  0  0  0
    7.9488  -15.2874   18.1977 C   0  0  0  0  0  0  0  0  0  0  0  0
    8.2728  -14.1162   19.0487 C   0  0  0  0  0  0  0  0  0  0  0  0
    9.4149  -13.7696   19.7313 C   0  0  0  0  0  0  0  0  0  0  0  0
    9.2499  -12.5996   20.3808 N   0  0  0  0  0  0  0  0  0  0  0  0
    7.9973  -12.2055   20.1070 C   0  0  0  0  0  0  0  0  0  0  0  0
    7.3951  -13.1024   19.3092 N   0  0  0  0  0  0  0  0  0  0  0  0
    9.3676  -16.8077   19.3746 C   0  0  0  0  0  0  0  0  0  0  0  0
    8.7107  -17.8160   19.7263 O   0  0  0  0  0  0  0  0  0  0  0  0
   10.3401  -16.2812   20.2853 N   0  0  0  0  0  0  0  0  0  0  0  0
   10.5984  -16.9035   21.5693 C   0  0  1  0  0  0  0  0  0  0  0  0
   12.0229  -17.5008   21.5632 C   0  0  0  0  0  0  0  0  0  0  0  0
   12.4084  -18.2657   23.1521 S   0  0  0  0  0  0  0  0  0  0  0  0
   10.4615  -16.0104   22.7164 C   0  0  0  0  0  0  0  0  0  0  0  0
   10.5585  -14.7769   22.5439 O   0  0  0  0  0  0  0  0  0  0  0  0
   10.2264  -16.4832   23.9931 O   0  0  0  0  0  0  0  0  0  0  0  0
  2  1  1  1
  2  3  1  0
  3  4  1  0
  5  4  1  0
  6  5  1  0
  7  6  1  0
  8  2  1  0
  8  9  2  0
 10  8  1  0
 11 10  1  0
 11 12  1  1
 13 14  2  0
 13 12  1  0
 15 14  1  0
 16 17  2  0
 16 15  1  0
 17 13  1  0
 18 11  1  0
 19 18  2  0
 20 18  1  0
 21 22  1  6
 21 20  1  0
 22 23  1  0
 24 21  1  0
 25 24  2  0
 26 24  1  0
M  END
$$$$
