KHC.pdb
     RDKit          3D

 26 26  0  0  1  0  0  0  0  0999 V2000
    5.6352  -16.9456   21.4089 N   0  0  0  0  0  0  0  0  0  0  0  0
    7.0350  -16.6594   21.4930 C   0  0  1  0  0  0  0  0  0  0  0  0
    7.3086  -15.2004   21.2408 C   0  0  0  0  0  0  0  0  0  0  0  0
    7.8049  -14.8323   19.9053 C   0  0  0  0  0  0  0  0  0  0  0  0
    8.1014  -13.4097   19.6178 C   0  0  0  0  0  0  0  0  0  0  0  0
    8.5210  -13.0952   18.2236 C   0  0  0  0  0  0  0  0  0  0  0  0
    8.7142  -11.6970   17.9984 N   0  0  0  0  0  0  0  0  0  0  0  0
    7.6000  -16.9973   22.8239 C   0  0  0  0  0  0  0  0  0  0  0  0
    6.8725  -16.7301   23.8189 O   0  0  0  0  0  0  0  0  0  0  0  0
    8.8550  -17.5806   23.0935 N   0  0  0  0  0  0  0  0  0  0  0  0
    9.3563  -17.8986   24.3893 C   0  0  1  0  0  0  0  0  0  0  0  0
   10.5209  -18.8330   24.4160 C   0  0  0  0  0  0  0  0  0  0  0  0
   10.9904  -19.1279   25.7920 C   0  0  0  0  0  0  0  0  0  0  0  0
   10.3318  -19.6054   26.9005 C   0  0  0  0  0  0  0  0  0  0  0  0
   11.1733  -19.7174   27.9480 N   0  0  0  0  0  0  0  0  0  0  0  0
   12.3692  -19.3085   27.4988 C   0  0  0  0  0  0  0  0  0  0  0  0
   12.2796  -18.9508   26.2075 N   0  0  0  0  0  0  0  0  0  0  0  0
    9.7741  -16.6662   25.0919 C   0  0  0  0  0  0  0  0  0  0  0  0
    9.9007  -15.6138   24.4224 O   0  0  0  0  0  0  0  0  0  0  0  0
   10.0399  -16.6105   26.4985 N   0  0  0  0  0  0  0  0  0  0  0  0
   10.2129  -15.3494   27.1929 C   0  0  1  0  0  0  0  0  0  0  0  0
    8.9985  -14.4410   26.8992 C   0  0  0  0  0  0  0  0  0  0  0  0
    9.1101  -12.8956   27.8254 S   0  0  0  0  0  0  0  0  0  0  0  0
   10.3794  -15.4689   28.6386 C   0  0  0  0  0  0  0  0  0  0  0  0
   10.6979  -14.4588   29.3013 O   0  0  0  0  0  0  0  0  0  0  0  0
   10.1957  -16.6656   29.3041 O   0  0  0  0  0  0  0  0  0  0  0  0
  2  1  1  1
  2  3  1  0
  3  4  1  0
  5  4  1  0
  6  5  1  0
  7  6  1  0
  8  2  1  0
  8  9  2  0
 10  8  1  0
 11 10  1  0
 11 12  1  6
 13 14  2  0
 13 12  1  0
 15 14  1  0
 16 17  2  0
 16 15  1  0
 17 13  1  0
 18 11  1  0
 19 18  2  0
 20 18  1  0
 21 22  1  1
 21 20  1  0
 22 23  1  0
 24 21  1  0
 25 24  2  0
 26 24  1  0
M  END
$$$$
