KHC.pdb
     RDKit          3D

 26 26  0  0  1  0  0  0  0  0999 V2000
    9.1055  -18.0355   20.6969 N   0  0  0  0  0  0  0  0  0  0  0  0
    8.2228  -18.1341   21.8193 C   0  0  1  0  0  0  0  0  0  0  0  0
    8.4440  -19.4178   22.5747 C   0  0  0  0  0  0  0  0  0  0  0  0
    7.4644  -20.4958   22.3662 C   0  0  0  0  0  0  0  0  0  0  0  0
    7.6066  -21.7525   23.1375 C   0  0  0  0  0  0  0  0  0  0  0  0
    6.5637  -22.7895   22.9012 C   0  0  0  0  0  0  0  0  0  0  0  0
    6.7908  -23.9915   23.6405 N   0  0  0  0  0  0  0  0  0  0  0  0
    8.4027  -17.0142   22.7775 C   0  0  0  0  0  0  0  0  0  0  0  0
    9.5944  -16.7011   23.0467 O   0  0  0  0  0  0  0  0  0  0  0  0
    7.3907  -16.2679   23.4153 N   0  0  0  0  0  0  0  0  0  0  0  0
    7.6064  -15.2298   24.3679 C   0  0  1  0  0  0  0  0  0  0  0  0
    6.4429  -14.3244   24.6059 C   0  0  0  0  0  0  0  0  0  0  0  0
    6.6986  -13.3279   25.6746 C   0  0  0  0  0  0  0  0  0  0  0  0
    6.0279  -13.0453   26.8411 C   0  0  0  0  0  0  0  0  0  0  0  0
    6.6317  -12.0434   27.5117 N   0  0  0  0  0  0  0  0  0  0  0  0
    7.6889  -11.6916   26.7649 C   0  0  0  0  0  0  0  0  0  0  0  0
    7.7458  -12.4509   25.6587 N   0  0  0  0  0  0  0  0  0  0  0  0
    7.9802  -15.8073   25.6769 C   0  0  0  0  0  0  0  0  0  0  0  0
    7.5314  -16.9386   25.9778 O   0  0  0  0  0  0  0  0  0  0  0  0
    8.8304  -15.1431   26.6194 N   0  0  0  0  0  0  0  0  0  0  0  0
    9.3624  -15.8278   27.7816 C   0  0  1  0  0  0  0  0  0  0  0  0
   10.2924  -16.9688   27.3132 C   0  0  0  0  0  0  0  0  0  0  0  0
   11.7854  -16.3089   26.5427 S   0  0  0  0  0  0  0  0  0  0  0  0
   10.0920  -14.9705   28.7116 C   0  0  0  0  0  0  0  0  0  0  0  0
   10.4004  -15.4156   29.8375 O   0  0  0  0  0  0  0  0  0  0  0  0
   10.4562  -13.6773   28.3892 O   0  0  0  0  0  0  0  0  0  0  0  0
  2  1  1  6
  2  3  1  0
  3  4  1  0
  5  4  1  0
  6  5  1  0
  7  6  1  0
  8  2  1  0
  8  9  2  0
 10  8  1  0
 11 10  1  0
 11 12  1  1
 13 14  2  0
 13 12  1  0
 15 14  1  0
 16 17  2  0
 16 15  1  0
 17 13  1  0
 18 11  1  0
 19 18  2  0
 20 18  1  0
 21 22  1  6
 21 20  1  0
 22 23  1  0
 24 21  1  0
 25 24  2  0
 26 24  1  0
M  END
$$$$
