KHC.pdb
     RDKit          3D

 26 26  0  0  1  0  0  0  0  0999 V2000
    9.3929  -17.6226   19.6681 N   0  0  0  0  0  0  0  0  0  0  0  0
   10.3453  -17.7711   20.7261 C   0  0  1  0  0  0  0  0  0  0  0  0
   11.6931  -18.1784   20.1924 C   0  0  0  0  0  0  0  0  0  0  0  0
   11.8175  -18.3353   18.7346 C   0  0  0  0  0  0  0  0  0  0  0  0
   13.0888  -18.8499   18.1750 C   0  0  0  0  0  0  0  0  0  0  0  0
   13.1235  -19.0498   16.6993 C   0  0  0  0  0  0  0  0  0  0  0  0
   14.3895  -19.5152   16.2263 N   0  0  0  0  0  0  0  0  0  0  0  0
   10.5300  -16.5162   21.4979 C   0  0  0  0  0  0  0  0  0  0  0  0
   10.7571  -15.4770   20.8201 O   0  0  0  0  0  0  0  0  0  0  0  0
   10.4797  -16.3621   22.8984 N   0  0  0  0  0  0  0  0  0  0  0  0
    9.7541  -15.3503   23.5922 C   0  0  1  0  0  0  0  0  0  0  0  0
    8.2921  -15.2894   23.2941 C   0  0  0  0  0  0  0  0  0  0  0  0
    7.9917  -14.5681   22.0330 C   0  0  0  0  0  0  0  0  0  0  0  0
    8.5425  -13.4408   21.4706 C   0  0  0  0  0  0  0  0  0  0  0  0
    7.9432  -13.1467   20.2991 N   0  0  0  0  0  0  0  0  0  0  0  0
    7.0094  -14.0929   20.1209 C   0  0  0  0  0  0  0  0  0  0  0  0
    7.0232  -14.9548   21.1506 N   0  0  0  0  0  0  0  0  0  0  0  0
    9.8905  -15.5346   25.0531 C   0  0  0  0  0  0  0  0  0  0  0  0
    9.1314  -16.3539   25.6226 O   0  0  0  0  0  0  0  0  0  0  0  0
   10.8463  -14.8278   25.8526 N   0  0  0  0  0  0  0  0  0  0  0  0
   10.6127  -14.5546   27.2573 C   0  0  1  0  0  0  0  0  0  0  0  0
    9.5434  -13.4473   27.3850 C   0  0  0  0  0  0  0  0  0  0  0  0
    9.2673  -13.0136   29.1154 S   0  0  0  0  0  0  0  0  0  0  0  0
   10.1941  -15.7134   28.0409 C   0  0  0  0  0  0  0  0  0  0  0  0
    9.1833  -16.3564   27.6862 O   0  0  0  0  0  0  0  0  0  0  0  0
   10.8798  -16.1273   29.1665 O   0  0  0  0  0  0  0  0  0  0  0  0
  2  1  1  6
  2  3  1  0
  3  4  1  0
  5  4  1  0
  6  5  1  0
  7  6  1  0
  8  2  1  0
  8  9  2  0
 10  8  1  0
 11 10  1  0
 11 12  1  1
 13 14  2  0
 13 12  1  0
 15 14  1  0
 16 17  2  0
 16 15  1  0
 17 13  1  0
 18 11  1  0
 19 18  2  0
 20 18  1  0
 21 22  1  6
 21 20  1  0
 22 23  1  0
 24 21  1  0
 25 24  2  0
 26 24  1  0
M  END
$$$$
