KHC.pdb
     RDKit          3D

 26 26  0  0  1  0  0  0  0  0999 V2000
   11.5357  -18.3290   21.6348 N   0  0  0  0  0  0  0  0  0  0  0  0
   10.2025  -18.1333   22.1173 C   0  0  1  0  0  0  0  0  0  0  0  0
   10.0153  -18.7645   23.4715 C   0  0  0  0  0  0  0  0  0  0  0  0
   11.1992  -19.3762   24.0956 C   0  0  0  0  0  0  0  0  0  0  0  0
   11.0492  -20.0578   25.4022 C   0  0  0  0  0  0  0  0  0  0  0  0
   11.5514  -21.4583   25.4737 C   0  0  0  0  0  0  0  0  0  0  0  0
   12.4519  -21.6760   26.5622 N   0  0  0  0  0  0  0  0  0  0  0  0
    9.8539  -16.6954   22.2416 C   0  0  0  0  0  0  0  0  0  0  0  0
   10.8237  -15.8985   22.3649 O   0  0  0  0  0  0  0  0  0  0  0  0
    8.5630  -16.1283   22.2373 N   0  0  0  0  0  0  0  0  0  0  0  0
    8.2705  -14.7405   22.3785 C   0  0  1  0  0  0  0  0  0  0  0  0
    7.2172  -14.2095   21.4627 C   0  0  0  0  0  0  0  0  0  0  0  0
    7.7109  -13.9965   20.0801 C   0  0  0  0  0  0  0  0  0  0  0  0
    8.9322  -14.2403   19.4973 C   0  0  0  0  0  0  0  0  0  0  0  0
    8.9236  -13.8837   18.1970 N   0  0  0  0  0  0  0  0  0  0  0  0
    7.6909  -13.4124   17.9576 C   0  0  0  0  0  0  0  0  0  0  0  0
    6.9487  -13.4720   19.0752 N   0  0  0  0  0  0  0  0  0  0  0  0
    7.8299  -14.4492   23.7597 C   0  0  0  0  0  0  0  0  0  0  0  0
    7.0099  -15.2291   24.2993 O   0  0  0  0  0  0  0  0  0  0  0  0
    8.2924  -13.3235   24.5155 N   0  0  0  0  0  0  0  0  0  0  0  0
    7.8556  -13.0879   25.8779 C   0  0  1  0  0  0  0  0  0  0  0  0
    6.3827  -12.6228   25.8623 C   0  0  0  0  0  0  0  0  0  0  0  0
    5.7883  -12.3064   27.5371 S   0  0  0  0  0  0  0  0  0  0  0  0
    7.9813  -14.2409   26.7650 C   0  0  0  0  0  0  0  0  0  0  0  0
    7.5431  -15.3493   26.3902 O   0  0  0  0  0  0  0  0  0  0  0  0
    8.5716  -14.1501   28.0108 O   0  0  0  0  0  0  0  0  0  0  0  0
  2  1  1  1
  2  3  1  0
  3  4  1  0
  5  4  1  0
  6  5  1  0
  7  6  1  0
  8  2  1  0
  8  9  2  0
 10  8  1  0
 11 10  1  0
 11 12  1  6
 13 14  2  0
 13 12  1  0
 15 14  1  0
 16 17  2  0
 16 15  1  0
 17 13  1  0
 18 11  1  0
 19 18  2  0
 20 18  1  0
 21 22  1  6
 21 20  1  0
 22 23  1  0
 24 21  1  0
 25 24  2  0
 26 24  1  0
M  END
$$$$
