KHC.pdb
     RDKit          3D

 26 26  0  0  1  0  0  0  0  0999 V2000
   -1.8524  -23.6104   24.2099 N   0  0  0  0  0  0  0  0  0  0  0  0
   -1.9050  -22.6065   25.2287 C   0  0  1  0  0  0  0  0  0  0  0  0
   -1.3614  -21.2943   24.7287 C   0  0  0  0  0  0  0  0  0  0  0  0
   -0.4078  -21.3464   23.6093 C   0  0  0  0  0  0  0  0  0  0  0  0
    0.0302  -20.0783   22.9812 C   0  0  0  0  0  0  0  0  0  0  0  0
    0.9209  -20.2068   21.7942 C   0  0  0  0  0  0  0  0  0  0  0  0
    1.2983  -18.9456   21.2375 N   0  0  0  0  0  0  0  0  0  0  0  0
   -3.2886  -22.3638   25.7095 C   0  0  0  0  0  0  0  0  0  0  0  0
   -3.4107  -21.5325   26.6502 O   0  0  0  0  0  0  0  0  0  0  0  0
   -4.4736  -22.9595   25.2310 N   0  0  0  0  0  0  0  0  0  0  0  0
   -5.7858  -22.6977   25.7220 C   0  0  1  0  0  0  0  0  0  0  0  0
   -6.9024  -23.0845   24.8090 C   0  0  0  0  0  0  0  0  0  0  0  0
   -8.2286  -22.6365   25.3001 C   0  0  0  0  0  0  0  0  0  0  0  0
   -8.7704  -21.3823   25.4557 C   0  0  0  0  0  0  0  0  0  0  0  0
  -10.0256  -21.4584   25.9421 N   0  0  0  0  0  0  0  0  0  0  0  0
  -10.2777  -22.7670   26.0944 C   0  0  0  0  0  0  0  0  0  0  0  0
   -9.2116  -23.4898   25.7145 N   0  0  0  0  0  0  0  0  0  0  0  0
   -6.0047  -23.4101   26.9993 C   0  0  0  0  0  0  0  0  0  0  0  0
   -5.5091  -24.5537   27.1349 O   0  0  0  0  0  0  0  0  0  0  0  0
   -6.7518  -22.8616   28.0917 N   0  0  0  0  0  0  0  0  0  0  0  0
   -7.0085  -23.6228   29.2988 C   0  0  1  0  0  0  0  0  0  0  0  0
   -5.6622  -23.9745   29.9694 C   0  0  0  0  0  0  0  0  0  0  0  0
   -5.9213  -24.6323   31.6303 S   0  0  0  0  0  0  0  0  0  0  0  0
   -7.8636  -22.9494   30.2722 C   0  0  0  0  0  0  0  0  0  0  0  0
   -8.0290  -21.7140   30.1870 O   0  0  0  0  0  0  0  0  0  0  0  0
   -8.5008  -23.6333   31.2896 O   0  0  0  0  0  0  0  0  0  0  0  0
  2  1  1  6
  2  3  1  0
  3  4  1  0
  5  4  1  0
  6  5  1  0
  7  6  1  0
  8  2  1  0
  8  9  2  0
 10  8  1  0
 11 10  1  0
 11 12  1  6
 13 14  2  0
 13 12  1  0
 15 14  1  0
 16 17  2  0
 16 15  1  0
 17 13  1  0
 18 11  1  0
 19 18  2  0
 20 18  1  0
 21 22  1  1
 21 20  1  0
 22 23  1  0
 24 21  1  0
 25 24  2  0
 26 24  1  0
M  END
$$$$
