KHC.pdb
     RDKit          3D

 26 26  0  0  1  0  0  0  0  0999 V2000
    8.9417  -15.1329   19.4329 N   0  0  0  0  0  0  0  0  0  0  0  0
    8.5700  -14.0508   20.2928 C   0  0  1  0  0  0  0  0  0  0  0  0
    7.4448  -13.2453   19.6992 C   0  0  0  0  0  0  0  0  0  0  0  0
    7.0096  -13.6018   18.3395 C   0  0  0  0  0  0  0  0  0  0  0  0
    8.0355  -13.9071   17.3155 C   0  0  0  0  0  0  0  0  0  0  0  0
    7.5279  -14.2216   15.9509 C   0  0  0  0  0  0  0  0  0  0  0  0
    8.5730  -14.4564   15.0044 N   0  0  0  0  0  0  0  0  0  0  0  0
    8.1275  -14.5204   21.6300 C   0  0  0  0  0  0  0  0  0  0  0  0
    7.5358  -13.6692   22.3486 O   0  0  0  0  0  0  0  0  0  0  0  0
    8.2969  -15.8075   22.1800 N   0  0  0  0  0  0  0  0  0  0  0  0
    7.8459  -16.2211   23.4673 C   0  0  1  0  0  0  0  0  0  0  0  0
    7.9980  -17.6768   23.7641 C   0  0  0  0  0  0  0  0  0  0  0  0
    7.5609  -18.0329   25.1363 C   0  0  0  0  0  0  0  0  0  0  0  0
    6.5268  -17.5706   25.9157 C   0  0  0  0  0  0  0  0  0  0  0  0
    6.5129  -18.1912   27.1126 N   0  0  0  0  0  0  0  0  0  0  0  0
    7.5433  -19.0496   27.0890 C   0  0  0  0  0  0  0  0  0  0  0  0
    8.1841  -18.9692   25.9115 N   0  0  0  0  0  0  0  0  0  0  0  0
    8.5734  -15.4858   24.5241 C   0  0  0  0  0  0  0  0  0  0  0  0
    9.8171  -15.3676   24.4179 O   0  0  0  0  0  0  0  0  0  0  0  0
    7.9318  -14.8988   25.6626 N   0  0  0  0  0  0  0  0  0  0  0  0
    8.6904  -14.2634   26.7224 C   0  0  1  0  0  0  0  0  0  0  0  0
    7.8170  -13.1759   27.3861 C   0  0  0  0  0  0  0  0  0  0  0  0
    6.7340  -12.3902   26.1744 S   0  0  0  0  0  0  0  0  0  0  0  0
    9.1785  -15.1762   27.7524 C   0  0  0  0  0  0  0  0  0  0  0  0
    8.8595  -16.3829   27.6987 O   0  0  0  0  0  0  0  0  0  0  0  0
    9.9857  -14.7511   28.7899 O   0  0  0  0  0  0  0  0  0  0  0  0
  2  1  1  6
  2  3  1  0
  3  4  1  0
  5  4  1  0
  6  5  1  0
  7  6  1  0
  8  2  1  0
  8  9  2  0
 10  8  1  0
 11 10  1  0
 11 12  1  1
 13 14  2  0
 13 12  1  0
 15 14  1  0
 16 17  2  0
 16 15  1  0
 17 13  1  0
 18 11  1  0
 19 18  2  0
 20 18  1  0
 21 22  1  1
 21 20  1  0
 22 23  1  0
 24 21  1  0
 25 24  2  0
 26 24  1  0
M  END
$$$$
