KHC.pdb
     RDKit          3D

 26 26  0  0  1  0  0  0  0  0999 V2000
   10.2933  -16.5394   19.5063 N   0  0  0  0  0  0  0  0  0  0  0  0
    9.2432  -16.9374   20.3936 C   0  0  1  0  0  0  0  0  0  0  0  0
    9.3332  -18.4046   20.7203 C   0  0  0  0  0  0  0  0  0  0  0  0
    8.9708  -19.3523   19.6546 C   0  0  0  0  0  0  0  0  0  0  0  0
    8.9363  -20.8005   19.9644 C   0  0  0  0  0  0  0  0  0  0  0  0
    8.4929  -21.6977   18.8612 C   0  0  0  0  0  0  0  0  0  0  0  0
    7.0797  -21.6685   18.6487 N   0  0  0  0  0  0  0  0  0  0  0  0
    9.2762  -16.1904   21.6763 C   0  0  0  0  0  0  0  0  0  0  0  0
   10.4024  -16.1014   22.2372 O   0  0  0  0  0  0  0  0  0  0  0  0
    8.1905  -15.5738   22.3313 N   0  0  0  0  0  0  0  0  0  0  0  0
    8.2442  -14.9531   23.6132 C   0  0  1  0  0  0  0  0  0  0  0  0
    6.9724  -14.3207   24.0745 C   0  0  0  0  0  0  0  0  0  0  0  0
    7.1179  -13.6157   25.3716 C   0  0  0  0  0  0  0  0  0  0  0  0
    8.1832  -13.4951   26.2326 C   0  0  0  0  0  0  0  0  0  0  0  0
    7.8511  -12.7499   27.3061 N   0  0  0  0  0  0  0  0  0  0  0  0
    6.5699  -12.3981   27.1221 C   0  0  0  0  0  0  0  0  0  0  0  0
    6.1125  -12.9080   25.9670 N   0  0  0  0  0  0  0  0  0  0  0  0
    8.6349  -15.9401   24.6427 C   0  0  0  0  0  0  0  0  0  0  0  0
    7.9417  -16.9775   24.7654 O   0  0  0  0  0  0  0  0  0  0  0  0
    9.7658  -15.7748   25.5065 N   0  0  0  0  0  0  0  0  0  0  0  0
   10.1252  -16.7752   26.4927 C   0  0  1  0  0  0  0  0  0  0  0  0
   11.6061  -17.1680   26.2964 C   0  0  0  0  0  0  0  0  0  0  0  0
   12.1522  -18.2951   27.5964 S   0  0  0  0  0  0  0  0  0  0  0  0
    9.9215  -16.3635   27.8788 C   0  0  0  0  0  0  0  0  0  0  0  0
    9.5220  -17.2042   28.7122 O   0  0  0  0  0  0  0  0  0  0  0  0
   10.1567  -15.0704   28.3046 O   0  0  0  0  0  0  0  0  0  0  0  0
  2  1  1  6
  2  3  1  0
  3  4  1  0
  5  4  1  0
  6  5  1  0
  7  6  1  0
  8  2  1  0
  8  9  2  0
 10  8  1  0
 11 10  1  0
 11 12  1  1
 13 14  2  0
 13 12  1  0
 15 14  1  0
 16 17  2  0
 16 15  1  0
 17 13  1  0
 18 11  1  0
 19 18  2  0
 20 18  1  0
 21 22  1  1
 21 20  1  0
 22 23  1  0
 24 21  1  0
 25 24  2  0
 26 24  1  0
M  END
$$$$
