KHC.pdb
     RDKit          3D

 26 26  0  0  1  0  0  0  0  0999 V2000
    8.9924  -17.1347   16.5883 N   0  0  0  0  0  0  0  0  0  0  0  0
    9.5659  -17.8899   17.6603 C   0  0  1  0  0  0  0  0  0  0  0  0
   10.7362  -18.7090   17.1842 C   0  0  0  0  0  0  0  0  0  0  0  0
   10.4961  -19.6346   16.0659 C   0  0  0  0  0  0  0  0  0  0  0  0
   11.5920  -20.5304   15.6288 C   0  0  0  0  0  0  0  0  0  0  0  0
   11.2679  -21.4727   14.5217 C   0  0  0  0  0  0  0  0  0  0  0  0
   12.3652  -22.3161   14.1642 N   0  0  0  0  0  0  0  0  0  0  0  0
   10.0464  -17.0231   18.7659 C   0  0  0  0  0  0  0  0  0  0  0  0
   10.6421  -15.9657   18.4224 O   0  0  0  0  0  0  0  0  0  0  0  0
    9.9098  -17.2535   20.1501 N   0  0  0  0  0  0  0  0  0  0  0  0
   10.1100  -16.2810   21.1727 C   0  0  1  0  0  0  0  0  0  0  0  0
    8.8751  -15.5958   21.6583 C   0  0  0  0  0  0  0  0  0  0  0  0
    8.3333  -14.6235   20.6776 C   0  0  0  0  0  0  0  0  0  0  0  0
    8.7850  -14.2220   19.4426 C   0  0  0  0  0  0  0  0  0  0  0  0
    7.9581  -13.3031   18.9041 N   0  0  0  0  0  0  0  0  0  0  0  0
    6.9794  -13.1235   19.8036 C   0  0  0  0  0  0  0  0  0  0  0  0
    7.1871  -13.9069   20.8744 N   0  0  0  0  0  0  0  0  0  0  0  0
   10.7513  -16.9034   22.3510 C   0  0  0  0  0  0  0  0  0  0  0  0
   10.4065  -18.0655   22.6712 O   0  0  0  0  0  0  0  0  0  0  0  0
   11.7479  -16.2492   23.1454 N   0  0  0  0  0  0  0  0  0  0  0  0
   12.3981  -16.9176   24.2558 C   0  0  1  0  0  0  0  0  0  0  0  0
   13.6214  -16.0853   24.6995 C   0  0  0  0  0  0  0  0  0  0  0  0
   14.6153  -15.5904   23.2762 S   0  0  0  0  0  0  0  0  0  0  0  0
   11.5378  -17.1530   25.4120 C   0  0  0  0  0  0  0  0  0  0  0  0
   10.3768  -16.6916   25.4123 O   0  0  0  0  0  0  0  0  0  0  0  0
   11.9637  -17.8725   26.5118 O   0  0  0  0  0  0  0  0  0  0  0  0
  2  1  1  6
  2  3  1  0
  3  4  1  0
  5  4  1  0
  6  5  1  0
  7  6  1  0
  8  2  1  0
  8  9  2  0
 10  8  1  0
 11 10  1  0
 11 12  1  1
 13 14  2  0
 13 12  1  0
 15 14  1  0
 16 17  2  0
 16 15  1  0
 17 13  1  0
 18 11  1  0
 19 18  2  0
 20 18  1  0
 21 22  1  1
 21 20  1  0
 22 23  1  0
 24 21  1  0
 25 24  2  0
 26 24  1  0
M  END
$$$$
