KHC.pdb
     RDKit          3D

 26 26  0  0  1  0  0  0  0  0999 V2000
   10.1924  -17.9096   16.8927 N   0  0  0  0  0  0  0  0  0  0  0  0
    9.5091  -18.3492   18.0710 C   0  0  1  0  0  0  0  0  0  0  0  0
    9.8779  -19.7674   18.4172 C   0  0  0  0  0  0  0  0  0  0  0  0
   11.3114  -20.0978   18.4532 C   0  0  0  0  0  0  0  0  0  0  0  0
   11.7170  -21.5178   18.5683 C   0  0  0  0  0  0  0  0  0  0  0  0
   13.1824  -21.7801   18.6192 C   0  0  0  0  0  0  0  0  0  0  0  0
   13.5008  -23.1721   18.6833 N   0  0  0  0  0  0  0  0  0  0  0  0
    9.8215  -17.5045   19.2514 C   0  0  0  0  0  0  0  0  0  0  0  0
   11.0416  -17.2482   19.4423 O   0  0  0  0  0  0  0  0  0  0  0  0
    8.9066  -16.9618   20.1768 N   0  0  0  0  0  0  0  0  0  0  0  0
    9.2341  -16.0550   21.2266 C   0  0  1  0  0  0  0  0  0  0  0  0
    8.2134  -15.0017   21.5074 C   0  0  0  0  0  0  0  0  0  0  0  0
    7.9668  -14.1149   20.3440 C   0  0  0  0  0  0  0  0  0  0  0  0
    8.5023  -12.8986   19.9913 C   0  0  0  0  0  0  0  0  0  0  0  0
    7.9714  -12.4577   18.8329 N   0  0  0  0  0  0  0  0  0  0  0  0
    7.0963  -13.4003   18.4523 C   0  0  0  0  0  0  0  0  0  0  0  0
    7.0794  -14.4025   19.3460 N   0  0  0  0  0  0  0  0  0  0  0  0
    9.4529  -16.7930   22.4893 C   0  0  0  0  0  0  0  0  0  0  0  0
    8.6964  -17.7574   22.7532 O   0  0  0  0  0  0  0  0  0  0  0  0
   10.4856  -16.4657   23.4267 N   0  0  0  0  0  0  0  0  0  0  0  0
   10.7043  -17.2510   24.6258 C   0  0  1  0  0  0  0  0  0  0  0  0
   12.1501  -17.0252   25.1202 C   0  0  0  0  0  0  0  0  0  0  0  0
   13.3393  -17.3293   23.7965 S   0  0  0  0  0  0  0  0  0  0  0  0
    9.7777  -16.9649   25.7176 C   0  0  0  0  0  0  0  0  0  0  0  0
    8.9566  -16.0318   25.5918 O   0  0  0  0  0  0  0  0  0  0  0  0
    9.7759  -17.6937   26.8913 O   0  0  0  0  0  0  0  0  0  0  0  0
  2  1  1  6
  2  3  1  0
  3  4  1  0
  5  4  1  0
  6  5  1  0
  7  6  1  0
  8  2  1  0
  8  9  2  0
 10  8  1  0
 11 10  1  0
 11 12  1  1
 13 14  2  0
 13 12  1  0
 15 14  1  0
 16 17  2  0
 16 15  1  0
 17 13  1  0
 18 11  1  0
 19 18  2  0
 20 18  1  0
 21 22  1  1
 21 20  1  0
 22 23  1  0
 24 21  1  0
 25 24  2  0
 26 24  1  0
M  END
$$$$
