KHC.pdb
     RDKit          3D

 26 26  0  0  1  0  0  0  0  0999 V2000
    9.2946  -19.1893   18.6446 N   0  0  0  0  0  0  0  0  0  0  0  0
   10.3591  -18.3005   18.2903 C   0  0  1  0  0  0  0  0  0  0  0  0
   10.2539  -17.8715   16.8508 C   0  0  0  0  0  0  0  0  0  0  0  0
    9.5610  -18.7844   15.9279 C   0  0  0  0  0  0  0  0  0  0  0  0
    9.3717  -18.3710   14.5181 C   0  0  0  0  0  0  0  0  0  0  0  0
    8.5520  -19.2817   13.6711 C   0  0  0  0  0  0  0  0  0  0  0  0
    8.4549  -18.8477   12.3127 N   0  0  0  0  0  0  0  0  0  0  0  0
   10.3681  -17.0719   19.1240 C   0  0  0  0  0  0  0  0  0  0  0  0
   11.2761  -16.2348   18.8677 O   0  0  0  0  0  0  0  0  0  0  0  0
    9.4767  -16.7425   20.1655 N   0  0  0  0  0  0  0  0  0  0  0  0
    9.4573  -15.5069   20.8757 C   0  0  1  0  0  0  0  0  0  0  0  0
    8.1885  -14.7262   20.7721 C   0  0  0  0  0  0  0  0  0  0  0  0
    7.8948  -14.2870   19.3860 C   0  0  0  0  0  0  0  0  0  0  0  0
    8.0053  -13.0617   18.7720 C   0  0  0  0  0  0  0  0  0  0  0  0
    7.6192  -13.1342   17.4822 N   0  0  0  0  0  0  0  0  0  0  0  0
    7.2632  -14.4117   17.2806 C   0  0  0  0  0  0  0  0  0  0  0  0
    7.4216  -15.1189   18.4112 N   0  0  0  0  0  0  0  0  0  0  0  0
    9.7051  -15.7410   22.3147 C   0  0  0  0  0  0  0  0  0  0  0  0
    8.7324  -16.0492   23.0432 O   0  0  0  0  0  0  0  0  0  0  0  0
   10.9990  -15.6364   22.9207 N   0  0  0  0  0  0  0  0  0  0  0  0
   11.3814  -16.4614   24.0501 C   0  0  1  0  0  0  0  0  0  0  0  0
   11.1015  -17.9422   23.7111 C   0  0  0  0  0  0  0  0  0  0  0  0
   11.4555  -19.0059   25.1259 S   0  0  0  0  0  0  0  0  0  0  0  0
   12.7759  -16.3223   24.4603 C   0  0  0  0  0  0  0  0  0  0  0  0
   13.6450  -16.0825   23.5955 O   0  0  0  0  0  0  0  0  0  0  0  0
   13.1711  -16.4463   25.7784 O   0  0  0  0  0  0  0  0  0  0  0  0
  2  1  1  1
  2  3  1  0
  3  4  1  0
  5  4  1  0
  6  5  1  0
  7  6  1  0
  8  2  1  0
  8  9  2  0
 10  8  1  0
 11 10  1  0
 11 12  1  1
 13 14  2  0
 13 12  1  0
 15 14  1  0
 16 17  2  0
 16 15  1  0
 17 13  1  0
 18 11  1  0
 19 18  2  0
 20 18  1  0
 21 22  1  6
 21 20  1  0
 22 23  1  0
 24 21  1  0
 25 24  2  0
 26 24  1  0
M  END
$$$$
