IEI.pdb
     RDKit          3D

 26 25  0  0  1  0  0  0  0  0999 V2000
    7.4446  -11.6533   18.9471 C   0  0  0  0  0  0  0  0  0  0  0  0
    7.7595  -13.0979   18.6658 C   0  0  0  0  0  0  0  0  0  0  0  0
    7.8452  -13.9162   19.9380 C   0  0  2  0  0  0  0  0  0  0  0  0
    8.8400  -13.2175   20.8420 C   0  0  0  0  0  0  0  0  0  0  0  0
    8.2784  -15.3413   19.6438 C   0  0  2  0  0  0  0  0  0  0  0  0
    7.2792  -15.9793   18.8357 N   0  0  0  0  0  0  0  0  0  0  0  0
    8.3496  -16.0302   20.9782 C   0  0  0  0  0  0  0  0  0  0  0  0
    7.2994  -16.2534   21.6388 O   0  0  0  0  0  0  0  0  0  0  0  0
    9.5777  -16.4497   21.5385 N   0  0  0  0  0  0  0  0  0  0  0  0
    9.6891  -17.0615   22.8741 C   0  0  1  0  0  0  0  0  0  0  0  0
   10.9547  -17.8663   22.9246 C   0  0  0  0  0  0  0  0  0  0  0  0
   11.2030  -18.4247   24.2864 C   0  0  0  0  0  0  0  0  0  0  0  0
   12.5342  -19.1646   24.2776 C   0  0  0  0  0  0  0  0  0  0  0  0
   12.5960  -20.2467   23.6518 O   0  0  0  0  0  0  0  0  0  0  0  0
    9.7487  -16.0008   23.9138 C   0  0  0  0  0  0  0  0  0  0  0  0
   10.4590  -14.9905   23.6576 O   0  0  0  0  0  0  0  0  0  0  0  0
   13.6448  -18.6675   24.9356 O   0  0  0  0  0  0  0  0  0  0  0  0
    6.9945  -11.8718   26.7886 C   0  0  0  0  0  0  0  0  0  0  0  0
    8.0293  -12.9289   27.0911 C   0  0  0  0  0  0  0  0  0  0  0  0
    7.9536  -14.0031   26.0374 C   0  0  2  0  0  0  0  0  0  0  0  0
    6.5703  -14.6457   26.2606 C   0  0  0  0  0  0  0  0  0  0  0  0
    9.0320  -15.0633   26.1859 C   0  0  2  0  0  0  0  0  0  0  0  0
    9.0681  -16.0463   25.1501 N   0  0  0  0  0  0  0  0  0  0  0  0
    9.1012  -15.6882   27.5008 C   0  0  0  0  0  0  0  0  0  0  0  0
    8.6852  -16.8744   27.6603 O   0  0  0  0  0  0  0  0  0  0  0  0
    9.6024  -15.0776   28.6436 O   0  0  0  0  0  0  0  0  0  0  0  0
  2  3  1  0
  2  1  1  0
  3  4  1  1
  5  6  1  6
  5  3  1  0
  7  5  1  0
  8  7  2  0
  9  7  1  0
 10  9  1  0
 11 12  1  0
 10 11  1  6
 12 13  1  0
 13 14  2  0
 15 16  2  0
 15 10  1  0
 17 13  1  0
 18 19  1  0
 19 20  1  0
 20 22  1  0
 20 21  1  1
 22 23  1  6
 23 15  1  0
 24 22  1  0
 25 24  2  0
 26 24  1  0
M  END
$$$$
