IEI.pdb
     RDKit          3D

 26 25  0  0  1  0  0  0  0  0999 V2000
    7.7198  -11.8307   20.0583 C   0  0  0  0  0  0  0  0  0  0  0  0
    7.6577  -13.3229   19.8718 C   0  0  0  0  0  0  0  0  0  0  0  0
    9.0086  -13.9039   19.5072 C   0  0  2  0  0  0  0  0  0  0  0  0
    9.4375  -13.2385   18.2156 C   0  0  0  0  0  0  0  0  0  0  0  0
    8.9307  -15.4117   19.3478 C   0  0  2  0  0  0  0  0  0  0  0  0
    7.9145  -15.7312   18.3866 N   0  0  0  0  0  0  0  0  0  0  0  0
    8.5238  -15.9443   20.6935 C   0  0  0  0  0  0  0  0  0  0  0  0
    7.3103  -16.1672   20.9521 O   0  0  0  0  0  0  0  0  0  0  0  0
    9.4702  -16.2129   21.7087 N   0  0  0  0  0  0  0  0  0  0  0  0
    9.1174  -16.8304   22.9989 C   0  0  1  0  0  0  0  0  0  0  0  0
    9.8974  -18.1040   23.1458 C   0  0  0  0  0  0  0  0  0  0  0  0
   11.3527  -17.8428   23.3501 C   0  0  0  0  0  0  0  0  0  0  0  0
   12.0858  -19.1763   23.4144 C   0  0  0  0  0  0  0  0  0  0  0  0
   12.9964  -19.3821   22.5808 O   0  0  0  0  0  0  0  0  0  0  0  0
    9.4739  -15.9138   24.1135 C   0  0  0  0  0  0  0  0  0  0  0  0
   10.5525  -15.2700   23.9996 O   0  0  0  0  0  0  0  0  0  0  0  0
   11.7651  -20.1357   24.3578 O   0  0  0  0  0  0  0  0  0  0  0  0
    6.0325  -12.3817   26.1284 C   0  0  0  0  0  0  0  0  0  0  0  0
    7.2605  -13.1235   25.6578 C   0  0  0  0  0  0  0  0  0  0  0  0
    7.7920  -13.9592   26.7931 C   0  0  2  0  0  0  0  0  0  0  0  0
    8.2866  -12.9206   27.8192 C   0  0  0  0  0  0  0  0  0  0  0  0
    8.9493  -14.8554   26.3850 C   0  0  2  0  0  0  0  0  0  0  0  0
    8.6931  -15.7147   25.2730 N   0  0  0  0  0  0  0  0  0  0  0  0
    9.5721  -15.5899   27.4792 C   0  0  0  0  0  0  0  0  0  0  0  0
    9.2507  -16.7964   27.6951 O   0  0  0  0  0  0  0  0  0  0  0  0
   10.5257  -15.0671   28.3436 O   0  0  0  0  0  0  0  0  0  0  0  0
  2  3  1  0
  2  1  1  0
  3  4  1  6
  5  6  1  6
  5  3  1  0
  7  5  1  0
  8  7  2  0
  9  7  1  0
 10  9  1  0
 11 12  1  0
 10 11  1  1
 12 13  1  0
 13 14  2  0
 15 16  2  0
 15 10  1  0
 17 13  1  0
 18 19  1  0
 19 20  1  0
 20 22  1  0
 20 21  1  1
 22 23  1  6
 23 15  1  0
 24 22  1  0
 25 24  2  0
 26 24  1  0
M  END
$$$$
