IEI.pdb
     RDKit          3D

 26 25  0  0  1  0  0  0  0  0999 V2000
    7.6636  -11.9767   19.0558 C   0  0  0  0  0  0  0  0  0  0  0  0
    7.6540  -13.4816   19.0454 C   0  0  0  0  0  0  0  0  0  0  0  0
    7.7679  -14.0575   20.4421 C   0  0  2  0  0  0  0  0  0  0  0  0
    9.0560  -13.5222   21.0330 C   0  0  0  0  0  0  0  0  0  0  0  0
    7.7686  -15.5754   20.4097 C   0  0  2  0  0  0  0  0  0  0  0  0
    6.4966  -16.0363   19.9323 N   0  0  0  0  0  0  0  0  0  0  0  0
    7.9503  -16.0143   21.8362 C   0  0  0  0  0  0  0  0  0  0  0  0
    7.0143  -15.8809   22.6698 O   0  0  0  0  0  0  0  0  0  0  0  0
    9.1594  -16.5858   22.2943 N   0  0  0  0  0  0  0  0  0  0  0  0
    9.3400  -17.1060   23.6607 C   0  0  1  0  0  0  0  0  0  0  0  0
   10.4201  -18.1476   23.6344 C   0  0  0  0  0  0  0  0  0  0  0  0
   10.6864  -18.7050   24.9931 C   0  0  0  0  0  0  0  0  0  0  0  0
   11.8188  -19.7188   24.8937 C   0  0  0  0  0  0  0  0  0  0  0  0
   11.5311  -20.8809   24.5288 O   0  0  0  0  0  0  0  0  0  0  0  0
    9.7517  -16.0056   24.5714 C   0  0  0  0  0  0  0  0  0  0  0  0
   10.6417  -15.2183   24.1486 O   0  0  0  0  0  0  0  0  0  0  0  0
   13.1256  -19.3785   25.1941 O   0  0  0  0  0  0  0  0  0  0  0  0
    6.2438  -12.7089   26.5928 C   0  0  0  0  0  0  0  0  0  0  0  0
    7.5146  -13.3282   26.0625 C   0  0  0  0  0  0  0  0  0  0  0  0
    8.2937  -13.9079   27.2143 C   0  0  2  0  0  0  0  0  0  0  0  0
    8.7725  -12.6707   27.9992 C   0  0  0  0  0  0  0  0  0  0  0  0
    9.4984  -14.7216   26.7719 C   0  0  2  0  0  0  0  0  0  0  0  0
    9.2159  -15.7831   25.8587 N   0  0  0  0  0  0  0  0  0  0  0  0
   10.3601  -15.1802   27.8543 C   0  0  0  0  0  0  0  0  0  0  0  0
   10.2221  -16.3503   28.3205 O   0  0  0  0  0  0  0  0  0  0  0  0
   11.3611  -14.4207   28.4470 O   0  0  0  0  0  0  0  0  0  0  0  0
  2  3  1  0
  2  1  1  0
  3  4  1  6
  5  6  1  1
  5  3  1  0
  7  5  1  0
  8  7  2  0
  9  7  1  0
 10  9  1  0
 11 12  1  0
 10 11  1  6
 12 13  1  0
 13 14  2  0
 15 16  2  0
 15 10  1  0
 17 13  1  0
 18 19  1  0
 19 20  1  0
 20 22  1  0
 20 21  1  1
 22 23  1  1
 23 15  1  0
 24 22  1  0
 25 24  2  0
 26 24  1  0
M  END
$$$$
