IEI.pdb
     RDKit          3D

 26 25  0  0  1  0  0  0  0  0999 V2000
    7.4811  -11.9108   19.4001 C   0  0  0  0  0  0  0  0  0  0  0  0
    7.4475  -13.4136   19.3230 C   0  0  0  0  0  0  0  0  0  0  0  0
    7.5908  -14.0532   20.6889 C   0  0  2  0  0  0  0  0  0  0  0  0
    8.8668  -13.5076   21.2964 C   0  0  0  0  0  0  0  0  0  0  0  0
    7.6380  -15.5670   20.5820 C   0  0  2  0  0  0  0  0  0  0  0  0
    6.3490  -16.0503   20.1777 N   0  0  0  0  0  0  0  0  0  0  0  0
    7.9408  -16.0650   21.9678 C   0  0  0  0  0  0  0  0  0  0  0  0
    7.0536  -16.0420   22.8630 O   0  0  0  0  0  0  0  0  0  0  0  0
    9.2130  -16.5718   22.3187 N   0  0  0  0  0  0  0  0  0  0  0  0
    9.5153  -17.1515   23.6390 C   0  0  1  0  0  0  0  0  0  0  0  0
   10.6890  -18.0756   23.4953 C   0  0  0  0  0  0  0  0  0  0  0  0
   11.0735  -18.6909   24.7997 C   0  0  0  0  0  0  0  0  0  0  0  0
   12.2045  -19.6823   24.5596 C   0  0  0  0  0  0  0  0  0  0  0  0
   12.0159  -20.8742   24.8919 O   0  0  0  0  0  0  0  0  0  0  0  0
    9.8649  -16.0714   24.5984 C   0  0  0  0  0  0  0  0  0  0  0  0
   10.7204  -15.2260   24.2185 O   0  0  0  0  0  0  0  0  0  0  0  0
   13.4047  -19.2907   23.9941 O   0  0  0  0  0  0  0  0  0  0  0  0
    6.6519  -12.6258   26.6488 C   0  0  0  0  0  0  0  0  0  0  0  0
    7.9324  -13.2797   26.1877 C   0  0  0  0  0  0  0  0  0  0  0  0
    8.5250  -14.0569   27.3342 C   0  0  2  0  0  0  0  0  0  0  0  0
    9.0903  -12.9686   28.2681 C   0  0  0  0  0  0  0  0  0  0  0  0
    9.6474  -14.9885   26.9083 C   0  0  2  0  0  0  0  0  0  0  0  0
    9.3066  -15.9278   25.8874 N   0  0  0  0  0  0  0  0  0  0  0  0
   10.3517  -15.6421   28.0043 C   0  0  0  0  0  0  0  0  0  0  0  0
   11.3291  -15.0614   28.5639 O   0  0  0  0  0  0  0  0  0  0  0  0
   10.0370  -16.8957   28.5136 O   0  0  0  0  0  0  0  0  0  0  0  0
  2  3  1  0
  2  1  1  0
  3  4  1  6
  5  6  1  1
  5  3  1  0
  7  5  1  0
  8  7  2  0
  9  7  1  0
 10  9  1  0
 11 12  1  0
 10 11  1  6
 12 13  1  0
 13 14  2  0
 15 16  2  0
 15 10  1  0
 17 13  1  0
 18 19  1  0
 19 20  1  0
 20 22  1  0
 20 21  1  1
 22 23  1  6
 23 15  1  0
 24 22  1  0
 25 24  2  0
 26 24  1  0
M  END
$$$$
