IEI.pdb
     RDKit          3D

 26 25  0  0  1  0  0  0  0  0999 V2000
    7.3302  -11.7754   19.4000 C   0  0  0  0  0  0  0  0  0  0  0  0
    7.6062  -13.2495   19.2729 C   0  0  0  0  0  0  0  0  0  0  0  0
    7.6273  -13.9391   20.6218 C   0  0  2  0  0  0  0  0  0  0  0  0
    8.7580  -13.3163   21.4146 C   0  0  0  0  0  0  0  0  0  0  0  0
    7.8253  -15.4365   20.4677 C   0  0  2  0  0  0  0  0  0  0  0  0
    6.6577  -16.0051   19.8581 N   0  0  0  0  0  0  0  0  0  0  0  0
    7.9668  -15.9756   21.8640 C   0  0  0  0  0  0  0  0  0  0  0  0
    6.9802  -15.9841   22.6486 O   0  0  0  0  0  0  0  0  0  0  0  0
    9.1928  -16.4873   22.3472 N   0  0  0  0  0  0  0  0  0  0  0  0
    9.3605  -17.0348   23.7046 C   0  0  1  0  0  0  0  0  0  0  0  0
   10.4899  -18.0227   23.6829 C   0  0  0  0  0  0  0  0  0  0  0  0
   10.7359  -18.6138   25.0313 C   0  0  0  0  0  0  0  0  0  0  0  0
   11.9414  -19.5409   24.9476 C   0  0  0  0  0  0  0  0  0  0  0  0
   11.8420  -20.6754   25.4667 O   0  0  0  0  0  0  0  0  0  0  0  0
    9.6932  -15.9409   24.6545 C   0  0  0  0  0  0  0  0  0  0  0  0
   10.5838  -15.1238   24.2940 O   0  0  0  0  0  0  0  0  0  0  0  0
   13.1125  -19.1535   24.3215 O   0  0  0  0  0  0  0  0  0  0  0  0
    6.4449  -12.3131   26.2706 C   0  0  0  0  0  0  0  0  0  0  0  0
    7.7017  -13.0782   25.9317 C   0  0  0  0  0  0  0  0  0  0  0  0
    8.1837  -13.7976   27.1645 C   0  0  2  0  0  0  0  0  0  0  0  0
    8.6604  -12.6639   28.0938 C   0  0  0  0  0  0  0  0  0  0  0  0
    9.3400  -14.7446   26.8904 C   0  0  2  0  0  0  0  0  0  0  0  0
    9.0829  -15.7553   25.9142 N   0  0  0  0  0  0  0  0  0  0  0  0
    9.9619  -15.3140   28.0794 C   0  0  0  0  0  0  0  0  0  0  0  0
   10.6268  -14.5722   28.8625 O   0  0  0  0  0  0  0  0  0  0  0  0
    9.8899  -16.6512   28.4488 O   0  0  0  0  0  0  0  0  0  0  0  0
  2  3  1  0
  2  1  1  0
  3  4  1  1
  5  6  1  1
  5  3  1  0
  7  5  1  0
  8  7  2  0
  9  7  1  0
 10  9  1  0
 11 12  1  0
 10 11  1  6
 12 13  1  0
 13 14  2  0
 15 16  2  0
 15 10  1  0
 17 13  1  0
 18 19  1  0
 19 20  1  0
 20 22  1  0
 20 21  1  1
 22 23  1  6
 23 15  1  0
 24 22  1  0
 25 24  2  0
 26 24  1  0
M  END
$$$$
