IEI.pdb
     RDKit          3D

 26 25  0  0  1  0  0  0  0  0999 V2000
    7.4457  -11.9011   19.2161 C   0  0  0  0  0  0  0  0  0  0  0  0
    7.7232  -13.3772   19.1208 C   0  0  0  0  0  0  0  0  0  0  0  0
    7.9214  -14.0046   20.4856 C   0  0  2  0  0  0  0  0  0  0  0  0
    9.0819  -13.2803   21.1363 C   0  0  0  0  0  0  0  0  0  0  0  0
    8.1998  -15.4925   20.3686 C   0  0  2  0  0  0  0  0  0  0  0  0
    7.0568  -16.1411   19.7931 N   0  0  0  0  0  0  0  0  0  0  0  0
    8.3910  -15.9842   21.7764 C   0  0  0  0  0  0  0  0  0  0  0  0
    7.4032  -16.1081   22.5495 O   0  0  0  0  0  0  0  0  0  0  0  0
    9.6665  -16.3226   22.2834 N   0  0  0  0  0  0  0  0  0  0  0  0
    9.8704  -16.9664   23.5928 C   0  0  1  0  0  0  0  0  0  0  0  0
   11.1128  -17.8050   23.5223 C   0  0  0  0  0  0  0  0  0  0  0  0
   11.4633  -18.3901   24.8499 C   0  0  0  0  0  0  0  0  0  0  0  0
   12.6728  -19.3001   24.6808 C   0  0  0  0  0  0  0  0  0  0  0  0
   12.4649  -20.4963   24.3770 O   0  0  0  0  0  0  0  0  0  0  0  0
   10.0451  -15.9307   24.6447 C   0  0  0  0  0  0  0  0  0  0  0  0
   10.8940  -15.0257   24.4186 O   0  0  0  0  0  0  0  0  0  0  0  0
   13.9629  -18.8320   24.8544 O   0  0  0  0  0  0  0  0  0  0  0  0
    6.1236  -13.0286   26.5416 C   0  0  0  0  0  0  0  0  0  0  0  0
    7.4672  -13.5649   26.1093 C   0  0  0  0  0  0  0  0  0  0  0  0
    8.1262  -14.2383   27.2849 C   0  0  2  0  0  0  0  0  0  0  0  0
    8.4237  -13.0803   28.2577 C   0  0  0  0  0  0  0  0  0  0  0  0
    9.4252  -14.9383   26.9220 C   0  0  2  0  0  0  0  0  0  0  0  0
    9.3297  -15.8905   25.8614 N   0  0  0  0  0  0  0  0  0  0  0  0
   10.1622  -15.4889   28.0526 C   0  0  0  0  0  0  0  0  0  0  0  0
   10.0051  -16.7031   28.3794 O   0  0  0  0  0  0  0  0  0  0  0  0
   11.0587  -14.7753   28.8380 O   0  0  0  0  0  0  0  0  0  0  0  0
  2  3  1  0
  2  1  1  0
  3  4  1  6
  5  6  1  1
  5  3  1  0
  7  5  1  0
  8  7  2  0
  9  7  1  0
 10  9  1  0
 11 12  1  0
 10 11  1  6
 12 13  1  0
 13 14  2  0
 15 16  2  0
 15 10  1  0
 17 13  1  0
 18 19  1  0
 19 20  1  0
 20 22  1  0
 20 21  1  1
 22 23  1  6
 23 15  1  0
 24 22  1  0
 25 24  2  0
 26 24  1  0
M  END
$$$$
