IEI.pdb
     RDKit          3D

 26 25  0  0  1  0  0  0  0  0999 V2000
    8.1872  -11.7164   20.1980 C   0  0  0  0  0  0  0  0  0  0  0  0
    8.8250  -13.0703   20.0389 C   0  0  0  0  0  0  0  0  0  0  0  0
    7.9163  -14.0418   19.3136 C   0  0  2  0  0  0  0  0  0  0  0  0
    6.6428  -14.1416   20.1279 C   0  0  0  0  0  0  0  0  0  0  0  0
    8.5776  -15.4000   19.1613 C   0  0  2  0  0  0  0  0  0  0  0  0
    7.7280  -16.2518   18.3797 N   0  0  0  0  0  0  0  0  0  0  0  0
    8.6914  -15.9572   20.5530 C   0  0  0  0  0  0  0  0  0  0  0  0
    7.6977  -16.4997   21.1072 O   0  0  0  0  0  0  0  0  0  0  0  0
    9.8986  -15.8969   21.2861 N   0  0  0  0  0  0  0  0  0  0  0  0
   10.0816  -16.5465   22.5957 C   0  0  1  0  0  0  0  0  0  0  0  0
   11.4760  -17.0969   22.6631 C   0  0  0  0  0  0  0  0  0  0  0  0
   11.7727  -17.6942   23.9984 C   0  0  0  0  0  0  0  0  0  0  0  0
   11.8625  -19.2074   23.8495 C   0  0  0  0  0  0  0  0  0  0  0  0
   11.1525  -19.9107   24.6029 O   0  0  0  0  0  0  0  0  0  0  0  0
    9.9017  -15.5507   23.6846 C   0  0  0  0  0  0  0  0  0  0  0  0
   10.4716  -14.4353   23.5372 O   0  0  0  0  0  0  0  0  0  0  0  0
   12.6970  -19.7964   22.9167 O   0  0  0  0  0  0  0  0  0  0  0  0
    7.0722  -11.6687   26.3950 C   0  0  0  0  0  0  0  0  0  0  0  0
    7.6265  -12.9594   26.9489 C   0  0  0  0  0  0  0  0  0  0  0  0
    7.7218  -13.9687   25.8345 C   0  0  2  0  0  0  0  0  0  0  0  0
    6.4332  -14.8025   25.9771 C   0  0  0  0  0  0  0  0  0  0  0  0
    8.9298  -14.8824   25.9570 C   0  0  2  0  0  0  0  0  0  0  0  0
    9.1411  -15.7659   24.8546 N   0  0  0  0  0  0  0  0  0  0  0  0
    9.0340  -15.5951   27.2242 C   0  0  0  0  0  0  0  0  0  0  0  0
    9.1058  -14.9470   28.3106 O   0  0  0  0  0  0  0  0  0  0  0  0
    9.0632  -16.9777   27.3562 O   0  0  0  0  0  0  0  0  0  0  0  0
  2  3  1  0
  2  1  1  0
  3  4  1  1
  5  6  1  6
  5  3  1  0
  7  5  1  0
  8  7  2  0
  9  7  1  0
 10  9  1  0
 11 12  1  0
 10 11  1  6
 12 13  1  0
 13 14  2  0
 15 16  2  0
 15 10  1  0
 17 13  1  0
 18 19  1  0
 19 20  1  0
 20 22  1  0
 20 21  1  1
 22 23  1  6
 23 15  1  0
 24 22  1  0
 25 24  2  0
 26 24  1  0
M  END
$$$$
