IEI.pdb
     RDKit          3D

 26 25  0  0  1  0  0  0  0  0999 V2000
    7.4520  -12.2952   21.1849 C   0  0  0  0  0  0  0  0  0  0  0  0
    7.4298  -13.7883   20.9971 C   0  0  0  0  0  0  0  0  0  0  0  0
    8.6437  -14.2805   20.2357 C   0  0  2  0  0  0  0  0  0  0  0  0
    8.6043  -13.6187   18.8736 C   0  0  0  0  0  0  0  0  0  0  0  0
    8.6346  -15.7936   20.1106 C   0  0  2  0  0  0  0  0  0  0  0  0
    7.4138  -16.2061   19.4798 N   0  0  0  0  0  0  0  0  0  0  0  0
    8.6664  -16.3200   21.5185 C   0  0  0  0  0  0  0  0  0  0  0  0
    7.6145  -16.7506   22.0635 O   0  0  0  0  0  0  0  0  0  0  0  0
    9.8586  -16.3534   22.2774 N   0  0  0  0  0  0  0  0  0  0  0  0
    9.9439  -16.9505   23.6216 C   0  0  1  0  0  0  0  0  0  0  0  0
   11.1126  -17.8914   23.6509 C   0  0  0  0  0  0  0  0  0  0  0  0
   11.2714  -18.5373   24.9871 C   0  0  0  0  0  0  0  0  0  0  0  0
   12.4673  -19.4792   24.9372 C   0  0  0  0  0  0  0  0  0  0  0  0
   13.5643  -19.0097   24.5596 O   0  0  0  0  0  0  0  0  0  0  0  0
   10.1551  -15.8853   24.6366 C   0  0  0  0  0  0  0  0  0  0  0  0
   11.0315  -15.0162   24.3772 O   0  0  0  0  0  0  0  0  0  0  0  0
   12.3572  -20.8110   25.2948 O   0  0  0  0  0  0  0  0  0  0  0  0
    6.5692  -12.5493   26.1769 C   0  0  0  0  0  0  0  0  0  0  0  0
    7.8953  -13.2111   25.8882 C   0  0  0  0  0  0  0  0  0  0  0  0
    8.3606  -13.9342   27.1253 C   0  0  2  0  0  0  0  0  0  0  0  0
    8.7225  -12.8002   28.1046 C   0  0  0  0  0  0  0  0  0  0  0  0
    9.5840  -14.8030   26.8855 C   0  0  2  0  0  0  0  0  0  0  0  0
    9.4456  -15.7803   25.8529 N   0  0  0  0  0  0  0  0  0  0  0  0
   10.1637  -15.3914   28.0864 C   0  0  0  0  0  0  0  0  0  0  0  0
   10.7740  -14.6572   28.9195 O   0  0  0  0  0  0  0  0  0  0  0  0
   10.1063  -16.7398   28.4158 O   0  0  0  0  0  0  0  0  0  0  0  0
  2  3  1  0
  2  1  1  0
  3  4  1  6
  5  6  1  1
  5  3  1  0
  7  5  1  0
  8  7  2  0
  9  7  1  0
 10  9  1  0
 11 12  1  0
 10 11  1  6
 12 13  1  0
 13 14  2  0
 15 16  2  0
 15 10  1  0
 17 13  1  0
 18 19  1  0
 19 20  1  0
 20 22  1  0
 20 21  1  1
 22 23  1  6
 23 15  1  0
 24 22  1  0
 25 24  2  0
 26 24  1  0
M  END
$$$$
