IEI.pdb
     RDKit          3D

 26 25  0  0  1  0  0  0  0  0999 V2000
    7.3134  -11.8639   20.4530 C   0  0  0  0  0  0  0  0  0  0  0  0
    7.3516  -13.3251   20.0940 C   0  0  0  0  0  0  0  0  0  0  0  0
    7.9977  -14.1580   21.1823 C   0  0  2  0  0  0  0  0  0  0  0  0
    9.4037  -13.6246   21.3656 C   0  0  0  0  0  0  0  0  0  0  0  0
    8.0138  -15.6294   20.8084 C   0  0  2  0  0  0  0  0  0  0  0  0
    6.6635  -16.0953   20.6739 N   0  0  0  0  0  0  0  0  0  0  0  0
    8.6687  -16.3368   21.9620 C   0  0  0  0  0  0  0  0  0  0  0  0
    8.0018  -16.6382   22.9884 O   0  0  0  0  0  0  0  0  0  0  0  0
   10.0379  -16.6878   21.9438 N   0  0  0  0  0  0  0  0  0  0  0  0
   10.6906  -17.4504   23.0221 C   0  0  1  0  0  0  0  0  0  0  0  0
   11.9709  -18.0253   22.4906 C   0  0  0  0  0  0  0  0  0  0  0  0
   12.6950  -18.8189   23.5268 C   0  0  0  0  0  0  0  0  0  0  0  0
   13.9651  -19.3887   22.9089 C   0  0  0  0  0  0  0  0  0  0  0  0
   14.0554  -20.6326   22.8036 O   0  0  0  0  0  0  0  0  0  0  0  0
   11.0019  -16.5497   24.1628 C   0  0  0  0  0  0  0  0  0  0  0  0
   11.6369  -15.4926   23.8979 O   0  0  0  0  0  0  0  0  0  0  0  0
   14.9916  -18.5693   22.4749 O   0  0  0  0  0  0  0  0  0  0  0  0
    9.1999  -12.7268   27.9247 C   0  0  0  0  0  0  0  0  0  0  0  0
   10.1784  -13.8767   27.9244 C   0  0  0  0  0  0  0  0  0  0  0  0
    9.8802  -14.7723   26.7502 C   0  0  2  0  0  0  0  0  0  0  0  0
    8.4505  -15.2795   27.0233 C   0  0  0  0  0  0  0  0  0  0  0  0
   10.8249  -15.9581   26.6475 C   0  0  2  0  0  0  0  0  0  0  0  0
   10.6343  -16.7930   25.5042 N   0  0  0  0  0  0  0  0  0  0  0  0
   10.9430  -16.7554   27.8620 C   0  0  0  0  0  0  0  0  0  0  0  0
   10.0130  -17.5513   28.1893 O   0  0  0  0  0  0  0  0  0  0  0  0
   12.0269  -16.7218   28.7303 O   0  0  0  0  0  0  0  0  0  0  0  0
  2  3  1  0
  2  1  1  0
  3  4  1  6
  5  6  1  1
  5  3  1  0
  7  5  1  0
  8  7  2  0
  9  7  1  0
 10  9  1  0
 11 12  1  0
 10 11  1  6
 12 13  1  0
 13 14  2  0
 15 16  2  0
 15 10  1  0
 17 13  1  0
 18 19  1  0
 19 20  1  0
 20 22  1  0
 20 21  1  1
 22 23  1  6
 23 15  1  0
 24 22  1  0
 25 24  2  0
 26 24  1  0
M  END
$$$$
