IEI.pdb
     RDKit          3D

 26 25  0  0  1  0  0  0  0  0999 V2000
    7.1881  -11.7083   19.7727 C   0  0  0  0  0  0  0  0  0  0  0  0
    7.5316  -13.1552   19.5410 C   0  0  0  0  0  0  0  0  0  0  0  0
    7.6081  -13.9331   20.8388 C   0  0  2  0  0  0  0  0  0  0  0  0
    8.7413  -13.3312   21.6441 C   0  0  0  0  0  0  0  0  0  0  0  0
    7.8445  -15.4100   20.5784 C   0  0  2  0  0  0  0  0  0  0  0  0
    6.7158  -15.9505   19.8766 N   0  0  0  0  0  0  0  0  0  0  0  0
    7.9388  -16.0538   21.9338 C   0  0  0  0  0  0  0  0  0  0  0  0
    6.9136  -16.1716   22.6578 O   0  0  0  0  0  0  0  0  0  0  0  0
    9.1618  -16.5458   22.4443 N   0  0  0  0  0  0  0  0  0  0  0  0
    9.2986  -17.1299   23.7899 C   0  0  1  0  0  0  0  0  0  0  0  0
   10.2931  -18.2518   23.7226 C   0  0  0  0  0  0  0  0  0  0  0  0
   10.4961  -18.8937   25.0548 C   0  0  0  0  0  0  0  0  0  0  0  0
   11.4985  -20.0304   24.9035 C   0  0  0  0  0  0  0  0  0  0  0  0
   12.0670  -20.4482   25.9373 O   0  0  0  0  0  0  0  0  0  0  0  0
    9.7946  -16.1006   24.7408 C   0  0  0  0  0  0  0  0  0  0  0  0
   10.7274  -15.3538   24.3373 O   0  0  0  0  0  0  0  0  0  0  0  0
   11.7797  -20.5904   23.6703 O   0  0  0  0  0  0  0  0  0  0  0  0
    6.7656  -12.4276   26.6219 C   0  0  0  0  0  0  0  0  0  0  0  0
    7.9751  -13.2148   26.1780 C   0  0  0  0  0  0  0  0  0  0  0  0
    8.5614  -13.9244   27.3707 C   0  0  2  0  0  0  0  0  0  0  0  0
    9.1567  -12.7871   28.2241 C   0  0  0  0  0  0  0  0  0  0  0  0
    9.6609  -14.9062   27.0015 C   0  0  2  0  0  0  0  0  0  0  0  0
    9.2937  -15.9026   26.0461 N   0  0  0  0  0  0  0  0  0  0  0  0
   10.3578  -15.5017   28.1347 C   0  0  0  0  0  0  0  0  0  0  0  0
   10.0077  -16.6408   28.5652 O   0  0  0  0  0  0  0  0  0  0  0  0
   11.4152  -14.9107   28.8149 O   0  0  0  0  0  0  0  0  0  0  0  0
  2  3  1  0
  2  1  1  0
  3  4  1  1
  5  6  1  6
  5  3  1  0
  7  5  1  0
  8  7  2  0
  9  7  1  0
 10  9  1  0
 11 12  1  0
 10 11  1  6
 12 13  1  0
 13 14  2  0
 15 16  2  0
 15 10  1  0
 17 13  1  0
 18 19  1  0
 19 20  1  0
 20 22  1  0
 20 21  1  1
 22 23  1  1
 23 15  1  0
 24 22  1  0
 25 24  2  0
 26 24  1  0
M  END
$$$$
