IEI.pdb
     RDKit          3D

 26 25  0  0  1  0  0  0  0  0999 V2000
    7.2768  -11.7639   19.5359 C   0  0  0  0  0  0  0  0  0  0  0  0
    7.7819  -13.1605   19.2917 C   0  0  0  0  0  0  0  0  0  0  0  0
    7.7843  -13.9906   20.5592 C   0  0  2  0  0  0  0  0  0  0  0  0
    8.6359  -13.2475   21.5679 C   0  0  0  0  0  0  0  0  0  0  0  0
    8.3308  -15.3832   20.3001 C   0  0  2  0  0  0  0  0  0  0  0  0
    7.4381  -16.0830   19.4216 N   0  0  0  0  0  0  0  0  0  0  0  0
    8.3486  -16.0702   21.6373 C   0  0  0  0  0  0  0  0  0  0  0  0
    7.2753  -16.4672   22.1659 O   0  0  0  0  0  0  0  0  0  0  0  0
    9.5508  -16.2961   22.3459 N   0  0  0  0  0  0  0  0  0  0  0  0
    9.5991  -16.9413   23.6694 C   0  0  1  0  0  0  0  0  0  0  0  0
   10.6482  -18.0139   23.6378 C   0  0  0  0  0  0  0  0  0  0  0  0
   10.3496  -19.0515   22.6072 C   0  0  0  0  0  0  0  0  0  0  0  0
   11.4580  -20.0960   22.6278 C   0  0  0  0  0  0  0  0  0  0  0  0
   12.0987  -20.2458   23.6924 O   0  0  0  0  0  0  0  0  0  0  0  0
    9.9615  -15.9410   24.7076 C   0  0  0  0  0  0  0  0  0  0  0  0
   10.9689  -15.2184   24.4762 O   0  0  0  0  0  0  0  0  0  0  0  0
   11.7558  -20.8598   21.5136 O   0  0  0  0  0  0  0  0  0  0  0  0
    6.5026  -12.4659   26.5439 C   0  0  0  0  0  0  0  0  0  0  0  0
    7.7523  -13.1960   26.1140 C   0  0  0  0  0  0  0  0  0  0  0  0
    8.3476  -13.8926   27.3099 C   0  0  2  0  0  0  0  0  0  0  0  0
    8.8478  -12.7386   28.2012 C   0  0  0  0  0  0  0  0  0  0  0  0
    9.5153  -14.7978   26.9546 C   0  0  2  0  0  0  0  0  0  0  0  0
    9.2592  -15.7454   25.9168 N   0  0  0  0  0  0  0  0  0  0  0  0
   10.1670  -15.4339   28.0927 C   0  0  0  0  0  0  0  0  0  0  0  0
    9.8500  -16.6150   28.4244 O   0  0  0  0  0  0  0  0  0  0  0  0
   11.1449  -14.8396   28.8804 O   0  0  0  0  0  0  0  0  0  0  0  0
  2  3  1  0
  2  1  1  0
  3  4  1  1
  5  6  1  6
  5  3  1  0
  7  5  1  0
  8  7  2  0
  9  7  1  0
 10  9  1  0
 11 12  1  0
 10 11  1  6
 12 13  1  0
 13 14  2  0
 15 16  2  0
 15 10  1  0
 17 13  1  0
 18 19  1  0
 19 20  1  0
 20 22  1  0
 20 21  1  1
 22 23  1  6
 23 15  1  0
 24 22  1  0
 25 24  2  0
 26 24  1  0
M  END
$$$$
