IEI.pdb
     RDKit          3D

 26 25  0  0  1  0  0  0  0  0999 V2000
    7.6195  -11.9006   18.2539 C   0  0  0  0  0  0  0  0  0  0  0  0
    7.9884  -13.3583   18.1908 C   0  0  0  0  0  0  0  0  0  0  0  0
    7.9075  -14.0215   19.5506 C   0  0  2  0  0  0  0  0  0  0  0  0
    8.9012  -13.3092   20.4451 C   0  0  0  0  0  0  0  0  0  0  0  0
    8.2197  -15.5043   19.4557 C   0  0  2  0  0  0  0  0  0  0  0  0
    7.2271  -16.1427   18.6399 N   0  0  0  0  0  0  0  0  0  0  0  0
    8.1210  -16.0331   20.8596 C   0  0  0  0  0  0  0  0  0  0  0  0
    6.9956  -16.1925   21.4047 O   0  0  0  0  0  0  0  0  0  0  0  0
    9.2682  -16.3682   21.6146 N   0  0  0  0  0  0  0  0  0  0  0  0
    9.2037  -16.9505   22.9664 C   0  0  1  0  0  0  0  0  0  0  0  0
   10.2881  -17.9801   23.0931 C   0  0  0  0  0  0  0  0  0  0  0  0
   11.6389  -17.3969   22.8420 C   0  0  0  0  0  0  0  0  0  0  0  0
   12.6744  -18.5117   22.9092 C   0  0  0  0  0  0  0  0  0  0  0  0
   12.9149  -19.0179   24.0283 O   0  0  0  0  0  0  0  0  0  0  0  0
    9.4219  -15.8906   23.9855 C   0  0  0  0  0  0  0  0  0  0  0  0
   10.3153  -15.0358   23.7369 O   0  0  0  0  0  0  0  0  0  0  0  0
   13.3338  -18.9585   21.7782 O   0  0  0  0  0  0  0  0  0  0  0  0
    6.9866  -11.4460   26.8296 C   0  0  0  0  0  0  0  0  0  0  0  0
    7.8771  -12.6161   27.1728 C   0  0  0  0  0  0  0  0  0  0  0  0
    7.7314  -13.6707   26.1069 C   0  0  2  0  0  0  0  0  0  0  0  0
    6.3439  -14.2848   26.3790 C   0  0  0  0  0  0  0  0  0  0  0  0
    8.7896  -14.7579   26.1928 C   0  0  2  0  0  0  0  0  0  0  0  0
    8.7014  -15.7757   25.1944 N   0  0  0  0  0  0  0  0  0  0  0  0
    8.9648  -15.3404   27.5174 C   0  0  0  0  0  0  0  0  0  0  0  0
    9.3078  -14.6058   28.4913 O   0  0  0  0  0  0  0  0  0  0  0  0
    8.7828  -16.6832   27.8236 O   0  0  0  0  0  0  0  0  0  0  0  0
  2  3  1  0
  2  1  1  0
  3  4  1  1
  5  6  1  6
  5  3  1  0
  7  5  1  0
  8  7  2  0
  9  7  1  0
 10  9  1  0
 11 12  1  0
 10 11  1  6
 12 13  1  0
 13 14  2  0
 15 16  2  0
 15 10  1  0
 17 13  1  0
 18 19  1  0
 19 20  1  0
 20 22  1  0
 20 21  1  1
 22 23  1  6
 23 15  1  0
 24 22  1  0
 25 24  2  0
 26 24  1  0
M  END
$$$$
