IEI.pdb
     RDKit          3D

 26 25  0  0  1  0  0  0  0  0999 V2000
    7.4207  -11.8366   19.0454 C   0  0  0  0  0  0  0  0  0  0  0  0
    7.8805  -13.2653   18.9337 C   0  0  0  0  0  0  0  0  0  0  0  0
    7.9303  -13.9505   20.2841 C   0  0  2  0  0  0  0  0  0  0  0  0
    8.9153  -13.1737   21.1334 C   0  0  0  0  0  0  0  0  0  0  0  0
    8.3515  -15.4026   20.1457 C   0  0  2  0  0  0  0  0  0  0  0  0
    7.3951  -16.0940   19.3298 N   0  0  0  0  0  0  0  0  0  0  0  0
    8.3186  -15.9718   21.5367 C   0  0  0  0  0  0  0  0  0  0  0  0
    7.2206  -16.1371   22.1335 O   0  0  0  0  0  0  0  0  0  0  0  0
    9.4989  -16.3395   22.2222 N   0  0  0  0  0  0  0  0  0  0  0  0
    9.4971  -16.9546   23.5610 C   0  0  1  0  0  0  0  0  0  0  0  0
   10.5236  -18.0490   23.5831 C   0  0  0  0  0  0  0  0  0  0  0  0
   10.2769  -19.0627   22.5157 C   0  0  0  0  0  0  0  0  0  0  0  0
   11.3927  -20.0987   22.5561 C   0  0  0  0  0  0  0  0  0  0  0  0
   11.0734  -21.2924   22.7553 O   0  0  0  0  0  0  0  0  0  0  0  0
    9.8519  -15.9381   24.5859 C   0  0  0  0  0  0  0  0  0  0  0  0
   10.8594  -15.2173   24.3493 O   0  0  0  0  0  0  0  0  0  0  0  0
   12.7182  -19.7445   22.3801 O   0  0  0  0  0  0  0  0  0  0  0  0
    6.7006  -12.1852   26.2631 C   0  0  0  0  0  0  0  0  0  0  0  0
    7.9314  -12.9923   25.9266 C   0  0  0  0  0  0  0  0  0  0  0  0
    8.3379  -13.7920   27.1370 C   0  0  2  0  0  0  0  0  0  0  0  0
    8.8749  -12.7324   28.1193 C   0  0  0  0  0  0  0  0  0  0  0  0
    9.4299  -14.8072   26.8438 C   0  0  2  0  0  0  0  0  0  0  0  0
    9.1422  -15.7253   25.7879 N   0  0  0  0  0  0  0  0  0  0  0  0
    9.9501  -15.5039   28.0136 C   0  0  0  0  0  0  0  0  0  0  0  0
    9.5369  -16.6690   28.2918 O   0  0  0  0  0  0  0  0  0  0  0  0
   10.8971  -14.9866   28.8886 O   0  0  0  0  0  0  0  0  0  0  0  0
  2  3  1  0
  2  1  1  0
  3  4  1  1
  5  6  1  6
  5  3  1  0
  7  5  1  0
  8  7  2  0
  9  7  1  0
 10  9  1  0
 11 12  1  0
 10 11  1  6
 12 13  1  0
 13 14  2  0
 15 16  2  0
 15 10  1  0
 17 13  1  0
 18 19  1  0
 19 20  1  0
 20 22  1  0
 20 21  1  1
 22 23  1  6
 23 15  1  0
 24 22  1  0
 25 24  2  0
 26 24  1  0
M  END
$$$$
