IEI.pdb
     RDKit          3D

 26 25  0  0  1  0  0  0  0  0999 V2000
    7.5682  -12.0481   19.2459 C   0  0  0  0  0  0  0  0  0  0  0  0
    7.6635  -13.5501   19.2409 C   0  0  0  0  0  0  0  0  0  0  0  0
    7.9423  -14.1036   20.6234 C   0  0  2  0  0  0  0  0  0  0  0  0
    9.2209  -13.4506   21.1070 C   0  0  0  0  0  0  0  0  0  0  0  0
    8.0772  -15.6155   20.5906 C   0  0  2  0  0  0  0  0  0  0  0  0
    6.8533  -16.1865   20.1064 N   0  0  0  0  0  0  0  0  0  0  0  0
    8.2895  -16.0377   22.0178 C   0  0  0  0  0  0  0  0  0  0  0  0
    7.3390  -15.9952   22.8448 O   0  0  0  0  0  0  0  0  0  0  0  0
    9.5440  -16.4926   22.4842 N   0  0  0  0  0  0  0  0  0  0  0  0
    9.7471  -17.0671   23.8255 C   0  0  1  0  0  0  0  0  0  0  0  0
   10.9285  -17.9911   23.7734 C   0  0  0  0  0  0  0  0  0  0  0  0
   10.7298  -19.0903   22.7834 C   0  0  0  0  0  0  0  0  0  0  0  0
   12.0624  -19.3900   22.1096 C   0  0  0  0  0  0  0  0  0  0  0  0
   13.0879  -19.4076   22.8270 O   0  0  0  0  0  0  0  0  0  0  0  0
   10.0239  -15.9831   24.8042 C   0  0  0  0  0  0  0  0  0  0  0  0
   10.8816  -15.1201   24.4719 O   0  0  0  0  0  0  0  0  0  0  0  0
   12.1494  -19.6361   20.7512 O   0  0  0  0  0  0  0  0  0  0  0  0
    6.4846  -12.7190   26.6003 C   0  0  0  0  0  0  0  0  0  0  0  0
    7.8159  -13.3171   26.2133 C   0  0  0  0  0  0  0  0  0  0  0  0
    8.4086  -14.0090   27.4132 C   0  0  2  0  0  0  0  0  0  0  0  0
    8.8490  -12.8507   28.3301 C   0  0  0  0  0  0  0  0  0  0  0  0
    9.6142  -14.8688   27.0726 C   0  0  2  0  0  0  0  0  0  0  0  0
    9.3951  -15.8542   26.0619 N   0  0  0  0  0  0  0  0  0  0  0  0
   10.3019  -15.4442   28.2218 C   0  0  0  0  0  0  0  0  0  0  0  0
   10.9675  -14.6977   28.9998 O   0  0  0  0  0  0  0  0  0  0  0  0
   10.2944  -16.7924   28.5569 O   0  0  0  0  0  0  0  0  0  0  0  0
  2  3  1  0
  2  1  1  0
  3  4  1  6
  5  6  1  1
  5  3  1  0
  7  5  1  0
  8  7  2  0
  9  7  1  0
 10  9  1  0
 11 12  1  0
 10 11  1  6
 12 13  1  0
 13 14  2  0
 15 16  2  0
 15 10  1  0
 17 13  1  0
 18 19  1  0
 19 20  1  0
 20 22  1  0
 20 21  1  1
 22 23  1  6
 23 15  1  0
 24 22  1  0
 25 24  2  0
 26 24  1  0
M  END
$$$$
