IEI.pdb
     RDKit          3D

 26 25  0  0  1  0  0  0  0  0999 V2000
    6.0922  -11.5883   26.9868 C   0  0  0  0  0  0  0  0  0  0  0  0
    5.7007  -12.6338   25.9773 C   0  0  0  0  0  0  0  0  0  0  0  0
    6.8178  -13.6269   25.7296 C   0  0  2  0  0  0  0  0  0  0  0  0
    7.9977  -12.8365   25.2023 C   0  0  0  0  0  0  0  0  0  0  0  0
    6.3893  -14.6973   24.7418 C   0  0  2  0  0  0  0  0  0  0  0  0
    5.1589  -15.2844   25.1888 N   0  0  0  0  0  0  0  0  0  0  0  0
    7.4737  -15.7381   24.7715 C   0  0  0  0  0  0  0  0  0  0  0  0
    7.5958  -16.5054   25.7641 O   0  0  0  0  0  0  0  0  0  0  0  0
    8.3869  -15.8970   23.7041 N   0  0  0  0  0  0  0  0  0  0  0  0
    9.5303  -16.8249   23.7509 C   0  0  1  0  0  0  0  0  0  0  0  0
   10.2614  -16.7452   22.4427 C   0  0  0  0  0  0  0  0  0  0  0  0
   11.5186  -17.5496   22.4599 C   0  0  0  0  0  0  0  0  0  0  0  0
   12.1532  -17.4970   21.0764 C   0  0  0  0  0  0  0  0  0  0  0  0
   11.7994  -18.3574   20.2391 O   0  0  0  0  0  0  0  0  0  0  0  0
   10.4557  -16.4336   24.8465 C   0  0  0  0  0  0  0  0  0  0  0  0
   11.3697  -15.6146   24.5557 O   0  0  0  0  0  0  0  0  0  0  0  0
   13.0904  -16.5353   20.7443 O   0  0  0  0  0  0  0  0  0  0  0  0
   10.0172  -13.0298   28.2357 C   0  0  0  0  0  0  0  0  0  0  0  0
   10.5856  -14.1063   27.3425 C   0  0  0  0  0  0  0  0  0  0  0  0
   10.6838  -15.3898   28.1252 C   0  0  2  0  0  0  0  0  0  0  0  0
   11.7044  -15.0708   29.2355 C   0  0  0  0  0  0  0  0  0  0  0  0
   11.1895  -16.5585   27.2962 C   0  0  2  0  0  0  0  0  0  0  0  0
   10.3771  -16.9076   26.1742 N   0  0  0  0  0  0  0  0  0  0  0  0
   11.5556  -17.7424   28.0636 C   0  0  0  0  0  0  0  0  0  0  0  0
   10.7396  -18.7062   28.1678 O   0  0  0  0  0  0  0  0  0  0  0  0
   12.7677  -17.9189   28.7191 O   0  0  0  0  0  0  0  0  0  0  0  0
  2  3  1  0
  2  1  1  0
  3  4  1  6
  5  6  1  1
  5  3  1  0
  7  5  1  0
  8  7  2  0
  9  7  1  0
 10  9  1  0
 11 12  1  0
 10 11  1  6
 12 13  1  0
 13 14  2  0
 15 16  2  0
 15 10  1  0
 17 13  1  0
 18 19  1  0
 19 20  1  0
 20 22  1  0
 20 21  1  1
 22 23  1  6
 23 15  1  0
 24 22  1  0
 25 24  2  0
 26 24  1  0
M  END
$$$$
