IEI.pdb
     RDKit          3D

 26 25  0  0  1  0  0  0  0  0999 V2000
    7.5637  -12.0424   18.9453 C   0  0  0  0  0  0  0  0  0  0  0  0
    8.2480  -13.3750   18.8004 C   0  0  0  0  0  0  0  0  0  0  0  0
    8.0993  -14.2254   20.0454 C   0  0  2  0  0  0  0  0  0  0  0  0
    8.6784  -13.4254   21.1941 C   0  0  0  0  0  0  0  0  0  0  0  0
    8.8143  -15.5555   19.8881 C   0  0  2  0  0  0  0  0  0  0  0  0
    8.2016  -16.2958   18.8227 N   0  0  0  0  0  0  0  0  0  0  0  0
    8.6042  -16.2879   21.1841 C   0  0  0  0  0  0  0  0  0  0  0  0
    7.8939  -17.3287   21.2219 O   0  0  0  0  0  0  0  0  0  0  0  0
    9.1853  -15.8468   22.3949 N   0  0  0  0  0  0  0  0  0  0  0  0
    9.4976  -16.7492   23.5168 C   0  0  1  0  0  0  0  0  0  0  0  0
   10.5871  -17.6862   23.0845 C   0  0  0  0  0  0  0  0  0  0  0  0
   10.0394  -18.9852   22.5940 C   0  0  0  0  0  0  0  0  0  0  0  0
   11.1989  -19.8779   22.1716 C   0  0  0  0  0  0  0  0  0  0  0  0
   11.2048  -20.3097   20.9968 O   0  0  0  0  0  0  0  0  0  0  0  0
    9.9729  -15.9607   24.6839 C   0  0  0  0  0  0  0  0  0  0  0  0
   11.1200  -15.4443   24.5942 O   0  0  0  0  0  0  0  0  0  0  0  0
   12.2173  -20.2075   23.0478 O   0  0  0  0  0  0  0  0  0  0  0  0
    6.9256  -12.1360   26.3866 C   0  0  0  0  0  0  0  0  0  0  0  0
    8.0482  -13.0758   26.0173 C   0  0  0  0  0  0  0  0  0  0  0  0
    8.4924  -13.8161   27.2520 C   0  0  2  0  0  0  0  0  0  0  0  0
    9.1168  -12.7200   28.1379 C   0  0  0  0  0  0  0  0  0  0  0  0
    9.5324  -14.8863   26.9657 C   0  0  2  0  0  0  0  0  0  0  0  0
    9.2331  -15.7500   25.8680 N   0  0  0  0  0  0  0  0  0  0  0  0
    9.9619  -15.6515   28.1296 C   0  0  0  0  0  0  0  0  0  0  0  0
    9.3742  -16.7339   28.4273 O   0  0  0  0  0  0  0  0  0  0  0  0
   11.0000  -15.2882   28.9784 O   0  0  0  0  0  0  0  0  0  0  0  0
  2  3  1  0
  2  1  1  0
  3  4  1  1
  5  6  1  6
  5  3  1  0
  7  5  1  0
  8  7  2  0
  9  7  1  0
 10  9  1  0
 11 12  1  0
 10 11  1  6
 12 13  1  0
 13 14  2  0
 15 16  2  0
 15 10  1  0
 17 13  1  0
 18 19  1  0
 19 20  1  0
 20 22  1  0
 20 21  1  1
 22 23  1  6
 23 15  1  0
 24 22  1  0
 25 24  2  0
 26 24  1  0
M  END
$$$$
