IEI.pdb
     RDKit          3D

 26 25  0  0  1  0  0  0  0  0999 V2000
    7.5276  -11.7177   18.7652 C   0  0  0  0  0  0  0  0  0  0  0  0
    8.0516  -13.1134   18.5586 C   0  0  0  0  0  0  0  0  0  0  0  0
    8.0579  -13.9114   19.8465 C   0  0  2  0  0  0  0  0  0  0  0  0
    8.9811  -13.1882   20.8055 C   0  0  0  0  0  0  0  0  0  0  0  0
    8.5247  -15.3359   19.6053 C   0  0  2  0  0  0  0  0  0  0  0  0
    7.6131  -15.9837   18.7065 N   0  0  0  0  0  0  0  0  0  0  0  0
    8.4670  -16.0169   20.9444 C   0  0  0  0  0  0  0  0  0  0  0  0
    7.3945  -16.0344   21.6066 O   0  0  0  0  0  0  0  0  0  0  0  0
    9.5954  -16.6557   21.5075 N   0  0  0  0  0  0  0  0  0  0  0  0
    9.6136  -17.2065   22.8738 C   0  0  1  0  0  0  0  0  0  0  0  0
   10.8143  -18.0960   23.0122 C   0  0  0  0  0  0  0  0  0  0  0  0
   10.8902  -18.7187   24.3665 C   0  0  0  0  0  0  0  0  0  0  0  0
   12.0947  -19.6499   24.4112 C   0  0  0  0  0  0  0  0  0  0  0  0
   13.1148  -19.2553   25.0195 O   0  0  0  0  0  0  0  0  0  0  0  0
    9.7132  -16.1022   23.8638 C   0  0  0  0  0  0  0  0  0  0  0  0
   10.6228  -15.2488   23.6766 O   0  0  0  0  0  0  0  0  0  0  0  0
   12.0740  -20.8924   23.8035 O   0  0  0  0  0  0  0  0  0  0  0  0
    6.6749  -11.7313   26.3528 C   0  0  0  0  0  0  0  0  0  0  0  0
    7.7330  -12.7421   26.7249 C   0  0  0  0  0  0  0  0  0  0  0  0
    7.7062  -13.8688   25.7251 C   0  0  2  0  0  0  0  0  0  0  0  0
    6.3491  -14.5556   25.9755 C   0  0  0  0  0  0  0  0  0  0  0  0
    8.8260  -14.8756   25.9286 C   0  0  2  0  0  0  0  0  0  0  0  0
    8.8652  -15.9445   24.9818 N   0  0  0  0  0  0  0  0  0  0  0  0
    8.9583  -15.3794   27.2899 C   0  0  0  0  0  0  0  0  0  0  0  0
    8.6051  -16.5653   27.5628 O   0  0  0  0  0  0  0  0  0  0  0  0
    9.4569  -14.6486   28.3610 O   0  0  0  0  0  0  0  0  0  0  0  0
  2  3  1  0
  2  1  1  0
  3  4  1  1
  5  6  1  6
  5  3  1  0
  7  5  1  0
  8  7  2  0
  9  7  1  0
 10  9  1  0
 11 12  1  0
 10 11  1  6
 12 13  1  0
 13 14  2  0
 15 16  2  0
 15 10  1  0
 17 13  1  0
 18 19  1  0
 19 20  1  0
 20 22  1  0
 20 21  1  1
 22 23  1  6
 23 15  1  0
 24 22  1  0
 25 24  2  0
 26 24  1  0
M  END
$$$$
