IEI.pdb
     RDKit          3D

 26 25  0  0  1  0  0  0  0  0999 V2000
    7.0519  -11.8310   19.4028 C   0  0  0  0  0  0  0  0  0  0  0  0
    7.7213  -13.1536   19.1427 C   0  0  0  0  0  0  0  0  0  0  0  0
    7.8701  -13.9709   20.4098 C   0  0  2  0  0  0  0  0  0  0  0  0
    8.6435  -13.1169   21.3934 C   0  0  0  0  0  0  0  0  0  0  0  0
    8.5897  -15.2794   20.1355 C   0  0  2  0  0  0  0  0  0  0  0  0
    7.8196  -16.0536   19.2049 N   0  0  0  0  0  0  0  0  0  0  0  0
    8.6431  -16.0002   21.4538 C   0  0  0  0  0  0  0  0  0  0  0  0
    7.5858  -16.4249   21.9930 O   0  0  0  0  0  0  0  0  0  0  0  0
    9.8620  -16.2280   22.1325 N   0  0  0  0  0  0  0  0  0  0  0  0
    9.9430  -16.8843   23.4490 C   0  0  1  0  0  0  0  0  0  0  0  0
   11.1146  -17.8221   23.4418 C   0  0  0  0  0  0  0  0  0  0  0  0
   11.0091  -18.8332   22.3490 C   0  0  0  0  0  0  0  0  0  0  0  0
   12.4104  -19.2963   21.9727 C   0  0  0  0  0  0  0  0  0  0  0  0
   12.6780  -19.4161   20.7559 O   0  0  0  0  0  0  0  0  0  0  0  0
   10.1462  -15.8648   24.5115 C   0  0  0  0  0  0  0  0  0  0  0  0
   11.1001  -15.0556   24.3505 O   0  0  0  0  0  0  0  0  0  0  0  0
   13.3641  -19.5780   22.9342 O   0  0  0  0  0  0  0  0  0  0  0  0
    6.9218  -12.1409   25.7678 C   0  0  0  0  0  0  0  0  0  0  0  0
    8.1443  -13.0108   25.5989 C   0  0  0  0  0  0  0  0  0  0  0  0
    8.3700  -13.7890   26.8691 C   0  0  2  0  0  0  0  0  0  0  0  0
    8.7726  -12.7134   27.8972 C   0  0  0  0  0  0  0  0  0  0  0  0
    9.4839  -14.8158   26.7512 C   0  0  2  0  0  0  0  0  0  0  0  0
    9.3496  -15.7406   25.6708 N   0  0  0  0  0  0  0  0  0  0  0  0
    9.8152  -15.5067   27.9911 C   0  0  0  0  0  0  0  0  0  0  0  0
    9.3561  -16.6671   28.2111 O   0  0  0  0  0  0  0  0  0  0  0  0
   10.6221  -14.9886   28.9964 O   0  0  0  0  0  0  0  0  0  0  0  0
  2  3  1  0
  2  1  1  0
  3  4  1  1
  5  6  1  6
  5  3  1  0
  7  5  1  0
  8  7  2  0
  9  7  1  0
 10  9  1  0
 11 12  1  0
 10 11  1  6
 12 13  1  0
 13 14  2  0
 15 16  2  0
 15 10  1  0
 17 13  1  0
 18 19  1  0
 19 20  1  0
 20 22  1  0
 20 21  1  1
 22 23  1  6
 23 15  1  0
 24 22  1  0
 25 24  2  0
 26 24  1  0
M  END
$$$$
