TNI.pdb
     RDKit          3D

 24 23  0  0  1  0  0  0  0  0999 V2000
   21.4650  -10.2015  -22.5064 C   0  0  0  0  0  0  0  0  0  0  0  0
   21.3016   -9.7590  -21.0839 C   0  0  1  0  0  0  0  0  0  0  0  0
   20.0428   -9.2164  -20.8765 O   0  0  0  0  0  0  0  0  0  0  0  0
   21.5159  -10.8687  -20.0789 C   0  0  2  0  0  0  0  0  0  0  0  0
   20.6838  -12.0085  -20.3160 N   0  0  0  0  0  0  0  0  0  0  0  0
   21.3886  -10.3682  -18.6766 C   0  0  0  0  0  0  0  0  0  0  0  0
   20.2467  -10.1734  -18.1884 O   0  0  0  0  0  0  0  0  0  0  0  0
   25.4518  -10.3627  -15.2388 N   0  0  0  0  0  0  0  0  0  0  0  0
   24.3556  -11.0044  -15.8656 C   0  0  0  0  0  0  0  0  0  0  0  0
   24.6303  -11.9236  -16.6669 O   0  0  0  0  0  0  0  0  0  0  0  0
   23.0088  -10.5704  -15.5512 C   0  0  0  0  0  0  0  0  0  0  0  0
   22.3228   -9.6521  -16.4825 C   0  0  2  0  0  0  0  0  0  0  0  0
   22.5253  -10.1032  -17.8715 N   0  0  0  0  0  0  0  0  0  0  0  0
   22.5755   -8.2226  -16.3740 C   0  0  0  0  0  0  0  0  0  0  0  0
   23.5237   -7.7149  -17.0487 O   0  0  0  0  0  0  0  0  0  0  0  0
   19.9324   -4.6298  -18.5301 C   0  0  0  0  0  0  0  0  0  0  0  0
   20.9507   -5.2933  -17.7212 C   0  0  0  0  0  0  0  0  0  0  0  0
   21.0533   -5.1251  -16.2636 C   0  0  2  0  0  0  0  0  0  0  0  0
   21.0491   -3.6203  -15.9700 C   0  0  0  0  0  0  0  0  0  0  0  0
   22.0794   -5.8578  -15.5587 C   0  0  2  0  0  0  0  0  0  0  0  0
   21.8723   -7.3170  -15.5939 N   0  0  0  0  0  0  0  0  0  0  0  0
   22.4953   -5.5342  -14.2132 C   0  0  0  0  0  0  0  0  0  0  0  0
   22.0183   -6.2283  -13.2347 O   0  0  0  0  0  0  0  0  0  0  0  0
   23.3658   -4.5612  -13.7770 O   0  0  0  0  0  0  0  0  0  0  0  0
  2  3  1  0
  2  1  1  6
  4  2  1  0
  4  5  1  6
  6  7  2  0
  6  4  1  0
  9  8  1  0
  9 11  1  0
 10  9  2  0
 12 11  1  1
 12 13  1  0
 13  6  1  0
 14 12  1  0
 15 14  2  0
 17 16  1  0
 18 17  1  0
 18 20  1  0
 18 19  1  6
 20 22  1  0
 20 21  1  1
 21 14  1  0
 22 24  1  0
 23 22  2  0
M  END
$$$$
