TNI.pdb
     RDKit          3D

 24 23  0  0  1  0  0  0  0  0999 V2000
   27.3355  -18.7832  -16.3722 C   0  0  0  0  0  0  0  0  0  0  0  0
   27.7467  -20.0736  -17.0139 C   0  0  1  0  0  0  0  0  0  0  0  0
   28.7930  -19.8730  -17.9011 O   0  0  0  0  0  0  0  0  0  0  0  0
   28.1590  -21.1366  -16.0203 C   0  0  2  0  0  0  0  0  0  0  0  0
   28.4817  -22.3865  -16.6378 N   0  0  0  0  0  0  0  0  0  0  0  0
   27.1418  -21.2966  -14.9374 C   0  0  0  0  0  0  0  0  0  0  0  0
   26.1485  -22.0439  -15.1243 O   0  0  0  0  0  0  0  0  0  0  0  0
   24.6205  -21.2498  -10.3471 N   0  0  0  0  0  0  0  0  0  0  0  0
   25.9379  -20.7618  -10.1669 C   0  0  0  0  0  0  0  0  0  0  0  0
   26.3006  -20.5554   -8.9887 O   0  0  0  0  0  0  0  0  0  0  0  0
   26.7723  -20.5339  -11.3301 C   0  0  0  0  0  0  0  0  0  0  0  0
   26.2258  -20.8407  -12.6675 C   0  0  2  0  0  0  0  0  0  0  0  0
   27.2620  -20.6257  -13.6940 N   0  0  0  0  0  0  0  0  0  0  0  0
   24.9745  -20.2184  -13.0752 C   0  0  0  0  0  0  0  0  0  0  0  0
   24.9842  -19.0006  -13.4346 O   0  0  0  0  0  0  0  0  0  0  0  0
   21.2355  -19.3001  -17.1923 C   0  0  0  0  0  0  0  0  0  0  0  0
   21.3425  -19.4655  -15.7456 C   0  0  0  0  0  0  0  0  0  0  0  0
   22.4963  -20.1035  -15.0938 C   0  0  2  0  0  0  0  0  0  0  0  0
   22.7733  -21.4203  -15.8287 C   0  0  0  0  0  0  0  0  0  0  0  0
   22.4910  -20.2246  -13.6543 C   0  0  2  0  0  0  0  0  0  0  0  0
   23.7281  -20.8246  -13.1224 N   0  0  0  0  0  0  0  0  0  0  0  0
   21.3977  -20.8160  -12.9174 C   0  0  0  0  0  0  0  0  0  0  0  0
   21.5672  -21.9816  -12.3887 O   0  0  0  0  0  0  0  0  0  0  0  0
   20.1400  -20.3157  -12.6667 O   0  0  0  0  0  0  0  0  0  0  0  0
  2  3  1  0
  2  1  1  1
  4  2  1  0
  4  5  1  6
  6  7  2  0
  6  4  1  0
  9  8  1  0
  9 11  1  0
 10  9  2  0
 12 11  1  1
 12 13  1  0
 13  6  1  0
 14 12  1  0
 15 14  2  0
 17 16  1  0
 18 17  1  0
 18 20  1  0
 18 19  1  6
 20 22  1  0
 20 21  1  6
 21 14  1  0
 22 24  1  0
 23 22  2  0
M  END
$$$$
