TNI.pdb
     RDKit          3D

 24 23  0  0  1  0  0  0  0  0999 V2000
   25.1766  -24.8878  -19.4322 C   0  0  0  0  0  0  0  0  0  0  0  0
   25.2637  -24.0136  -18.2180 C   0  0  1  0  0  0  0  0  0  0  0  0
   24.6374  -24.6092  -17.1341 O   0  0  0  0  0  0  0  0  0  0  0  0
   26.6827  -23.6714  -17.8220 C   0  0  2  0  0  0  0  0  0  0  0  0
   27.4685  -24.8232  -17.5005 N   0  0  0  0  0  0  0  0  0  0  0  0
   26.7145  -22.6526  -16.7292 C   0  0  0  0  0  0  0  0  0  0  0  0
   27.6635  -22.6561  -15.9049 O   0  0  0  0  0  0  0  0  0  0  0  0
   27.8410  -19.2723  -17.0714 N   0  0  0  0  0  0  0  0  0  0  0  0
   26.5828  -18.6428  -16.9080 C   0  0  0  0  0  0  0  0  0  0  0  0
   26.4386  -17.5310  -17.4607 O   0  0  0  0  0  0  0  0  0  0  0  0
   25.5568  -19.3061  -16.1280 C   0  0  0  0  0  0  0  0  0  0  0  0
   25.8488  -20.6354  -15.5542 C   0  0  2  0  0  0  0  0  0  0  0  0
   25.6988  -21.6730  -16.5908 N   0  0  0  0  0  0  0  0  0  0  0  0
   25.1668  -21.0393  -14.3332 C   0  0  0  0  0  0  0  0  0  0  0  0
   24.2074  -21.8672  -14.4123 O   0  0  0  0  0  0  0  0  0  0  0  0
   25.6267  -21.1494   -8.0681 C   0  0  0  0  0  0  0  0  0  0  0  0
   24.9293  -21.2722   -9.3448 C   0  0  0  0  0  0  0  0  0  0  0  0
   25.5134  -20.8397  -10.6235 C   0  0  2  0  0  0  0  0  0  0  0  0
   26.0858  -19.4322  -10.4183 C   0  0  0  0  0  0  0  0  0  0  0  0
   24.7212  -20.9820  -11.8230 C   0  0  2  0  0  0  0  0  0  0  0  0
   25.4566  -20.6123  -13.0460 N   0  0  0  0  0  0  0  0  0  0  0  0
   23.3926  -20.4303  -11.9598 C   0  0  0  0  0  0  0  0  0  0  0  0
   22.4091  -21.0359  -11.3829 O   0  0  0  0  0  0  0  0  0  0  0  0
   22.9785  -19.3038  -12.6339 O   0  0  0  0  0  0  0  0  0  0  0  0
  2  3  1  0
  2  1  1  6
  4  2  1  0
  4  5  1  1
  6  7  2  0
  6  4  1  0
  9  8  1  0
  9 11  1  0
 10  9  2  0
 12 11  1  6
 12 13  1  0
 13  6  1  0
 14 12  1  0
 15 14  2  0
 17 16  1  0
 18 17  1  0
 18 20  1  0
 18 19  1  1
 20 22  1  0
 20 21  1  6
 21 14  1  0
 22 24  1  0
 23 22  2  0
M  END
$$$$
