TNI.pdb
     RDKit          3D

 24 23  0  0  1  0  0  0  0  0999 V2000
   17.6056  -14.0321  -15.3095 C   0  0  0  0  0  0  0  0  0  0  0  0
   16.5245  -14.3296  -16.3038 C   0  0  1  0  0  0  0  0  0  0  0  0
   15.8152  -15.4634  -15.9383 O   0  0  0  0  0  0  0  0  0  0  0  0
   15.5455  -13.1917  -16.4886 C   0  0  2  0  0  0  0  0  0  0  0  0
   14.4829  -13.5075  -17.3935 N   0  0  0  0  0  0  0  0  0  0  0  0
   16.2437  -11.9265  -16.8691 C   0  0  0  0  0  0  0  0  0  0  0  0
   16.4985  -11.6977  -18.0786 O   0  0  0  0  0  0  0  0  0  0  0  0
   17.0213   -6.7856  -18.1314 N   0  0  0  0  0  0  0  0  0  0  0  0
   17.0055   -7.3413  -16.8287 C   0  0  0  0  0  0  0  0  0  0  0  0
   17.4723   -6.6303  -15.9127 O   0  0  0  0  0  0  0  0  0  0  0  0
   16.4626   -8.6712  -16.6342 C   0  0  0  0  0  0  0  0  0  0  0  0
   17.3910   -9.7812  -16.3389 C   0  0  2  0  0  0  0  0  0  0  0  0
   16.6319  -10.9666  -15.9003 N   0  0  0  0  0  0  0  0  0  0  0  0
   18.5127   -9.5401  -15.4428 C   0  0  0  0  0  0  0  0  0  0  0  0
   18.3294   -9.6413  -14.1905 O   0  0  0  0  0  0  0  0  0  0  0  0
   24.2030  -11.0537  -14.2892 C   0  0  0  0  0  0  0  0  0  0  0  0
   23.1274  -10.0713  -14.1917 C   0  0  0  0  0  0  0  0  0  0  0  0
   21.9886  -10.0329  -15.1218 C   0  0  2  0  0  0  0  0  0  0  0  0
   22.5547  -10.0341  -16.5467 C   0  0  0  0  0  0  0  0  0  0  0  0
   20.9555   -9.0475  -14.9016 C   0  0  2  0  0  0  0  0  0  0  0  0
   19.8066   -9.2045  -15.8119 N   0  0  0  0  0  0  0  0  0  0  0  0
   21.2235   -7.6300  -14.8188 C   0  0  0  0  0  0  0  0  0  0  0  0
   21.1448   -6.9218  -15.8955 O   0  0  0  0  0  0  0  0  0  0  0  0
   21.5616   -6.8662  -13.7246 O   0  0  0  0  0  0  0  0  0  0  0  0
  2  3  1  0
  2  1  1  1
  4  2  1  0
  4  5  1  6
  6  7  2  0
  6  4  1  0
  9  8  1  0
  9 11  1  0
 10  9  2  0
 12 11  1  1
 12 13  1  0
 13  6  1  0
 14 12  1  0
 15 14  2  0
 17 16  1  0
 18 17  1  0
 18 20  1  0
 18 19  1  6
 20 22  1  0
 20 21  1  6
 21 14  1  0
 22 24  1  0
 23 22  2  0
M  END
$$$$
