TNI.pdb
     RDKit          3D

 24 23  0  0  1  0  0  0  0  0999 V2000
   29.6777  -21.1212  -18.0529 C   0  0  0  0  0  0  0  0  0  0  0  0
   28.4071  -20.8378  -17.3105 C   0  0  1  0  0  0  0  0  0  0  0  0
   27.3520  -21.5639  -17.8412 O   0  0  0  0  0  0  0  0  0  0  0  0
   28.4949  -21.1340  -15.8299 C   0  0  2  0  0  0  0  0  0  0  0  0
   28.8178  -22.4995  -15.5494 N   0  0  0  0  0  0  0  0  0  0  0  0
   27.2613  -20.6941  -15.1104 C   0  0  0  0  0  0  0  0  0  0  0  0
   26.8458  -19.5165  -15.2537 O   0  0  0  0  0  0  0  0  0  0  0  0
   23.8821  -23.9305  -14.5286 N   0  0  0  0  0  0  0  0  0  0  0  0
   23.4876  -22.7280  -13.8926 C   0  0  0  0  0  0  0  0  0  0  0  0
   22.5962  -22.8234  -13.0215 O   0  0  0  0  0  0  0  0  0  0  0  0
   24.1234  -21.4835  -14.2774 C   0  0  0  0  0  0  0  0  0  0  0  0
   25.3448  -21.0594  -13.5635 C   0  0  2  0  0  0  0  0  0  0  0  0
   26.5376  -21.5709  -14.2629 N   0  0  0  0  0  0  0  0  0  0  0  0
   25.4487  -21.3163  -12.1343 C   0  0  0  0  0  0  0  0  0  0  0  0
   25.9940  -22.3943  -11.7435 O   0  0  0  0  0  0  0  0  0  0  0  0
   28.4234  -19.5030   -8.5587 C   0  0  0  0  0  0  0  0  0  0  0  0
   27.3648  -20.2729   -9.2054 C   0  0  0  0  0  0  0  0  0  0  0  0
   25.9379  -20.0911   -8.8985 C   0  0  2  0  0  0  0  0  0  0  0  0
   25.7667  -20.2489   -7.3830 C   0  0  0  0  0  0  0  0  0  0  0  0
   24.9691  -20.8259   -9.6782 C   0  0  2  0  0  0  0  0  0  0  0  0
   25.0089  -20.4881  -11.1127 N   0  0  0  0  0  0  0  0  0  0  0  0
   23.5731  -20.9182   -9.3164 C   0  0  0  0  0  0  0  0  0  0  0  0
   22.7201  -20.1860   -9.9514 O   0  0  0  0  0  0  0  0  0  0  0  0
   22.9672  -21.7019   -8.3607 O   0  0  0  0  0  0  0  0  0  0  0  0
  2  3  1  0
  2  1  1  6
  4  2  1  0
  4  5  1  6
  6  7  2  0
  6  4  1  0
  9  8  1  0
  9 11  1  0
 10  9  2  0
 12 11  1  6
 12 13  1  0
 13  6  1  0
 14 12  1  0
 15 14  2  0
 17 16  1  0
 18 17  1  0
 18 20  1  0
 18 19  1  1
 20 22  1  0
 20 21  1  6
 21 14  1  0
 22 24  1  0
 23 22  2  0
M  END
$$$$
