TNI.pdb
     RDKit          3D

 24 23  0  0  1  0  0  0  0  0999 V2000
   20.3868  -14.7011  -14.8035 C   0  0  0  0  0  0  0  0  0  0  0  0
   20.4681  -15.2987  -16.1754 C   0  0  1  0  0  0  0  0  0  0  0  0
   20.5121  -16.6828  -16.1099 O   0  0  0  0  0  0  0  0  0  0  0  0
   19.3211  -14.8986  -17.0764 C   0  0  2  0  0  0  0  0  0  0  0  0
   19.3845  -15.5085  -18.3694 N   0  0  0  0  0  0  0  0  0  0  0  0
   19.1901  -13.4128  -17.1672 C   0  0  0  0  0  0  0  0  0  0  0  0
   19.9460  -12.7690  -17.9380 O   0  0  0  0  0  0  0  0  0  0  0  0
   16.7120  -10.8294  -18.8475 N   0  0  0  0  0  0  0  0  0  0  0  0
   16.0786  -10.5822  -17.6050 C   0  0  0  0  0  0  0  0  0  0  0  0
   14.8737  -10.2525  -17.6482 O   0  0  0  0  0  0  0  0  0  0  0  0
   16.8438  -10.7216  -16.3817 C   0  0  0  0  0  0  0  0  0  0  0  0
   18.2295  -11.2259  -16.4642 C   0  0  2  0  0  0  0  0  0  0  0  0
   18.2314  -12.6990  -16.4043 N   0  0  0  0  0  0  0  0  0  0  0  0
   19.2306  -10.6824  -15.5577 C   0  0  0  0  0  0  0  0  0  0  0  0
   19.1954  -11.0180  -14.3336 O   0  0  0  0  0  0  0  0  0  0  0  0
   24.1729  -11.9440  -14.6116 C   0  0  0  0  0  0  0  0  0  0  0  0
   22.9360  -11.1896  -14.4311 C   0  0  0  0  0  0  0  0  0  0  0  0
   22.5940  -10.0049  -15.2329 C   0  0  2  0  0  0  0  0  0  0  0  0
   23.8007   -9.0596  -15.1997 C   0  0  0  0  0  0  0  0  0  0  0  0
   21.3295   -9.3514  -14.9869 C   0  0  2  0  0  0  0  0  0  0  0  0
   20.2582   -9.8120  -15.8888 N   0  0  0  0  0  0  0  0  0  0  0  0
   21.1910   -7.9167  -14.8835 C   0  0  0  0  0  0  0  0  0  0  0  0
   20.8288   -7.2534  -15.9303 O   0  0  0  0  0  0  0  0  0  0  0  0
   21.3859   -7.0953  -13.7963 O   0  0  0  0  0  0  0  0  0  0  0  0
  2  3  1  0
  2  1  1  1
  4  2  1  0
  4  5  1  6
  6  7  2  0
  6  4  1  0
  9  8  1  0
  9 11  1  0
 10  9  2  0
 12 11  1  1
 12 13  1  0
 13  6  1  0
 14 12  1  0
 15 14  2  0
 17 16  1  0
 18 17  1  0
 18 20  1  0
 18 19  1  1
 20 22  1  0
 20 21  1  6
 21 14  1  0
 22 24  1  0
 23 22  2  0
M  END
$$$$
