TNI.pdb
     RDKit          3D

 24 23  0  0  1  0  0  0  0  0999 V2000
   18.0934  -23.3269   -9.8370 C   0  0  0  0  0  0  0  0  0  0  0  0
   18.3109  -24.6578  -10.4909 C   0  0  1  0  0  0  0  0  0  0  0  0
   19.0728  -24.5246  -11.6414 O   0  0  0  0  0  0  0  0  0  0  0  0
   18.9796  -25.6707   -9.5886 C   0  0  2  0  0  0  0  0  0  0  0  0
   19.3017  -26.8930  -10.2594 N   0  0  0  0  0  0  0  0  0  0  0  0
   18.1807  -25.9097   -8.3486 C   0  0  0  0  0  0  0  0  0  0  0  0
   17.1258  -26.5905   -8.4114 O   0  0  0  0  0  0  0  0  0  0  0  0
   16.9865  -27.3105   -3.7488 N   0  0  0  0  0  0  0  0  0  0  0  0
   18.1309  -26.4894   -3.5996 C   0  0  0  0  0  0  0  0  0  0  0  0
   18.7446  -26.5788   -2.5143 O   0  0  0  0  0  0  0  0  0  0  0  0
   18.5178  -25.6122   -4.6867 C   0  0  0  0  0  0  0  0  0  0  0  0
   17.7083  -25.6123   -5.9221 C   0  0  2  0  0  0  0  0  0  0  0  0
   18.5779  -25.3880   -7.0913 N   0  0  0  0  0  0  0  0  0  0  0  0
   16.5347  -24.7539   -5.9936 C   0  0  0  0  0  0  0  0  0  0  0  0
   16.6828  -23.5408   -6.3379 O   0  0  0  0  0  0  0  0  0  0  0  0
   12.8133  -26.4153   -8.5913 C   0  0  0  0  0  0  0  0  0  0  0  0
   13.2124  -25.1481   -7.9860 C   0  0  0  0  0  0  0  0  0  0  0  0
   12.9649  -24.8198   -6.5738 C   0  0  2  0  0  0  0  0  0  0  0  0
   11.6570  -24.0226   -6.5063 C   0  0  0  0  0  0  0  0  0  0  0  0
   14.0433  -24.2446   -5.8037 C   0  0  2  0  0  0  0  0  0  0  0  0
   15.2253  -25.1220   -5.7235 N   0  0  0  0  0  0  0  0  0  0  0  0
   13.8577  -23.6835   -4.4851 C   0  0  0  0  0  0  0  0  0  0  0  0
   13.2359  -22.5575   -4.3741 O   0  0  0  0  0  0  0  0  0  0  0  0
   14.2491  -24.1776   -3.2613 O   0  0  0  0  0  0  0  0  0  0  0  0
  2  3  1  0
  2  1  1  1
  4  2  1  0
  4  5  1  6
  6  7  2  0
  6  4  1  0
  9  8  1  0
  9 11  1  0
 10  9  2  0
 12 11  1  1
 12 13  1  0
 13  6  1  0
 14 12  1  0
 15 14  2  0
 17 16  1  0
 18 17  1  0
 18 20  1  0
 18 19  1  6
 20 22  1  0
 20 21  1  1
 21 14  1  0
 22 24  1  0
 23 22  2  0
M  END
$$$$
