TNI.pdb
     RDKit          3D

 24 23  0  0  1  0  0  0  0  0999 V2000
   18.6125  -19.5399  -14.4657 C   0  0  0  0  0  0  0  0  0  0  0  0
   19.9555  -20.1328  -14.7671 C   0  0  1  0  0  0  0  0  0  0  0  0
   20.0948  -20.3765  -16.1248 O   0  0  0  0  0  0  0  0  0  0  0  0
   21.1114  -19.2685  -14.3150 C   0  0  2  0  0  0  0  0  0  0  0  0
   21.2225  -18.0488  -15.0551 N   0  0  0  0  0  0  0  0  0  0  0  0
   22.3950  -20.0335  -14.3060 C   0  0  0  0  0  0  0  0  0  0  0  0
   22.4886  -21.0807  -13.6171 O   0  0  0  0  0  0  0  0  0  0  0  0
   27.3011  -21.6707  -15.2721 N   0  0  0  0  0  0  0  0  0  0  0  0
   26.7407  -21.0363  -16.4077 C   0  0  0  0  0  0  0  0  0  0  0  0
   27.4003  -21.1037  -17.4673 O   0  0  0  0  0  0  0  0  0  0  0  0
   25.4647  -20.3603  -16.2817 C   0  0  0  0  0  0  0  0  0  0  0  0
   24.7619  -20.4058  -14.9834 C   0  0  2  0  0  0  0  0  0  0  0  0
   23.5217  -19.6118  -15.0566 N   0  0  0  0  0  0  0  0  0  0  0  0
   25.5004  -20.0782  -13.7724 C   0  0  0  0  0  0  0  0  0  0  0  0
   25.6529  -18.8573  -13.4590 O   0  0  0  0  0  0  0  0  0  0  0  0
   24.1696  -20.5645   -8.9648 C   0  0  0  0  0  0  0  0  0  0  0  0
   24.9204  -20.3340  -10.1955 C   0  0  0  0  0  0  0  0  0  0  0  0
   26.2356  -20.9375  -10.4586 C   0  0  2  0  0  0  0  0  0  0  0  0
   27.1102  -20.6983   -9.2222 C   0  0  0  0  0  0  0  0  0  0  0  0
   26.8920  -20.6346  -11.7092 C   0  0  2  0  0  0  0  0  0  0  0  0
   26.0740  -20.9779  -12.8867 N   0  0  0  0  0  0  0  0  0  0  0  0
   28.2423  -21.0510  -12.0114 C   0  0  0  0  0  0  0  0  0  0  0  0
   28.4215  -22.1794  -12.6127 O   0  0  0  0  0  0  0  0  0  0  0  0
   29.4332  -20.4092  -11.7568 O   0  0  0  0  0  0  0  0  0  0  0  0
  2  3  1  0
  2  1  1  6
  4  2  1  0
  4  5  1  6
  6  7  2  0
  6  4  1  0
  9  8  1  0
  9 11  1  0
 10  9  2  0
 12 11  1  6
 12 13  1  0
 13  6  1  0
 14 12  1  0
 15 14  2  0
 17 16  1  0
 18 17  1  0
 18 20  1  0
 18 19  1  1
 20 22  1  0
 20 21  1  6
 21 14  1  0
 22 24  1  0
 23 22  2  0
M  END
$$$$
