TNI.pdb
     RDKit          3D

 24 23  0  0  1  0  0  0  0  0999 V2000
   15.3653  -13.2382  -16.2115 C   0  0  0  0  0  0  0  0  0  0  0  0
   16.1627  -12.1444  -15.5682 C   0  0  1  0  0  0  0  0  0  0  0  0
   16.0823  -10.9741  -16.3070 O   0  0  0  0  0  0  0  0  0  0  0  0
   15.7381  -11.8439  -14.1480 C   0  0  2  0  0  0  0  0  0  0  0  0
   14.3524  -11.5046  -14.0369 N   0  0  0  0  0  0  0  0  0  0  0  0
   16.6167  -10.8098  -13.5221 C   0  0  0  0  0  0  0  0  0  0  0  0
   17.8653  -10.9502  -13.5610 O   0  0  0  0  0  0  0  0  0  0  0  0
   18.9622   -6.6374  -11.8217 N   0  0  0  0  0  0  0  0  0  0  0  0
   18.9733   -7.2535  -13.0970 C   0  0  0  0  0  0  0  0  0  0  0  0
   19.8579   -6.8724  -13.8937 O   0  0  0  0  0  0  0  0  0  0  0  0
   17.9824   -8.2670  -13.4009 C   0  0  0  0  0  0  0  0  0  0  0  0
   17.0100   -8.6456  -12.3556 C   0  0  2  0  0  0  0  0  0  0  0  0
   16.0821   -9.6645  -12.8795 N   0  0  0  0  0  0  0  0  0  0  0  0
   16.2716   -7.5956  -11.6689 C   0  0  0  0  0  0  0  0  0  0  0  0
   15.4317   -6.9066  -12.3263 O   0  0  0  0  0  0  0  0  0  0  0  0
   12.4121   -6.7346   -7.3144 C   0  0  0  0  0  0  0  0  0  0  0  0
   13.5631   -6.1800   -8.0210 C   0  0  0  0  0  0  0  0  0  0  0  0
   14.4494   -6.9892   -8.8712 C   0  0  2  0  0  0  0  0  0  0  0  0
   14.9326   -8.1799   -8.0347 C   0  0  0  0  0  0  0  0  0  0  0  0
   15.5009   -6.3189   -9.6004 C   0  0  2  0  0  0  0  0  0  0  0  0
   16.3798   -7.2507  -10.3301 N   0  0  0  0  0  0  0  0  0  0  0  0
   16.3620   -5.3233   -9.0042 C   0  0  0  0  0  0  0  0  0  0  0  0
   17.5903   -5.6357   -8.7580 O   0  0  0  0  0  0  0  0  0  0  0  0
   16.0784   -4.0265   -8.6403 O   0  0  0  0  0  0  0  0  0  0  0  0
  2  3  1  0
  2  1  1  6
  4  2  1  0
  4  5  1  6
  6  7  2  0
  6  4  1  0
  9  8  1  0
  9 11  1  0
 10  9  2  0
 12 11  1  6
 12 13  1  0
 13  6  1  0
 14 12  1  0
 15 14  2  0
 17 16  1  0
 18 17  1  0
 18 20  1  0
 18 19  1  1
 20 22  1  0
 20 21  1  1
 21 14  1  0
 22 24  1  0
 23 22  2  0
M  END
$$$$
