TNI.pdb
     RDKit          3D

 24 23  0  0  1  0  0  0  0  0999 V2000
   20.4095  -12.5186  -21.1591 C   0  0  0  0  0  0  0  0  0  0  0  0
   20.3703  -11.8414  -19.8227 C   0  0  1  0  0  0  0  0  0  0  0  0
   21.2039  -12.4823  -18.9192 O   0  0  0  0  0  0  0  0  0  0  0  0
   20.7557  -10.3799  -19.8758 C   0  0  2  0  0  0  0  0  0  0  0  0
   22.0751  -10.1660  -20.3868 N   0  0  0  0  0  0  0  0  0  0  0  0
   20.5558   -9.7135  -18.5533 C   0  0  0  0  0  0  0  0  0  0  0  0
   19.4023   -9.6512  -18.0577 O   0  0  0  0  0  0  0  0  0  0  0  0
   21.4153  -10.8373  -15.1115 N   0  0  0  0  0  0  0  0  0  0  0  0
   22.4609   -9.9041  -14.9066 C   0  0  0  0  0  0  0  0  0  0  0  0
   23.3681  -10.2462  -14.1177 O   0  0  0  0  0  0  0  0  0  0  0  0
   22.4224   -8.6349  -15.6058 C   0  0  0  0  0  0  0  0  0  0  0  0
   21.3488   -8.3998  -16.5925 C   0  0  2  0  0  0  0  0  0  0  0  0
   21.6358   -9.1437  -17.8326 N   0  0  0  0  0  0  0  0  0  0  0  0
   20.9666   -7.0297  -16.9025 C   0  0  0  0  0  0  0  0  0  0  0  0
   21.6154   -6.3992  -17.7934 O   0  0  0  0  0  0  0  0  0  0  0  0
   17.2398   -3.3946  -19.3764 C   0  0  0  0  0  0  0  0  0  0  0  0
   18.1151   -3.5716  -18.2214 C   0  0  0  0  0  0  0  0  0  0  0  0
   18.6212   -4.8839  -17.7912 C   0  0  2  0  0  0  0  0  0  0  0  0
   17.4169   -5.8237  -17.6591 C   0  0  0  0  0  0  0  0  0  0  0  0
   19.5311   -4.9349  -16.6705 C   0  0  2  0  0  0  0  0  0  0  0  0
   19.9358   -6.3083  -16.3194 N   0  0  0  0  0  0  0  0  0  0  0  0
   19.2845   -4.2477  -15.4235 C   0  0  0  0  0  0  0  0  0  0  0  0
   18.8475   -4.9293  -14.4177 O   0  0  0  0  0  0  0  0  0  0  0  0
   19.4515   -2.9178  -15.1098 O   0  0  0  0  0  0  0  0  0  0  0  0
  2  3  1  0
  2  1  1  6
  4  2  1  0
  4  5  1  1
  6  7  2  0
  6  4  1  0
  9  8  1  0
  9 11  1  0
 10  9  2  0
 12 11  1  1
 12 13  1  0
 13  6  1  0
 14 12  1  0
 15 14  2  0
 17 16  1  0
 18 17  1  0
 18 20  1  0
 18 19  1  1
 20 22  1  0
 20 21  1  1
 21 14  1  0
 22 24  1  0
 23 22  2  0
M  END
$$$$
