TNI.pdb
     RDKit          3D

 24 23  0  0  1  0  0  0  0  0999 V2000
   18.6019  -13.2406  -17.8700 C   0  0  0  0  0  0  0  0  0  0  0  0
   19.6565  -14.1790  -18.3731 C   0  0  1  0  0  0  0  0  0  0  0  0
   19.1065  -15.4063  -18.7097 O   0  0  0  0  0  0  0  0  0  0  0  0
   20.4134  -13.6493  -19.5706 C   0  0  2  0  0  0  0  0  0  0  0  0
   21.3356  -14.5980  -20.1157 N   0  0  0  0  0  0  0  0  0  0  0  0
   21.0727  -12.3432  -19.2663 C   0  0  0  0  0  0  0  0  0  0  0  0
   22.2012  -12.3316  -18.7128 O   0  0  0  0  0  0  0  0  0  0  0  0
   22.1226   -7.2014  -18.8405 N   0  0  0  0  0  0  0  0  0  0  0  0
   21.5002   -7.5145  -20.0736 C   0  0  0  0  0  0  0  0  0  0  0  0
   21.4419   -6.5955  -20.9189 O   0  0  0  0  0  0  0  0  0  0  0  0
   20.9779   -8.8504  -20.2824 C   0  0  0  0  0  0  0  0  0  0  0  0
   21.1488   -9.8550  -19.2133 C   0  0  2  0  0  0  0  0  0  0  0  0
   20.4602  -11.1046  -19.5848 N   0  0  0  0  0  0  0  0  0  0  0  0
   20.8218   -9.4865  -17.8434 C   0  0  0  0  0  0  0  0  0  0  0  0
   19.6162   -9.5766  -17.4557 O   0  0  0  0  0  0  0  0  0  0  0  0
   23.7951  -11.5317  -14.1073 C   0  0  0  0  0  0  0  0  0  0  0  0
   22.7048  -10.8547  -14.8033 C   0  0  0  0  0  0  0  0  0  0  0  0
   22.3523   -9.4467  -14.5655 C   0  0  2  0  0  0  0  0  0  0  0  0
   22.0112   -9.2998  -13.0780 C   0  0  0  0  0  0  0  0  0  0  0  0
   21.3992   -8.8188  -15.4510 C   0  0  2  0  0  0  0  0  0  0  0  0
   21.7076   -9.0359  -16.8762 N   0  0  0  0  0  0  0  0  0  0  0  0
   20.9970   -7.4367  -15.3234 C   0  0  0  0  0  0  0  0  0  0  0  0
   19.9394   -7.1614  -14.6360 O   0  0  0  0  0  0  0  0  0  0  0  0
   21.5873   -6.3033  -15.8350 O   0  0  0  0  0  0  0  0  0  0  0  0
  2  3  1  0
  2  1  1  6
  4  2  1  0
  4  5  1  1
  6  7  2  0
  6  4  1  0
  9  8  1  0
  9 11  1  0
 10  9  2  0
 12 11  1  6
 12 13  1  0
 13  6  1  0
 14 12  1  0
 15 14  2  0
 17 16  1  0
 18 17  1  0
 18 20  1  0
 18 19  1  1
 20 22  1  0
 20 21  1  6
 21 14  1  0
 22 24  1  0
 23 22  2  0
M  END
$$$$
