TNI.pdb
     RDKit          3D

 24 23  0  0  1  0  0  0  0  0999 V2000
   28.6139  -19.2486  -16.3022 C   0  0  0  0  0  0  0  0  0  0  0  0
   27.7575  -18.8367  -15.1434 C   0  0  1  0  0  0  0  0  0  0  0  0
   27.9812  -17.5097  -14.8104 O   0  0  0  0  0  0  0  0  0  0  0  0
   26.2773  -19.0250  -15.3906 C   0  0  2  0  0  0  0  0  0  0  0  0
   25.7506  -18.1150  -16.3613 N   0  0  0  0  0  0  0  0  0  0  0  0
   25.5010  -18.9887  -14.1142 C   0  0  0  0  0  0  0  0  0  0  0  0
   25.1923  -17.8808  -13.6068 O   0  0  0  0  0  0  0  0  0  0  0  0
   22.9145  -19.7525  -14.6026 N   0  0  0  0  0  0  0  0  0  0  0  0
   22.2832  -20.4223  -13.5260 C   0  0  0  0  0  0  0  0  0  0  0  0
   21.0996  -20.7806  -13.7082 O   0  0  0  0  0  0  0  0  0  0  0  0
   23.0261  -20.6498  -12.3023 C   0  0  0  0  0  0  0  0  0  0  0  0
   24.3749  -20.0627  -12.1705 C   0  0  2  0  0  0  0  0  0  0  0  0
   25.0978  -20.1751  -13.4505 N   0  0  0  0  0  0  0  0  0  0  0  0
   25.2253  -20.4946  -11.0708 C   0  0  0  0  0  0  0  0  0  0  0  0
   26.1100  -21.3784  -11.2908 O   0  0  0  0  0  0  0  0  0  0  0  0
   27.6957  -17.4806   -7.4518 C   0  0  0  0  0  0  0  0  0  0  0  0
   27.2585  -18.6333   -8.2337 C   0  0  0  0  0  0  0  0  0  0  0  0
   26.4042  -19.6979   -7.6857 C   0  0  2  0  0  0  0  0  0  0  0  0
   27.1505  -20.3275   -6.5035 C   0  0  0  0  0  0  0  0  0  0  0  0
   25.8351  -20.6603   -8.6002 C   0  0  2  0  0  0  0  0  0  0  0  0
   25.1826  -20.0329   -9.7638 N   0  0  0  0  0  0  0  0  0  0  0  0
   24.9693  -21.7359   -8.1740 C   0  0  0  0  0  0  0  0  0  0  0  0
   23.6961  -21.5257   -8.1336 O   0  0  0  0  0  0  0  0  0  0  0  0
   25.2914  -23.0174   -7.7883 O   0  0  0  0  0  0  0  0  0  0  0  0
  2  3  1  0
  2  1  1  6
  4  2  1  0
  4  5  1  6
  6  7  2  0
  6  4  1  0
  9  8  1  0
  9 11  1  0
 10  9  2  0
 12 11  1  6
 12 13  1  0
 13  6  1  0
 14 12  1  0
 15 14  2  0
 17 16  1  0
 18 17  1  0
 18 20  1  0
 18 19  1  1
 20 22  1  0
 20 21  1  6
 21 14  1  0
 22 24  1  0
 23 22  2  0
M  END
$$$$
