TNI.pdb
     RDKit          3D

 24 23  0  0  1  0  0  0  0  0999 V2000
   15.1702  -13.2183  -18.6604 C   0  0  0  0  0  0  0  0  0  0  0  0
   16.3729  -12.3700  -18.3776 C   0  0  1  0  0  0  0  0  0  0  0  0
   17.2854  -13.0533  -17.5887 O   0  0  0  0  0  0  0  0  0  0  0  0
   17.0818  -11.8937  -19.6259 C   0  0  2  0  0  0  0  0  0  0  0  0
   17.4711  -12.9637  -20.4926 N   0  0  0  0  0  0  0  0  0  0  0  0
   18.2320  -10.9994  -19.2936 C   0  0  0  0  0  0  0  0  0  0  0  0
   19.4052  -11.3830  -19.5311 O   0  0  0  0  0  0  0  0  0  0  0  0
   19.6091   -5.1721  -19.3476 N   0  0  0  0  0  0  0  0  0  0  0  0
   19.9895   -6.5220  -19.1500 C   0  0  0  0  0  0  0  0  0  0  0  0
   21.1957   -6.7311  -18.8975 O   0  0  0  0  0  0  0  0  0  0  0  0
   18.9839   -7.5613  -19.2491 C   0  0  0  0  0  0  0  0  0  0  0  0
   19.2082   -8.8368  -18.5389 C   0  0  2  0  0  0  0  0  0  0  0  0
   18.0405   -9.7198  -18.7133 N   0  0  0  0  0  0  0  0  0  0  0  0
   19.6100   -8.8014  -17.1401 C   0  0  0  0  0  0  0  0  0  0  0  0
   18.7198   -8.9271  -16.2435 O   0  0  0  0  0  0  0  0  0  0  0  0
   23.3528  -11.9228  -15.2852 C   0  0  0  0  0  0  0  0  0  0  0  0
   22.2901  -10.9365  -15.4568 C   0  0  0  0  0  0  0  0  0  0  0  0
   22.3882   -9.5560  -14.9592 C   0  0  2  0  0  0  0  0  0  0  0  0
   22.7803   -9.6245  -13.4785 C   0  0  0  0  0  0  0  0  0  0  0  0
   21.3000   -8.6474  -15.2367 C   0  0  2  0  0  0  0  0  0  0  0  0
   20.8998   -8.6446  -16.6556 N   0  0  0  0  0  0  0  0  0  0  0  0
   21.2958   -7.2681  -14.8059 C   0  0  0  0  0  0  0  0  0  0  0  0
   21.7421   -6.3663  -15.6148 O   0  0  0  0  0  0  0  0  0  0  0  0
   20.8677   -6.7249  -13.6157 O   0  0  0  0  0  0  0  0  0  0  0  0
  2  3  1  0
  2  1  1  6
  4  2  1  0
  4  5  1  1
  6  7  2  0
  6  4  1  0
  9  8  1  0
  9 11  1  0
 10  9  2  0
 12 11  1  1
 12 13  1  0
 13  6  1  0
 14 12  1  0
 15 14  2  0
 17 16  1  0
 18 17  1  0
 18 20  1  0
 18 19  1  1
 20 22  1  0
 20 21  1  6
 21 14  1  0
 22 24  1  0
 23 22  2  0
M  END
$$$$
