GSK.pdb
     RDKit          3D

 20 19  0  0  1  0  0  0  0  0999 V2000
   16.3151  -13.5219  -14.4960 N   0  0  0  0  0  0  0  0  0  0  0  0
   16.1245  -12.0953  -14.3330 C   0  0  0  0  0  0  0  0  0  0  0  0
   17.1118  -11.3780  -15.1497 C   0  0  0  0  0  0  0  0  0  0  0  0
   17.9981  -12.0139  -15.7481 O   0  0  0  0  0  0  0  0  0  0  0  0
   17.2288   -7.2059  -15.5845 O   0  0  0  0  0  0  0  0  0  0  0  0
   17.6014   -7.9951  -16.6627 C   0  0  0  0  0  0  0  0  0  0  0  0
   18.1363   -9.3329  -16.1314 C   0  0  2  0  0  0  0  0  0  0  0  0
   17.1245   -9.9628  -15.3083 N   0  0  0  0  0  0  0  0  0  0  0  0
   19.4019   -9.1246  -15.3849 C   0  0  0  0  0  0  0  0  0  0  0  0
   19.4319   -8.9197  -14.1499 O   0  0  0  0  0  0  0  0  0  0  0  0
   20.6451   -9.1526  -16.0665 N   0  0  0  0  0  0  0  0  0  0  0  0
   21.9019   -8.8557  -15.3762 C   0  0  1  0  0  0  0  0  0  0  0  0
   22.9712   -9.6494  -16.0478 C   0  0  0  0  0  0  0  0  0  0  0  0
   24.3469   -9.4253  -15.4731 C   0  0  0  0  0  0  0  0  0  0  0  0
   25.2873  -10.3045  -16.2895 C   0  0  0  0  0  0  0  0  0  0  0  0
   26.7055  -10.2127  -15.7747 C   0  0  0  0  0  0  0  0  0  0  0  0
   27.5077  -11.1514  -16.5189 N   0  0  0  0  0  0  0  0  0  0  0  0
   22.1395   -7.4184  -15.2818 C   0  0  0  0  0  0  0  0  0  0  0  0
   21.6326   -6.5469  -16.2591 O   0  0  0  0  0  0  0  0  0  0  0  0
   22.7886   -6.8891  -14.3541 O   0  0  0  0  0  0  0  0  0  0  0  0
  1  2  1  0
  3  4  2  0
  3  2  1  0
  5  6  1  0
  7  6  1  1
  7  8  1  0
  8  3  1  0
  9 11  1  0
  9  7  1  0
 10  9  2  0
 12 11  1  0
 12 13  1  6
 13 14  1  0
 14 15  1  0
 15 16  1  0
 16 17  1  0
 18 12  1  0
 19 18  1  0
 20 18  2  0
M  END
$$$$
