GSK.pdb
     RDKit          3D

 20 19  0  0  1  0  0  0  0  0999 V2000
   20.3920  -13.0896  -15.9836 N   0  0  0  0  0  0  0  0  0  0  0  0
   20.8872  -12.3374  -17.1181 C   0  0  0  0  0  0  0  0  0  0  0  0
   20.4379  -10.9437  -17.0089 C   0  0  0  0  0  0  0  0  0  0  0  0
   20.8254  -10.1024  -17.8396 O   0  0  0  0  0  0  0  0  0  0  0  0
   17.1672  -10.0367  -15.1767 O   0  0  0  0  0  0  0  0  0  0  0  0
   17.9574   -8.9041  -15.0461 C   0  0  0  0  0  0  0  0  0  0  0  0
   19.2074   -9.0728  -15.9219 C   0  0  2  0  0  0  0  0  0  0  0  0
   19.5634  -10.4754  -15.9872 N   0  0  0  0  0  0  0  0  0  0  0  0
   20.3224   -8.2458  -15.3973 C   0  0  0  0  0  0  0  0  0  0  0  0
   21.0484   -8.6155  -14.4463 O   0  0  0  0  0  0  0  0  0  0  0  0
   20.6047   -6.9811  -15.9731 N   0  0  0  0  0  0  0  0  0  0  0  0
   21.7551   -6.1845  -15.5416 C   0  0  1  0  0  0  0  0  0  0  0  0
   22.0137   -5.1719  -16.6056 C   0  0  0  0  0  0  0  0  0  0  0  0
   23.2189   -4.3057  -16.3410 C   0  0  0  0  0  0  0  0  0  0  0  0
   23.3026   -3.3386  -17.5164 C   0  0  0  0  0  0  0  0  0  0  0  0
   24.5347   -2.4683  -17.4212 C   0  0  0  0  0  0  0  0  0  0  0  0
   24.6277   -1.6990  -18.6369 N   0  0  0  0  0  0  0  0  0  0  0  0
   21.5716   -5.6582  -14.1922 C   0  0  0  0  0  0  0  0  0  0  0  0
   22.6650   -5.5390  -13.3194 O   0  0  0  0  0  0  0  0  0  0  0  0
   20.4645   -5.2918  -13.7427 O   0  0  0  0  0  0  0  0  0  0  0  0
  1  2  1  0
  3  4  2  0
  3  2  1  0
  5  6  1  0
  7  6  1  1
  7  8  1  0
  8  3  1  0
  9 11  1  0
  9  7  1  0
 10  9  2  0
 12 11  1  0
 12 13  1  6
 13 14  1  0
 14 15  1  0
 15 16  1  0
 16 17  1  0
 18 12  1  0
 19 18  1  0
 20 18  2  0
M  END
$$$$
