GSK.pdb
     RDKit          3D

 20 19  0  0  1  0  0  0  0  0999 V2000
   23.4701  -13.7494  -18.7093 N   0  0  0  0  0  0  0  0  0  0  0  0
   23.8096  -12.3486  -18.8532 C   0  0  0  0  0  0  0  0  0  0  0  0
   23.7471  -11.6974  -17.5386 C   0  0  0  0  0  0  0  0  0  0  0  0
   22.6734  -11.6750  -16.9103 O   0  0  0  0  0  0  0  0  0  0  0  0
   26.8486   -9.3400  -15.9712 O   0  0  0  0  0  0  0  0  0  0  0  0
   26.0390  -10.0089  -15.0649 C   0  0  0  0  0  0  0  0  0  0  0  0
   24.6765  -10.2709  -15.7227 C   0  0  2  0  0  0  0  0  0  0  0  0
   24.8640  -11.0712  -16.9154 N   0  0  0  0  0  0  0  0  0  0  0  0
   23.9910   -8.9892  -16.0221 C   0  0  0  0  0  0  0  0  0  0  0  0
   24.2620   -8.2975  -17.0302 O   0  0  0  0  0  0  0  0  0  0  0  0
   22.9839   -8.4987  -15.1526 N   0  0  0  0  0  0  0  0  0  0  0  0
   22.3024   -7.2289  -15.4119 C   0  0  1  0  0  0  0  0  0  0  0  0
   20.9280   -7.5561  -15.8896 C   0  0  0  0  0  0  0  0  0  0  0  0
   20.0722   -6.3441  -16.1568 C   0  0  0  0  0  0  0  0  0  0  0  0
   18.7209   -6.8813  -16.6142 C   0  0  0  0  0  0  0  0  0  0  0  0
   17.7628   -5.7550  -16.9273 C   0  0  0  0  0  0  0  0  0  0  0  0
   16.4658   -6.3337  -17.1753 N   0  0  0  0  0  0  0  0  0  0  0  0
   22.3808   -6.3300  -14.2642 C   0  0  0  0  0  0  0  0  0  0  0  0
   22.5299   -6.8438  -12.9660 O   0  0  0  0  0  0  0  0  0  0  0  0
   22.3220   -5.0854  -14.3614 O   0  0  0  0  0  0  0  0  0  0  0  0
  1  2  1  0
  3  4  2  0
  3  2  1  0
  5  6  1  0
  7  6  1  6
  7  8  1  0
  8  3  1  0
  9 11  1  0
  9  7  1  0
 10  9  2  0
 12 11  1  0
 12 13  1  1
 13 14  1  0
 14 15  1  0
 15 16  1  0
 16 17  1  0
 18 12  1  0
 19 18  1  0
 20 18  2  0
M  END
$$$$
