GSK.pdb
     RDKit          3D

 20 19  0  0  1  0  0  0  0  0999 V2000
   19.3719  -13.5925  -17.1040 N   0  0  0  0  0  0  0  0  0  0  0  0
   19.7362  -12.3455  -17.7446 C   0  0  0  0  0  0  0  0  0  0  0  0
   19.8105  -11.2843  -16.7324 C   0  0  0  0  0  0  0  0  0  0  0  0
   18.7852  -10.9481  -16.1129 O   0  0  0  0  0  0  0  0  0  0  0  0
   23.3022   -9.1303  -15.7766 O   0  0  0  0  0  0  0  0  0  0  0  0
   22.4074   -9.4498  -14.7659 C   0  0  0  0  0  0  0  0  0  0  0  0
   21.0026   -9.5732  -15.3734 C   0  0  2  0  0  0  0  0  0  0  0  0
   21.0110  -10.5934  -16.4017 N   0  0  0  0  0  0  0  0  0  0  0  0
   20.5504   -8.2624  -15.9023 C   0  0  0  0  0  0  0  0  0  0  0  0
   20.8271   -7.8684  -17.0583 O   0  0  0  0  0  0  0  0  0  0  0  0
   19.7721   -7.3966  -15.0927 N   0  0  0  0  0  0  0  0  0  0  0  0
   19.3136   -6.0961  -15.5855 C   0  0  1  0  0  0  0  0  0  0  0  0
   17.8519   -6.0083  -15.3027 C   0  0  0  0  0  0  0  0  0  0  0  0
   17.2507   -4.6627  -15.6200 C   0  0  0  0  0  0  0  0  0  0  0  0
   15.8068   -4.7272  -15.1352 C   0  0  0  0  0  0  0  0  0  0  0  0
   15.0812   -3.4293  -15.4061 C   0  0  0  0  0  0  0  0  0  0  0  0
   13.7273   -3.5722  -14.9317 N   0  0  0  0  0  0  0  0  0  0  0  0
   20.1300   -5.0034  -15.0652 C   0  0  0  0  0  0  0  0  0  0  0  0
   20.9643   -5.2042  -13.9538 O   0  0  0  0  0  0  0  0  0  0  0  0
   20.1378   -3.8559  -15.5606 O   0  0  0  0  0  0  0  0  0  0  0  0
  1  2  1  0
  3  4  2  0
  3  2  1  0
  5  6  1  0
  7  6  1  6
  7  8  1  0
  8  3  1  0
  9 11  1  0
  9  7  1  0
 10  9  2  0
 12 11  1  0
 12 13  1  1
 13 14  1  0
 14 15  1  0
 15 16  1  0
 16 17  1  0
 18 12  1  0
 19 18  1  0
 20 18  2  0
M  END
$$$$
