GSK.pdb
     RDKit          3D

 20 19  0  0  1  0  0  0  0  0999 V2000
   16.9572   -8.9475  -10.9785 N   0  0  0  0  0  0  0  0  0  0  0  0
   17.2401   -8.9794  -12.3987 C   0  0  0  0  0  0  0  0  0  0  0  0
   18.5028   -8.2758  -12.6573 C   0  0  0  0  0  0  0  0  0  0  0  0
   18.6466   -7.1020  -12.2708 O   0  0  0  0  0  0  0  0  0  0  0  0
   21.4027   -9.7696  -15.1801 O   0  0  0  0  0  0  0  0  0  0  0  0
   21.9005   -8.9863  -14.1491 C   0  0  0  0  0  0  0  0  0  0  0  0
   20.7787   -8.0677  -13.6436 C   0  0  2  0  0  0  0  0  0  0  0  0
   19.6062   -8.8623  -13.3402 N   0  0  0  0  0  0  0  0  0  0  0  0
   20.4841   -7.0116  -14.6437 C   0  0  0  0  0  0  0  0  0  0  0  0
   19.8818   -7.2459  -15.7162 O   0  0  0  0  0  0  0  0  0  0  0  0
   20.8868   -5.6727  -14.4070 N   0  0  0  0  0  0  0  0  0  0  0  0
   20.7073   -4.6302  -15.4195 C   0  0  1  0  0  0  0  0  0  0  0  0
   19.4005   -3.9672  -15.1421 C   0  0  0  0  0  0  0  0  0  0  0  0
   19.0959   -2.8136  -16.0637 C   0  0  0  0  0  0  0  0  0  0  0  0
   17.7575   -2.2513  -15.5985 C   0  0  0  0  0  0  0  0  0  0  0  0
   17.2672   -1.1667  -16.5301 C   0  0  0  0  0  0  0  0  0  0  0  0
   16.0245   -0.6598  -16.0033 N   0  0  0  0  0  0  0  0  0  0  0  0
   21.8667   -3.7463  -15.4957 C   0  0  0  0  0  0  0  0  0  0  0  0
   22.9019   -3.8465  -14.5524 O   0  0  0  0  0  0  0  0  0  0  0  0
   22.0068   -2.8719  -16.3777 O   0  0  0  0  0  0  0  0  0  0  0  0
  1  2  1  0
  3  4  2  0
  3  2  1  0
  5  6  1  0
  7  6  1  6
  7  8  1  0
  8  3  1  0
  9 11  1  0
  9  7  1  0
 10  9  2  0
 12 11  1  0
 12 13  1  1
 13 14  1  0
 14 15  1  0
 15 16  1  0
 16 17  1  0
 18 12  1  0
 19 18  1  0
 20 18  2  0
M  END
$$$$
