GSK.pdb
     RDKit          3D

 20 19  0  0  1  0  0  0  0  0999 V2000
   20.8418  -13.4966  -17.2737 N   0  0  0  0  0  0  0  0  0  0  0  0
   21.8403  -12.5353  -17.6942 C   0  0  0  0  0  0  0  0  0  0  0  0
   22.1599  -11.6455  -16.5707 C   0  0  0  0  0  0  0  0  0  0  0  0
   21.2406  -11.1228  -15.9153 O   0  0  0  0  0  0  0  0  0  0  0  0
   26.0125  -10.2123  -15.7927 O   0  0  0  0  0  0  0  0  0  0  0  0
   25.1826  -10.3850  -14.6946 C   0  0  0  0  0  0  0  0  0  0  0  0
   23.7227  -10.3122  -15.1650 C   0  0  2  0  0  0  0  0  0  0  0  0
   23.4891  -11.3307  -16.1681 N   0  0  0  0  0  0  0  0  0  0  0  0
   23.4106   -8.9544  -15.6763 C   0  0  0  0  0  0  0  0  0  0  0  0
   23.5040   -8.6505  -16.8875 O   0  0  0  0  0  0  0  0  0  0  0  0
   22.9869   -7.9364  -14.7847 N   0  0  0  0  0  0  0  0  0  0  0  0
   22.5878   -6.6135  -15.2693 C   0  0  1  0  0  0  0  0  0  0  0  0
   21.3724   -6.8017  -16.1129 C   0  0  0  0  0  0  0  0  0  0  0  0
   20.7231   -5.5102  -16.5410 C   0  0  0  0  0  0  0  0  0  0  0  0
   19.5016   -5.9101  -17.3607 C   0  0  0  0  0  0  0  0  0  0  0  0
   18.7300   -4.6943  -17.8200 C   0  0  0  0  0  0  0  0  0  0  0  0
   17.5247   -5.1529  -18.4647 N   0  0  0  0  0  0  0  0  0  0  0  0
   22.4624   -5.6535  -14.1765 C   0  0  0  0  0  0  0  0  0  0  0  0
   22.3622   -6.0960  -12.8477 O   0  0  0  0  0  0  0  0  0  0  0  0
   22.4371   -4.4159  -14.3491 O   0  0  0  0  0  0  0  0  0  0  0  0
  1  2  1  0
  3  4  2  0
  3  2  1  0
  5  6  1  0
  7  6  1  6
  7  8  1  0
  8  3  1  0
  9 11  1  0
  9  7  1  0
 10  9  2  0
 12 11  1  0
 12 13  1  1
 13 14  1  0
 14 15  1  0
 15 16  1  0
 16 17  1  0
 18 12  1  0
 19 18  1  0
 20 18  2  0
M  END
$$$$
