GSK.pdb
     RDKit          3D

 20 19  0  0  1  0  0  0  0  0999 V2000
   17.9684   -0.9740  -14.1419 N   0  0  0  0  0  0  0  0  0  0  0  0
   17.7091   -2.3986  -14.1784 C   0  0  0  0  0  0  0  0  0  0  0  0
   18.8027   -3.0722  -14.8903 C   0  0  0  0  0  0  0  0  0  0  0  0
   18.6690   -3.3670  -16.0916 O   0  0  0  0  0  0  0  0  0  0  0  0
   22.3641   -4.3084  -13.0785 O   0  0  0  0  0  0  0  0  0  0  0  0
   22.4389   -3.8432  -14.3832 C   0  0  0  0  0  0  0  0  0  0  0  0
   21.0795   -4.0633  -15.0625 C   0  0  2  0  0  0  0  0  0  0  0  0
   20.0420   -3.4212  -14.2818 N   0  0  0  0  0  0  0  0  0  0  0  0
   20.8176   -5.5134  -15.2390 C   0  0  0  0  0  0  0  0  0  0  0  0
   20.5090   -6.2651  -14.2862 O   0  0  0  0  0  0  0  0  0  0  0  0
   20.9120   -6.1040  -16.5247 N   0  0  0  0  0  0  0  0  0  0  0  0
   20.6435   -7.5283  -16.7330 C   0  0  1  0  0  0  0  0  0  0  0  0
   19.9352   -7.6565  -18.0393 C   0  0  0  0  0  0  0  0  0  0  0  0
   19.5797   -9.0761  -18.4017 C   0  0  0  0  0  0  0  0  0  0  0  0
   18.9108   -9.0014  -19.7695 C   0  0  0  0  0  0  0  0  0  0  0  0
   18.4487  -10.3659  -20.2269 C   0  0  0  0  0  0  0  0  0  0  0  0
   17.7200  -10.1959  -21.4592 N   0  0  0  0  0  0  0  0  0  0  0  0
   21.8520   -8.3333  -16.5819 C   0  0  0  0  0  0  0  0  0  0  0  0
   21.7657   -9.6859  -16.2150 O   0  0  0  0  0  0  0  0  0  0  0  0
   23.0039   -7.8836  -16.7637 O   0  0  0  0  0  0  0  0  0  0  0  0
  1  2  1  0
  3  4  2  0
  3  2  1  0
  5  6  1  0
  7  6  1  1
  7  8  1  0
  8  3  1  0
  9 11  1  0
  9  7  1  0
 10  9  2  0
 12 11  1  0
 12 13  1  6
 13 14  1  0
 14 15  1  0
 15 16  1  0
 16 17  1  0
 18 12  1  0
 19 18  1  0
 20 18  2  0
M  END
$$$$
