GSK.pdb
     RDKit          3D

 20 19  0  0  1  0  0  0  0  0999 V2000
   22.4198  -18.9121  -17.2796 N   0  0  0  0  0  0  0  0  0  0  0  0
   22.0042  -20.2431  -17.6717 C   0  0  0  0  0  0  0  0  0  0  0  0
   21.2897  -20.8762  -16.5560 C   0  0  0  0  0  0  0  0  0  0  0  0
   20.6501  -21.9260  -16.7478 O   0  0  0  0  0  0  0  0  0  0  0  0
   21.4654  -19.6900  -12.4340 O   0  0  0  0  0  0  0  0  0  0  0  0
   21.5077  -20.9986  -12.8924 C   0  0  0  0  0  0  0  0  0  0  0  0
   20.6494  -21.1032  -14.1614 C   0  0  2  0  0  0  0  0  0  0  0  0
   21.2784  -20.3554  -15.2306 N   0  0  0  0  0  0  0  0  0  0  0  0
   19.2697  -20.6264  -13.8939 C   0  0  0  0  0  0  0  0  0  0  0  0
   18.9330  -19.4269  -14.0203 O   0  0  0  0  0  0  0  0  0  0  0  0
   18.2678  -21.5391  -13.4769 N   0  0  0  0  0  0  0  0  0  0  0  0
   16.9312  -21.0827  -13.0903 C   0  0  1  0  0  0  0  0  0  0  0  0
   16.0094  -22.2462  -13.2354 C   0  0  0  0  0  0  0  0  0  0  0  0
   14.5726  -21.9285  -12.9076 C   0  0  0  0  0  0  0  0  0  0  0  0
   13.8295  -23.2584  -12.9616 C   0  0  0  0  0  0  0  0  0  0  0  0
   12.3657  -23.0801  -12.6300 C   0  0  0  0  0  0  0  0  0  0  0  0
   11.7458  -24.3817  -12.6507 N   0  0  0  0  0  0  0  0  0  0  0  0
   16.9393  -20.4356  -11.7817 C   0  0  0  0  0  0  0  0  0  0  0  0
   15.9046  -19.5607  -11.4133 O   0  0  0  0  0  0  0  0  0  0  0  0
   17.8393  -20.6137  -10.9330 O   0  0  0  0  0  0  0  0  0  0  0  0
  1  2  1  0
  3  4  2  0
  3  2  1  0
  5  6  1  0
  7  6  1  1
  7  8  1  0
  8  3  1  0
  9 11  1  0
  9  7  1  0
 10  9  2  0
 12 11  1  0
 12 13  1  1
 13 14  1  0
 14 15  1  0
 15 16  1  0
 16 17  1  0
 18 12  1  0
 19 18  1  0
 20 18  2  0
M  END
$$$$
