GSK.pdb
     RDKit          3D

 20 19  0  0  1  0  0  0  0  0999 V2000
   21.1892  -13.1179  -18.3973 N   0  0  0  0  0  0  0  0  0  0  0  0
   22.0130  -11.9521  -18.6432 C   0  0  0  0  0  0  0  0  0  0  0  0
   22.1841  -11.2065  -17.3899 C   0  0  0  0  0  0  0  0  0  0  0  0
   21.1840  -10.8094  -16.7654 O   0  0  0  0  0  0  0  0  0  0  0  0
   25.8991   -9.9102  -15.9095 O   0  0  0  0  0  0  0  0  0  0  0  0
   24.9124  -10.2330  -14.9894 C   0  0  0  0  0  0  0  0  0  0  0  0
   23.5406  -10.0477  -15.6540 C   0  0  2  0  0  0  0  0  0  0  0  0
   23.4538  -10.8977  -16.8236 N   0  0  0  0  0  0  0  0  0  0  0  0
   23.3184   -8.6202  -15.9934 C   0  0  0  0  0  0  0  0  0  0  0  0
   23.7618   -8.0980  -17.0417 O   0  0  0  0  0  0  0  0  0  0  0  0
   22.5785   -7.7855  -15.1177 N   0  0  0  0  0  0  0  0  0  0  0  0
   22.3426   -6.3735  -15.4253 C   0  0  1  0  0  0  0  0  0  0  0  0
   21.0630   -6.2967  -16.1877 C   0  0  0  0  0  0  0  0  0  0  0  0
   20.6844   -4.8972  -16.6013 C   0  0  0  0  0  0  0  0  0  0  0  0
   19.4025   -5.0360  -17.4146 C   0  0  0  0  0  0  0  0  0  0  0  0
   18.8985   -3.6872  -17.8742 C   0  0  0  0  0  0  0  0  0  0  0  0
   17.6154   -3.8848  -18.5014 N   0  0  0  0  0  0  0  0  0  0  0  0
   22.4228   -5.5397  -14.2296 C   0  0  0  0  0  0  0  0  0  0  0  0
   22.6994   -4.1672  -14.3355 O   0  0  0  0  0  0  0  0  0  0  0  0
   22.2555   -5.9810  -13.0723 O   0  0  0  0  0  0  0  0  0  0  0  0
  1  2  1  0
  3  4  2  0
  3  2  1  0
  5  6  1  0
  7  6  1  6
  7  8  1  0
  8  3  1  0
  9 11  1  0
  9  7  1  0
 10  9  2  0
 12 11  1  0
 12 13  1  1
 13 14  1  0
 14 15  1  0
 15 16  1  0
 16 17  1  0
 18 12  1  0
 19 18  1  0
 20 18  2  0
M  END
$$$$
