GSK.pdb
     RDKit          3D

 20 19  0  0  1  0  0  0  0  0999 V2000
   26.5339  -37.2464  -14.5182 N   0  0  0  0  0  0  0  0  0  0  0  0
   26.5503  -36.0643  -13.6813 C   0  0  0  0  0  0  0  0  0  0  0  0
   26.9547  -34.9054  -14.4873 C   0  0  0  0  0  0  0  0  0  0  0  0
   27.1133  -35.0314  -15.7149 O   0  0  0  0  0  0  0  0  0  0  0  0
   27.7897  -31.4079  -12.7088 O   0  0  0  0  0  0  0  0  0  0  0  0
   27.5289  -31.2003  -14.0554 C   0  0  0  0  0  0  0  0  0  0  0  0
   27.6644  -32.5394  -14.7946 C   0  0  2  0  0  0  0  0  0  0  0  0
   27.1845  -33.6092  -13.9441 N   0  0  0  0  0  0  0  0  0  0  0  0
   29.0706  -32.7589  -15.2147 C   0  0  0  0  0  0  0  0  0  0  0  0
   29.8857  -33.4172  -14.5289 O   0  0  0  0  0  0  0  0  0  0  0  0
   29.5434  -32.2154  -16.4362 N   0  0  0  0  0  0  0  0  0  0  0  0
   30.9014  -32.4803  -16.9157 C   0  0  1  0  0  0  0  0  0  0  0  0
   31.0561  -33.9610  -17.0044 C   0  0  0  0  0  0  0  0  0  0  0  0
   32.3881  -34.4015  -17.5563 C   0  0  0  0  0  0  0  0  0  0  0  0
   32.3211  -35.9220  -17.6415 C   0  0  0  0  0  0  0  0  0  0  0  0
   33.6282  -36.4997  -18.1338 C   0  0  0  0  0  0  0  0  0  0  0  0
   33.4494  -37.9208  -18.2989 N   0  0  0  0  0  0  0  0  0  0  0  0
   31.1983  -31.7345  -18.1352 C   0  0  0  0  0  0  0  0  0  0  0  0
   32.5279  -31.4974  -18.5192 O   0  0  0  0  0  0  0  0  0  0  0  0
   30.3155  -31.2743  -18.8908 O   0  0  0  0  0  0  0  0  0  0  0  0
  1  2  1  0
  3  4  2  0
  3  2  1  0
  5  6  1  0
  7  6  1  1
  7  8  1  0
  8  3  1  0
  9 11  1  0
  9  7  1  0
 10  9  2  0
 12 11  1  0
 12 13  1  6
 13 14  1  0
 14 15  1  0
 15 16  1  0
 16 17  1  0
 18 12  1  0
 19 18  1  0
 20 18  2  0
M  END
$$$$
