GSK.pdb
     RDKit          3D

 20 19  0  0  1  0  0  0  0  0999 V2000
   23.2323  -23.8655  -16.8780 N   0  0  0  0  0  0  0  0  0  0  0  0
   22.5818  -24.8817  -16.0766 C   0  0  0  0  0  0  0  0  0  0  0  0
   21.8192  -24.2359  -15.0007 C   0  0  0  0  0  0  0  0  0  0  0  0
   22.3118  -23.2728  -14.3861 O   0  0  0  0  0  0  0  0  0  0  0  0
   18.0585  -23.4741  -14.9921 O   0  0  0  0  0  0  0  0  0  0  0  0
   18.9151  -22.8914  -14.0697 C   0  0  0  0  0  0  0  0  0  0  0  0
   19.8445  -23.9768  -13.5075 C   0  0  2  0  0  0  0  0  0  0  0  0
   20.5162  -24.6487  -14.6010 N   0  0  0  0  0  0  0  0  0  0  0  0
   19.0789  -24.9281  -12.6643 C   0  0  0  0  0  0  0  0  0  0  0  0
   18.6385  -26.0156  -13.1019 O   0  0  0  0  0  0  0  0  0  0  0  0
   18.8175  -24.6248  -11.3040 N   0  0  0  0  0  0  0  0  0  0  0  0
   17.9848  -25.4966  -10.4728 C   0  0  1  0  0  0  0  0  0  0  0  0
   18.2867  -25.1680   -9.0497 C   0  0  0  0  0  0  0  0  0  0  0  0
   17.4864  -25.9719   -8.0568 C   0  0  0  0  0  0  0  0  0  0  0  0
   17.8562  -25.4242   -6.6831 C   0  0  0  0  0  0  0  0  0  0  0  0
   17.0978  -26.1382   -5.5879 C   0  0  0  0  0  0  0  0  0  0  0  0
   17.4413  -25.5156   -4.3337 N   0  0  0  0  0  0  0  0  0  0  0  0
   16.5784  -25.4274  -10.8582 C   0  0  0  0  0  0  0  0  0  0  0  0
   15.7634  -26.5686  -10.7872 O   0  0  0  0  0  0  0  0  0  0  0  0
   16.0279  -24.3809  -11.2629 O   0  0  0  0  0  0  0  0  0  0  0  0
  1  2  1  0
  3  4  2  0
  3  2  1  0
  5  6  1  0
  7  6  1  6
  7  8  1  0
  8  3  1  0
  9 11  1  0
  9  7  1  0
 10  9  2  0
 12 11  1  0
 12 13  1  1
 13 14  1  0
 14 15  1  0
 15 16  1  0
 16 17  1  0
 18 12  1  0
 19 18  1  0
 20 18  2  0
M  END
$$$$
