GSK.pdb
     RDKit          3D

 20 19  0  0  1  0  0  0  0  0999 V2000
   18.3086  -12.2029  -16.0819 N   0  0  0  0  0  0  0  0  0  0  0  0
   18.0737  -11.0421  -16.9159 C   0  0  0  0  0  0  0  0  0  0  0  0
   18.1678   -9.8284  -16.0949 C   0  0  0  0  0  0  0  0  0  0  0  0
   18.0875   -8.7098  -16.6338 O   0  0  0  0  0  0  0  0  0  0  0  0
   18.1747   -7.6250  -11.8044 O   0  0  0  0  0  0  0  0  0  0  0  0
   18.0820   -8.8309  -12.4838 C   0  0  0  0  0  0  0  0  0  0  0  0
   18.4706   -8.5999  -13.9513 C   0  0  2  0  0  0  0  0  0  0  0  0
   18.3499   -9.8444  -14.6826 N   0  0  0  0  0  0  0  0  0  0  0  0
   19.8416   -8.0392  -14.0416 C   0  0  0  0  0  0  0  0  0  0  0  0
   20.8667   -8.7203  -13.8106 O   0  0  0  0  0  0  0  0  0  0  0  0
   20.0347   -6.6812  -14.4015 N   0  0  0  0  0  0  0  0  0  0  0  0
   21.3729   -6.1362  -14.6387 C   0  0  1  0  0  0  0  0  0  0  0  0
   21.3743   -5.5539  -16.0118 C   0  0  0  0  0  0  0  0  0  0  0  0
   22.6891   -4.9313  -16.4072 C   0  0  0  0  0  0  0  0  0  0  0  0
   22.4981   -4.4249  -17.8323 C   0  0  0  0  0  0  0  0  0  0  0  0
   23.7726   -3.8174  -18.3717 C   0  0  0  0  0  0  0  0  0  0  0  0
   23.5438   -3.4603  -19.7496 N   0  0  0  0  0  0  0  0  0  0  0  0
   21.7881   -5.2380  -13.5653 C   0  0  0  0  0  0  0  0  0  0  0  0
   23.1504   -5.0447  -13.2853 O   0  0  0  0  0  0  0  0  0  0  0  0
   20.9827   -4.6041  -12.8502 O   0  0  0  0  0  0  0  0  0  0  0  0
  1  2  1  0
  3  4  2  0
  3  2  1  0
  5  6  1  0
  7  6  1  1
  7  8  1  0
  8  3  1  0
  9 11  1  0
  9  7  1  0
 10  9  2  0
 12 11  1  0
 12 13  1  6
 13 14  1  0
 14 15  1  0
 15 16  1  0
 16 17  1  0
 18 12  1  0
 19 18  1  0
 20 18  2  0
M  END
$$$$
