GSK.pdb
     RDKit          3D

 20 19  0  0  1  0  0  0  0  0999 V2000
   18.7464  -12.9849  -16.5560 N   0  0  0  0  0  0  0  0  0  0  0  0
   19.5686  -11.9936  -17.2188 C   0  0  0  0  0  0  0  0  0  0  0  0
   20.1151  -11.0692  -16.2172 C   0  0  0  0  0  0  0  0  0  0  0  0
   19.3476  -10.3326  -15.5720 O   0  0  0  0  0  0  0  0  0  0  0  0
   24.2145  -10.5506  -15.4838 O   0  0  0  0  0  0  0  0  0  0  0  0
   23.3359  -10.3889  -14.4226 C   0  0  0  0  0  0  0  0  0  0  0  0
   21.9684   -9.9636  -14.9768 C   0  0  2  0  0  0  0  0  0  0  0  0
   21.5043  -10.9549  -15.9255 N   0  0  0  0  0  0  0  0  0  0  0  0
   22.0546   -8.6142  -15.5885 C   0  0  0  0  0  0  0  0  0  0  0  0
   22.4527   -8.4282  -16.7611 O   0  0  0  0  0  0  0  0  0  0  0  0
   21.6790   -7.4678  -14.8432 N   0  0  0  0  0  0  0  0  0  0  0  0
   21.7388   -6.1251  -15.4244 C   0  0  1  0  0  0  0  0  0  0  0  0
   20.3694   -5.7963  -15.9152 C   0  0  0  0  0  0  0  0  0  0  0  0
   20.2406   -4.4000  -16.4689 C   0  0  0  0  0  0  0  0  0  0  0  0
   18.7672   -4.2250  -16.8185 C   0  0  0  0  0  0  0  0  0  0  0  0
   18.5102   -2.8717  -17.4405 C   0  0  0  0  0  0  0  0  0  0  0  0
   17.0964   -2.7665  -17.7023 N   0  0  0  0  0  0  0  0  0  0  0  0
   22.3326   -5.1630  -14.5006 C   0  0  0  0  0  0  0  0  0  0  0  0
   22.9211   -3.9827  -14.9825 O   0  0  0  0  0  0  0  0  0  0  0  0
   22.3540   -5.3240  -13.2614 O   0  0  0  0  0  0  0  0  0  0  0  0
  1  2  1  0
  3  4  2  0
  3  2  1  0
  5  6  1  0
  7  6  1  6
  7  8  1  0
  8  3  1  0
  9 11  1  0
  9  7  1  0
 10  9  2  0
 12 11  1  0
 12 13  1  1
 13 14  1  0
 14 15  1  0
 15 16  1  0
 16 17  1  0
 18 12  1  0
 19 18  1  0
 20 18  2  0
M  END
$$$$
