GSK.pdb
     RDKit          3D

 20 19  0  0  1  0  0  0  0  0999 V2000
   24.6019  -14.1018  -18.8474 N   0  0  0  0  0  0  0  0  0  0  0  0
   24.8254  -12.7087  -19.1751 C   0  0  0  0  0  0  0  0  0  0  0  0
   24.5743  -11.8848  -17.9858 C   0  0  0  0  0  0  0  0  0  0  0  0
   23.4195  -11.7891  -17.5327 O   0  0  0  0  0  0  0  0  0  0  0  0
   27.3652   -9.2517  -16.3083 O   0  0  0  0  0  0  0  0  0  0  0  0
   26.5316   -9.9215  -15.4245 C   0  0  0  0  0  0  0  0  0  0  0  0
   25.2497  -10.3250  -16.1674 C   0  0  2  0  0  0  0  0  0  0  0  0
   25.5920  -11.1667  -17.2954 N   0  0  0  0  0  0  0  0  0  0  0  0
   24.4947   -9.1191  -16.5896 C   0  0  0  0  0  0  0  0  0  0  0  0
   24.7581   -8.4905  -17.6401 O   0  0  0  0  0  0  0  0  0  0  0  0
   23.4261   -8.6320  -15.7948 N   0  0  0  0  0  0  0  0  0  0  0  0
   22.6719   -7.4367  -16.1778 C   0  0  1  0  0  0  0  0  0  0  0  0
   21.3964   -7.9002  -16.7964 C   0  0  0  0  0  0  0  0  0  0  0  0
   20.4643   -6.7793  -17.1808 C   0  0  0  0  0  0  0  0  0  0  0  0
   19.2715   -7.4439  -17.8586 C   0  0  0  0  0  0  0  0  0  0  0  0
   18.3168   -6.4137  -18.4171 C   0  0  0  0  0  0  0  0  0  0  0  0
   18.8728   -5.9190  -19.6519 N   0  0  0  0  0  0  0  0  0  0  0  0
   22.5372   -6.5034  -15.0633 C   0  0  0  0  0  0  0  0  0  0  0  0
   22.8235   -6.9143  -13.7515 O   0  0  0  0  0  0  0  0  0  0  0  0
   22.1699   -5.3168  -15.2019 O   0  0  0  0  0  0  0  0  0  0  0  0
  1  2  1  0
  3  4  2  0
  3  2  1  0
  5  6  1  0
  7  6  1  6
  7  8  1  0
  8  3  1  0
  9 11  1  0
  9  7  1  0
 10  9  2  0
 12 11  1  0
 12 13  1  1
 13 14  1  0
 14 15  1  0
 15 16  1  0
 16 17  1  0
 18 12  1  0
 19 18  1  0
 20 18  2  0
M  END
$$$$
