EWN.pdb
     RDKit          3D

 32 33  0  0  1  0  0  0  0  0999 V2000
    9.0353  -17.8619   20.6523 N   0  0  0  0  0  0  0  0  0  0  0  0
   10.3512  -17.9073   21.1978 C   0  0  1  0  0  0  0  0  0  0  0  0
   11.3888  -17.4471   20.2448 C   0  0  0  0  0  0  0  0  0  0  0  0
   11.1117  -17.6505   18.7949 C   0  0  0  0  0  0  0  0  0  0  0  0
   12.1662  -17.2812   17.8647 C   0  0  0  0  0  0  0  0  0  0  0  0
   12.0832  -16.7239   16.7591 O   0  0  0  0  0  0  0  0  0  0  0  0
   10.3919  -17.2083   22.5035 C   0  0  0  0  0  0  0  0  0  0  0  0
   11.4358  -16.5918   22.8040 O   0  0  0  0  0  0  0  0  0  0  0  0
   13.4871  -17.6029   18.2768 O   0  0  0  0  0  0  0  0  0  0  0  0
    9.3049  -17.2296   23.3854 N   0  0  0  0  0  0  0  0  0  0  0  0
    9.3088  -16.8911   24.7820 C   0  0  1  0  0  0  0  0  0  0  0  0
    7.9825  -16.3834   25.3177 C   0  0  0  0  0  0  0  0  0  0  0  0
    7.4970  -15.1606   24.6933 C   0  0  0  0  0  0  0  0  0  0  0  0
    7.0825  -14.9641   23.4109 C   0  0  0  0  0  0  0  0  0  0  0  0
    6.7010  -13.6670   23.2718 N   0  0  0  0  0  0  0  0  0  0  0  0
    6.8508  -13.0049   24.4205 C   0  0  0  0  0  0  0  0  0  0  0  0
    6.6073  -11.6971   24.7882 C   0  0  0  0  0  0  0  0  0  0  0  0
    6.8600  -11.2825   26.0795 C   0  0  0  0  0  0  0  0  0  0  0  0
    7.3568  -12.2059   26.9768 C   0  0  0  0  0  0  0  0  0  0  0  0
    7.6044  -13.5275   26.6102 C   0  0  0  0  0  0  0  0  0  0  0  0
    7.3493  -13.9304   25.3207 C   0  0  0  0  0  0  0  0  0  0  0  0
    9.8127  -17.9340   25.6734 C   0  0  0  0  0  0  0  0  0  0  0  0
    9.2955  -19.0904   25.7575 O   0  0  0  0  0  0  0  0  0  0  0  0
   12.9457  -19.5748   25.2323 N   0  0  0  0  0  0  0  0  0  0  0  0
   13.6780  -18.9644   26.2857 C   0  0  0  0  0  0  0  0  0  0  0  0
   14.9183  -18.8717   26.1486 O   0  0  0  0  0  0  0  0  0  0  0  0
   12.9699  -18.4729   27.4754 C   0  0  0  0  0  0  0  0  0  0  0  0
   11.4757  -18.6872   27.4039 C   0  0  2  0  0  0  0  0  0  0  0  0
   10.9340  -17.6771   26.4980 N   0  0  0  0  0  0  0  0  0  0  0  0
   10.9054  -18.3713   28.7454 C   0  0  0  0  0  0  0  0  0  0  0  0
   11.1000  -19.2572   29.7991 O   0  0  0  0  0  0  0  0  0  0  0  0
   10.2432  -17.3313   28.9958 O   0  0  0  0  0  0  0  0  0  0  0  0
  2  1  1  6
  2  3  1  0
  3  4  1  0
  4  5  1  0
  5  9  1  0
  6  5  2  0
  7  2  1  0
  8  7  2  0
 10  7  1  0
 11 10  1  0
 11 12  1  1
 12 13  1  0
 13 14  2  0
 14 15  1  0
 16 15  1  0
 17 16  2  0
 18 17  1  0
 19 20  1  0
 19 18  2  0
 20 21  2  0
 21 13  1  0
 21 16  1  0
 22 11  1  0
 23 22  2  0
 25 24  1  0
 26 25  2  0
 28 27  1  1
 27 25  1  0
 28 29  1  0
 29 22  1  0
 30 28  1  0
 30 31  1  0
 32 30  2  0
M  END
$$$$
