EWN.pdb
     RDKit          3D

 32 33  0  0  1  0  0  0  0  0999 V2000
    7.6957  -18.1696   21.6386 N   0  0  0  0  0  0  0  0  0  0  0  0
    8.8585  -17.4114   21.3153 C   0  0  1  0  0  0  0  0  0  0  0  0
    8.6211  -16.4175   20.2418 C   0  0  0  0  0  0  0  0  0  0  0  0
    8.6047  -16.9268   18.8416 C   0  0  0  0  0  0  0  0  0  0  0  0
    8.4048  -15.9466   17.7865 C   0  0  0  0  0  0  0  0  0  0  0  0
    8.3939  -14.7076   17.8528 O   0  0  0  0  0  0  0  0  0  0  0  0
    9.4521  -16.8306   22.5421 C   0  0  0  0  0  0  0  0  0  0  0  0
   10.4823  -16.1348   22.4198 O   0  0  0  0  0  0  0  0  0  0  0  0
    8.1902  -16.4799   16.4875 O   0  0  0  0  0  0  0  0  0  0  0  0
    8.8908  -17.0463   23.8063 N   0  0  0  0  0  0  0  0  0  0  0  0
    9.5014  -16.8029   25.0842 C   0  0  1  0  0  0  0  0  0  0  0  0
    8.5385  -16.3854   26.1807 C   0  0  0  0  0  0  0  0  0  0  0  0
    7.4709  -15.4927   25.7515 C   0  0  0  0  0  0  0  0  0  0  0  0
    6.2378  -15.8087   25.2671 C   0  0  0  0  0  0  0  0  0  0  0  0
    5.5650  -14.6567   25.0073 N   0  0  0  0  0  0  0  0  0  0  0  0
    6.3152  -13.5942   25.3053 C   0  0  0  0  0  0  0  0  0  0  0  0
    6.0907  -12.2348   25.2245 C   0  0  0  0  0  0  0  0  0  0  0  0
    7.0716  -11.3468   25.6150 C   0  0  0  0  0  0  0  0  0  0  0  0
    8.2660  -11.8564   26.0820 C   0  0  0  0  0  0  0  0  0  0  0  0
    8.4974  -13.2282   26.1655 C   0  0  0  0  0  0  0  0  0  0  0  0
    7.5134  -14.1047   25.7735 C   0  0  0  0  0  0  0  0  0  0  0  0
   10.3501  -17.8829   25.5838 C   0  0  0  0  0  0  0  0  0  0  0  0
   10.0110  -19.1061   25.5579 O   0  0  0  0  0  0  0  0  0  0  0  0
   13.5860  -18.9444   24.2571 N   0  0  0  0  0  0  0  0  0  0  0  0
   14.4004  -18.3321   25.2473 C   0  0  0  0  0  0  0  0  0  0  0  0
   15.5381  -17.9440   24.9001 O   0  0  0  0  0  0  0  0  0  0  0  0
   13.8905  -18.1784   26.6166 C   0  0  0  0  0  0  0  0  0  0  0  0
   12.4498  -18.6107   26.7623 C   0  0  2  0  0  0  0  0  0  0  0  0
   11.6220  -17.5866   26.1295 N   0  0  0  0  0  0  0  0  0  0  0  0
   12.1053  -18.5662   28.2128 C   0  0  0  0  0  0  0  0  0  0  0  0
   11.2150  -17.6044   28.6769 O   0  0  0  0  0  0  0  0  0  0  0  0
   12.5772  -19.3596   29.0677 O   0  0  0  0  0  0  0  0  0  0  0  0
  2  1  1  1
  2  3  1  0
  3  4  1  0
  4  5  1  0
  5  9  1  0
  6  5  2  0
  7  2  1  0
  8  7  2  0
 10  7  1  0
 11 10  1  0
 11 12  1  1
 12 13  1  0
 13 14  2  0
 14 15  1  0
 16 15  1  0
 17 16  2  0
 18 17  1  0
 19 20  1  0
 19 18  2  0
 20 21  2  0
 21 13  1  0
 21 16  1  0
 22 11  1  0
 23 22  2  0
 25 24  1  0
 26 25  2  0
 28 27  1  1
 27 25  1  0
 28 29  1  0
 29 22  1  0
 30 28  1  0
 30 31  1  0
 32 30  2  0
M  END
$$$$
