EWN.pdb
     RDKit          3D

 32 33  0  0  1  0  0  0  0  0999 V2000
   10.0336  -15.5087   19.5909 N   0  0  0  0  0  0  0  0  0  0  0  0
   10.4127  -16.6091   20.4137 C   0  0  1  0  0  0  0  0  0  0  0  0
   11.7172  -17.1975   20.0279 C   0  0  0  0  0  0  0  0  0  0  0  0
   11.9143  -17.5157   18.5856 C   0  0  0  0  0  0  0  0  0  0  0  0
   13.1667  -18.1561   18.2176 C   0  0  0  0  0  0  0  0  0  0  0  0
   13.5774  -19.2964   18.4834 O   0  0  0  0  0  0  0  0  0  0  0  0
   10.3298  -16.2347   21.8447 C   0  0  0  0  0  0  0  0  0  0  0  0
   11.0109  -15.2630   22.2349 O   0  0  0  0  0  0  0  0  0  0  0  0
   14.0538  -17.3649   17.4397 O   0  0  0  0  0  0  0  0  0  0  0  0
    9.5208  -16.9378   22.7452 N   0  0  0  0  0  0  0  0  0  0  0  0
    9.3953  -16.7174   24.1596 C   0  0  1  0  0  0  0  0  0  0  0  0
    7.9908  -16.3858   24.6301 C   0  0  0  0  0  0  0  0  0  0  0  0
    7.5289  -15.0483   24.2856 C   0  0  0  0  0  0  0  0  0  0  0  0
    7.1441  -14.5650   23.0718 C   0  0  0  0  0  0  0  0  0  0  0  0
    6.7761  -13.2649   23.2188 N   0  0  0  0  0  0  0  0  0  0  0  0
    6.9062  -12.8781   24.4892 C   0  0  0  0  0  0  0  0  0  0  0  0
    6.6652  -11.6825   25.1352 C   0  0  0  0  0  0  0  0  0  0  0  0
    6.8930  -11.5701   26.4912 C   0  0  0  0  0  0  0  0  0  0  0  0
    7.3627  -12.6768   27.1688 C   0  0  0  0  0  0  0  0  0  0  0  0
    7.6076  -13.8862   26.5209 C   0  0  0  0  0  0  0  0  0  0  0  0
    7.3775  -13.9876   25.1692 C   0  0  0  0  0  0  0  0  0  0  0  0
    9.9411  -17.7772   25.0052 C   0  0  0  0  0  0  0  0  0  0  0  0
    9.8061  -19.0135   24.7496 O   0  0  0  0  0  0  0  0  0  0  0  0
   12.6980  -18.4626   30.3076 N   0  0  0  0  0  0  0  0  0  0  0  0
   12.8334  -18.7346   28.9197 C   0  0  0  0  0  0  0  0  0  0  0  0
   13.4616  -19.7659   28.5920 O   0  0  0  0  0  0  0  0  0  0  0  0
   12.2439  -17.8157   27.9366 C   0  0  0  0  0  0  0  0  0  0  0  0
   11.1817  -18.4674   27.0817 C   0  0  2  0  0  0  0  0  0  0  0  0
   10.6643  -17.4448   26.1756 N   0  0  0  0  0  0  0  0  0  0  0  0
   10.0408  -18.8308   27.9711 C   0  0  0  0  0  0  0  0  0  0  0  0
   10.1432  -19.9444   28.7973 O   0  0  0  0  0  0  0  0  0  0  0  0
    8.9642  -18.1823   28.0267 O   0  0  0  0  0  0  0  0  0  0  0  0
  2  1  1  6
  2  3  1  0
  3  4  1  0
  4  5  1  0
  5  9  1  0
  6  5  2  0
  7  2  1  0
  8  7  2  0
 10  7  1  0
 11 10  1  0
 11 12  1  6
 12 13  1  0
 13 14  2  0
 14 15  1  0
 16 15  1  0
 17 16  2  0
 18 17  1  0
 19 20  1  0
 19 18  2  0
 20 21  2  0
 21 13  1  0
 21 16  1  0
 22 11  1  0
 23 22  2  0
 25 24  1  0
 26 25  2  0
 28 27  1  1
 27 25  1  0
 28 29  1  0
 29 22  1  0
 30 28  1  0
 30 31  1  0
 32 30  2  0
M  END
$$$$
