EWN.pdb
     RDKit          3D

 32 33  0  0  1  0  0  0  0  0999 V2000
    9.1313  -18.3564   20.7986 N   0  0  0  0  0  0  0  0  0  0  0  0
   10.1149  -17.3395   20.9709 C   0  0  1  0  0  0  0  0  0  0  0  0
   10.1419  -16.3656   19.8540 C   0  0  0  0  0  0  0  0  0  0  0  0
    9.6402  -16.8389   18.5332 C   0  0  0  0  0  0  0  0  0  0  0  0
    9.6285  -15.8714   17.4479 C   0  0  0  0  0  0  0  0  0  0  0  0
   10.5426  -15.5397   16.6772 O   0  0  0  0  0  0  0  0  0  0  0  0
    9.9766  -16.7099   22.3049 C   0  0  0  0  0  0  0  0  0  0  0  0
   10.7819  -15.8053   22.6104 O   0  0  0  0  0  0  0  0  0  0  0  0
    8.3921  -15.2054   17.2342 O   0  0  0  0  0  0  0  0  0  0  0  0
    8.9823  -17.1056   23.2074 N   0  0  0  0  0  0  0  0  0  0  0  0
    8.8871  -16.7704   24.6015 C   0  0  1  0  0  0  0  0  0  0  0  0
    7.4856  -16.8436   25.1797 C   0  0  0  0  0  0  0  0  0  0  0  0
    6.8494  -15.5539   25.4095 C   0  0  0  0  0  0  0  0  0  0  0  0
    5.5808  -15.2915   25.8300 C   0  0  0  0  0  0  0  0  0  0  0  0
    5.4228  -13.9444   25.9191 N   0  0  0  0  0  0  0  0  0  0  0  0
    6.5457  -13.3133   25.5712 C   0  0  0  0  0  0  0  0  0  0  0  0
    6.8877  -11.9780   25.4996 C   0  0  0  0  0  0  0  0  0  0  0  0
    8.1554  -11.6086   25.0999 C   0  0  0  0  0  0  0  0  0  0  0  0
    9.0556  -12.6044   24.7795 C   0  0  0  0  0  0  0  0  0  0  0  0
    8.7149  -13.9539   24.8503 C   0  0  0  0  0  0  0  0  0  0  0  0
    7.4488  -14.3114   25.2494 C   0  0  0  0  0  0  0  0  0  0  0  0
    9.8014  -17.4976   25.4800 C   0  0  0  0  0  0  0  0  0  0  0  0
    9.9444  -17.2313   26.7130 O   0  0  0  0  0  0  0  0  0  0  0  0
   12.6314  -22.2065   26.4715 N   0  0  0  0  0  0  0  0  0  0  0  0
   13.1509  -21.1734   25.6460 C   0  0  0  0  0  0  0  0  0  0  0  0
   14.3950  -21.0564   25.5816 O   0  0  0  0  0  0  0  0  0  0  0  0
   12.2298  -20.2957   24.9113 C   0  0  0  0  0  0  0  0  0  0  0  0
   11.4679  -19.3520   25.8128 C   0  0  2  0  0  0  0  0  0  0  0  0
   10.5813  -18.5599   24.9638 N   0  0  0  0  0  0  0  0  0  0  0  0
   12.4451  -18.3831   26.3881 C   0  0  0  0  0  0  0  0  0  0  0  0
   13.1352  -17.5217   25.5426 O   0  0  0  0  0  0  0  0  0  0  0  0
   12.6945  -18.2892   27.6176 O   0  0  0  0  0  0  0  0  0  0  0  0
  2  1  1  6
  2  3  1  0
  3  4  1  0
  4  5  1  0
  5  9  1  0
  6  5  2  0
  7  2  1  0
  8  7  2  0
 10  7  1  0
 11 10  1  0
 11 12  1  1
 12 13  1  0
 13 14  2  0
 14 15  1  0
 16 15  1  0
 17 16  2  0
 18 17  1  0
 19 20  1  0
 19 18  2  0
 20 21  2  0
 21 13  1  0
 21 16  1  0
 22 11  1  0
 23 22  2  0
 25 24  1  0
 26 25  2  0
 28 27  1  6
 27 25  1  0
 28 29  1  0
 29 22  1  0
 30 28  1  0
 30 31  1  0
 32 30  2  0
M  END
$$$$
