EWN.pdb
     RDKit          3D

 32 33  0  0  1  0  0  0  0  0999 V2000
    9.5762  -18.3664   21.1465 N   0  0  0  0  0  0  0  0  0  0  0  0
   10.7472  -17.6055   21.4313 C   0  0  1  0  0  0  0  0  0  0  0  0
   11.1000  -16.6590   20.3467 C   0  0  0  0  0  0  0  0  0  0  0  0
   11.0754  -17.1884   18.9541 C   0  0  0  0  0  0  0  0  0  0  0  0
   11.5068  -16.2860   17.8988 C   0  0  0  0  0  0  0  0  0  0  0  0
   12.0741  -15.1859   17.9847 O   0  0  0  0  0  0  0  0  0  0  0  0
   10.6353  -16.9673   22.7637 C   0  0  0  0  0  0  0  0  0  0  0  0
   11.5635  -16.2171   23.1320 O   0  0  0  0  0  0  0  0  0  0  0  0
   11.2426  -16.7229   16.5731 O   0  0  0  0  0  0  0  0  0  0  0  0
    9.5325  -17.1888   23.5970 N   0  0  0  0  0  0  0  0  0  0  0  0
    9.3168  -16.6611   24.9161 C   0  0  1  0  0  0  0  0  0  0  0  0
    7.8911  -16.2259   25.2025 C   0  0  0  0  0  0  0  0  0  0  0  0
    7.4889  -14.9828   24.5593 C   0  0  0  0  0  0  0  0  0  0  0  0
    7.1573  -14.7649   23.2564 C   0  0  0  0  0  0  0  0  0  0  0  0
    6.8334  -13.4536   23.1042 N   0  0  0  0  0  0  0  0  0  0  0  0
    6.9410  -12.8030   24.2641 C   0  0  0  0  0  0  0  0  0  0  0  0
    6.7258  -11.4886   24.6259 C   0  0  0  0  0  0  0  0  0  0  0  0
    6.9185  -11.0898   25.9324 C   0  0  0  0  0  0  0  0  0  0  0  0
    7.3273  -12.0353   26.8507 C   0  0  0  0  0  0  0  0  0  0  0  0
    7.5460  -13.3637   26.4902 C   0  0  0  0  0  0  0  0  0  0  0  0
    7.3514  -13.7508   25.1854 C   0  0  0  0  0  0  0  0  0  0  0  0
    9.7822  -17.5114   26.0101 C   0  0  0  0  0  0  0  0  0  0  0  0
    9.5354  -17.2736   27.2325 O   0  0  0  0  0  0  0  0  0  0  0  0
   10.3588  -22.4824   28.2609 N   0  0  0  0  0  0  0  0  0  0  0  0
   11.1829  -22.0344   27.1938 C   0  0  0  0  0  0  0  0  0  0  0  0
   12.3134  -22.5581   27.0782 O   0  0  0  0  0  0  0  0  0  0  0  0
   10.6909  -20.9935   26.2812 C   0  0  0  0  0  0  0  0  0  0  0  0
   10.9657  -19.5934   26.7793 C   0  0  2  0  0  0  0  0  0  0  0  0
   10.5480  -18.6680   25.7288 N   0  0  0  0  0  0  0  0  0  0  0  0
   12.4442  -19.4321   26.8924 C   0  0  0  0  0  0  0  0  0  0  0  0
   13.1694  -18.9723   25.7989 O   0  0  0  0  0  0  0  0  0  0  0  0
   13.0974  -19.6903   27.9362 O   0  0  0  0  0  0  0  0  0  0  0  0
  2  1  1  6
  2  3  1  0
  3  4  1  0
  4  5  1  0
  5  9  1  0
  6  5  2  0
  7  2  1  0
  8  7  2  0
 10  7  1  0
 11 10  1  0
 11 12  1  1
 12 13  1  0
 13 14  2  0
 14 15  1  0
 16 15  1  0
 17 16  2  0
 18 17  1  0
 19 20  1  0
 19 18  2  0
 20 21  2  0
 21 13  1  0
 21 16  1  0
 22 11  1  0
 23 22  2  0
 25 24  1  0
 26 25  2  0
 28 27  1  6
 27 25  1  0
 28 29  1  0
 29 22  1  0
 30 28  1  0
 30 31  1  0
 32 30  2  0
M  END
$$$$
