EWN.pdb
     RDKit          3D

 32 33  0  0  1  0  0  0  0  0999 V2000
    6.9218  -16.7063   20.7262 N   0  0  0  0  0  0  0  0  0  0  0  0
    8.3183  -16.4925   20.5378 C   0  0  1  0  0  0  0  0  0  0  0  0
    8.6138  -15.4978   19.4795 C   0  0  0  0  0  0  0  0  0  0  0  0
    8.0798  -15.7821   18.1178 C   0  0  0  0  0  0  0  0  0  0  0  0
    8.9789  -16.4363   17.1810 C   0  0  0  0  0  0  0  0  0  0  0  0
   10.1479  -16.8182   17.3458 O   0  0  0  0  0  0  0  0  0  0  0  0
    8.9728  -16.1940   21.8331 C   0  0  0  0  0  0  0  0  0  0  0  0
    9.8223  -15.2788   21.8612 O   0  0  0  0  0  0  0  0  0  0  0  0
    8.4462  -16.6758   15.8861 O   0  0  0  0  0  0  0  0  0  0  0  0
    8.6627  -16.9067   22.9974 N   0  0  0  0  0  0  0  0  0  0  0  0
    9.3007  -16.8000   24.2806 C   0  0  1  0  0  0  0  0  0  0  0  0
    8.3509  -16.7838   25.4644 C   0  0  0  0  0  0  0  0  0  0  0  0
    7.3377  -15.7385   25.4231 C   0  0  0  0  0  0  0  0  0  0  0  0
    6.0188  -15.8413   25.0994 C   0  0  0  0  0  0  0  0  0  0  0  0
    5.4477  -14.6128   25.2089 N   0  0  0  0  0  0  0  0  0  0  0  0
    6.3478  -13.7064   25.5943 C   0  0  0  0  0  0  0  0  0  0  0  0
    6.2670  -12.3514   25.8440 C   0  0  0  0  0  0  0  0  0  0  0  0
    7.3881  -11.6528   26.2420 C   0  0  0  0  0  0  0  0  0  0  0  0
    8.5743  -12.3445   26.3798 C   0  0  0  0  0  0  0  0  0  0  0  0
    8.6609  -13.7126   26.1288 C   0  0  0  0  0  0  0  0  0  0  0  0
    7.5378  -14.3994   25.7323 C   0  0  0  0  0  0  0  0  0  0  0  0
   10.3573  -17.7778   24.5332 C   0  0  0  0  0  0  0  0  0  0  0  0
   10.2883  -18.9909   24.1650 O   0  0  0  0  0  0  0  0  0  0  0  0
   16.0464  -18.4224   24.8002 N   0  0  0  0  0  0  0  0  0  0  0  0
   15.1089  -18.2253   25.8494 C   0  0  0  0  0  0  0  0  0  0  0  0
   15.3658  -18.7446   26.9584 O   0  0  0  0  0  0  0  0  0  0  0  0
   13.8951  -17.4353   25.6025 C   0  0  0  0  0  0  0  0  0  0  0  0
   12.6683  -18.2903   25.3840 C   0  0  2  0  0  0  0  0  0  0  0  0
   11.5320  -17.3869   25.2190 N   0  0  0  0  0  0  0  0  0  0  0  0
   12.4053  -19.0406   26.6460 C   0  0  0  0  0  0  0  0  0  0  0  0
   13.0252  -20.2672   26.8562 O   0  0  0  0  0  0  0  0  0  0  0  0
   11.6412  -18.6294   27.5570 O   0  0  0  0  0  0  0  0  0  0  0  0
  2  1  1  1
  2  3  1  0
  3  4  1  0
  4  5  1  0
  5  9  1  0
  6  5  2  0
  7  2  1  0
  8  7  2  0
 10  7  1  0
 11 10  1  0
 11 12  1  1
 12 13  1  0
 13 14  2  0
 14 15  1  0
 16 15  1  0
 17 16  2  0
 18 17  1  0
 19 20  1  0
 19 18  2  0
 20 21  2  0
 21 13  1  0
 21 16  1  0
 22 11  1  0
 23 22  2  0
 25 24  1  0
 26 25  2  0
 28 27  1  1
 27 25  1  0
 28 29  1  0
 29 22  1  0
 30 28  1  0
 30 31  1  0
 32 30  2  0
M  END
$$$$
