EWN.pdb
     RDKit          3D

 32 33  0  0  1  0  0  0  0  0999 V2000
    9.3237  -18.4960   22.2328 N   0  0  0  0  0  0  0  0  0  0  0  0
   10.4904  -17.7194   22.4920 C   0  0  1  0  0  0  0  0  0  0  0  0
   10.8501  -16.8228   21.3680 C   0  0  0  0  0  0  0  0  0  0  0  0
   10.7231  -17.3806   19.9921 C   0  0  0  0  0  0  0  0  0  0  0  0
   11.1799  -16.5412   18.8964 C   0  0  0  0  0  0  0  0  0  0  0  0
   11.8169  -15.4769   18.9308 O   0  0  0  0  0  0  0  0  0  0  0  0
   10.3656  -17.0210   23.7926 C   0  0  0  0  0  0  0  0  0  0  0  0
   11.2159  -16.1497   24.0719 O   0  0  0  0  0  0  0  0  0  0  0  0
   10.8517  -17.0022   17.5934 O   0  0  0  0  0  0  0  0  0  0  0  0
    9.3351  -17.3171   24.6927 N   0  0  0  0  0  0  0  0  0  0  0  0
    9.1158  -16.7359   25.9885 C   0  0  1  0  0  0  0  0  0  0  0  0
    7.7344  -16.1414   26.1941 C   0  0  0  0  0  0  0  0  0  0  0  0
    7.4083  -15.0295   25.3120 C   0  0  0  0  0  0  0  0  0  0  0  0
    7.2738  -15.0269   23.9567 C   0  0  0  0  0  0  0  0  0  0  0  0
    6.9492  -13.7697   23.5549 N   0  0  0  0  0  0  0  0  0  0  0  0
    6.8656  -12.9463   24.6015 C   0  0  0  0  0  0  0  0  0  0  0  0
    6.5701  -11.6031   24.7172 C   0  0  0  0  0  0  0  0  0  0  0  0
    6.5537  -11.0023   25.9589 C   0  0  0  0  0  0  0  0  0  0  0  0
    6.8384  -11.7784   27.0640 C   0  0  0  0  0  0  0  0  0  0  0  0
    7.1373  -13.1350   26.9523 C   0  0  0  0  0  0  0  0  0  0  0  0
    7.1513  -13.7240   25.7101 C   0  0  0  0  0  0  0  0  0  0  0  0
    9.4322  -17.6038   27.1212 C   0  0  0  0  0  0  0  0  0  0  0  0
    9.2950  -17.2487   28.3324 O   0  0  0  0  0  0  0  0  0  0  0  0
    7.1317  -21.1257   27.0194 N   0  0  0  0  0  0  0  0  0  0  0  0
    8.0463  -20.8348   28.0669 C   0  0  0  0  0  0  0  0  0  0  0  0
    7.5756  -20.3906   29.1378 O   0  0  0  0  0  0  0  0  0  0  0  0
    9.4836  -21.0603   27.8623 C   0  0  0  0  0  0  0  0  0  0  0  0
   10.3037  -19.7974   27.9906 C   0  0  2  0  0  0  0  0  0  0  0  0
    9.9168  -18.9140   26.8932 N   0  0  0  0  0  0  0  0  0  0  0  0
   11.7299  -20.1527   27.7368 C   0  0  0  0  0  0  0  0  0  0  0  0
   12.3830  -19.6196   26.6312 O   0  0  0  0  0  0  0  0  0  0  0  0
   12.4001  -20.9215   28.4734 O   0  0  0  0  0  0  0  0  0  0  0  0
  2  1  1  6
  2  3  1  0
  3  4  1  0
  4  5  1  0
  5  9  1  0
  6  5  2  0
  7  2  1  0
  8  7  2  0
 10  7  1  0
 11 10  1  0
 11 12  1  6
 12 13  1  0
 13 14  2  0
 14 15  1  0
 16 15  1  0
 17 16  2  0
 18 17  1  0
 19 20  1  0
 19 18  2  0
 20 21  2  0
 21 13  1  0
 21 16  1  0
 22 11  1  0
 23 22  2  0
 25 24  1  0
 26 25  2  0
 28 27  1  6
 27 25  1  0
 28 29  1  0
 29 22  1  0
 30 28  1  0
 30 31  1  0
 32 30  2  0
M  END
$$$$
