EWN.pdb
     RDKit          3D

 32 33  0  0  1  0  0  0  0  0999 V2000
    8.2682  -17.9211   21.4247 N   0  0  0  0  0  0  0  0  0  0  0  0
    9.6826  -17.9363   21.2496 C   0  0  1  0  0  0  0  0  0  0  0  0
   10.0979  -17.6010   19.8669 C   0  0  0  0  0  0  0  0  0  0  0  0
    9.2436  -18.1183   18.7611 C   0  0  0  0  0  0  0  0  0  0  0  0
    9.5907  -17.7035   17.4115 C   0  0  0  0  0  0  0  0  0  0  0  0
   10.5598  -18.0326   16.7099 O   0  0  0  0  0  0  0  0  0  0  0  0
   10.3387  -17.1044   22.2852 C   0  0  0  0  0  0  0  0  0  0  0  0
   11.5747  -16.9419   22.2075 O   0  0  0  0  0  0  0  0  0  0  0  0
    8.6923  -16.7874   16.8020 O   0  0  0  0  0  0  0  0  0  0  0  0
    9.6122  -16.5139   23.3259 N   0  0  0  0  0  0  0  0  0  0  0  0
   10.1364  -15.8535   24.4897 C   0  0  1  0  0  0  0  0  0  0  0  0
    9.6067  -14.4495   24.7177 C   0  0  0  0  0  0  0  0  0  0  0  0
    8.1819  -14.3717   25.0088 C   0  0  0  0  0  0  0  0  0  0  0  0
    7.2441  -15.3576   24.9493 C   0  0  0  0  0  0  0  0  0  0  0  0
    6.0439  -14.8381   25.3195 N   0  0  0  0  0  0  0  0  0  0  0  0
    6.1623  -13.5436   25.6205 C   0  0  0  0  0  0  0  0  0  0  0  0
    5.2562  -12.5919   26.0426 C   0  0  0  0  0  0  0  0  0  0  0  0
    5.6727  -11.2994   26.2861 C   0  0  0  0  0  0  0  0  0  0  0  0
    7.0054  -10.9957   26.0961 C   0  0  0  0  0  0  0  0  0  0  0  0
    7.9241  -11.9532   25.6700 C   0  0  0  0  0  0  0  0  0  0  0  0
    7.4987  -13.2383   25.4299 C   0  0  0  0  0  0  0  0  0  0  0  0
   10.0281  -16.6098   25.7357 C   0  0  0  0  0  0  0  0  0  0  0  0
   10.5257  -16.2175   26.8359 O   0  0  0  0  0  0  0  0  0  0  0  0
    7.2695  -20.6169   28.7320 N   0  0  0  0  0  0  0  0  0  0  0  0
    8.2753  -20.8108   27.7475 C   0  0  0  0  0  0  0  0  0  0  0  0
    9.0298  -21.8002   27.8798 O   0  0  0  0  0  0  0  0  0  0  0  0
    8.3935  -19.8635   26.6307 C   0  0  0  0  0  0  0  0  0  0  0  0
    9.2650  -18.6726   26.9562 C   0  0  2  0  0  0  0  0  0  0  0  0
    9.3386  -17.8457   25.7540 N   0  0  0  0  0  0  0  0  0  0  0  0
   10.6515  -19.1720   27.1860 C   0  0  0  0  0  0  0  0  0  0  0  0
   11.4753  -19.4337   26.0970 O   0  0  0  0  0  0  0  0  0  0  0  0
   11.1397  -19.3783   28.3271 O   0  0  0  0  0  0  0  0  0  0  0  0
  2  1  1  6
  2  3  1  0
  3  4  1  0
  4  5  1  0
  5  9  1  0
  6  5  2  0
  7  2  1  0
  8  7  2  0
 10  7  1  0
 11 10  1  0
 11 12  1  1
 12 13  1  0
 13 14  2  0
 14 15  1  0
 16 15  1  0
 17 16  2  0
 18 17  1  0
 19 20  1  0
 19 18  2  0
 20 21  2  0
 21 13  1  0
 21 16  1  0
 22 11  1  0
 23 22  2  0
 25 24  1  0
 26 25  2  0
 28 27  1  6
 27 25  1  0
 28 29  1  0
 29 22  1  0
 30 28  1  0
 30 31  1  0
 32 30  2  0
M  END
$$$$
