EWN.pdb
     RDKit          3D

 32 33  0  0  1  0  0  0  0  0999 V2000
   10.7992  -16.1548   20.0233 N   0  0  0  0  0  0  0  0  0  0  0  0
   10.6145  -17.2312   20.9391 C   0  0  1  0  0  0  0  0  0  0  0  0
   11.5827  -18.3351   20.7372 C   0  0  0  0  0  0  0  0  0  0  0  0
   13.0129  -17.9553   20.5626 C   0  0  0  0  0  0  0  0  0  0  0  0
   13.9582  -19.0361   20.3339 C   0  0  0  0  0  0  0  0  0  0  0  0
   14.8228  -19.5013   21.0926 O   0  0  0  0  0  0  0  0  0  0  0  0
   10.5748  -16.7227   22.3301 C   0  0  0  0  0  0  0  0  0  0  0  0
   11.4822  -15.9455   22.6942 O   0  0  0  0  0  0  0  0  0  0  0  0
   13.8857  -19.6534   19.0566 O   0  0  0  0  0  0  0  0  0  0  0  0
    9.5612  -17.0931   23.2218 N   0  0  0  0  0  0  0  0  0  0  0  0
    9.4295  -16.7087   24.6002 C   0  0  1  0  0  0  0  0  0  0  0  0
    8.0325  -16.2807   25.0111 C   0  0  0  0  0  0  0  0  0  0  0  0
    7.6180  -14.9780   24.5091 C   0  0  0  0  0  0  0  0  0  0  0  0
    7.3205  -14.6113   23.2316 C   0  0  0  0  0  0  0  0  0  0  0  0
    6.9678  -13.2988   23.2275 N   0  0  0  0  0  0  0  0  0  0  0  0
    7.0234  -12.7910   24.4602 C   0  0  0  0  0  0  0  0  0  0  0  0
    6.7634  -11.5351   24.9700 C   0  0  0  0  0  0  0  0  0  0  0  0
    6.9061  -11.2931   26.3207 C   0  0  0  0  0  0  0  0  0  0  0  0
    7.3112  -12.3337   27.1317 C   0  0  0  0  0  0  0  0  0  0  0  0
    7.5749  -13.6036   26.6215 C   0  0  0  0  0  0  0  0  0  0  0  0
    7.4299  -13.8341   25.2739 C   0  0  0  0  0  0  0  0  0  0  0  0
    9.9316  -17.6820   25.5681 C   0  0  0  0  0  0  0  0  0  0  0  0
    9.7956  -18.9368   25.4310 O   0  0  0  0  0  0  0  0  0  0  0  0
   12.1664  -19.5698   29.8767 N   0  0  0  0  0  0  0  0  0  0  0  0
   12.4126  -18.1707   29.8542 C   0  0  0  0  0  0  0  0  0  0  0  0
   13.0674  -17.6843   30.8030 O   0  0  0  0  0  0  0  0  0  0  0  0
   11.9011  -17.3591   28.7415 C   0  0  0  0  0  0  0  0  0  0  0  0
   11.1498  -18.1729   27.7134 C   0  0  2  0  0  0  0  0  0  0  0  0
   10.6106  -17.2386   26.7282 N   0  0  0  0  0  0  0  0  0  0  0  0
    9.9635  -18.7753   28.3875 C   0  0  0  0  0  0  0  0  0  0  0  0
   10.0586  -20.0512   28.9316 O   0  0  0  0  0  0  0  0  0  0  0  0
    8.8539  -18.1933   28.5006 O   0  0  0  0  0  0  0  0  0  0  0  0
  2  1  1  6
  2  3  1  0
  3  4  1  0
  4  5  1  0
  5  9  1  0
  6  5  2  0
  7  2  1  0
  8  7  2  0
 10  7  1  0
 11 10  1  0
 11 12  1  1
 12 13  1  0
 13 14  2  0
 14 15  1  0
 16 15  1  0
 17 16  2  0
 18 17  1  0
 19 20  1  0
 19 18  2  0
 20 21  2  0
 21 13  1  0
 21 16  1  0
 22 11  1  0
 23 22  2  0
 25 24  1  0
 26 25  2  0
 28 27  1  1
 27 25  1  0
 28 29  1  0
 29 22  1  0
 30 28  1  0
 30 31  1  0
 32 30  2  0
M  END
$$$$
