EWN.pdb
     RDKit          3D

 32 33  0  0  1  0  0  0  0  0999 V2000
    9.8354  -16.3351   18.3883 N   0  0  0  0  0  0  0  0  0  0  0  0
    9.9381  -17.3254   19.4082 C   0  0  1  0  0  0  0  0  0  0  0  0
   11.1143  -18.2111   19.2383 C   0  0  0  0  0  0  0  0  0  0  0  0
   12.2556  -17.6732   18.4456 C   0  0  0  0  0  0  0  0  0  0  0  0
   13.5427  -18.3275   18.6167 C   0  0  0  0  0  0  0  0  0  0  0  0
   14.0542  -19.2460   17.9577 O   0  0  0  0  0  0  0  0  0  0  0  0
    9.8567  -16.6961   20.7470 C   0  0  0  0  0  0  0  0  0  0  0  0
   10.8551  -16.0691   21.1597 O   0  0  0  0  0  0  0  0  0  0  0  0
   14.3347  -17.8490   19.6946 O   0  0  0  0  0  0  0  0  0  0  0  0
    8.7061  -16.7931   21.5386 N   0  0  0  0  0  0  0  0  0  0  0  0
    8.5260  -16.3052   22.8782 C   0  0  1  0  0  0  0  0  0  0  0  0
    7.0926  -15.9662   23.2449 C   0  0  0  0  0  0  0  0  0  0  0  0
    6.9198  -15.3851   24.5690 C   0  0  0  0  0  0  0  0  0  0  0  0
    6.4826  -15.9825   25.7122 C   0  0  0  0  0  0  0  0  0  0  0  0
    6.4929  -15.0636   26.7137 N   0  0  0  0  0  0  0  0  0  0  0  0
    6.9228  -13.8824   26.2663 C   0  0  0  0  0  0  0  0  0  0  0  0
    7.1119  -12.6598   26.8781 C   0  0  0  0  0  0  0  0  0  0  0  0
    7.5824  -11.5866   26.1499 C   0  0  0  0  0  0  0  0  0  0  0  0
    7.8531  -11.7747   24.8098 C   0  0  0  0  0  0  0  0  0  0  0  0
    7.6637  -13.0073   24.1876 C   0  0  0  0  0  0  0  0  0  0  0  0
    7.1942  -14.0703   24.9222 C   0  0  0  0  0  0  0  0  0  0  0  0
    9.0986  -17.1450   23.9284 C   0  0  0  0  0  0  0  0  0  0  0  0
    8.8631  -18.3881   24.0342 O   0  0  0  0  0  0  0  0  0  0  0  0
   12.4224  -18.6650   27.6118 N   0  0  0  0  0  0  0  0  0  0  0  0
   12.9777  -17.6195   26.8262 C   0  0  0  0  0  0  0  0  0  0  0  0
   14.1935  -17.3662   26.9785 O   0  0  0  0  0  0  0  0  0  0  0  0
   12.1242  -16.8865   25.8814 C   0  0  0  0  0  0  0  0  0  0  0  0
   10.7030  -17.3993   25.8489 C   0  0  2  0  0  0  0  0  0  0  0  0
    9.9655  -16.5773   24.8925 N   0  0  0  0  0  0  0  0  0  0  0  0
   10.0873  -17.1195   27.1783 C   0  0  0  0  0  0  0  0  0  0  0  0
   10.0054  -18.1358   28.1235 O   0  0  0  0  0  0  0  0  0  0  0  0
    9.6248  -15.9981   27.5119 O   0  0  0  0  0  0  0  0  0  0  0  0
  2  1  1  6
  2  3  1  0
  3  4  1  0
  4  5  1  0
  5  9  1  0
  6  5  2  0
  7  2  1  0
  8  7  2  0
 10  7  1  0
 11 10  1  0
 11 12  1  1
 12 13  1  0
 13 14  2  0
 14 15  1  0
 16 15  1  0
 17 16  2  0
 18 17  1  0
 19 20  1  0
 19 18  2  0
 20 21  2  0
 21 13  1  0
 21 16  1  0
 22 11  1  0
 23 22  2  0
 25 24  1  0
 26 25  2  0
 28 27  1  1
 27 25  1  0
 28 29  1  0
 29 22  1  0
 30 28  1  0
 30 31  1  0
 32 30  2  0
M  END
$$$$
