EWN.pdb
     RDKit          3D

 32 33  0  0  1  0  0  0  0  0999 V2000
    6.5406  -15.5426   20.4261 N   0  0  0  0  0  0  0  0  0  0  0  0
    7.7514  -16.2837   20.5526 C   0  0  1  0  0  0  0  0  0  0  0  0
    8.4990  -16.3927   19.2774 C   0  0  0  0  0  0  0  0  0  0  0  0
    7.8350  -17.1308   18.1664 C   0  0  0  0  0  0  0  0  0  0  0  0
    8.6187  -17.3526   16.9620 C   0  0  0  0  0  0  0  0  0  0  0  0
    8.2726  -17.8390   15.8743 O   0  0  0  0  0  0  0  0  0  0  0  0
    8.5633  -15.7562   21.6740 C   0  0  0  0  0  0  0  0  0  0  0  0
    9.1324  -14.6555   21.5162 O   0  0  0  0  0  0  0  0  0  0  0  0
    9.9807  -16.9559   17.0358 O   0  0  0  0  0  0  0  0  0  0  0  0
    8.7008  -16.4568   22.8781 N   0  0  0  0  0  0  0  0  0  0  0  0
    9.5520  -16.1249   23.9874 C   0  0  1  0  0  0  0  0  0  0  0  0
    8.8871  -16.2141   25.3490 C   0  0  0  0  0  0  0  0  0  0  0  0
    7.6683  -15.4291   25.4885 C   0  0  0  0  0  0  0  0  0  0  0  0
    6.3735  -15.8392   25.3878 C   0  0  0  0  0  0  0  0  0  0  0  0
    5.5616  -14.7709   25.6045 N   0  0  0  0  0  0  0  0  0  0  0  0
    6.2803  -13.6726   25.8446 C   0  0  0  0  0  0  0  0  0  0  0  0
    5.9327  -12.3655   26.1192 C   0  0  0  0  0  0  0  0  0  0  0  0
    6.9132  -11.4187   26.3327 C   0  0  0  0  0  0  0  0  0  0  0  0
    8.2326  -11.8174   26.2634 C   0  0  0  0  0  0  0  0  0  0  0  0
    8.5885  -13.1360   25.9864 C   0  0  0  0  0  0  0  0  0  0  0  0
    7.6036  -14.0718   25.7749 C   0  0  0  0  0  0  0  0  0  0  0  0
   10.8238  -16.8436   24.0325 C   0  0  0  0  0  0  0  0  0  0  0  0
   10.9350  -18.0825   23.7780 O   0  0  0  0  0  0  0  0  0  0  0  0
   16.4011  -16.5907   23.0278 N   0  0  0  0  0  0  0  0  0  0  0  0
   15.7361  -16.2383   24.2329 C   0  0  0  0  0  0  0  0  0  0  0  0
   16.3660  -16.3848   25.3041 O   0  0  0  0  0  0  0  0  0  0  0  0
   14.3606  -15.7245   24.1823 C   0  0  0  0  0  0  0  0  0  0  0  0
   13.3194  -16.8075   24.3458 C   0  0  2  0  0  0  0  0  0  0  0  0
   12.0127  -16.1545   24.3716 N   0  0  0  0  0  0  0  0  0  0  0  0
   13.4954  -17.4080   25.6997 C   0  0  0  0  0  0  0  0  0  0  0  0
   14.4226  -18.4278   25.8821 O   0  0  0  0  0  0  0  0  0  0  0  0
   12.8458  -17.0460   26.7144 O   0  0  0  0  0  0  0  0  0  0  0  0
  2  1  1  6
  2  3  1  0
  3  4  1  0
  4  5  1  0
  5  9  1  0
  6  5  2  0
  7  2  1  0
  8  7  2  0
 10  7  1  0
 11 10  1  0
 11 12  1  1
 12 13  1  0
 13 14  2  0
 14 15  1  0
 16 15  1  0
 17 16  2  0
 18 17  1  0
 19 20  1  0
 19 18  2  0
 20 21  2  0
 21 13  1  0
 21 16  1  0
 22 11  1  0
 23 22  2  0
 25 24  1  0
 26 25  2  0
 28 27  1  1
 27 25  1  0
 28 29  1  0
 29 22  1  0
 30 28  1  0
 30 31  1  0
 32 30  2  0
M  END
$$$$
