EWN.pdb
     RDKit          3D

 32 33  0  0  1  0  0  0  0  0999 V2000
    7.1289  -18.0130   21.6564 N   0  0  0  0  0  0  0  0  0  0  0  0
    8.0478  -17.0425   21.1614 C   0  0  1  0  0  0  0  0  0  0  0  0
    7.6783  -16.5259   19.8222 C   0  0  0  0  0  0  0  0  0  0  0  0
    8.5831  -15.5077   19.2181 C   0  0  0  0  0  0  0  0  0  0  0  0
    8.8482  -15.6248   17.7934 C   0  0  0  0  0  0  0  0  0  0  0  0
    8.0606  -15.8436   16.8599 O   0  0  0  0  0  0  0  0  0  0  0  0
    8.2657  -15.9786   22.1692 C   0  0  0  0  0  0  0  0  0  0  0  0
    7.4490  -15.0343   22.2079 O   0  0  0  0  0  0  0  0  0  0  0  0
   10.2063  -15.4665   17.4079 O   0  0  0  0  0  0  0  0  0  0  0  0
    9.3483  -16.0135   23.0560 N   0  0  0  0  0  0  0  0  0  0  0  0
    9.3162  -16.3221   24.4591 C   0  0  1  0  0  0  0  0  0  0  0  0
    7.9310  -16.5842   25.0217 C   0  0  0  0  0  0  0  0  0  0  0  0
    7.0853  -15.4048   25.1424 C   0  0  0  0  0  0  0  0  0  0  0  0
    5.7831  -15.2478   24.7754 C   0  0  0  0  0  0  0  0  0  0  0  0
    5.3935  -13.9835   25.0871 N   0  0  0  0  0  0  0  0  0  0  0  0
    6.3966  -13.3048   25.6470 C   0  0  0  0  0  0  0  0  0  0  0  0
    6.5030  -12.0163   26.1302 C   0  0  0  0  0  0  0  0  0  0  0  0
    7.6933  -11.5759   26.6709 C   0  0  0  0  0  0  0  0  0  0  0  0
    8.7571  -12.4541   26.7115 C   0  0  0  0  0  0  0  0  0  0  0  0
    8.6545  -13.7560   26.2249 C   0  0  0  0  0  0  0  0  0  0  0  0
    7.4639  -14.1850   25.6878 C   0  0  0  0  0  0  0  0  0  0  0  0
   10.2108  -17.3985   24.8800 C   0  0  0  0  0  0  0  0  0  0  0  0
    9.8242  -18.5923   25.0729 O   0  0  0  0  0  0  0  0  0  0  0  0
   13.8784  -17.8993   22.7735 N   0  0  0  0  0  0  0  0  0  0  0  0
   14.0828  -17.0828   23.9181 C   0  0  0  0  0  0  0  0  0  0  0  0
   14.4027  -15.8885   23.7257 O   0  0  0  0  0  0  0  0  0  0  0  0
   13.9155  -17.6556   25.2606 C   0  0  0  0  0  0  0  0  0  0  0  0
   12.5186  -18.1750   25.5112 C   0  0  2  0  0  0  0  0  0  0  0  0
   11.5850  -17.1329   25.0908 N   0  0  0  0  0  0  0  0  0  0  0  0
   12.3386  -18.3048   26.9861 C   0  0  0  0  0  0  0  0  0  0  0  0
   13.0251  -19.2978   27.6758 O   0  0  0  0  0  0  0  0  0  0  0  0
   11.5889  -17.5583   27.6669 O   0  0  0  0  0  0  0  0  0  0  0  0
  2  1  1  1
  2  3  1  0
  3  4  1  0
  4  5  1  0
  5  9  1  0
  6  5  2  0
  7  2  1  0
  8  7  2  0
 10  7  1  0
 11 10  1  0
 11 12  1  6
 12 13  1  0
 13 14  2  0
 14 15  1  0
 16 15  1  0
 17 16  2  0
 18 17  1  0
 19 20  1  0
 19 18  2  0
 20 21  2  0
 21 13  1  0
 21 16  1  0
 22 11  1  0
 23 22  2  0
 25 24  1  0
 26 25  2  0
 28 27  1  1
 27 25  1  0
 28 29  1  0
 29 22  1  0
 30 28  1  0
 30 31  1  0
 32 30  2  0
M  END
$$$$
