EWN.pdb
     RDKit          3D

 32 33  0  0  1  0  0  0  0  0999 V2000
    9.6426  -18.0847   19.5658 N   0  0  0  0  0  0  0  0  0  0  0  0
   10.7653  -18.0260   20.4419 C   0  0  1  0  0  0  0  0  0  0  0  0
   12.0612  -18.1199   19.7288 C   0  0  0  0  0  0  0  0  0  0  0  0
   12.1673  -17.4072   18.4245 C   0  0  0  0  0  0  0  0  0  0  0  0
   13.4571  -17.4482   17.7546 C   0  0  0  0  0  0  0  0  0  0  0  0
   14.1112  -18.4269   17.3623 O   0  0  0  0  0  0  0  0  0  0  0  0
   10.6618  -16.8472   21.3333 C   0  0  0  0  0  0  0  0  0  0  0  0
   11.7222  -16.3226   21.7339 O   0  0  0  0  0  0  0  0  0  0  0  0
   14.0614  -16.1859   17.5111 O   0  0  0  0  0  0  0  0  0  0  0  0
    9.4232  -16.3261   21.7258 N   0  0  0  0  0  0  0  0  0  0  0  0
    8.9824  -16.0396   23.0633 C   0  0  1  0  0  0  0  0  0  0  0  0
    7.4970  -15.7579   23.1974 C   0  0  0  0  0  0  0  0  0  0  0  0
    7.0951  -15.1820   24.4732 C   0  0  0  0  0  0  0  0  0  0  0  0
    6.5212  -15.7976   25.5440 C   0  0  0  0  0  0  0  0  0  0  0  0
    6.3315  -14.8758   26.5246 N   0  0  0  0  0  0  0  0  0  0  0  0
    6.7621  -13.6750   26.1336 C   0  0  0  0  0  0  0  0  0  0  0  0
    6.7921  -12.4418   26.7526 C   0  0  0  0  0  0  0  0  0  0  0  0
    7.3109  -11.3478   26.0914 C   0  0  0  0  0  0  0  0  0  0  0  0
    7.7914  -11.5261   24.8100 C   0  0  0  0  0  0  0  0  0  0  0  0
    7.7632  -12.7693   24.1808 C   0  0  0  0  0  0  0  0  0  0  0  0
    7.2437  -13.8532   24.8484 C   0  0  0  0  0  0  0  0  0  0  0  0
    9.3716  -17.0243   24.0709 C   0  0  0  0  0  0  0  0  0  0  0  0
    9.0294  -18.2459   24.0218 O   0  0  0  0  0  0  0  0  0  0  0  0
   13.6283  -17.5323   24.1889 N   0  0  0  0  0  0  0  0  0  0  0  0
   12.7386  -18.2355   25.0447 C   0  0  0  0  0  0  0  0  0  0  0  0
   12.5057  -19.4350   24.7754 O   0  0  0  0  0  0  0  0  0  0  0  0
   12.1345  -17.5456   26.1926 C   0  0  0  0  0  0  0  0  0  0  0  0
   10.6240  -17.5870   26.1784 C   0  0  2  0  0  0  0  0  0  0  0  0
   10.1719  -16.6314   25.1701 N   0  0  0  0  0  0  0  0  0  0  0  0
   10.1413  -17.0518   27.4844 C   0  0  0  0  0  0  0  0  0  0  0  0
   10.4057  -17.7560   28.6537 O   0  0  0  0  0  0  0  0  0  0  0  0
    9.4947  -15.9793   27.6038 O   0  0  0  0  0  0  0  0  0  0  0  0
  2  1  1  6
  2  3  1  0
  3  4  1  0
  4  5  1  0
  5  9  1  0
  6  5  2  0
  7  2  1  0
  8  7  2  0
 10  7  1  0
 11 10  1  0
 11 12  1  6
 12 13  1  0
 13 14  2  0
 14 15  1  0
 16 15  1  0
 17 16  2  0
 18 17  1  0
 19 20  1  0
 19 18  2  0
 20 21  2  0
 21 13  1  0
 21 16  1  0
 22 11  1  0
 23 22  2  0
 25 24  1  0
 26 25  2  0
 28 27  1  1
 27 25  1  0
 28 29  1  0
 29 22  1  0
 30 28  1  0
 30 31  1  0
 32 30  2  0
M  END
$$$$
