EWN.pdb
     RDKit          3D

 32 33  0  0  1  0  0  0  0  0999 V2000
    7.7090  -16.3976   20.1005 N   0  0  0  0  0  0  0  0  0  0  0  0
    8.4004  -17.2814   20.9794 C   0  0  1  0  0  0  0  0  0  0  0  0
    9.1991  -18.3031   20.2618 C   0  0  0  0  0  0  0  0  0  0  0  0
    8.7428  -19.7173   20.3731 C   0  0  0  0  0  0  0  0  0  0  0  0
    9.7712  -20.7287   20.5557 C   0  0  0  0  0  0  0  0  0  0  0  0
    9.7470  -21.9374   20.2767 O   0  0  0  0  0  0  0  0  0  0  0  0
    9.1795  -16.5108   21.9765 C   0  0  0  0  0  0  0  0  0  0  0  0
   10.0507  -15.7216   21.5540 O   0  0  0  0  0  0  0  0  0  0  0  0
   10.9835  -20.2715   21.1384 O   0  0  0  0  0  0  0  0  0  0  0  0
    8.9610  -16.6520   23.3519 N   0  0  0  0  0  0  0  0  0  0  0  0
    9.7956  -16.1761   24.4206 C   0  0  1  0  0  0  0  0  0  0  0  0
    9.1152  -16.1024   25.7753 C   0  0  0  0  0  0  0  0  0  0  0  0
    7.8475  -15.3856   25.7863 C   0  0  0  0  0  0  0  0  0  0  0  0
    6.5865  -15.8804   25.6448 C   0  0  0  0  0  0  0  0  0  0  0  0
    5.7035  -14.8510   25.7339 N   0  0  0  0  0  0  0  0  0  0  0  0
    6.3427  -13.6962   25.9295 C   0  0  0  0  0  0  0  0  0  0  0  0
    5.9053  -12.3963   26.0840 C   0  0  0  0  0  0  0  0  0  0  0  0
    6.8155  -11.3783   26.2793 C   0  0  0  0  0  0  0  0  0  0  0  0
    8.1573  -11.6993   26.3144 C   0  0  0  0  0  0  0  0  0  0  0  0
    8.6038  -13.0102   26.1589 C   0  0  0  0  0  0  0  0  0  0  0  0
    7.6884  -14.0175   25.9645 C   0  0  0  0  0  0  0  0  0  0  0  0
   11.0732  -16.8704   24.5684 C   0  0  0  0  0  0  0  0  0  0  0  0
   11.1967  -18.1310   24.4820 O   0  0  0  0  0  0  0  0  0  0  0  0
   16.1820  -17.3479   23.8820 N   0  0  0  0  0  0  0  0  0  0  0  0
   15.7578  -16.0332   23.5501 C   0  0  0  0  0  0  0  0  0  0  0  0
   16.5864  -15.2842   22.9862 O   0  0  0  0  0  0  0  0  0  0  0  0
   14.3897  -15.6060   23.8732 C   0  0  0  0  0  0  0  0  0  0  0  0
   13.5816  -16.6826   24.5601 C   0  0  2  0  0  0  0  0  0  0  0  0
   12.2538  -16.1312   24.8195 N   0  0  0  0  0  0  0  0  0  0  0  0
   14.1873  -16.9205   25.9022 C   0  0  0  0  0  0  0  0  0  0  0  0
   13.4489  -16.6417   27.0468 O   0  0  0  0  0  0  0  0  0  0  0  0
   15.3506  -17.3675   26.0744 O   0  0  0  0  0  0  0  0  0  0  0  0
  2  1  1  6
  2  3  1  0
  3  4  1  0
  4  5  1  0
  5  9  1  0
  6  5  2  0
  7  2  1  0
  8  7  2  0
 10  7  1  0
 11 10  1  0
 11 12  1  1
 12 13  1  0
 13 14  2  0
 14 15  1  0
 16 15  1  0
 17 16  2  0
 18 17  1  0
 19 20  1  0
 19 18  2  0
 20 21  2  0
 21 13  1  0
 21 16  1  0
 22 11  1  0
 23 22  2  0
 25 24  1  0
 26 25  2  0
 28 27  1  6
 27 25  1  0
 28 29  1  0
 29 22  1  0
 30 28  1  0
 30 31  1  0
 32 30  2  0
M  END
$$$$
