PEK.pdb
     RDKit          3D

 26 26  0  0  1  0  0  0  0  0999 V2000
   27.6371  -20.7398  -16.2392 N   0  0  0  0  0  0  0  0  0  0  0  0
   28.7306  -21.3665  -15.5475 C   0  0  0  0  0  0  0  0  0  0  0  0
   28.6509  -22.8191  -15.9443 C   0  0  0  0  0  0  0  0  0  0  0  0
   27.3008  -23.0402  -16.5268 C   0  0  0  0  0  0  0  0  0  0  0  0
   26.6076  -21.7189  -16.3122 C   0  0  1  0  0  0  0  0  0  0  0  0
   25.8509  -21.7915  -15.0330 C   0  0  0  0  0  0  0  0  0  0  0  0
   24.8228  -22.5469  -14.9279 O   0  0  0  0  0  0  0  0  0  0  0  0
   26.1897  -21.0558  -13.8549 N   0  0  0  0  0  0  0  0  0  0  0  0
   25.3127  -20.9309  -12.7532 C   0  0  1  0  0  0  0  0  0  0  0  0
   25.8404  -20.8403  -11.3920 C   0  0  0  0  0  0  0  0  0  0  0  0
   24.9068  -20.9273  -10.2462 C   0  0  0  0  0  0  0  0  0  0  0  0
   25.5391  -20.7602   -8.9179 C   0  0  0  0  0  0  0  0  0  0  0  0
   26.6881  -20.2679   -8.8279 O   0  0  0  0  0  0  0  0  0  0  0  0
   24.0647  -20.1219  -13.0236 C   0  0  0  0  0  0  0  0  0  0  0  0
   24.1120  -18.9956  -13.5258 O   0  0  0  0  0  0  0  0  0  0  0  0
   24.8742  -21.1427   -7.7612 O   0  0  0  0  0  0  0  0  0  0  0  0
   22.8267  -20.7072  -12.6691 N   0  0  0  0  0  0  0  0  0  0  0  0
   21.5359  -20.3691  -13.0902 C   0  0  1  0  0  0  0  0  0  0  0  0
   21.1629  -20.4210  -14.5156 C   0  0  0  0  0  0  0  0  0  0  0  0
   19.8342  -19.9168  -14.9122 C   0  0  0  0  0  0  0  0  0  0  0  0
   19.5097  -20.0355  -16.3533 C   0  0  0  0  0  0  0  0  0  0  0  0
   18.2037  -19.3992  -16.7667 C   0  0  0  0  0  0  0  0  0  0  0  0
   18.0197  -19.3590  -18.1741 N   0  0  0  0  0  0  0  0  0  0  0  0
   20.4414  -21.0572  -12.3202 C   0  0  0  0  0  0  0  0  0  0  0  0
   20.5953  -22.2084  -11.9267 O   0  0  0  0  0  0  0  0  0  0  0  0
   19.2579  -20.3977  -12.0531 O   0  0  0  0  0  0  0  0  0  0  0  0
  2  1  1  0
  3  2  1  0
  4  5  1  0
  4  3  1  0
  5  1  1  0
  5  6  1  1
  6  8  1  0
  7  6  2  0
  8  9  1  0
  9 14  1  0
  9 10  1  1
 11 10  1  0
 12 11  1  0
 13 12  2  0
 14 15  2  0
 14 17  1  0
 16 12  1  0
 17 18  1  0
 18 24  1  0
 18 19  1  6
 20 19  1  0
 21 20  1  0
 22 21  1  0
 23 22  1  0
 24 25  2  0
 24 26  1  0
M  END
$$$$
