PEK.pdb
     RDKit          3D

 26 26  0  0  1  0  0  0  0  0999 V2000
   24.4225  -18.6348  -17.7464 N   0  0  0  0  0  0  0  0  0  0  0  0
   24.5409  -19.9655  -18.2775 C   0  0  0  0  0  0  0  0  0  0  0  0
   23.6395  -19.9755  -19.4863 C   0  0  0  0  0  0  0  0  0  0  0  0
   22.7484  -18.7901  -19.3776 C   0  0  0  0  0  0  0  0  0  0  0  0
   23.0908  -18.2192  -18.0251 C   0  0  1  0  0  0  0  0  0  0  0  0
   22.1390  -18.7793  -17.0279 C   0  0  0  0  0  0  0  0  0  0  0  0
   21.1647  -19.5198  -17.4037 O   0  0  0  0  0  0  0  0  0  0  0  0
   22.2231  -18.5514  -15.6191 N   0  0  0  0  0  0  0  0  0  0  0  0
   21.2153  -18.9621  -14.7168 C   0  0  1  0  0  0  0  0  0  0  0  0
   21.5102  -19.1064  -13.2914 C   0  0  0  0  0  0  0  0  0  0  0  0
   20.5272  -19.7808  -12.4132 C   0  0  0  0  0  0  0  0  0  0  0  0
   20.9368  -19.8907  -10.9947 C   0  0  0  0  0  0  0  0  0  0  0  0
   21.7932  -20.7396  -10.6534 O   0  0  0  0  0  0  0  0  0  0  0  0
   19.8262  -18.4666  -15.0480 C   0  0  0  0  0  0  0  0  0  0  0  0
   19.5918  -17.2745  -15.2644 O   0  0  0  0  0  0  0  0  0  0  0  0
   20.3834  -19.0616  -10.0290 O   0  0  0  0  0  0  0  0  0  0  0  0
   18.7913  -19.4299  -15.0943 N   0  0  0  0  0  0  0  0  0  0  0  0
   17.4326  -19.2550  -15.3793 C   0  0  1  0  0  0  0  0  0  0  0  0
   16.8864  -19.5810  -16.7094 C   0  0  0  0  0  0  0  0  0  0  0  0
   17.2404  -18.7096  -17.8462 C   0  0  0  0  0  0  0  0  0  0  0  0
   16.6694  -19.1041  -19.1556 C   0  0  0  0  0  0  0  0  0  0  0  0
   17.0553  -18.2137  -20.3131 C   0  0  0  0  0  0  0  0  0  0  0  0
   16.4545  -18.5974  -21.5411 N   0  0  0  0  0  0  0  0  0  0  0  0
   16.5101  -19.8658  -14.3593 C   0  0  0  0  0  0  0  0  0  0  0  0
   16.9607  -20.5835  -13.4730 O   0  0  0  0  0  0  0  0  0  0  0  0
   15.1519  -19.6230  -14.4157 O   0  0  0  0  0  0  0  0  0  0  0  0
  2  1  1  0
  3  2  1  0
  4  5  1  0
  4  3  1  0
  5  1  1  0
  5  6  1  1
  6  8  1  0
  7  6  2  0
  8  9  1  0
  9 14  1  0
  9 10  1  1
 11 10  1  0
 12 11  1  0
 13 12  2  0
 14 15  2  0
 14 17  1  0
 16 12  1  0
 17 18  1  0
 18 24  1  0
 18 19  1  6
 20 19  1  0
 21 20  1  0
 22 21  1  0
 23 22  1  0
 24 25  2  0
 24 26  1  0
M  END
$$$$
