PEK.pdb
     RDKit          3D

 26 26  0  0  1  0  0  0  0  0999 V2000
   23.4574  -11.2560  -16.8872 N   0  0  0  0  0  0  0  0  0  0  0  0
   24.2033  -11.0954  -15.6687 C   0  0  0  0  0  0  0  0  0  0  0  0
   23.5619  -12.0558  -14.6992 C   0  0  0  0  0  0  0  0  0  0  0  0
   22.2435  -12.4388  -15.2701 C   0  0  0  0  0  0  0  0  0  0  0  0
   22.1259  -11.5654  -16.4930 C   0  0  1  0  0  0  0  0  0  0  0  0
   21.3827  -10.3326  -16.1160 C   0  0  0  0  0  0  0  0  0  0  0  0
   20.1487  -10.3943  -15.7812 O   0  0  0  0  0  0  0  0  0  0  0  0
   21.9555   -9.0229  -16.0939 N   0  0  0  0  0  0  0  0  0  0  0  0
   21.1954   -7.8607  -15.8291 C   0  0  1  0  0  0  0  0  0  0  0  0
   21.6656   -6.8724  -14.8587 C   0  0  0  0  0  0  0  0  0  0  0  0
   22.4231   -5.6929  -15.3354 C   0  0  0  0  0  0  0  0  0  0  0  0
   22.8980   -4.7875  -14.2646 C   0  0  0  0  0  0  0  0  0  0  0  0
   22.6631   -5.0590  -13.0639 O   0  0  0  0  0  0  0  0  0  0  0  0
   20.4542   -7.3014  -17.0219 C   0  0  0  0  0  0  0  0  0  0  0  0
   20.8981   -7.3944  -18.1697 O   0  0  0  0  0  0  0  0  0  0  0  0
   23.6054   -3.6336  -14.5715 O   0  0  0  0  0  0  0  0  0  0  0  0
   19.2222   -6.6534  -16.7704 N   0  0  0  0  0  0  0  0  0  0  0  0
   18.3642   -6.0065  -17.6666 C   0  0  1  0  0  0  0  0  0  0  0  0
   17.0624   -6.5942  -18.0321 C   0  0  0  0  0  0  0  0  0  0  0  0
   15.8888   -6.2747  -17.1969 C   0  0  0  0  0  0  0  0  0  0  0  0
   14.6208   -6.9269  -17.6005 C   0  0  0  0  0  0  0  0  0  0  0  0
   13.4514   -6.6707  -16.6794 C   0  0  0  0  0  0  0  0  0  0  0  0
   12.2317   -7.2210  -17.1544 N   0  0  0  0  0  0  0  0  0  0  0  0
   18.1211   -4.5573  -17.3428 C   0  0  0  0  0  0  0  0  0  0  0  0
   18.3439   -4.1327  -16.2141 O   0  0  0  0  0  0  0  0  0  0  0  0
   17.6452   -3.6977  -18.3131 O   0  0  0  0  0  0  0  0  0  0  0  0
  2  1  1  0
  3  2  1  0
  4  5  1  0
  4  3  1  0
  5  1  1  0
  5  6  1  1
  6  8  1  0
  7  6  2  0
  8  9  1  0
  9 14  1  0
  9 10  1  6
 11 10  1  0
 12 11  1  0
 13 12  2  0
 14 15  2  0
 14 17  1  0
 16 12  1  0
 17 18  1  0
 18 24  1  0
 18 19  1  1
 20 19  1  0
 21 20  1  0
 22 21  1  0
 23 22  1  0
 24 25  2  0
 24 26  1  0
M  END
$$$$
