PEK.pdb
     RDKit          3D

 26 26  0  0  1  0  0  0  0  0999 V2000
   23.6542  -17.9696  -19.8604 N   0  0  0  0  0  0  0  0  0  0  0  0
   23.6083  -19.1781  -20.6379 C   0  0  0  0  0  0  0  0  0  0  0  0
   22.6022  -18.8947  -21.7247 C   0  0  0  0  0  0  0  0  0  0  0  0
   21.8302  -17.6953  -21.3046 C   0  0  0  0  0  0  0  0  0  0  0  0
   22.3433  -17.4197  -19.9141 C   0  0  1  0  0  0  0  0  0  0  0  0
   21.4424  -18.0962  -18.9420 C   0  0  0  0  0  0  0  0  0  0  0  0
   20.3454  -18.6275  -19.3333 O   0  0  0  0  0  0  0  0  0  0  0  0
   21.7093  -18.2098  -17.5422 N   0  0  0  0  0  0  0  0  0  0  0  0
   20.8031  -18.8088  -16.6374 C   0  0  1  0  0  0  0  0  0  0  0  0
   21.2709  -19.3217  -15.3499 C   0  0  0  0  0  0  0  0  0  0  0  0
   20.4040  -20.2413  -14.5786 C   0  0  0  0  0  0  0  0  0  0  0  0
   21.0075  -20.7608  -13.3305 C   0  0  0  0  0  0  0  0  0  0  0  0
   22.1194  -20.3297  -12.9449 O   0  0  0  0  0  0  0  0  0  0  0  0
   19.4173  -18.2051  -16.6338 C   0  0  0  0  0  0  0  0  0  0  0  0
   19.2340  -16.9899  -16.5218 O   0  0  0  0  0  0  0  0  0  0  0  0
   20.3563  -21.7250  -12.5739 O   0  0  0  0  0  0  0  0  0  0  0  0
   18.3252  -19.0956  -16.7576 N   0  0  0  0  0  0  0  0  0  0  0  0
   16.9535  -18.8192  -16.7497 C   0  0  1  0  0  0  0  0  0  0  0  0
   15.9939  -19.7113  -17.4256 C   0  0  0  0  0  0  0  0  0  0  0  0
   14.5635  -19.3505  -17.4019 C   0  0  0  0  0  0  0  0  0  0  0  0
   13.9599  -19.0441  -18.7202 C   0  0  0  0  0  0  0  0  0  0  0  0
   12.4879  -18.7071  -18.6840 C   0  0  0  0  0  0  0  0  0  0  0  0
   11.9206  -18.5306  -19.9736 N   0  0  0  0  0  0  0  0  0  0  0  0
   16.3971  -18.5232  -15.3833 C   0  0  0  0  0  0  0  0  0  0  0  0
   16.7340  -19.2039  -14.4205 O   0  0  0  0  0  0  0  0  0  0  0  0
   15.5038  -17.4853  -15.2055 O   0  0  0  0  0  0  0  0  0  0  0  0
  2  1  1  0
  3  2  1  0
  4  5  1  0
  4  3  1  0
  5  1  1  0
  5  6  1  1
  6  8  1  0
  7  6  2  0
  8  9  1  0
  9 14  1  0
  9 10  1  1
 11 10  1  0
 12 11  1  0
 13 12  2  0
 14 15  2  0
 14 17  1  0
 16 12  1  0
 17 18  1  0
 18 24  1  0
 18 19  1  1
 20 19  1  0
 21 20  1  0
 22 21  1  0
 23 22  1  0
 24 25  2  0
 24 26  1  0
M  END
$$$$
