PEK.pdb
     RDKit          3D

 26 26  0  0  1  0  0  0  0  0999 V2000
   20.6355  -10.9375  -14.8471 N   0  0  0  0  0  0  0  0  0  0  0  0
   21.3821  -10.4118  -15.9576 C   0  0  0  0  0  0  0  0  0  0  0  0
   22.6141   -9.8041  -15.3357 C   0  0  0  0  0  0  0  0  0  0  0  0
   22.3433   -9.6577  -13.8809 C   0  0  0  0  0  0  0  0  0  0  0  0
   20.8985  -10.0682  -13.7521 C   0  0  1  0  0  0  0  0  0  0  0  0
   20.0569   -8.8436  -13.8309 C   0  0  0  0  0  0  0  0  0  0  0  0
   18.7802   -8.9329  -13.8580 O   0  0  0  0  0  0  0  0  0  0  0  0
   20.5760   -7.5125  -13.8808 N   0  0  0  0  0  0  0  0  0  0  0  0
   19.9571   -6.4255  -13.2220 C   0  0  1  0  0  0  0  0  0  0  0  0
   19.2995   -6.6189  -11.9298 C   0  0  0  0  0  0  0  0  0  0  0  0
   18.6489   -5.4649  -11.2685 C   0  0  0  0  0  0  0  0  0  0  0  0
   17.9887   -5.7800   -9.9813 C   0  0  0  0  0  0  0  0  0  0  0  0
   17.9738   -6.9588   -9.5563 O   0  0  0  0  0  0  0  0  0  0  0  0
   20.6466   -5.0935  -13.4095 C   0  0  0  0  0  0  0  0  0  0  0  0
   21.6520   -4.7815  -12.7654 O   0  0  0  0  0  0  0  0  0  0  0  0
   17.3814   -4.7825   -9.2313 O   0  0  0  0  0  0  0  0  0  0  0  0
   20.0862   -4.2044  -14.3563 N   0  0  0  0  0  0  0  0  0  0  0  0
   20.6651   -3.0901  -14.9736 C   0  0  1  0  0  0  0  0  0  0  0  0
   20.5870   -2.9035  -16.4340 C   0  0  0  0  0  0  0  0  0  0  0  0
   21.3473   -1.7946  -17.0416 C   0  0  0  0  0  0  0  0  0  0  0  0
   21.3278   -1.7424  -18.5225 C   0  0  0  0  0  0  0  0  0  0  0  0
   22.0868   -0.5860  -19.1292 C   0  0  0  0  0  0  0  0  0  0  0  0
   21.9809   -0.5256  -20.5439 N   0  0  0  0  0  0  0  0  0  0  0  0
   20.2942   -1.7773  -14.3385 C   0  0  0  0  0  0  0  0  0  0  0  0
   19.1272   -1.5445  -14.0421 O   0  0  0  0  0  0  0  0  0  0  0  0
   21.2642   -0.8273  -14.0867 O   0  0  0  0  0  0  0  0  0  0  0  0
  2  1  1  0
  3  2  1  0
  4  5  1  0
  4  3  1  0
  5  1  1  0
  5  6  1  6
  6  8  1  0
  7  6  2  0
  8  9  1  0
  9 14  1  0
  9 10  1  1
 11 10  1  0
 12 11  1  0
 13 12  2  0
 14 15  2  0
 14 17  1  0
 16 12  1  0
 17 18  1  0
 18 24  1  0
 18 19  1  6
 20 19  1  0
 21 20  1  0
 22 21  1  0
 23 22  1  0
 24 25  2  0
 24 26  1  0
M  END
$$$$
