PEK.pdb
     RDKit          3D

 26 26  0  0  1  0  0  0  0  0999 V2000
   20.3815  -12.8594  -18.1655 N   0  0  0  0  0  0  0  0  0  0  0  0
   21.2952  -13.2554  -17.1285 C   0  0  0  0  0  0  0  0  0  0  0  0
   20.4115  -13.7127  -15.9954 C   0  0  0  0  0  0  0  0  0  0  0  0
   19.0435  -13.2003  -16.2731 C   0  0  0  0  0  0  0  0  0  0  0  0
   19.2335  -12.3460  -17.5005 C   0  0  1  0  0  0  0  0  0  0  0  0
   19.4565  -10.9418  -17.0614 C   0  0  0  0  0  0  0  0  0  0  0  0
   18.5687  -10.3268  -16.3742 O   0  0  0  0  0  0  0  0  0  0  0  0
   20.6331  -10.1845  -17.3544 N   0  0  0  0  0  0  0  0  0  0  0  0
   20.7659   -8.8178  -17.0182 C   0  0  1  0  0  0  0  0  0  0  0  0
   22.0845   -8.1854  -16.9923 C   0  0  0  0  0  0  0  0  0  0  0  0
   23.1762   -8.8184  -16.2179 C   0  0  0  0  0  0  0  0  0  0  0  0
   24.4756   -8.1123  -16.2879 C   0  0  0  0  0  0  0  0  0  0  0  0
   24.6096   -6.9905  -15.7454 O   0  0  0  0  0  0  0  0  0  0  0  0
   19.6293   -7.9363  -17.4830 C   0  0  0  0  0  0  0  0  0  0  0  0
   19.1626   -8.0181  -18.6225 O   0  0  0  0  0  0  0  0  0  0  0  0
   25.5567   -8.6774  -16.9496 O   0  0  0  0  0  0  0  0  0  0  0  0
   19.1191   -6.9983  -16.5553 N   0  0  0  0  0  0  0  0  0  0  0  0
   18.0861   -6.0682  -16.7155 C   0  0  1  0  0  0  0  0  0  0  0  0
   16.6794   -6.5011  -16.8010 C   0  0  0  0  0  0  0  0  0  0  0  0
   15.6346   -5.4687  -16.9409 C   0  0  0  0  0  0  0  0  0  0  0  0
   14.2468   -5.9757  -17.0561 C   0  0  0  0  0  0  0  0  0  0  0  0
   13.1866   -4.9071  -17.1817 C   0  0  0  0  0  0  0  0  0  0  0  0
   11.8673   -5.4292  -17.2370 N   0  0  0  0  0  0  0  0  0  0  0  0
   18.1388   -4.9217  -15.7423 C   0  0  0  0  0  0  0  0  0  0  0  0
   17.4838   -3.9062  -15.9510 O   0  0  0  0  0  0  0  0  0  0  0  0
   18.9249   -5.0054  -14.6101 O   0  0  0  0  0  0  0  0  0  0  0  0
  2  1  1  0
  3  2  1  0
  4  5  1  0
  4  3  1  0
  5  1  1  0
  5  6  1  1
  6  8  1  0
  7  6  2  0
  8  9  1  0
  9 14  1  0
  9 10  1  6
 11 10  1  0
 12 11  1  0
 13 12  2  0
 14 15  2  0
 14 17  1  0
 16 12  1  0
 17 18  1  0
 18 24  1  0
 18 19  1  1
 20 19  1  0
 21 20  1  0
 22 21  1  0
 23 22  1  0
 24 25  2  0
 24 26  1  0
M  END
$$$$
