PEK.pdb
     RDKit          3D

 26 26  0  0  1  0  0  0  0  0999 V2000
   27.7503  -20.2714  -15.9404 N   0  0  0  0  0  0  0  0  0  0  0  0
   28.3752  -21.2150  -15.0539 C   0  0  0  0  0  0  0  0  0  0  0  0
   28.2043  -22.5494  -15.7350 C   0  0  0  0  0  0  0  0  0  0  0  0
   27.1593  -22.3775  -16.7787 C   0  0  0  0  0  0  0  0  0  0  0  0
   26.6739  -20.9676  -16.5573 C   0  0  1  0  0  0  0  0  0  0  0  0
   25.4886  -21.0180  -15.6591 C   0  0  0  0  0  0  0  0  0  0  0  0
   24.3807  -21.5090  -16.0717 O   0  0  0  0  0  0  0  0  0  0  0  0
   25.4802  -20.5432  -14.3107 N   0  0  0  0  0  0  0  0  0  0  0  0
   24.3018  -20.4713  -13.5330 C   0  0  1  0  0  0  0  0  0  0  0  0
   24.3631  -20.6169  -12.0788 C   0  0  0  0  0  0  0  0  0  0  0  0
   25.3543  -21.5427  -11.4850 C   0  0  0  0  0  0  0  0  0  0  0  0
   25.3498  -21.5891  -10.0052 C   0  0  0  0  0  0  0  0  0  0  0  0
   26.2215  -22.2520   -9.3959 O   0  0  0  0  0  0  0  0  0  0  0  0
   23.2593  -19.5054  -14.0478 C   0  0  0  0  0  0  0  0  0  0  0  0
   23.5498  -18.3620  -14.4102 O   0  0  0  0  0  0  0  0  0  0  0  0
   24.3880  -20.9042   -9.2757 O   0  0  0  0  0  0  0  0  0  0  0  0
   21.9216  -19.9632  -14.0928 N   0  0  0  0  0  0  0  0  0  0  0  0
   20.7719  -19.2937  -14.5260 C   0  0  1  0  0  0  0  0  0  0  0  0
   20.6731  -18.7611  -15.8973 C   0  0  0  0  0  0  0  0  0  0  0  0
   19.4627  -18.0048  -16.2710 C   0  0  0  0  0  0  0  0  0  0  0  0
   19.4052  -17.5461  -17.6790 C   0  0  0  0  0  0  0  0  0  0  0  0
   18.1889  -16.7227  -18.0315 C   0  0  0  0  0  0  0  0  0  0  0  0
   18.2546  -16.1520  -19.3301 N   0  0  0  0  0  0  0  0  0  0  0  0
   19.4913  -20.0316  -14.2437 C   0  0  0  0  0  0  0  0  0  0  0  0
   18.4895  -19.4158  -13.8957 O   0  0  0  0  0  0  0  0  0  0  0  0
   19.4364  -21.4053  -14.3736 O   0  0  0  0  0  0  0  0  0  0  0  0
  2  1  1  0
  3  2  1  0
  4  5  1  0
  4  3  1  0
  5  1  1  0
  5  6  1  1
  6  8  1  0
  7  6  2  0
  8  9  1  0
  9 14  1  0
  9 10  1  1
 11 10  1  0
 12 11  1  0
 13 12  2  0
 14 15  2  0
 14 17  1  0
 16 12  1  0
 17 18  1  0
 18 24  1  0
 18 19  1  6
 20 19  1  0
 21 20  1  0
 22 21  1  0
 23 22  1  0
 24 25  2  0
 24 26  1  0
M  END
$$$$
