PEK.pdb
     RDKit          3D

 26 26  0  0  1  0  0  0  0  0999 V2000
   16.2709  -10.8915  -15.4085 N   0  0  0  0  0  0  0  0  0  0  0  0
   17.5460  -11.3331  -15.9046 C   0  0  0  0  0  0  0  0  0  0  0  0
   17.8469  -12.5862  -15.1216 C   0  0  0  0  0  0  0  0  0  0  0  0
   16.9340  -12.5988  -13.9480 C   0  0  0  0  0  0  0  0  0  0  0  0
   16.2332  -11.2671  -14.0369 C   0  0  1  0  0  0  0  0  0  0  0  0
   16.9788  -10.2907  -13.1973 C   0  0  0  0  0  0  0  0  0  0  0  0
   17.1654  -10.5143  -11.9508 O   0  0  0  0  0  0  0  0  0  0  0  0
   17.5316   -9.0663  -13.6863 N   0  0  0  0  0  0  0  0  0  0  0  0
   18.1783   -8.1305  -12.8468 C   0  0  1  0  0  0  0  0  0  0  0  0
   19.4686   -7.5580  -13.2302 C   0  0  0  0  0  0  0  0  0  0  0  0
   20.1448   -6.6157  -12.3100 C   0  0  0  0  0  0  0  0  0  0  0  0
   21.4431   -6.0977  -12.7979 C   0  0  0  0  0  0  0  0  0  0  0  0
   21.9539   -6.5683  -13.8411 O   0  0  0  0  0  0  0  0  0  0  0  0
   17.2502   -7.2021  -12.0975 C   0  0  0  0  0  0  0  0  0  0  0  0
   16.6775   -6.2612  -12.6541 O   0  0  0  0  0  0  0  0  0  0  0  0
   22.1090   -5.0907  -12.1132 O   0  0  0  0  0  0  0  0  0  0  0  0
   17.0656   -7.4498  -10.7171 N   0  0  0  0  0  0  0  0  0  0  0  0
   16.3043   -6.7364   -9.7846 C   0  0  1  0  0  0  0  0  0  0  0  0
   15.3451   -7.4236   -8.9007 C   0  0  0  0  0  0  0  0  0  0  0  0
   14.0825   -7.9166   -9.4836 C   0  0  0  0  0  0  0  0  0  0  0  0
   13.2069   -8.6771   -8.5610 C   0  0  0  0  0  0  0  0  0  0  0  0
   11.8720   -9.0832   -9.1395 C   0  0  0  0  0  0  0  0  0  0  0  0
   11.0216   -9.7188   -8.1965 N   0  0  0  0  0  0  0  0  0  0  0  0
   17.1104   -5.8023   -8.9233 C   0  0  0  0  0  0  0  0  0  0  0  0
   16.5478   -5.0627   -8.1231 O   0  0  0  0  0  0  0  0  0  0  0  0
   18.4869   -5.7714   -9.0291 O   0  0  0  0  0  0  0  0  0  0  0  0
  2  1  1  0
  3  2  1  0
  4  5  1  0
  4  3  1  0
  5  1  1  0
  5  6  1  1
  6  8  1  0
  7  6  2  0
  8  9  1  0
  9 14  1  0
  9 10  1  6
 11 10  1  0
 12 11  1  0
 13 12  2  0
 14 15  2  0
 14 17  1  0
 16 12  1  0
 17 18  1  0
 18 24  1  0
 18 19  1  1
 20 19  1  0
 21 20  1  0
 22 21  1  0
 23 22  1  0
 24 25  2  0
 24 26  1  0
M  END
$$$$
