PEK.pdb
     RDKit          3D

 26 26  0  0  1  0  0  0  0  0999 V2000
   20.6678  -13.9382  -18.6592 N   0  0  0  0  0  0  0  0  0  0  0  0
   21.8250  -14.6965  -18.2682 C   0  0  0  0  0  0  0  0  0  0  0  0
   21.4711  -15.2631  -16.9163 C   0  0  0  0  0  0  0  0  0  0  0  0
   20.2982  -14.4990  -16.4149 C   0  0  0  0  0  0  0  0  0  0  0  0
   20.1119  -13.4238  -17.4549 C   0  0  1  0  0  0  0  0  0  0  0  0
   20.8454  -12.2092  -17.0067 C   0  0  0  0  0  0  0  0  0  0  0  0
   20.5446  -11.6394  -15.9005 O   0  0  0  0  0  0  0  0  0  0  0  0
   21.9081  -11.5949  -17.7395 N   0  0  0  0  0  0  0  0  0  0  0  0
   22.5154  -10.3840  -17.3349 C   0  0  1  0  0  0  0  0  0  0  0  0
   23.9082  -10.1013  -17.6809 C   0  0  0  0  0  0  0  0  0  0  0  0
   24.5653   -8.9008  -17.1159 C   0  0  0  0  0  0  0  0  0  0  0  0
   25.9699   -8.7056  -17.5410 C   0  0  0  0  0  0  0  0  0  0  0  0
   26.2594   -7.7923  -18.3490 O   0  0  0  0  0  0  0  0  0  0  0  0
   21.5928   -9.1867  -17.3149 C   0  0  0  0  0  0  0  0  0  0  0  0
   20.9026   -8.8771  -18.2899 O   0  0  0  0  0  0  0  0  0  0  0  0
   26.9798   -9.5240  -17.0548 O   0  0  0  0  0  0  0  0  0  0  0  0
   21.5548   -8.4212  -16.1260 N   0  0  0  0  0  0  0  0  0  0  0  0
   20.6553   -7.4179  -15.7487 C   0  0  1  0  0  0  0  0  0  0  0  0
   19.1996   -7.6487  -15.7847 C   0  0  0  0  0  0  0  0  0  0  0  0
   18.3013   -6.5045  -15.5380 C   0  0  0  0  0  0  0  0  0  0  0  0
   16.8520   -6.7959  -15.6427 C   0  0  0  0  0  0  0  0  0  0  0  0
   15.9437   -5.6295  -15.3326 C   0  0  0  0  0  0  0  0  0  0  0  0
   14.5641   -5.9525  -15.4247 N   0  0  0  0  0  0  0  0  0  0  0  0
   20.9706   -6.7809  -14.4225 C   0  0  0  0  0  0  0  0  0  0  0  0
   21.3562   -7.4701  -13.4844 O   0  0  0  0  0  0  0  0  0  0  0  0
   20.8267   -5.4179  -14.2533 O   0  0  0  0  0  0  0  0  0  0  0  0
  2  1  1  0
  3  2  1  0
  4  5  1  0
  4  3  1  0
  5  1  1  0
  5  6  1  1
  6  8  1  0
  7  6  2  0
  8  9  1  0
  9 14  1  0
  9 10  1  6
 11 10  1  0
 12 11  1  0
 13 12  2  0
 14 15  2  0
 14 17  1  0
 16 12  1  0
 17 18  1  0
 18 24  1  0
 18 19  1  1
 20 19  1  0
 21 20  1  0
 22 21  1  0
 23 22  1  0
 24 25  2  0
 24 26  1  0
M  END
$$$$
