PSV.pdb
     RDKit          3D

 21 21  0  0  1  0  0  0  0  0999 V2000
   17.7611  -14.0679  -17.5867 N   0  0  0  0  0  0  0  0  0  0  0  0
   17.0272  -15.2253  -17.0876 C   0  0  0  0  0  0  0  0  0  0  0  0
   16.5430  -14.8743  -15.7090 C   0  0  0  0  0  0  0  0  0  0  0  0
   17.1653  -13.5346  -15.4419 C   0  0  0  0  0  0  0  0  0  0  0  0
   17.2222  -12.9571  -16.8569 C   0  0  1  0  0  0  0  0  0  0  0  0
   18.0719  -11.7646  -16.8350 C   0  0  0  0  0  0  0  0  0  0  0  0
   19.3314  -11.9771  -16.7983 O   0  0  0  0  0  0  0  0  0  0  0  0
   16.8266   -7.7745  -16.3579 O   0  0  0  0  0  0  0  0  0  0  0  0
   17.7223   -8.1028  -17.3480 C   0  0  0  0  0  0  0  0  0  0  0  0
   18.5339   -9.3515  -16.9782 C   0  0  2  0  0  0  0  0  0  0  0  0
   17.5859  -10.4312  -16.8517 N   0  0  0  0  0  0  0  0  0  0  0  0
   19.2897   -9.1130  -15.7264 C   0  0  0  0  0  0  0  0  0  0  0  0
   18.7547   -9.4749  -14.6474 O   0  0  0  0  0  0  0  0  0  0  0  0
   22.1490  -10.4300  -14.0217 C   0  0  0  0  0  0  0  0  0  0  0  0
   22.5193   -9.0026  -14.2614 C   0  0  1  0  0  0  0  0  0  0  0  0
   23.5064   -8.8172  -15.3885 C   0  0  0  0  0  0  0  0  0  0  0  0
   21.2622   -8.1948  -14.4568 C   0  0  2  0  0  0  0  0  0  0  0  0
   20.5652   -8.5091  -15.6642 N   0  0  0  0  0  0  0  0  0  0  0  0
   21.6076   -6.7632  -14.4411 C   0  0  0  0  0  0  0  0  0  0  0  0
   22.0743   -6.1840  -13.2844 O   0  0  0  0  0  0  0  0  0  0  0  0
   21.4808   -6.0693  -15.4685 O   0  0  0  0  0  0  0  0  0  0  0  0
  1  2  1  0
  3  2  1  0
  4  5  1  0
  4  3  1  0
  5  1  1  0
  5  6  1  1
  6 11  1  0
  7  6  2  0
  8  9  1  0
 10 11  1  0
 10 12  1  0
 10  9  1  1
 12 13  2  0
 12 18  1  0
 15 16  1  6
 15 14  1  0
 17 15  1  0
 17 18  1  6
 19 20  1  0
 19 17  1  0
 21 19  2  0
M  END
$$$$
