PSV.pdb
     RDKit          3D

 21 21  0  0  1  0  0  0  0  0999 V2000
   17.2681  -12.6927  -16.6384 N   0  0  0  0  0  0  0  0  0  0  0  0
   16.4705  -13.7248  -15.9858 C   0  0  0  0  0  0  0  0  0  0  0  0
   15.9867  -13.1464  -14.6860 C   0  0  0  0  0  0  0  0  0  0  0  0
   16.6721  -11.8130  -14.6110 C   0  0  0  0  0  0  0  0  0  0  0  0
   16.7763  -11.4598  -16.0954 C   0  0  1  0  0  0  0  0  0  0  0  0
   17.6846  -10.3197  -16.2360 C   0  0  0  0  0  0  0  0  0  0  0  0
   18.9303  -10.6007  -16.2827 O   0  0  0  0  0  0  0  0  0  0  0  0
   16.6591   -6.2672  -15.9084 O   0  0  0  0  0  0  0  0  0  0  0  0
   17.5092   -6.6683  -16.9117 C   0  0  0  0  0  0  0  0  0  0  0  0
   18.2668   -7.9462  -16.5271 C   0  0  2  0  0  0  0  0  0  0  0  0
   17.2676   -8.9656  -16.3201 N   0  0  0  0  0  0  0  0  0  0  0  0
   19.0876   -7.7049  -15.3176 C   0  0  0  0  0  0  0  0  0  0  0  0
   18.5785   -7.9910  -14.2040 O   0  0  0  0  0  0  0  0  0  0  0  0
   21.9254   -9.1347  -13.7047 C   0  0  0  0  0  0  0  0  0  0  0  0
   22.3742   -7.7378  -13.9863 C   0  0  1  0  0  0  0  0  0  0  0  0
   23.3395   -7.6365  -15.1426 C   0  0  0  0  0  0  0  0  0  0  0  0
   21.1631   -6.8595  -14.1673 C   0  0  2  0  0  0  0  0  0  0  0  0
   20.3979   -7.1774  -15.3317 N   0  0  0  0  0  0  0  0  0  0  0  0
   21.5978   -5.4537  -14.2273 C   0  0  0  0  0  0  0  0  0  0  0  0
   22.1256   -4.8517  -13.1092 O   0  0  0  0  0  0  0  0  0  0  0  0
   21.4918   -4.8021  -15.2844 O   0  0  0  0  0  0  0  0  0  0  0  0
  1  2  1  0
  3  2  1  0
  4  5  1  0
  4  3  1  0
  5  1  1  0
  5  6  1  1
  6 11  1  0
  7  6  2  0
  8  9  1  0
 10 11  1  0
 10 12  1  0
 10  9  1  1
 12 13  2  0
 12 18  1  0
 15 16  1  6
 15 14  1  0
 17 15  1  0
 17 18  1  6
 19 20  1  0
 19 17  1  0
 21 19  2  0
M  END
$$$$
