PSV.pdb
     RDKit          3D

 21 21  0  0  1  0  0  0  0  0999 V2000
   20.5855  -11.0959  -15.6227 N   0  0  0  0  0  0  0  0  0  0  0  0
   20.3994  -12.4071  -16.2338 C   0  0  0  0  0  0  0  0  0  0  0  0
   19.1905  -12.3079  -17.1210 C   0  0  0  0  0  0  0  0  0  0  0  0
   18.6615  -10.9292  -16.8515 C   0  0  0  0  0  0  0  0  0  0  0  0
   19.9570  -10.1819  -16.5318 C   0  0  1  0  0  0  0  0  0  0  0  0
   19.6095   -8.8815  -15.9550 C   0  0  0  0  0  0  0  0  0  0  0  0
   19.1539   -8.0118  -16.7729 O   0  0  0  0  0  0  0  0  0  0  0  0
   19.4629   -8.0793  -11.9043 O   0  0  0  0  0  0  0  0  0  0  0  0
   18.6726   -7.3922  -12.7951 C   0  0  0  0  0  0  0  0  0  0  0  0
   19.3716   -7.2244  -14.1509 C   0  0  2  0  0  0  0  0  0  0  0  0
   19.7476   -8.5484  -14.5822 N   0  0  0  0  0  0  0  0  0  0  0  0
   20.5385   -6.3222  -14.0120 C   0  0  0  0  0  0  0  0  0  0  0  0
   21.6024   -6.8150  -13.5574 O   0  0  0  0  0  0  0  0  0  0  0  0
   22.6569   -4.7363  -16.4184 C   0  0  0  0  0  0  0  0  0  0  0  0
   22.1360   -3.5856  -15.6205 C   0  0  1  0  0  0  0  0  0  0  0  0
   21.0739   -2.7871  -16.3370 C   0  0  0  0  0  0  0  0  0  0  0  0
   21.6722   -4.0885  -14.2777 C   0  0  2  0  0  0  0  0  0  0  0  0
   20.5359   -4.9518  -14.3545 N   0  0  0  0  0  0  0  0  0  0  0  0
   21.3618   -2.9343  -13.4172 C   0  0  0  0  0  0  0  0  0  0  0  0
   22.3726   -2.1024  -12.9963 O   0  0  0  0  0  0  0  0  0  0  0  0
   20.1886   -2.7033  -13.0655 O   0  0  0  0  0  0  0  0  0  0  0  0
  1  2  1  0
  3  2  1  0
  4  5  1  0
  4  3  1  0
  5  1  1  0
  5  6  1  1
  6 11  1  0
  7  6  2  0
  8  9  1  0
 10 11  1  0
 10 12  1  0
 10  9  1  1
 12 13  2  0
 12 18  1  0
 15 16  1  6
 15 14  1  0
 17 15  1  0
 17 18  1  6
 19 20  1  0
 19 17  1  0
 21 19  2  0
M  END
$$$$
