PSV.pdb
     RDKit          3D

 21 21  0  0  1  0  0  0  0  0999 V2000
   17.4029  -12.2746  -15.1244 N   0  0  0  0  0  0  0  0  0  0  0  0
   16.9288  -13.5554  -15.6364 C   0  0  0  0  0  0  0  0  0  0  0  0
   17.1136  -13.5252  -17.1274 C   0  0  0  0  0  0  0  0  0  0  0  0
   17.5785  -12.1245  -17.4017 C   0  0  0  0  0  0  0  0  0  0  0  0
   18.3378  -11.8159  -16.1105 C   0  0  1  0  0  0  0  0  0  0  0  0
   18.6177  -10.3790  -16.0718 C   0  0  0  0  0  0  0  0  0  0  0  0
   19.7056  -10.0069  -16.6296 O   0  0  0  0  0  0  0  0  0  0  0  0
   17.1460   -5.8639  -15.1723 O   0  0  0  0  0  0  0  0  0  0  0  0
   16.8945   -7.2156  -15.1647 C   0  0  0  0  0  0  0  0  0  0  0  0
   18.1408   -8.0199  -15.5577 C   0  0  2  0  0  0  0  0  0  0  0  0
   17.7729   -9.4116  -15.4677 N   0  0  0  0  0  0  0  0  0  0  0  0
   19.2704   -7.6747  -14.6633 C   0  0  0  0  0  0  0  0  0  0  0  0
   19.2738   -8.1790  -13.5114 O   0  0  0  0  0  0  0  0  0  0  0  0
   22.7316   -8.4830  -14.3630 C   0  0  0  0  0  0  0  0  0  0  0  0
   22.7434   -7.0012  -14.5528 C   0  0  1  0  0  0  0  0  0  0  0  0
   23.1465   -6.5750  -15.9438 C   0  0  0  0  0  0  0  0  0  0  0  0
   21.4051   -6.4425  -14.1432 C   0  0  2  0  0  0  0  0  0  0  0  0
   20.3388   -6.8207  -15.0164 N   0  0  0  0  0  0  0  0  0  0  0  0
   21.4995   -4.9741  -14.0819 C   0  0  0  0  0  0  0  0  0  0  0  0
   22.3316   -4.3792  -13.1627 O   0  0  0  0  0  0  0  0  0  0  0  0
   20.8310   -4.2630  -14.8569 O   0  0  0  0  0  0  0  0  0  0  0  0
  1  2  1  0
  3  2  1  0
  4  5  1  0
  4  3  1  0
  5  1  1  0
  5  6  1  1
  6 11  1  0
  7  6  2  0
  8  9  1  0
 10 11  1  0
 10 12  1  0
 10  9  1  1
 12 13  2  0
 12 18  1  0
 15 16  1  6
 15 14  1  0
 17 15  1  0
 17 18  1  6
 19 20  1  0
 19 17  1  0
 21 19  2  0
M  END
$$$$
