PSV.pdb
     RDKit          3D

 21 21  0  0  1  0  0  0  0  0999 V2000
   22.6504  -12.8814  -16.5616 N   0  0  0  0  0  0  0  0  0  0  0  0
   23.6192  -13.8353  -16.0334 C   0  0  0  0  0  0  0  0  0  0  0  0
   24.2527  -13.1940  -14.8310 C   0  0  0  0  0  0  0  0  0  0  0  0
   23.6792  -11.8068  -14.8220 C   0  0  0  0  0  0  0  0  0  0  0  0
   22.3026  -12.0611  -15.4378 C   0  0  1  0  0  0  0  0  0  0  0  0
   21.7044  -10.7691  -15.7806 C   0  0  0  0  0  0  0  0  0  0  0  0
   22.2366  -10.1509  -16.7643 O   0  0  0  0  0  0  0  0  0  0  0  0
   17.8937   -8.0006  -16.0737 O   0  0  0  0  0  0  0  0  0  0  0  0
   18.5277   -9.1308  -15.6145 C   0  0  0  0  0  0  0  0  0  0  0  0
   20.0519   -8.9537  -15.6047 C   0  0  2  0  0  0  0  0  0  0  0  0
   20.6024  -10.1879  -15.1006 N   0  0  0  0  0  0  0  0  0  0  0  0
   20.4218   -7.7869  -14.7700 C   0  0  0  0  0  0  0  0  0  0  0  0
   20.5811   -7.9817  -13.5380 O   0  0  0  0  0  0  0  0  0  0  0  0
   21.8281   -4.2693  -16.5429 C   0  0  0  0  0  0  0  0  0  0  0  0
   22.2239   -4.6321  -15.1487 C   0  0  1  0  0  0  0  0  0  0  0  0
   22.6948   -3.4542  -14.3302 C   0  0  0  0  0  0  0  0  0  0  0  0
   21.0880   -5.3735  -14.4923 C   0  0  2  0  0  0  0  0  0  0  0  0
   20.6067   -6.4763  -15.2634 N   0  0  0  0  0  0  0  0  0  0  0  0
   19.9872   -4.4294  -14.2353 C   0  0  0  0  0  0  0  0  0  0  0  0
   20.0806   -3.5357  -13.1942 O   0  0  0  0  0  0  0  0  0  0  0  0
   18.9690   -4.4323  -14.9538 O   0  0  0  0  0  0  0  0  0  0  0  0
  1  2  1  0
  3  2  1  0
  4  5  1  0
  4  3  1  0
  5  1  1  0
  5  6  1  6
  6 11  1  0
  7  6  2  0
  8  9  1  0
 10 11  1  0
 10 12  1  0
 10  9  1  1
 12 13  2  0
 12 18  1  0
 15 16  1  1
 15 14  1  0
 17 15  1  0
 17 18  1  6
 19 20  1  0
 19 17  1  0
 21 19  2  0
M  END
$$$$
