PSV.pdb
     RDKit          3D

 21 21  0  0  1  0  0  0  0  0999 V2000
   16.4104  -10.6154  -15.8894 N   0  0  0  0  0  0  0  0  0  0  0  0
   16.4619  -11.8288  -16.6968 C   0  0  0  0  0  0  0  0  0  0  0  0
   17.0271  -12.9120  -15.8220 C   0  0  0  0  0  0  0  0  0  0  0  0
   17.4011  -12.1925  -14.5587 C   0  0  0  0  0  0  0  0  0  0  0  0
   16.3464  -11.0853  -14.5359 C   0  0  1  0  0  0  0  0  0  0  0  0
   16.7329  -10.1003  -13.5235 C   0  0  0  0  0  0  0  0  0  0  0  0
   16.6889  -10.4999  -12.3104 O   0  0  0  0  0  0  0  0  0  0  0  0
   19.7371   -7.5480  -13.6362 O   0  0  0  0  0  0  0  0  0  0  0  0
   18.5596   -6.9256  -13.2951 C   0  0  0  0  0  0  0  0  0  0  0  0
   17.5460   -7.9220  -12.7166 C   0  0  2  0  0  0  0  0  0  0  0  0
   17.1396   -8.7710  -13.8096 N   0  0  0  0  0  0  0  0  0  0  0  0
   16.4061   -7.1933  -12.1127 C   0  0  0  0  0  0  0  0  0  0  0  0
   15.4825   -6.8212  -12.8806 O   0  0  0  0  0  0  0  0  0  0  0  0
   13.6682   -7.8811   -9.6952 C   0  0  0  0  0  0  0  0  0  0  0  0
   14.4782   -6.7858   -9.0818 C   0  0  1  0  0  0  0  0  0  0  0  0
   15.3583   -7.2504   -7.9466 C   0  0  0  0  0  0  0  0  0  0  0  0
   15.2562   -6.0841  -10.1651 C   0  0  2  0  0  0  0  0  0  0  0  0
   16.2882   -6.8899  -10.7381 N   0  0  0  0  0  0  0  0  0  0  0  0
   15.8395   -4.8505   -9.6110 C   0  0  0  0  0  0  0  0  0  0  0  0
   17.2005   -4.7531   -9.4404 O   0  0  0  0  0  0  0  0  0  0  0  0
   15.1098   -3.8911   -9.2943 O   0  0  0  0  0  0  0  0  0  0  0  0
  1  2  1  0
  3  2  1  0
  4  5  1  0
  4  3  1  0
  5  1  1  0
  5  6  1  1
  6 11  1  0
  7  6  2  0
  8  9  1  0
 10 11  1  0
 10 12  1  0
 10  9  1  6
 12 13  2  0
 12 18  1  0
 15 16  1  1
 15 14  1  0
 17 15  1  0
 17 18  1  1
 19 20  1  0
 19 17  1  0
 21 19  2  0
M  END
$$$$
