PSV.pdb
     RDKit          3D

 21 21  0  0  1  0  0  0  0  0999 V2000
   27.7927  -19.8850  -14.4146 N   0  0  0  0  0  0  0  0  0  0  0  0
   29.0448  -20.0312  -15.1481 C   0  0  0  0  0  0  0  0  0  0  0  0
   29.0991  -21.4497  -15.6414 C   0  0  0  0  0  0  0  0  0  0  0  0
   27.8893  -22.0892  -15.0244 C   0  0  0  0  0  0  0  0  0  0  0  0
   26.9346  -20.8960  -14.9609 C   0  0  1  0  0  0  0  0  0  0  0  0
   25.7962  -21.2602  -14.1147 C   0  0  0  0  0  0  0  0  0  0  0  0
   24.9572  -22.0758  -14.6283 O   0  0  0  0  0  0  0  0  0  0  0  0
   25.8824  -21.5576  -10.1883 O   0  0  0  0  0  0  0  0  0  0  0  0
   24.7110  -20.9593  -10.5883 C   0  0  0  0  0  0  0  0  0  0  0  0
   24.4239  -21.2252  -12.0720 C   0  0  2  0  0  0  0  0  0  0  0  0
   25.5837  -20.7711  -12.7994 N   0  0  0  0  0  0  0  0  0  0  0  0
   23.1869  -20.5211  -12.4836 C   0  0  0  0  0  0  0  0  0  0  0  0
   23.1984  -19.2640  -12.4572 O   0  0  0  0  0  0  0  0  0  0  0  0
   21.2805  -20.5871  -15.7123 C   0  0  0  0  0  0  0  0  0  0  0  0
   20.2931  -20.9569  -14.6538 C   0  0  1  0  0  0  0  0  0  0  0  0
   19.9276  -22.4216  -14.6559 C   0  0  0  0  0  0  0  0  0  0  0  0
   20.8096  -20.4931  -13.3162 C   0  0  2  0  0  0  0  0  0  0  0  0
   22.0011  -21.1648  -12.9018 N   0  0  0  0  0  0  0  0  0  0  0  0
   19.7553  -20.6832  -12.3055 C   0  0  0  0  0  0  0  0  0  0  0  0
   18.6267  -19.8981  -12.3373 O   0  0  0  0  0  0  0  0  0  0  0  0
   19.8761  -21.5509  -11.4191 O   0  0  0  0  0  0  0  0  0  0  0  0
  1  2  1  0
  3  2  1  0
  4  5  1  0
  4  3  1  0
  5  1  1  0
  5  6  1  1
  6 11  1  0
  7  6  2  0
  8  9  1  0
 10 11  1  0
 10 12  1  0
 10  9  1  1
 12 13  2  0
 12 18  1  0
 15 16  1  1
 15 14  1  0
 17 15  1  0
 17 18  1  1
 19 20  1  0
 19 17  1  0
 21 19  2  0
M  END
$$$$
