PSV.pdb
     RDKit          3D

 21 21  0  0  1  0  0  0  0  0999 V2000
   16.0341  -12.8704  -18.1629 N   0  0  0  0  0  0  0  0  0  0  0  0
   15.1045  -13.9794  -18.3452 C   0  0  0  0  0  0  0  0  0  0  0  0
   15.5361  -15.0700  -17.4059 C   0  0  0  0  0  0  0  0  0  0  0  0
   16.8137  -14.5483  -16.8152 C   0  0  0  0  0  0  0  0  0  0  0  0
   16.5449  -13.0428  -16.8339 C   0  0  1  0  0  0  0  0  0  0  0  0
   17.8040  -12.3457  -16.5633 C   0  0  0  0  0  0  0  0  0  0  0  0
   18.2822  -12.4931  -15.3874 O   0  0  0  0  0  0  0  0  0  0  0  0
   19.6891   -9.3839  -18.9239 O   0  0  0  0  0  0  0  0  0  0  0  0
   20.4045  -10.4479  -18.4275 C   0  0  0  0  0  0  0  0  0  0  0  0
   19.7775  -10.9916  -17.1368 C   0  0  2  0  0  0  0  0  0  0  0  0
   18.4968  -11.5425  -17.5064 N   0  0  0  0  0  0  0  0  0  0  0  0
   19.6585   -9.9071  -16.1344 C   0  0  0  0  0  0  0  0  0  0  0  0
   18.5551   -9.3095  -16.0540 O   0  0  0  0  0  0  0  0  0  0  0  0
   19.8028   -9.6780  -12.3837 C   0  0  0  0  0  0  0  0  0  0  0  0
   20.9231   -8.8428  -12.9123 C   0  0  1  0  0  0  0  0  0  0  0  0
   22.2751   -9.5041  -12.7949 C   0  0  0  0  0  0  0  0  0  0  0  0
   20.6036   -8.4299  -14.3260 C   0  0  2  0  0  0  0  0  0  0  0  0
   20.6971   -9.5013  -15.2672 N   0  0  0  0  0  0  0  0  0  0  0  0
   21.5122   -7.3405  -14.7218 C   0  0  0  0  0  0  0  0  0  0  0  0
   21.4545   -6.1303  -14.0714 O   0  0  0  0  0  0  0  0  0  0  0  0
   22.3352   -7.5049  -15.6431 O   0  0  0  0  0  0  0  0  0  0  0  0
  1  2  1  0
  3  2  1  0
  4  5  1  0
  4  3  1  0
  5  1  1  0
  5  6  1  6
  6 11  1  0
  7  6  2  0
  8  9  1  0
 10 11  1  0
 10 12  1  0
 10  9  1  6
 12 13  2  0
 12 18  1  0
 15 16  1  6
 15 14  1  0
 17 15  1  0
 17 18  1  6
 19 20  1  0
 19 17  1  0
 21 19  2  0
M  END
$$$$
