PSV.pdb
     RDKit          3D

 21 21  0  0  1  0  0  0  0  0999 V2000
   20.1793  -10.1137  -16.6176 N   0  0  0  0  0  0  0  0  0  0  0  0
   20.2234  -11.0488  -17.7360 C   0  0  0  0  0  0  0  0  0  0  0  0
   20.3898  -10.2291  -18.9845 C   0  0  0  0  0  0  0  0  0  0  0  0
   20.2955   -8.8124  -18.4972 C   0  0  0  0  0  0  0  0  0  0  0  0
   20.8776   -8.9534  -17.0900 C   0  0  1  0  0  0  0  0  0  0  0  0
   20.5969   -7.7220  -16.3488 C   0  0  0  0  0  0  0  0  0  0  0  0
   19.3621   -7.4263  -16.2044 O   0  0  0  0  0  0  0  0  0  0  0  0
   22.0996   -4.1459  -13.4799 O   0  0  0  0  0  0  0  0  0  0  0  0
   22.3711   -5.2870  -14.1971 C   0  0  0  0  0  0  0  0  0  0  0  0
   21.1711   -5.7080  -15.0559 C   0  0  2  0  0  0  0  0  0  0  0  0
   21.5908   -6.8693  -15.8014 N   0  0  0  0  0  0  0  0  0  0  0  0
   20.7596   -4.5894  -15.9360 C   0  0  0  0  0  0  0  0  0  0  0  0
   21.3574   -4.4655  -17.0353 O   0  0  0  0  0  0  0  0  0  0  0  0
   17.0181   -2.7650  -15.6806 C   0  0  0  0  0  0  0  0  0  0  0  0
   17.8778   -2.7021  -16.9008 C   0  0  1  0  0  0  0  0  0  0  0  0
   17.4745   -1.6140  -17.8666 C   0  0  0  0  0  0  0  0  0  0  0  0
   19.3209   -2.5946  -16.4804 C   0  0  2  0  0  0  0  0  0  0  0  0
   19.7452   -3.6571  -15.6240 N   0  0  0  0  0  0  0  0  0  0  0  0
   19.5266   -1.3014  -15.8065 C   0  0  0  0  0  0  0  0  0  0  0  0
   19.7091   -0.1613  -16.5534 O   0  0  0  0  0  0  0  0  0  0  0  0
   19.5370   -1.2296  -14.5623 O   0  0  0  0  0  0  0  0  0  0  0  0
  1  2  1  0
  3  2  1  0
  4  5  1  0
  4  3  1  0
  5  1  1  0
  5  6  1  1
  6 11  1  0
  7  6  2  0
  8  9  1  0
 10 11  1  0
 10 12  1  0
 10  9  1  6
 12 13  2  0
 12 18  1  0
 15 16  1  6
 15 14  1  0
 17 15  1  0
 17 18  1  1
 19 20  1  0
 19 17  1  0
 21 19  2  0
M  END
$$$$
