PSV.pdb
     RDKit          3D

 21 21  0  0  1  0  0  0  0  0999 V2000
   16.5419  -11.3801  -16.3461 N   0  0  0  0  0  0  0  0  0  0  0  0
   15.5450  -12.3035  -16.8759 C   0  0  0  0  0  0  0  0  0  0  0  0
   15.7180  -12.3240  -18.3685 C   0  0  0  0  0  0  0  0  0  0  0  0
   16.7570  -11.2708  -18.6224 C   0  0  0  0  0  0  0  0  0  0  0  0
   17.5794  -11.3627  -17.3362 C   0  0  1  0  0  0  0  0  0  0  0  0
   18.4702  -10.2020  -17.2739 C   0  0  0  0  0  0  0  0  0  0  0  0
   19.7203  -10.4524  -17.3601 O   0  0  0  0  0  0  0  0  0  0  0  0
   17.3170   -6.1672  -16.6547 O   0  0  0  0  0  0  0  0  0  0  0  0
   18.3186   -6.5262  -17.5253 C   0  0  0  0  0  0  0  0  0  0  0  0
   19.0220   -7.8121  -17.0710 C   0  0  2  0  0  0  0  0  0  0  0  0
   18.0323   -8.8598  -17.1276 N   0  0  0  0  0  0  0  0  0  0  0  0
   19.5780   -7.6325  -15.7095 C   0  0  0  0  0  0  0  0  0  0  0  0
   18.7979   -7.7982  -14.7373 O   0  0  0  0  0  0  0  0  0  0  0  0
   21.9065   -9.4546  -13.5771 C   0  0  0  0  0  0  0  0  0  0  0  0
   22.5366   -8.1151  -13.7785 C   0  0  1  0  0  0  0  0  0  0  0  0
   23.6624   -8.1238  -14.7843 C   0  0  0  0  0  0  0  0  0  0  0  0
   21.4639   -7.1139  -14.1220 C   0  0  2  0  0  0  0  0  0  0  0  0
   20.9198   -7.2891  -15.4319 N   0  0  0  0  0  0  0  0  0  0  0  0
   22.0192   -5.7561  -13.9925 C   0  0  0  0  0  0  0  0  0  0  0  0
   22.1079   -4.9441  -15.0987 O   0  0  0  0  0  0  0  0  0  0  0  0
   22.4108   -5.3342  -12.8870 O   0  0  0  0  0  0  0  0  0  0  0  0
  1  2  1  0
  3  2  1  0
  4  5  1  0
  4  3  1  0
  5  1  1  0
  5  6  1  1
  6 11  1  0
  7  6  2  0
  8  9  1  0
 10 11  1  0
 10 12  1  0
 10  9  1  1
 12 13  2  0
 12 18  1  0
 15 16  1  6
 15 14  1  0
 17 15  1  0
 17 18  1  6
 19 20  1  0
 19 17  1  0
 21 19  2  0
M  END
$$$$
