PSV.pdb
     RDKit          3D

 21 21  0  0  1  0  0  0  0  0999 V2000
   19.5832  -12.9934  -16.1314 N   0  0  0  0  0  0  0  0  0  0  0  0
   19.1757  -14.3642  -16.4183 C   0  0  0  0  0  0  0  0  0  0  0  0
   18.0788  -14.2886  -17.4426 C   0  0  0  0  0  0  0  0  0  0  0  0
   17.8261  -12.8160  -17.5877 C   0  0  0  0  0  0  0  0  0  0  0  0
   19.2215  -12.2562  -17.3072 C   0  0  1  0  0  0  0  0  0  0  0  0
   19.1082  -10.8088  -17.1155 C   0  0  0  0  0  0  0  0  0  0  0  0
   18.9209  -10.1184  -18.1744 O   0  0  0  0  0  0  0  0  0  0  0  0
   17.4524   -7.1686  -14.8016 O   0  0  0  0  0  0  0  0  0  0  0  0
   17.7313   -8.5071  -14.9458 C   0  0  0  0  0  0  0  0  0  0  0  0
   18.9833   -8.7295  -15.8047 C   0  0  2  0  0  0  0  0  0  0  0  0
   19.1929  -10.1555  -15.8583 N   0  0  0  0  0  0  0  0  0  0  0  0
   20.1369   -8.0101  -15.2159 C   0  0  0  0  0  0  0  0  0  0  0  0
   20.7406   -8.5637  -14.2617 O   0  0  0  0  0  0  0  0  0  0  0  0
   23.2493   -4.1544  -15.1877 C   0  0  0  0  0  0  0  0  0  0  0  0
   22.2354   -4.9411  -15.9526 C   0  0  1  0  0  0  0  0  0  0  0  0
   22.7496   -5.4662  -17.2712 C   0  0  0  0  0  0  0  0  0  0  0  0
   21.6923   -6.0341  -15.0686 C   0  0  2  0  0  0  0  0  0  0  0  0
   20.6018   -6.7498  -15.6527 N   0  0  0  0  0  0  0  0  0  0  0  0
   21.2699   -5.4452  -13.7865 C   0  0  0  0  0  0  0  0  0  0  0  0
   22.0799   -5.5584  -12.6810 O   0  0  0  0  0  0  0  0  0  0  0  0
   20.1824   -4.8436  -13.6930 O   0  0  0  0  0  0  0  0  0  0  0  0
  1  2  1  0
  3  2  1  0
  4  5  1  0
  4  3  1  0
  5  1  1  0
  5  6  1  1
  6 11  1  0
  7  6  2  0
  8  9  1  0
 10 11  1  0
 10 12  1  0
 10  9  1  1
 12 13  2  0
 12 18  1  0
 15 16  1  6
 15 14  1  0
 17 15  1  0
 17 18  1  6
 19 20  1  0
 19 17  1  0
 21 19  2  0
M  END
$$$$
