PSV.pdb
     RDKit          3D

 21 21  0  0  1  0  0  0  0  0999 V2000
   26.2694  -20.1107  -14.3173 N   0  0  0  0  0  0  0  0  0  0  0  0
   27.0339  -20.6913  -15.4153 C   0  0  0  0  0  0  0  0  0  0  0  0
   28.1666  -21.4629  -14.7989 C   0  0  0  0  0  0  0  0  0  0  0  0
   28.0524  -21.1563  -13.3339 C   0  0  0  0  0  0  0  0  0  0  0  0
   26.5412  -20.9646  -13.1976 C   0  0  1  0  0  0  0  0  0  0  0  0
   26.2678  -20.3684  -11.8882 C   0  0  0  0  0  0  0  0  0  0  0  0
   26.4850  -19.1129  -11.7901 O   0  0  0  0  0  0  0  0  0  0  0  0
   23.2246  -20.0010   -9.8269 O   0  0  0  0  0  0  0  0  0  0  0  0
   24.1478  -20.6927   -9.0788 C   0  0  0  0  0  0  0  0  0  0  0  0
   25.5814  -20.3756   -9.5247 C   0  0  2  0  0  0  0  0  0  0  0  0
   25.7905  -21.0876  -10.7615 N   0  0  0  0  0  0  0  0  0  0  0  0
   26.5415  -20.7787   -8.4708 C   0  0  0  0  0  0  0  0  0  0  0  0
   26.9209  -21.9775   -8.4590 O   0  0  0  0  0  0  0  0  0  0  0  0
   28.2398  -17.9739   -5.7134 C   0  0  0  0  0  0  0  0  0  0  0  0
   28.9955  -19.1814   -6.1639 C   0  0  1  0  0  0  0  0  0  0  0  0
   30.0584  -19.6258   -5.1883 C   0  0  0  0  0  0  0  0  0  0  0  0
   28.0170  -20.2798   -6.4910 C   0  0  2  0  0  0  0  0  0  0  0  0
   27.0568  -19.9104   -7.4830 N   0  0  0  0  0  0  0  0  0  0  0  0
   27.3244  -20.6853   -5.2562 C   0  0  0  0  0  0  0  0  0  0  0  0
   28.0375  -21.2504   -4.2250 O   0  0  0  0  0  0  0  0  0  0  0  0
   26.0949  -20.5209   -5.1359 O   0  0  0  0  0  0  0  0  0  0  0  0
  1  2  1  0
  3  2  1  0
  4  5  1  0
  4  3  1  0
  5  1  1  0
  5  6  1  1
  6 11  1  0
  7  6  2  0
  8  9  1  0
 10 11  1  0
 10 12  1  0
 10  9  1  1
 12 13  2  0
 12 18  1  0
 15 16  1  1
 15 14  1  0
 17 15  1  0
 17 18  1  6
 19 20  1  0
 19 17  1  0
 21 19  2  0
M  END
$$$$
