PSV.pdb
     RDKit          3D

 21 21  0  0  1  0  0  0  0  0999 V2000
   18.6263  -11.6879  -16.3188 N   0  0  0  0  0  0  0  0  0  0  0  0
   18.4444  -12.8770  -17.1435 C   0  0  0  0  0  0  0  0  0  0  0  0
   18.6727  -12.4590  -18.5689 C   0  0  0  0  0  0  0  0  0  0  0  0
   18.8491  -10.9709  -18.4812 C   0  0  0  0  0  0  0  0  0  0  0  0
   19.4817  -10.8379  -17.0951 C   0  0  1  0  0  0  0  0  0  0  0  0
   19.4586   -9.4250  -16.7108 C   0  0  0  0  0  0  0  0  0  0  0  0
   20.3594   -8.6881  -17.2384 O   0  0  0  0  0  0  0  0  0  0  0  0
   16.1757   -7.2034  -15.8920 O   0  0  0  0  0  0  0  0  0  0  0  0
   17.1972   -7.0490  -14.9847 C   0  0  0  0  0  0  0  0  0  0  0  0
   18.5527   -7.4258  -15.5973 C   0  0  2  0  0  0  0  0  0  0  0  0
   18.5201   -8.8515  -15.8136 N   0  0  0  0  0  0  0  0  0  0  0  0
   19.6506   -7.0163  -14.6907 C   0  0  0  0  0  0  0  0  0  0  0  0
   19.8270   -7.6970  -13.6482 O   0  0  0  0  0  0  0  0  0  0  0  0
   23.1482   -7.2971  -14.8288 C   0  0  0  0  0  0  0  0  0  0  0  0
   22.9531   -5.8209  -14.7065 C   0  0  1  0  0  0  0  0  0  0  0  0
   23.1444   -5.0781  -16.0068 C   0  0  0  0  0  0  0  0  0  0  0  0
   21.6084   -5.5529  -14.0814 C   0  0  2  0  0  0  0  0  0  0  0  0
   20.5086   -5.9174  -14.9181 N   0  0  0  0  0  0  0  0  0  0  0  0
   21.5183   -4.1237  -13.7375 C   0  0  0  0  0  0  0  0  0  0  0  0
   20.6002   -3.3225  -14.3749 O   0  0  0  0  0  0  0  0  0  0  0  0
   22.2680   -3.6316  -12.8720 O   0  0  0  0  0  0  0  0  0  0  0  0
  1  2  1  0
  3  2  1  0
  4  5  1  0
  4  3  1  0
  5  1  1  0
  5  6  1  1
  6 11  1  0
  7  6  2  0
  8  9  1  0
 10 11  1  0
 10 12  1  0
 10  9  1  1
 12 13  2  0
 12 18  1  0
 15 16  1  6
 15 14  1  0
 17 15  1  0
 17 18  1  6
 19 20  1  0
 19 17  1  0
 21 19  2  0
M  END
$$$$
