PSV.pdb
     RDKit          3D

 21 21  0  0  1  0  0  0  0  0999 V2000
   17.0719  -11.8019  -15.4748 N   0  0  0  0  0  0  0  0  0  0  0  0
   16.4910  -13.0120  -16.0452 C   0  0  0  0  0  0  0  0  0  0  0  0
   16.6407  -12.9073  -17.5368 C   0  0  0  0  0  0  0  0  0  0  0  0
   17.2019  -11.5305  -17.7439 C   0  0  0  0  0  0  0  0  0  0  0  0
   18.0138  -11.3552  -16.4597 C   0  0  1  0  0  0  0  0  0  0  0  0
   18.4011   -9.9474  -16.3470 C   0  0  0  0  0  0  0  0  0  0  0  0
   19.4257   -9.5943  -17.0241 O   0  0  0  0  0  0  0  0  0  0  0  0
   17.2820   -5.4157  -15.2233 O   0  0  0  0  0  0  0  0  0  0  0  0
   16.9473   -6.7473  -15.2944 C   0  0  0  0  0  0  0  0  0  0  0  0
   18.1771   -7.6198  -15.5792 C   0  0  2  0  0  0  0  0  0  0  0  0
   17.7212   -8.9880  -15.5522 N   0  0  0  0  0  0  0  0  0  0  0  0
   19.2313   -7.3551  -14.5725 C   0  0  0  0  0  0  0  0  0  0  0  0
   19.0700   -7.8374  -13.4225 O   0  0  0  0  0  0  0  0  0  0  0  0
   22.4893   -8.5276  -14.0173 C   0  0  0  0  0  0  0  0  0  0  0  0
   22.7140   -7.0551  -14.1322 C   0  0  1  0  0  0  0  0  0  0  0  0
   23.3311   -6.6404  -15.4461 C   0  0  0  0  0  0  0  0  0  0  0  0
   21.4194   -6.3369  -13.8507 C   0  0  2  0  0  0  0  0  0  0  0  0
   20.4001   -6.6004  -14.8171 N   0  0  0  0  0  0  0  0  0  0  0  0
   21.6810   -4.8889  -13.7871 C   0  0  0  0  0  0  0  0  0  0  0  0
   22.4657   -4.3784  -12.7799 O   0  0  0  0  0  0  0  0  0  0  0  0
   21.1969   -4.1194  -14.6396 O   0  0  0  0  0  0  0  0  0  0  0  0
  1  2  1  0
  3  2  1  0
  4  5  1  0
  4  3  1  0
  5  1  1  0
  5  6  1  1
  6 11  1  0
  7  6  2  0
  8  9  1  0
 10 11  1  0
 10 12  1  0
 10  9  1  1
 12 13  2  0
 12 18  1  0
 15 16  1  6
 15 14  1  0
 17 15  1  0
 17 18  1  6
 19 20  1  0
 19 17  1  0
 21 19  2  0
M  END
$$$$
