ACV.pdb
     RDKit          3D

 19 18  0  0  1  0  0  0  0  0999 V2000
   25.4887  -18.2045  -17.5768 C   0  0  0  0  0  0  0  0  0  0  0  0
   25.5849  -17.1066  -16.5506 C   0  0  2  0  0  0  0  0  0  0  0  0
   24.8587  -17.4093  -15.3564 N   0  0  0  0  0  0  0  0  0  0  0  0
   25.1379  -15.7912  -17.1245 C   0  0  0  0  0  0  0  0  0  0  0  0
   25.6948  -15.3210  -18.1472 O   0  0  0  0  0  0  0  0  0  0  0  0
   24.0839  -15.0323  -16.5474 N   0  0  0  0  0  0  0  0  0  0  0  0
   23.7153  -13.7523  -17.1113 C   0  0  1  0  0  0  0  0  0  0  0  0
   22.2169  -13.7768  -17.3372 C   0  0  0  0  0  0  0  0  0  0  0  0
   21.3203  -14.4304  -15.9313 S   0  0  0  0  0  0  0  0  0  0  0  0
   23.9994  -12.6402  -16.1380 C   0  0  0  0  0  0  0  0  0  0  0  0
   23.7304  -12.8210  -14.9266 O   0  0  0  0  0  0  0  0  0  0  0  0
   26.8511   -9.7030  -16.8726 C   0  0  0  0  0  0  0  0  0  0  0  0
   26.3280  -10.0890  -15.5237 C   0  0  2  0  0  0  0  0  0  0  0  0
   27.0545  -11.3070  -14.9891 C   0  0  0  0  0  0  0  0  0  0  0  0
   24.8409  -10.3366  -15.6217 C   0  0  2  0  0  0  0  0  0  0  0  0
   24.5524  -11.4160  -16.5444 N   0  0  0  0  0  0  0  0  0  0  0  0
   24.0782   -9.1433  -16.0136 C   0  0  0  0  0  0  0  0  0  0  0  0
   23.4259   -9.0726  -17.2347 O   0  0  0  0  0  0  0  0  0  0  0  0
   23.9929   -8.1473  -15.2530 O   0  0  0  0  0  0  0  0  0  0  0  0
  2  1  1  6
  2  3  1  0
  4  2  1  0
  5  4  2  0
  6  4  1  0
  7  6  1  0
  7  8  1  1
  8  9  1  0
 10 16  1  0
 10  7  1  0
 11 10  2  0
 13 12  1  6
 13 14  1  0
 15 13  1  0
 15 16  1  6
 17 15  1  0
 17 18  1  0
 19 17  2  0
M  END
$$$$
