ACV.pdb
     RDKit          3D

 19 18  0  0  1  0  0  0  0  0999 V2000
   20.0407  -11.3973  -20.2841 C   0  0  0  0  0  0  0  0  0  0  0  0
   21.4235  -11.5639  -19.7116 C   0  0  2  0  0  0  0  0  0  0  0  0
   21.8699  -12.9221  -19.7472 N   0  0  0  0  0  0  0  0  0  0  0  0
   21.4978  -11.0173  -18.3134 C   0  0  0  0  0  0  0  0  0  0  0  0
   20.4895  -11.0440  -17.5653 O   0  0  0  0  0  0  0  0  0  0  0  0
   22.6904  -10.4552  -17.7825 N   0  0  0  0  0  0  0  0  0  0  0  0
   22.7281   -9.9871  -16.4145 C   0  0  1  0  0  0  0  0  0  0  0  0
   24.0033  -10.5208  -15.7931 C   0  0  0  0  0  0  0  0  0  0  0  0
   24.3177   -9.8318  -14.1701 S   0  0  0  0  0  0  0  0  0  0  0  0
   22.8065   -8.4849  -16.3678 C   0  0  0  0  0  0  0  0  0  0  0  0
   23.6087   -7.9027  -17.1360 O   0  0  0  0  0  0  0  0  0  0  0  0
   19.6801   -5.9335  -15.2608 C   0  0  0  0  0  0  0  0  0  0  0  0
   20.9079   -5.6217  -16.0594 C   0  0  2  0  0  0  0  0  0  0  0  0
   20.7476   -6.0725  -17.4976 C   0  0  0  0  0  0  0  0  0  0  0  0
   22.1021   -6.2793  -15.4084 C   0  0  2  0  0  0  0  0  0  0  0  0
   22.0136   -7.7230  -15.4958 N   0  0  0  0  0  0  0  0  0  0  0  0
   22.2877   -5.8864  -14.0047 C   0  0  0  0  0  0  0  0  0  0  0  0
   22.7736   -4.6336  -13.6642 O   0  0  0  0  0  0  0  0  0  0  0  0
   22.0113   -6.6748  -13.0668 O   0  0  0  0  0  0  0  0  0  0  0  0
  2  1  1  1
  2  3  1  0
  4  2  1  0
  5  4  2  0
  6  4  1  0
  7  6  1  0
  7  8  1  6
  8  9  1  0
 10 16  1  0
 10  7  1  0
 11 10  2  0
 13 12  1  1
 13 14  1  0
 15 13  1  0
 15 16  1  1
 17 15  1  0
 17 18  1  0
 19 17  2  0
M  END
$$$$
