ACV.pdb
     RDKit          3D

 19 18  0  0  1  0  0  0  0  0999 V2000
   27.2086  -20.1021  -16.4219 C   0  0  0  0  0  0  0  0  0  0  0  0
   27.6589  -21.1514  -15.4402 C   0  0  2  0  0  0  0  0  0  0  0  0
   28.0933  -22.3521  -16.0843 N   0  0  0  0  0  0  0  0  0  0  0  0
   26.5810  -21.4481  -14.4356 C   0  0  0  0  0  0  0  0  0  0  0  0
   25.7149  -22.3262  -14.6721 O   0  0  0  0  0  0  0  0  0  0  0  0
   26.4931  -20.7616  -13.1941 N   0  0  0  0  0  0  0  0  0  0  0  0
   25.4205  -21.0612  -12.2712 C   0  0  1  0  0  0  0  0  0  0  0  0
   25.8122  -20.4833  -10.9260 C   0  0  0  0  0  0  0  0  0  0  0  0
   25.1443  -21.4213   -9.5541 S   0  0  0  0  0  0  0  0  0  0  0  0
   24.1479  -20.3781  -12.6942 C   0  0  0  0  0  0  0  0  0  0  0  0
   24.1636  -19.1364  -12.8677 O   0  0  0  0  0  0  0  0  0  0  0  0
   20.5222  -21.7753  -14.9479 C   0  0  0  0  0  0  0  0  0  0  0  0
   21.4323  -20.6036  -14.7447 C   0  0  2  0  0  0  0  0  0  0  0  0
   22.7173  -20.7731  -15.5302 C   0  0  0  0  0  0  0  0  0  0  0  0
   21.7092  -20.4420  -13.2684 C   0  0  2  0  0  0  0  0  0  0  0  0
   22.9534  -21.0861  -12.8983 N   0  0  0  0  0  0  0  0  0  0  0  0
   20.6253  -20.9492  -12.4154 C   0  0  0  0  0  0  0  0  0  0  0  0
   19.4680  -20.2155  -12.2067 O   0  0  0  0  0  0  0  0  0  0  0  0
   20.7134  -22.0659  -11.8473 O   0  0  0  0  0  0  0  0  0  0  0  0
  2  1  1  6
  2  3  1  0
  4  2  1  0
  5  4  2  0
  6  4  1  0
  7  6  1  0
  7  8  1  1
  8  9  1  0
 10 16  1  0
 10  7  1  0
 11 10  2  0
 13 12  1  1
 13 14  1  0
 15 13  1  0
 15 16  1  1
 17 15  1  0
 17 18  1  0
 19 17  2  0
M  END
$$$$
