ACV.pdb
     RDKit          3D

 19 18  0  0  1  0  0  0  0  0999 V2000
   17.4409  -13.0394  -16.7861 C   0  0  0  0  0  0  0  0  0  0  0  0
   18.5343  -12.0978  -17.2168 C   0  0  2  0  0  0  0  0  0  0  0  0
   19.7928  -12.7580  -17.3767 N   0  0  0  0  0  0  0  0  0  0  0  0
   18.6583  -10.9429  -16.2629 C   0  0  0  0  0  0  0  0  0  0  0  0
   17.8266  -10.7925  -15.3341 O   0  0  0  0  0  0  0  0  0  0  0  0
   19.7032   -9.9848  -16.3655 N   0  0  0  0  0  0  0  0  0  0  0  0
   19.7762   -8.8845  -15.4295 C   0  0  1  0  0  0  0  0  0  0  0  0
   21.2444   -8.5812  -15.2079 C   0  0  0  0  0  0  0  0  0  0  0  0
   21.5005   -7.1375  -14.1793 S   0  0  0  0  0  0  0  0  0  0  0  0
   19.1504   -7.6466  -16.0133 C   0  0  0  0  0  0  0  0  0  0  0  0
   19.4070   -7.3502  -17.2044 O   0  0  0  0  0  0  0  0  0  0  0  0
   15.7770   -6.7148  -16.6862 C   0  0  0  0  0  0  0  0  0  0  0  0
   16.2419   -5.6084  -15.7907 C   0  0  2  0  0  0  0  0  0  0  0  0
   15.6683   -4.2768  -16.2323 C   0  0  0  0  0  0  0  0  0  0  0  0
   17.7523   -5.5794  -15.7827 C   0  0  2  0  0  0  0  0  0  0  0  0
   18.2944   -6.8208  -15.2682 N   0  0  0  0  0  0  0  0  0  0  0  0
   18.3073   -4.4522  -15.0205 C   0  0  0  0  0  0  0  0  0  0  0  0
   18.5027   -3.2113  -15.6065 O   0  0  0  0  0  0  0  0  0  0  0  0
   18.6229   -4.5777  -13.8112 O   0  0  0  0  0  0  0  0  0  0  0  0
  2  1  1  1
  2  3  1  0
  4  2  1  0
  5  4  2  0
  6  4  1  0
  7  6  1  0
  7  8  1  6
  8  9  1  0
 10 16  1  0
 10  7  1  0
 11 10  2  0
 13 12  1  6
 13 14  1  0
 15 13  1  0
 15 16  1  1
 17 15  1  0
 17 18  1  0
 19 17  2  0
M  END
$$$$
