ACV.pdb
     RDKit          3D

 19 18  0  0  1  0  0  0  0  0999 V2000
   20.6906  -13.8280  -19.1277 C   0  0  0  0  0  0  0  0  0  0  0  0
   21.1754  -13.0175  -17.9548 C   0  0  2  0  0  0  0  0  0  0  0  0
   20.9950  -13.6965  -16.7092 N   0  0  0  0  0  0  0  0  0  0  0  0
   20.5167  -11.6669  -17.9233 C   0  0  0  0  0  0  0  0  0  0  0  0
   20.6755  -10.8591  -18.8717 O   0  0  0  0  0  0  0  0  0  0  0  0
   19.6985  -11.2485  -16.8391 N   0  0  0  0  0  0  0  0  0  0  0  0
   19.1316   -9.9179  -16.8262 C   0  0  1  0  0  0  0  0  0  0  0  0
   17.6934  -10.0478  -16.3663 C   0  0  0  0  0  0  0  0  0  0  0  0
   17.0700   -8.5411  -15.6252 S   0  0  0  0  0  0  0  0  0  0  0  0
   19.8409   -9.0467  -15.8247 C   0  0  0  0  0  0  0  0  0  0  0  0
   20.1105   -9.5266  -14.6980 O   0  0  0  0  0  0  0  0  0  0  0  0
   22.9094   -5.3964  -14.9741 C   0  0  0  0  0  0  0  0  0  0  0  0
   22.1330   -6.2349  -15.9418 C   0  0  2  0  0  0  0  0  0  0  0  0
   21.6255   -5.3973  -17.0985 C   0  0  0  0  0  0  0  0  0  0  0  0
   20.9948   -6.9082  -15.2114 C   0  0  2  0  0  0  0  0  0  0  0  0
   20.2064   -7.7229  -16.1138 N   0  0  0  0  0  0  0  0  0  0  0  0
   20.1135   -5.9626  -14.5123 C   0  0  0  0  0  0  0  0  0  0  0  0
   20.4677   -5.4153  -13.2891 O   0  0  0  0  0  0  0  0  0  0  0  0
   19.0089   -5.6196  -15.0021 O   0  0  0  0  0  0  0  0  0  0  0  0
  2  1  1  6
  2  3  1  0
  4  2  1  0
  5  4  2  0
  6  4  1  0
  7  6  1  0
  7  8  1  1
  8  9  1  0
 10 16  1  0
 10  7  1  0
 11 10  2  0
 13 12  1  1
 13 14  1  0
 15 13  1  0
 15 16  1  6
 17 15  1  0
 17 18  1  0
 19 17  2  0
M  END
$$$$
