ACV.pdb
     RDKit          3D

 19 18  0  0  1  0  0  0  0  0999 V2000
   21.4709  -14.3490  -18.9372 C   0  0  0  0  0  0  0  0  0  0  0  0
   21.6420  -12.8631  -19.1114 C   0  0  2  0  0  0  0  0  0  0  0  0
   22.9438  -12.5152  -19.5904 N   0  0  0  0  0  0  0  0  0  0  0  0
   21.3329  -12.1313  -17.8353 C   0  0  0  0  0  0  0  0  0  0  0  0
   20.2111  -12.2573  -17.2852 O   0  0  0  0  0  0  0  0  0  0  0  0
   22.2782  -11.2784  -17.2035 N   0  0  0  0  0  0  0  0  0  0  0  0
   21.8835  -10.4638  -16.0754 C   0  0  1  0  0  0  0  0  0  0  0  0
   23.0132  -10.5175  -15.0666 C   0  0  0  0  0  0  0  0  0  0  0  0
   22.7751   -9.3766  -13.7066 S   0  0  0  0  0  0  0  0  0  0  0  0
   21.7243   -9.0251  -16.4875 C   0  0  0  0  0  0  0  0  0  0  0  0
   22.5999   -8.5127  -17.2245 O   0  0  0  0  0  0  0  0  0  0  0  0
   19.0497   -5.3823  -17.8923 C   0  0  0  0  0  0  0  0  0  0  0  0
   19.2287   -6.8021  -17.4514 C   0  0  2  0  0  0  0  0  0  0  0  0
   17.9725   -7.3243  -16.7832 C   0  0  0  0  0  0  0  0  0  0  0  0
   20.4185   -6.8863  -16.5242 C   0  0  2  0  0  0  0  0  0  0  0  0
   20.6323   -8.2467  -16.0735 N   0  0  0  0  0  0  0  0  0  0  0  0
   20.3102   -5.9980  -15.3586 C   0  0  0  0  0  0  0  0  0  0  0  0
   20.5090   -4.6309  -15.4721 O   0  0  0  0  0  0  0  0  0  0  0  0
   20.0334   -6.4503  -14.2199 O   0  0  0  0  0  0  0  0  0  0  0  0
  2  1  1  1
  2  3  1  0
  4  2  1  0
  5  4  2  0
  6  4  1  0
  7  6  1  0
  7  8  1  1
  8  9  1  0
 10 16  1  0
 10  7  1  0
 11 10  2  0
 13 12  1  1
 13 14  1  0
 15 13  1  0
 15 16  1  1
 17 15  1  0
 17 18  1  0
 19 17  2  0
M  END
$$$$
