ACV.pdb
     RDKit          3D

 19 18  0  0  1  0  0  0  0  0999 V2000
   18.3689  -10.6063  -18.9538 C   0  0  0  0  0  0  0  0  0  0  0  0
   18.1385  -11.1660  -17.5749 C   0  0  2  0  0  0  0  0  0  0  0  0
   16.9371  -11.9372  -17.4916 N   0  0  0  0  0  0  0  0  0  0  0  0
   18.1409  -10.0739  -16.5422 C   0  0  0  0  0  0  0  0  0  0  0  0
   17.3003   -9.1427  -16.5989 O   0  0  0  0  0  0  0  0  0  0  0  0
   19.0771  -10.0446  -15.4732 N   0  0  0  0  0  0  0  0  0  0  0  0
   19.0591   -8.9572  -14.5196 C   0  0  1  0  0  0  0  0  0  0  0  0
   19.0404   -9.5748  -13.1358 C   0  0  0  0  0  0  0  0  0  0  0  0
   19.2761   -8.3625  -11.8387 S   0  0  0  0  0  0  0  0  0  0  0  0
   20.3171   -8.1376  -14.6230 C   0  0  0  0  0  0  0  0  0  0  0  0
   21.4174   -8.7351  -14.6914 O   0  0  0  0  0  0  0  0  0  0  0  0
   21.4995   -6.0561  -17.2017 C   0  0  0  0  0  0  0  0  0  0  0  0
   21.4902   -5.1217  -16.0316 C   0  0  2  0  0  0  0  0  0  0  0  0
   22.6714   -4.1736  -16.0860 C   0  0  0  0  0  0  0  0  0  0  0  0
   21.4928   -5.9282  -14.7541 C   0  0  2  0  0  0  0  0  0  0  0  0
   20.2938   -6.7345  -14.6448 N   0  0  0  0  0  0  0  0  0  0  0  0
   21.6369   -5.1029  -13.5468 C   0  0  0  0  0  0  0  0  0  0  0  0
   22.8853   -4.7472  -13.0605 O   0  0  0  0  0  0  0  0  0  0  0  0
   20.6313   -4.6926  -12.9158 O   0  0  0  0  0  0  0  0  0  0  0  0
  2  1  1  6
  2  3  1  0
  4  2  1  0
  5  4  2  0
  6  4  1  0
  7  6  1  0
  7  8  1  1
  8  9  1  0
 10 16  1  0
 10  7  1  0
 11 10  2  0
 13 12  1  6
 13 14  1  0
 15 13  1  0
 15 16  1  1
 17 15  1  0
 17 18  1  0
 19 17  2  0
M  END
$$$$
