ACV.pdb
     RDKit          3D

 19 18  0  0  1  0  0  0  0  0999 V2000
   15.1517  -14.0015  -17.1702 C   0  0  0  0  0  0  0  0  0  0  0  0
   16.1221  -13.6741  -16.0662 C   0  0  2  0  0  0  0  0  0  0  0  0
   15.4785  -13.5314  -14.7971 N   0  0  0  0  0  0  0  0  0  0  0  0
   16.9210  -12.4447  -16.3975 C   0  0  0  0  0  0  0  0  0  0  0  0
   17.7327  -12.4523  -17.3556 O   0  0  0  0  0  0  0  0  0  0  0  0
   16.7973  -11.2387  -15.6556 N   0  0  0  0  0  0  0  0  0  0  0  0
   17.4995  -10.0477  -16.0804 C   0  0  1  0  0  0  0  0  0  0  0  0
   16.5126   -8.8992  -16.0181 C   0  0  0  0  0  0  0  0  0  0  0  0
   15.1610   -9.0907  -17.1777 S   0  0  0  0  0  0  0  0  0  0  0  0
   18.6197   -9.7224  -15.1295 C   0  0  0  0  0  0  0  0  0  0  0  0
   18.3753   -9.7043  -13.8997 O   0  0  0  0  0  0  0  0  0  0  0  0
   21.9143  -11.4891  -15.2003 C   0  0  0  0  0  0  0  0  0  0  0  0
   22.2497  -10.0305  -15.1524 C   0  0  2  0  0  0  0  0  0  0  0  0
   23.4488   -9.7794  -14.2601 C   0  0  0  0  0  0  0  0  0  0  0  0
   21.0408   -9.2599  -14.6761 C   0  0  2  0  0  0  0  0  0  0  0  0
   19.9199   -9.4408  -15.5765 N   0  0  0  0  0  0  0  0  0  0  0  0
   21.2993   -7.8238  -14.5021 C   0  0  0  0  0  0  0  0  0  0  0  0
   20.8482   -6.8924  -15.4243 O   0  0  0  0  0  0  0  0  0  0  0  0
   21.9385   -7.3937  -13.5101 O   0  0  0  0  0  0  0  0  0  0  0  0
  2  1  1  6
  2  3  1  0
  4  2  1  0
  5  4  2  0
  6  4  1  0
  7  6  1  0
  7  8  1  1
  8  9  1  0
 10 16  1  0
 10  7  1  0
 11 10  2  0
 13 12  1  1
 13 14  1  0
 15 13  1  0
 15 16  1  6
 17 15  1  0
 17 18  1  0
 19 17  2  0
M  END
$$$$
