ACV.pdb
     RDKit          3D

 19 18  0  0  1  0  0  0  0  0999 V2000
   27.2844  -17.8982  -14.6507 C   0  0  0  0  0  0  0  0  0  0  0  0
   27.7864  -19.2763  -14.3096 C   0  0  2  0  0  0  0  0  0  0  0  0
   28.3430  -19.9510  -15.4410 N   0  0  0  0  0  0  0  0  0  0  0  0
   26.7022  -20.1043  -13.6784 C   0  0  0  0  0  0  0  0  0  0  0  0
   25.9770  -20.8479  -14.3841 O   0  0  0  0  0  0  0  0  0  0  0  0
   26.4518  -20.0847  -12.2794 N   0  0  0  0  0  0  0  0  0  0  0  0
   25.3694  -20.8660  -11.7228 C   0  0  1  0  0  0  0  0  0  0  0  0
   25.4384  -20.7181  -10.2161 C   0  0  0  0  0  0  0  0  0  0  0  0
   27.0054  -21.2649   -9.5428 S   0  0  0  0  0  0  0  0  0  0  0  0
   24.0377  -20.3194  -12.1619 C   0  0  0  0  0  0  0  0  0  0  0  0
   23.9512  -19.0981  -12.4325 O   0  0  0  0  0  0  0  0  0  0  0  0
   20.8951  -20.7579  -15.4164 C   0  0  0  0  0  0  0  0  0  0  0  0
   22.0556  -21.1732  -14.5660 C   0  0  2  0  0  0  0  0  0  0  0  0
   22.3247  -22.6583  -14.7047 C   0  0  0  0  0  0  0  0  0  0  0  0
   21.7759  -20.7984  -13.1295 C   0  0  2  0  0  0  0  0  0  0  0  0
   22.8988  -21.1315  -12.2763 N   0  0  0  0  0  0  0  0  0  0  0  0
   20.5561  -21.4190  -12.5944 C   0  0  0  0  0  0  0  0  0  0  0  0
   19.4404  -20.6606  -12.2763 O   0  0  0  0  0  0  0  0  0  0  0  0
   20.4857  -22.6592  -12.4079 O   0  0  0  0  0  0  0  0  0  0  0  0
  2  1  1  6
  2  3  1  0
  4  2  1  0
  5  4  2  0
  6  4  1  0
  7  6  1  0
  7  8  1  1
  8  9  1  0
 10 16  1  0
 10  7  1  0
 11 10  2  0
 13 12  1  6
 13 14  1  0
 15 13  1  0
 15 16  1  1
 17 15  1  0
 17 18  1  0
 19 17  2  0
M  END
$$$$
