ACV.pdb
     RDKit          3D

 19 18  0  0  1  0  0  0  0  0999 V2000
   16.1285  -12.7719  -17.0368 C   0  0  0  0  0  0  0  0  0  0  0  0
   17.4064  -13.5681  -17.0120 C   0  0  2  0  0  0  0  0  0  0  0  0
   17.2504  -14.8323  -16.3620 N   0  0  0  0  0  0  0  0  0  0  0  0
   18.5203  -12.7806  -16.3808 C   0  0  0  0  0  0  0  0  0  0  0  0
   18.5633  -12.6250  -15.1355 O   0  0  0  0  0  0  0  0  0  0  0  0
   19.5576  -12.1864  -17.1496 N   0  0  0  0  0  0  0  0  0  0  0  0
   20.6170  -11.4496  -16.4961 C   0  0  1  0  0  0  0  0  0  0  0  0
   21.9172  -11.8433  -17.1679 C   0  0  0  0  0  0  0  0  0  0  0  0
   22.5659  -13.3955  -16.5534 S   0  0  0  0  0  0  0  0  0  0  0  0
   20.4414   -9.9692  -16.7023 C   0  0  0  0  0  0  0  0  0  0  0  0
   20.3103   -9.5387  -17.8727 O   0  0  0  0  0  0  0  0  0  0  0  0
   18.5929   -7.3938  -14.0573 C   0  0  0  0  0  0  0  0  0  0  0  0
   18.8814   -7.1736  -15.5101 C   0  0  2  0  0  0  0  0  0  0  0  0
   17.8707   -7.8956  -16.3786 C   0  0  0  0  0  0  0  0  0  0  0  0
   20.2892   -7.6320  -15.8103 C   0  0  2  0  0  0  0  0  0  0  0  0
   20.4203   -9.0638  -15.6301 N   0  0  0  0  0  0  0  0  0  0  0  0
   21.3079   -6.9441  -15.0050 C   0  0  0  0  0  0  0  0  0  0  0  0
   21.7133   -5.6528  -15.3040 O   0  0  0  0  0  0  0  0  0  0  0  0
   21.8448   -7.5057  -14.0180 O   0  0  0  0  0  0  0  0  0  0  0  0
  2  1  1  1
  2  3  1  0
  4  2  1  0
  5  4  2  0
  6  4  1  0
  7  6  1  0
  7  8  1  6
  8  9  1  0
 10 16  1  0
 10  7  1  0
 11 10  2  0
 13 12  1  1
 13 14  1  0
 15 13  1  0
 15 16  1  1
 17 15  1  0
 17 18  1  0
 19 17  2  0
M  END
$$$$
