ACV.pdb
     RDKit          3D

 19 18  0  0  1  0  0  0  0  0999 V2000
   20.7613  -14.9992  -18.0056 C   0  0  0  0  0  0  0  0  0  0  0  0
   20.8555  -13.5739  -18.4822 C   0  0  2  0  0  0  0  0  0  0  0  0
   21.8402  -13.4034  -19.5051 N   0  0  0  0  0  0  0  0  0  0  0  0
   21.1141  -12.6376  -17.3351 C   0  0  0  0  0  0  0  0  0  0  0  0
   20.3454  -12.6199  -16.3423 O   0  0  0  0  0  0  0  0  0  0  0  0
   22.2202  -11.7451  -17.3208 N   0  0  0  0  0  0  0  0  0  0  0  0
   22.3708  -10.7900  -16.2451 C   0  0  1  0  0  0  0  0  0  0  0  0
   23.8504  -10.6993  -15.9300 C   0  0  0  0  0  0  0  0  0  0  0  0
   24.3105  -11.6786  -14.5027 S   0  0  0  0  0  0  0  0  0  0  0  0
   21.9255   -9.4206  -16.6829 C   0  0  0  0  0  0  0  0  0  0  0  0
   22.3407   -8.9780  -17.7801 O   0  0  0  0  0  0  0  0  0  0  0  0
   18.7024   -8.3687  -17.5626 C   0  0  0  0  0  0  0  0  0  0  0  0
   19.0628   -7.3722  -16.5044 C   0  0  2  0  0  0  0  0  0  0  0  0
   18.5205   -5.9989  -16.8464 C   0  0  0  0  0  0  0  0  0  0  0  0
   20.5645   -7.3440  -16.3419 C   0  0  2  0  0  0  0  0  0  0  0  0
   21.0653   -8.6313  -15.9040 N   0  0  0  0  0  0  0  0  0  0  0  0
   21.0288   -6.3002  -15.4175 C   0  0  0  0  0  0  0  0  0  0  0  0
   21.3674   -5.0344  -15.8697 O   0  0  0  0  0  0  0  0  0  0  0  0
   21.1339   -6.5224  -14.1858 O   0  0  0  0  0  0  0  0  0  0  0  0
  2  1  1  1
  2  3  1  0
  4  2  1  0
  5  4  2  0
  6  4  1  0
  7  6  1  0
  7  8  1  6
  8  9  1  0
 10 16  1  0
 10  7  1  0
 11 10  2  0
 13 12  1  6
 13 14  1  0
 15 13  1  0
 15 16  1  1
 17 15  1  0
 17 18  1  0
 19 17  2  0
M  END
$$$$
