ACV.pdb
     RDKit          3D

 19 18  0  0  1  0  0  0  0  0999 V2000
   17.8653  -11.3294  -19.2701 C   0  0  0  0  0  0  0  0  0  0  0  0
   19.0629  -11.2274  -18.3630 C   0  0  2  0  0  0  0  0  0  0  0  0
   19.3051  -12.4369  -17.6393 N   0  0  0  0  0  0  0  0  0  0  0  0
   18.9290  -10.0634  -17.4215 C   0  0  0  0  0  0  0  0  0  0  0  0
   18.8316   -8.8931  -17.8664 O   0  0  0  0  0  0  0  0  0  0  0  0
   18.9066  -10.2297  -16.0102 N   0  0  0  0  0  0  0  0  0  0  0  0
   18.7215   -9.0852  -15.1453 C   0  0  1  0  0  0  0  0  0  0  0  0
   18.1366   -9.5965  -13.8441 C   0  0  0  0  0  0  0  0  0  0  0  0
   18.4403   -8.4872  -12.4711 S   0  0  0  0  0  0  0  0  0  0  0  0
   20.0442   -8.4467  -14.8169 C   0  0  0  0  0  0  0  0  0  0  0  0
   20.9777   -9.1781  -14.4096 O   0  0  0  0  0  0  0  0  0  0  0  0
   23.4089   -5.2154  -15.7757 C   0  0  0  0  0  0  0  0  0  0  0  0
   22.0956   -5.8835  -16.0429 C   0  0  2  0  0  0  0  0  0  0  0  0
   21.1138   -4.9158  -16.6728 C   0  0  0  0  0  0  0  0  0  0  0  0
   21.5556   -6.4486  -14.7500 C   0  0  2  0  0  0  0  0  0  0  0  0
   20.2607   -7.0667  -14.9525 N   0  0  0  0  0  0  0  0  0  0  0  0
   21.4566   -5.4501  -13.6765 C   0  0  0  0  0  0  0  0  0  0  0  0
   20.2287   -5.0592  -13.1655 O   0  0  0  0  0  0  0  0  0  0  0  0
   22.4835   -4.9179  -13.1867 O   0  0  0  0  0  0  0  0  0  0  0  0
  2  1  1  1
  2  3  1  0
  4  2  1  0
  5  4  2  0
  6  4  1  0
  7  6  1  0
  7  8  1  1
  8  9  1  0
 10 16  1  0
 10  7  1  0
 11 10  2  0
 13 12  1  1
 13 14  1  0
 15 13  1  0
 15 16  1  6
 17 15  1  0
 17 18  1  0
 19 17  2  0
M  END
$$$$
