ACV.pdb
     RDKit          3D

 19 18  0  0  1  0  0  0  0  0999 V2000
   27.7849  -20.4622  -17.5110 C   0  0  0  0  0  0  0  0  0  0  0  0
   28.1535  -20.1214  -16.0913 C   0  0  2  0  0  0  0  0  0  0  0  0
   28.2775  -21.2820  -15.2650 N   0  0  0  0  0  0  0  0  0  0  0  0
   27.1724  -19.1497  -15.4977 C   0  0  0  0  0  0  0  0  0  0  0  0
   26.2730  -19.5497  -14.7179 O   0  0  0  0  0  0  0  0  0  0  0  0
   27.2158  -17.7585  -15.7857 N   0  0  0  0  0  0  0  0  0  0  0  0
   26.2114  -16.8710  -15.2422 C   0  0  1  0  0  0  0  0  0  0  0  0
   26.8636  -15.5155  -15.0573 C   0  0  0  0  0  0  0  0  0  0  0  0
   27.4626  -14.8251  -16.5975 S   0  0  0  0  0  0  0  0  0  0  0  0
   25.0784  -16.6893  -16.2160 C   0  0  0  0  0  0  0  0  0  0  0  0
   25.3193  -16.7954  -17.4419 O   0  0  0  0  0  0  0  0  0  0  0  0
   20.3291  -16.8108  -17.2135 C   0  0  0  0  0  0  0  0  0  0  0  0
   21.4410  -16.9933  -16.2273 C   0  0  2  0  0  0  0  0  0  0  0  0
   21.0244  -16.5233  -14.8480 C   0  0  0  0  0  0  0  0  0  0  0  0
   22.6621  -16.2490  -16.7147 C   0  0  2  0  0  0  0  0  0  0  0  0
   23.7700  -16.4067  -15.7941 N   0  0  0  0  0  0  0  0  0  0  0  0
   22.4173  -14.8179  -16.9422 C   0  0  0  0  0  0  0  0  0  0  0  0
   21.8048  -14.3658  -18.1006 O   0  0  0  0  0  0  0  0  0  0  0  0
   22.7560  -13.9572  -16.0924 O   0  0  0  0  0  0  0  0  0  0  0  0
  2  1  1  6
  2  3  1  0
  4  2  1  0
  5  4  2  0
  6  4  1  0
  7  6  1  0
  7  8  1  6
  8  9  1  0
 10 16  1  0
 10  7  1  0
 11 10  2  0
 13 12  1  6
 13 14  1  0
 15 13  1  0
 15 16  1  1
 17 15  1  0
 17 18  1  0
 19 17  2  0
M  END
$$$$
