ACV.pdb
     RDKit          3D

 19 18  0  0  1  0  0  0  0  0999 V2000
   16.1225  -13.5757  -18.0105 C   0  0  0  0  0  0  0  0  0  0  0  0
   17.3408  -12.8573  -17.4936 C   0  0  2  0  0  0  0  0  0  0  0  0
   18.2799  -13.7450  -16.8808 N   0  0  0  0  0  0  0  0  0  0  0  0
   16.9560  -11.7555  -16.5464 C   0  0  0  0  0  0  0  0  0  0  0  0
   15.9464  -11.8739  -15.8090 O   0  0  0  0  0  0  0  0  0  0  0  0
   17.7027  -10.5506  -16.4429 N   0  0  0  0  0  0  0  0  0  0  0  0
   17.3473   -9.5567  -15.4540 C   0  0  1  0  0  0  0  0  0  0  0  0
   18.4401   -9.5583  -14.4040 C   0  0  0  0  0  0  0  0  0  0  0  0
   20.0811   -9.5040  -15.1195 S   0  0  0  0  0  0  0  0  0  0  0  0
   17.3219   -8.1821  -16.0662 C   0  0  0  0  0  0  0  0  0  0  0  0
   18.0983   -7.9365  -17.0197 O   0  0  0  0  0  0  0  0  0  0  0  0
   14.9499   -4.0299  -16.9509 C   0  0  0  0  0  0  0  0  0  0  0  0
   14.9767   -5.4577  -16.5006 C   0  0  2  0  0  0  0  0  0  0  0  0
   14.0800   -5.6628  -15.2961 C   0  0  0  0  0  0  0  0  0  0  0  0
   16.4025   -5.8542  -16.1967 C   0  0  2  0  0  0  0  0  0  0  0  0
   16.4606   -7.1751  -15.6037 N   0  0  0  0  0  0  0  0  0  0  0  0
   17.0979   -4.8974  -15.3247 C   0  0  0  0  0  0  0  0  0  0  0  0
   17.1956   -5.1058  -13.9578 O   0  0  0  0  0  0  0  0  0  0  0  0
   17.6269   -3.8581  -15.7913 O   0  0  0  0  0  0  0  0  0  0  0  0
  2  1  1  1
  2  3  1  0
  4  2  1  0
  5  4  2  0
  6  4  1  0
  7  6  1  0
  7  8  1  1
  8  9  1  0
 10 16  1  0
 10  7  1  0
 11 10  2  0
 13 12  1  1
 13 14  1  0
 15 13  1  0
 15 16  1  1
 17 15  1  0
 17 18  1  0
 19 17  2  0
M  END
$$$$
