ACV.pdb
     RDKit          3D

 19 18  0  0  1  0  0  0  0  0999 V2000
   21.2801  -21.4618  -14.2160 C   0  0  0  0  0  0  0  0  0  0  0  0
   21.5664  -21.4257  -12.7381 C   0  0  2  0  0  0  0  0  0  0  0  0
   20.4485  -20.9625  -11.9759 N   0  0  0  0  0  0  0  0  0  0  0  0
   22.7874  -20.5995  -12.4452 C   0  0  0  0  0  0  0  0  0  0  0  0
   22.8175  -19.3803  -12.7445 O   0  0  0  0  0  0  0  0  0  0  0  0
   23.9434  -21.1493  -11.8275 N   0  0  0  0  0  0  0  0  0  0  0  0
   25.0702  -20.3010  -11.5066 C   0  0  1  0  0  0  0  0  0  0  0  0
   25.7578  -20.9067  -10.2995 C   0  0  0  0  0  0  0  0  0  0  0  0
   24.6994  -20.9497   -8.8552 S   0  0  0  0  0  0  0  0  0  0  0  0
   26.0703  -20.2964  -12.6313 C   0  0  0  0  0  0  0  0  0  0  0  0
   27.1319  -19.6451  -12.4861 O   0  0  0  0  0  0  0  0  0  0  0  0
   28.2035  -22.3572  -16.4016 C   0  0  0  0  0  0  0  0  0  0  0  0
   27.1852  -22.4069  -15.3047 C   0  0  2  0  0  0  0  0  0  0  0  0
   25.9748  -23.2161  -15.7255 C   0  0  0  0  0  0  0  0  0  0  0  0
   26.7973  -20.9970  -14.9251 C   0  0  2  0  0  0  0  0  0  0  0  0
   25.8501  -20.9948  -13.8285 N   0  0  0  0  0  0  0  0  0  0  0  0
   26.2460  -20.2245  -16.0470 C   0  0  0  0  0  0  0  0  0  0  0  0
   27.0324  -19.8629  -17.1298 O   0  0  0  0  0  0  0  0  0  0  0  0
   25.0421  -19.8665  -16.0606 O   0  0  0  0  0  0  0  0  0  0  0  0
  2  1  1  6
  2  3  1  0
  4  2  1  0
  5  4  2  0
  6  4  1  0
  7  6  1  0
  7  8  1  1
  8  9  1  0
 10 16  1  0
 10  7  1  0
 11 10  2  0
 13 12  1  6
 13 14  1  0
 15 13  1  0
 15 16  1  1
 17 15  1  0
 17 18  1  0
 19 17  2  0
M  END
$$$$
