GIP.pdb
     RDKit          3D

 20 20  0  0  1  0  0  0  0  0999 V2000
    5.5801  -19.5193   25.2453 N   0  0  0  0  0  0  0  0  0  0  0  0
    6.3618  -18.4874   25.8529 C   0  0  0  0  0  0  0  0  0  0  0  0
    6.2149  -17.1865   25.1315 C   0  0  0  0  0  0  0  0  0  0  0  0
    5.5710  -17.2019   24.0544 O   0  0  0  0  0  0  0  0  0  0  0  0
    6.5027  -12.4404   27.7154 C   0  0  0  0  0  0  0  0  0  0  0  0
    6.2696  -13.4578   26.6474 C   0  0  0  0  0  0  0  0  0  0  0  0
    7.5629  -13.8036   25.9061 C   0  0  2  0  0  0  0  0  0  0  0  0
    8.1776  -12.5821   25.3111 C   0  0  0  0  0  0  0  0  0  0  0  0
    7.1887  -14.8738   24.9005 C   0  0  2  0  0  0  0  0  0  0  0  0
    6.8064  -16.0541   25.7130 N   0  0  0  0  0  0  0  0  0  0  0  0
    8.2320  -15.2412   23.9403 C   0  0  0  0  0  0  0  0  0  0  0  0
    9.2710  -15.8581   24.4444 O   0  0  0  0  0  0  0  0  0  0  0  0
    8.2863  -15.0390   22.5593 N   0  0  0  0  0  0  0  0  0  0  0  0
    7.1690  -14.3370   21.8667 C   0  0  0  0  0  0  0  0  0  0  0  0
    7.9458  -13.5847   20.8079 C   0  0  0  0  0  0  0  0  0  0  0  0
    8.7584  -14.7588   20.2482 C   0  0  0  0  0  0  0  0  0  0  0  0
    9.2435  -15.3873   21.5692 C   0  0  1  0  0  0  0  0  0  0  0  0
   10.5733  -14.7667   21.7925 C   0  0  0  0  0  0  0  0  0  0  0  0
   11.6492  -15.1632   21.0489 O   0  0  0  0  0  0  0  0  0  0  0  0
   10.6922  -13.8884   22.6618 O   0  0  0  0  0  0  0  0  0  0  0  0
  2  1  1  0
  3  2  1  0
  4  3  2  0
  5  6  1  0
  6  7  1  0
  7  9  1  0
  7  8  1  6
  9 11  1  0
  9 10  1  1
 10  3  1  0
 11 13  1  0
 12 11  2  0
 13 17  1  0
 14 13  1  0
 14 15  1  0
 15 16  1  0
 17 18  1  1
 17 16  1  0
 18 19  1  0
 20 18  2  0
M  END
$$$$
