GIP.pdb
     RDKit          3D

 20 20  0  0  1  0  0  0  0  0999 V2000
    5.6000  -19.6551   25.5165 N   0  0  0  0  0  0  0  0  0  0  0  0
    6.3640  -18.5868   26.0823 C   0  0  0  0  0  0  0  0  0  0  0  0
    6.2167  -17.3252   25.2941 C   0  0  0  0  0  0  0  0  0  0  0  0
    5.5854  -17.3999   24.2120 O   0  0  0  0  0  0  0  0  0  0  0  0
    6.3506  -12.4686   27.6960 C   0  0  0  0  0  0  0  0  0  0  0  0
    6.1519  -13.5607   26.6968 C   0  0  0  0  0  0  0  0  0  0  0  0
    7.4432  -13.8715   25.9369 C   0  0  2  0  0  0  0  0  0  0  0  0
    7.9909  -12.6422   25.2942 C   0  0  0  0  0  0  0  0  0  0  0  0
    7.0953  -14.9857   24.9705 C   0  0  2  0  0  0  0  0  0  0  0  0
    6.7937  -16.1604   25.8239 N   0  0  0  0  0  0  0  0  0  0  0  0
    8.1293  -15.3281   23.9912 C   0  0  0  0  0  0  0  0  0  0  0  0
    9.1932  -15.9173   24.4762 O   0  0  0  0  0  0  0  0  0  0  0  0
    8.1522  -15.1272   22.6091 N   0  0  0  0  0  0  0  0  0  0  0  0
    7.0777  -14.3268   21.9568 C   0  0  0  0  0  0  0  0  0  0  0  0
    7.8799  -13.6430   20.8709 C   0  0  0  0  0  0  0  0  0  0  0  0
    8.5649  -14.8828   20.2826 C   0  0  0  0  0  0  0  0  0  0  0  0
    9.0390  -15.5559   21.5855 C   0  0  1  0  0  0  0  0  0  0  0  0
   10.4256  -15.0562   21.7612 C   0  0  0  0  0  0  0  0  0  0  0  0
   10.7135  -14.1675   22.7588 O   0  0  0  0  0  0  0  0  0  0  0  0
   11.3139  -15.4543   20.9907 O   0  0  0  0  0  0  0  0  0  0  0  0
  2  1  1  0
  3  2  1  0
  4  3  2  0
  5  6  1  0
  6  7  1  0
  7  9  1  0
  7  8  1  6
  9 11  1  0
  9 10  1  1
 10  3  1  0
 11 13  1  0
 12 11  2  0
 13 17  1  0
 14 13  1  0
 14 15  1  0
 15 16  1  0
 17 18  1  1
 17 16  1  0
 18 19  1  0
 20 18  2  0
M  END
$$$$
