GIP.pdb
     RDKit          3D

 20 20  0  0  1  0  0  0  0  0999 V2000
    5.3882  -19.6361   25.4995 N   0  0  0  0  0  0  0  0  0  0  0  0
    6.1874  -18.5880   26.0542 C   0  0  0  0  0  0  0  0  0  0  0  0
    6.0287  -17.3112   25.2932 C   0  0  0  0  0  0  0  0  0  0  0  0
    5.4386  -17.3766   24.1875 O   0  0  0  0  0  0  0  0  0  0  0  0
    6.1752  -12.4057   27.6770 C   0  0  0  0  0  0  0  0  0  0  0  0
    5.9983  -13.5069   26.6838 C   0  0  0  0  0  0  0  0  0  0  0  0
    7.3268  -13.8977   26.0326 C   0  0  2  0  0  0  0  0  0  0  0  0
    7.9958  -12.7071   25.4334 C   0  0  0  0  0  0  0  0  0  0  0  0
    6.9941  -14.9969   25.0439 C   0  0  2  0  0  0  0  0  0  0  0  0
    6.5500  -16.1438   25.8726 N   0  0  0  0  0  0  0  0  0  0  0  0
    8.0842  -15.4100   24.1570 C   0  0  0  0  0  0  0  0  0  0  0  0
    9.0803  -16.0301   24.7380 O   0  0  0  0  0  0  0  0  0  0  0  0
    8.2224  -15.2487   22.7765 N   0  0  0  0  0  0  0  0  0  0  0  0
    7.1970  -14.4844   22.0114 C   0  0  0  0  0  0  0  0  0  0  0  0
    8.0800  -13.8196   20.9776 C   0  0  0  0  0  0  0  0  0  0  0  0
    8.8290  -15.0649   20.4872 C   0  0  0  0  0  0  0  0  0  0  0  0
    9.1990  -15.6927   21.8452 C   0  0  1  0  0  0  0  0  0  0  0  0
   10.5588  -15.1664   22.1231 C   0  0  0  0  0  0  0  0  0  0  0  0
   11.6327  -15.6344   21.4193 O   0  0  0  0  0  0  0  0  0  0  0  0
   10.7043  -14.3011   23.0012 O   0  0  0  0  0  0  0  0  0  0  0  0
  2  1  1  0
  3  2  1  0
  4  3  2  0
  5  6  1  0
  6  7  1  0
  7  9  1  0
  7  8  1  6
  9 11  1  0
  9 10  1  1
 10  3  1  0
 11 13  1  0
 12 11  2  0
 13 17  1  0
 14 13  1  0
 14 15  1  0
 15 16  1  0
 17 18  1  1
 17 16  1  0
 18 19  1  0
 20 18  2  0
M  END
$$$$
