GIP.pdb
     RDKit          3D

 20 20  0  0  1  0  0  0  0  0999 V2000
    5.3833  -19.5968   25.5226 N   0  0  0  0  0  0  0  0  0  0  0  0
    6.2909  -18.5982   25.9962 C   0  0  0  0  0  0  0  0  0  0  0  0
    6.0986  -17.2966   25.2868 C   0  0  0  0  0  0  0  0  0  0  0  0
    5.4545  -17.3244   24.2101 O   0  0  0  0  0  0  0  0  0  0  0  0
    6.3181  -12.4038   27.7169 C   0  0  0  0  0  0  0  0  0  0  0  0
    6.1199  -13.4910   26.7124 C   0  0  0  0  0  0  0  0  0  0  0  0
    7.4426  -13.9111   26.0676 C   0  0  2  0  0  0  0  0  0  0  0  0
    8.1489  -12.7328   25.4872 C   0  0  0  0  0  0  0  0  0  0  0  0
    7.0882  -14.9899   25.0641 C   0  0  2  0  0  0  0  0  0  0  0  0
    6.6513  -16.1498   25.8782 N   0  0  0  0  0  0  0  0  0  0  0  0
    8.1616  -15.3917   24.1521 C   0  0  0  0  0  0  0  0  0  0  0  0
    9.1852  -15.9856   24.7121 O   0  0  0  0  0  0  0  0  0  0  0  0
    8.2589  -15.2434   22.7666 N   0  0  0  0  0  0  0  0  0  0  0  0
    7.1707  -14.5571   22.0146 C   0  0  0  0  0  0  0  0  0  0  0  0
    7.9869  -13.8542   20.9515 C   0  0  0  0  0  0  0  0  0  0  0  0
    8.8022  -15.0574   20.4616 C   0  0  0  0  0  0  0  0  0  0  0  0
    9.2409  -15.6395   21.8195 C   0  0  1  0  0  0  0  0  0  0  0  0
   10.5705  -15.0245   22.0587 C   0  0  0  0  0  0  0  0  0  0  0  0
   11.6574  -15.4393   21.3416 O   0  0  0  0  0  0  0  0  0  0  0  0
   10.6792  -14.1341   22.9169 O   0  0  0  0  0  0  0  0  0  0  0  0
  2  1  1  0
  3  2  1  0
  4  3  2  0
  5  6  1  0
  6  7  1  0
  7  9  1  0
  7  8  1  6
  9 11  1  0
  9 10  1  1
 10  3  1  0
 11 13  1  0
 12 11  2  0
 13 17  1  0
 14 13  1  0
 14 15  1  0
 15 16  1  0
 17 18  1  1
 17 16  1  0
 18 19  1  0
 20 18  2  0
M  END
$$$$
