GIP.pdb
     RDKit          3D

 20 20  0  0  1  0  0  0  0  0999 V2000
    9.2392  -15.3890   20.7221 N   0  0  0  0  0  0  0  0  0  0  0  0
    8.3143  -15.6155   21.7889 C   0  0  0  0  0  0  0  0  0  0  0  0
    8.7570  -14.9524   23.0534 C   0  0  0  0  0  0  0  0  0  0  0  0
    9.9512  -14.5705   23.1085 O   0  0  0  0  0  0  0  0  0  0  0  0
    5.2865  -11.9555   25.8664 C   0  0  0  0  0  0  0  0  0  0  0  0
    6.5085  -12.5944   25.2927 C   0  0  0  0  0  0  0  0  0  0  0  0
    6.8979  -13.8584   26.0621 C   0  0  2  0  0  0  0  0  0  0  0  0
    6.9887  -13.5836   27.5251 C   0  0  0  0  0  0  0  0  0  0  0  0
    8.1874  -14.3445   25.4316 C   0  0  2  0  0  0  0  0  0  0  0  0
    7.8061  -14.8093   24.0759 N   0  0  0  0  0  0  0  0  0  0  0  0
    8.8876  -15.4115   26.1503 C   0  0  0  0  0  0  0  0  0  0  0  0
    8.4139  -16.6187   25.9699 O   0  0  0  0  0  0  0  0  0  0  0  0
    9.9944  -15.3396   26.9993 N   0  0  0  0  0  0  0  0  0  0  0  0
   10.5571  -14.0119   27.3755 C   0  0  0  0  0  0  0  0  0  0  0  0
   10.9795  -14.2981   28.8003 C   0  0  0  0  0  0  0  0  0  0  0  0
   11.7833  -15.5789   28.5438 C   0  0  0  0  0  0  0  0  0  0  0  0
   10.7866  -16.3299   27.6393 C   0  0  1  0  0  0  0  0  0  0  0  0
   10.0176  -17.1787   28.5834 C   0  0  0  0  0  0  0  0  0  0  0  0
    8.7304  -16.8527   28.9068 O   0  0  0  0  0  0  0  0  0  0  0  0
   10.5598  -18.1823   29.0733 O   0  0  0  0  0  0  0  0  0  0  0  0
  2  1  1  0
  3  2  1  0
  4  3  2  0
  5  6  1  0
  6  7  1  0
  7  9  1  0
  7  8  1  1
  9 11  1  0
  9 10  1  6
 10  3  1  0
 11 13  1  0
 12 11  2  0
 13 17  1  0
 14 13  1  0
 14 15  1  0
 15 16  1  0
 17 18  1  1
 17 16  1  0
 18 19  1  0
 20 18  2  0
M  END
$$$$
