GIP.pdb
     RDKit          3D

 20 20  0  0  1  0  0  0  0  0999 V2000
    9.7781  -15.9328   20.5355 N   0  0  0  0  0  0  0  0  0  0  0  0
    8.8393  -16.1892   21.5833 C   0  0  0  0  0  0  0  0  0  0  0  0
    9.1584  -15.4039   22.8146 C   0  0  0  0  0  0  0  0  0  0  0  0
   10.3146  -14.9234   22.9002 O   0  0  0  0  0  0  0  0  0  0  0  0
    5.9965  -12.0158   26.6633 C   0  0  0  0  0  0  0  0  0  0  0  0
    7.2597  -12.7153   26.2818 C   0  0  0  0  0  0  0  0  0  0  0  0
    6.9904  -13.8933   25.3429 C   0  0  2  0  0  0  0  0  0  0  0  0
    6.0341  -14.8571   25.9599 C   0  0  0  0  0  0  0  0  0  0  0  0
    8.3493  -14.4778   25.0140 C   0  0  2  0  0  0  0  0  0  0  0  0
    8.1438  -15.2661   23.7748 N   0  0  0  0  0  0  0  0  0  0  0  0
    8.9508  -15.3194   26.0511 C   0  0  0  0  0  0  0  0  0  0  0  0
    8.6248  -16.5867   26.0090 O   0  0  0  0  0  0  0  0  0  0  0  0
    9.8299  -14.9765   27.0811 N   0  0  0  0  0  0  0  0  0  0  0  0
    9.9699  -13.5518   27.4950 C   0  0  0  0  0  0  0  0  0  0  0  0
   10.1793  -13.7284   28.9833 C   0  0  0  0  0  0  0  0  0  0  0  0
   11.3061  -14.7676   28.9303 C   0  0  0  0  0  0  0  0  0  0  0  0
   10.7090  -15.7403   27.8946 C   0  0  1  0  0  0  0  0  0  0  0  0
   10.0115  -16.7572   28.7208 C   0  0  0  0  0  0  0  0  0  0  0  0
   10.7314  -17.6261   29.4918 O   0  0  0  0  0  0  0  0  0  0  0  0
    8.7713  -16.8069   28.6987 O   0  0  0  0  0  0  0  0  0  0  0  0
  2  1  1  0
  3  2  1  0
  4  3  2  0
  5  6  1  0
  6  7  1  0
  7  9  1  0
  7  8  1  1
  9 11  1  0
  9 10  1  6
 10  3  1  0
 11 13  1  0
 12 11  2  0
 13 17  1  0
 14 13  1  0
 14 15  1  0
 15 16  1  0
 17 18  1  1
 17 16  1  0
 18 19  1  0
 20 18  2  0
M  END
$$$$
