GIP.pdb
     RDKit          3D

 20 20  0  0  1  0  0  0  0  0999 V2000
    5.6148  -19.6404   25.8732 N   0  0  0  0  0  0  0  0  0  0  0  0
    6.4852  -18.5820   26.2820 C   0  0  0  0  0  0  0  0  0  0  0  0
    6.2545  -17.3386   25.4849 C   0  0  0  0  0  0  0  0  0  0  0  0
    5.6274  -17.4625   24.4049 O   0  0  0  0  0  0  0  0  0  0  0  0
    6.2430  -12.3394   27.6612 C   0  0  0  0  0  0  0  0  0  0  0  0
    6.0881  -13.4572   26.6831 C   0  0  0  0  0  0  0  0  0  0  0  0
    7.4290  -13.8507   26.0595 C   0  0  2  0  0  0  0  0  0  0  0  0
    8.0778  -12.6762   25.4087 C   0  0  0  0  0  0  0  0  0  0  0  0
    7.1260  -15.0023   25.1222 C   0  0  2  0  0  0  0  0  0  0  0  0
    6.7553  -16.1348   26.0048 N   0  0  0  0  0  0  0  0  0  0  0  0
    8.2140  -15.3993   24.2253 C   0  0  0  0  0  0  0  0  0  0  0  0
    9.2464  -15.9594   24.8038 O   0  0  0  0  0  0  0  0  0  0  0  0
    8.3173  -15.2772   22.8377 N   0  0  0  0  0  0  0  0  0  0  0  0
    7.2412  -14.5889   22.0703 C   0  0  0  0  0  0  0  0  0  0  0  0
    8.0704  -13.9170   20.9973 C   0  0  0  0  0  0  0  0  0  0  0  0
    8.8697  -15.1403   20.5315 C   0  0  0  0  0  0  0  0  0  0  0  0
    9.2962  -15.7042   21.9009 C   0  0  1  0  0  0  0  0  0  0  0  0
   10.6338  -15.1041   22.1331 C   0  0  0  0  0  0  0  0  0  0  0  0
   11.7189  -15.5557   21.4357 O   0  0  0  0  0  0  0  0  0  0  0  0
   10.7508  -14.1924   22.9675 O   0  0  0  0  0  0  0  0  0  0  0  0
  2  1  1  0
  3  2  1  0
  4  3  2  0
  5  6  1  0
  6  7  1  0
  7  9  1  0
  7  8  1  6
  9 11  1  0
  9 10  1  1
 10  3  1  0
 11 13  1  0
 12 11  2  0
 13 17  1  0
 14 13  1  0
 14 15  1  0
 15 16  1  0
 17 18  1  1
 17 16  1  0
 18 19  1  0
 20 18  2  0
M  END
$$$$
