GIP.pdb
     RDKit          3D

 20 20  0  0  1  0  0  0  0  0999 V2000
    5.5229  -19.5479   25.6159 N   0  0  0  0  0  0  0  0  0  0  0  0
    6.3022  -18.4830   26.1671 C   0  0  0  0  0  0  0  0  0  0  0  0
    6.1306  -17.2156   25.3934 C   0  0  0  0  0  0  0  0  0  0  0  0
    5.4830  -17.2863   24.3207 O   0  0  0  0  0  0  0  0  0  0  0  0
    6.3473  -12.3073   27.6813 C   0  0  0  0  0  0  0  0  0  0  0  0
    6.1492  -13.4064   26.6898 C   0  0  0  0  0  0  0  0  0  0  0  0
    7.4630  -13.7937   26.0075 C   0  0  2  0  0  0  0  0  0  0  0  0
    8.0953  -12.6086   25.3597 C   0  0  0  0  0  0  0  0  0  0  0  0
    7.1171  -14.9215   25.0562 C   0  0  2  0  0  0  0  0  0  0  0  0
    6.7050  -16.0504   25.9251 N   0  0  0  0  0  0  0  0  0  0  0  0
    8.1891  -15.3475   24.1535 C   0  0  0  0  0  0  0  0  0  0  0  0
    9.2221  -15.9091   24.7295 O   0  0  0  0  0  0  0  0  0  0  0  0
    8.2766  -15.2517   22.7627 N   0  0  0  0  0  0  0  0  0  0  0  0
    7.2193  -14.5302   21.9998 C   0  0  0  0  0  0  0  0  0  0  0  0
    8.0600  -13.9112   20.9041 C   0  0  0  0  0  0  0  0  0  0  0  0
    8.7994  -15.1747   20.4469 C   0  0  0  0  0  0  0  0  0  0  0  0
    9.2221  -15.7349   21.8190 C   0  0  1  0  0  0  0  0  0  0  0  0
   10.5875  -15.1890   22.0221 C   0  0  0  0  0  0  0  0  0  0  0  0
   10.8167  -14.2594   22.9973 O   0  0  0  0  0  0  0  0  0  0  0  0
   11.5117  -15.5864   21.2949 O   0  0  0  0  0  0  0  0  0  0  0  0
  2  1  1  0
  3  2  1  0
  4  3  2  0
  5  6  1  0
  6  7  1  0
  7  9  1  0
  7  8  1  6
  9 11  1  0
  9 10  1  1
 10  3  1  0
 11 13  1  0
 12 11  2  0
 13 17  1  0
 14 13  1  0
 14 15  1  0
 15 16  1  0
 17 18  1  1
 17 16  1  0
 18 19  1  0
 20 18  2  0
M  END
$$$$
