GIP.pdb
     RDKit          3D

 20 20  0  0  1  0  0  0  0  0999 V2000
    5.2602  -19.5778   25.0739 N   0  0  0  0  0  0  0  0  0  0  0  0
    5.8451  -18.5520   25.8805 C   0  0  0  0  0  0  0  0  0  0  0  0
    5.9668  -17.2636   25.1324 C   0  0  0  0  0  0  0  0  0  0  0  0
    5.5555  -17.2523   23.9467 O   0  0  0  0  0  0  0  0  0  0  0  0
    6.0001  -12.3619   27.5247 C   0  0  0  0  0  0  0  0  0  0  0  0
    5.9384  -13.4861   26.5434 C   0  0  0  0  0  0  0  0  0  0  0  0
    7.3364  -13.9538   26.1331 C   0  0  2  0  0  0  0  0  0  0  0  0
    8.1714  -12.8029   25.6833 C   0  0  0  0  0  0  0  0  0  0  0  0
    7.1215  -15.0244   25.0824 C   0  0  2  0  0  0  0  0  0  0  0  0
    6.5294  -16.1718   25.8119 N   0  0  0  0  0  0  0  0  0  0  0  0
    8.3176  -15.4548   24.3547 C   0  0  0  0  0  0  0  0  0  0  0  0
    9.2554  -16.0038   25.0849 O   0  0  0  0  0  0  0  0  0  0  0  0
    8.6109  -15.3748   22.9913 N   0  0  0  0  0  0  0  0  0  0  0  0
    7.6701  -14.6788   22.0686 C   0  0  0  0  0  0  0  0  0  0  0  0
    8.6570  -14.0606   21.1021 C   0  0  0  0  0  0  0  0  0  0  0  0
    9.4732  -15.3181   20.7787 C   0  0  0  0  0  0  0  0  0  0  0  0
    9.6933  -15.8549   22.2066 C   0  0  1  0  0  0  0  0  0  0  0  0
   11.0055  -15.2857   22.6035 C   0  0  0  0  0  0  0  0  0  0  0  0
   12.1567  -15.7540   22.0350 O   0  0  0  0  0  0  0  0  0  0  0  0
   11.0404  -14.3844   23.4564 O   0  0  0  0  0  0  0  0  0  0  0  0
  2  1  1  0
  3  2  1  0
  4  3  2  0
  5  6  1  0
  6  7  1  0
  7  9  1  0
  7  8  1  6
  9 11  1  0
  9 10  1  1
 10  3  1  0
 11 13  1  0
 12 11  2  0
 13 17  1  0
 14 13  1  0
 14 15  1  0
 15 16  1  0
 17 18  1  1
 17 16  1  0
 18 19  1  0
 20 18  2  0
M  END
$$$$
