GIP.pdb
     RDKit          3D

 20 20  0  0  1  0  0  0  0  0999 V2000
    5.6651  -19.5417   25.5891 N   0  0  0  0  0  0  0  0  0  0  0  0
    6.4907  -18.4853   26.0863 C   0  0  0  0  0  0  0  0  0  0  0  0
    6.2502  -17.2050   25.3532 C   0  0  0  0  0  0  0  0  0  0  0  0
    5.5913  -17.2740   24.2873 O   0  0  0  0  0  0  0  0  0  0  0  0
    6.4903  -12.2796   27.6943 C   0  0  0  0  0  0  0  0  0  0  0  0
    6.2718  -13.3436   26.6694 C   0  0  0  0  0  0  0  0  0  0  0  0
    7.5893  -13.7943   26.0348 C   0  0  2  0  0  0  0  0  0  0  0  0
    8.3052  -12.6400   25.4191 C   0  0  0  0  0  0  0  0  0  0  0  0
    7.2231  -14.8986   25.0637 C   0  0  2  0  0  0  0  0  0  0  0  0
    6.7781  -16.0305   25.9121 N   0  0  0  0  0  0  0  0  0  0  0  0
    8.2908  -15.3361   24.1615 C   0  0  0  0  0  0  0  0  0  0  0  0
    9.3168  -15.9101   24.7378 O   0  0  0  0  0  0  0  0  0  0  0  0
    8.3805  -15.2403   22.7709 N   0  0  0  0  0  0  0  0  0  0  0  0
    7.3012  -14.5585   22.0021 C   0  0  0  0  0  0  0  0  0  0  0  0
    8.1237  -13.9123   20.9084 C   0  0  0  0  0  0  0  0  0  0  0  0
    8.9096  -15.1495   20.4569 C   0  0  0  0  0  0  0  0  0  0  0  0
    9.3465  -15.6913   21.8321 C   0  0  1  0  0  0  0  0  0  0  0  0
   10.6906  -15.0965   22.0393 C   0  0  0  0  0  0  0  0  0  0  0  0
   10.8773  -14.1398   22.9973 O   0  0  0  0  0  0  0  0  0  0  0  0
   11.6363  -15.4781   21.3313 O   0  0  0  0  0  0  0  0  0  0  0  0
  2  1  1  0
  3  2  1  0
  4  3  2  0
  5  6  1  0
  6  7  1  0
  7  9  1  0
  7  8  1  6
  9 11  1  0
  9 10  1  1
 10  3  1  0
 11 13  1  0
 12 11  2  0
 13 17  1  0
 14 13  1  0
 14 15  1  0
 15 16  1  0
 17 18  1  1
 17 16  1  0
 18 19  1  0
 20 18  2  0
M  END
$$$$
