GIP.pdb
     RDKit          3D

 20 20  0  0  1  0  0  0  0  0999 V2000
    5.4142  -19.5178   24.8922 N   0  0  0  0  0  0  0  0  0  0  0  0
    6.1780  -18.5007   25.5456 C   0  0  0  0  0  0  0  0  0  0  0  0
    6.0674  -17.1879   24.8393 C   0  0  0  0  0  0  0  0  0  0  0  0
    5.4006  -17.1673   23.7763 O   0  0  0  0  0  0  0  0  0  0  0  0
    6.5510  -12.6228   27.6349 C   0  0  0  0  0  0  0  0  0  0  0  0
    6.2505  -13.5992   26.5456 C   0  0  0  0  0  0  0  0  0  0  0  0
    7.4685  -13.8375   25.6503 C   0  0  2  0  0  0  0  0  0  0  0  0
    7.9572  -12.5558   25.0652 C   0  0  0  0  0  0  0  0  0  0  0  0
    7.0347  -14.8705   24.6298 C   0  0  2  0  0  0  0  0  0  0  0  0
    6.7154  -16.0854   25.4180 N   0  0  0  0  0  0  0  0  0  0  0  0
    8.0136  -15.1900   23.5882 C   0  0  0  0  0  0  0  0  0  0  0  0
    9.0336  -15.9140   23.9752 O   0  0  0  0  0  0  0  0  0  0  0  0
    8.0232  -14.8442   22.2349 N   0  0  0  0  0  0  0  0  0  0  0  0
    6.9213  -14.0133   21.6726 C   0  0  0  0  0  0  0  0  0  0  0  0
    7.6965  -13.1945   20.6633 C   0  0  0  0  0  0  0  0  0  0  0  0
    8.4161  -14.3435   19.9463 C   0  0  0  0  0  0  0  0  0  0  0  0
    8.9174  -15.1350   21.1701 C   0  0  1  0  0  0  0  0  0  0  0  0
   10.2889  -14.6137   21.3948 C   0  0  0  0  0  0  0  0  0  0  0  0
   11.3169  -15.0173   20.5898 O   0  0  0  0  0  0  0  0  0  0  0  0
   10.4865  -13.8117   22.3216 O   0  0  0  0  0  0  0  0  0  0  0  0
  2  1  1  0
  3  2  1  0
  4  3  2  0
  5  6  1  0
  6  7  1  0
  7  9  1  0
  7  8  1  6
  9 11  1  0
  9 10  1  1
 10  3  1  0
 11 13  1  0
 12 11  2  0
 13 17  1  0
 14 13  1  0
 14 15  1  0
 15 16  1  0
 17 18  1  1
 17 16  1  0
 18 19  1  0
 20 18  2  0
M  END
$$$$
