GIP.pdb
     RDKit          3D

 20 20  0  0  1  0  0  0  0  0999 V2000
    5.0283  -19.5916   25.2185 N   0  0  0  0  0  0  0  0  0  0  0  0
    5.8249  -18.6215   25.9036 C   0  0  0  0  0  0  0  0  0  0  0  0
    5.8815  -17.3274   25.1575 C   0  0  0  0  0  0  0  0  0  0  0  0
    5.3548  -17.3029   24.0186 O   0  0  0  0  0  0  0  0  0  0  0  0
    6.1705  -12.5679   27.7276 C   0  0  0  0  0  0  0  0  0  0  0  0
    5.9978  -13.6395   26.7018 C   0  0  0  0  0  0  0  0  0  0  0  0
    7.3316  -14.0234   26.0575 C   0  0  2  0  0  0  0  0  0  0  0  0
    8.0295  -12.8191   25.5220 C   0  0  0  0  0  0  0  0  0  0  0  0
    6.9999  -15.0737   25.0166 C   0  0  2  0  0  0  0  0  0  0  0  0
    6.5168  -16.2453   25.7867 N   0  0  0  0  0  0  0  0  0  0  0  0
    8.1009  -15.4705   24.1358 C   0  0  0  0  0  0  0  0  0  0  0  0
    9.0860  -16.1086   24.7160 O   0  0  0  0  0  0  0  0  0  0  0  0
    8.2596  -15.2770   22.7615 N   0  0  0  0  0  0  0  0  0  0  0  0
    7.2549  -14.4800   22.0025 C   0  0  0  0  0  0  0  0  0  0  0  0
    8.1604  -13.8022   20.9970 C   0  0  0  0  0  0  0  0  0  0  0  0
    8.8991  -15.0453   20.4856 C   0  0  0  0  0  0  0  0  0  0  0  0
    9.2424  -15.7114   21.8323 C   0  0  1  0  0  0  0  0  0  0  0  0
   10.6054  -15.2110   22.1407 C   0  0  0  0  0  0  0  0  0  0  0  0
   11.6800  -15.6633   21.4278 O   0  0  0  0  0  0  0  0  0  0  0  0
   10.7529  -14.3816   23.0526 O   0  0  0  0  0  0  0  0  0  0  0  0
  2  1  1  0
  3  2  1  0
  4  3  2  0
  5  6  1  0
  6  7  1  0
  7  9  1  0
  7  8  1  6
  9 11  1  0
  9 10  1  1
 10  3  1  0
 11 13  1  0
 12 11  2  0
 13 17  1  0
 14 13  1  0
 14 15  1  0
 15 16  1  0
 17 18  1  1
 17 16  1  0
 18 19  1  0
 20 18  2  0
M  END
$$$$
