WID.pdb
     RDKit          3D

 31 32  0  0  1  0  0  0  0  0999 V2000
   28.4663  -21.0439  -15.1782 N   0  0  0  0  0  0  0  0  0  0  0  0
   27.6046  -20.0839  -14.5129 C   0  0  1  0  0  0  0  0  0  0  0  0
   26.6340  -19.4359  -15.4772 C   0  0  0  0  0  0  0  0  0  0  0  0
   27.2793  -18.4065  -16.3132 C   0  0  0  0  0  0  0  0  0  0  0  0
   27.7777  -18.5882  -17.5815 C   0  0  0  0  0  0  0  0  0  0  0  0
   28.2706  -17.4047  -17.9677 N   0  0  0  0  0  0  0  0  0  0  0  0
   28.1036  -16.4789  -16.9917 C   0  0  0  0  0  0  0  0  0  0  0  0
   28.4334  -15.1583  -16.9124 C   0  0  0  0  0  0  0  0  0  0  0  0
   28.1153  -14.4761  -15.7411 C   0  0  0  0  0  0  0  0  0  0  0  0
   27.4914  -15.0944  -14.6918 C   0  0  0  0  0  0  0  0  0  0  0  0
   27.1585  -16.4248  -14.7709 C   0  0  0  0  0  0  0  0  0  0  0  0
   27.4776  -17.1096  -15.9458 C   0  0  0  0  0  0  0  0  0  0  0  0
   26.7875  -20.8463  -13.5237 C   0  0  0  0  0  0  0  0  0  0  0  0
   26.3252  -21.9577  -13.9414 O   0  0  0  0  0  0  0  0  0  0  0  0
   26.8981  -20.1686   -8.0825 C   0  0  0  0  0  0  0  0  0  0  0  0
   26.8249  -20.9162   -9.3816 C   0  0  0  0  0  0  0  0  0  0  0  0
   25.4954  -20.6828  -10.0156 C   0  0  2  0  0  0  0  0  0  0  0  0
   24.4656  -21.5019   -9.2422 C   0  0  0  0  0  0  0  0  0  0  0  0
   25.4546  -21.0506  -11.4674 C   0  0  2  0  0  0  0  0  0  0  0  0
   26.5165  -20.4185  -12.2211 N   0  0  0  0  0  0  0  0  0  0  0  0
   24.1199  -20.7393  -12.0753 C   0  0  0  0  0  0  0  0  0  0  0  0
   23.7716  -19.5491  -12.1651 O   0  0  0  0  0  0  0  0  0  0  0  0
   23.2690  -21.7525  -12.5368 N   0  0  0  0  0  0  0  0  0  0  0  0
   22.0082  -21.3653  -13.1906 C   0  0  1  0  0  0  0  0  0  0  0  0
   21.5395  -22.4649  -14.0817 C   0  0  0  0  0  0  0  0  0  0  0  0
   22.4742  -22.7777  -15.1614 C   0  0  0  0  0  0  0  0  0  0  0  0
   22.9744  -23.8804  -15.4191 O   0  0  0  0  0  0  0  0  0  0  0  0
   21.0284  -21.0074  -12.1353 C   0  0  0  0  0  0  0  0  0  0  0  0
   19.9872  -20.1474  -12.3406 O   0  0  0  0  0  0  0  0  0  0  0  0
   22.8647  -21.7138  -16.0221 O   0  0  0  0  0  0  0  0  0  0  0  0
   21.1386  -21.5053  -10.9868 O   0  0  0  0  0  0  0  0  0  0  0  0
  2 13  1  0
  2  3  1  0
  2  1  1  6
  4  3  1  0
  4  5  2  0
  6  5  1  0
  7  6  1  0
  8  7  2  0
  9  8  1  0
 10  9  2  0
 10 11  1  0
 11 12  2  0
 12  7  1  0
 12  4  1  0
 13 14  2  0
 16 15  1  0
 17 16  1  0
 17 19  1  0
 17 18  1  1
 19 21  1  0
 19 20  1  6
 20 13  1  0
 21 22  2  0
 23 21  1  0
 23 24  1  0
 24 28  1  0
 24 25  1  1
 26 25  1  0
 26 27  2  0
 28 31  2  0
 28 29  1  0
 30 26  1  0
M  END
$$$$
