WID.pdb
     RDKit          3D

 31 32  0  0  1  0  0  0  0  0999 V2000
   26.6994  -21.6622  -13.3842 N   0  0  0  0  0  0  0  0  0  0  0  0
   26.4146  -20.4811  -12.5901 C   0  0  1  0  0  0  0  0  0  0  0  0
   25.3132  -19.6428  -13.2033 C   0  0  0  0  0  0  0  0  0  0  0  0
   25.7052  -19.0693  -14.5042 C   0  0  0  0  0  0  0  0  0  0  0  0
   24.8525  -18.7080  -15.5204 C   0  0  0  0  0  0  0  0  0  0  0  0
   25.6213  -18.2362  -16.5099 N   0  0  0  0  0  0  0  0  0  0  0  0
   26.9299  -18.2846  -16.1594 C   0  0  0  0  0  0  0  0  0  0  0  0
   28.0701  -17.9250  -16.8150 C   0  0  0  0  0  0  0  0  0  0  0  0
   29.2846  -18.1088  -16.1594 C   0  0  0  0  0  0  0  0  0  0  0  0
   29.3519  -18.6321  -14.8969 C   0  0  0  0  0  0  0  0  0  0  0  0
   28.2038  -18.9944  -14.2355 C   0  0  0  0  0  0  0  0  0  0  0  0
   26.9851  -18.8104  -14.8930 C   0  0  0  0  0  0  0  0  0  0  0  0
   25.9106  -20.9576  -11.2686 C   0  0  0  0  0  0  0  0  0  0  0  0
   25.5355  -22.1749  -11.2361 O   0  0  0  0  0  0  0  0  0  0  0  0
   27.9167  -19.0310   -6.6181 C   0  0  0  0  0  0  0  0  0  0  0  0
   27.4567  -19.9947   -7.6724 C   0  0  0  0  0  0  0  0  0  0  0  0
   25.9665  -20.0504   -7.6796 C   0  0  2  0  0  0  0  0  0  0  0  0
   25.5251  -20.7501   -6.3970 C   0  0  0  0  0  0  0  0  0  0  0  0
   25.4024  -20.7633   -8.8705 C   0  0  2  0  0  0  0  0  0  0  0  0
   25.8328  -20.1683  -10.1178 N   0  0  0  0  0  0  0  0  0  0  0  0
   23.9061  -20.8347   -8.8096 C   0  0  0  0  0  0  0  0  0  0  0  0
   23.2547  -19.7889   -8.9767 O   0  0  0  0  0  0  0  0  0  0  0  0
   23.2378  -22.0428   -8.5700 N   0  0  0  0  0  0  0  0  0  0  0  0
   21.7657  -22.0433   -8.5792 C   0  0  1  0  0  0  0  0  0  0  0  0
   21.2645  -23.0024   -9.6047 C   0  0  0  0  0  0  0  0  0  0  0  0
   19.8150  -23.1895   -9.5676 C   0  0  0  0  0  0  0  0  0  0  0  0
   18.9491  -22.3834   -9.9323 O   0  0  0  0  0  0  0  0  0  0  0  0
   21.2926  -22.3514   -7.2070 C   0  0  0  0  0  0  0  0  0  0  0  0
   20.0439  -22.0303   -6.7556 O   0  0  0  0  0  0  0  0  0  0  0  0
   19.3242  -24.4256   -9.0613 O   0  0  0  0  0  0  0  0  0  0  0  0
   22.0579  -22.9356   -6.3996 O   0  0  0  0  0  0  0  0  0  0  0  0
  2 13  1  0
  2  3  1  0
  2  1  1  6
  4  3  1  0
  4  5  2  0
  6  5  1  0
  7  6  1  0
  8  7  2  0
  9  8  1  0
 10  9  2  0
 10 11  1  0
 11 12  2  0
 12  7  1  0
 12  4  1  0
 13 14  2  0
 16 15  1  0
 17 16  1  0
 17 19  1  0
 17 18  1  1
 19 21  1  0
 19 20  1  6
 20 13  1  0
 21 22  2  0
 23 21  1  0
 23 24  1  0
 24 28  1  0
 24 25  1  6
 26 25  1  0
 26 27  2  0
 28 31  2  0
 28 29  1  0
 30 26  1  0
M  END
$$$$
