WID.pdb
     RDKit          3D

 31 32  0  0  1  0  0  0  0  0999 V2000
   26.7361  -20.8878  -12.8452 N   0  0  0  0  0  0  0  0  0  0  0  0
   25.5020  -20.4588  -12.2129 C   0  0  1  0  0  0  0  0  0  0  0  0
   24.2877  -21.0807  -12.8689 C   0  0  0  0  0  0  0  0  0  0  0  0
   24.0584  -20.5597  -14.2294 C   0  0  0  0  0  0  0  0  0  0  0  0
   24.7379  -20.9325  -15.3650 C   0  0  0  0  0  0  0  0  0  0  0  0
   24.2146  -20.2198  -16.3704 N   0  0  0  0  0  0  0  0  0  0  0  0
   23.2285  -19.4087  -15.9151 C   0  0  0  0  0  0  0  0  0  0  0  0
   22.4146  -18.5119  -16.5414 C   0  0  0  0  0  0  0  0  0  0  0  0
   21.4842  -17.8241  -15.7669 C   0  0  0  0  0  0  0  0  0  0  0  0
   21.3751  -18.0283  -14.4182 C   0  0  0  0  0  0  0  0  0  0  0  0
   22.1945  -18.9318  -13.7864 C   0  0  0  0  0  0  0  0  0  0  0  0
   23.1282  -19.6219  -14.5631 C   0  0  0  0  0  0  0  0  0  0  0  0
   25.5378  -20.9587  -10.8071 C   0  0  0  0  0  0  0  0  0  0  0  0
   25.7870  -22.2015  -10.6778 O   0  0  0  0  0  0  0  0  0  0  0  0
   28.0231  -18.6356   -6.8985 C   0  0  0  0  0  0  0  0  0  0  0  0
   27.4735  -19.7879   -7.6872 C   0  0  0  0  0  0  0  0  0  0  0  0
   26.0347  -19.9826   -7.3466 C   0  0  2  0  0  0  0  0  0  0  0  0
   25.9723  -20.6814   -5.9911 C   0  0  0  0  0  0  0  0  0  0  0  0
   25.2832  -20.7808   -8.3678 C   0  0  2  0  0  0  0  0  0  0  0  0
   25.3199  -20.1653   -9.6773 N   0  0  0  0  0  0  0  0  0  0  0  0
   23.8672  -21.0252   -7.9401 C   0  0  0  0  0  0  0  0  0  0  0  0
   22.9906  -20.2213   -8.3025 O   0  0  0  0  0  0  0  0  0  0  0  0
   23.5190  -22.1281   -7.1491 N   0  0  0  0  0  0  0  0  0  0  0  0
   22.0988  -22.3360   -6.8224 C   0  0  1  0  0  0  0  0  0  0  0  0
   21.4435  -23.1397   -7.8936 C   0  0  0  0  0  0  0  0  0  0  0  0
   20.0667  -23.5169   -7.5785 C   0  0  0  0  0  0  0  0  0  0  0  0
   19.0826  -22.7681   -7.5206 O   0  0  0  0  0  0  0  0  0  0  0  0
   22.0179  -22.9680   -5.4823 C   0  0  0  0  0  0  0  0  0  0  0  0
   20.9140  -22.8874   -4.6817 O   0  0  0  0  0  0  0  0  0  0  0  0
   19.8066  -24.8893   -7.3060 O   0  0  0  0  0  0  0  0  0  0  0  0
   22.9989  -23.6149   -5.0373 O   0  0  0  0  0  0  0  0  0  0  0  0
  2 13  1  0
  2  3  1  0
  2  1  1  6
  4  3  1  0
  4  5  2  0
  6  5  1  0
  7  6  1  0
  8  7  2  0
  9  8  1  0
 10  9  2  0
 10 11  1  0
 11 12  2  0
 12  7  1  0
 12  4  1  0
 13 14  2  0
 16 15  1  0
 17 16  1  0
 17 19  1  0
 17 18  1  1
 19 21  1  0
 19 20  1  6
 20 13  1  0
 21 22  2  0
 23 21  1  0
 23 24  1  0
 24 28  1  0
 24 25  1  6
 26 25  1  0
 26 27  2  0
 28 31  2  0
 28 29  1  0
 30 26  1  0
M  END
$$$$
