WID.pdb
     RDKit          3D

 31 32  0  0  1  0  0  0  0  0999 V2000
   24.8693  -19.1262   -8.8207 N   0  0  0  0  0  0  0  0  0  0  0  0
   26.0176  -19.9234   -9.2115 C   0  0  1  0  0  0  0  0  0  0  0  0
   26.1255  -21.1933   -8.3945 C   0  0  0  0  0  0  0  0  0  0  0  0
   26.3069  -20.9198   -6.9568 C   0  0  0  0  0  0  0  0  0  0  0  0
   25.3501  -21.0562   -5.9790 C   0  0  0  0  0  0  0  0  0  0  0  0
   25.9343  -20.7063   -4.8262 N   0  0  0  0  0  0  0  0  0  0  0  0
   27.2261  -20.3529   -5.0361 C   0  0  0  0  0  0  0  0  0  0  0  0
   28.2111  -19.9302   -4.1933 C   0  0  0  0  0  0  0  0  0  0  0  0
   29.4581  -19.6411   -4.7411 C   0  0  0  0  0  0  0  0  0  0  0  0
   29.7064  -19.7712   -6.0804 C   0  0  0  0  0  0  0  0  0  0  0  0
   28.7147  -20.1971   -6.9302 C   0  0  0  0  0  0  0  0  0  0  0  0
   27.4635  -20.4871   -6.3811 C   0  0  0  0  0  0  0  0  0  0  0  0
   25.7965  -20.3380  -10.6281 C   0  0  0  0  0  0  0  0  0  0  0  0
   24.5820  -20.3327  -11.0133 O   0  0  0  0  0  0  0  0  0  0  0  0
   29.9283  -20.7417  -12.2303 C   0  0  0  0  0  0  0  0  0  0  0  0
   29.1112  -19.8701  -13.1383 C   0  0  0  0  0  0  0  0  0  0  0  0
   27.9569  -20.6500  -13.6704 C   0  0  2  0  0  0  0  0  0  0  0  0
   27.7780  -20.2663  -15.1369 C   0  0  0  0  0  0  0  0  0  0  0  0
   26.6813  -20.4129  -12.9212 C   0  0  2  0  0  0  0  0  0  0  0  0
   26.8114  -20.7156  -11.5117 N   0  0  0  0  0  0  0  0  0  0  0  0
   25.5414  -21.1796  -13.5216 C   0  0  0  0  0  0  0  0  0  0  0  0
   25.5213  -22.4155  -13.3875 O   0  0  0  0  0  0  0  0  0  0  0  0
   24.5124  -20.5366  -14.2226 N   0  0  0  0  0  0  0  0  0  0  0  0
   23.4251  -21.3572  -14.7804 C   0  0  1  0  0  0  0  0  0  0  0  0
   22.2034  -21.2235  -13.9363 C   0  0  0  0  0  0  0  0  0  0  0  0
   21.0672  -22.0001  -14.4295 C   0  0  0  0  0  0  0  0  0  0  0  0
   21.0515  -22.7622  -15.4049 O   0  0  0  0  0  0  0  0  0  0  0  0
   23.2111  -20.9487  -16.1907 C   0  0  0  0  0  0  0  0  0  0  0  0
   22.9505  -21.8358  -17.1962 O   0  0  0  0  0  0  0  0  0  0  0  0
   19.8354  -21.8825  -13.7266 O   0  0  0  0  0  0  0  0  0  0  0  0
   23.2674  -19.7329  -16.5034 O   0  0  0  0  0  0  0  0  0  0  0  0
  2 13  1  0
  2  3  1  0
  2  1  1  1
  4  3  1  0
  4  5  2  0
  6  5  1  0
  7  6  1  0
  8  7  2  0
  9  8  1  0
 10  9  2  0
 10 11  1  0
 11 12  2  0
 12  7  1  0
 12  4  1  0
 13 14  2  0
 16 15  1  0
 17 16  1  0
 17 19  1  0
 17 18  1  6
 19 21  1  0
 19 20  1  1
 20 13  1  0
 21 22  2  0
 23 21  1  0
 23 24  1  0
 24 28  1  0
 24 25  1  1
 26 25  1  0
 26 27  2  0
 28 31  2  0
 28 29  1  0
 30 26  1  0
M  END
$$$$
