WID.pdb
     RDKit          3D

 31 32  0  0  1  0  0  0  0  0999 V2000
   28.3679  -20.9813  -14.1560 N   0  0  0  0  0  0  0  0  0  0  0  0
   27.3912  -20.0878  -13.5607 C   0  0  1  0  0  0  0  0  0  0  0  0
   26.3322  -19.6671  -14.5572 C   0  0  0  0  0  0  0  0  0  0  0  0
   26.8835  -18.8313  -15.6400 C   0  0  0  0  0  0  0  0  0  0  0  0
   27.2718  -19.2694  -16.8840 C   0  0  0  0  0  0  0  0  0  0  0  0
   27.7080  -18.1905  -17.5461 N   0  0  0  0  0  0  0  0  0  0  0  0
   27.6111  -17.0843  -16.7686 C   0  0  0  0  0  0  0  0  0  0  0  0
   27.9234  -15.7757  -16.9904 C   0  0  0  0  0  0  0  0  0  0  0  0
   27.6975  -14.8678  -15.9592 C   0  0  0  0  0  0  0  0  0  0  0  0
   27.1790  -15.2575  -14.7544 C   0  0  0  0  0  0  0  0  0  0  0  0
   26.8639  -16.5756  -14.5301 C   0  0  0  0  0  0  0  0  0  0  0  0
   27.0905  -17.4868  -15.5643 C   0  0  0  0  0  0  0  0  0  0  0  0
   26.6948  -20.8581  -12.4887 C   0  0  0  0  0  0  0  0  0  0  0  0
   26.3150  -22.0286  -12.8191 O   0  0  0  0  0  0  0  0  0  0  0  0
   27.0585  -19.4915   -7.4310 C   0  0  0  0  0  0  0  0  0  0  0  0
   26.7872  -20.6793   -8.3069 C   0  0  0  0  0  0  0  0  0  0  0  0
   25.4602  -20.5174   -8.9678 C   0  0  2  0  0  0  0  0  0  0  0  0
   24.4336  -21.2786   -8.1333 C   0  0  0  0  0  0  0  0  0  0  0  0
   25.4348  -21.0100  -10.3825 C   0  0  2  0  0  0  0  0  0  0  0  0
   26.4494  -20.3785  -11.1990 N   0  0  0  0  0  0  0  0  0  0  0  0
   24.0794  -20.8374  -10.9996 C   0  0  0  0  0  0  0  0  0  0  0  0
   23.8225  -19.7673  -11.5782 O   0  0  0  0  0  0  0  0  0  0  0  0
   23.1096  -21.8469  -10.9358 N   0  0  0  0  0  0  0  0  0  0  0  0
   21.8171  -21.6203  -11.6029 C   0  0  1  0  0  0  0  0  0  0  0  0
   21.6445  -22.5929  -12.7198 C   0  0  0  0  0  0  0  0  0  0  0  0
   21.9898  -22.0426  -14.0294 C   0  0  0  0  0  0  0  0  0  0  0  0
   22.4100  -20.9039  -14.2730 O   0  0  0  0  0  0  0  0  0  0  0  0
   20.7452  -21.7051  -10.5804 C   0  0  0  0  0  0  0  0  0  0  0  0
   19.7984  -20.7361  -10.4058 O   0  0  0  0  0  0  0  0  0  0  0  0
   21.8342  -22.8911  -15.1612 O   0  0  0  0  0  0  0  0  0  0  0  0
   20.6823  -22.7067   -9.8241 O   0  0  0  0  0  0  0  0  0  0  0  0
  2 13  1  0
  2  3  1  0
  2  1  1  6
  4  3  1  0
  4  5  2  0
  6  5  1  0
  7  6  1  0
  8  7  2  0
  9  8  1  0
 10  9  2  0
 10 11  1  0
 11 12  2  0
 12  7  1  0
 12  4  1  0
 13 14  2  0
 16 15  1  0
 17 16  1  0
 17 19  1  0
 17 18  1  1
 19 21  1  0
 19 20  1  6
 20 13  1  0
 21 22  2  0
 23 21  1  0
 23 24  1  0
 24 28  1  0
 24 25  1  6
 26 25  1  0
 26 27  2  0
 28 31  2  0
 28 29  1  0
 30 26  1  0
M  END
$$$$
