WID.pdb
     RDKit          3D

 31 32  0  0  1  0  0  0  0  0999 V2000
   27.9995  -21.1711  -14.8524 N   0  0  0  0  0  0  0  0  0  0  0  0
   27.1313  -20.1560  -14.2845 C   0  0  1  0  0  0  0  0  0  0  0  0
   26.1291  -19.6423  -15.2961 C   0  0  0  0  0  0  0  0  0  0  0  0
   26.7483  -18.7489  -16.2928 C   0  0  0  0  0  0  0  0  0  0  0  0
   27.1258  -19.0961  -17.5684 C   0  0  0  0  0  0  0  0  0  0  0  0
   27.6396  -17.9920  -18.1249 N   0  0  0  0  0  0  0  0  0  0  0  0
   27.6022  -16.9573  -17.2500 C   0  0  0  0  0  0  0  0  0  0  0  0
   28.0005  -15.6570  -17.3480 C   0  0  0  0  0  0  0  0  0  0  0  0
   27.8181  -14.8340  -16.2399 C   0  0  0  0  0  0  0  0  0  0  0  0
   27.2583  -15.2973  -15.0804 C   0  0  0  0  0  0  0  0  0  0  0  0
   26.8565  -16.6071  -14.9808 C   0  0  0  0  0  0  0  0  0  0  0  0
   27.0395  -17.4331  -16.0923 C   0  0  0  0  0  0  0  0  0  0  0  0
   26.3492  -20.8129  -13.1962 C   0  0  0  0  0  0  0  0  0  0  0  0
   25.9817  -22.0091  -13.4362 O   0  0  0  0  0  0  0  0  0  0  0  0
   27.2915  -20.0620   -7.9332 C   0  0  0  0  0  0  0  0  0  0  0  0
   27.0261  -20.6560   -9.2855 C   0  0  0  0  0  0  0  0  0  0  0  0
   25.5730  -20.5438   -9.6017 C   0  0  2  0  0  0  0  0  0  0  0  0
   24.8169  -21.4308   -8.6161 C   0  0  0  0  0  0  0  0  0  0  0  0
   25.2365  -20.9395  -11.0069 C   0  0  2  0  0  0  0  0  0  0  0  0
   26.0150  -20.2062  -11.9822 N   0  0  0  0  0  0  0  0  0  0  0  0
   23.7705  -20.7903  -11.2832 C   0  0  0  0  0  0  0  0  0  0  0  0
   22.9787  -20.8320  -10.3255 O   0  0  0  0  0  0  0  0  0  0  0  0
   23.2834  -20.6081  -12.5844 N   0  0  0  0  0  0  0  0  0  0  0  0
   21.8662  -20.2499  -12.7585 C   0  0  1  0  0  0  0  0  0  0  0  0
   21.7198  -19.2926  -13.8921 C   0  0  0  0  0  0  0  0  0  0  0  0
   22.0233  -19.8824  -15.1949 C   0  0  0  0  0  0  0  0  0  0  0  0
   22.3888  -21.0433  -15.4215 O   0  0  0  0  0  0  0  0  0  0  0  0
   21.0900  -21.5009  -12.9432 C   0  0  0  0  0  0  0  0  0  0  0  0
   19.7249  -21.5370  -12.9786 O   0  0  0  0  0  0  0  0  0  0  0  0
   21.8902  -19.0494  -16.3411 O   0  0  0  0  0  0  0  0  0  0  0  0
   21.6929  -22.5954  -13.0757 O   0  0  0  0  0  0  0  0  0  0  0  0
  2 13  1  0
  2  3  1  0
  2  1  1  6
  4  3  1  0
  4  5  2  0
  6  5  1  0
  7  6  1  0
  8  7  2  0
  9  8  1  0
 10  9  2  0
 10 11  1  0
 11 12  2  0
 12  7  1  0
 12  4  1  0
 13 14  2  0
 16 15  1  0
 17 16  1  0
 17 19  1  0
 17 18  1  1
 19 21  1  0
 19 20  1  6
 20 13  1  0
 21 22  2  0
 23 21  1  0
 23 24  1  0
 24 28  1  0
 24 25  1  6
 26 25  1  0
 26 27  2  0
 28 31  2  0
 28 29  1  0
 30 26  1  0
M  END
$$$$
