WID.pdb
     RDKit          3D

 31 32  0  0  1  0  0  0  0  0999 V2000
   25.1963  -21.0396  -15.6428 N   0  0  0  0  0  0  0  0  0  0  0  0
   25.0216  -20.0229  -14.6217 C   0  0  1  0  0  0  0  0  0  0  0  0
   24.0604  -18.9402  -15.0640 C   0  0  0  0  0  0  0  0  0  0  0  0
   24.5246  -18.2414  -16.2769 C   0  0  0  0  0  0  0  0  0  0  0  0
   23.8025  -18.0570  -17.4322 C   0  0  0  0  0  0  0  0  0  0  0  0
   24.5960  -17.3784  -18.2703 N   0  0  0  0  0  0  0  0  0  0  0  0
   25.7947  -17.1254  -17.6899 C   0  0  0  0  0  0  0  0  0  0  0  0
   26.9109  -16.4792  -18.1321 C   0  0  0  0  0  0  0  0  0  0  0  0
   27.9988  -16.3914  -17.2676 C   0  0  0  0  0  0  0  0  0  0  0  0
   27.9675  -16.9302  -16.0101 C   0  0  0  0  0  0  0  0  0  0  0  0
   26.8432  -17.5811  -15.5637 C   0  0  0  0  0  0  0  0  0  0  0  0
   25.7516  -17.6696  -16.4308 C   0  0  0  0  0  0  0  0  0  0  0  0
   24.4028  -20.6948  -13.4413 C   0  0  0  0  0  0  0  0  0  0  0  0
   23.7953  -21.7861  -13.6931 O   0  0  0  0  0  0  0  0  0  0  0  0
   26.4001  -20.2874   -8.3459 C   0  0  0  0  0  0  0  0  0  0  0  0
   25.8790  -20.8572   -9.6326 C   0  0  0  0  0  0  0  0  0  0  0  0
   24.4098  -20.6180   -9.7237 C   0  0  2  0  0  0  0  0  0  0  0  0
   23.7380  -21.4570   -8.6399 C   0  0  0  0  0  0  0  0  0  0  0  0
   23.8326  -20.9577  -11.0639 C   0  0  2  0  0  0  0  0  0  0  0  0
   24.4546  -20.2060  -12.1330 N   0  0  0  0  0  0  0  0  0  0  0  0
   22.3453  -20.7706  -11.0844 C   0  0  0  0  0  0  0  0  0  0  0  0
   21.8926  -19.6125  -11.0808 O   0  0  0  0  0  0  0  0  0  0  0  0
   21.4679  -21.8630  -11.1063 N   0  0  0  0  0  0  0  0  0  0  0  0
   20.0212  -21.5989  -11.1705 C   0  0  1  0  0  0  0  0  0  0  0  0
   19.4866  -22.0189  -12.4975 C   0  0  0  0  0  0  0  0  0  0  0  0
   18.0397  -21.8507  -12.6218 C   0  0  0  0  0  0  0  0  0  0  0  0
   17.2601  -21.4320  -11.7561 O   0  0  0  0  0  0  0  0  0  0  0  0
   19.3713  -22.2915  -10.0304 C   0  0  0  0  0  0  0  0  0  0  0  0
   20.0217  -23.1852   -9.2279 O   0  0  0  0  0  0  0  0  0  0  0  0
   17.4414  -22.1997  -13.8650 O   0  0  0  0  0  0  0  0  0  0  0  0
   18.1637  -22.0633   -9.7682 O   0  0  0  0  0  0  0  0  0  0  0  0
  2 13  1  0
  2  3  1  0
  2  1  1  6
  4  3  1  0
  4  5  2  0
  6  5  1  0
  7  6  1  0
  8  7  2  0
  9  8  1  0
 10  9  2  0
 10 11  1  0
 11 12  2  0
 12  7  1  0
 12  4  1  0
 13 14  2  0
 16 15  1  0
 17 16  1  0
 17 19  1  0
 17 18  1  1
 19 21  1  0
 19 20  1  6
 20 13  1  0
 21 22  2  0
 23 21  1  0
 23 24  1  0
 24 28  1  0
 24 25  1  6
 26 25  1  0
 26 27  2  0
 28 31  2  0
 28 29  1  0
 30 26  1  0
M  END
$$$$
