WID.pdb
     RDKit          3D

 31 32  0  0  1  0  0  0  0  0999 V2000
   22.5792  -13.2965  -19.6016 N   0  0  0  0  0  0  0  0  0  0  0  0
   22.6694  -11.8527  -19.7190 C   0  0  1  0  0  0  0  0  0  0  0  0
   21.6622  -11.3042  -20.7072 C   0  0  0  0  0  0  0  0  0  0  0  0
   22.0487  -11.5698  -22.1054 C   0  0  0  0  0  0  0  0  0  0  0  0
   22.0788  -12.8002  -22.7180 C   0  0  0  0  0  0  0  0  0  0  0  0
   22.4829  -12.5868  -23.9765 N   0  0  0  0  0  0  0  0  0  0  0  0
   22.7102  -11.2668  -24.1853 C   0  0  0  0  0  0  0  0  0  0  0  0
   23.1260  -10.5685  -25.2801 C   0  0  0  0  0  0  0  0  0  0  0  0
   23.2627   -9.1881  -25.1596 C   0  0  0  0  0  0  0  0  0  0  0  0
   22.9928   -8.5351  -23.9878 C   0  0  0  0  0  0  0  0  0  0  0  0
   22.5736   -9.2378  -22.8844 C   0  0  0  0  0  0  0  0  0  0  0  0
   22.4365  -10.6227  -23.0048 C   0  0  0  0  0  0  0  0  0  0  0  0
   22.3183  -11.2857  -18.3839 C   0  0  0  0  0  0  0  0  0  0  0  0
   21.4461  -11.9418  -17.7265 O   0  0  0  0  0  0  0  0  0  0  0  0
   25.5604  -10.5829  -14.5197 C   0  0  0  0  0  0  0  0  0  0  0  0
   24.3592  -10.8306  -15.3844 C   0  0  0  0  0  0  0  0  0  0  0  0
   23.6205   -9.5513  -15.5882 C   0  0  2  0  0  0  0  0  0  0  0  0
   23.1304   -9.0792  -14.2220 C   0  0  0  0  0  0  0  0  0  0  0  0
   22.4629   -9.6752  -16.5313 C   0  0  2  0  0  0  0  0  0  0  0  0
   22.8741  -10.1220  -17.8451 N   0  0  0  0  0  0  0  0  0  0  0  0
   21.6940   -8.3918  -16.6281 C   0  0  0  0  0  0  0  0  0  0  0  0
   22.2292   -7.4201  -17.1896 O   0  0  0  0  0  0  0  0  0  0  0  0
   20.4005   -8.2693  -16.1031 N   0  0  0  0  0  0  0  0  0  0  0  0
   19.7101   -6.9759  -16.2349 C   0  0  1  0  0  0  0  0  0  0  0  0
   18.3213   -7.1898  -16.7330 C   0  0  0  0  0  0  0  0  0  0  0  0
   17.5399   -5.9577  -16.8259 C   0  0  0  0  0  0  0  0  0  0  0  0
   17.6474   -5.0688  -17.6808 O   0  0  0  0  0  0  0  0  0  0  0  0
   19.7628   -6.2853  -14.9226 C   0  0  0  0  0  0  0  0  0  0  0  0
   19.9378   -4.9368  -14.7925 O   0  0  0  0  0  0  0  0  0  0  0  0
   16.5412   -5.7360  -15.8367 O   0  0  0  0  0  0  0  0  0  0  0  0
   19.6437   -6.9497  -13.8627 O   0  0  0  0  0  0  0  0  0  0  0  0
  2 13  1  0
  2  3  1  0
  2  1  1  1
  4  3  1  0
  4  5  2  0
  6  5  1  0
  7  6  1  0
  8  7  2  0
  9  8  1  0
 10  9  2  0
 10 11  1  0
 11 12  2  0
 12  7  1  0
 12  4  1  0
 13 14  2  0
 16 15  1  0
 17 16  1  0
 17 19  1  0
 17 18  1  1
 19 21  1  0
 19 20  1  6
 20 13  1  0
 21 22  2  0
 23 21  1  0
 23 24  1  0
 24 28  1  0
 24 25  1  1
 26 25  1  0
 26 27  2  0
 28 31  2  0
 28 29  1  0
 30 26  1  0
M  END
$$$$
