WID.pdb
     RDKit          3D

 31 32  0  0  1  0  0  0  0  0999 V2000
   28.2433  -20.9736  -15.5872 N   0  0  0  0  0  0  0  0  0  0  0  0
   27.4321  -20.0037  -14.8745 C   0  0  1  0  0  0  0  0  0  0  0  0
   26.4519  -19.3061  -15.7934 C   0  0  0  0  0  0  0  0  0  0  0  0
   27.0959  -18.2573  -16.6058 C   0  0  0  0  0  0  0  0  0  0  0  0
   27.4629  -18.3662  -17.9263 C   0  0  0  0  0  0  0  0  0  0  0  0
   28.0078  -17.1914  -18.2660 N   0  0  0  0  0  0  0  0  0  0  0  0
   28.0004  -16.3410  -17.2102 C   0  0  0  0  0  0  0  0  0  0  0  0
   28.4357  -15.0575  -17.0618 C   0  0  0  0  0  0  0  0  0  0  0  0
   28.2774  -14.4553  -15.8165 C   0  0  0  0  0  0  0  0  0  0  0  0
   27.7051  -15.1146  -14.7628 C   0  0  0  0  0  0  0  0  0  0  0  0
   27.2660  -16.4077  -14.9115 C   0  0  0  0  0  0  0  0  0  0  0  0
   27.4248  -17.0123  -16.1607 C   0  0  0  0  0  0  0  0  0  0  0  0
   26.6236  -20.7635  -13.8763 C   0  0  0  0  0  0  0  0  0  0  0  0
   26.1079  -21.8469  -14.3052 O   0  0  0  0  0  0  0  0  0  0  0  0
   26.9322  -20.3821   -8.3553 C   0  0  0  0  0  0  0  0  0  0  0  0
   26.7936  -21.0490   -9.6924 C   0  0  0  0  0  0  0  0  0  0  0  0
   25.4927  -20.6607  -10.3096 C   0  0  2  0  0  0  0  0  0  0  0  0
   24.3842  -21.3596   -9.5268 C   0  0  0  0  0  0  0  0  0  0  0  0
   25.3931  -21.0141  -11.7621 C   0  0  2  0  0  0  0  0  0  0  0  0
   26.4136  -20.3615  -12.5543 N   0  0  0  0  0  0  0  0  0  0  0  0
   24.0296  -20.7129  -12.3081 C   0  0  0  0  0  0  0  0  0  0  0  0
   23.7087  -19.5242  -12.4810 O   0  0  0  0  0  0  0  0  0  0  0  0
   23.1223  -21.7337  -12.6217 N   0  0  0  0  0  0  0  0  0  0  0  0
   21.8264  -21.3623  -13.2131 C   0  0  1  0  0  0  0  0  0  0  0  0
   21.4847  -22.3021  -14.3190 C   0  0  0  0  0  0  0  0  0  0  0  0
   20.2079  -22.0016  -14.9646 C   0  0  0  0  0  0  0  0  0  0  0  0
   19.4372  -21.0707  -14.6966 O   0  0  0  0  0  0  0  0  0  0  0  0
   20.8119  -21.3366  -12.1306 C   0  0  0  0  0  0  0  0  0  0  0  0
   19.9694  -20.2825  -11.9187 O   0  0  0  0  0  0  0  0  0  0  0  0
   19.7861  -22.8594  -16.0189 O   0  0  0  0  0  0  0  0  0  0  0  0
   20.7011  -22.3198  -11.3559 O   0  0  0  0  0  0  0  0  0  0  0  0
  2 13  1  0
  2  3  1  0
  2  1  1  6
  4  3  1  0
  4  5  2  0
  6  5  1  0
  7  6  1  0
  8  7  2  0
  9  8  1  0
 10  9  2  0
 10 11  1  0
 11 12  2  0
 12  7  1  0
 12  4  1  0
 13 14  2  0
 16 15  1  0
 17 16  1  0
 17 19  1  0
 17 18  1  1
 19 21  1  0
 19 20  1  6
 20 13  1  0
 21 22  2  0
 23 21  1  0
 23 24  1  0
 24 28  1  0
 24 25  1  6
 26 25  1  0
 26 27  2  0
 28 31  2  0
 28 29  1  0
 30 26  1  0
M  END
$$$$
