WID.pdb
     RDKit          3D

 31 32  0  0  1  0  0  0  0  0999 V2000
   25.3536  -21.0612  -13.2132 N   0  0  0  0  0  0  0  0  0  0  0  0
   24.4258  -20.2727  -12.4232 C   0  0  1  0  0  0  0  0  0  0  0  0
   23.0199  -20.3316  -12.9815 C   0  0  0  0  0  0  0  0  0  0  0  0
   22.9160  -19.6885  -14.3046 C   0  0  0  0  0  0  0  0  0  0  0  0
   23.1757  -18.3681  -14.5863 C   0  0  0  0  0  0  0  0  0  0  0  0
   22.9586  -18.2111  -15.8981 N   0  0  0  0  0  0  0  0  0  0  0  0
   22.5707  -19.3825  -16.4592 C   0  0  0  0  0  0  0  0  0  0  0  0
   22.2410  -19.7238  -17.7375 C   0  0  0  0  0  0  0  0  0  0  0  0
   21.8775  -21.0445  -17.9865 C   0  0  0  0  0  0  0  0  0  0  0  0
   21.8464  -21.9848  -16.9928 C   0  0  0  0  0  0  0  0  0  0  0  0
   22.1787  -21.6420  -15.7048 C   0  0  0  0  0  0  0  0  0  0  0  0
   22.5432  -20.3170  -15.4545 C   0  0  0  0  0  0  0  0  0  0  0  0
   24.3781  -20.8900  -11.0653 C   0  0  0  0  0  0  0  0  0  0  0  0
   24.2925  -22.1612  -11.0482 O   0  0  0  0  0  0  0  0  0  0  0  0
   27.1166  -18.8579   -7.0798 C   0  0  0  0  0  0  0  0  0  0  0  0
   26.5637  -20.0049   -7.8740 C   0  0  0  0  0  0  0  0  0  0  0  0
   25.1273  -20.2041   -7.5262 C   0  0  2  0  0  0  0  0  0  0  0  0
   25.0735  -21.0328   -6.2456 C   0  0  0  0  0  0  0  0  0  0  0  0
   24.3410  -20.8819   -8.6065 C   0  0  2  0  0  0  0  0  0  0  0  0
   24.4199  -20.1732   -9.8662 N   0  0  0  0  0  0  0  0  0  0  0  0
   22.9109  -21.0803   -8.2025 C   0  0  0  0  0  0  0  0  0  0  0  0
   22.1348  -20.1114   -8.2710 O   0  0  0  0  0  0  0  0  0  0  0  0
   22.4401  -22.3216   -7.7540 N   0  0  0  0  0  0  0  0  0  0  0  0
   21.0202  -22.4407   -7.3842 C   0  0  1  0  0  0  0  0  0  0  0  0
   20.3413  -23.4175   -8.2830 C   0  0  0  0  0  0  0  0  0  0  0  0
   19.4311  -22.7919   -9.2408 C   0  0  0  0  0  0  0  0  0  0  0  0
   18.8247  -23.3474  -10.1662 O   0  0  0  0  0  0  0  0  0  0  0  0
   20.9433  -22.8120   -5.9496 C   0  0  0  0  0  0  0  0  0  0  0  0
   21.9120  -23.5312   -5.3091 O   0  0  0  0  0  0  0  0  0  0  0  0
   19.2022  -21.3931   -9.1136 O   0  0  0  0  0  0  0  0  0  0  0  0
   19.9487  -22.4606   -5.2667 O   0  0  0  0  0  0  0  0  0  0  0  0
  2 13  1  0
  2  3  1  0
  2  1  1  6
  4  3  1  0
  4  5  2  0
  6  5  1  0
  7  6  1  0
  8  7  2  0
  9  8  1  0
 10  9  2  0
 10 11  1  0
 11 12  2  0
 12  7  1  0
 12  4  1  0
 13 14  2  0
 16 15  1  0
 17 16  1  0
 17 19  1  0
 17 18  1  1
 19 21  1  0
 19 20  1  6
 20 13  1  0
 21 22  2  0
 23 21  1  0
 23 24  1  0
 24 28  1  0
 24 25  1  6
 26 25  1  0
 26 27  2  0
 28 31  2  0
 28 29  1  0
 30 26  1  0
M  END
$$$$
