WID.pdb
     RDKit          3D

 31 32  0  0  1  0  0  0  0  0999 V2000
   24.1245  -20.7997  -14.3231 N   0  0  0  0  0  0  0  0  0  0  0  0
   23.5381  -20.0024  -13.2614 C   0  0  1  0  0  0  0  0  0  0  0  0
   22.0506  -19.8054  -13.4615 C   0  0  0  0  0  0  0  0  0  0  0  0
   21.7448  -19.0864  -14.7123 C   0  0  0  0  0  0  0  0  0  0  0  0
   22.1815  -17.8274  -15.0506 C   0  0  0  0  0  0  0  0  0  0  0  0
   21.6748  -17.5638  -16.2616 N   0  0  0  0  0  0  0  0  0  0  0  0
   20.9329  -18.6084  -16.7042 C   0  0  0  0  0  0  0  0  0  0  0  0
   20.2293  -18.8133  -17.8540 C   0  0  0  0  0  0  0  0  0  0  0  0
   19.5599  -20.0252  -18.0015 C   0  0  0  0  0  0  0  0  0  0  0  0
   19.5955  -20.9924  -17.0342 C   0  0  0  0  0  0  0  0  0  0  0  0
   20.3043  -20.7870  -15.8756 C   0  0  0  0  0  0  0  0  0  0  0  0
   20.9758  -19.5712  -15.7271 C   0  0  0  0  0  0  0  0  0  0  0  0
   23.7057  -20.7746  -11.9953 C   0  0  0  0  0  0  0  0  0  0  0  0
   23.2471  -21.9632  -12.0182 O   0  0  0  0  0  0  0  0  0  0  0  0
   26.4742  -18.9884   -7.2862 C   0  0  0  0  0  0  0  0  0  0  0  0
   25.3657  -19.2945   -8.2503 C   0  0  0  0  0  0  0  0  0  0  0  0
   25.5109  -20.6928   -8.7478 C   0  0  2  0  0  0  0  0  0  0  0  0
   26.8502  -20.7871   -9.4739 C   0  0  0  0  0  0  0  0  0  0  0  0
   24.4031  -21.1181   -9.6624 C   0  0  2  0  0  0  0  0  0  0  0  0
   24.3127  -20.2788  -10.8381 N   0  0  0  0  0  0  0  0  0  0  0  0
   23.0870  -21.1644   -8.9459 C   0  0  0  0  0  0  0  0  0  0  0  0
   22.2679  -20.2512   -9.1492 O   0  0  0  0  0  0  0  0  0  0  0  0
   22.7682  -22.2040   -8.0620 N   0  0  0  0  0  0  0  0  0  0  0  0
   21.4488  -22.1894   -7.4094 C   0  0  1  0  0  0  0  0  0  0  0  0
   20.4031  -22.6498   -8.3672 C   0  0  0  0  0  0  0  0  0  0  0  0
   19.1484  -23.0303   -7.7206 C   0  0  0  0  0  0  0  0  0  0  0  0
   18.8821  -22.9671   -6.5133 O   0  0  0  0  0  0  0  0  0  0  0  0
   21.5278  -23.0209   -6.1830 C   0  0  0  0  0  0  0  0  0  0  0  0
   20.5337  -23.0722   -5.2475 O   0  0  0  0  0  0  0  0  0  0  0  0
   18.1058  -23.5298   -8.5505 O   0  0  0  0  0  0  0  0  0  0  0  0
   22.5485  -23.7221   -5.9693 O   0  0  0  0  0  0  0  0  0  0  0  0
  2 13  1  0
  2  3  1  0
  2  1  1  6
  4  3  1  0
  4  5  2  0
  6  5  1  0
  7  6  1  0
  8  7  2  0
  9  8  1  0
 10  9  2  0
 10 11  1  0
 11 12  2  0
 12  7  1  0
 12  4  1  0
 13 14  2  0
 16 15  1  0
 17 16  1  0
 17 19  1  0
 17 18  1  6
 19 21  1  0
 19 20  1  6
 20 13  1  0
 21 22  2  0
 23 21  1  0
 23 24  1  0
 24 28  1  0
 24 25  1  6
 26 25  1  0
 26 27  2  0
 28 31  2  0
 28 29  1  0
 30 26  1  0
M  END
$$$$
