WID.pdb
     RDKit          3D

 31 32  0  0  1  0  0  0  0  0999 V2000
   26.9602  -21.1200  -12.3524 N   0  0  0  0  0  0  0  0  0  0  0  0
   26.1219  -20.2578  -11.5397 C   0  0  1  0  0  0  0  0  0  0  0  0
   24.6632  -20.3590  -11.9316 C   0  0  0  0  0  0  0  0  0  0  0  0
   24.3862  -19.7130  -13.2281 C   0  0  0  0  0  0  0  0  0  0  0  0
   25.3190  -19.3695  -14.1779 C   0  0  0  0  0  0  0  0  0  0  0  0
   24.6415  -18.8130  -15.1898 N   0  0  0  0  0  0  0  0  0  0  0  0
   23.3138  -18.7905  -14.9175 C   0  0  0  0  0  0  0  0  0  0  0  0
   22.2394  -18.3338  -15.6220 C   0  0  0  0  0  0  0  0  0  0  0  0
   20.9789  -18.4627  -15.0450 C   0  0  0  0  0  0  0  0  0  0  0  0
   20.8038  -19.0273  -13.8108 C   0  0  0  0  0  0  0  0  0  0  0  0
   21.8855  -19.4878  -13.1004 C   0  0  0  0  0  0  0  0  0  0  0  0
   23.1503  -19.3585  -13.6789 C   0  0  0  0  0  0  0  0  0  0  0  0
   26.2273  -20.7490  -10.1343 C   0  0  0  0  0  0  0  0  0  0  0  0
   26.0942  -22.0075   -9.9865 O   0  0  0  0  0  0  0  0  0  0  0  0
   29.1448  -18.3376   -6.3306 C   0  0  0  0  0  0  0  0  0  0  0  0
   28.5883  -19.5480   -7.0213 C   0  0  0  0  0  0  0  0  0  0  0  0
   27.1411  -19.6885   -6.6899 C   0  0  2  0  0  0  0  0  0  0  0  0
   27.0445  -20.3408   -5.3133 C   0  0  0  0  0  0  0  0  0  0  0  0
   26.3757  -20.4966   -7.6928 C   0  0  2  0  0  0  0  0  0  0  0  0
   26.4535  -19.9319   -9.0232 N   0  0  0  0  0  0  0  0  0  0  0  0
   24.9458  -20.6740   -7.2786 C   0  0  0  0  0  0  0  0  0  0  0  0
   24.1045  -19.8525   -7.6826 O   0  0  0  0  0  0  0  0  0  0  0  0
   24.5461  -21.7346   -6.4545 N   0  0  0  0  0  0  0  0  0  0  0  0
   23.1145  -21.8805   -6.1448 C   0  0  1  0  0  0  0  0  0  0  0  0
   22.5980  -23.1560   -6.7187 C   0  0  0  0  0  0  0  0  0  0  0  0
   21.4584  -22.9715   -7.6156 C   0  0  0  0  0  0  0  0  0  0  0  0
   20.9001  -21.9045   -7.9028 O   0  0  0  0  0  0  0  0  0  0  0  0
   22.9456  -21.7885   -4.6735 C   0  0  0  0  0  0  0  0  0  0  0  0
   21.8025  -21.3367   -4.0777 O   0  0  0  0  0  0  0  0  0  0  0  0
   20.9163  -24.1311   -8.2374 O   0  0  0  0  0  0  0  0  0  0  0  0
   23.8848  -22.1365   -3.9147 O   0  0  0  0  0  0  0  0  0  0  0  0
  2 13  1  0
  2  3  1  0
  2  1  1  6
  4  3  1  0
  4  5  2  0
  6  5  1  0
  7  6  1  0
  8  7  2  0
  9  8  1  0
 10  9  2  0
 10 11  1  0
 11 12  2  0
 12  7  1  0
 12  4  1  0
 13 14  2  0
 16 15  1  0
 17 16  1  0
 17 19  1  0
 17 18  1  1
 19 21  1  0
 19 20  1  6
 20 13  1  0
 21 22  2  0
 23 21  1  0
 23 24  1  0
 24 28  1  0
 24 25  1  1
 26 25  1  0
 26 27  2  0
 28 31  2  0
 28 29  1  0
 30 26  1  0
M  END
$$$$
