WID.pdb
     RDKit          3D

 31 32  0  0  1  0  0  0  0  0999 V2000
   29.4220  -23.4014  -16.6941 N   0  0  0  0  0  0  0  0  0  0  0  0
   27.9827  -23.5815  -16.7439 C   0  0  1  0  0  0  0  0  0  0  0  0
   27.5422  -24.8096  -15.9762 C   0  0  0  0  0  0  0  0  0  0  0  0
   27.9789  -26.0606  -16.6237 C   0  0  0  0  0  0  0  0  0  0  0  0
   28.9173  -26.9399  -16.1374 C   0  0  0  0  0  0  0  0  0  0  0  0
   29.0068  -27.9314  -17.0327 N   0  0  0  0  0  0  0  0  0  0  0  0
   28.1603  -27.7140  -18.0689 C   0  0  0  0  0  0  0  0  0  0  0  0
   27.8946  -28.4240  -19.2022 C   0  0  0  0  0  0  0  0  0  0  0  0
   26.9470  -27.9124  -20.0849 C   0  0  0  0  0  0  0  0  0  0  0  0
   26.2925  -26.7360  -19.8398 C   0  0  0  0  0  0  0  0  0  0  0  0
   26.5594  -26.0202  -18.6982 C   0  0  0  0  0  0  0  0  0  0  0  0
   27.5101  -26.5329  -17.8125 C   0  0  0  0  0  0  0  0  0  0  0  0
   27.3737  -22.4027  -16.0604 C   0  0  0  0  0  0  0  0  0  0  0  0
   27.7947  -22.1818  -14.8783 O   0  0  0  0  0  0  0  0  0  0  0  0
   28.0658  -17.6252  -17.2510 C   0  0  0  0  0  0  0  0  0  0  0  0
   27.7726  -18.9636  -16.6390 C   0  0  0  0  0  0  0  0  0  0  0  0
   26.2983  -19.1300  -16.4892 C   0  0  2  0  0  0  0  0  0  0  0  0
   25.7894  -17.9774  -15.6277 C   0  0  0  0  0  0  0  0  0  0  0  0
   25.9055  -20.4389  -15.8750 C   0  0  2  0  0  0  0  0  0  0  0  0
   26.4071  -21.5683  -16.6285 N   0  0  0  0  0  0  0  0  0  0  0  0
   24.4198  -20.5398  -15.7010 C   0  0  0  0  0  0  0  0  0  0  0  0
   23.7335  -20.9188  -16.6661 O   0  0  0  0  0  0  0  0  0  0  0  0
   23.7991  -20.2178  -14.4866 N   0  0  0  0  0  0  0  0  0  0  0  0
   22.3489  -20.4365  -14.3610 C   0  0  1  0  0  0  0  0  0  0  0  0
   22.0130  -20.8250  -12.9613 C   0  0  0  0  0  0  0  0  0  0  0  0
   20.5785  -20.9861  -12.7302 C   0  0  0  0  0  0  0  0  0  0  0  0
   19.6663  -20.8062  -13.5475 O   0  0  0  0  0  0  0  0  0  0  0  0
   21.6526  -19.2060  -14.8113 C   0  0  0  0  0  0  0  0  0  0  0  0
   20.5138  -19.2232  -15.5654 O   0  0  0  0  0  0  0  0  0  0  0  0
   20.1633  -21.3940  -11.4316 O   0  0  0  0  0  0  0  0  0  0  0  0
   22.1120  -18.0791  -14.4979 O   0  0  0  0  0  0  0  0  0  0  0  0
  2 13  1  0
  2  3  1  0
  2  1  1  1
  4  3  1  0
  4  5  2  0
  6  5  1  0
  7  6  1  0
  8  7  2  0
  9  8  1  0
 10  9  2  0
 10 11  1  0
 11 12  2  0
 12  7  1  0
 12  4  1  0
 13 14  2  0
 16 15  1  0
 17 16  1  0
 17 19  1  0
 17 18  1  1
 19 21  1  0
 19 20  1  6
 20 13  1  0
 21 22  2  0
 23 21  1  0
 23 24  1  0
 24 28  1  0
 24 25  1  1
 26 25  1  0
 26 27  2  0
 28 31  2  0
 28 29  1  0
 30 26  1  0
M  END
$$$$
