WID.pdb
     RDKit          3D

 31 32  0  0  1  0  0  0  0  0999 V2000
   28.1716  -21.4014  -15.3729 N   0  0  0  0  0  0  0  0  0  0  0  0
   27.4401  -20.3667  -14.6650 C   0  0  1  0  0  0  0  0  0  0  0  0
   26.4617  -19.6494  -15.5706 C   0  0  0  0  0  0  0  0  0  0  0  0
   27.1197  -18.6309  -16.4099 C   0  0  0  0  0  0  0  0  0  0  0  0
   27.6477  -18.8317  -17.6633 C   0  0  0  0  0  0  0  0  0  0  0  0
   28.1422  -17.6522  -18.0592 N   0  0  0  0  0  0  0  0  0  0  0  0
   27.9478  -16.7104  -17.1037 C   0  0  0  0  0  0  0  0  0  0  0  0
   28.2681  -15.3866  -17.0404 C   0  0  0  0  0  0  0  0  0  0  0  0
   27.9198  -14.6860  -15.8888 C   0  0  0  0  0  0  0  0  0  0  0  0
   27.2759  -15.2896  -14.8430 C   0  0  0  0  0  0  0  0  0  0  0  0
   26.9526  -16.6232  -14.9060 C   0  0  0  0  0  0  0  0  0  0  0  0
   27.3021  -17.3265  -16.0612 C   0  0  0  0  0  0  0  0  0  0  0  0
   26.6334  -21.0490  -13.6109 C   0  0  0  0  0  0  0  0  0  0  0  0
   26.2570  -22.2328  -13.8949 O   0  0  0  0  0  0  0  0  0  0  0  0
   27.0871  -20.3457   -8.1805 C   0  0  0  0  0  0  0  0  0  0  0  0
   26.9611  -20.9781   -9.5355 C   0  0  0  0  0  0  0  0  0  0  0  0
   25.5821  -20.7607  -10.0597 C   0  0  2  0  0  0  0  0  0  0  0  0
   24.6199  -21.5314   -9.1598 C   0  0  0  0  0  0  0  0  0  0  0  0
   25.4099  -21.1959  -11.4829 C   0  0  2  0  0  0  0  0  0  0  0  0
   26.2860  -20.4775  -12.3837 N   0  0  0  0  0  0  0  0  0  0  0  0
   23.9830  -21.0725  -11.9260 C   0  0  0  0  0  0  0  0  0  0  0  0
   23.1222  -21.7646  -11.3550 O   0  0  0  0  0  0  0  0  0  0  0  0
   23.6074  -20.2034  -12.9590 N   0  0  0  0  0  0  0  0  0  0  0  0
   22.1758  -20.0649  -13.2728 C   0  0  1  0  0  0  0  0  0  0  0  0
   21.9436  -18.8092  -14.0423 C   0  0  0  0  0  0  0  0  0  0  0  0
   20.5709  -18.6678  -14.5251 C   0  0  0  0  0  0  0  0  0  0  0  0
   19.5315  -18.9273  -13.9049 O   0  0  0  0  0  0  0  0  0  0  0  0
   21.7384  -21.2850  -13.9952 C   0  0  0  0  0  0  0  0  0  0  0  0
   20.5277  -21.8834  -13.7899 O   0  0  0  0  0  0  0  0  0  0  0  0
   20.3864  -18.1797  -15.8490 O   0  0  0  0  0  0  0  0  0  0  0  0
   22.4998  -21.8148  -14.8429 O   0  0  0  0  0  0  0  0  0  0  0  0
  2 13  1  0
  2  3  1  0
  2  1  1  6
  4  3  1  0
  4  5  2  0
  6  5  1  0
  7  6  1  0
  8  7  2  0
  9  8  1  0
 10  9  2  0
 10 11  1  0
 11 12  2  0
 12  7  1  0
 12  4  1  0
 13 14  2  0
 16 15  1  0
 17 16  1  0
 17 19  1  0
 17 18  1  1
 19 21  1  0
 19 20  1  6
 20 13  1  0
 21 22  2  0
 23 21  1  0
 23 24  1  0
 24 28  1  0
 24 25  1  6
 26 25  1  0
 26 27  2  0
 28 31  2  0
 28 29  1  0
 30 26  1  0
M  END
$$$$
