WID.pdb
     RDKit          3D

 31 32  0  0  1  0  0  0  0  0999 V2000
   29.5979  -33.4297  -21.5202 N   0  0  0  0  0  0  0  0  0  0  0  0
   28.6092  -32.4081  -21.2277 C   0  0  1  0  0  0  0  0  0  0  0  0
   27.2796  -32.7065  -21.8872 C   0  0  0  0  0  0  0  0  0  0  0  0
   27.2793  -32.3699  -23.3230 C   0  0  0  0  0  0  0  0  0  0  0  0
   27.9638  -33.0365  -24.3116 C   0  0  0  0  0  0  0  0  0  0  0  0
   27.6853  -32.4032  -25.4579 N   0  0  0  0  0  0  0  0  0  0  0  0
   26.8497  -31.3596  -25.2335 C   0  0  0  0  0  0  0  0  0  0  0  0
   26.2926  -30.4339  -26.0653 C   0  0  0  0  0  0  0  0  0  0  0  0
   25.4587  -29.4708  -25.5035 C   0  0  0  0  0  0  0  0  0  0  0  0
   25.1946  -29.4382  -24.1612 C   0  0  0  0  0  0  0  0  0  0  0  0
   25.7552  -30.3706  -23.3226 C   0  0  0  0  0  0  0  0  0  0  0  0
   26.5920  -31.3369  -23.8858 C   0  0  0  0  0  0  0  0  0  0  0  0
   28.3771  -32.4378  -19.7537 C   0  0  0  0  0  0  0  0  0  0  0  0
   28.5408  -33.5736  -19.1999 O   0  0  0  0  0  0  0  0  0  0  0  0
   28.5472  -27.9740  -16.4146 C   0  0  0  0  0  0  0  0  0  0  0  0
   28.8096  -29.3137  -17.0376 C   0  0  0  0  0  0  0  0  0  0  0  0
   27.6137  -30.1870  -16.8616 C   0  0  2  0  0  0  0  0  0  0  0  0
   27.4323  -30.4244  -15.3648 C   0  0  0  0  0  0  0  0  0  0  0  0
   27.7230  -31.4988  -17.5772 C   0  0  2  0  0  0  0  0  0  0  0  0
   28.0048  -31.3302  -18.9869 N   0  0  0  0  0  0  0  0  0  0  0  0
   26.4939  -32.3347  -17.3820 C   0  0  0  0  0  0  0  0  0  0  0  0
   25.5121  -32.1270  -18.1162 O   0  0  0  0  0  0  0  0  0  0  0  0
   26.4324  -33.3319  -16.3994 N   0  0  0  0  0  0  0  0  0  0  0  0
   25.1964  -34.1224  -16.2795 C   0  0  1  0  0  0  0  0  0  0  0  0
   24.8419  -34.7146  -17.6011 C   0  0  0  0  0  0  0  0  0  0  0  0
   23.7465  -35.6803  -17.5312 C   0  0  0  0  0  0  0  0  0  0  0  0
   23.3952  -36.4750  -18.4129 O   0  0  0  0  0  0  0  0  0  0  0  0
   25.3958  -35.1380  -15.2162 C   0  0  0  0  0  0  0  0  0  0  0  0
   26.5892  -35.3325  -14.5806 O   0  0  0  0  0  0  0  0  0  0  0  0
   22.9889  -35.7296  -16.3276 O   0  0  0  0  0  0  0  0  0  0  0  0
   24.4363  -35.8690  -14.8638 O   0  0  0  0  0  0  0  0  0  0  0  0
  2 13  1  0
  2  3  1  0
  2  1  1  1
  4  3  1  0
  4  5  2  0
  6  5  1  0
  7  6  1  0
  8  7  2  0
  9  8  1  0
 10  9  2  0
 10 11  1  0
 11 12  2  0
 12  7  1  0
 12  4  1  0
 13 14  2  0
 16 15  1  0
 17 16  1  0
 17 19  1  0
 17 18  1  1
 19 21  1  0
 19 20  1  6
 20 13  1  0
 21 22  2  0
 23 21  1  0
 23 24  1  0
 24 28  1  0
 24 25  1  6
 26 25  1  0
 26 27  2  0
 28 31  2  0
 28 29  1  0
 30 26  1  0
M  END
$$$$
