GAA.pdb
     RDKit          3D

 15 14  0  0  1  0  0  0  0  0999 V2000
   18.6107  -12.4971  -16.0985 N   0  0  0  0  0  0  0  0  0  0  0  0
   17.9898  -11.5015  -15.2772 C   0  0  0  0  0  0  0  0  0  0  0  0
   18.5581  -10.1580  -15.5009 C   0  0  0  0  0  0  0  0  0  0  0  0
   19.5516   -9.9384  -16.2620 O   0  0  0  0  0  0  0  0  0  0  0  0
   17.4129   -6.6602  -14.5945 C   0  0  0  0  0  0  0  0  0  0  0  0
   18.4224   -7.6929  -15.0798 C   0  0  2  0  0  0  0  0  0  0  0  0
   17.9977   -9.0310  -14.8542 N   0  0  0  0  0  0  0  0  0  0  0  0
   19.7224   -7.3582  -14.4582 C   0  0  0  0  0  0  0  0  0  0  0  0
   19.9858   -7.8056  -13.3156 O   0  0  0  0  0  0  0  0  0  0  0  0
   23.0255   -5.8466  -15.4995 C   0  0  0  0  0  0  0  0  0  0  0  0
   22.0223   -6.3070  -14.4642 C   0  0  2  0  0  0  0  0  0  0  0  0
   20.7210   -6.5538  -15.0606 N   0  0  0  0  0  0  0  0  0  0  0  0
   21.8506   -5.2001  -13.4960 C   0  0  0  0  0  0  0  0  0  0  0  0
   20.8426   -4.4667  -13.6069 O   0  0  0  0  0  0  0  0  0  0  0  0
   22.7442   -4.9347  -12.4771 O   0  0  0  0  0  0  0  0  0  0  0  0
  2  3  1  0
  2  1  1  0
  3  7  1  0
  4  3  2  0
  6  5  1  1
  7  6  1  0
  8  6  1  0
  8 12  1  0
  9  8  2  0
 11 10  1  6
 11 12  1  0
 11 13  1  0
 13 15  1  0
 14 13  2  0
M  END
$$$$
