GAA.pdb
     RDKit          3D

 15 14  0  0  1  0  0  0  0  0999 V2000
   21.3840  -14.6457  -18.5618 N   0  0  0  0  0  0  0  0  0  0  0  0
   21.9160  -13.3198  -18.6618 C   0  0  0  0  0  0  0  0  0  0  0  0
   21.5584  -12.4845  -17.4987 C   0  0  0  0  0  0  0  0  0  0  0  0
   20.3597  -12.2680  -17.1372 O   0  0  0  0  0  0  0  0  0  0  0  0
   23.5490  -10.8370  -14.7218 C   0  0  0  0  0  0  0  0  0  0  0  0
   22.3176  -11.0464  -15.5940 C   0  0  2  0  0  0  0  0  0  0  0  0
   22.5716  -11.8759  -16.7206 N   0  0  0  0  0  0  0  0  0  0  0  0
   21.7918   -9.7066  -15.9359 C   0  0  0  0  0  0  0  0  0  0  0  0
   22.3153   -9.0684  -16.8813 O   0  0  0  0  0  0  0  0  0  0  0  0
   18.7111   -7.6662  -15.3746 C   0  0  0  0  0  0  0  0  0  0  0  0
   20.1961   -7.7661  -15.6484 C   0  0  2  0  0  0  0  0  0  0  0  0
   20.7186   -9.0669  -15.2678 N   0  0  0  0  0  0  0  0  0  0  0  0
   20.8692   -6.7631  -14.7921 C   0  0  0  0  0  0  0  0  0  0  0  0
   21.5435   -7.1708  -13.8198 O   0  0  0  0  0  0  0  0  0  0  0  0
   20.7920   -5.4016  -15.0101 O   0  0  0  0  0  0  0  0  0  0  0  0
  2  3  1  0
  2  1  1  0
  3  7  1  0
  4  3  2  0
  6  5  1  6
  7  6  1  0
  8  6  1  0
  8 12  1  0
  9  8  2  0
 11 10  1  1
 11 12  1  0
 11 13  1  0
 13 15  1  0
 14 13  2  0
M  END
$$$$
