GAA.pdb
     RDKit          3D

 15 14  0  0  1  0  0  0  0  0999 V2000
   15.1789  -13.3105  -15.0837 N   0  0  0  0  0  0  0  0  0  0  0  0
   15.4534  -11.9531  -15.4484 C   0  0  0  0  0  0  0  0  0  0  0  0
   16.8795  -11.7348  -15.7593 C   0  0  0  0  0  0  0  0  0  0  0  0
   17.8044  -12.5189  -15.3794 O   0  0  0  0  0  0  0  0  0  0  0  0
   18.7831   -9.2746  -17.9269 C   0  0  0  0  0  0  0  0  0  0  0  0
   18.6343  -10.2707  -16.7838 C   0  0  2  0  0  0  0  0  0  0  0  0
   17.2791  -10.6079  -16.5161 N   0  0  0  0  0  0  0  0  0  0  0  0
   19.3596   -9.7130  -15.6215 C   0  0  0  0  0  0  0  0  0  0  0  0
   18.7298   -9.0246  -14.7820 O   0  0  0  0  0  0  0  0  0  0  0  0
   22.8111   -9.9603  -14.0595 C   0  0  0  0  0  0  0  0  0  0  0  0
   21.4196   -9.3806  -14.1930 C   0  0  2  0  0  0  0  0  0  0  0  0
   20.7418   -9.8956  -15.3701 N   0  0  0  0  0  0  0  0  0  0  0  0
   21.5687   -7.9201  -14.3852 C   0  0  0  0  0  0  0  0  0  0  0  0
   21.5027   -7.4656  -15.5494 O   0  0  0  0  0  0  0  0  0  0  0  0
   21.7766   -7.0331  -13.3471 O   0  0  0  0  0  0  0  0  0  0  0  0
  2  3  1  0
  2  1  1  0
  3  7  1  0
  4  3  2  0
  6  5  1  6
  7  6  1  0
  8  6  1  0
  8 12  1  0
  9  8  2  0
 11 10  1  6
 11 12  1  0
 11 13  1  0
 13 15  1  0
 14 13  2  0
M  END
$$$$
