GAA.pdb
     RDKit          3D

 15 14  0  0  1  0  0  0  0  0999 V2000
   15.4639   -8.8455  -16.0178 N   0  0  0  0  0  0  0  0  0  0  0  0
   15.8069   -7.5537  -16.5323 C   0  0  0  0  0  0  0  0  0  0  0  0
   17.2395   -7.2445  -16.3578 C   0  0  0  0  0  0  0  0  0  0  0  0
   17.9943   -7.8681  -15.5479 O   0  0  0  0  0  0  0  0  0  0  0  0
   19.6624   -4.9655  -18.1918 C   0  0  0  0  0  0  0  0  0  0  0  0
   19.2285   -5.8989  -17.0687 C   0  0  2  0  0  0  0  0  0  0  0  0
   17.8414   -6.2089  -17.1111 N   0  0  0  0  0  0  0  0  0  0  0  0
   19.6730   -5.2878  -15.7970 C   0  0  0  0  0  0  0  0  0  0  0  0
   18.9041   -4.4969  -15.1983 O   0  0  0  0  0  0  0  0  0  0  0  0
   22.3141   -5.9102  -13.1992 C   0  0  0  0  0  0  0  0  0  0  0  0
   21.2870   -5.0227  -13.8684 C   0  0  2  0  0  0  0  0  0  0  0  0
   20.9268   -5.5270  -15.1822 N   0  0  0  0  0  0  0  0  0  0  0  0
   21.9167   -3.6983  -14.0721 C   0  0  0  0  0  0  0  0  0  0  0  0
   22.2161   -3.3574  -15.2385 O   0  0  0  0  0  0  0  0  0  0  0  0
   22.1910   -2.8195  -13.0426 O   0  0  0  0  0  0  0  0  0  0  0  0
  2  3  1  0
  2  1  1  0
  3  7  1  0
  4  3  2  0
  6  5  1  6
  7  6  1  0
  8  6  1  0
  8 12  1  0
  9  8  2  0
 11 10  1  6
 11 12  1  0
 11 13  1  0
 13 15  1  0
 14 13  2  0
M  END
$$$$
