GAA.pdb
     RDKit          3D

 15 14  0  0  1  0  0  0  0  0999 V2000
   18.4119  -12.7219  -15.6541 N   0  0  0  0  0  0  0  0  0  0  0  0
   18.0427  -11.5531  -14.9135 C   0  0  0  0  0  0  0  0  0  0  0  0
   18.6085  -10.3203  -15.4952 C   0  0  0  0  0  0  0  0  0  0  0  0
   19.5631  -10.3188  -16.3338 O   0  0  0  0  0  0  0  0  0  0  0  0
   17.5953   -6.6909  -15.5635 C   0  0  0  0  0  0  0  0  0  0  0  0
   18.6209   -7.8173  -15.5807 C   0  0  2  0  0  0  0  0  0  0  0  0
   18.0904   -9.0561  -15.1269 N   0  0  0  0  0  0  0  0  0  0  0  0
   19.7979   -7.3477  -14.8177 C   0  0  0  0  0  0  0  0  0  0  0  0
   19.8174   -7.4980  -13.5718 O   0  0  0  0  0  0  0  0  0  0  0  0
   23.2985   -6.1092  -15.5812 C   0  0  0  0  0  0  0  0  0  0  0  0
   22.1506   -6.4358  -14.6506 C   0  0  2  0  0  0  0  0  0  0  0  0
   20.9349   -6.7263  -15.3906 N   0  0  0  0  0  0  0  0  0  0  0  0
   21.8840   -5.2257  -13.8401 C   0  0  0  0  0  0  0  0  0  0  0  0
   20.9791   -4.4476  -14.2168 O   0  0  0  0  0  0  0  0  0  0  0  0
   22.5815   -4.9107  -12.6905 O   0  0  0  0  0  0  0  0  0  0  0  0
  2  3  1  0
  2  1  1  0
  3  7  1  0
  4  3  2  0
  6  5  1  1
  7  6  1  0
  8  6  1  0
  8 12  1  0
  9  8  2  0
 11 10  1  6
 11 12  1  0
 11 13  1  0
 13 15  1  0
 14 13  2  0
M  END
$$$$
