GAA.pdb
     RDKit          3D

 15 14  0  0  1  0  0  0  0  0999 V2000
   15.0792   -7.5664   -8.0400 N   0  0  0  0  0  0  0  0  0  0  0  0
   15.6808   -6.4182   -8.6490 C   0  0  0  0  0  0  0  0  0  0  0  0
   16.5006   -6.7732   -9.8238 C   0  0  0  0  0  0  0  0  0  0  0  0
   17.2445   -7.8023   -9.8704 O   0  0  0  0  0  0  0  0  0  0  0  0
   16.6509   -5.5572  -13.3945 C   0  0  0  0  0  0  0  0  0  0  0  0
   17.2328   -6.2257  -12.1554 C   0  0  2  0  0  0  0  0  0  0  0  0
   16.4859   -5.9528  -10.9766 N   0  0  0  0  0  0  0  0  0  0  0  0
   18.6562   -5.8312  -12.0743 C   0  0  0  0  0  0  0  0  0  0  0  0
   18.9747   -4.8341  -11.3818 O   0  0  0  0  0  0  0  0  0  0  0  0
   22.0259   -7.1844  -13.1889 C   0  0  0  0  0  0  0  0  0  0  0  0
   21.1167   -6.1484  -12.5642 C   0  0  2  0  0  0  0  0  0  0  0  0
   19.7176   -6.5023  -12.7300 N   0  0  0  0  0  0  0  0  0  0  0  0
   21.3303   -4.8784  -13.2948 C   0  0  0  0  0  0  0  0  0  0  0  0
   20.5551   -4.5988  -14.2366 O   0  0  0  0  0  0  0  0  0  0  0  0
   22.3401   -3.9864  -12.9914 O   0  0  0  0  0  0  0  0  0  0  0  0
  2  3  1  0
  2  1  1  0
  3  7  1  0
  4  3  2  0
  6  5  1  6
  7  6  1  0
  8  6  1  0
  8 12  1  0
  9  8  2  0
 11 10  1  6
 11 12  1  0
 11 13  1  0
 13 15  1  0
 14 13  2  0
M  END
$$$$
