TKM.pdb
     RDKit          3D

 25 24  0  0  1  0  0  0  0  0999 V2000
   20.8855  -15.0361  -15.2823 C   0  0  0  0  0  0  0  0  0  0  0  0
   21.4884  -15.4221  -16.5989 C   0  0  1  0  0  0  0  0  0  0  0  0
   21.3866  -16.8223  -16.7187 O   0  0  0  0  0  0  0  0  0  0  0  0
   20.7284  -14.8498  -17.7742 C   0  0  2  0  0  0  0  0  0  0  0  0
   21.3792  -15.3083  -18.9846 N   0  0  0  0  0  0  0  0  0  0  0  0
   20.7537  -13.3639  -17.7940 C   0  0  0  0  0  0  0  0  0  0  0  0
   21.7983  -12.7761  -18.1320 O   0  0  0  0  0  0  0  0  0  0  0  0
   19.6408  -12.5720  -17.4450 N   0  0  0  0  0  0  0  0  0  0  0  0
   19.6513  -11.1129  -17.3967 C   0  0  1  0  0  0  0  0  0  0  0  0
   18.2527  -10.6048  -17.3909 C   0  0  0  0  0  0  0  0  0  0  0  0
   17.4575  -10.7669  -18.6311 C   0  0  0  0  0  0  0  0  0  0  0  0
   16.0690  -10.1684  -18.3039 C   0  0  0  0  0  0  0  0  0  0  0  0
   15.1967  -10.1857  -19.5369 C   0  0  0  0  0  0  0  0  0  0  0  0
   13.9287   -9.5831  -19.1753 N   0  0  0  0  0  0  0  0  0  0  0  0
   20.4923  -10.7210  -16.2541 C   0  0  0  0  0  0  0  0  0  0  0  0
   20.2367  -11.1908  -15.1265 O   0  0  0  0  0  0  0  0  0  0  0  0
   27.7368  -10.6135  -14.2241 C   0  0  0  0  0  0  0  0  0  0  0  0
   26.5193  -10.2341  -15.5344 S   0  0  0  0  0  0  0  0  0  0  0  0
   24.9302   -9.9786  -14.8404 C   0  0  0  0  0  0  0  0  0  0  0  0
   23.8102   -9.6670  -15.7305 C   0  0  0  0  0  0  0  0  0  0  0  0
   22.4517   -9.3794  -15.2987 C   0  0  2  0  0  0  0  0  0  0  0  0
   21.5615   -9.8398  -16.4334 N   0  0  0  0  0  0  0  0  0  0  0  0
   22.0991   -7.8967  -15.2283 C   0  0  0  0  0  0  0  0  0  0  0  0
   22.1530   -7.3324  -14.0655 O   0  0  0  0  0  0  0  0  0  0  0  0
   21.7289   -7.0897  -16.2391 O   0  0  0  0  0  0  0  0  0  0  0  0
  2  1  1  1
  3  2  1  0
  4  6  1  0
  4  2  1  0
  4  5  1  6
  6  7  2  0
  8  9  1  0
  8  6  1  0
 10 11  1  0
  9 10  1  1
 11 12  1  0
 12 13  1  0
 14 13  1  0
 15  9  1  0
 16 15  2  0
 17 18  1  0
 19 18  1  0
 20 19  1  0
 21 20  1  6
 21 22  1  0
 21 23  1  0
 22 15  1  0
 23 25  1  0
 24 23  2  0
M  END
$$$$
