TKM.pdb
     RDKit          3D

 25 24  0  0  1  0  0  0  0  0999 V2000
   25.4965  -16.9969  -14.7971 C   0  0  0  0  0  0  0  0  0  0  0  0
   24.7753  -15.7014  -15.0147 C   0  0  1  0  0  0  0  0  0  0  0  0
   25.7459  -14.7117  -15.2671 O   0  0  0  0  0  0  0  0  0  0  0  0
   23.8870  -15.7312  -16.2380 C   0  0  2  0  0  0  0  0  0  0  0  0
   24.7392  -15.9038  -17.3968 N   0  0  0  0  0  0  0  0  0  0  0  0
   23.1390  -14.4605  -16.4243 C   0  0  0  0  0  0  0  0  0  0  0  0
   23.6676  -13.5292  -17.0601 O   0  0  0  0  0  0  0  0  0  0  0  0
   21.8428  -14.2498  -15.9116 N   0  0  0  0  0  0  0  0  0  0  0  0
   21.1182  -12.9854  -15.9992 C   0  0  1  0  0  0  0  0  0  0  0  0
   19.6933  -13.2014  -15.6281 C   0  0  0  0  0  0  0  0  0  0  0  0
   18.8126  -12.0113  -15.5613 C   0  0  0  0  0  0  0  0  0  0  0  0
   17.5086  -12.4307  -16.2803 C   0  0  0  0  0  0  0  0  0  0  0  0
   16.5653  -11.2540  -16.3649 C   0  0  0  0  0  0  0  0  0  0  0  0
   15.4026  -11.6878  -17.1142 N   0  0  0  0  0  0  0  0  0  0  0  0
   21.8599  -12.0016  -15.1941 C   0  0  0  0  0  0  0  0  0  0  0  0
   22.5423  -12.4021  -14.2288 O   0  0  0  0  0  0  0  0  0  0  0  0
   27.1082  -11.2308  -15.0552 C   0  0  0  0  0  0  0  0  0  0  0  0
   26.7607   -9.5275  -15.6220 S   0  0  0  0  0  0  0  0  0  0  0  0
   25.1856   -9.0028  -15.0597 C   0  0  0  0  0  0  0  0  0  0  0  0
   24.0162   -9.8340  -15.3516 C   0  0  0  0  0  0  0  0  0  0  0  0
   22.6741   -9.6006  -14.8424 C   0  0  2  0  0  0  0  0  0  0  0  0
   21.8021  -10.6422  -15.5106 N   0  0  0  0  0  0  0  0  0  0  0  0
   22.0180   -8.3107  -15.3253 C   0  0  0  0  0  0  0  0  0  0  0  0
   21.4200   -8.3467  -16.4719 O   0  0  0  0  0  0  0  0  0  0  0  0
   21.9859   -7.1195  -14.7007 O   0  0  0  0  0  0  0  0  0  0  0  0
  2  1  1  6
  3  2  1  0
  4  6  1  0
  4  2  1  0
  4  5  1  6
  6  7  2  0
  8  9  1  0
  8  6  1  0
 10 11  1  0
  9 10  1  1
 11 12  1  0
 12 13  1  0
 14 13  1  0
 15  9  1  0
 16 15  2  0
 17 18  1  0
 19 18  1  0
 20 19  1  0
 21 20  1  6
 21 22  1  0
 21 23  1  0
 22 15  1  0
 23 25  1  0
 24 23  2  0
M  END
$$$$
