TKM.pdb
     RDKit          3D

 25 24  0  0  1  0  0  0  0  0999 V2000
   16.3914   -4.9974   -9.2886 C   0  0  0  0  0  0  0  0  0  0  0  0
   15.8188   -6.0968   -8.4463 C   0  0  1  0  0  0  0  0  0  0  0  0
   14.9347   -5.5069   -7.5213 O   0  0  0  0  0  0  0  0  0  0  0  0
   14.9870   -7.0698   -9.2511 C   0  0  2  0  0  0  0  0  0  0  0  0
   14.5216   -8.1028   -8.3482 N   0  0  0  0  0  0  0  0  0  0  0  0
   15.7753   -7.7382  -10.3192 C   0  0  0  0  0  0  0  0  0  0  0  0
   16.4104   -8.7751  -10.0503 O   0  0  0  0  0  0  0  0  0  0  0  0
   15.8433   -7.2533  -11.6412 N   0  0  0  0  0  0  0  0  0  0  0  0
   16.4914   -7.9572  -12.7440 C   0  0  1  0  0  0  0  0  0  0  0  0
   15.5407   -8.0823  -13.8820 C   0  0  0  0  0  0  0  0  0  0  0  0
   14.5100   -9.1443  -13.8028 C   0  0  0  0  0  0  0  0  0  0  0  0
   13.6439   -8.9645  -15.0719 C   0  0  0  0  0  0  0  0  0  0  0  0
   12.5437   -9.9992  -15.0960 C   0  0  0  0  0  0  0  0  0  0  0  0
   11.7929   -9.8004  -16.3201 N   0  0  0  0  0  0  0  0  0  0  0  0
   17.7557   -7.2577  -13.0242 C   0  0  0  0  0  0  0  0  0  0  0  0
   17.8111   -6.0215  -12.8616 O   0  0  0  0  0  0  0  0  0  0  0  0
   23.2576  -10.7582  -12.7784 C   0  0  0  0  0  0  0  0  0  0  0  0
   23.5979   -9.6859  -14.2198 S   0  0  0  0  0  0  0  0  0  0  0  0
   22.5847   -8.2564  -14.1742 C   0  0  0  0  0  0  0  0  0  0  0  0
   21.1589   -8.4078  -13.8782 C   0  0  0  0  0  0  0  0  0  0  0  0
   20.2075   -7.3146  -13.7570 C   0  0  2  0  0  0  0  0  0  0  0  0
   18.8752   -7.9698  -13.4613 N   0  0  0  0  0  0  0  0  0  0  0  0
   19.8963   -6.5849  -15.0601 C   0  0  0  0  0  0  0  0  0  0  0  0
   20.6059   -5.5385  -15.3340 O   0  0  0  0  0  0  0  0  0  0  0  0
   18.9583   -6.8950  -15.9735 O   0  0  0  0  0  0  0  0  0  0  0  0
  2  1  1  6
  3  2  1  0
  4  6  1  0
  4  2  1  0
  4  5  1  1
  6  7  2  0
  8  9  1  0
  8  6  1  0
 10 11  1  0
  9 10  1  6
 11 12  1  0
 12 13  1  0
 14 13  1  0
 15  9  1  0
 16 15  2  0
 17 18  1  0
 19 18  1  0
 20 19  1  0
 21 20  1  6
 21 22  1  0
 21 23  1  0
 22 15  1  0
 23 25  1  0
 24 23  2  0
M  END
$$$$
