TKM.pdb
     RDKit          3D

 25 24  0  0  1  0  0  0  0  0999 V2000
   29.5114  -18.9223  -17.5277 C   0  0  0  0  0  0  0  0  0  0  0  0
   29.6070  -18.8946  -19.0230 C   0  0  1  0  0  0  0  0  0  0  0  0
   30.7123  -18.0899  -19.3634 O   0  0  0  0  0  0  0  0  0  0  0  0
   29.8915  -20.2585  -19.6107 C   0  0  2  0  0  0  0  0  0  0  0  0
   29.9779  -20.1087  -21.0491 N   0  0  0  0  0  0  0  0  0  0  0  0
   28.8036  -21.2320  -19.3319 C   0  0  0  0  0  0  0  0  0  0  0  0
   27.7567  -21.1859  -20.0047 O   0  0  0  0  0  0  0  0  0  0  0  0
   28.8952  -22.2202  -18.3306 N   0  0  0  0  0  0  0  0  0  0  0  0
   27.7984  -23.1015  -17.9409 C   0  0  1  0  0  0  0  0  0  0  0  0
   28.3468  -24.4088  -17.4886 C   0  0  0  0  0  0  0  0  0  0  0  0
   27.3796  -25.4634  -17.1029 C   0  0  0  0  0  0  0  0  0  0  0  0
   28.2448  -26.6890  -16.7252 C   0  0  0  0  0  0  0  0  0  0  0  0
   27.3571  -27.8736  -16.4245 C   0  0  0  0  0  0  0  0  0  0  0  0
   28.2231  -29.0158  -16.2071 N   0  0  0  0  0  0  0  0  0  0  0  0
   26.9749  -22.3675  -16.9666 C   0  0  0  0  0  0  0  0  0  0  0  0
   27.4994  -21.9800  -15.9025 O   0  0  0  0  0  0  0  0  0  0  0  0
   26.5183  -16.7638  -14.8228 C   0  0  0  0  0  0  0  0  0  0  0  0
   26.4246  -18.4507  -15.5220 S   0  0  0  0  0  0  0  0  0  0  0  0
   24.8956  -18.6901  -16.3448 C   0  0  0  0  0  0  0  0  0  0  0  0
   24.6253  -19.9838  -16.9749 C   0  0  0  0  0  0  0  0  0  0  0  0
   24.7510  -21.2768  -16.3213 C   0  0  2  0  0  0  0  0  0  0  0  0
   25.6287  -22.1067  -17.2338 N   0  0  0  0  0  0  0  0  0  0  0  0
   23.4748  -22.1124  -16.2970 C   0  0  0  0  0  0  0  0  0  0  0  0
   23.2696  -22.9047  -17.2989 O   0  0  0  0  0  0  0  0  0  0  0  0
   22.5177  -22.1263  -15.3515 O   0  0  0  0  0  0  0  0  0  0  0  0
  2  1  1  1
  3  2  1  0
  4  6  1  0
  4  2  1  0
  4  5  1  6
  6  7  2  0
  8  9  1  0
  8  6  1  0
 10 11  1  0
  9 10  1  1
 11 12  1  0
 12 13  1  0
 14 13  1  0
 15  9  1  0
 16 15  2  0
 17 18  1  0
 19 18  1  0
 20 19  1  0
 21 20  1  6
 21 22  1  0
 21 23  1  0
 22 15  1  0
 23 25  1  0
 24 23  2  0
M  END
$$$$
