TKM.pdb
     RDKit          3D

 25 24  0  0  1  0  0  0  0  0999 V2000
   22.3029  -17.3102  -18.3294 C   0  0  0  0  0  0  0  0  0  0  0  0
   22.9781  -18.1168  -17.2619 C   0  0  1  0  0  0  0  0  0  0  0  0
   21.9934  -18.9123  -16.6434 O   0  0  0  0  0  0  0  0  0  0  0  0
   23.9977  -19.0822  -17.8230 C   0  0  2  0  0  0  0  0  0  0  0  0
   23.2907  -20.0355  -18.6538 N   0  0  0  0  0  0  0  0  0  0  0  0
   24.6920  -19.8527  -16.7584 C   0  0  0  0  0  0  0  0  0  0  0  0
   24.1731  -20.8987  -16.3256 O   0  0  0  0  0  0  0  0  0  0  0  0
   25.9259  -19.4561  -16.2038 N   0  0  0  0  0  0  0  0  0  0  0  0
   26.6523  -20.2113  -15.1872 C   0  0  1  0  0  0  0  0  0  0  0  0
   28.1165  -20.0557  -15.4029 C   0  0  0  0  0  0  0  0  0  0  0  0
   28.6920  -20.6211  -16.6461 C   0  0  0  0  0  0  0  0  0  0  0  0
   29.1320  -22.0565  -16.2732 C   0  0  0  0  0  0  0  0  0  0  0  0
   29.7364  -22.7395  -17.4773 C   0  0  0  0  0  0  0  0  0  0  0  0
   30.2678  -24.0116  -17.0287 N   0  0  0  0  0  0  0  0  0  0  0  0
   26.1371  -19.7844  -13.8763 C   0  0  0  0  0  0  0  0  0  0  0  0
   25.7116  -18.6185  -13.7449 O   0  0  0  0  0  0  0  0  0  0  0  0
   21.1703  -19.2378  -13.2328 C   0  0  0  0  0  0  0  0  0  0  0  0
   21.2136  -20.0973  -11.6195 S   0  0  0  0  0  0  0  0  0  0  0  0
   22.8456  -20.1217  -10.9806 C   0  0  0  0  0  0  0  0  0  0  0  0
   23.9602  -20.3804  -11.8941 C   0  0  0  0  0  0  0  0  0  0  0  0
   25.3644  -20.4059  -11.5166 C   0  0  2  0  0  0  0  0  0  0  0  0
   26.1224  -20.6740  -12.7993 N   0  0  0  0  0  0  0  0  0  0  0  0
   25.7814  -21.6043  -10.6698 C   0  0  0  0  0  0  0  0  0  0  0  0
   25.9974  -22.7185  -11.2906 O   0  0  0  0  0  0  0  0  0  0  0  0
   25.9515  -21.6506   -9.3359 O   0  0  0  0  0  0  0  0  0  0  0  0
  2  1  1  6
  3  2  1  0
  4  6  1  0
  4  2  1  0
  4  5  1  6
  6  7  2  0
  8  9  1  0
  8  6  1  0
 10 11  1  0
  9 10  1  1
 11 12  1  0
 12 13  1  0
 14 13  1  0
 15  9  1  0
 16 15  2  0
 17 18  1  0
 19 18  1  0
 20 19  1  0
 21 20  1  6
 21 22  1  0
 21 23  1  0
 22 15  1  0
 23 25  1  0
 24 23  2  0
M  END
$$$$
