TKM.pdb
     RDKit          3D

 25 24  0  0  1  0  0  0  0  0999 V2000
   27.2223  -11.0102  -16.8505 C   0  0  0  0  0  0  0  0  0  0  0  0
   26.7495  -11.9955  -15.8251 C   0  0  1  0  0  0  0  0  0  0  0  0
   26.5831  -11.2992  -14.6116 O   0  0  0  0  0  0  0  0  0  0  0  0
   25.3931  -12.5740  -16.1597 C   0  0  2  0  0  0  0  0  0  0  0  0
   25.5321  -13.3465  -17.3774 N   0  0  0  0  0  0  0  0  0  0  0  0
   24.3774  -11.5201  -16.4178 C   0  0  0  0  0  0  0  0  0  0  0  0
   24.4476  -10.8487  -17.4643 O   0  0  0  0  0  0  0  0  0  0  0  0
   23.3222  -11.2356  -15.5272 N   0  0  0  0  0  0  0  0  0  0  0  0
   22.2979  -10.2220  -15.7614 C   0  0  1  0  0  0  0  0  0  0  0  0
   20.9844  -10.7186  -15.2689 C   0  0  0  0  0  0  0  0  0  0  0  0
   19.9505  -11.0452  -16.2793 C   0  0  0  0  0  0  0  0  0  0  0  0
   18.7263  -11.5277  -15.4658 C   0  0  0  0  0  0  0  0  0  0  0  0
   17.5661  -11.8012  -16.3936 C   0  0  0  0  0  0  0  0  0  0  0  0
   16.4455  -12.2132  -15.5712 N   0  0  0  0  0  0  0  0  0  0  0  0
   22.7844   -8.9660  -15.1682 C   0  0  0  0  0  0  0  0  0  0  0  0
   23.4703   -9.0155  -14.1267 O   0  0  0  0  0  0  0  0  0  0  0  0
   25.3554   -2.1005  -17.8677 C   0  0  0  0  0  0  0  0  0  0  0  0
   24.8330   -3.8448  -18.0337 S   0  0  0  0  0  0  0  0  0  0  0  0
   24.1482   -4.4264  -16.5287 C   0  0  0  0  0  0  0  0  0  0  0  0
   23.6103   -5.7870  -16.4743 C   0  0  0  0  0  0  0  0  0  0  0  0
   23.0612   -6.4242  -15.2879 C   0  0  2  0  0  0  0  0  0  0  0  0
   22.4847   -7.7396  -15.7664 N   0  0  0  0  0  0  0  0  0  0  0  0
   21.8207   -5.7493  -14.7107 C   0  0  0  0  0  0  0  0  0  0  0  0
   20.6750   -6.1147  -15.1874 O   0  0  0  0  0  0  0  0  0  0  0  0
   21.7674   -4.8032  -13.7556 O   0  0  0  0  0  0  0  0  0  0  0  0
  2  1  1  6
  3  2  1  0
  4  6  1  0
  4  2  1  0
  4  5  1  6
  6  7  2  0
  8  9  1  0
  8  6  1  0
 10 11  1  0
  9 10  1  1
 11 12  1  0
 12 13  1  0
 14 13  1  0
 15  9  1  0
 16 15  2  0
 17 18  1  0
 19 18  1  0
 20 19  1  0
 21 20  1  6
 21 22  1  0
 21 23  1  0
 22 15  1  0
 23 25  1  0
 24 23  2  0
M  END
$$$$
