TKM.pdb
     RDKit          3D

 25 24  0  0  1  0  0  0  0  0999 V2000
   23.4175  -10.1079  -14.6237 C   0  0  0  0  0  0  0  0  0  0  0  0
   23.3715  -10.8025  -15.9508 C   0  0  1  0  0  0  0  0  0  0  0  0
   24.2630  -11.8919  -15.8915 O   0  0  0  0  0  0  0  0  0  0  0  0
   22.0125  -11.3956  -16.2474 C   0  0  2  0  0  0  0  0  0  0  0  0
   22.1070  -12.1046  -17.5073 N   0  0  0  0  0  0  0  0  0  0  0  0
   20.9634  -10.3544  -16.4034 C   0  0  0  0  0  0  0  0  0  0  0  0
   21.0285   -9.5617  -17.3617 O   0  0  0  0  0  0  0  0  0  0  0  0
   19.8817  -10.2141  -15.5103 N   0  0  0  0  0  0  0  0  0  0  0  0
   18.8909   -9.1440  -15.5789 C   0  0  1  0  0  0  0  0  0  0  0  0
   17.5848   -9.6413  -15.0677 C   0  0  0  0  0  0  0  0  0  0  0  0
   16.7817  -10.5080  -15.9622 C   0  0  0  0  0  0  0  0  0  0  0  0
   15.5047  -10.8485  -15.1581 C   0  0  0  0  0  0  0  0  0  0  0  0
   14.5742  -11.6892  -16.0000 C   0  0  0  0  0  0  0  0  0  0  0  0
   13.4338  -12.0291  -15.1719 N   0  0  0  0  0  0  0  0  0  0  0  0
   19.4610   -7.9774  -14.8860 C   0  0  0  0  0  0  0  0  0  0  0  0
   20.4389   -8.1430  -14.1282 O   0  0  0  0  0  0  0  0  0  0  0  0
   23.4435   -2.1570  -14.6137 C   0  0  0  0  0  0  0  0  0  0  0  0
   22.1110   -3.3656  -14.2869 S   0  0  0  0  0  0  0  0  0  0  0  0
   21.8335   -4.3696  -15.6966 C   0  0  0  0  0  0  0  0  0  0  0  0
   20.8340   -5.4367  -15.6206 C   0  0  0  0  0  0  0  0  0  0  0  0
   19.6640   -5.4290  -14.7569 C   0  0  2  0  0  0  0  0  0  0  0  0
   18.9163   -6.7055  -15.0788 N   0  0  0  0  0  0  0  0  0  0  0  0
   18.6157   -4.3761  -15.1028 C   0  0  0  0  0  0  0  0  0  0  0  0
   17.9097   -4.5747  -16.1686 O   0  0  0  0  0  0  0  0  0  0  0  0
   18.3308   -3.2460  -14.4305 O   0  0  0  0  0  0  0  0  0  0  0  0
  2  1  1  1
  3  2  1  0
  4  6  1  0
  4  2  1  0
  4  5  1  6
  6  7  2  0
  8  9  1  0
  8  6  1  0
 10 11  1  0
  9 10  1  1
 11 12  1  0
 12 13  1  0
 14 13  1  0
 15  9  1  0
 16 15  2  0
 17 18  1  0
 19 18  1  0
 20 19  1  0
 21 20  1  6
 21 22  1  0
 21 23  1  0
 22 15  1  0
 23 25  1  0
 24 23  2  0
M  END
$$$$
