TKM.pdb
     RDKit          3D

 25 24  0  0  1  0  0  0  0  0999 V2000
   22.2469  -20.6512  -11.9699 C   0  0  0  0  0  0  0  0  0  0  0  0
   22.9998  -20.5331  -10.6795 C   0  0  1  0  0  0  0  0  0  0  0  0
   22.2434  -21.1844   -9.6850 O   0  0  0  0  0  0  0  0  0  0  0  0
   24.3326  -21.2462  -10.7190 C   0  0  2  0  0  0  0  0  0  0  0  0
   24.9979  -21.0063   -9.4546 N   0  0  0  0  0  0  0  0  0  0  0  0
   25.2202  -20.7258  -11.7916 C   0  0  0  0  0  0  0  0  0  0  0  0
   25.8445  -19.6645  -11.6052 O   0  0  0  0  0  0  0  0  0  0  0  0
   25.3957  -21.3798  -13.0281 N   0  0  0  0  0  0  0  0  0  0  0  0
   26.2372  -20.8802  -14.1115 C   0  0  1  0  0  0  0  0  0  0  0  0
   26.6907  -22.0190  -14.9553 C   0  0  0  0  0  0  0  0  0  0  0  0
   27.5028  -21.7050  -16.1546 C   0  0  0  0  0  0  0  0  0  0  0  0
   27.8444  -23.0765  -16.7837 C   0  0  0  0  0  0  0  0  0  0  0  0
   28.6960  -22.8806  -18.0157 C   0  0  0  0  0  0  0  0  0  0  0  0
   29.0382  -24.1976  -18.5159 N   0  0  0  0  0  0  0  0  0  0  0  0
   25.4803  -19.8208  -14.7978 C   0  0  0  0  0  0  0  0  0  0  0  0
   24.2563  -19.9771  -14.9850 O   0  0  0  0  0  0  0  0  0  0  0  0
   26.5913  -12.1150  -16.4181 C   0  0  0  0  0  0  0  0  0  0  0  0
   27.0765  -13.6841  -15.6145 S   0  0  0  0  0  0  0  0  0  0  0  0
   25.9625  -14.9660  -16.0482 C   0  0  0  0  0  0  0  0  0  0  0  0
   26.2082  -16.3185  -15.5444 C   0  0  0  0  0  0  0  0  0  0  0  0
   25.3887  -17.4836  -15.8375 C   0  0  2  0  0  0  0  0  0  0  0  0
   26.1243  -18.6582  -15.2281 N   0  0  0  0  0  0  0  0  0  0  0  0
   25.3490  -17.8891  -17.3076 C   0  0  0  0  0  0  0  0  0  0  0  0
   26.3139  -18.6344  -17.7400 O   0  0  0  0  0  0  0  0  0  0  0  0
   24.4239  -17.5603  -18.2276 O   0  0  0  0  0  0  0  0  0  0  0  0
  2  1  1  6
  3  2  1  0
  4  6  1  0
  4  2  1  0
  4  5  1  1
  6  7  2  0
  8  9  1  0
  8  6  1  0
 10 11  1  0
  9 10  1  6
 11 12  1  0
 12 13  1  0
 14 13  1  0
 15  9  1  0
 16 15  2  0
 17 18  1  0
 19 18  1  0
 20 19  1  0
 21 20  1  6
 21 22  1  0
 21 23  1  0
 22 15  1  0
 23 25  1  0
 24 23  2  0
M  END
$$$$
