TKM.pdb
     RDKit          3D

 25 24  0  0  1  0  0  0  0  0999 V2000
   22.0555  -13.9673  -14.6735 C   0  0  0  0  0  0  0  0  0  0  0  0
   22.2261  -14.3082  -16.1228 C   0  0  1  0  0  0  0  0  0  0  0  0
   22.4670  -15.6938  -16.2081 O   0  0  0  0  0  0  0  0  0  0  0  0
   20.9718  -14.0559  -16.9288 C   0  0  2  0  0  0  0  0  0  0  0  0
   21.2456  -14.4360  -18.2997 N   0  0  0  0  0  0  0  0  0  0  0  0
   20.5842  -12.6210  -16.9365 C   0  0  0  0  0  0  0  0  0  0  0  0
   21.2643  -11.8091  -17.5915 O   0  0  0  0  0  0  0  0  0  0  0  0
   19.4703  -12.1225  -16.2308 N   0  0  0  0  0  0  0  0  0  0  0  0
   19.1149  -10.7090  -16.1457 C   0  0  1  0  0  0  0  0  0  0  0  0
   17.7130  -10.5762  -15.6647 C   0  0  0  0  0  0  0  0  0  0  0  0
   17.1592   -9.2081  -15.5304 C   0  0  0  0  0  0  0  0  0  0  0  0
   15.6661   -9.4075  -15.1778 C   0  0  0  0  0  0  0  0  0  0  0  0
   14.9921   -8.0661  -15.0115 C   0  0  0  0  0  0  0  0  0  0  0  0
   13.6419   -8.3176  -14.5474 N   0  0  0  0  0  0  0  0  0  0  0  0
   20.1487  -10.0481  -15.3329 C   0  0  0  0  0  0  0  0  0  0  0  0
   20.5096  -10.5818  -14.2639 O   0  0  0  0  0  0  0  0  0  0  0  0
   25.5047  -11.1581  -14.9815 C   0  0  0  0  0  0  0  0  0  0  0  0
   25.7618   -9.4419  -15.5577 S   0  0  0  0  0  0  0  0  0  0  0  0
   24.4172   -8.4253  -15.0777 C   0  0  0  0  0  0  0  0  0  0  0  0
   23.0561   -8.8429  -15.4194 C   0  0  0  0  0  0  0  0  0  0  0  0
   21.8413   -8.1551  -15.0118 C   0  0  2  0  0  0  0  0  0  0  0  0
   20.7179   -8.8446  -15.7562 N   0  0  0  0  0  0  0  0  0  0  0  0
   21.7064   -6.7262  -15.5289 C   0  0  0  0  0  0  0  0  0  0  0  0
   22.2322   -5.7872  -14.8109 O   0  0  0  0  0  0  0  0  0  0  0  0
   21.0957   -6.3120  -16.6539 O   0  0  0  0  0  0  0  0  0  0  0  0
  2  1  1  1
  3  2  1  0
  4  6  1  0
  4  2  1  0
  4  5  1  6
  6  7  2  0
  8  9  1  0
  8  6  1  0
 10 11  1  0
  9 10  1  1
 11 12  1  0
 12 13  1  0
 14 13  1  0
 15  9  1  0
 16 15  2  0
 17 18  1  0
 19 18  1  0
 20 19  1  0
 21 20  1  6
 21 22  1  0
 21 23  1  0
 22 15  1  0
 23 25  1  0
 24 23  2  0
M  END
$$$$
