TKM.pdb
     RDKit          3D

 25 24  0  0  1  0  0  0  0  0999 V2000
   28.6276  -22.6006  -15.3526 C   0  0  0  0  0  0  0  0  0  0  0  0
   29.0088  -21.3163  -16.0244 C   0  0  1  0  0  0  0  0  0  0  0  0
   29.7503  -21.6433  -17.1769 O   0  0  0  0  0  0  0  0  0  0  0  0
   27.8072  -20.5387  -16.5121 C   0  0  2  0  0  0  0  0  0  0  0  0
   28.2873  -19.2913  -17.0710 N   0  0  0  0  0  0  0  0  0  0  0  0
   26.8695  -20.1980  -15.4105 C   0  0  0  0  0  0  0  0  0  0  0  0
   27.1814  -19.3077  -14.5975 O   0  0  0  0  0  0  0  0  0  0  0  0
   25.6263  -20.8390  -15.2341 N   0  0  0  0  0  0  0  0  0  0  0  0
   24.6831  -20.5261  -14.1646 C   0  0  1  0  0  0  0  0  0  0  0  0
   23.3141  -20.9460  -14.5694 C   0  0  0  0  0  0  0  0  0  0  0  0
   22.1688  -20.2006  -13.9957 C   0  0  0  0  0  0  0  0  0  0  0  0
   22.1574  -18.8421  -14.7357 C   0  0  0  0  0  0  0  0  0  0  0  0
   21.0983  -17.9420  -14.1444 C   0  0  0  0  0  0  0  0  0  0  0  0
   21.1056  -16.7097  -14.9081 N   0  0  0  0  0  0  0  0  0  0  0  0
   25.2109  -21.1268  -12.9289 C   0  0  0  0  0  0  0  0  0  0  0  0
   25.5533  -22.3269  -12.9388 O   0  0  0  0  0  0  0  0  0  0  0  0
   29.7593  -19.5997   -8.1203 C   0  0  0  0  0  0  0  0  0  0  0  0
   28.0901  -18.9640   -7.7296 S   0  0  0  0  0  0  0  0  0  0  0  0
   26.8603  -20.0640   -8.3212 C   0  0  0  0  0  0  0  0  0  0  0  0
   26.4833  -20.0110   -9.7349 C   0  0  0  0  0  0  0  0  0  0  0  0
   25.6133  -20.9635  -10.4064 C   0  0  2  0  0  0  0  0  0  0  0  0
   25.3291  -20.3616  -11.7661 N   0  0  0  0  0  0  0  0  0  0  0  0
   24.2054  -21.0677   -9.8282 C   0  0  0  0  0  0  0  0  0  0  0  0
   23.2913  -20.3257  -10.3642 O   0  0  0  0  0  0  0  0  0  0  0  0
   23.7884  -21.8438   -8.8112 O   0  0  0  0  0  0  0  0  0  0  0  0
  2  1  1  6
  3  2  1  0
  4  6  1  0
  4  2  1  0
  4  5  1  1
  6  7  2  0
  8  9  1  0
  8  6  1  0
 10 11  1  0
  9 10  1  6
 11 12  1  0
 12 13  1  0
 14 13  1  0
 15  9  1  0
 16 15  2  0
 17 18  1  0
 19 18  1  0
 20 19  1  0
 21 20  1  1
 21 22  1  0
 21 23  1  0
 22 15  1  0
 23 25  1  0
 24 23  2  0
M  END
$$$$
