DFG.pdb
     RDKit          3D

 24 24  0  0  1  0  0  0  0  0999 V2000
   14.9677  -22.0469    3.4314 N   0  0  0  0  0  0  0  0  0  0  0  0
   16.1342  -21.1902    3.3421 C   0  0  1  0  0  0  0  0  0  0  0  0
   16.0164  -20.0369    4.3179 C   0  0  0  0  0  0  0  0  0  0  0  0
   15.9580  -18.7351    3.6367 C   0  0  0  0  0  0  0  0  0  0  0  0
   15.1654  -18.4864    2.6992 O   0  0  0  0  0  0  0  0  0  0  0  0
   17.3710  -21.9831    3.6065 C   0  0  0  0  0  0  0  0  0  0  0  0
   18.5215  -21.5180    3.4807 O   0  0  0  0  0  0  0  0  0  0  0  0
   16.8273  -17.7416    4.0611 O   0  0  0  0  0  0  0  0  0  0  0  0
   17.2775  -23.3281    4.0207 N   0  0  0  0  0  0  0  0  0  0  0  0
   18.4888  -24.0990    4.2998 C   0  0  1  0  0  0  0  0  0  0  0  0
   18.6944  -24.2244    5.7840 C   0  0  0  0  0  0  0  0  0  0  0  0
   19.2290  -23.0568    6.4764 C   0  0  0  0  0  0  0  0  0  0  0  0
   20.5833  -22.7375    6.4404 C   0  0  0  0  0  0  0  0  0  0  0  0
   21.0890  -21.6423    7.0889 C   0  0  0  0  0  0  0  0  0  0  0  0
   20.2619  -20.8017    7.8131 C   0  0  0  0  0  0  0  0  0  0  0  0
   18.9246  -21.1002    7.8600 C   0  0  0  0  0  0  0  0  0  0  0  0
   18.4302  -22.2016    7.2053 C   0  0  0  0  0  0  0  0  0  0  0  0
   18.2589  -25.4280    3.6941 C   0  0  0  0  0  0  0  0  0  0  0  0
   19.0903  -26.3945    3.8261 O   0  0  0  0  0  0  0  0  0  0  0  0
   17.1109  -25.7528    2.9260 N   0  0  0  0  0  0  0  0  0  0  0  0
   16.9043  -27.1049    2.3812 C   0  0  0  0  0  0  0  0  0  0  0  0
   17.0731  -27.0531    0.9162 C   0  0  0  0  0  0  0  0  0  0  0  0
   17.4281  -25.9861    0.3644 O   0  0  0  0  0  0  0  0  0  0  0  0
   16.8465  -28.1623    0.1333 O   0  0  0  0  0  0  0  0  0  0  0  0
  2  1  1  1
  2  3  1  0
  3  4  1  0
  4  8  1  0
  5  4  2  0
  6  9  1  0
  6  2  1  0
  7  6  2  0
 10  9  1  0
 10 18  1  0
 10 11  1  1
 11 12  1  0
 12 17  2  0
 12 13  1  0
 13 14  2  0
 14 15  1  0
 16 15  2  0
 17 16  1  0
 18 20  1  0
 19 18  2  0
 20 21  1  0
 21 22  1  0
 22 23  2  0
 22 24  1  0
M  END
$$$$
