DFG.pdb
     RDKit          3D

 24 24  0  0  1  0  0  0  0  0999 V2000
   22.4422  -10.2849  -18.7681 N   0  0  0  0  0  0  0  0  0  0  0  0
   22.1423   -8.8798  -18.9635 C   0  0  1  0  0  0  0  0  0  0  0  0
   21.0814   -8.7116  -20.0322 C   0  0  0  0  0  0  0  0  0  0  0  0
   21.5806   -9.0572  -21.3715 C   0  0  0  0  0  0  0  0  0  0  0  0
   22.7698   -8.8858  -21.7256 O   0  0  0  0  0  0  0  0  0  0  0  0
   21.6981   -8.2691  -17.6758 C   0  0  0  0  0  0  0  0  0  0  0  0
   20.9868   -8.8678  -16.8443 O   0  0  0  0  0  0  0  0  0  0  0  0
   20.6824   -9.5986  -22.2786 O   0  0  0  0  0  0  0  0  0  0  0  0
   22.0799   -6.9521  -17.3452 N   0  0  0  0  0  0  0  0  0  0  0  0
   21.6652   -6.3622  -16.0728 C   0  0  1  0  0  0  0  0  0  0  0  0
   22.8407   -6.2572  -15.1411 C   0  0  0  0  0  0  0  0  0  0  0  0
   23.5136   -7.5021  -14.7860 C   0  0  0  0  0  0  0  0  0  0  0  0
   24.6806   -7.9140  -15.4230 C   0  0  0  0  0  0  0  0  0  0  0  0
   25.3153   -9.0817  -15.0925 C   0  0  0  0  0  0  0  0  0  0  0  0
   24.8137   -9.9060  -14.1003 C   0  0  0  0  0  0  0  0  0  0  0  0
   23.6648   -9.5167  -13.4616 C   0  0  0  0  0  0  0  0  0  0  0  0
   23.0380   -8.3432  -13.8026 C   0  0  0  0  0  0  0  0  0  0  0  0
   21.1497   -5.0182  -16.4104 C   0  0  0  0  0  0  0  0  0  0  0  0
   21.6367   -4.3176  -17.3667 O   0  0  0  0  0  0  0  0  0  0  0  0
   20.0802   -4.3913  -15.7199 N   0  0  0  0  0  0  0  0  0  0  0  0
   19.6368   -3.0288  -16.0583 C   0  0  0  0  0  0  0  0  0  0  0  0
   20.6211   -2.0674  -15.5250 C   0  0  0  0  0  0  0  0  0  0  0  0
   21.6028   -2.4782  -14.8644 O   0  0  0  0  0  0  0  0  0  0  0  0
   20.4836   -0.7146  -15.7388 O   0  0  0  0  0  0  0  0  0  0  0  0
  2  1  1  1
  2  3  1  0
  3  4  1  0
  4  8  1  0
  5  4  2  0
  6  9  1  0
  6  2  1  0
  7  6  2  0
 10  9  1  0
 10 18  1  0
 10 11  1  1
 11 12  1  0
 12 17  2  0
 12 13  1  0
 13 14  2  0
 14 15  1  0
 16 15  2  0
 17 16  1  0
 18 20  1  0
 19 18  2  0
 20 21  1  0
 21 22  1  0
 22 23  2  0
 22 24  1  0
M  END
$$$$
