DFG.pdb
     RDKit          3D

 24 24  0  0  1  0  0  0  0  0999 V2000
   19.3769  -11.2188  -14.9188 N   0  0  0  0  0  0  0  0  0  0  0  0
   19.4251  -10.1026  -15.8431 C   0  0  1  0  0  0  0  0  0  0  0  0
   18.1500  -10.0394  -16.6593 C   0  0  0  0  0  0  0  0  0  0  0  0
   17.9701  -11.2297  -17.5038 C   0  0  0  0  0  0  0  0  0  0  0  0
   17.1160  -12.1151  -17.2683 O   0  0  0  0  0  0  0  0  0  0  0  0
   19.6379   -8.8289  -15.0942 C   0  0  0  0  0  0  0  0  0  0  0  0
   18.9424   -8.4853  -14.1175 O   0  0  0  0  0  0  0  0  0  0  0  0
   18.7915  -11.3684  -18.6123 O   0  0  0  0  0  0  0  0  0  0  0  0
   20.6657   -7.9424  -15.4781 N   0  0  0  0  0  0  0  0  0  0  0  0
   20.9125   -6.7232  -14.7089 C   0  0  1  0  0  0  0  0  0  0  0  0
   22.1353   -6.8895  -13.8498 C   0  0  0  0  0  0  0  0  0  0  0  0
   23.1689   -7.7939  -14.3422 C   0  0  0  0  0  0  0  0  0  0  0  0
   24.0427   -7.4257  -15.3611 C   0  0  0  0  0  0  0  0  0  0  0  0
   25.0143   -8.2716  -15.8259 C   0  0  0  0  0  0  0  0  0  0  0  0
   25.1653   -9.5400  -15.2931 C   0  0  0  0  0  0  0  0  0  0  0  0
   24.3136   -9.9204  -14.2885 C   0  0  0  0  0  0  0  0  0  0  0  0
   23.3434   -9.0625  -13.8314 C   0  0  0  0  0  0  0  0  0  0  0  0
   21.1254   -5.6593  -15.7132 C   0  0  0  0  0  0  0  0  0  0  0  0
   21.7245   -5.8763  -16.8252 O   0  0  0  0  0  0  0  0  0  0  0  0
   20.6879   -4.3201  -15.5432 N   0  0  0  0  0  0  0  0  0  0  0  0
   20.8420   -3.3169  -16.6096 C   0  0  0  0  0  0  0  0  0  0  0  0
   22.2385   -2.8402  -16.6091 C   0  0  0  0  0  0  0  0  0  0  0  0
   22.5973   -1.9529  -17.4172 O   0  0  0  0  0  0  0  0  0  0  0  0
   23.1664   -3.3540  -15.7318 O   0  0  0  0  0  0  0  0  0  0  0  0
  2  1  1  1
  2  3  1  0
  3  4  1  0
  4  8  1  0
  5  4  2  0
  6  9  1  0
  6  2  1  0
  7  6  2  0
 10  9  1  0
 10 18  1  0
 10 11  1  6
 11 12  1  0
 12 17  2  0
 12 13  1  0
 13 14  2  0
 14 15  1  0
 16 15  2  0
 17 16  1  0
 18 20  1  0
 19 18  2  0
 20 21  1  0
 21 22  1  0
 22 23  2  0
 22 24  1  0
M  END
$$$$
