DFG.pdb
     RDKit          3D

 24 24  0  0  1  0  0  0  0  0999 V2000
   21.9918  -19.6200  -13.6779 N   0  0  0  0  0  0  0  0  0  0  0  0
   22.3056  -20.4513  -12.5321 C   0  0  1  0  0  0  0  0  0  0  0  0
   22.2094  -21.9173  -12.9032 C   0  0  0  0  0  0  0  0  0  0  0  0
   20.8286  -22.3272  -13.1995 C   0  0  0  0  0  0  0  0  0  0  0  0
   19.8665  -22.1040  -12.4291 O   0  0  0  0  0  0  0  0  0  0  0  0
   23.6693  -20.1229  -12.0215 C   0  0  0  0  0  0  0  0  0  0  0  0
   24.3879  -19.2307  -12.5149 O   0  0  0  0  0  0  0  0  0  0  0  0
   20.5916  -22.9924  -14.3927 O   0  0  0  0  0  0  0  0  0  0  0  0
   24.2088  -20.8331  -10.9288 N   0  0  0  0  0  0  0  0  0  0  0  0
   25.5322  -20.4909  -10.4087 C   0  0  1  0  0  0  0  0  0  0  0  0
   25.6490  -20.9094   -8.9692 C   0  0  0  0  0  0  0  0  0  0  0  0
   26.8198  -20.4368   -8.2382 C   0  0  0  0  0  0  0  0  0  0  0  0
   26.9016  -19.1389   -7.7421 C   0  0  0  0  0  0  0  0  0  0  0  0
   27.9988  -18.6916   -7.0552 C   0  0  0  0  0  0  0  0  0  0  0  0
   29.0805  -19.5239   -6.8259 C   0  0  0  0  0  0  0  0  0  0  0  0
   29.0180  -20.8061   -7.3070 C   0  0  0  0  0  0  0  0  0  0  0  0
   27.9118  -21.2423   -7.9944 C   0  0  0  0  0  0  0  0  0  0  0  0
   26.4917  -21.2416  -11.2464 C   0  0  0  0  0  0  0  0  0  0  0  0
   26.5563  -22.5216  -11.2350 O   0  0  0  0  0  0  0  0  0  0  0  0
   27.4129  -20.6233  -12.1311 N   0  0  0  0  0  0  0  0  0  0  0  0
   28.3811  -21.4116  -12.9113 C   0  0  0  0  0  0  0  0  0  0  0  0
   27.9608  -21.4070  -14.3258 C   0  0  0  0  0  0  0  0  0  0  0  0
   26.9106  -21.9973  -14.6687 O   0  0  0  0  0  0  0  0  0  0  0  0
   28.7046  -20.7621  -15.2879 O   0  0  0  0  0  0  0  0  0  0  0  0
  2  1  1  6
  2  3  1  0
  3  4  1  0
  4  8  1  0
  5  4  2  0
  6  9  1  0
  6  2  1  0
  7  6  2  0
 10  9  1  0
 10 18  1  0
 10 11  1  1
 11 12  1  0
 12 17  2  0
 12 13  1  0
 13 14  2  0
 14 15  1  0
 16 15  2  0
 17 16  1  0
 18 20  1  0
 19 18  2  0
 20 21  1  0
 21 22  1  0
 22 23  2  0
 22 24  1  0
M  END
$$$$
