DFG.pdb
     RDKit          3D

 24 24  0  0  1  0  0  0  0  0999 V2000
   23.4057  -12.8671  -18.2064 N   0  0  0  0  0  0  0  0  0  0  0  0
   22.8714  -11.5209  -18.2735 C   0  0  1  0  0  0  0  0  0  0  0  0
   21.3822  -11.5587  -18.5508 C   0  0  0  0  0  0  0  0  0  0  0  0
   21.0794  -12.0647  -19.8979 C   0  0  0  0  0  0  0  0  0  0  0  0
   20.1513  -12.8717  -20.1349 O   0  0  0  0  0  0  0  0  0  0  0  0
   23.1544  -10.7954  -16.9999 C   0  0  0  0  0  0  0  0  0  0  0  0
   22.9775  -11.2985  -15.8724 O   0  0  0  0  0  0  0  0  0  0  0  0
   21.8661  -11.6200  -20.9496 O   0  0  0  0  0  0  0  0  0  0  0  0
   23.6473   -9.4742  -17.0295 N   0  0  0  0  0  0  0  0  0  0  0  0
   24.0820   -8.8222  -15.7945 C   0  0  1  0  0  0  0  0  0  0  0  0
   25.5599   -8.5497  -15.8433 C   0  0  0  0  0  0  0  0  0  0  0  0
   26.4399   -9.7066  -15.9688 C   0  0  0  0  0  0  0  0  0  0  0  0
   26.5325  -10.6710  -14.9694 C   0  0  0  0  0  0  0  0  0  0  0  0
   27.3571  -11.7586  -15.0836 C   0  0  0  0  0  0  0  0  0  0  0  0
   28.1387  -11.9414  -16.2109 C   0  0  0  0  0  0  0  0  0  0  0  0
   28.0608  -11.0016  -17.2060 C   0  0  0  0  0  0  0  0  0  0  0  0
   27.2299   -9.9155  -17.0792 C   0  0  0  0  0  0  0  0  0  0  0  0
   23.3230   -7.5551  -15.7290 C   0  0  0  0  0  0  0  0  0  0  0  0
   23.2703   -6.7360  -16.7134 O   0  0  0  0  0  0  0  0  0  0  0  0
   22.5895   -7.1374  -14.5884 N   0  0  0  0  0  0  0  0  0  0  0  0
   21.8788   -5.8483  -14.5578 C   0  0  0  0  0  0  0  0  0  0  0  0
   20.5185   -6.0479  -15.0936 C   0  0  0  0  0  0  0  0  0  0  0  0
   20.2619   -5.7405  -16.2804 O   0  0  0  0  0  0  0  0  0  0  0  0
   19.5138   -6.5694  -14.3105 O   0  0  0  0  0  0  0  0  0  0  0  0
  2  1  1  1
  2  3  1  0
  3  4  1  0
  4  8  1  0
  5  4  2  0
  6  9  1  0
  6  2  1  0
  7  6  2  0
 10  9  1  0
 10 18  1  0
 10 11  1  6
 11 12  1  0
 12 17  2  0
 12 13  1  0
 13 14  2  0
 14 15  1  0
 16 15  2  0
 17 16  1  0
 18 20  1  0
 19 18  2  0
 20 21  1  0
 21 22  1  0
 22 23  2  0
 22 24  1  0
M  END
$$$$
