DFG.pdb
     RDKit          3D

 24 24  0  0  1  0  0  0  0  0999 V2000
   21.3903   -8.7751  -18.6228 N   0  0  0  0  0  0  0  0  0  0  0  0
   21.1561   -7.3498  -18.4957 C   0  0  1  0  0  0  0  0  0  0  0  0
   19.9396   -6.9422  -19.3019 C   0  0  0  0  0  0  0  0  0  0  0  0
   20.2102   -6.9240  -20.7472 C   0  0  0  0  0  0  0  0  0  0  0  0
   21.3421   -7.1447  -21.2360 O   0  0  0  0  0  0  0  0  0  0  0  0
   20.9841   -6.9872  -17.0579 C   0  0  0  0  0  0  0  0  0  0  0  0
   20.3518   -7.6918  -16.2457 O   0  0  0  0  0  0  0  0  0  0  0  0
   19.1533   -6.6481  -21.6013 O   0  0  0  0  0  0  0  0  0  0  0  0
   21.5487   -5.7974  -16.5529 N   0  0  0  0  0  0  0  0  0  0  0  0
   21.3183   -5.4045  -15.1630 C   0  0  1  0  0  0  0  0  0  0  0  0
   22.5864   -5.5424  -14.3670 C   0  0  0  0  0  0  0  0  0  0  0  0
   23.1772   -6.8745  -14.2937 C   0  0  0  0  0  0  0  0  0  0  0  0
   24.2007   -7.2723  -15.1490 C   0  0  0  0  0  0  0  0  0  0  0  0
   24.7579   -8.5217  -15.0832 C   0  0  0  0  0  0  0  0  0  0  0  0
   24.3186   -9.4466  -14.1522 C   0  0  0  0  0  0  0  0  0  0  0  0
   23.3110   -9.0727  -13.3011 C   0  0  0  0  0  0  0  0  0  0  0  0
   22.7607   -7.8167  -13.3774 C   0  0  0  0  0  0  0  0  0  0  0  0
   20.8922   -3.9899  -15.2183 C   0  0  0  0  0  0  0  0  0  0  0  0
   21.7032   -3.0405  -15.5074 O   0  0  0  0  0  0  0  0  0  0  0  0
   19.5639   -3.5595  -14.9649 N   0  0  0  0  0  0  0  0  0  0  0  0
   19.1910   -2.1362  -15.0169 C   0  0  0  0  0  0  0  0  0  0  0  0
   17.7775   -2.0050  -14.6138 C   0  0  0  0  0  0  0  0  0  0  0  0
   17.0207   -3.0024  -14.6514 O   0  0  0  0  0  0  0  0  0  0  0  0
   17.2657   -0.7984  -14.1933 O   0  0  0  0  0  0  0  0  0  0  0  0
  2  1  1  1
  2  3  1  0
  3  4  1  0
  4  8  1  0
  5  4  2  0
  6  9  1  0
  6  2  1  0
  7  6  2  0
 10  9  1  0
 10 18  1  0
 10 11  1  1
 11 12  1  0
 12 17  2  0
 12 13  1  0
 13 14  2  0
 14 15  1  0
 16 15  2  0
 17 16  1  0
 18 20  1  0
 19 18  2  0
 20 21  1  0
 21 22  1  0
 22 23  2  0
 22 24  1  0
M  END
$$$$
