DFG.pdb
     RDKit          3D

 24 24  0  0  1  0  0  0  0  0999 V2000
   38.5928  -27.4903    5.1202 N   0  0  0  0  0  0  0  0  0  0  0  0
   37.1667  -27.5794    5.3668 C   0  0  1  0  0  0  0  0  0  0  0  0
   36.8786  -28.6353    6.4148 C   0  0  0  0  0  0  0  0  0  0  0  0
   36.8937  -29.9947    5.8542 C   0  0  0  0  0  0  0  0  0  0  0  0
   37.8978  -30.4963    5.2984 O   0  0  0  0  0  0  0  0  0  0  0  0
   36.6390  -26.2505    5.7954 C   0  0  0  0  0  0  0  0  0  0  0  0
   37.2056  -25.5299    6.6412 O   0  0  0  0  0  0  0  0  0  0  0  0
   35.7343  -30.7490    5.9512 O   0  0  0  0  0  0  0  0  0  0  0  0
   35.4433  -25.7484    5.2405 N   0  0  0  0  0  0  0  0  0  0  0  0
   34.9646  -24.4154    5.6052 C   0  0  1  0  0  0  0  0  0  0  0  0
   34.3908  -23.7219    4.4008 C   0  0  0  0  0  0  0  0  0  0  0  0
   33.7010  -22.4577    4.6344 C   0  0  0  0  0  0  0  0  0  0  0  0
   34.1533  -21.5368    5.5750 C   0  0  0  0  0  0  0  0  0  0  0  0
   33.5087  -20.3490    5.7971 C   0  0  0  0  0  0  0  0  0  0  0  0
   32.3693  -20.0160    5.0855 C   0  0  0  0  0  0  0  0  0  0  0  0
   31.9088  -20.9108    4.1546 C   0  0  0  0  0  0  0  0  0  0  0  0
   32.5645  -22.0986    3.9415 C   0  0  0  0  0  0  0  0  0  0  0  0
   33.9163  -24.6377    6.6238 C   0  0  0  0  0  0  0  0  0  0  0  0
   32.9983  -25.5206    6.4813 O   0  0  0  0  0  0  0  0  0  0  0  0
   33.8341  -23.9079    7.8380 N   0  0  0  0  0  0  0  0  0  0  0  0
   32.6734  -24.0314    8.7354 C   0  0  0  0  0  0  0  0  0  0  0  0
   32.9365  -25.1182    9.6983 C   0  0  0  0  0  0  0  0  0  0  0  0
   32.1034  -25.3721   10.5986 O   0  0  0  0  0  0  0  0  0  0  0  0
   34.0893  -25.8672    9.6297 O   0  0  0  0  0  0  0  0  0  0  0  0
  2  1  1  1
  2  3  1  0
  3  4  1  0
  4  8  1  0
  5  4  2  0
  6  9  1  0
  6  2  1  0
  7  6  2  0
 10  9  1  0
 10 18  1  0
 10 11  1  6
 11 12  1  0
 12 17  2  0
 12 13  1  0
 13 14  2  0
 14 15  1  0
 16 15  2  0
 17 16  1  0
 18 20  1  0
 19 18  2  0
 20 21  1  0
 21 22  1  0
 22 23  2  0
 22 24  1  0
M  END
$$$$
