DFG.pdb
     RDKit          3D

 24 24  0  0  1  0  0  0  0  0999 V2000
   28.5050  -21.1617  -14.3469 N   0  0  0  0  0  0  0  0  0  0  0  0
   27.4924  -20.1936  -13.9727 C   0  0  1  0  0  0  0  0  0  0  0  0
   26.8336  -19.6162  -15.2090 C   0  0  0  0  0  0  0  0  0  0  0  0
   27.6158  -18.5173  -15.7948 C   0  0  0  0  0  0  0  0  0  0  0  0
   28.7572  -18.6739  -16.2865 O   0  0  0  0  0  0  0  0  0  0  0  0
   26.4789  -20.8335  -13.0828 C   0  0  0  0  0  0  0  0  0  0  0  0
   26.0664  -21.9995  -13.2436 O   0  0  0  0  0  0  0  0  0  0  0  0
   27.0527  -17.2502  -15.7977 O   0  0  0  0  0  0  0  0  0  0  0  0
   25.9361  -20.1181  -11.9950 N   0  0  0  0  0  0  0  0  0  0  0  0
   25.0162  -20.7748  -11.0668 C   0  0  1  0  0  0  0  0  0  0  0  0
   25.2732  -20.3057   -9.6615 C   0  0  0  0  0  0  0  0  0  0  0  0
   26.6042  -20.5524   -9.1173 C   0  0  0  0  0  0  0  0  0  0  0  0
   27.0489  -19.9310   -7.9539 C   0  0  0  0  0  0  0  0  0  0  0  0
   28.2975  -20.1600   -7.4397 C   0  0  0  0  0  0  0  0  0  0  0  0
   29.1744  -21.0287   -8.0656 C   0  0  0  0  0  0  0  0  0  0  0  0
   28.7538  -21.6502   -9.2129 C   0  0  0  0  0  0  0  0  0  0  0  0
   27.4992  -21.4118   -9.7182 C   0  0  0  0  0  0  0  0  0  0  0  0
   23.6617  -20.3776  -11.5064 C   0  0  0  0  0  0  0  0  0  0  0  0
   23.3537  -19.1601  -11.7626 O   0  0  0  0  0  0  0  0  0  0  0  0
   22.5944  -21.2951  -11.6875 N   0  0  0  0  0  0  0  0  0  0  0  0
   21.2640  -20.8521  -12.1362 C   0  0  0  0  0  0  0  0  0  0  0  0
   20.3810  -22.0310  -12.2264 C   0  0  0  0  0  0  0  0  0  0  0  0
   20.8530  -23.1802  -12.0671 O   0  0  0  0  0  0  0  0  0  0  0  0
   19.0359  -21.8954  -12.4850 O   0  0  0  0  0  0  0  0  0  0  0  0
  2  1  1  6
  2  3  1  0
  3  4  1  0
  4  8  1  0
  5  4  2  0
  6  9  1  0
  6  2  1  0
  7  6  2  0
 10  9  1  0
 10 18  1  0
 10 11  1  1
 11 12  1  0
 12 17  2  0
 12 13  1  0
 13 14  2  0
 14 15  1  0
 16 15  2  0
 17 16  1  0
 18 20  1  0
 19 18  2  0
 20 21  1  0
 21 22  1  0
 22 23  2  0
 22 24  1  0
M  END
$$$$
