DFG.pdb
     RDKit          3D

 24 24  0  0  1  0  0  0  0  0999 V2000
   28.1423  -21.2991  -14.5103 N   0  0  0  0  0  0  0  0  0  0  0  0
   27.0314  -20.4586  -14.1081 C   0  0  1  0  0  0  0  0  0  0  0  0
   26.0698  -20.2682  -15.2636 C   0  0  0  0  0  0  0  0  0  0  0  0
   26.7020  -19.5970  -16.4091 C   0  0  0  0  0  0  0  0  0  0  0  0
   27.2762  -18.4871  -16.3224 O   0  0  0  0  0  0  0  0  0  0  0  0
   26.3346  -21.0613  -12.9335 C   0  0  0  0  0  0  0  0  0  0  0  0
   26.1667  -22.2894  -12.7940 O   0  0  0  0  0  0  0  0  0  0  0  0
   26.6543  -20.2327  -17.6404 O   0  0  0  0  0  0  0  0  0  0  0  0
   25.8262  -20.2361  -11.9088 N   0  0  0  0  0  0  0  0  0  0  0  0
   25.1588  -20.8274  -10.7495 C   0  0  1  0  0  0  0  0  0  0  0  0
   25.5605  -20.1042   -9.4939 C   0  0  0  0  0  0  0  0  0  0  0  0
   26.8901  -20.3895   -8.9655 C   0  0  0  0  0  0  0  0  0  0  0  0
   27.7147  -21.3561   -9.5338 C   0  0  0  0  0  0  0  0  0  0  0  0
   28.9636  -21.6266   -9.0409 C   0  0  0  0  0  0  0  0  0  0  0  0
   29.4583  -20.9403   -7.9456 C   0  0  0  0  0  0  0  0  0  0  0  0
   28.6602  -19.9844   -7.3723 C   0  0  0  0  0  0  0  0  0  0  0  0
   27.4097  -19.7226   -7.8763 C   0  0  0  0  0  0  0  0  0  0  0  0
   23.7112  -20.6637  -11.0015 C   0  0  0  0  0  0  0  0  0  0  0  0
   22.8271  -20.9176  -10.1091 O   0  0  0  0  0  0  0  0  0  0  0  0
   23.1752  -20.2123  -12.2354 N   0  0  0  0  0  0  0  0  0  0  0  0
   21.7361  -19.9498  -12.4015 C   0  0  0  0  0  0  0  0  0  0  0  0
   21.1173  -21.1176  -13.0578 C   0  0  0  0  0  0  0  0  0  0  0  0
   21.7995  -22.1437  -13.2826 O   0  0  0  0  0  0  0  0  0  0  0  0
   19.7930  -21.1050  -13.4332 O   0  0  0  0  0  0  0  0  0  0  0  0
  2  1  1  6
  2  3  1  0
  3  4  1  0
  4  8  1  0
  5  4  2  0
  6  9  1  0
  6  2  1  0
  7  6  2  0
 10  9  1  0
 10 18  1  0
 10 11  1  1
 11 12  1  0
 12 17  2  0
 12 13  1  0
 13 14  2  0
 14 15  1  0
 16 15  2  0
 17 16  1  0
 18 20  1  0
 19 18  2  0
 20 21  1  0
 21 22  1  0
 22 23  2  0
 22 24  1  0
M  END
$$$$
