DFG.pdb
     RDKit          3D

 24 24  0  0  1  0  0  0  0  0999 V2000
   28.7873  -20.7288  -13.6007 N   0  0  0  0  0  0  0  0  0  0  0  0
   27.6688  -19.9134  -13.1688 C   0  0  1  0  0  0  0  0  0  0  0  0
   26.8364  -19.4874  -14.3611 C   0  0  0  0  0  0  0  0  0  0  0  0
   27.5759  -18.5945  -15.2657 C   0  0  0  0  0  0  0  0  0  0  0  0
   28.0329  -18.9640  -16.3718 O   0  0  0  0  0  0  0  0  0  0  0  0
   26.8372  -20.6679  -12.1851 C   0  0  0  0  0  0  0  0  0  0  0  0
   26.7103  -21.9086  -12.2060 O   0  0  0  0  0  0  0  0  0  0  0  0
   27.7708  -17.2816  -14.8646 O   0  0  0  0  0  0  0  0  0  0  0  0
   26.1447  -19.9814  -11.1660 N   0  0  0  0  0  0  0  0  0  0  0  0
   25.3984  -20.7257  -10.1520 C   0  0  1  0  0  0  0  0  0  0  0  0
   25.5393  -20.0606   -8.8108 C   0  0  0  0  0  0  0  0  0  0  0  0
   26.8281  -20.1952   -8.1404 C   0  0  0  0  0  0  0  0  0  0  0  0
   27.6898  -21.2543   -8.4107 C   0  0  0  0  0  0  0  0  0  0  0  0
   28.9005  -21.3840   -7.7837 C   0  0  0  0  0  0  0  0  0  0  0  0
   29.3174  -20.4551   -6.8463 C   0  0  0  0  0  0  0  0  0  0  0  0
   28.4818  -19.4047   -6.5669 C   0  0  0  0  0  0  0  0  0  0  0  0
   27.2702  -19.2863   -7.2028 C   0  0  0  0  0  0  0  0  0  0  0  0
   23.9895  -20.6976  -10.5992 C   0  0  0  0  0  0  0  0  0  0  0  0
   23.0336  -21.1621   -9.8829 O   0  0  0  0  0  0  0  0  0  0  0  0
   23.5710  -20.1570  -11.8427 N   0  0  0  0  0  0  0  0  0  0  0  0
   22.1460  -20.0487  -12.1965 C   0  0  0  0  0  0  0  0  0  0  0  0
   21.7545  -21.2564  -12.9485 C   0  0  0  0  0  0  0  0  0  0  0  0
   22.5869  -22.1730  -13.1380 O   0  0  0  0  0  0  0  0  0  0  0  0
   20.4818  -21.4004  -13.4526 O   0  0  0  0  0  0  0  0  0  0  0  0
  2  1  1  6
  2  3  1  0
  3  4  1  0
  4  8  1  0
  5  4  2  0
  6  9  1  0
  6  2  1  0
  7  6  2  0
 10  9  1  0
 10 18  1  0
 10 11  1  1
 11 12  1  0
 12 17  2  0
 12 13  1  0
 13 14  2  0
 14 15  1  0
 16 15  2  0
 17 16  1  0
 18 20  1  0
 19 18  2  0
 20 21  1  0
 21 22  1  0
 22 23  2  0
 22 24  1  0
M  END
$$$$
