DFG.pdb
     RDKit          3D

 24 24  0  0  1  0  0  0  0  0999 V2000
   24.1126   -7.5033  -20.4742 N   0  0  0  0  0  0  0  0  0  0  0  0
   23.3862   -6.6023  -19.6008 C   0  0  1  0  0  0  0  0  0  0  0  0
   22.2726   -5.9135  -20.3633 C   0  0  0  0  0  0  0  0  0  0  0  0
   22.7857   -4.9511  -21.3496 C   0  0  0  0  0  0  0  0  0  0  0  0
   22.6365   -5.0899  -22.5854 O   0  0  0  0  0  0  0  0  0  0  0  0
   22.8412   -7.3538  -18.4317 C   0  0  0  0  0  0  0  0  0  0  0  0
   22.5157   -8.5568  -18.4834 O   0  0  0  0  0  0  0  0  0  0  0  0
   23.4665   -3.8393  -20.8772 O   0  0  0  0  0  0  0  0  0  0  0  0
   22.6704   -6.7083  -17.1893 N   0  0  0  0  0  0  0  0  0  0  0  0
   22.2772   -7.4759  -16.0081 C   0  0  1  0  0  0  0  0  0  0  0  0
   23.3948   -7.4908  -15.0024 C   0  0  0  0  0  0  0  0  0  0  0  0
   24.5127   -8.3885  -15.2724 C   0  0  0  0  0  0  0  0  0  0  0  0
   24.6138   -9.6383  -14.6681 C   0  0  0  0  0  0  0  0  0  0  0  0
   25.6615  -10.4840  -14.9191 C   0  0  0  0  0  0  0  0  0  0  0  0
   26.6713  -10.1228  -15.7939 C   0  0  0  0  0  0  0  0  0  0  0  0
   26.5888   -8.8953  -16.3987 C   0  0  0  0  0  0  0  0  0  0  0  0
   25.5328   -8.0565  -16.1384 C   0  0  0  0  0  0  0  0  0  0  0  0
   21.0951   -6.7777  -15.4593 C   0  0  0  0  0  0  0  0  0  0  0  0
   21.1584   -5.5855  -14.9932 O   0  0  0  0  0  0  0  0  0  0  0  0
   19.7992   -7.3531  -15.4034 N   0  0  0  0  0  0  0  0  0  0  0  0
   18.6668   -6.6452  -14.7836 C   0  0  0  0  0  0  0  0  0  0  0  0
   17.4524   -7.4677  -14.9449 C   0  0  0  0  0  0  0  0  0  0  0  0
   17.3876   -8.3145  -15.8656 O   0  0  0  0  0  0  0  0  0  0  0  0
   16.3769   -7.3240  -14.0979 O   0  0  0  0  0  0  0  0  0  0  0  0
  2  1  1  6
  2  3  1  0
  3  4  1  0
  4  8  1  0
  5  4  2  0
  6  9  1  0
  6  2  1  0
  7  6  2  0
 10  9  1  0
 10 18  1  0
 10 11  1  1
 11 12  1  0
 12 17  2  0
 12 13  1  0
 13 14  2  0
 14 15  1  0
 16 15  2  0
 17 16  1  0
 18 20  1  0
 19 18  2  0
 20 21  1  0
 21 22  1  0
 22 23  2  0
 22 24  1  0
M  END
$$$$
