HTN.pdb
     RDKit          3D

 26 26  0  0  1  0  0  0  0  0999 V2000
   24.9579  -16.8115  -18.2075 N   0  0  0  0  0  0  0  0  0  0  0  0
   25.1191  -17.2328  -16.8346 C   0  0  1  0  0  0  0  0  0  0  0  0
   26.4612  -16.8000  -16.3586 C   0  0  0  0  0  0  0  0  0  0  0  0
   27.5839  -17.3953  -17.1137 C   0  0  0  0  0  0  0  0  0  0  0  0
   27.9223  -18.7211  -17.2227 C   0  0  0  0  0  0  0  0  0  0  0  0
   29.0116  -18.8003  -18.0205 N   0  0  0  0  0  0  0  0  0  0  0  0
   29.3601  -17.5692  -18.4099 C   0  0  0  0  0  0  0  0  0  0  0  0
   28.4934  -16.7077  -17.8605 N   0  0  0  0  0  0  0  0  0  0  0  0
   23.9750  -16.7110  -16.0399 C   0  0  0  0  0  0  0  0  0  0  0  0
   23.9667  -15.5152  -15.6199 O   0  0  0  0  0  0  0  0  0  0  0  0
   20.7737  -15.9310  -17.0696 C   0  0  0  0  0  0  0  0  0  0  0  0
   21.0977  -15.8604  -15.5988 C   0  0  1  0  0  0  0  0  0  0  0  0
   19.9611  -15.4164  -14.9556 O   0  0  0  0  0  0  0  0  0  0  0  0
   21.6592  -17.1091  -15.0374 C   0  0  2  0  0  0  0  0  0  0  0  0
   22.8681  -17.5322  -15.7294 N   0  0  0  0  0  0  0  0  0  0  0  0
   20.7110  -18.2115  -14.7775 C   0  0  0  0  0  0  0  0  0  0  0  0
   20.4299  -19.1065  -15.6544 O   0  0  0  0  0  0  0  0  0  0  0  0
   21.3883  -19.5727  -10.3125 N   0  0  0  0  0  0  0  0  0  0  0  0
   20.7343  -20.1725  -11.3932 C   0  0  0  0  0  0  0  0  0  0  0  0
   21.4153  -21.0411  -12.0517 O   0  0  0  0  0  0  0  0  0  0  0  0
   19.3782  -19.9451  -11.8745 C   0  0  0  0  0  0  0  0  0  0  0  0
   19.2068  -19.6059  -13.3073 C   0  0  2  0  0  0  0  0  0  0  0  0
   20.0171  -18.4067  -13.5549 N   0  0  0  0  0  0  0  0  0  0  0  0
   17.8034  -19.2592  -13.5943 C   0  0  0  0  0  0  0  0  0  0  0  0
   17.3828  -18.1015  -13.7329 O   0  0  0  0  0  0  0  0  0  0  0  0
   16.8291  -20.2754  -13.7310 O   0  0  0  0  0  0  0  0  0  0  0  0
  2  1  1  6
  2  9  1  0
  3  4  1  0
  3  2  1  0
  4  8  1  0
  5  4  2  0
  5  6  1  0
  6  7  1  0
  8  7  2  0
  9 10  2  0
 12 11  1  6
 12 14  1  0
 13 12  1  0
 14 16  1  0
 14 15  1  6
 15  9  1  0
 16 17  2  0
 16 23  1  0
 18 19  1  0
 19 21  1  0
 20 19  2  0
 22 21  1  1
 22 24  1  0
 23 22  1  0
 24 25  2  0
 24 26  1  0
M  END
$$$$
