HTN.pdb
     RDKit          3D

 26 26  0  0  1  0  0  0  0  0999 V2000
   18.6349  -12.8295  -16.1285 N   0  0  0  0  0  0  0  0  0  0  0  0
   18.7108  -11.4830  -16.6476 C   0  0  1  0  0  0  0  0  0  0  0  0
   17.3301  -11.0017  -16.9254 C   0  0  0  0  0  0  0  0  0  0  0  0
   16.6060  -11.8099  -17.9291 C   0  0  0  0  0  0  0  0  0  0  0  0
   15.5516  -12.6651  -17.7268 C   0  0  0  0  0  0  0  0  0  0  0  0
   15.2047  -13.1774  -18.9295 N   0  0  0  0  0  0  0  0  0  0  0  0
   16.0076  -12.6691  -19.8705 C   0  0  0  0  0  0  0  0  0  0  0  0
   16.8645  -11.8343  -19.2672 N   0  0  0  0  0  0  0  0  0  0  0  0
   19.4840  -10.6473  -15.6900 C   0  0  0  0  0  0  0  0  0  0  0  0
   19.2191  -10.6648  -14.4507 O   0  0  0  0  0  0  0  0  0  0  0  0
   22.8642  -10.8149  -14.6131 C   0  0  0  0  0  0  0  0  0  0  0  0
   22.7358   -9.4183  -15.1663 C   0  0  1  0  0  0  0  0  0  0  0  0
   23.4530   -9.3829  -16.3442 O   0  0  0  0  0  0  0  0  0  0  0  0
   21.3418   -8.9389  -15.2948 C   0  0  2  0  0  0  0  0  0  0  0  0
   20.5322   -9.8105  -16.1339 N   0  0  0  0  0  0  0  0  0  0  0  0
   21.1519   -7.5020  -15.5795 C   0  0  0  0  0  0  0  0  0  0  0  0
   20.9452   -7.0505  -16.7638 O   0  0  0  0  0  0  0  0  0  0  0  0
   20.5233   -2.0887  -14.9833 N   0  0  0  0  0  0  0  0  0  0  0  0
   19.7723   -3.0362  -14.2808 C   0  0  0  0  0  0  0  0  0  0  0  0
   18.7748   -2.5798  -13.6110 O   0  0  0  0  0  0  0  0  0  0  0  0
   19.9684   -4.4778  -14.2067 C   0  0  0  0  0  0  0  0  0  0  0  0
   21.1048   -5.0552  -14.9633 C   0  0  2  0  0  0  0  0  0  0  0  0
   21.1733   -6.4760  -14.5991 N   0  0  0  0  0  0  0  0  0  0  0  0
   22.3742   -4.4306  -14.5504 C   0  0  0  0  0  0  0  0  0  0  0  0
   23.0759   -4.8276  -13.6089 O   0  0  0  0  0  0  0  0  0  0  0  0
   22.8725   -3.3001  -15.2393 O   0  0  0  0  0  0  0  0  0  0  0  0
  2  1  1  1
  2  9  1  0
  3  4  1  0
  3  2  1  0
  4  8  1  0
  5  4  2  0
  5  6  1  0
  6  7  1  0
  8  7  2  0
  9 10  2  0
 12 11  1  6
 12 14  1  0
 13 12  1  0
 14 16  1  0
 14 15  1  6
 15  9  1  0
 16 17  2  0
 16 23  1  0
 18 19  1  0
 19 21  1  0
 20 19  2  0
 22 21  1  1
 22 24  1  0
 23 22  1  0
 24 25  2  0
 24 26  1  0
M  END
$$$$
