HTN.pdb
     RDKit          3D

 26 26  0  0  1  0  0  0  0  0999 V2000
   27.7484  -36.0314   -7.4303 N   0  0  0  0  0  0  0  0  0  0  0  0
   28.6468  -35.0215   -6.9193 C   0  0  1  0  0  0  0  0  0  0  0  0
   27.8380  -33.9021   -6.3644 C   0  0  0  0  0  0  0  0  0  0  0  0
   27.0879  -33.1425   -7.3869 C   0  0  0  0  0  0  0  0  0  0  0  0
   27.5514  -32.6386   -8.5765 C   0  0  0  0  0  0  0  0  0  0  0  0
   26.5142  -32.0273   -9.1928 N   0  0  0  0  0  0  0  0  0  0  0  0
   25.4236  -32.1351   -8.4263 C   0  0  0  0  0  0  0  0  0  0  0  0
   25.7666  -32.8143   -7.3234 N   0  0  0  0  0  0  0  0  0  0  0  0
   29.5785  -35.6602   -5.9513 C   0  0  0  0  0  0  0  0  0  0  0  0
   29.1936  -36.6145   -5.2113 O   0  0  0  0  0  0  0  0  0  0  0  0
   33.4754  -33.7730   -5.1848 C   0  0  0  0  0  0  0  0  0  0  0  0
   33.2583  -35.2646   -5.1526 C   0  0  1  0  0  0  0  0  0  0  0  0
   34.2120  -35.7934   -4.3078 O   0  0  0  0  0  0  0  0  0  0  0  0
   31.8733  -35.6725   -4.8287 C   0  0  2  0  0  0  0  0  0  0  0  0
   30.9156  -35.2209   -5.8278 N   0  0  0  0  0  0  0  0  0  0  0  0
   31.4210  -35.4602   -3.4386 C   0  0  0  0  0  0  0  0  0  0  0  0
   30.7006  -34.4563   -3.0888 O   0  0  0  0  0  0  0  0  0  0  0  0
   28.6400  -37.6168    1.2708 N   0  0  0  0  0  0  0  0  0  0  0  0
   29.5910  -36.7943    0.6591 C   0  0  0  0  0  0  0  0  0  0  0  0
   29.8292  -35.6760    1.2463 O   0  0  0  0  0  0  0  0  0  0  0  0
   30.3528  -37.0359   -0.5589 C   0  0  0  0  0  0  0  0  0  0  0  0
   31.3276  -35.9998   -0.9752 C   0  0  2  0  0  0  0  0  0  0  0  0
   31.7215  -36.3227   -2.3523 N   0  0  0  0  0  0  0  0  0  0  0  0
   32.5410  -36.0636   -0.1410 C   0  0  0  0  0  0  0  0  0  0  0  0
   33.6526  -36.4291   -0.5495 O   0  0  0  0  0  0  0  0  0  0  0  0
   32.4911  -35.6946    1.2235 O   0  0  0  0  0  0  0  0  0  0  0  0
  2  1  1  1
  2  9  1  0
  3  4  1  0
  3  2  1  0
  4  8  1  0
  5  4  2  0
  5  6  1  0
  6  7  1  0
  8  7  2  0
  9 10  2  0
 12 11  1  1
 12 14  1  0
 13 12  1  0
 14 16  1  0
 14 15  1  6
 15  9  1  0
 16 17  2  0
 16 23  1  0
 18 19  1  0
 19 21  1  0
 20 19  2  0
 22 21  1  1
 22 24  1  0
 23 22  1  0
 24 25  2  0
 24 26  1  0
M  END
$$$$
