HTN.pdb
     RDKit          3D

 26 26  0  0  1  0  0  0  0  0999 V2000
   21.0124  -22.5768  -14.7152 N   0  0  0  0  0  0  0  0  0  0  0  0
   20.8409  -21.1578  -14.5027 C   0  0  1  0  0  0  0  0  0  0  0  0
   19.8287  -20.9563  -13.4303 C   0  0  0  0  0  0  0  0  0  0  0  0
   18.4767  -21.4356  -13.7867 C   0  0  0  0  0  0  0  0  0  0  0  0
   17.7349  -21.1266  -14.8996 C   0  0  0  0  0  0  0  0  0  0  0  0
   16.5663  -21.8018  -14.8118 N   0  0  0  0  0  0  0  0  0  0  0  0
   16.5580  -22.5189  -13.6830 C   0  0  0  0  0  0  0  0  0  0  0  0
   17.7203  -22.3002  -13.0531 N   0  0  0  0  0  0  0  0  0  0  0  0
   22.1724  -20.5540  -14.2280 C   0  0  0  0  0  0  0  0  0  0  0  0
   22.6750  -20.5895  -13.0649 O   0  0  0  0  0  0  0  0  0  0  0  0
   25.3189  -21.6539  -14.8756 C   0  0  0  0  0  0  0  0  0  0  0  0
   25.2879  -20.3397  -15.6138 C   0  0  1  0  0  0  0  0  0  0  0  0
   25.1893  -20.6336  -16.9579 O   0  0  0  0  0  0  0  0  0  0  0  0
   24.2616  -19.3911  -15.1273 C   0  0  2  0  0  0  0  0  0  0  0  0
   22.9125  -19.9232  -15.2529 N   0  0  0  0  0  0  0  0  0  0  0  0
   24.3860  -17.9867  -15.5682 C   0  0  0  0  0  0  0  0  0  0  0  0
   23.5062  -17.4100  -16.3046 O   0  0  0  0  0  0  0  0  0  0  0  0
   26.4924  -12.9776  -16.4851 N   0  0  0  0  0  0  0  0  0  0  0  0
   27.0462  -13.7587  -15.4660 C   0  0  0  0  0  0  0  0  0  0  0  0
   28.0150  -13.2253  -14.8111 O   0  0  0  0  0  0  0  0  0  0  0  0
   26.6701  -15.1012  -15.0438 C   0  0  0  0  0  0  0  0  0  0  0  0
   25.5814  -15.7754  -15.7905 C   0  0  2  0  0  0  0  0  0  0  0  0
   25.4672  -17.1298  -15.2351 N   0  0  0  0  0  0  0  0  0  0  0  0
   25.9347  -15.9092  -17.2151 C   0  0  0  0  0  0  0  0  0  0  0  0
   26.6884  -16.7816  -17.6702 O   0  0  0  0  0  0  0  0  0  0  0  0
   25.4070  -15.0095  -18.1705 O   0  0  0  0  0  0  0  0  0  0  0  0
  2  1  1  1
  2  9  1  0
  3  4  1  0
  3  2  1  0
  4  8  1  0
  5  4  2  0
  5  6  1  0
  6  7  1  0
  8  7  2  0
  9 10  2  0
 12 11  1  1
 12 14  1  0
 13 12  1  0
 14 16  1  0
 14 15  1  6
 15  9  1  0
 16 17  2  0
 16 23  1  0
 18 19  1  0
 19 21  1  0
 20 19  2  0
 22 21  1  1
 22 24  1  0
 23 22  1  0
 24 25  2  0
 24 26  1  0
M  END
$$$$
