HTN.pdb
     RDKit          3D

 26 26  0  0  1  0  0  0  0  0999 V2000
   18.9457  -13.2764  -17.6289 N   0  0  0  0  0  0  0  0  0  0  0  0
   18.6058  -12.2406  -16.6803 C   0  0  1  0  0  0  0  0  0  0  0  0
   18.2255  -12.8815  -15.3920 C   0  0  0  0  0  0  0  0  0  0  0  0
   16.9789  -13.6727  -15.4630 C   0  0  0  0  0  0  0  0  0  0  0  0
   15.7079  -13.2825  -15.1219 C   0  0  0  0  0  0  0  0  0  0  0  0
   14.8822  -14.3268  -15.3604 N   0  0  0  0  0  0  0  0  0  0  0  0
   15.5975  -15.3510  -15.8378 C   0  0  0  0  0  0  0  0  0  0  0  0
   16.8771  -14.9587  -15.9030 N   0  0  0  0  0  0  0  0  0  0  0  0
   19.7425  -11.2850  -16.5924 C   0  0  0  0  0  0  0  0  0  0  0  0
   20.9069  -11.6856  -16.2924 O   0  0  0  0  0  0  0  0  0  0  0  0
   21.5573   -9.6359  -19.0338 C   0  0  0  0  0  0  0  0  0  0  0  0
   21.0096   -8.5026  -18.2039 C   0  0  1  0  0  0  0  0  0  0  0  0
   20.0080   -7.9081  -18.9429 O   0  0  0  0  0  0  0  0  0  0  0  0
   20.5999   -8.8910  -16.8360 C   0  0  2  0  0  0  0  0  0  0  0  0
   19.5567   -9.9062  -16.8381 N   0  0  0  0  0  0  0  0  0  0  0  0
   20.3569   -7.7965  -15.8742 C   0  0  0  0  0  0  0  0  0  0  0  0
   19.1898   -7.3040  -15.6637 O   0  0  0  0  0  0  0  0  0  0  0  0
   19.3866   -7.9183  -12.4582 N   0  0  0  0  0  0  0  0  0  0  0  0
   20.6202   -7.3839  -12.0734 C   0  0  0  0  0  0  0  0  0  0  0  0
   21.0368   -7.7149  -10.9035 O   0  0  0  0  0  0  0  0  0  0  0  0
   21.5012   -6.4994  -12.8241 C   0  0  0  0  0  0  0  0  0  0  0  0
   21.0566   -6.0703  -14.1715 C   0  0  2  0  0  0  0  0  0  0  0  0
   21.3622   -7.1769  -15.0868 N   0  0  0  0  0  0  0  0  0  0  0  0
   21.8258   -4.8970  -14.6228 C   0  0  0  0  0  0  0  0  0  0  0  0
   22.8130   -4.9526  -15.3702 O   0  0  0  0  0  0  0  0  0  0  0  0
   21.4572   -3.5965  -14.2060 O   0  0  0  0  0  0  0  0  0  0  0  0
  2  1  1  6
  2  9  1  0
  3  4  1  0
  3  2  1  0
  4  8  1  0
  5  4  2  0
  5  6  1  0
  6  7  1  0
  8  7  2  0
  9 10  2  0
 12 11  1  6
 12 14  1  0
 13 12  1  0
 14 16  1  0
 14 15  1  6
 15  9  1  0
 16 17  2  0
 16 23  1  0
 18 19  1  0
 19 21  1  0
 20 19  2  0
 22 21  1  1
 22 24  1  0
 23 22  1  0
 24 25  2  0
 24 26  1  0
M  END
$$$$
