HTN.pdb
     RDKit          3D

 26 26  0  0  1  0  0  0  0  0999 V2000
   17.7172  -11.8503  -15.4156 N   0  0  0  0  0  0  0  0  0  0  0  0
   17.9918  -10.6096  -16.1038 C   0  0  1  0  0  0  0  0  0  0  0  0
   16.7092  -10.0565  -16.6175 C   0  0  0  0  0  0  0  0  0  0  0  0
   16.0400  -10.9227  -17.6109 C   0  0  0  0  0  0  0  0  0  0  0  0
   16.2201  -10.9463  -18.9715 C   0  0  0  0  0  0  0  0  0  0  0  0
   15.4074  -11.9033  -19.4744 N   0  0  0  0  0  0  0  0  0  0  0  0
   14.7298  -12.4739  -18.4726 C   0  0  0  0  0  0  0  0  0  0  0  0
   15.1109  -11.8806  -17.3333 N   0  0  0  0  0  0  0  0  0  0  0  0
   18.7370   -9.7100  -15.1826 C   0  0  0  0  0  0  0  0  0  0  0  0
   18.3120   -9.4833  -14.0103 O   0  0  0  0  0  0  0  0  0  0  0  0
   22.0380   -9.9146  -13.6631 C   0  0  0  0  0  0  0  0  0  0  0  0
   22.0472   -8.6312  -14.4542 C   0  0  1  0  0  0  0  0  0  0  0  0
   22.8749   -8.8314  -15.5394 O   0  0  0  0  0  0  0  0  0  0  0  0
   20.7030   -8.1227  -14.8070 C   0  0  2  0  0  0  0  0  0  0  0  0
   19.9360   -9.0823  -15.5880 N   0  0  0  0  0  0  0  0  0  0  0  0
   20.6250   -6.7419  -15.3261 C   0  0  0  0  0  0  0  0  0  0  0  0
   20.5427   -6.4753  -16.5796 O   0  0  0  0  0  0  0  0  0  0  0  0
   20.1435   -1.2811  -15.6031 N   0  0  0  0  0  0  0  0  0  0  0  0
   19.5656   -2.0001  -14.5523 C   0  0  0  0  0  0  0  0  0  0  0  0
   18.7913   -1.3333  -13.7728 O   0  0  0  0  0  0  0  0  0  0  0  0
   19.7227   -3.4101  -14.2216 C   0  0  0  0  0  0  0  0  0  0  0  0
   20.5903   -4.2286  -15.1017 C   0  0  2  0  0  0  0  0  0  0  0  0
   20.6298   -5.5752  -14.5179 N   0  0  0  0  0  0  0  0  0  0  0  0
   21.9684   -3.7060  -15.1034 C   0  0  0  0  0  0  0  0  0  0  0  0
   22.7901   -3.8962  -14.1951 O   0  0  0  0  0  0  0  0  0  0  0  0
   22.4377   -2.9297  -16.1886 O   0  0  0  0  0  0  0  0  0  0  0  0
  2  1  1  1
  2  9  1  0
  3  4  1  0
  3  2  1  0
  4  8  1  0
  5  4  2  0
  5  6  1  0
  6  7  1  0
  8  7  2  0
  9 10  2  0
 12 11  1  6
 12 14  1  0
 13 12  1  0
 14 16  1  0
 14 15  1  6
 15  9  1  0
 16 17  2  0
 16 23  1  0
 18 19  1  0
 19 21  1  0
 20 19  2  0
 22 21  1  1
 22 24  1  0
 23 22  1  0
 24 25  2  0
 24 26  1  0
M  END
$$$$
