HTN.pdb
     RDKit          3D

 26 26  0  0  1  0  0  0  0  0999 V2000
   37.3783   -9.0820  -15.1439 N   0  0  0  0  0  0  0  0  0  0  0  0
   36.1839   -8.4001  -14.7004 C   0  0  1  0  0  0  0  0  0  0  0  0
   36.5843   -7.2192  -13.8878 C   0  0  0  0  0  0  0  0  0  0  0  0
   37.5026   -7.5425  -12.7756 C   0  0  0  0  0  0  0  0  0  0  0  0
   38.7341   -6.9981  -12.5090 C   0  0  0  0  0  0  0  0  0  0  0  0
   39.2070   -7.5875  -11.3872 N   0  0  0  0  0  0  0  0  0  0  0  0
   38.3109   -8.4783  -10.9491 C   0  0  0  0  0  0  0  0  0  0  0  0
   37.2690   -8.4558  -11.7912 N   0  0  0  0  0  0  0  0  0  0  0  0
   35.3464   -8.0868  -15.8892 C   0  0  0  0  0  0  0  0  0  0  0  0
   35.8701   -7.6446  -16.9553 O   0  0  0  0  0  0  0  0  0  0  0  0
   32.7882  -10.4169  -17.5181 C   0  0  0  0  0  0  0  0  0  0  0  0
   32.1032   -9.1062  -17.2247 C   0  0  1  0  0  0  0  0  0  0  0  0
   31.1954   -9.3424  -16.2133 O   0  0  0  0  0  0  0  0  0  0  0  0
   33.0271   -7.9822  -16.9551 C   0  0  2  0  0  0  0  0  0  0  0  0
   33.9458   -8.2709  -15.8635 N   0  0  0  0  0  0  0  0  0  0  0  0
   32.4346   -6.6308  -16.8867 C   0  0  0  0  0  0  0  0  0  0  0  0
   32.3960   -5.9440  -15.8023 O   0  0  0  0  0  0  0  0  0  0  0  0
   32.6243   -1.2653  -18.8887 N   0  0  0  0  0  0  0  0  0  0  0  0
   32.1585   -2.2325  -17.9927 C   0  0  0  0  0  0  0  0  0  0  0  0
   31.3653   -1.8123  -17.0728 O   0  0  0  0  0  0  0  0  0  0  0  0
   32.4516   -3.6591  -17.9622 C   0  0  0  0  0  0  0  0  0  0  0  0
   31.3051   -4.5928  -17.8559 C   0  0  2  0  0  0  0  0  0  0  0  0
   31.8538   -5.9483  -17.9873 N   0  0  0  0  0  0  0  0  0  0  0  0
   30.3626   -4.3865  -18.9699 C   0  0  0  0  0  0  0  0  0  0  0  0
   30.4754   -4.9095  -20.0880 O   0  0  0  0  0  0  0  0  0  0  0  0
   29.2367   -3.5459  -18.8080 O   0  0  0  0  0  0  0  0  0  0  0  0
  2  1  1  6
  2  9  1  0
  3  4  1  0
  3  2  1  0
  4  8  1  0
  5  4  2  0
  5  6  1  0
  6  7  1  0
  8  7  2  0
  9 10  2  0
 12 11  1  1
 12 14  1  0
 13 12  1  0
 14 16  1  0
 14 15  1  1
 15  9  1  0
 16 17  2  0
 16 23  1  0
 18 19  1  0
 19 21  1  0
 20 19  2  0
 22 21  1  6
 22 24  1  0
 23 22  1  0
 24 25  2  0
 24 26  1  0
M  END
$$$$
