HTN.pdb
     RDKit          3D

 26 26  0  0  1  0  0  0  0  0999 V2000
   18.3596  -14.3545  -17.0469 N   0  0  0  0  0  0  0  0  0  0  0  0
   17.9638  -13.2084  -16.2607 C   0  0  1  0  0  0  0  0  0  0  0  0
   17.7592  -13.6451  -14.8527 C   0  0  0  0  0  0  0  0  0  0  0  0
   16.6796  -14.6411  -14.6866 C   0  0  0  0  0  0  0  0  0  0  0  0
   15.3242  -14.4432  -14.7748 C   0  0  0  0  0  0  0  0  0  0  0  0
   14.7227  -15.6359  -14.5628 N   0  0  0  0  0  0  0  0  0  0  0  0
   15.6586  -16.5665  -14.3464 C   0  0  0  0  0  0  0  0  0  0  0  0
   16.8543  -15.9664  -14.4207 N   0  0  0  0  0  0  0  0  0  0  0  0
   18.9774  -12.1347  -16.4419 C   0  0  0  0  0  0  0  0  0  0  0  0
   20.2165  -12.4006  -16.4238 O   0  0  0  0  0  0  0  0  0  0  0  0
   19.2942  -10.1803  -19.4473 C   0  0  0  0  0  0  0  0  0  0  0  0
   19.1934   -9.1576  -18.3441 C   0  0  1  0  0  0  0  0  0  0  0  0
   17.9599   -8.5522  -18.4660 O   0  0  0  0  0  0  0  0  0  0  0  0
   19.4728   -9.6897  -16.9918 C   0  0  2  0  0  0  0  0  0  0  0  0
   18.5888  -10.7905  -16.6369 N   0  0  0  0  0  0  0  0  0  0  0  0
   19.6508   -8.7021  -15.9078 C   0  0  0  0  0  0  0  0  0  0  0  0
   18.8166   -8.5764  -14.9396 O   0  0  0  0  0  0  0  0  0  0  0  0
   21.6012   -4.4431  -13.0064 N   0  0  0  0  0  0  0  0  0  0  0  0
   22.4677   -5.1220  -13.8687 C   0  0  0  0  0  0  0  0  0  0  0  0
   23.6957   -4.7434  -13.8457 O   0  0  0  0  0  0  0  0  0  0  0  0
   22.1647   -6.2066  -14.7928 C   0  0  0  0  0  0  0  0  0  0  0  0
   20.7816   -6.7396  -14.7950 C   0  0  2  0  0  0  0  0  0  0  0  0
   20.7412   -7.7987  -15.8111 N   0  0  0  0  0  0  0  0  0  0  0  0
   19.8240   -5.6967  -15.2040 C   0  0  0  0  0  0  0  0  0  0  0  0
   19.3566   -4.8380  -14.4421 O   0  0  0  0  0  0  0  0  0  0  0  0
   19.3743   -5.6240  -16.5432 O   0  0  0  0  0  0  0  0  0  0  0  0
  2  1  1  6
  2  9  1  0
  3  4  1  0
  3  2  1  0
  4  8  1  0
  5  4  2  0
  5  6  1  0
  6  7  1  0
  8  7  2  0
  9 10  2  0
 12 11  1  6
 12 14  1  0
 13 12  1  0
 14 16  1  0
 14 15  1  1
 15  9  1  0
 16 17  2  0
 16 23  1  0
 18 19  1  0
 19 21  1  0
 20 19  2  0
 22 21  1  6
 22 24  1  0
 23 22  1  0
 24 25  2  0
 24 26  1  0
M  END
$$$$
