HTN.pdb
     RDKit          3D

 26 26  0  0  1  0  0  0  0  0999 V2000
   18.8150  -13.5114  -15.9520 N   0  0  0  0  0  0  0  0  0  0  0  0
   18.8803  -12.3021  -16.7404 C   0  0  1  0  0  0  0  0  0  0  0  0
   17.5654  -12.0971  -17.4068 C   0  0  0  0  0  0  0  0  0  0  0  0
   17.2054  -13.1672  -18.3608 C   0  0  0  0  0  0  0  0  0  0  0  0
   18.0409  -14.0533  -18.9939 C   0  0  0  0  0  0  0  0  0  0  0  0
   17.2743  -14.8577  -19.7652 N   0  0  0  0  0  0  0  0  0  0  0  0
   15.9924  -14.5008  -19.6318 C   0  0  0  0  0  0  0  0  0  0  0  0
   15.9433  -13.4705  -18.7767 N   0  0  0  0  0  0  0  0  0  0  0  0
   19.3173  -11.1846  -15.8612 C   0  0  0  0  0  0  0  0  0  0  0  0
   18.7160  -10.9404  -14.7725 O   0  0  0  0  0  0  0  0  0  0  0  0
   22.4891  -10.8933  -14.2051 C   0  0  0  0  0  0  0  0  0  0  0  0
   22.3485   -9.5906  -14.9510 C   0  0  1  0  0  0  0  0  0  0  0  0
   23.2831   -9.6032  -15.9656 O   0  0  0  0  0  0  0  0  0  0  0  0
   20.9716   -9.2924  -15.4035 C   0  0  2  0  0  0  0  0  0  0  0  0
   20.4116  -10.3638  -16.2146 N   0  0  0  0  0  0  0  0  0  0  0  0
   20.7255   -7.9442  -15.9546 C   0  0  0  0  0  0  0  0  0  0  0  0
   20.6799   -7.7077  -17.2160 O   0  0  0  0  0  0  0  0  0  0  0  0
   18.1475   -2.9889  -16.7520 N   0  0  0  0  0  0  0  0  0  0  0  0
   18.8221   -3.4904  -15.6346 C   0  0  0  0  0  0  0  0  0  0  0  0
   19.2430   -2.6160  -14.7917 O   0  0  0  0  0  0  0  0  0  0  0  0
   19.1123   -4.8770  -15.2949 C   0  0  0  0  0  0  0  0  0  0  0  0
   20.3907   -5.4489  -15.7805 C   0  0  2  0  0  0  0  0  0  0  0  0
   20.5137   -6.7794  -15.1717 N   0  0  0  0  0  0  0  0  0  0  0  0
   21.5315   -4.6411  -15.3134 C   0  0  0  0  0  0  0  0  0  0  0  0
   22.1395   -4.8370  -14.2512 O   0  0  0  0  0  0  0  0  0  0  0  0
   22.0062   -3.5579  -16.0893 O   0  0  0  0  0  0  0  0  0  0  0  0
  2  1  1  1
  2  9  1  0
  3  4  1  0
  3  2  1  0
  4  8  1  0
  5  4  2  0
  5  6  1  0
  6  7  1  0
  8  7  2  0
  9 10  2  0
 12 11  1  6
 12 14  1  0
 13 12  1  0
 14 16  1  0
 14 15  1  6
 15  9  1  0
 16 17  2  0
 16 23  1  0
 18 19  1  0
 19 21  1  0
 20 19  2  0
 22 21  1  1
 22 24  1  0
 23 22  1  0
 24 25  2  0
 24 26  1  0
M  END
$$$$
