HTN.pdb
     RDKit          3D

 26 26  0  0  1  0  0  0  0  0999 V2000
   25.4576  -27.9681  -17.0896 N   0  0  0  0  0  0  0  0  0  0  0  0
   26.7265  -27.6422  -17.6994 C   0  0  1  0  0  0  0  0  0  0  0  0
   27.5033  -26.7923  -16.7564 C   0  0  0  0  0  0  0  0  0  0  0  0
   26.8939  -25.4696  -16.5032 C   0  0  0  0  0  0  0  0  0  0  0  0
   26.1592  -25.0702  -15.4147 C   0  0  0  0  0  0  0  0  0  0  0  0
   25.8153  -23.7763  -15.6066 N   0  0  0  0  0  0  0  0  0  0  0  0
   26.3116  -23.3597  -16.7764 C   0  0  0  0  0  0  0  0  0  0  0  0
   26.9706  -24.3875  -17.3284 N   0  0  0  0  0  0  0  0  0  0  0  0
   27.3992  -28.9067  -18.1016 C   0  0  0  0  0  0  0  0  0  0  0  0
   27.4031  -29.9141  -17.3325 O   0  0  0  0  0  0  0  0  0  0  0  0
   28.8606  -31.8323  -21.7638 C   0  0  0  0  0  0  0  0  0  0  0  0
   28.3729  -30.4967  -21.2626 C   0  0  1  0  0  0  0  0  0  0  0  0
   27.0204  -30.4354  -21.5269 O   0  0  0  0  0  0  0  0  0  0  0  0
   28.7256  -30.2078  -19.8548 C   0  0  2  0  0  0  0  0  0  0  0  0
   28.0535  -29.0199  -19.3486 N   0  0  0  0  0  0  0  0  0  0  0  0
   30.1571  -30.2742  -19.4965 C   0  0  0  0  0  0  0  0  0  0  0  0
   30.9652  -29.2935  -19.6820 O   0  0  0  0  0  0  0  0  0  0  0  0
   34.7882  -31.8086  -17.0457 N   0  0  0  0  0  0  0  0  0  0  0  0
   33.7176  -32.7080  -17.0560 C   0  0  0  0  0  0  0  0  0  0  0  0
   33.8273  -33.7227  -16.2748 O   0  0  0  0  0  0  0  0  0  0  0  0
   32.4884  -32.6488  -17.8356 C   0  0  0  0  0  0  0  0  0  0  0  0
   32.2282  -31.4139  -18.6131 C   0  0  2  0  0  0  0  0  0  0  0  0
   30.7916  -31.4036  -18.9167 N   0  0  0  0  0  0  0  0  0  0  0  0
   32.9519  -31.4463  -19.8965 C   0  0  0  0  0  0  0  0  0  0  0  0
   33.9940  -30.8165  -20.1284 O   0  0  0  0  0  0  0  0  0  0  0  0
   32.4701  -32.2317  -20.9697 O   0  0  0  0  0  0  0  0  0  0  0  0
  2  1  1  1
  2  9  1  0
  3  4  1  0
  3  2  1  0
  4  8  1  0
  5  4  2  0
  5  6  1  0
  6  7  1  0
  8  7  2  0
  9 10  2  0
 12 11  1  1
 12 14  1  0
 13 12  1  0
 14 16  1  0
 14 15  1  6
 15  9  1  0
 16 17  2  0
 16 23  1  0
 18 19  1  0
 19 21  1  0
 20 19  2  0
 22 21  1  1
 22 24  1  0
 23 22  1  0
 24 25  2  0
 24 26  1  0
M  END
$$$$
