HTN.pdb
     RDKit          3D

 26 26  0  0  1  0  0  0  0  0999 V2000
   22.3274  -21.5155  -14.0493 N   0  0  0  0  0  0  0  0  0  0  0  0
   23.1366  -20.5483  -14.7550 C   0  0  1  0  0  0  0  0  0  0  0  0
   23.0545  -19.2462  -14.0387 C   0  0  0  0  0  0  0  0  0  0  0  0
   21.6857  -18.6940  -13.9574 C   0  0  0  0  0  0  0  0  0  0  0  0
   20.9427  -18.1220  -14.9598 C   0  0  0  0  0  0  0  0  0  0  0  0
   19.7477  -17.7707  -14.4326 N   0  0  0  0  0  0  0  0  0  0  0  0
   19.7242  -18.1055  -13.1380 C   0  0  0  0  0  0  0  0  0  0  0  0
   20.9031  -18.6692  -12.8418 N   0  0  0  0  0  0  0  0  0  0  0  0
   24.5119  -21.0961  -14.9019 C   0  0  0  0  0  0  0  0  0  0  0  0
   25.2270  -21.3395  -13.8842 O   0  0  0  0  0  0  0  0  0  0  0  0
   25.3815  -24.0590  -17.4433 C   0  0  0  0  0  0  0  0  0  0  0  0
   26.2908  -23.4508  -16.4057 C   0  0  1  0  0  0  0  0  0  0  0  0
   27.5179  -24.0681  -16.5323 O   0  0  0  0  0  0  0  0  0  0  0  0
   26.3531  -21.9728  -16.4406 C   0  0  2  0  0  0  0  0  0  0  0  0
   25.0599  -21.3582  -16.1774 N   0  0  0  0  0  0  0  0  0  0  0  0
   27.0788  -21.3601  -17.5719 C   0  0  0  0  0  0  0  0  0  0  0  0
   26.4798  -20.7763  -18.5463 O   0  0  0  0  0  0  0  0  0  0  0  0
   32.7175  -19.8982  -19.6317 N   0  0  0  0  0  0  0  0  0  0  0  0
   31.3482  -19.6863  -19.4438 C   0  0  0  0  0  0  0  0  0  0  0  0
   30.7866  -18.8724  -20.2648 O   0  0  0  0  0  0  0  0  0  0  0  0
   30.4683  -20.2676  -18.4388 C   0  0  0  0  0  0  0  0  0  0  0  0
   29.1476  -20.7673  -18.8899 C   0  0  2  0  0  0  0  0  0  0  0  0
   28.4913  -21.3439  -17.7098 N   0  0  0  0  0  0  0  0  0  0  0  0
   29.3116  -21.8484  -19.8780 C   0  0  0  0  0  0  0  0  0  0  0  0
   29.7080  -21.6800  -21.0403 O   0  0  0  0  0  0  0  0  0  0  0  0
   29.0112  -23.1863  -19.5309 O   0  0  0  0  0  0  0  0  0  0  0  0
  2  1  1  1
  2  9  1  0
  3  4  1  0
  3  2  1  0
  4  8  1  0
  5  4  2  0
  5  6  1  0
  6  7  1  0
  8  7  2  0
  9 10  2  0
 12 11  1  6
 12 14  1  0
 13 12  1  0
 14 16  1  0
 14 15  1  6
 15  9  1  0
 16 17  2  0
 16 23  1  0
 18 19  1  0
 19 21  1  0
 20 19  2  0
 22 21  1  1
 22 24  1  0
 23 22  1  0
 24 25  2  0
 24 26  1  0
M  END
$$$$
