HTN.pdb
     RDKit          3D

 26 26  0  0  1  0  0  0  0  0999 V2000
   18.9983  -13.2377  -17.9494 N   0  0  0  0  0  0  0  0  0  0  0  0
   20.0602  -12.2839  -17.7234 C   0  0  1  0  0  0  0  0  0  0  0  0
   20.9761  -12.3049  -18.8964 C   0  0  0  0  0  0  0  0  0  0  0  0
   21.6555  -13.6016  -19.1011 C   0  0  0  0  0  0  0  0  0  0  0  0
   21.1521  -14.7388  -19.6822 C   0  0  0  0  0  0  0  0  0  0  0  0
   22.1293  -15.6736  -19.6641 N   0  0  0  0  0  0  0  0  0  0  0  0
   23.2213  -15.1551  -19.0920 C   0  0  0  0  0  0  0  0  0  0  0  0
   22.9391  -13.8917  -18.7464 N   0  0  0  0  0  0  0  0  0  0  0  0
   19.4534  -10.9585  -17.4268 C   0  0  0  0  0  0  0  0  0  0  0  0
   18.4240  -10.5605  -18.0500 O   0  0  0  0  0  0  0  0  0  0  0  0
   17.9211   -9.8792  -14.3412 C   0  0  0  0  0  0  0  0  0  0  0  0
   18.9897   -8.8523  -14.6183 C   0  0  1  0  0  0  0  0  0  0  0  0
   19.9925   -9.0530  -13.6926 O   0  0  0  0  0  0  0  0  0  0  0  0
   19.4606   -8.8255  -16.0209 C   0  0  2  0  0  0  0  0  0  0  0  0
   20.0073  -10.1061  -16.4456 N   0  0  0  0  0  0  0  0  0  0  0  0
   20.2828   -7.6680  -16.4287 C   0  0  0  0  0  0  0  0  0  0  0  0
   21.5488   -7.7515  -16.6274 O   0  0  0  0  0  0  0  0  0  0  0  0
   20.0340   -2.0220  -18.8772 N   0  0  0  0  0  0  0  0  0  0  0  0
   20.6435   -3.1935  -18.4176 C   0  0  0  0  0  0  0  0  0  0  0  0
   21.9256   -3.1645  -18.3310 O   0  0  0  0  0  0  0  0  0  0  0  0
   20.0180   -4.4479  -18.0208 C   0  0  0  0  0  0  0  0  0  0  0  0
   20.6686   -5.2272  -16.9407 C   0  0  2  0  0  0  0  0  0  0  0  0
   19.7804   -6.3584  -16.6454 N   0  0  0  0  0  0  0  0  0  0  0  0
   20.7803   -4.4196  -15.7129 C   0  0  0  0  0  0  0  0  0  0  0  0
   19.9742   -4.4610  -14.7722 O   0  0  0  0  0  0  0  0  0  0  0  0
   21.8593   -3.5209  -15.5435 O   0  0  0  0  0  0  0  0  0  0  0  0
  2  1  1  6
  2  9  1  0
  3  4  1  0
  3  2  1  0
  4  8  1  0
  5  4  2  0
  5  6  1  0
  6  7  1  0
  8  7  2  0
  9 10  2  0
 12 11  1  6
 12 14  1  0
 13 12  1  0
 14 16  1  0
 14 15  1  1
 15  9  1  0
 16 17  2  0
 16 23  1  0
 18 19  1  0
 19 21  1  0
 20 19  2  0
 22 21  1  6
 22 24  1  0
 23 22  1  0
 24 25  2  0
 24 26  1  0
M  END
$$$$
