YEG.pdb
     RDKit          3D

 26 26  0  0  1  0  0  0  0  0999 V2000
   28.6034  -20.2242   -5.8963 O   0  0  0  0  0  0  0  0  0  0  0  0
   28.1592  -20.2002   -7.2087 C   0  0  0  0  0  0  0  0  0  0  0  0
   26.8256  -19.9424   -7.4834 C   0  0  0  0  0  0  0  0  0  0  0  0
   26.3455  -19.9093   -8.7588 C   0  0  0  0  0  0  0  0  0  0  0  0
   27.1775  -20.1342   -9.8490 C   0  0  0  0  0  0  0  0  0  0  0  0
   26.6691  -20.1002  -11.2320 C   0  0  0  0  0  0  0  0  0  0  0  0
   25.7405  -21.2506  -11.5473 C   0  0  2  0  0  0  0  0  0  0  0  0
   26.5006  -22.4579  -11.7785 N   0  0  0  0  0  0  0  0  0  0  0  0
   24.9053  -20.9738  -12.7382 C   0  0  0  0  0  0  0  0  0  0  0  0
   25.4580  -20.8374  -13.8781 O   0  0  0  0  0  0  0  0  0  0  0  0
   28.5080  -20.3911   -9.5697 C   0  0  0  0  0  0  0  0  0  0  0  0
   28.9930  -20.4249   -8.2877 C   0  0  0  0  0  0  0  0  0  0  0  0
   23.4940  -20.8589  -12.6218 N   0  0  0  0  0  0  0  0  0  0  0  0
   22.6761  -20.6957  -13.8409 C   0  0  1  0  0  0  0  0  0  0  0  0
   21.9353  -21.9868  -14.0376 C   0  0  0  0  0  0  0  0  0  0  0  0
   22.8136  -23.1661  -14.3282 C   0  0  0  0  0  0  0  0  0  0  0  0
   23.2318  -23.2086  -15.7332 C   0  0  0  0  0  0  0  0  0  0  0  0
   24.4183  -23.1462  -16.1240 O   0  0  0  0  0  0  0  0  0  0  0  0
   21.7025  -19.6187  -13.5571 C   0  0  0  0  0  0  0  0  0  0  0  0
   21.0720  -19.5387  -12.4545 O   0  0  0  0  0  0  0  0  0  0  0  0
   22.2177  -23.3283  -16.7073 O   0  0  0  0  0  0  0  0  0  0  0  0
   21.4379  -18.6222  -14.5286 N   0  0  0  0  0  0  0  0  0  0  0  0
   20.4016  -18.7790  -15.5266 C   0  0  0  0  0  0  0  0  0  0  0  0
   19.0744  -18.9276  -14.8889 C   0  0  0  0  0  0  0  0  0  0  0  0
   18.9337  -19.6074  -13.8309 O   0  0  0  0  0  0  0  0  0  0  0  0
   17.9231  -18.3448  -15.3971 O   0  0  0  0  0  0  0  0  0  0  0  0
  2  3  2  0
  2  1  1  0
  4  3  1  0
  5  4  2  0
  6  5  1  0
  7  6  1  0
  7  9  1  0
  7  8  1  6
  9 13  1  0
  9 10  2  0
 11  5  1  0
 11 12  2  0
 12  2  1  0
 13 14  1  0
 14 15  1  1
 15 16  1  0
 16 17  1  0
 17 21  1  0
 18 17  2  0
 19 22  1  0
 19 14  1  0
 20 19  2  0
 23 22  1  0
 24 26  1  0
 24 23  1  0
 25 24  2  0
M  END
$$$$
