YEG.pdb
     RDKit          3D

 26 26  0  0  1  0  0  0  0  0999 V2000
   28.9095  -19.6722   -5.3742 O   0  0  0  0  0  0  0  0  0  0  0  0
   28.3816  -19.7701   -6.6517 C   0  0  0  0  0  0  0  0  0  0  0  0
   29.1702  -20.2336   -7.6927 C   0  0  0  0  0  0  0  0  0  0  0  0
   28.6922  -20.3459   -8.9644 C   0  0  0  0  0  0  0  0  0  0  0  0
   27.3834  -19.9983   -9.2767 C   0  0  0  0  0  0  0  0  0  0  0  0
   26.8563  -20.1164  -10.6479 C   0  0  0  0  0  0  0  0  0  0  0  0
   26.1934  -21.4491  -10.9121 C   0  0  2  0  0  0  0  0  0  0  0  0
   27.1926  -22.4774  -11.0939 N   0  0  0  0  0  0  0  0  0  0  0  0
   25.3264  -21.4049  -12.1117 C   0  0  0  0  0  0  0  0  0  0  0  0
   25.8482  -21.4961  -13.2705 O   0  0  0  0  0  0  0  0  0  0  0  0
   26.6001  -19.5362   -8.2341 C   0  0  0  0  0  0  0  0  0  0  0  0
   27.0788  -19.4224   -6.9543 C   0  0  0  0  0  0  0  0  0  0  0  0
   23.9188  -21.2618  -11.9826 N   0  0  0  0  0  0  0  0  0  0  0  0
   23.0677  -21.3421  -13.1872 C   0  0  1  0  0  0  0  0  0  0  0  0
   21.7062  -21.7734  -12.7237 C   0  0  0  0  0  0  0  0  0  0  0  0
   20.7063  -21.9555  -13.8254 C   0  0  0  0  0  0  0  0  0  0  0  0
   19.4009  -22.3904  -13.3182 C   0  0  0  0  0  0  0  0  0  0  0  0
   18.6982  -21.7397  -12.5136 O   0  0  0  0  0  0  0  0  0  0  0  0
   22.9792  -19.9711  -13.7357 C   0  0  0  0  0  0  0  0  0  0  0  0
   22.6961  -18.9618  -13.0141 O   0  0  0  0  0  0  0  0  0  0  0  0
   18.9097  -23.6321  -13.7749 O   0  0  0  0  0  0  0  0  0  0  0  0
   23.2124  -19.7377  -15.1134 N   0  0  0  0  0  0  0  0  0  0  0  0
   23.1238  -18.4148  -15.6937 C   0  0  0  0  0  0  0  0  0  0  0  0
   21.7128  -17.9831  -15.8074 C   0  0  0  0  0  0  0  0  0  0  0  0
   20.9450  -18.4917  -16.6751 O   0  0  0  0  0  0  0  0  0  0  0  0
   21.1514  -17.0144  -14.9888 O   0  0  0  0  0  0  0  0  0  0  0  0
  2  3  2  0
  2  1  1  0
  4  3  1  0
  5  4  2  0
  6  5  1  0
  7  6  1  0
  7  9  1  0
  7  8  1  6
  9 13  1  0
  9 10  2  0
 11  5  1  0
 11 12  2  0
 12  2  1  0
 13 14  1  0
 14 15  1  1
 15 16  1  0
 16 17  1  0
 17 21  1  0
 18 17  2  0
 19 22  1  0
 19 14  1  0
 20 19  2  0
 23 22  1  0
 24 26  1  0
 24 23  1  0
 25 24  2  0
M  END
$$$$
