YEG.pdb
     RDKit          3D

 26 26  0  0  1  0  0  0  0  0999 V2000
   30.9838  -21.8351   -8.9585 O   0  0  0  0  0  0  0  0  0  0  0  0
   29.7736  -21.6540   -9.6089 C   0  0  0  0  0  0  0  0  0  0  0  0
   29.5844  -22.1789  -10.8775 C   0  0  0  0  0  0  0  0  0  0  0  0
   28.4109  -22.0249  -11.5537 C   0  0  0  0  0  0  0  0  0  0  0  0
   27.3436  -21.3297  -10.9979 C   0  0  0  0  0  0  0  0  0  0  0  0
   26.0704  -21.1578  -11.7199 C   0  0  0  0  0  0  0  0  0  0  0  0
   26.2374  -20.4644  -13.0528 C   0  0  2  0  0  0  0  0  0  0  0  0
   26.8884  -19.1865  -12.8737 N   0  0  0  0  0  0  0  0  0  0  0  0
   24.9376  -20.2502  -13.7289 C   0  0  0  0  0  0  0  0  0  0  0  0
   24.1880  -19.2868  -13.3637 O   0  0  0  0  0  0  0  0  0  0  0  0
   27.5374  -20.8076   -9.7313 C   0  0  0  0  0  0  0  0  0  0  0  0
   28.7168  -20.9613   -9.0494 C   0  0  0  0  0  0  0  0  0  0  0  0
   24.5186  -21.1086  -14.7807 N   0  0  0  0  0  0  0  0  0  0  0  0
   23.2227  -20.8626  -15.4456 C   0  0  1  0  0  0  0  0  0  0  0  0
   23.3338  -21.4354  -16.8291 C   0  0  0  0  0  0  0  0  0  0  0  0
   24.3232  -20.7355  -17.7111 C   0  0  0  0  0  0  0  0  0  0  0  0
   23.9937  -19.3180  -17.8918 C   0  0  0  0  0  0  0  0  0  0  0  0
   22.8455  -18.8351  -17.7792 O   0  0  0  0  0  0  0  0  0  0  0  0
   22.2062  -21.6245  -14.6877 C   0  0  0  0  0  0  0  0  0  0  0  0
   22.4991  -22.6408  -13.9798 O   0  0  0  0  0  0  0  0  0  0  0  0
   25.0528  -18.4432  -18.2155 O   0  0  0  0  0  0  0  0  0  0  0  0
   20.8448  -21.2349  -14.7299 N   0  0  0  0  0  0  0  0  0  0  0  0
   19.8175  -21.9551  -14.0084 C   0  0  0  0  0  0  0  0  0  0  0  0
   19.6279  -21.3871  -12.6550 C   0  0  0  0  0  0  0  0  0  0  0  0
   20.2243  -21.8796  -11.6536 O   0  0  0  0  0  0  0  0  0  0  0  0
   18.8026  -20.3018  -12.4006 O   0  0  0  0  0  0  0  0  0  0  0  0
  2  3  2  0
  2  1  1  0
  4  3  1  0
  5  4  2  0
  6  5  1  0
  7  6  1  0
  7  9  1  0
  7  8  1  1
  9 13  1  0
  9 10  2  0
 11  5  1  0
 11 12  2  0
 12  2  1  0
 13 14  1  0
 14 15  1  6
 15 16  1  0
 16 17  1  0
 17 21  1  0
 18 17  2  0
 19 22  1  0
 19 14  1  0
 20 19  2  0
 23 22  1  0
 24 26  1  0
 24 23  1  0
 25 24  2  0
M  END
$$$$
