YEG.pdb
     RDKit          3D

 26 26  0  0  1  0  0  0  0  0999 V2000
   14.8159  -16.1218  -15.4355 O   0  0  0  0  0  0  0  0  0  0  0  0
   15.8963  -15.2858  -15.6686 C   0  0  0  0  0  0  0  0  0  0  0  0
   17.1877  -15.7735  -15.5466 C   0  0  0  0  0  0  0  0  0  0  0  0
   18.2791  -14.9870  -15.7665 C   0  0  0  0  0  0  0  0  0  0  0  0
   18.1454  -13.6511  -16.1255 C   0  0  0  0  0  0  0  0  0  0  0  0
   19.3185  -12.7920  -16.3661 C   0  0  0  0  0  0  0  0  0  0  0  0
   19.7089  -12.7222  -17.8248 C   0  0  2  0  0  0  0  0  0  0  0  0
   20.3237  -13.9633  -18.2380 N   0  0  0  0  0  0  0  0  0  0  0  0
   20.6487  -11.6093  -18.0908 C   0  0  0  0  0  0  0  0  0  0  0  0
   21.9044  -11.8144  -18.0230 O   0  0  0  0  0  0  0  0  0  0  0  0
   16.8542  -13.1689  -16.2460 C   0  0  0  0  0  0  0  0  0  0  0  0
   15.7550  -13.9582  -16.0254 C   0  0  0  0  0  0  0  0  0  0  0  0
   20.1635  -10.3153  -18.4209 N   0  0  0  0  0  0  0  0  0  0  0  0
   21.1242   -9.2178  -18.6546 C   0  0  1  0  0  0  0  0  0  0  0  0
   20.7446   -8.5855  -19.9625 C   0  0  0  0  0  0  0  0  0  0  0  0
   21.6562   -7.4803  -20.4032 C   0  0  0  0  0  0  0  0  0  0  0  0
   22.9084   -7.9920  -20.9697 C   0  0  0  0  0  0  0  0  0  0  0  0
   22.9804   -8.7879  -21.9318 O   0  0  0  0  0  0  0  0  0  0  0  0
   20.9197   -8.2367  -17.5666 C   0  0  0  0  0  0  0  0  0  0  0  0
   19.7792   -7.7401  -17.2978 O   0  0  0  0  0  0  0  0  0  0  0  0
   24.1130   -7.5503  -20.3820 O   0  0  0  0  0  0  0  0  0  0  0  0
   22.0145   -7.8118  -16.7743 N   0  0  0  0  0  0  0  0  0  0  0  0
   21.9026   -6.7175  -15.8338 C   0  0  0  0  0  0  0  0  0  0  0  0
   21.2676   -7.1677  -14.5751 C   0  0  0  0  0  0  0  0  0  0  0  0
   20.7728   -8.3281  -14.4751 O   0  0  0  0  0  0  0  0  0  0  0  0
   21.1748   -6.3657  -13.4474 O   0  0  0  0  0  0  0  0  0  0  0  0
  2  3  2  0
  2  1  1  0
  4  3  1  0
  5  4  2  0
  6  5  1  0
  7  6  1  0
  7  9  1  0
  7  8  1  1
  9 13  1  0
  9 10  2  0
 11  5  1  0
 11 12  2  0
 12  2  1  0
 13 14  1  0
 14 15  1  6
 15 16  1  0
 16 17  1  0
 17 21  1  0
 18 17  2  0
 19 22  1  0
 19 14  1  0
 20 19  2  0
 23 22  1  0
 24 26  1  0
 24 23  1  0
 25 24  2  0
M  END
$$$$
