YEG.pdb
     RDKit          3D

 26 26  0  0  1  0  0  0  0  0999 V2000
   33.0260  -34.0452   -2.2688 O   0  0  0  0  0  0  0  0  0  0  0  0
   32.4284  -34.4510   -3.4514 C   0  0  0  0  0  0  0  0  0  0  0  0
   32.6689  -35.7224   -3.9476 C   0  0  0  0  0  0  0  0  0  0  0  0
   32.1024  -36.1630   -5.1065 C   0  0  0  0  0  0  0  0  0  0  0  0
   31.2521  -35.3516   -5.8481 C   0  0  0  0  0  0  0  0  0  0  0  0
   30.6338  -35.8181   -7.1020 C   0  0  0  0  0  0  0  0  0  0  0  0
   29.1330  -35.9671   -6.9997 C   0  0  2  0  0  0  0  0  0  0  0  0
   28.4895  -34.6862   -7.1845 N   0  0  0  0  0  0  0  0  0  0  0  0
   28.7229  -36.5259   -5.6911 C   0  0  0  0  0  0  0  0  0  0  0  0
   27.9607  -35.8484   -4.9272 O   0  0  0  0  0  0  0  0  0  0  0  0
   31.0151  -34.0833   -5.3487 C   0  0  0  0  0  0  0  0  0  0  0  0
   31.5838  -33.6381   -4.1832 C   0  0  0  0  0  0  0  0  0  0  0  0
   29.1712  -37.8097   -5.2797 N   0  0  0  0  0  0  0  0  0  0  0  0
   28.6842  -38.3743   -4.0045 C   0  0  1  0  0  0  0  0  0  0  0  0
   28.5190  -39.8506   -4.2232 C   0  0  0  0  0  0  0  0  0  0  0  0
   27.2518  -40.2341   -4.9260 C   0  0  0  0  0  0  0  0  0  0  0  0
   26.4343  -41.1518   -4.1259 C   0  0  0  0  0  0  0  0  0  0  0  0
   26.8683  -42.1761   -3.5543 O   0  0  0  0  0  0  0  0  0  0  0  0
   29.7527  -38.1505   -3.0064 C   0  0  0  0  0  0  0  0  0  0  0  0
   30.7825  -38.8941   -2.9273 O   0  0  0  0  0  0  0  0  0  0  0  0
   25.0616  -40.8508   -3.9966 O   0  0  0  0  0  0  0  0  0  0  0  0
   29.6572  -37.0762   -2.0880 N   0  0  0  0  0  0  0  0  0  0  0  0
   30.6668  -36.8366   -1.0791 C   0  0  0  0  0  0  0  0  0  0  0  0
   30.0860  -36.9273    0.2791 C   0  0  0  0  0  0  0  0  0  0  0  0
   28.8816  -37.2761    0.4495 O   0  0  0  0  0  0  0  0  0  0  0  0
   30.8071  -36.6424    1.4291 O   0  0  0  0  0  0  0  0  0  0  0  0
  2  3  2  0
  2  1  1  0
  4  3  1  0
  5  4  2  0
  6  5  1  0
  7  6  1  0
  7  9  1  0
  7  8  1  1
  9 13  1  0
  9 10  2  0
 11  5  1  0
 11 12  2  0
 12  2  1  0
 13 14  1  0
 14 15  1  6
 15 16  1  0
 16 17  1  0
 17 21  1  0
 18 17  2  0
 19 22  1  0
 19 14  1  0
 20 19  2  0
 23 22  1  0
 24 26  1  0
 24 23  1  0
 25 24  2  0
M  END
$$$$
