YEG.pdb
     RDKit          3D

 26 26  0  0  1  0  0  0  0  0999 V2000
   25.0135  -32.4304  -10.5340 O   0  0  0  0  0  0  0  0  0  0  0  0
   25.4180  -32.4382   -9.2086 C   0  0  0  0  0  0  0  0  0  0  0  0
   26.2585  -33.4389   -8.7474 C   0  0  0  0  0  0  0  0  0  0  0  0
   26.6810  -33.4854   -7.4522 C   0  0  0  0  0  0  0  0  0  0  0  0
   26.2854  -32.5248   -6.5291 C   0  0  0  0  0  0  0  0  0  0  0  0
   26.7367  -32.5653   -5.1267 C   0  0  0  0  0  0  0  0  0  0  0  0
   25.9175  -33.5039   -4.2705 C   0  0  2  0  0  0  0  0  0  0  0  0
   24.6266  -32.9208   -3.9834 N   0  0  0  0  0  0  0  0  0  0  0  0
   26.5968  -33.8186   -2.9930 C   0  0  0  0  0  0  0  0  0  0  0  0
   26.7149  -32.9151   -2.1023 O   0  0  0  0  0  0  0  0  0  0  0  0
   25.4463  -31.5279   -6.9943 C   0  0  0  0  0  0  0  0  0  0  0  0
   25.0201  -31.4791   -8.2965 C   0  0  0  0  0  0  0  0  0  0  0  0
   27.1179  -35.1180   -2.7511 N   0  0  0  0  0  0  0  0  0  0  0  0
   27.8198  -35.3936   -1.4810 C   0  0  1  0  0  0  0  0  0  0  0  0
   26.8891  -36.2263   -0.6474 C   0  0  0  0  0  0  0  0  0  0  0  0
   25.7645  -35.4583   -0.0212 C   0  0  0  0  0  0  0  0  0  0  0  0
   24.9588  -36.2938    0.8752 C   0  0  0  0  0  0  0  0  0  0  0  0
   25.1539  -37.5125    1.0776 O   0  0  0  0  0  0  0  0  0  0  0  0
   29.0132  -36.1983   -1.8222 C   0  0  0  0  0  0  0  0  0  0  0  0
   29.0209  -37.0416   -2.7753 O   0  0  0  0  0  0  0  0  0  0  0  0
   23.8895  -35.6711    1.5538 O   0  0  0  0  0  0  0  0  0  0  0  0
   30.2101  -36.0495   -1.0790 N   0  0  0  0  0  0  0  0  0  0  0  0
   31.4140  -36.7824   -1.4078 C   0  0  0  0  0  0  0  0  0  0  0  0
   32.4611  -36.5609   -0.3857 C   0  0  0  0  0  0  0  0  0  0  0  0
   32.2777  -35.7497    0.5680 O   0  0  0  0  0  0  0  0  0  0  0  0
   33.6849  -37.2132   -0.4050 O   0  0  0  0  0  0  0  0  0  0  0  0
  2  3  2  0
  2  1  1  0
  4  3  1  0
  5  4  2  0
  6  5  1  0
  7  6  1  0
  7  9  1  0
  7  8  1  1
  9 13  1  0
  9 10  2  0
 11  5  1  0
 11 12  2  0
 12  2  1  0
 13 14  1  0
 14 15  1  1
 15 16  1  0
 16 17  1  0
 17 21  1  0
 18 17  2  0
 19 22  1  0
 19 14  1  0
 20 19  2  0
 23 22  1  0
 24 26  1  0
 24 23  1  0
 25 24  2  0
M  END
$$$$
