YEG.pdb
     RDKit          3D

 26 26  0  0  1  0  0  0  0  0999 V2000
   28.3129  -19.6906   -5.0947 O   0  0  0  0  0  0  0  0  0  0  0  0
   27.9873  -19.7568   -6.4400 C   0  0  0  0  0  0  0  0  0  0  0  0
   26.6896  -20.0552   -6.8242 C   0  0  0  0  0  0  0  0  0  0  0  0
   26.3253  -20.1306   -8.1356 C   0  0  0  0  0  0  0  0  0  0  0  0
   27.2450  -19.9102   -9.1539 C   0  0  0  0  0  0  0  0  0  0  0  0
   26.8618  -19.9887  -10.5748 C   0  0  0  0  0  0  0  0  0  0  0  0
   26.6068  -21.4044  -11.0394 C   0  0  2  0  0  0  0  0  0  0  0  0
   27.8387  -22.1602  -11.0398 N   0  0  0  0  0  0  0  0  0  0  0  0
   26.0209  -21.4409  -12.3988 C   0  0  0  0  0  0  0  0  0  0  0  0
   26.5728  -20.7845  -13.3411 O   0  0  0  0  0  0  0  0  0  0  0  0
   28.5392  -19.6127   -8.7653 C   0  0  0  0  0  0  0  0  0  0  0  0
   28.9078  -19.5363   -7.4469 C   0  0  0  0  0  0  0  0  0  0  0  0
   24.8496  -22.2007  -12.6620 N   0  0  0  0  0  0  0  0  0  0  0  0
   24.2823  -22.2108  -14.0259 C   0  0  1  0  0  0  0  0  0  0  0  0
   24.3569  -23.6295  -14.5120 C   0  0  0  0  0  0  0  0  0  0  0  0
   25.7409  -24.0964  -14.8485 C   0  0  0  0  0  0  0  0  0  0  0  0
   26.2133  -23.5458  -16.1230 C   0  0  0  0  0  0  0  0  0  0  0  0
   27.1989  -22.7859  -16.2474 O   0  0  0  0  0  0  0  0  0  0  0  0
   22.8618  -21.8185  -13.8970 C   0  0  0  0  0  0  0  0  0  0  0  0
   22.2020  -21.9794  -12.8208 O   0  0  0  0  0  0  0  0  0  0  0  0
   25.4999  -23.9035  -17.2869 O   0  0  0  0  0  0  0  0  0  0  0  0
   22.1796  -21.2390  -14.9950 N   0  0  0  0  0  0  0  0  0  0  0  0
   20.7983  -20.8166  -14.9042 C   0  0  0  0  0  0  0  0  0  0  0  0
   20.7084  -19.3818  -14.5528 C   0  0  0  0  0  0  0  0  0  0  0  0
   20.7640  -18.4884  -15.4472 O   0  0  0  0  0  0  0  0  0  0  0  0
   20.5605  -18.9316  -13.2493 O   0  0  0  0  0  0  0  0  0  0  0  0
  2  3  2  0
  2  1  1  0
  4  3  1  0
  5  4  2  0
  6  5  1  0
  7  6  1  0
  7  9  1  0
  7  8  1  6
  9 13  1  0
  9 10  2  0
 11  5  1  0
 11 12  2  0
 12  2  1  0
 13 14  1  0
 14 15  1  1
 15 16  1  0
 16 17  1  0
 17 21  1  0
 18 17  2  0
 19 22  1  0
 19 14  1  0
 20 19  2  0
 23 22  1  0
 24 26  1  0
 24 23  1  0
 25 24  2  0
M  END
$$$$
