YEG.pdb
     RDKit          3D

 26 26  0  0  1  0  0  0  0  0999 V2000
   14.5719  -12.7949  -19.9045 O   0  0  0  0  0  0  0  0  0  0  0  0
   15.1086  -11.8649  -19.0285 C   0  0  0  0  0  0  0  0  0  0  0  0
   15.0141  -12.0672  -17.6609 C   0  0  0  0  0  0  0  0  0  0  0  0
   15.5276  -11.1788  -16.7635 C   0  0  0  0  0  0  0  0  0  0  0  0
   16.1737  -10.0219  -17.1823 C   0  0  0  0  0  0  0  0  0  0  0  0
   16.7330   -9.0552  -16.2208 C   0  0  0  0  0  0  0  0  0  0  0  0
   18.2439   -9.0755  -16.1754 C   0  0  2  0  0  0  0  0  0  0  0  0
   18.7114  -10.3362  -15.6453 N   0  0  0  0  0  0  0  0  0  0  0  0
   18.7849   -7.9755  -15.3448 C   0  0  0  0  0  0  0  0  0  0  0  0
   18.8617   -8.1187  -14.0810 O   0  0  0  0  0  0  0  0  0  0  0  0
   16.2656   -9.8244  -18.5486 C   0  0  0  0  0  0  0  0  0  0  0  0
   15.7498  -10.7166  -19.4530 C   0  0  0  0  0  0  0  0  0  0  0  0
   19.2188   -6.7624  -15.9435 N   0  0  0  0  0  0  0  0  0  0  0  0
   19.6982   -5.6601  -15.0849 C   0  0  1  0  0  0  0  0  0  0  0  0
   21.0449   -5.2580  -15.6134 C   0  0  0  0  0  0  0  0  0  0  0  0
   21.6859   -4.1225  -14.8742 C   0  0  0  0  0  0  0  0  0  0  0  0
   22.4092   -4.5791  -13.6831 C   0  0  0  0  0  0  0  0  0  0  0  0
   21.9042   -4.6918  -12.5444 O   0  0  0  0  0  0  0  0  0  0  0  0
   18.7525   -4.5376  -15.2688 C   0  0  0  0  0  0  0  0  0  0  0  0
   18.7254   -3.8314  -16.3273 O   0  0  0  0  0  0  0  0  0  0  0  0
   23.7713   -4.9131  -13.8410 O   0  0  0  0  0  0  0  0  0  0  0  0
   17.8282   -4.2089  -14.2468 N   0  0  0  0  0  0  0  0  0  0  0  0
   16.9287   -3.0807  -14.3590 C   0  0  0  0  0  0  0  0  0  0  0  0
   15.7993   -3.3954  -15.2620 C   0  0  0  0  0  0  0  0  0  0  0  0
   14.8474   -2.5771  -15.4224 O   0  0  0  0  0  0  0  0  0  0  0  0
   15.7113   -4.5811  -15.9761 O   0  0  0  0  0  0  0  0  0  0  0  0
  2  3  2  0
  2  1  1  0
  4  3  1  0
  5  4  2  0
  6  5  1  0
  7  6  1  0
  7  9  1  0
  7  8  1  1
  9 13  1  0
  9 10  2  0
 11  5  1  0
 11 12  2  0
 12  2  1  0
 13 14  1  0
 14 15  1  6
 15 16  1  0
 16 17  1  0
 17 21  1  0
 18 17  2  0
 19 22  1  0
 19 14  1  0
 20 19  2  0
 23 22  1  0
 24 26  1  0
 24 23  1  0
 25 24  2  0
M  END
$$$$
