YEG.pdb
     RDKit          3D

 26 26  0  0  1  0  0  0  0  0999 V2000
   28.8973  -19.9734   -3.7360 O   0  0  0  0  0  0  0  0  0  0  0  0
   28.3422  -19.8594   -5.0006 C   0  0  0  0  0  0  0  0  0  0  0  0
   28.9453  -19.0508   -5.9508 C   0  0  0  0  0  0  0  0  0  0  0  0
   28.4339  -18.9095   -7.2065 C   0  0  0  0  0  0  0  0  0  0  0  0
   27.2765  -19.5745   -7.5934 C   0  0  0  0  0  0  0  0  0  0  0  0
   26.7154  -19.4293   -8.9484 C   0  0  0  0  0  0  0  0  0  0  0  0
   26.8081  -20.6986   -9.7641 C   0  0  2  0  0  0  0  0  0  0  0  0
   28.1919  -21.0630   -9.9669 N   0  0  0  0  0  0  0  0  0  0  0  0
   26.1515  -20.5547  -11.0835 C   0  0  0  0  0  0  0  0  0  0  0  0
   26.7238  -19.8833  -12.0028 O   0  0  0  0  0  0  0  0  0  0  0  0
   26.6782  -20.3806   -6.6413 C   0  0  0  0  0  0  0  0  0  0  0  0
   27.1908  -20.5242   -5.3778 C   0  0  0  0  0  0  0  0  0  0  0  0
   24.8898  -21.1580  -11.3339 N   0  0  0  0  0  0  0  0  0  0  0  0
   24.2343  -20.9537  -12.6418 C   0  0  1  0  0  0  0  0  0  0  0  0
   24.0748  -22.3129  -13.2596 C   0  0  0  0  0  0  0  0  0  0  0  0
   25.3605  -22.9510  -13.6916 C   0  0  0  0  0  0  0  0  0  0  0  0
   25.1383  -24.2277  -14.3781 C   0  0  0  0  0  0  0  0  0  0  0  0
   25.5145  -25.3406  -13.9487 O   0  0  0  0  0  0  0  0  0  0  0  0
   22.8955  -20.3905  -12.3615 C   0  0  0  0  0  0  0  0  0  0  0  0
   22.2604  -20.6365  -11.2865 O   0  0  0  0  0  0  0  0  0  0  0  0
   24.4505  -24.1895  -15.6098 O   0  0  0  0  0  0  0  0  0  0  0  0
   22.2673  -19.5410  -13.3053 N   0  0  0  0  0  0  0  0  0  0  0  0
   21.0075  -18.8848  -13.0283 C   0  0  0  0  0  0  0  0  0  0  0  0
   19.8901  -19.8546  -13.0612 C   0  0  0  0  0  0  0  0  0  0  0  0
   20.0299  -20.9897  -13.6029 O   0  0  0  0  0  0  0  0  0  0  0  0
   18.6440  -19.5896  -12.5130 O   0  0  0  0  0  0  0  0  0  0  0  0
  2  3  2  0
  2  1  1  0
  4  3  1  0
  5  4  2  0
  6  5  1  0
  7  6  1  0
  7  9  1  0
  7  8  1  6
  9 13  1  0
  9 10  2  0
 11  5  1  0
 11 12  2  0
 12  2  1  0
 13 14  1  0
 14 15  1  1
 15 16  1  0
 16 17  1  0
 17 21  1  0
 18 17  2  0
 19 22  1  0
 19 14  1  0
 20 19  2  0
 23 22  1  0
 24 26  1  0
 24 23  1  0
 25 24  2  0
M  END
$$$$
