YEG.pdb
     RDKit          3D

 26 26  0  0  1  0  0  0  0  0999 V2000
   28.5972  -20.2442   -4.9472 O   0  0  0  0  0  0  0  0  0  0  0  0
   27.8817  -20.1518   -6.1303 C   0  0  0  0  0  0  0  0  0  0  0  0
   28.1620  -19.1368   -7.0312 C   0  0  0  0  0  0  0  0  0  0  0  0
   27.4833  -19.0082   -8.2064 C   0  0  0  0  0  0  0  0  0  0  0  0
   26.4726  -19.8953   -8.5569 C   0  0  0  0  0  0  0  0  0  0  0  0
   25.7331  -19.7659   -9.8251 C   0  0  0  0  0  0  0  0  0  0  0  0
   25.8579  -20.9867  -10.7077 C   0  0  2  0  0  0  0  0  0  0  0  0
   27.2431  -21.2171  -11.0497 N   0  0  0  0  0  0  0  0  0  0  0  0
   25.0724  -20.8472  -11.9552 C   0  0  0  0  0  0  0  0  0  0  0  0
   25.4515  -20.0234  -12.8503 O   0  0  0  0  0  0  0  0  0  0  0  0
   26.1965  -20.9069   -7.6543 C   0  0  0  0  0  0  0  0  0  0  0  0
   26.8778  -21.0381   -6.4717 C   0  0  0  0  0  0  0  0  0  0  0  0
   23.9004  -21.6229  -12.1632 N   0  0  0  0  0  0  0  0  0  0  0  0
   23.1473  -21.4758  -13.4255 C   0  0  1  0  0  0  0  0  0  0  0  0
   23.2081  -22.8058  -14.1198 C   0  0  0  0  0  0  0  0  0  0  0  0
   24.3535  -22.9532  -15.0753 C   0  0  0  0  0  0  0  0  0  0  0  0
   25.5707  -23.4253  -14.4075 C   0  0  0  0  0  0  0  0  0  0  0  0
   25.5952  -24.2828  -13.4972 O   0  0  0  0  0  0  0  0  0  0  0  0
   21.7450  -21.1899  -13.0515 C   0  0  0  0  0  0  0  0  0  0  0  0
   21.2724  -21.4674  -11.9029 O   0  0  0  0  0  0  0  0  0  0  0  0
   26.7973  -22.8678  -14.8273 O   0  0  0  0  0  0  0  0  0  0  0  0
   20.8672  -20.5848  -13.9844 N   0  0  0  0  0  0  0  0  0  0  0  0
   19.4542  -20.4236  -13.7161 C   0  0  0  0  0  0  0  0  0  0  0  0
   19.0863  -18.9907  -13.6743 C   0  0  0  0  0  0  0  0  0  0  0  0
   19.7326  -18.1335  -14.3441 O   0  0  0  0  0  0  0  0  0  0  0  0
   18.0324  -18.5037  -12.9154 O   0  0  0  0  0  0  0  0  0  0  0  0
  2  3  2  0
  2  1  1  0
  4  3  1  0
  5  4  2  0
  6  5  1  0
  7  6  1  0
  7  9  1  0
  7  8  1  6
  9 13  1  0
  9 10  2  0
 11  5  1  0
 11 12  2  0
 12  2  1  0
 13 14  1  0
 14 15  1  1
 15 16  1  0
 16 17  1  0
 17 21  1  0
 18 17  2  0
 19 22  1  0
 19 14  1  0
 20 19  2  0
 23 22  1  0
 24 26  1  0
 24 23  1  0
 25 24  2  0
M  END
$$$$
