YEG.pdb
     RDKit          3D

 26 26  0  0  1  0  0  0  0  0999 V2000
   12.6301  -13.6888  -16.3456 O   0  0  0  0  0  0  0  0  0  0  0  0
   13.7289  -12.8899  -16.0719 C   0  0  0  0  0  0  0  0  0  0  0  0
   14.4576  -13.0896  -14.9103 C   0  0  0  0  0  0  0  0  0  0  0  0
   15.5448  -12.3275  -14.6013 C   0  0  0  0  0  0  0  0  0  0  0  0
   15.9746  -11.3086  -15.4430 C   0  0  0  0  0  0  0  0  0  0  0  0
   17.1489  -10.4791  -15.1189 C   0  0  0  0  0  0  0  0  0  0  0  0
   18.3334  -10.7579  -16.0159 C   0  0  2  0  0  0  0  0  0  0  0  0
   18.8798  -12.0652  -15.7309 N   0  0  0  0  0  0  0  0  0  0  0  0
   19.4006   -9.7450  -15.8496 C   0  0  0  0  0  0  0  0  0  0  0  0
   20.2347   -9.8590  -14.8932 O   0  0  0  0  0  0  0  0  0  0  0  0
   15.2438  -11.1131  -16.6015 C   0  0  0  0  0  0  0  0  0  0  0  0
   14.1501  -11.8785  -16.9142 C   0  0  0  0  0  0  0  0  0  0  0  0
   19.5032   -8.6477  -16.7462 N   0  0  0  0  0  0  0  0  0  0  0  0
   20.5921   -7.6653  -16.5693 C   0  0  1  0  0  0  0  0  0  0  0  0
   20.6263   -6.8321  -17.8180 C   0  0  0  0  0  0  0  0  0  0  0  0
   21.7482   -5.8393  -17.8689 C   0  0  0  0  0  0  0  0  0  0  0  0
   21.7994   -5.1314  -19.1522 C   0  0  0  0  0  0  0  0  0  0  0  0
   22.6345   -4.2468  -19.4432 O   0  0  0  0  0  0  0  0  0  0  0  0
   20.2077   -6.8077  -15.4269 C   0  0  0  0  0  0  0  0  0  0  0  0
   18.9957   -6.5278  -15.1581 O   0  0  0  0  0  0  0  0  0  0  0  0
   20.8349   -5.4784  -20.1221 O   0  0  0  0  0  0  0  0  0  0  0  0
   21.2025   -6.2602  -14.5798 N   0  0  0  0  0  0  0  0  0  0  0  0
   20.8693   -5.4377  -13.4365 C   0  0  0  0  0  0  0  0  0  0  0  0
   22.0926   -5.0046  -12.7250 C   0  0  0  0  0  0  0  0  0  0  0  0
   22.5670   -3.8438  -12.8946 O   0  0  0  0  0  0  0  0  0  0  0  0
   22.7843   -5.8238  -11.8451 O   0  0  0  0  0  0  0  0  0  0  0  0
  2  3  2  0
  2  1  1  0
  4  3  1  0
  5  4  2  0
  6  5  1  0
  7  6  1  0
  7  9  1  0
  7  8  1  1
  9 13  1  0
  9 10  2  0
 11  5  1  0
 11 12  2  0
 12  2  1  0
 13 14  1  0
 14 15  1  6
 15 16  1  0
 16 17  1  0
 17 21  1  0
 18 17  2  0
 19 22  1  0
 19 14  1  0
 20 19  2  0
 23 22  1  0
 24 26  1  0
 24 23  1  0
 25 24  2  0
M  END
$$$$
