RHT.pdb
     RDKit          3D

 29 29  0  0  1  0  0  0  0  0999 V2000
    8.3909  -12.7866   20.8038 N   0  0  0  0  0  0  0  0  0  0  0  0
    8.8830  -12.5575   19.4931 C   0  0  0  0  0  0  0  0  0  0  0  0
    8.5484  -11.4835   18.8578 N   0  0  0  0  0  0  0  0  0  0  0  0
    9.7457  -13.4779   18.8369 N   0  0  0  0  0  0  0  0  0  0  0  0
   10.4718  -14.4924   19.5402 C   0  0  0  0  0  0  0  0  0  0  0  0
   10.1903  -15.8820   19.0112 C   0  0  0  0  0  0  0  0  0  0  0  0
    8.7493  -16.2409   18.9914 C   0  0  0  0  0  0  0  0  0  0  0  0
    8.4198  -17.6114   19.5127 C   0  0  2  0  0  0  0  0  0  0  0  0
    7.5385  -18.3091   18.5692 N   0  0  0  0  0  0  0  0  0  0  0  0
    7.8395  -17.6306   20.8678 C   0  0  0  0  0  0  0  0  0  0  0  0
    6.6106  -17.5576   21.0209 O   0  0  0  0  0  0  0  0  0  0  0  0
    8.8602  -11.2540   17.9051 N   0  0  0  0  0  0  0  0  0  0  0  0
    8.6247  -17.7304   22.0521 C   0  0  2  0  0  0  0  0  0  0  0  0
    8.0574  -17.7434   23.3799 C   0  0  0  0  0  0  0  0  0  0  0  0
    8.2552  -19.0656   24.0751 C   0  0  0  0  0  0  0  0  0  0  0  0
    7.6972  -19.0662   25.4372 C   0  0  0  0  0  0  0  0  0  0  0  0
    6.5384  -18.4484   25.8294 N   0  0  0  0  0  0  0  0  0  0  0  0
    6.3367  -18.6526   27.1300 C   0  0  0  0  0  0  0  0  0  0  0  0
    7.3731  -19.4006   27.5510 N   0  0  0  0  0  0  0  0  0  0  0  0
    8.2186  -19.6611   26.5128 C   0  0  0  0  0  0  0  0  0  0  0  0
    8.6416  -16.6131   24.1563 O   0  0  0  0  0  0  0  0  0  0  0  0
    9.8559  -16.3498   23.9932 C   0  0  0  0  0  0  0  0  0  0  0  0
    7.1798  -13.0061   24.3574 C   0  0  2  0  0  0  0  0  0  0  0  0
    7.4108  -13.5179   25.7657 O   0  0  0  0  0  0  0  0  0  0  0  0
    6.1737  -13.9251   26.2667 C   0  0  2  0  0  0  0  0  0  0  0  0
    8.3203  -14.6967   25.7936 N   0  0  0  0  0  0  0  0  0  0  0  0
    7.8855  -15.8392   25.0563 C   0  0  0  0  0  0  0  0  0  0  0  0
    8.8440  -14.9865   27.1561 O   0  0  0  0  0  0  0  0  0  0  0  0
    9.4851  -14.0049   27.8670 O   0  0  0  0  0  0  0  0  0  0  0  0
  1  2  1  0
  2  4  1  0
  2  3  2  0
  4  5  1  0
  5  6  1  0
  7  6  1  0
  8  7  1  0
  8  9  1  6
 10  8  1  0
 10 11  2  0
 12 10  1  0
 13 12  1  0
 13 20  1  0
 13 14  1  1
 15 14  1  0
 15 19  1  0
 16 17  1  0
 16 15  2  0
 17 18  1  0
 18 19  2  0
 20 26  1  0
 21 20  2  0
 23 22  1  1
 23 24  1  0
 23 25  1  0
 25 27  1  0
 25 26  1  1
 27 29  2  0
 27 28  1  0
M  END
$$$$
