RHT.pdb
     RDKit          3D

 29 29  0  0  1  0  0  0  0  0999 V2000
    9.1745  -14.6483   16.9197 N   0  0  0  0  0  0  0  0  0  0  0  0
    8.6749  -13.4073   17.3919 C   0  0  0  0  0  0  0  0  0  0  0  0
    9.4065  -12.3455   17.3112 N   0  0  0  0  0  0  0  0  0  0  0  0
    7.3780  -13.2807   17.9612 N   0  0  0  0  0  0  0  0  0  0  0  0
    6.7370  -14.3483   18.6684 C   0  0  0  0  0  0  0  0  0  0  0  0
    7.1979  -14.4533   20.1060 C   0  0  0  0  0  0  0  0  0  0  0  0
    6.5504  -15.5500   20.8699 C   0  0  0  0  0  0  0  0  0  0  0  0
    7.0534  -15.7416   22.2731 C   0  0  2  0  0  0  0  0  0  0  0  0
    7.1882  -14.4413   22.9400 N   0  0  0  0  0  0  0  0  0  0  0  0
    8.3105  -16.5047   22.3767 C   0  0  0  0  0  0  0  0  0  0  0  0
    8.3321  -17.7122   22.0932 O   0  0  0  0  0  0  0  0  0  0  0  0
    9.1118  -11.4141   17.6324 N   0  0  0  0  0  0  0  0  0  0  0  0
    9.5428  -15.9261   22.7956 C   0  0  1  0  0  0  0  0  0  0  0  0
   10.7861  -16.6589   22.8442 C   0  0  0  0  0  0  0  0  0  0  0  0
   11.9828  -15.7744   22.6075 C   0  0  0  0  0  0  0  0  0  0  0  0
   12.1481  -15.4317   21.1856 C   0  0  0  0  0  0  0  0  0  0  0  0
   11.6319  -16.1321   20.1266 N   0  0  0  0  0  0  0  0  0  0  0  0
   11.9773  -15.5411   18.9841 C   0  0  0  0  0  0  0  0  0  0  0  0
   12.7116  -14.4681   19.3312 N   0  0  0  0  0  0  0  0  0  0  0  0
   12.8227  -14.3922   20.6885 C   0  0  0  0  0  0  0  0  0  0  0  0
   10.8677  -17.3681   24.1527 O   0  0  0  0  0  0  0  0  0  0  0  0
   10.4169  -16.7881   25.1680 C   0  0  0  0  0  0  0  0  0  0  0  0
   11.4160  -21.6299   26.6170 C   0  0  2  0  0  0  0  0  0  0  0  0
   11.6582  -20.8893   25.3164 O   0  0  0  0  0  0  0  0  0  0  0  0
   10.6518  -21.2715   24.4284 C   0  0  1  0  0  0  0  0  0  0  0  0
   11.5746  -19.4123   25.4862 N   0  0  0  0  0  0  0  0  0  0  0  0
   11.4272  -18.6525   24.2866 C   0  0  0  0  0  0  0  0  0  0  0  0
   12.5822  -18.8862   26.4469 O   0  0  0  0  0  0  0  0  0  0  0  0
   12.2838  -18.8167   27.7833 O   0  0  0  0  0  0  0  0  0  0  0  0
  1  2  1  0
  2  4  1  0
  2  3  2  0
  4  5  1  0
  5  6  1  0
  7  6  1  0
  8  7  1  0
  8  9  1  6
 10  8  1  0
 10 11  2  0
 12 10  1  0
 13 12  1  0
 13 20  1  0
 13 14  1  6
 15 14  1  0
 15 19  1  0
 16 17  1  0
 16 15  2  0
 17 18  1  0
 18 19  2  0
 20 26  1  0
 21 20  2  0
 23 22  1  6
 23 24  1  0
 23 25  1  0
 25 27  1  0
 25 26  1  6
 27 29  2  0
 27 28  1  0
M  END
$$$$
