RHT.pdb
     RDKit          3D

 29 29  0  0  1  0  0  0  0  0999 V2000
    7.6177  -14.1801   15.2665 N   0  0  0  0  0  0  0  0  0  0  0  0
    8.9841  -14.3300   14.9158 C   0  0  0  0  0  0  0  0  0  0  0  0
    9.3052  -14.9246   13.8146 N   0  0  0  0  0  0  0  0  0  0  0  0
   10.0352  -13.8441   15.7412 N   0  0  0  0  0  0  0  0  0  0  0  0
    9.9232  -13.7620   17.1665 C   0  0  0  0  0  0  0  0  0  0  0  0
    9.1657  -14.9304   17.7590 C   0  0  0  0  0  0  0  0  0  0  0  0
    8.9964  -14.8565   19.2326 C   0  0  0  0  0  0  0  0  0  0  0  0
    9.9038  -15.7499   20.0307 C   0  0  2  0  0  0  0  0  0  0  0  0
    9.6919  -17.1509   19.6489 N   0  0  0  0  0  0  0  0  0  0  0  0
    9.7909  -15.5931   21.4922 C   0  0  0  0  0  0  0  0  0  0  0  0
   10.1384  -14.5328   22.0343 O   0  0  0  0  0  0  0  0  0  0  0  0
   10.2696  -15.0283   13.4730 N   0  0  0  0  0  0  0  0  0  0  0  0
    9.2925  -16.6146   22.3508 C   0  0  1  0  0  0  0  0  0  0  0  0
    8.8428  -16.3656   23.7002 C   0  0  0  0  0  0  0  0  0  0  0  0
    7.4404  -16.8627   23.9383 C   0  0  0  0  0  0  0  0  0  0  0  0
    6.4440  -16.1093   23.1595 C   0  0  0  0  0  0  0  0  0  0  0  0
    6.7000  -15.0159   22.3738 N   0  0  0  0  0  0  0  0  0  0  0  0
    5.5690  -14.5862   21.8172 C   0  0  0  0  0  0  0  0  0  0  0  0
    4.6037  -15.4143   22.2569 N   0  0  0  0  0  0  0  0  0  0  0  0
    5.1342  -16.3581   23.0865 C   0  0  0  0  0  0  0  0  0  0  0  0
    9.8188  -16.9779   24.6458 O   0  0  0  0  0  0  0  0  0  0  0  0
   10.6256  -17.8247   24.1959 C   0  0  0  0  0  0  0  0  0  0  0  0
   12.0479  -15.0468   27.1719 C   0  0  2  0  0  0  0  0  0  0  0  0
   11.3640  -16.1726   27.9227 O   0  0  0  0  0  0  0  0  0  0  0  0
   10.3394  -15.6032   28.6798 C   0  0  2  0  0  0  0  0  0  0  0  0
   10.7473  -17.1686   27.0034 N   0  0  0  0  0  0  0  0  0  0  0  0
    9.8658  -16.6419   26.0117 C   0  0  0  0  0  0  0  0  0  0  0  0
   10.2472  -18.3757   27.7157 O   0  0  0  0  0  0  0  0  0  0  0  0
   11.1036  -19.1227   28.4828 O   0  0  0  0  0  0  0  0  0  0  0  0
  1  2  1  0
  2  4  1  0
  2  3  2  0
  4  5  1  0
  5  6  1  0
  7  6  1  0
  8  7  1  0
  8  9  1  1
 10  8  1  0
 10 11  2  0
 12 10  1  0
 13 12  1  0
 13 20  1  0
 13 14  1  1
 15 14  1  0
 15 19  1  0
 16 17  1  0
 16 15  2  0
 17 18  1  0
 18 19  2  0
 20 26  1  0
 21 20  2  0
 23 22  1  1
 23 24  1  0
 23 25  1  0
 25 27  1  0
 25 26  1  1
 27 29  2  0
 27 28  1  0
M  END
$$$$
