RHT.pdb
     RDKit          3D

 29 29  0  0  1  0  0  0  0  0999 V2000
   13.7080  -18.0854   13.9660 N   0  0  0  0  0  0  0  0  0  0  0  0
   13.6379  -17.3145   15.1549 C   0  0  0  0  0  0  0  0  0  0  0  0
   14.6912  -16.7076   15.5922 N   0  0  0  0  0  0  0  0  0  0  0  0
   12.4340  -17.1792   15.8994 N   0  0  0  0  0  0  0  0  0  0  0  0
   12.3313  -17.5558   17.2773 C   0  0  0  0  0  0  0  0  0  0  0  0
   12.5576  -16.3915   18.2172 C   0  0  0  0  0  0  0  0  0  0  0  0
   11.4737  -15.3764   18.1941 C   0  0  0  0  0  0  0  0  0  0  0  0
   11.7005  -14.1724   19.0645 C   0  0  2  0  0  0  0  0  0  0  0  0
   13.1150  -13.7834   19.0248 N   0  0  0  0  0  0  0  0  0  0  0  0
   11.2497  -14.3286   20.4594 C   0  0  0  0  0  0  0  0  0  0  0  0
   12.0792  -14.4790   21.3696 O   0  0  0  0  0  0  0  0  0  0  0  0
   14.7366  -16.1973   16.4840 N   0  0  0  0  0  0  0  0  0  0  0  0
    9.8778  -14.3181   20.8424 C   0  0  2  0  0  0  0  0  0  0  0  0
    9.4371  -14.4322   22.2127 C   0  0  0  0  0  0  0  0  0  0  0  0
    8.0084  -13.9888   22.3945 C   0  0  0  0  0  0  0  0  0  0  0  0
    7.5752  -14.0715   23.7988 C   0  0  0  0  0  0  0  0  0  0  0  0
    8.3186  -14.5639   24.8397 N   0  0  0  0  0  0  0  0  0  0  0  0
    7.6172  -14.4888   25.9695 C   0  0  0  0  0  0  0  0  0  0  0  0
    6.4321  -13.9477   25.6326 N   0  0  0  0  0  0  0  0  0  0  0  0
    6.3966  -13.6866   24.2943 C   0  0  0  0  0  0  0  0  0  0  0  0
    9.6454  -15.8380   22.6624 O   0  0  0  0  0  0  0  0  0  0  0  0
    9.1290  -16.7574   21.9853 C   0  0  0  0  0  0  0  0  0  0  0  0
   12.5591  -17.9596   22.8633 C   0  0  2  0  0  0  0  0  0  0  0  0
   12.0199  -17.9684   24.2803 O   0  0  0  0  0  0  0  0  0  0  0  0
   12.8189  -17.1066   25.0328 C   0  0  2  0  0  0  0  0  0  0  0  0
   10.6200  -17.4658   24.3525 N   0  0  0  0  0  0  0  0  0  0  0  0
   10.3938  -16.1656   23.8083 C   0  0  0  0  0  0  0  0  0  0  0  0
    9.9875  -17.7150   25.6764 O   0  0  0  0  0  0  0  0  0  0  0  0
    9.9242  -18.9900   26.1765 O   0  0  0  0  0  0  0  0  0  0  0  0
  1  2  1  0
  2  4  1  0
  2  3  2  0
  4  5  1  0
  5  6  1  0
  7  6  1  0
  8  7  1  0
  8  9  1  1
 10  8  1  0
 10 11  2  0
 12 10  1  0
 13 12  1  0
 13 20  1  0
 13 14  1  6
 15 14  1  0
 15 19  1  0
 16 17  1  0
 16 15  2  0
 17 18  1  0
 18 19  2  0
 20 26  1  0
 21 20  2  0
 23 22  1  1
 23 24  1  0
 23 25  1  0
 25 27  1  0
 25 26  1  1
 27 29  2  0
 27 28  1  0
M  END
$$$$
