RHT.pdb
     RDKit          3D

 29 29  0  0  1  0  0  0  0  0999 V2000
    8.6751  -15.5266   15.4473 N   0  0  0  0  0  0  0  0  0  0  0  0
    7.9198  -14.3610   15.7363 C   0  0  0  0  0  0  0  0  0  0  0  0
    7.2660  -13.7669   14.7936 N   0  0  0  0  0  0  0  0  0  0  0  0
    7.8508  -13.8089   17.0448 N   0  0  0  0  0  0  0  0  0  0  0  0
    8.0399  -14.5957   18.2264 C   0  0  0  0  0  0  0  0  0  0  0  0
    7.7266  -13.8286   19.4926 C   0  0  0  0  0  0  0  0  0  0  0  0
    7.8725  -14.6281   20.7357 C   0  0  0  0  0  0  0  0  0  0  0  0
    9.2534  -14.6506   21.3284 C   0  0  2  0  0  0  0  0  0  0  0  0
   10.2109  -15.1806   20.3507 N   0  0  0  0  0  0  0  0  0  0  0  0
    9.3632  -15.3824   22.6035 C   0  0  0  0  0  0  0  0  0  0  0  0
    8.5340  -15.1905   23.5060 O   0  0  0  0  0  0  0  0  0  0  0  0
    6.6770  -12.9355   14.9332 N   0  0  0  0  0  0  0  0  0  0  0  0
   10.3944  -16.3266   22.8755 C   0  0  1  0  0  0  0  0  0  0  0  0
   10.4333  -17.1346   24.0715 C   0  0  0  0  0  0  0  0  0  0  0  0
   11.3908  -18.2919   23.9510 C   0  0  0  0  0  0  0  0  0  0  0  0
   10.9091  -19.3161   23.0100 C   0  0  0  0  0  0  0  0  0  0  0  0
    9.6053  -19.5113   22.6354 N   0  0  0  0  0  0  0  0  0  0  0  0
    9.5310  -20.5229   21.7723 C   0  0  0  0  0  0  0  0  0  0  0  0
   10.7928  -20.9605   21.6074 N   0  0  0  0  0  0  0  0  0  0  0  0
   11.6510  -20.2216   22.3677 C   0  0  0  0  0  0  0  0  0  0  0  0
   10.7659  -16.2547   25.2277 O   0  0  0  0  0  0  0  0  0  0  0  0
   11.8482  -15.6237   25.1977 C   0  0  0  0  0  0  0  0  0  0  0  0
    9.4882  -13.2075   28.7351 C   0  0  2  0  0  0  0  0  0  0  0  0
    9.0498  -14.2590   27.7345 O   0  0  0  0  0  0  0  0  0  0  0  0
    8.7883  -13.6023   26.5313 C   0  0  1  0  0  0  0  0  0  0  0  0
   10.1139  -15.2684   27.4769 N   0  0  0  0  0  0  0  0  0  0  0  0
    9.9161  -16.1089   26.3401 C   0  0  0  0  0  0  0  0  0  0  0  0
   10.5506  -15.9716   28.7137 O   0  0  0  0  0  0  0  0  0  0  0  0
   11.1889  -15.2764   29.7082 O   0  0  0  0  0  0  0  0  0  0  0  0
  1  2  1  0
  2  4  1  0
  2  3  2  0
  4  5  1  0
  5  6  1  0
  7  6  1  0
  8  7  1  0
  8  9  1  6
 10  8  1  0
 10 11  2  0
 12 10  1  0
 13 12  1  0
 13 20  1  0
 13 14  1  1
 15 14  1  0
 15 19  1  0
 16 17  1  0
 16 15  2  0
 17 18  1  0
 18 19  2  0
 20 26  1  0
 21 20  2  0
 23 22  1  1
 23 24  1  0
 23 25  1  0
 25 27  1  0
 25 26  1  1
 27 29  2  0
 27 28  1  0
M  END
$$$$
