RHT.pdb
     RDKit          3D

 29 29  0  0  1  0  0  0  0  0999 V2000
    8.1391  -15.0339   15.0376 N   0  0  0  0  0  0  0  0  0  0  0  0
    8.0650  -13.6221   15.1563 C   0  0  0  0  0  0  0  0  0  0  0  0
    7.8864  -12.8956   14.1031 N   0  0  0  0  0  0  0  0  0  0  0  0
    8.1812  -12.9608   16.4097 N   0  0  0  0  0  0  0  0  0  0  0  0
    7.6571  -13.5093   17.6243 C   0  0  0  0  0  0  0  0  0  0  0  0
    8.0860  -14.9432   17.8479 C   0  0  0  0  0  0  0  0  0  0  0  0
    9.2673  -15.0893   18.7362 C   0  0  0  0  0  0  0  0  0  0  0  0
    9.1054  -16.0650   19.8677 C   0  0  2  0  0  0  0  0  0  0  0  0
    7.8163  -16.7570   19.7534 N   0  0  0  0  0  0  0  0  0  0  0  0
    9.2559  -15.4783   21.2117 C   0  0  0  0  0  0  0  0  0  0  0  0
   10.2988  -14.8802   21.5178 O   0  0  0  0  0  0  0  0  0  0  0  0
    7.8041  -11.8705   14.1144 N   0  0  0  0  0  0  0  0  0  0  0  0
    8.2480  -15.5566   22.2152 C   0  0  1  0  0  0  0  0  0  0  0  0
    8.3772  -14.9455   23.5171 C   0  0  0  0  0  0  0  0  0  0  0  0
    7.1496  -14.1641   23.9082 C   0  0  0  0  0  0  0  0  0  0  0  0
    7.2754  -13.5647   25.2467 C   0  0  0  0  0  0  0  0  0  0  0  0
    7.9957  -12.4410   25.5578 N   0  0  0  0  0  0  0  0  0  0  0  0
    7.8903  -12.1844   26.8604 C   0  0  0  0  0  0  0  0  0  0  0  0
    7.1015  -13.1512   27.3642 N   0  0  0  0  0  0  0  0  0  0  0  0
    6.7168  -14.0084   26.3754 C   0  0  0  0  0  0  0  0  0  0  0  0
    8.7002  -16.0091   24.5102 O   0  0  0  0  0  0  0  0  0  0  0  0
    7.8879  -16.9531   24.6501 C   0  0  0  0  0  0  0  0  0  0  0  0
   12.7479  -16.9401   25.5700 C   0  0  2  0  0  0  0  0  0  0  0  0
   11.5059  -17.7947   25.7310 O   0  0  0  0  0  0  0  0  0  0  0  0
   11.7820  -18.7457   26.7142 C   0  0  1  0  0  0  0  0  0  0  0  0
   10.3319  -17.0003   26.1870 N   0  0  0  0  0  0  0  0  0  0  0  0
    9.8729  -15.9908   25.2880 C   0  0  0  0  0  0  0  0  0  0  0  0
   10.4422  -16.5765   27.6093 O   0  0  0  0  0  0  0  0  0  0  0  0
   10.3271  -15.2509   27.9403 O   0  0  0  0  0  0  0  0  0  0  0  0
  1  2  1  0
  2  4  1  0
  2  3  2  0
  4  5  1  0
  5  6  1  0
  7  6  1  0
  8  7  1  0
  8  9  1  1
 10  8  1  0
 10 11  2  0
 12 10  1  0
 13 12  1  0
 13 20  1  0
 13 14  1  1
 15 14  1  0
 15 19  1  0
 16 17  1  0
 16 15  2  0
 17 18  1  0
 18 19  2  0
 20 26  1  0
 21 20  2  0
 23 22  1  6
 23 24  1  0
 23 25  1  0
 25 27  1  0
 25 26  1  6
 27 29  2  0
 27 28  1  0
M  END
$$$$
