RHT.pdb
     RDKit          3D

 29 29  0  0  1  0  0  0  0  0999 V2000
    9.6961  -15.1294   14.6992 N   0  0  0  0  0  0  0  0  0  0  0  0
    8.3224  -14.9301   14.4061 C   0  0  0  0  0  0  0  0  0  0  0  0
    7.8929  -15.0824   13.1972 N   0  0  0  0  0  0  0  0  0  0  0  0
    7.3806  -14.5627   15.4061 N   0  0  0  0  0  0  0  0  0  0  0  0
    7.6030  -13.4798   16.3164 C   0  0  0  0  0  0  0  0  0  0  0  0
    8.4403  -13.8855   17.5099 C   0  0  0  0  0  0  0  0  0  0  0  0
    7.6788  -14.5950   18.5694 C   0  0  0  0  0  0  0  0  0  0  0  0
    7.9172  -14.1064   19.9705 C   0  0  2  0  0  0  0  0  0  0  0  0
    8.4451  -12.7373   19.9418 N   0  0  0  0  0  0  0  0  0  0  0  0
    8.7863  -14.9750   20.7850 C   0  0  0  0  0  0  0  0  0  0  0  0
    8.4586  -16.1501   21.0100 O   0  0  0  0  0  0  0  0  0  0  0  0
    6.9087  -14.9826   12.9160 N   0  0  0  0  0  0  0  0  0  0  0  0
   10.0187  -14.5375   21.3496 C   0  0  1  0  0  0  0  0  0  0  0  0
   10.8146  -15.3494   22.2398 C   0  0  0  0  0  0  0  0  0  0  0  0
   12.2611  -14.9276   22.2615 C   0  0  0  0  0  0  0  0  0  0  0  0
   12.9282  -15.1632   20.9707 C   0  0  0  0  0  0  0  0  0  0  0  0
   12.5436  -16.0767   20.0242 N   0  0  0  0  0  0  0  0  0  0  0  0
   13.3720  -16.0226   18.9827 C   0  0  0  0  0  0  0  0  0  0  0  0
   14.2768  -15.0719   19.2802 N   0  0  0  0  0  0  0  0  0  0  0  0
   14.0110  -14.5354   20.5059 C   0  0  0  0  0  0  0  0  0  0  0  0
   10.2012  -15.3055   23.5975 O   0  0  0  0  0  0  0  0  0  0  0  0
    9.5898  -14.2654   23.9362 C   0  0  0  0  0  0  0  0  0  0  0  0
    7.7795  -14.9724   25.0166 C   0  0  2  0  0  0  0  0  0  0  0  0
    8.1263  -16.2763   25.7084 O   0  0  0  0  0  0  0  0  0  0  0  0
    7.5446  -17.3058   24.9674 C   0  0  2  0  0  0  0  0  0  0  0  0
    9.5949  -16.5199   25.7457 N   0  0  0  0  0  0  0  0  0  0  0  0
   10.2835  -16.3798   24.5030 C   0  0  0  0  0  0  0  0  0  0  0  0
    9.9573  -17.7279   26.5356 O   0  0  0  0  0  0  0  0  0  0  0  0
    9.5786  -17.8265   27.8497 O   0  0  0  0  0  0  0  0  0  0  0  0
  1  2  1  0
  2  4  1  0
  2  3  2  0
  4  5  1  0
  5  6  1  0
  7  6  1  0
  8  7  1  0
  8  9  1  6
 10  8  1  0
 10 11  2  0
 12 10  1  0
 13 12  1  0
 13 20  1  0
 13 14  1  1
 15 14  1  0
 15 19  1  0
 16 17  1  0
 16 15  2  0
 17 18  1  0
 18 19  2  0
 20 26  1  0
 21 20  2  0
 23 22  1  1
 23 24  1  0
 23 25  1  0
 25 27  1  0
 25 26  1  1
 27 29  2  0
 27 28  1  0
M  END
$$$$
