RHT.pdb
     RDKit          3D

 29 29  0  0  1  0  0  0  0  0999 V2000
    9.2087  -13.1785   20.3830 N   0  0  0  0  0  0  0  0  0  0  0  0
    8.6401  -12.2375   19.4863 C   0  0  0  0  0  0  0  0  0  0  0  0
    9.2175  -11.0974   19.2973 N   0  0  0  0  0  0  0  0  0  0  0  0
    7.4384  -12.5017   18.7734 N   0  0  0  0  0  0  0  0  0  0  0  0
    6.6492  -13.6755   18.9976 C   0  0  0  0  0  0  0  0  0  0  0  0
    7.3498  -14.9413   18.5538 C   0  0  0  0  0  0  0  0  0  0  0  0
    8.2231  -15.5449   19.5924 C   0  0  0  0  0  0  0  0  0  0  0  0
    8.8272  -16.8733   19.2332 C   0  0  2  0  0  0  0  0  0  0  0  0
    7.7925  -17.7680   18.7016 N   0  0  0  0  0  0  0  0  0  0  0  0
    9.5614  -17.5313   20.3292 C   0  0  0  0  0  0  0  0  0  0  0  0
    9.0071  -18.4031   21.0159 O   0  0  0  0  0  0  0  0  0  0  0  0
    8.7956  -10.3135   18.7824 N   0  0  0  0  0  0  0  0  0  0  0  0
   10.9110  -17.2200   20.6620 C   0  0  2  0  0  0  0  0  0  0  0  0
   11.5977  -17.7876   21.7984 C   0  0  0  0  0  0  0  0  0  0  0  0
   13.0956  -17.7580   21.6367 C   0  0  0  0  0  0  0  0  0  0  0  0
   13.5580  -18.6661   20.5745 C   0  0  0  0  0  0  0  0  0  0  0  0
   12.9015  -19.7859   20.1348 N   0  0  0  0  0  0  0  0  0  0  0  0
   13.6049  -20.3693   19.1658 C   0  0  0  0  0  0  0  0  0  0  0  0
   14.7041  -19.6109   19.0002 N   0  0  0  0  0  0  0  0  0  0  0  0
   14.6842  -18.5568   19.8656 C   0  0  0  0  0  0  0  0  0  0  0  0
   11.1559  -17.0686   23.0271 O   0  0  0  0  0  0  0  0  0  0  0  0
   11.5315  -15.8836   23.1854 C   0  0  0  0  0  0  0  0  0  0  0  0
    7.5120  -17.8326   25.0298 C   0  0  2  0  0  0  0  0  0  0  0  0
    8.4553  -16.6672   25.2558 O   0  0  0  0  0  0  0  0  0  0  0  0
    8.1884  -16.1590   26.5278 C   0  0  1  0  0  0  0  0  0  0  0  0
    9.8839  -17.0862   25.2267 N   0  0  0  0  0  0  0  0  0  0  0  0
   10.3401  -17.6674   24.0052 C   0  0  0  0  0  0  0  0  0  0  0  0
   10.2968  -17.8068   26.4616 O   0  0  0  0  0  0  0  0  0  0  0  0
   10.1362  -17.2137   27.6873 O   0  0  0  0  0  0  0  0  0  0  0  0
  1  2  1  0
  2  4  1  0
  2  3  2  0
  4  5  1  0
  5  6  1  0
  7  6  1  0
  8  7  1  0
  8  9  1  1
 10  8  1  0
 10 11  2  0
 12 10  1  0
 13 12  1  0
 13 20  1  0
 13 14  1  6
 15 14  1  0
 15 19  1  0
 16 17  1  0
 16 15  2  0
 17 18  1  0
 18 19  2  0
 20 26  1  0
 21 20  2  0
 23 22  1  6
 23 24  1  0
 23 25  1  0
 25 27  1  0
 25 26  1  6
 27 29  2  0
 27 28  1  0
M  END
$$$$
