RHT.pdb
     RDKit          3D

 29 29  0  0  1  0  0  0  0  0999 V2000
    8.3560  -14.2486   17.4103 N   0  0  0  0  0  0  0  0  0  0  0  0
    7.7362  -13.2587   18.2157 C   0  0  0  0  0  0  0  0  0  0  0  0
    6.9363  -12.3986   17.6777 N   0  0  0  0  0  0  0  0  0  0  0  0
    7.9627  -13.1720   19.6168 N   0  0  0  0  0  0  0  0  0  0  0  0
    8.2554  -14.3178   20.4245 C   0  0  0  0  0  0  0  0  0  0  0  0
    9.2831  -15.2297   19.7903 C   0  0  0  0  0  0  0  0  0  0  0  0
    9.6025  -16.4346   20.5978 C   0  0  0  0  0  0  0  0  0  0  0  0
   10.7607  -16.2872   21.5440 C   0  0  2  0  0  0  0  0  0  0  0  0
   11.9551  -16.9260   20.9790 N   0  0  0  0  0  0  0  0  0  0  0  0
   10.5078  -16.7864   22.9078 C   0  0  0  0  0  0  0  0  0  0  0  0
    9.4911  -16.4307   23.5234 O   0  0  0  0  0  0  0  0  0  0  0  0
    6.4838  -11.6301   18.1899 N   0  0  0  0  0  0  0  0  0  0  0  0
   11.3845  -17.6800   23.5873 C   0  0  1  0  0  0  0  0  0  0  0  0
   11.1965  -18.0824   24.9612 C   0  0  0  0  0  0  0  0  0  0  0  0
   12.1133  -19.2102   25.3591 C   0  0  0  0  0  0  0  0  0  0  0  0
   11.6857  -20.5000   24.7934 C   0  0  0  0  0  0  0  0  0  0  0  0
   10.4999  -20.7396   24.1492 N   0  0  0  0  0  0  0  0  0  0  0  0
   10.4430  -22.0149   23.7694 C   0  0  0  0  0  0  0  0  0  0  0  0
   11.5972  -22.5732   24.1778 N   0  0  0  0  0  0  0  0  0  0  0  0
   12.3712  -21.6457   24.8112 C   0  0  0  0  0  0  0  0  0  0  0  0
   11.3728  -16.8870   25.8339 O   0  0  0  0  0  0  0  0  0  0  0  0
   12.2176  -16.0263   25.4932 C   0  0  0  0  0  0  0  0  0  0  0  0
    8.3486  -14.7494   27.6579 C   0  0  2  0  0  0  0  0  0  0  0  0
    9.8235  -14.4164   27.5453 O   0  0  0  0  0  0  0  0  0  0  0  0
   10.0881  -13.3941   28.4575 C   0  0  1  0  0  0  0  0  0  0  0  0
   10.6902  -15.5743   27.8997 N   0  0  0  0  0  0  0  0  0  0  0  0
   10.6318  -16.6928   27.0145 C   0  0  0  0  0  0  0  0  0  0  0  0
   10.6345  -15.9118   29.3481 O   0  0  0  0  0  0  0  0  0  0  0  0
   11.0672  -15.0043   30.2803 O   0  0  0  0  0  0  0  0  0  0  0  0
  1  2  1  0
  2  4  1  0
  2  3  2  0
  4  5  1  0
  5  6  1  0
  7  6  1  0
  8  7  1  0
  8  9  1  6
 10  8  1  0
 10 11  2  0
 12 10  1  0
 13 12  1  0
 13 20  1  0
 13 14  1  1
 15 14  1  0
 15 19  1  0
 16 17  1  0
 16 15  2  0
 17 18  1  0
 18 19  2  0
 20 26  1  0
 21 20  2  0
 23 22  1  6
 23 24  1  0
 23 25  1  0
 25 27  1  0
 25 26  1  6
 27 29  2  0
 27 28  1  0
M  END
$$$$
