RHT.pdb
     RDKit          3D

 29 29  0  0  1  0  0  0  0  0999 V2000
    9.7024  -16.2567   16.2313 N   0  0  0  0  0  0  0  0  0  0  0  0
    8.6448  -15.3110   16.2296 C   0  0  0  0  0  0  0  0  0  0  0  0
    8.0984  -14.9577   15.1135 N   0  0  0  0  0  0  0  0  0  0  0  0
    8.1517  -14.7247   17.4275 N   0  0  0  0  0  0  0  0  0  0  0  0
    8.4486  -13.3759   17.8067 C   0  0  0  0  0  0  0  0  0  0  0  0
    7.6518  -12.9210   19.0101 C   0  0  0  0  0  0  0  0  0  0  0  0
    7.6577  -13.8860   20.1390 C   0  0  0  0  0  0  0  0  0  0  0  0
    8.8701  -13.8324   21.0256 C   0  0  2  0  0  0  0  0  0  0  0  0
   10.0832  -14.0600   20.2316 N   0  0  0  0  0  0  0  0  0  0  0  0
    8.8304  -14.7514   22.1776 C   0  0  0  0  0  0  0  0  0  0  0  0
    7.8659  -14.7323   22.9576 O   0  0  0  0  0  0  0  0  0  0  0  0
    7.3196  -14.2904   15.0363 N   0  0  0  0  0  0  0  0  0  0  0  0
    9.8624  -15.6909   22.4628 C   0  0  1  0  0  0  0  0  0  0  0  0
    9.8213  -16.5957   23.5874 C   0  0  0  0  0  0  0  0  0  0  0  0
   10.7101  -17.7964   23.3903 C   0  0  0  0  0  0  0  0  0  0  0  0
   10.1609  -18.7379   22.4010 C   0  0  0  0  0  0  0  0  0  0  0  0
    8.9257  -18.6536   21.8132 N   0  0  0  0  0  0  0  0  0  0  0  0
    8.7575  -19.6707   20.9699 C   0  0  0  0  0  0  0  0  0  0  0  0
    9.8917  -20.3922   21.0315 N   0  0  0  0  0  0  0  0  0  0  0  0
   10.7644  -19.8242   21.9126 C   0  0  0  0  0  0  0  0  0  0  0  0
   10.1763  -15.8364   24.8200 O   0  0  0  0  0  0  0  0  0  0  0  0
   11.3135  -15.3140   24.8851 C   0  0  0  0  0  0  0  0  0  0  0  0
    8.9652  -12.9778   28.5200 C   0  0  2  0  0  0  0  0  0  0  0  0
    8.4757  -13.9543   27.4684 O   0  0  0  0  0  0  0  0  0  0  0  0
    8.1891  -13.2163   26.3193 C   0  0  1  0  0  0  0  0  0  0  0  0
    9.5116  -14.9628   27.1117 N   0  0  0  0  0  0  0  0  0  0  0  0
    9.2885  -15.6869   25.9018 C   0  0  0  0  0  0  0  0  0  0  0  0
    9.9324  -15.7906   28.2746 O   0  0  0  0  0  0  0  0  0  0  0  0
   10.4560  -15.1895   29.3901 O   0  0  0  0  0  0  0  0  0  0  0  0
  1  2  1  0
  2  4  1  0
  2  3  2  0
  4  5  1  0
  5  6  1  0
  7  6  1  0
  8  7  1  0
  8  9  1  6
 10  8  1  0
 10 11  2  0
 12 10  1  0
 13 12  1  0
 13 20  1  0
 13 14  1  1
 15 14  1  0
 15 19  1  0
 16 17  1  0
 16 15  2  0
 17 18  1  0
 18 19  2  0
 20 26  1  0
 21 20  2  0
 23 22  1  1
 23 24  1  0
 23 25  1  0
 25 27  1  0
 25 26  1  1
 27 29  2  0
 27 28  1  0
M  END
$$$$
