RHT.pdb
     RDKit          3D

 29 29  0  0  1  0  0  0  0  0999 V2000
   10.0720  -14.3188   17.5575 N   0  0  0  0  0  0  0  0  0  0  0  0
   10.5570  -13.4354   18.5559 C   0  0  0  0  0  0  0  0  0  0  0  0
   11.8256  -13.3610   18.7892 N   0  0  0  0  0  0  0  0  0  0  0  0
    9.6891  -12.6128   19.3253 N   0  0  0  0  0  0  0  0  0  0  0  0
    8.2629  -12.6746   19.2105 C   0  0  0  0  0  0  0  0  0  0  0  0
    7.6445  -13.6694   20.1686 C   0  0  0  0  0  0  0  0  0  0  0  0
    8.5593  -14.7669   20.5743 C   0  0  0  0  0  0  0  0  0  0  0  0
    7.9454  -15.8288   21.4427 C   0  0  2  0  0  0  0  0  0  0  0  0
    6.5381  -16.0257   21.0761 N   0  0  0  0  0  0  0  0  0  0  0  0
    8.0697  -15.5860   22.8914 C   0  0  0  0  0  0  0  0  0  0  0  0
    7.7706  -14.4796   23.3661 O   0  0  0  0  0  0  0  0  0  0  0  0
   12.2481  -12.7508   19.5011 N   0  0  0  0  0  0  0  0  0  0  0  0
    8.5265  -16.5723   23.8120 C   0  0  1  0  0  0  0  0  0  0  0  0
    8.5510  -16.3706   25.2416 C   0  0  0  0  0  0  0  0  0  0  0  0
    7.1909  -16.0352   25.7968 C   0  0  0  0  0  0  0  0  0  0  0  0
    6.9948  -14.5842   25.9480 C   0  0  0  0  0  0  0  0  0  0  0  0
    7.4245  -13.8224   27.0032 N   0  0  0  0  0  0  0  0  0  0  0  0
    7.0753  -12.5513   26.8132 C   0  0  0  0  0  0  0  0  0  0  0  0
    6.4254  -12.5195   25.6353 N   0  0  0  0  0  0  0  0  0  0  0  0
    6.3705  -13.7700   25.0934 C   0  0  0  0  0  0  0  0  0  0  0  0
    9.1297  -17.5857   25.8821 O   0  0  0  0  0  0  0  0  0  0  0  0
    8.4775  -18.6539   25.8197 C   0  0  0  0  0  0  0  0  0  0  0  0
   13.0462  -20.2057   27.0809 C   0  0  2  0  0  0  0  0  0  0  0  0
   12.4813  -18.8570   26.6800 O   0  0  0  0  0  0  0  0  0  0  0  0
   12.5176  -18.7904   25.2866 C   0  0  1  0  0  0  0  0  0  0  0  0
   11.0633  -18.6927   27.1039 N   0  0  0  0  0  0  0  0  0  0  0  0
   10.3700  -17.5758   26.5473 C   0  0  0  0  0  0  0  0  0  0  0  0
   10.8746  -18.8876   28.5672 O   0  0  0  0  0  0  0  0  0  0  0  0
   11.0248  -20.1344   29.1174 O   0  0  0  0  0  0  0  0  0  0  0  0
  1  2  1  0
  2  4  1  0
  2  3  2  0
  4  5  1  0
  5  6  1  0
  7  6  1  0
  8  7  1  0
  8  9  1  6
 10  8  1  0
 10 11  2  0
 12 10  1  0
 13 12  1  0
 13 20  1  0
 13 14  1  1
 15 14  1  0
 15 19  1  0
 16 17  1  0
 16 15  2  0
 17 18  1  0
 18 19  2  0
 20 26  1  0
 21 20  2  0
 23 22  1  1
 23 24  1  0
 23 25  1  0
 25 27  1  0
 25 26  1  1
 27 29  2  0
 27 28  1  0
M  END
$$$$
