RHT.pdb
     RDKit          3D

 29 29  0  0  1  0  0  0  0  0999 V2000
    6.6159  -13.5617   18.5975 N   0  0  0  0  0  0  0  0  0  0  0  0
    7.8106  -13.4891   17.8357 C   0  0  0  0  0  0  0  0  0  0  0  0
    7.8083  -13.8567   16.5972 N   0  0  0  0  0  0  0  0  0  0  0  0
    9.0336  -13.0197   18.3888 N   0  0  0  0  0  0  0  0  0  0  0  0
    9.1840  -12.7084   19.7786 C   0  0  0  0  0  0  0  0  0  0  0  0
    9.7902  -13.8483   20.5680 C   0  0  0  0  0  0  0  0  0  0  0  0
    8.8207  -14.9115   20.9360 C   0  0  0  0  0  0  0  0  0  0  0  0
    9.4130  -16.1187   21.6073 C   0  0  2  0  0  0  0  0  0  0  0  0
    8.6820  -17.3260   21.2054 N   0  0  0  0  0  0  0  0  0  0  0  0
    9.4890  -16.0296   23.0769 C   0  0  0  0  0  0  0  0  0  0  0  0
   10.3279  -15.2904   23.6143 O   0  0  0  0  0  0  0  0  0  0  0  0
    8.6345  -13.8334   15.9853 N   0  0  0  0  0  0  0  0  0  0  0  0
    8.6332  -16.7621   23.9487 C   0  0  1  0  0  0  0  0  0  0  0  0
    8.6680  -16.6320   25.3864 C   0  0  0  0  0  0  0  0  0  0  0  0
    7.3845  -16.0721   25.9428 C   0  0  0  0  0  0  0  0  0  0  0  0
    7.1744  -14.6689   25.5510 C   0  0  0  0  0  0  0  0  0  0  0  0
    7.9039  -13.5954   25.9913 N   0  0  0  0  0  0  0  0  0  0  0  0
    7.4411  -12.4773   25.4351 C   0  0  0  0  0  0  0  0  0  0  0  0
    6.4191  -12.8542   24.6448 N   0  0  0  0  0  0  0  0  0  0  0  0
    6.2467  -14.2056   24.7098 C   0  0  0  0  0  0  0  0  0  0  0  0
    8.9970  -17.9614   25.9749 O   0  0  0  0  0  0  0  0  0  0  0  0
    8.1004  -18.8366   25.9954 C   0  0  0  0  0  0  0  0  0  0  0  0
   11.3448  -20.4229   24.8048 C   0  0  2  0  0  0  0  0  0  0  0  0
   11.7499  -20.2278   26.2528 O   0  0  0  0  0  0  0  0  0  0  0  0
   12.8993  -19.4365   26.2584 C   0  0  2  0  0  0  0  0  0  0  0  0
   10.7053  -19.5135   27.0377 N   0  0  0  0  0  0  0  0  0  0  0  0
   10.2659  -18.2650   26.5026 C   0  0  0  0  0  0  0  0  0  0  0  0
   10.9862  -19.5102   28.4992 O   0  0  0  0  0  0  0  0  0  0  0  0
   11.1408  -18.3215   29.1646 O   0  0  0  0  0  0  0  0  0  0  0  0
  1  2  1  0
  2  4  1  0
  2  3  2  0
  4  5  1  0
  5  6  1  0
  7  6  1  0
  8  7  1  0
  8  9  1  1
 10  8  1  0
 10 11  2  0
 12 10  1  0
 13 12  1  0
 13 20  1  0
 13 14  1  1
 15 14  1  0
 15 19  1  0
 16 17  1  0
 16 15  2  0
 17 18  1  0
 18 19  2  0
 20 26  1  0
 21 20  2  0
 23 22  1  6
 23 24  1  0
 23 25  1  0
 25 27  1  0
 25 26  1  1
 27 29  2  0
 27 28  1  0
M  END
$$$$
