RNF.pdb
     RDKit          3D

 31 31  0  0  1  0  0  0  0  0999 V2000
    8.3419  -12.3325   18.4024 N   0  0  0  0  0  0  0  0  0  0  0  0
    7.5281  -13.3709   18.9257 C   0  0  0  0  0  0  0  0  0  0  0  0
    6.7475  -13.0864   19.9305 N   0  0  0  0  0  0  0  0  0  0  0  0
    7.5257  -14.6890   18.4120 N   0  0  0  0  0  0  0  0  0  0  0  0
    7.6784  -15.8184   19.2724 C   0  0  0  0  0  0  0  0  0  0  0  0
    9.0946  -16.3530   19.3741 C   0  0  0  0  0  0  0  0  0  0  0  0
    9.9890  -15.5922   20.2847 C   0  0  0  0  0  0  0  0  0  0  0  0
   10.4630  -16.4907   21.4094 C   0  0  2  0  0  0  0  0  0  0  0  0
   10.4307  -17.8909   20.9389 N   0  0  0  0  0  0  0  0  0  0  0  0
    9.6531  -16.3599   22.6367 C   0  0  0  0  0  0  0  0  0  0  0  0
    9.4015  -15.1952   23.1117 O   0  0  0  0  0  0  0  0  0  0  0  0
    6.2022  -13.8248   20.3786 N   0  0  0  0  0  0  0  0  0  0  0  0
    6.5578  -19.6459   23.1811 C   0  0  0  0  0  0  0  0  0  0  0  0
    6.4720  -18.4380   23.9187 O   0  0  0  0  0  0  0  0  0  0  0  0
    5.6199  -17.5904   23.6384 C   0  0  0  0  0  0  0  0  0  0  0  0
    7.4705  -18.2831   25.0311 C   0  0  2  0  0  0  0  0  0  0  0  0
    8.5146  -17.2828   24.7114 N   0  0  0  0  0  0  0  0  0  0  0  0
    9.0921  -17.4274   23.3796 C   0  0  0  0  0  0  0  0  0  0  0  0
    9.4952  -16.9732   25.7564 O   0  0  0  0  0  0  0  0  0  0  0  0
   10.0894  -17.9104   26.3492 N   0  0  0  0  0  0  0  0  0  0  0  0
    9.8261  -15.6418   26.1506 C   0  0  2  0  0  0  0  0  0  0  0  0
    9.9836  -15.3820   27.5760 C   0  0  0  0  0  0  0  0  0  0  0  0
    8.6746  -14.9670   28.1999 C   0  0  0  0  0  0  0  0  0  0  0  0
    7.9951  -13.9306   27.4001 C   0  0  0  0  0  0  0  0  0  0  0  0
    8.6934  -12.7694   27.1554 C   0  0  0  0  0  0  0  0  0  0  0  0
    8.1057  -11.7813   26.4091 C   0  0  0  0  0  0  0  0  0  0  0  0
    6.8270  -11.9056   25.8873 C   0  0  0  0  0  0  0  0  0  0  0  0
    6.1667  -13.0793   26.1562 C   0  0  0  0  0  0  0  0  0  0  0  0
    6.7379  -14.0945   26.9084 C   0  0  0  0  0  0  0  0  0  0  0  0
   10.4282  -16.6487   28.2702 O   0  0  0  0  0  0  0  0  0  0  0  0
   10.8903  -16.6417   29.5740 O   0  0  0  0  0  0  0  0  0  0  0  0
  2  3  2  0
  2  1  1  0
  4  2  1  0
  5  4  1  0
  6  5  1  0
  7  6  1  0
  8  7  1  0
  8  9  1  6
 10 17  1  0
 10  8  1  0
 11 10  2  0
 13 12  1  0
 13 14  2  0
 15 13  1  0
 16 15  1  6
 16 17  1  0
 18 16  1  0
 19 18  2  0
 20 18  1  0
 21 20  1  0
 21 22  1  6
 23 22  1  0
 23 28  2  0
 24 23  1  0
 25 24  2  0
 25 26  1  0
 26 27  2  0
 27 28  1  0
 29 21  1  0
 30 29  1  0
 31 29  2  0
M  END
$$$$
