RNF.pdb
     RDKit          3D

 31 31  0  0  1  0  0  0  0  0999 V2000
    8.3477  -12.0993   19.6838 N   0  0  0  0  0  0  0  0  0  0  0  0
    7.9150  -13.1366   18.8173 C   0  0  0  0  0  0  0  0  0  0  0  0
    7.1237  -12.8173   17.8314 N   0  0  0  0  0  0  0  0  0  0  0  0
    8.2988  -14.4892   18.9732 N   0  0  0  0  0  0  0  0  0  0  0  0
    8.3382  -15.1030   20.2619 C   0  0  0  0  0  0  0  0  0  0  0  0
    7.0287  -15.0593   21.0269 C   0  0  0  0  0  0  0  0  0  0  0  0
    7.0565  -15.7203   22.3575 C   0  0  0  0  0  0  0  0  0  0  0  0
    7.8260  -17.0229   22.2690 C   0  0  2  0  0  0  0  0  0  0  0  0
    6.8587  -18.1378   22.2035 N   0  0  0  0  0  0  0  0  0  0  0  0
    8.7475  -17.2303   23.4034 C   0  0  0  0  0  0  0  0  0  0  0  0
    8.4428  -18.0683   24.3255 O   0  0  0  0  0  0  0  0  0  0  0  0
    6.7799  -13.5408   17.1976 N   0  0  0  0  0  0  0  0  0  0  0  0
   13.4243  -19.1713   24.8605 C   0  0  0  0  0  0  0  0  0  0  0  0
   13.4757  -17.8143   24.4530 O   0  0  0  0  0  0  0  0  0  0  0  0
   14.4109  -17.0888   24.8027 C   0  0  0  0  0  0  0  0  0  0  0  0
   12.3360  -17.3508   23.5900 C   0  0  1  0  0  0  0  0  0  0  0  0
   11.0952  -17.1355   24.3688 N   0  0  0  0  0  0  0  0  0  0  0  0
    9.9917  -16.5804   23.5928 C   0  0  0  0  0  0  0  0  0  0  0  0
   11.2316  -16.5576   25.7094 O   0  0  0  0  0  0  0  0  0  0  0  0
   12.1326  -16.9790   26.4798 N   0  0  0  0  0  0  0  0  0  0  0  0
   10.3856  -15.5202   26.2051 C   0  0  1  0  0  0  0  0  0  0  0  0
   10.2074  -15.4302   27.6488 C   0  0  0  0  0  0  0  0  0  0  0  0
    8.7604  -15.1948   28.0034 C   0  0  0  0  0  0  0  0  0  0  0  0
    8.1721  -14.1092   27.1965 C   0  0  0  0  0  0  0  0  0  0  0  0
    6.9320  -14.3399   26.6443 C   0  0  0  0  0  0  0  0  0  0  0  0
    6.3417  -13.3566   25.8938 C   0  0  0  0  0  0  0  0  0  0  0  0
    6.9481  -12.1303   25.6670 C   0  0  0  0  0  0  0  0  0  0  0  0
    8.1841  -11.9432   26.2357 C   0  0  0  0  0  0  0  0  0  0  0  0
    8.8035  -12.9212   26.9990 C   0  0  0  0  0  0  0  0  0  0  0  0
   10.6172  -16.7375   28.2870 O   0  0  0  0  0  0  0  0  0  0  0  0
   10.9169  -16.8286   29.6343 O   0  0  0  0  0  0  0  0  0  0  0  0
  2  3  2  0
  2  1  1  0
  4  2  1  0
  5  4  1  0
  6  5  1  0
  7  6  1  0
  8  7  1  0
  8  9  1  1
 10 17  1  0
 10  8  1  0
 11 10  2  0
 13 12  1  0
 13 14  2  0
 15 13  1  0
 16 15  1  6
 16 17  1  0
 18 16  1  0
 19 18  2  0
 20 18  1  0
 21 20  1  0
 21 22  1  1
 23 22  1  0
 23 28  2  0
 24 23  1  0
 25 24  2  0
 25 26  1  0
 26 27  2  0
 27 28  1  0
 29 21  1  0
 30 29  1  0
 31 29  2  0
M  END
$$$$
