RNF.pdb
     RDKit          3D

 31 31  0  0  1  0  0  0  0  0999 V2000
    7.6313  -13.5709   15.0127 N   0  0  0  0  0  0  0  0  0  0  0  0
    8.6177  -14.2663   15.7593 C   0  0  0  0  0  0  0  0  0  0  0  0
    9.4113  -15.0763   15.1158 N   0  0  0  0  0  0  0  0  0  0  0  0
    8.7775  -14.1228   17.1576 N   0  0  0  0  0  0  0  0  0  0  0  0
    7.7092  -13.6512   17.9796 C   0  0  0  0  0  0  0  0  0  0  0  0
    7.2405  -14.6326   19.0374 C   0  0  0  0  0  0  0  0  0  0  0  0
    7.1939  -14.0905   20.4202 C   0  0  0  0  0  0  0  0  0  0  0  0
    8.4244  -14.5314   21.1873 C   0  0  2  0  0  0  0  0  0  0  0  0
    9.2552  -15.3728   20.3015 N   0  0  0  0  0  0  0  0  0  0  0  0
    8.1028  -15.2751   22.4213 C   0  0  0  0  0  0  0  0  0  0  0  0
    6.9561  -15.8361   22.5454 O   0  0  0  0  0  0  0  0  0  0  0  0
   10.0490  -15.6842   15.6326 N   0  0  0  0  0  0  0  0  0  0  0  0
   10.1032  -19.8179   22.9770 C   0  0  0  0  0  0  0  0  0  0  0  0
   10.9204  -18.6594   22.9998 O   0  0  0  0  0  0  0  0  0  0  0  0
   12.1158  -18.7401   23.2961 C   0  0  0  0  0  0  0  0  0  0  0  0
   10.2324  -17.3712   22.6450 C   0  0  1  0  0  0  0  0  0  0  0  0
    9.6685  -16.6916   23.8337 N   0  0  0  0  0  0  0  0  0  0  0  0
    8.9625  -15.4509   23.5333 C   0  0  0  0  0  0  0  0  0  0  0  0
   10.5074  -16.6249   25.0343 O   0  0  0  0  0  0  0  0  0  0  0  0
   11.0448  -17.6729   25.4767 N   0  0  0  0  0  0  0  0  0  0  0  0
   10.7591  -15.4145   25.7479 C   0  0  2  0  0  0  0  0  0  0  0  0
   10.0902  -15.2387   27.0308 C   0  0  0  0  0  0  0  0  0  0  0  0
    8.5913  -15.3028   26.8746 C   0  0  0  0  0  0  0  0  0  0  0  0
    8.0026  -13.9594   26.7192 C   0  0  0  0  0  0  0  0  0  0  0  0
    6.6285  -13.8714   26.7349 C   0  0  0  0  0  0  0  0  0  0  0  0
    6.0364  -12.6424   26.6028 C   0  0  0  0  0  0  0  0  0  0  0  0
    6.7714  -11.4761   26.4529 C   0  0  0  0  0  0  0  0  0  0  0  0
    8.1381  -11.6100   26.4421 C   0  0  0  0  0  0  0  0  0  0  0  0
    8.7624  -12.8410   26.5736 C   0  0  0  0  0  0  0  0  0  0  0  0
   10.4909  -16.3591   27.9627 O   0  0  0  0  0  0  0  0  0  0  0  0
   10.5630  -16.1776   29.3321 O   0  0  0  0  0  0  0  0  0  0  0  0
  2  3  2  0
  2  1  1  0
  4  2  1  0
  5  4  1  0
  6  5  1  0
  7  6  1  0
  8  7  1  0
  8  9  1  6
 10 17  1  0
 10  8  1  0
 11 10  2  0
 13 12  1  0
 13 14  2  0
 15 13  1  0
 16 15  1  6
 16 17  1  0
 18 16  1  0
 19 18  2  0
 20 18  1  0
 21 20  1  0
 21 22  1  6
 23 22  1  0
 23 28  2  0
 24 23  1  0
 25 24  2  0
 25 26  1  0
 26 27  2  0
 27 28  1  0
 29 21  1  0
 30 29  1  0
 31 29  2  0
M  END
$$$$
