RNF.pdb
     RDKit          3D

 31 31  0  0  1  0  0  0  0  0999 V2000
    8.7853  -12.7332   17.2951 N   0  0  0  0  0  0  0  0  0  0  0  0
    7.7368  -13.6168   17.6612 C   0  0  0  0  0  0  0  0  0  0  0  0
    7.0273  -14.1502   16.7062 N   0  0  0  0  0  0  0  0  0  0  0  0
    7.4286  -13.9420   19.0030 N   0  0  0  0  0  0  0  0  0  0  0  0
    8.3836  -14.5881   19.8456 C   0  0  0  0  0  0  0  0  0  0  0  0
    8.6250  -16.0516   19.5269 C   0  0  0  0  0  0  0  0  0  0  0  0
    9.6116  -16.7312   20.4060 C   0  0  0  0  0  0  0  0  0  0  0  0
    8.9384  -17.1719   21.6903 C   0  0  2  0  0  0  0  0  0  0  0  0
    8.1270  -16.0498   22.2057 N   0  0  0  0  0  0  0  0  0  0  0  0
    9.8950  -17.6102   22.7257 C   0  0  0  0  0  0  0  0  0  0  0  0
   10.5465  -18.7038   22.5678 O   0  0  0  0  0  0  0  0  0  0  0  0
    6.2747  -14.8027   16.9326 N   0  0  0  0  0  0  0  0  0  0  0  0
   12.5443  -15.3720   22.3620 C   0  0  0  0  0  0  0  0  0  0  0  0
   13.2417  -16.0464   23.3961 O   0  0  0  0  0  0  0  0  0  0  0  0
   14.2859  -15.5780   23.8581 C   0  0  0  0  0  0  0  0  0  0  0  0
   12.6237  -17.3334   23.8652 C   0  0  1  0  0  0  0  0  0  0  0  0
   11.4184  -17.1062   24.6949 N   0  0  0  0  0  0  0  0  0  0  0  0
   10.1914  -16.9221   23.9278 C   0  0  0  0  0  0  0  0  0  0  0  0
   11.5482  -16.1990   25.8394 O   0  0  0  0  0  0  0  0  0  0  0  0
   12.6333  -16.1496   26.4742 N   0  0  0  0  0  0  0  0  0  0  0  0
   10.4941  -15.3469   26.2871 C   0  0  1  0  0  0  0  0  0  0  0  0
    9.9344  -15.6065   27.6075 C   0  0  0  0  0  0  0  0  0  0  0  0
    8.4287  -15.5196   27.5854 C   0  0  0  0  0  0  0  0  0  0  0  0
    7.9647  -14.2834   26.9281 C   0  0  0  0  0  0  0  0  0  0  0  0
    7.0056  -14.4161   25.9490 C   0  0  0  0  0  0  0  0  0  0  0  0
    6.5375  -13.2940   25.3163 C   0  0  0  0  0  0  0  0  0  0  0  0
    6.9947  -12.0218   25.6252 C   0  0  0  0  0  0  0  0  0  0  0  0
    7.9512  -11.9358   26.6068 C   0  0  0  0  0  0  0  0  0  0  0  0
    8.4420  -13.0547   27.2623 C   0  0  0  0  0  0  0  0  0  0  0  0
   10.2950  -17.0098   28.0377 O   0  0  0  0  0  0  0  0  0  0  0  0
   10.8226  -17.2758   29.2885 O   0  0  0  0  0  0  0  0  0  0  0  0
  2  3  2  0
  2  1  1  0
  4  2  1  0
  5  4  1  0
  6  5  1  0
  7  6  1  0
  8  7  1  0
  8  9  1  1
 10 17  1  0
 10  8  1  0
 11 10  2  0
 13 12  1  0
 13 14  2  0
 15 13  1  0
 16 15  1  1
 16 17  1  0
 18 16  1  0
 19 18  2  0
 20 18  1  0
 21 20  1  0
 21 22  1  1
 23 22  1  0
 23 28  2  0
 24 23  1  0
 25 24  2  0
 25 26  1  0
 26 27  2  0
 27 28  1  0
 29 21  1  0
 30 29  1  0
 31 29  2  0
M  END
$$$$
