RNF.pdb
     RDKit          3D

 31 31  0  0  1  0  0  0  0  0999 V2000
    7.9523  -11.4288   19.8597 N   0  0  0  0  0  0  0  0  0  0  0  0
    8.5645  -12.5031   19.1630 C   0  0  0  0  0  0  0  0  0  0  0  0
    9.7594  -12.3129   18.6772 N   0  0  0  0  0  0  0  0  0  0  0  0
    7.9428  -13.7595   18.9725 N   0  0  0  0  0  0  0  0  0  0  0  0
    6.7299  -14.0945   19.6477 C   0  0  0  0  0  0  0  0  0  0  0  0
    6.7133  -15.4748   20.2772 C   0  0  0  0  0  0  0  0  0  0  0  0
    7.5536  -15.6200   21.4941 C   0  0  0  0  0  0  0  0  0  0  0  0
    7.8129  -17.0878   21.7682 C   0  0  2  0  0  0  0  0  0  0  0  0
    6.5470  -17.8299   21.5956 N   0  0  0  0  0  0  0  0  0  0  0  0
    8.3561  -17.3386   23.1178 C   0  0  0  0  0  0  0  0  0  0  0  0
    7.5616  -17.6495   24.0755 O   0  0  0  0  0  0  0  0  0  0  0  0
   10.2213  -13.0568   18.1514 N   0  0  0  0  0  0  0  0  0  0  0  0
   13.1855  -19.0529   26.3543 C   0  0  0  0  0  0  0  0  0  0  0  0
   11.7877  -19.0724   26.1176 O   0  0  0  0  0  0  0  0  0  0  0  0
   11.0061  -19.4325   27.0023 C   0  0  0  0  0  0  0  0  0  0  0  0
   11.3540  -18.6331   24.7474 C   0  0  2  0  0  0  0  0  0  0  0  0
   10.2328  -17.6671   24.7978 N   0  0  0  0  0  0  0  0  0  0  0  0
    9.7217  -17.2767   23.4884 C   0  0  0  0  0  0  0  0  0  0  0  0
   10.3394  -16.5585   25.7513 O   0  0  0  0  0  0  0  0  0  0  0  0
   10.9978  -15.5322   25.4411 N   0  0  0  0  0  0  0  0  0  0  0  0
    9.7259  -16.5719   27.0401 C   0  0  1  0  0  0  0  0  0  0  0  0
   10.1215  -15.5342   27.9840 C   0  0  0  0  0  0  0  0  0  0  0  0
    8.9181  -14.7955   28.5143 C   0  0  0  0  0  0  0  0  0  0  0  0
    8.2744  -13.9810   27.4667 C   0  0  0  0  0  0  0  0  0  0  0  0
    7.1289  -14.4872   26.8942 C   0  0  0  0  0  0  0  0  0  0  0  0
    6.4910  -13.7612   25.9224 C   0  0  0  0  0  0  0  0  0  0  0  0
    6.9566  -12.5288   25.4898 C   0  0  0  0  0  0  0  0  0  0  0  0
    8.1019  -12.0623   26.0869 C   0  0  0  0  0  0  0  0  0  0  0  0
    8.7669  -12.7764   27.0720 C   0  0  0  0  0  0  0  0  0  0  0  0
   10.8132  -16.1704   29.1676 O   0  0  0  0  0  0  0  0  0  0  0  0
   11.2988  -15.4158   30.2203 O   0  0  0  0  0  0  0  0  0  0  0  0
  2  3  2  0
  2  1  1  0
  4  2  1  0
  5  4  1  0
  6  5  1  0
  7  6  1  0
  8  7  1  0
  8  9  1  1
 10 17  1  0
 10  8  1  0
 11 10  2  0
 13 12  1  0
 13 14  2  0
 15 13  1  0
 16 15  1  1
 16 17  1  0
 18 16  1  0
 19 18  2  0
 20 18  1  0
 21 20  1  0
 21 22  1  1
 23 22  1  0
 23 28  2  0
 24 23  1  0
 25 24  2  0
 25 26  1  0
 26 27  2  0
 27 28  1  0
 29 21  1  0
 30 29  1  0
 31 29  2  0
M  END
$$$$
