RNF.pdb
     RDKit          3D

 31 31  0  0  1  0  0  0  0  0999 V2000
    7.9049  -13.3945   16.8478 N   0  0  0  0  0  0  0  0  0  0  0  0
    8.1579  -13.3929   18.2443 C   0  0  0  0  0  0  0  0  0  0  0  0
    8.1359  -12.2474   18.8667 N   0  0  0  0  0  0  0  0  0  0  0  0
    8.4309  -14.5666   18.9852 N   0  0  0  0  0  0  0  0  0  0  0  0
    7.9275  -15.8370   18.5704 C   0  0  0  0  0  0  0  0  0  0  0  0
    6.7763  -16.3674   19.4042 C   0  0  0  0  0  0  0  0  0  0  0  0
    6.5774  -15.6824   20.7078 C   0  0  0  0  0  0  0  0  0  0  0  0
    7.6629  -16.1001   21.6793 C   0  0  2  0  0  0  0  0  0  0  0  0
    8.3719  -17.2691   21.1191 N   0  0  0  0  0  0  0  0  0  0  0  0
    7.1444  -16.4296   23.0216 C   0  0  0  0  0  0  0  0  0  0  0  0
    6.3584  -15.6104   23.6187 O   0  0  0  0  0  0  0  0  0  0  0  0
    8.3812  -12.1996   19.8571 N   0  0  0  0  0  0  0  0  0  0  0  0
    8.8155  -19.6860   24.5610 C   0  0  0  0  0  0  0  0  0  0  0  0
    7.5785  -20.2680   24.9372 O   0  0  0  0  0  0  0  0  0  0  0  0
    7.4454  -21.4946   24.9678 C   0  0  0  0  0  0  0  0  0  0  0  0
    6.4828  -19.2995   25.2834 C   0  0  1  0  0  0  0  0  0  0  0  0
    6.8960  -17.8916   25.0840 N   0  0  0  0  0  0  0  0  0  0  0  0
    7.4274  -17.6077   23.7555 C   0  0  0  0  0  0  0  0  0  0  0  0
    7.6345  -17.2444   26.1727 O   0  0  0  0  0  0  0  0  0  0  0  0
    7.2240  -17.3580   27.3565 N   0  0  0  0  0  0  0  0  0  0  0  0
    8.8201  -16.4764   25.9670 C   0  0  2  0  0  0  0  0  0  0  0  0
    9.3500  -15.7392   27.1071 C   0  0  0  0  0  0  0  0  0  0  0  0
    8.2817  -14.8884   27.7473 C   0  0  0  0  0  0  0  0  0  0  0  0
    7.8672  -13.7809   26.8657 C   0  0  0  0  0  0  0  0  0  0  0  0
    6.9866  -12.8600   27.3876 C   0  0  0  0  0  0  0  0  0  0  0  0
    6.5800  -11.8084   26.6082 C   0  0  0  0  0  0  0  0  0  0  0  0
    7.0233  -11.6341   25.3059 C   0  0  0  0  0  0  0  0  0  0  0  0
    7.8999  -12.5759   24.8256 C   0  0  0  0  0  0  0  0  0  0  0  0
    8.3269  -13.6491   25.5927 C   0  0  0  0  0  0  0  0  0  0  0  0
    9.8318  -16.7156   28.1552 O   0  0  0  0  0  0  0  0  0  0  0  0
    9.7081  -18.0833   27.9891 O   0  0  0  0  0  0  0  0  0  0  0  0
  2  3  2  0
  2  1  1  0
  4  2  1  0
  5  4  1  0
  6  5  1  0
  7  6  1  0
  8  7  1  0
  8  9  1  6
 10 17  1  0
 10  8  1  0
 11 10  2  0
 13 12  1  0
 13 14  2  0
 15 13  1  0
 16 15  1  6
 16 17  1  0
 18 16  1  0
 19 18  2  0
 20 18  1  0
 21 20  1  0
 21 22  1  6
 23 22  1  0
 23 28  2  0
 24 23  1  0
 25 24  2  0
 25 26  1  0
 26 27  2  0
 27 28  1  0
 29 21  1  0
 30 29  1  0
 31 29  2  0
M  END
$$$$
