RNF.pdb
     RDKit          3D

 31 31  0  0  1  0  0  0  0  0999 V2000
   10.5952  -13.7737   19.9774 N   0  0  0  0  0  0  0  0  0  0  0  0
   10.1107  -13.5118   18.6693 C   0  0  0  0  0  0  0  0  0  0  0  0
   10.8027  -13.9637   17.6609 N   0  0  0  0  0  0  0  0  0  0  0  0
    8.9224  -12.7888   18.4118 N   0  0  0  0  0  0  0  0  0  0  0  0
    7.7531  -12.9795   19.2092 C   0  0  0  0  0  0  0  0  0  0  0  0
    7.4256  -14.4277   19.5208 C   0  0  0  0  0  0  0  0  0  0  0  0
    7.4439  -14.7789   20.9646 C   0  0  0  0  0  0  0  0  0  0  0  0
    7.0812  -16.2395   21.1434 C   0  0  2  0  0  0  0  0  0  0  0  0
    5.6793  -16.4321   20.7185 N   0  0  0  0  0  0  0  0  0  0  0  0
    7.2495  -16.7131   22.5314 C   0  0  0  0  0  0  0  0  0  0  0  0
    6.2382  -16.7444   23.3198 O   0  0  0  0  0  0  0  0  0  0  0  0
   10.5916  -13.6458   16.7133 N   0  0  0  0  0  0  0  0  0  0  0  0
    8.0503  -19.9633   26.7433 C   0  0  0  0  0  0  0  0  0  0  0  0
    9.1794  -19.4454   26.0597 O   0  0  0  0  0  0  0  0  0  0  0  0
   10.2670  -19.3403   26.6336 C   0  0  0  0  0  0  0  0  0  0  0  0
    8.9481  -19.0498   24.6284 C   0  0  1  0  0  0  0  0  0  0  0  0
    8.5815  -17.6214   24.4944 N   0  0  0  0  0  0  0  0  0  0  0  0
    8.4591  -17.1632   23.1148 C   0  0  0  0  0  0  0  0  0  0  0  0
    9.2511  -16.6665   25.3828 O   0  0  0  0  0  0  0  0  0  0  0  0
   10.3835  -16.2154   25.0711 N   0  0  0  0  0  0  0  0  0  0  0  0
    8.6827  -16.2051   26.6083 C   0  0  1  0  0  0  0  0  0  0  0  0
    9.4954  -15.3234   27.4365 C   0  0  0  0  0  0  0  0  0  0  0  0
    8.6603  -14.2195   28.0359 C   0  0  0  0  0  0  0  0  0  0  0  0
    8.0752  -13.3536   26.9950 C   0  0  0  0  0  0  0  0  0  0  0  0
    8.9512  -12.6416   26.2066 C   0  0  0  0  0  0  0  0  0  0  0  0
    8.4538  -11.8303   25.2202 C   0  0  0  0  0  0  0  0  0  0  0  0
    7.0939  -11.6972   24.9834 C   0  0  0  0  0  0  0  0  0  0  0  0
    6.2566  -12.4246   25.7932 C   0  0  0  0  0  0  0  0  0  0  0  0
    6.7335  -13.2524   26.7981 C   0  0  0  0  0  0  0  0  0  0  0  0
   10.0823  -16.1133   28.5837 O   0  0  0  0  0  0  0  0  0  0  0  0
   10.9630  -15.5439   29.4856 O   0  0  0  0  0  0  0  0  0  0  0  0
  2  3  2  0
  2  1  1  0
  4  2  1  0
  5  4  1  0
  6  5  1  0
  7  6  1  0
  8  7  1  0
  8  9  1  1
 10 17  1  0
 10  8  1  0
 11 10  2  0
 13 12  1  0
 13 14  2  0
 15 13  1  0
 16 15  1  1
 16 17  1  0
 18 16  1  0
 19 18  2  0
 20 18  1  0
 21 20  1  0
 21 22  1  1
 23 22  1  0
 23 28  2  0
 24 23  1  0
 25 24  2  0
 25 26  1  0
 26 27  2  0
 27 28  1  0
 29 21  1  0
 30 29  1  0
 31 29  2  0
M  END
$$$$
