RNF.pdb
     RDKit          3D

 31 31  0  0  1  0  0  0  0  0999 V2000
    8.3840  -13.7375   20.5860 N   0  0  0  0  0  0  0  0  0  0  0  0
    8.0970  -13.7072   19.1964 C   0  0  0  0  0  0  0  0  0  0  0  0
    8.3858  -12.6197   18.5376 N   0  0  0  0  0  0  0  0  0  0  0  0
    7.5165  -14.7929   18.4996 N   0  0  0  0  0  0  0  0  0  0  0  0
    7.4338  -16.0908   19.0893 C   0  0  0  0  0  0  0  0  0  0  0  0
    6.1190  -16.3904   19.7846 C   0  0  0  0  0  0  0  0  0  0  0  0
    6.2111  -17.3498   20.9156 C   0  0  0  0  0  0  0  0  0  0  0  0
    6.5025  -16.6027   22.2015 C   0  0  2  0  0  0  0  0  0  0  0  0
    6.3480  -15.1549   21.9504 N   0  0  0  0  0  0  0  0  0  0  0  0
    7.8516  -16.8732   22.7364 C   0  0  0  0  0  0  0  0  0  0  0  0
    8.1493  -18.0521   23.1450 O   0  0  0  0  0  0  0  0  0  0  0  0
    8.1206  -12.5322   17.5551 N   0  0  0  0  0  0  0  0  0  0  0  0
   13.0939  -17.5207   23.0824 C   0  0  0  0  0  0  0  0  0  0  0  0
   12.6640  -16.1884   23.3077 O   0  0  0  0  0  0  0  0  0  0  0  0
   13.3402  -15.4184   23.9954 C   0  0  0  0  0  0  0  0  0  0  0  0
   11.3621  -15.8071   22.6610 C   0  0  1  0  0  0  0  0  0  0  0  0
   10.1927  -16.2170   23.4718 N   0  0  0  0  0  0  0  0  0  0  0  0
    8.9048  -15.9328   22.8486 C   0  0  0  0  0  0  0  0  0  0  0  0
   10.2354  -15.9329   24.9095 O   0  0  0  0  0  0  0  0  0  0  0  0
   10.8883  -14.9426   25.3289 N   0  0  0  0  0  0  0  0  0  0  0  0
    9.5641  -16.7291   25.8858 C   0  0  1  0  0  0  0  0  0  0  0  0
    9.6462  -16.2994   27.2760 C   0  0  0  0  0  0  0  0  0  0  0  0
    8.2850  -15.9326   27.8120 C   0  0  0  0  0  0  0  0  0  0  0  0
    7.8126  -14.6474   27.2638 C   0  0  0  0  0  0  0  0  0  0  0  0
    8.6372  -13.5564   27.4241 C   0  0  0  0  0  0  0  0  0  0  0  0
    8.2441  -12.3427   26.9231 C   0  0  0  0  0  0  0  0  0  0  0  0
    7.0404  -12.1688   26.2568 C   0  0  0  0  0  0  0  0  0  0  0  0
    6.2490  -13.2827   26.1201 C   0  0  0  0  0  0  0  0  0  0  0  0
    6.6227  -14.5219   26.6174 C   0  0  0  0  0  0  0  0  0  0  0  0
   10.1684  -17.4375   28.1224 O   0  0  0  0  0  0  0  0  0  0  0  0
   10.3896  -18.6967   27.5944 O   0  0  0  0  0  0  0  0  0  0  0  0
  2  3  2  0
  2  1  1  0
  4  2  1  0
  5  4  1  0
  6  5  1  0
  7  6  1  0
  8  7  1  0
  8  9  1  6
 10 17  1  0
 10  8  1  0
 11 10  2  0
 13 12  1  0
 13 14  2  0
 15 13  1  0
 16 15  1  6
 16 17  1  0
 18 16  1  0
 19 18  2  0
 20 18  1  0
 21 20  1  0
 21 22  1  1
 23 22  1  0
 23 28  2  0
 24 23  1  0
 25 24  2  0
 25 26  1  0
 26 27  2  0
 27 28  1  0
 29 21  1  0
 30 29  1  0
 31 29  2  0
M  END
$$$$
