RNF.pdb
     RDKit          3D

 31 31  0  0  1  0  0  0  0  0999 V2000
    9.7859  -14.2886   18.7609 N   0  0  0  0  0  0  0  0  0  0  0  0
    8.9028  -13.1859   18.8962 C   0  0  0  0  0  0  0  0  0  0  0  0
    9.4251  -12.0034   19.0663 N   0  0  0  0  0  0  0  0  0  0  0  0
    7.4942  -13.3099   18.8560 N   0  0  0  0  0  0  0  0  0  0  0  0
    6.8612  -14.5870   18.9448 C   0  0  0  0  0  0  0  0  0  0  0  0
    7.0109  -15.2784   20.2869 C   0  0  0  0  0  0  0  0  0  0  0  0
    6.3910  -16.6263   20.3714 C   0  0  0  0  0  0  0  0  0  0  0  0
    6.6077  -17.2065   21.7546 C   0  0  2  0  0  0  0  0  0  0  0  0
    6.2311  -16.1882   22.7567 N   0  0  0  0  0  0  0  0  0  0  0  0
    7.9981  -17.6439   21.9887 C   0  0  0  0  0  0  0  0  0  0  0  0
    8.5464  -18.4786   21.1838 O   0  0  0  0  0  0  0  0  0  0  0  0
    8.8199  -11.1951   19.2203 N   0  0  0  0  0  0  0  0  0  0  0  0
   12.0331  -14.2023   21.0723 C   0  0  0  0  0  0  0  0  0  0  0  0
   11.8101  -15.5698   21.3732 O   0  0  0  0  0  0  0  0  0  0  0  0
   12.7562  -16.3591   21.4454 C   0  0  0  0  0  0  0  0  0  0  0  0
   10.3757  -15.9626   21.5893 C   0  0  2  0  0  0  0  0  0  0  0  0
   10.1789  -16.6830   22.8680 N   0  0  0  0  0  0  0  0  0  0  0  0
    8.8348  -17.2200   23.0500 C   0  0  0  0  0  0  0  0  0  0  0  0
   10.7492  -16.0804   24.0768 O   0  0  0  0  0  0  0  0  0  0  0  0
   11.9273  -16.3628   24.4163 N   0  0  0  0  0  0  0  0  0  0  0  0
   10.0332  -15.1700   24.9111 C   0  0  1  0  0  0  0  0  0  0  0  0
    9.7621  -15.5849   26.2817 C   0  0  0  0  0  0  0  0  0  0  0  0
    8.2816  -15.5727   26.5697 C   0  0  0  0  0  0  0  0  0  0  0  0
    7.6874  -14.2482   26.3086 C   0  0  0  0  0  0  0  0  0  0  0  0
    6.3552  -14.2160   25.9621 C   0  0  0  0  0  0  0  0  0  0  0  0
    5.7574  -13.0069   25.7187 C   0  0  0  0  0  0  0  0  0  0  0  0
    6.4459  -11.8065   25.8080 C   0  0  0  0  0  0  0  0  0  0  0  0
    7.7722  -11.8851   26.1557 C   0  0  0  0  0  0  0  0  0  0  0  0
    8.4012  -13.0949   26.4071 C   0  0  0  0  0  0  0  0  0  0  0  0
   10.2448  -17.0032   26.4809 O   0  0  0  0  0  0  0  0  0  0  0  0
   10.7684  -17.4324   27.6872 O   0  0  0  0  0  0  0  0  0  0  0  0
  2  3  2  0
  2  1  1  0
  4  2  1  0
  5  4  1  0
  6  5  1  0
  7  6  1  0
  8  7  1  0
  8  9  1  1
 10 17  1  0
 10  8  1  0
 11 10  2  0
 13 12  1  0
 13 14  2  0
 15 13  1  0
 16 15  1  6
 16 17  1  0
 18 16  1  0
 19 18  2  0
 20 18  1  0
 21 20  1  0
 21 22  1  1
 23 22  1  0
 23 28  2  0
 24 23  1  0
 25 24  2  0
 25 26  1  0
 26 27  2  0
 27 28  1  0
 29 21  1  0
 30 29  1  0
 31 29  2  0
M  END
$$$$
