RNF.pdb
     RDKit          3D

 31 31  0  0  1  0  0  0  0  0999 V2000
    7.3180  -15.0614   16.6738 N   0  0  0  0  0  0  0  0  0  0  0  0
    7.4743  -13.6589   16.5231 C   0  0  0  0  0  0  0  0  0  0  0  0
    7.6486  -13.1905   15.3188 N   0  0  0  0  0  0  0  0  0  0  0  0
    7.4505  -12.7539   17.6101 N   0  0  0  0  0  0  0  0  0  0  0  0
    7.3851  -13.2192   18.9586 C   0  0  0  0  0  0  0  0  0  0  0  0
    8.2422  -14.4358   19.2534 C   0  0  0  0  0  0  0  0  0  0  0  0
    8.1389  -14.9552   20.6418 C   0  0  0  0  0  0  0  0  0  0  0  0
    9.0017  -16.1918   20.7941 C   0  0  2  0  0  0  0  0  0  0  0  0
    8.5414  -17.2093   19.8266 N   0  0  0  0  0  0  0  0  0  0  0  0
    8.9731  -16.7545   22.1586 C   0  0  0  0  0  0  0  0  0  0  0  0
    8.2808  -17.8073   22.3981 O   0  0  0  0  0  0  0  0  0  0  0  0
    7.8482  -12.1984   15.1807 N   0  0  0  0  0  0  0  0  0  0  0  0
   11.3513  -20.2662   24.9836 C   0  0  0  0  0  0  0  0  0  0  0  0
   11.8673  -18.9697   24.7321 O   0  0  0  0  0  0  0  0  0  0  0  0
   12.8501  -18.5540   25.3522 C   0  0  0  0  0  0  0  0  0  0  0  0
   11.1423  -18.1734   23.6839 C   0  0  1  0  0  0  0  0  0  0  0  0
   10.3528  -17.0655   24.2686 N   0  0  0  0  0  0  0  0  0  0  0  0
    9.6622  -16.2399   23.2840 C   0  0  0  0  0  0  0  0  0  0  0  0
   10.9652  -16.3038   25.3615 O   0  0  0  0  0  0  0  0  0  0  0  0
   11.4225  -15.1533   25.1380 N   0  0  0  0  0  0  0  0  0  0  0  0
   11.0755  -16.7990   26.6958 C   0  0  1  0  0  0  0  0  0  0  0  0
   10.3967  -16.0533   27.7480 C   0  0  0  0  0  0  0  0  0  0  0  0
    8.9018  -16.0711   27.5479 C   0  0  0  0  0  0  0  0  0  0  0  0
    8.4052  -14.7776   27.0420 C   0  0  0  0  0  0  0  0  0  0  0  0
    7.2699  -14.8032   26.2632 C   0  0  0  0  0  0  0  0  0  0  0  0
    6.7662  -13.6245   25.7779 C   0  0  0  0  0  0  0  0  0  0  0  0
    7.3588  -12.3989   26.0419 C   0  0  0  0  0  0  0  0  0  0  0  0
    8.4889  -12.4198   26.8218 C   0  0  0  0  0  0  0  0  0  0  0  0
    9.0193  -13.5979   27.3252 C   0  0  0  0  0  0  0  0  0  0  0  0
   10.6768  -16.7030   29.0836 O   0  0  0  0  0  0  0  0  0  0  0  0
   11.2851  -17.9417   29.1782 O   0  0  0  0  0  0  0  0  0  0  0  0
  2  3  2  0
  2  1  1  0
  4  2  1  0
  5  4  1  0
  6  5  1  0
  7  6  1  0
  8  7  1  0
  8  9  1  6
 10 17  1  0
 10  8  1  0
 11 10  2  0
 13 12  1  0
 13 14  2  0
 15 13  1  0
 16 15  1  1
 16 17  1  0
 18 16  1  0
 19 18  2  0
 20 18  1  0
 21 20  1  0
 21 22  1  1
 23 22  1  0
 23 28  2  0
 24 23  1  0
 25 24  2  0
 25 26  1  0
 26 27  2  0
 27 28  1  0
 29 21  1  0
 30 29  1  0
 31 29  2  0
M  END
$$$$
