RNF.pdb
     RDKit          3D

 31 31  0  0  1  0  0  0  0  0999 V2000
    9.9255  -23.6261   19.9990 N   0  0  0  0  0  0  0  0  0  0  0  0
    8.6261  -23.4176   19.4677 C   0  0  0  0  0  0  0  0  0  0  0  0
    7.6491  -24.1363   19.9462 N   0  0  0  0  0  0  0  0  0  0  0  0
    8.3450  -22.4746   18.4514 N   0  0  0  0  0  0  0  0  0  0  0  0
    8.4407  -21.0712   18.6975 C   0  0  0  0  0  0  0  0  0  0  0  0
    9.8358  -20.5786   19.0332 C   0  0  0  0  0  0  0  0  0  0  0  0
    9.9335  -19.1267   19.3343 C   0  0  0  0  0  0  0  0  0  0  0  0
    9.9599  -18.9130   20.8344 C   0  0  2  0  0  0  0  0  0  0  0  0
    8.7440  -19.5166   21.4176 N   0  0  0  0  0  0  0  0  0  0  0  0
   10.0401  -17.4892   21.2160 C   0  0  0  0  0  0  0  0  0  0  0  0
   10.9890  -16.7595   20.7550 O   0  0  0  0  0  0  0  0  0  0  0  0
    6.7110  -24.0503   19.5513 N   0  0  0  0  0  0  0  0  0  0  0  0
    6.8808  -16.3571   21.6743 C   0  0  0  0  0  0  0  0  0  0  0  0
    7.1593  -15.0617   21.1696 O   0  0  0  0  0  0  0  0  0  0  0  0
    6.3415  -14.4781   20.4527 C   0  0  0  0  0  0  0  0  0  0  0  0
    8.4867  -14.4802   21.5675 C   0  0  1  0  0  0  0  0  0  0  0  0
    9.2639  -15.3981   22.4314 N   0  0  0  0  0  0  0  0  0  0  0  0
    9.1403  -16.8060   22.0703 C   0  0  0  0  0  0  0  0  0  0  0  0
    9.2390  -15.1484   23.8759 O   0  0  0  0  0  0  0  0  0  0  0  0
    9.5948  -14.0261   24.3195 N   0  0  0  0  0  0  0  0  0  0  0  0
    8.8242  -16.1233   24.8325 C   0  0  1  0  0  0  0  0  0  0  0  0
    9.2515  -15.9351   26.2131 C   0  0  0  0  0  0  0  0  0  0  0  0
    8.0690  -15.7049   27.1207 C   0  0  0  0  0  0  0  0  0  0  0  0
    7.3541  -14.4612   26.7779 C   0  0  0  0  0  0  0  0  0  0  0  0
    7.8715  -13.2843   27.2713 C   0  0  0  0  0  0  0  0  0  0  0  0
    7.2459  -12.1022   26.9716 C   0  0  0  0  0  0  0  0  0  0  0  0
    6.1047  -12.0441   26.1860 C   0  0  0  0  0  0  0  0  0  0  0  0
    5.6227  -13.2410   25.7158 C   0  0  0  0  0  0  0  0  0  0  0  0
    6.2360  -14.4507   26.0040 C   0  0  0  0  0  0  0  0  0  0  0  0
    9.9497  -17.1853   26.6966 O   0  0  0  0  0  0  0  0  0  0  0  0
   10.0630  -18.3110   25.9008 O   0  0  0  0  0  0  0  0  0  0  0  0
  2  3  2  0
  2  1  1  0
  4  2  1  0
  5  4  1  0
  6  5  1  0
  7  6  1  0
  8  7  1  0
  8  9  1  1
 10 17  1  0
 10  8  1  0
 11 10  2  0
 13 12  1  0
 13 14  2  0
 15 13  1  0
 16 15  1  6
 16 17  1  0
 18 16  1  0
 19 18  2  0
 20 18  1  0
 21 20  1  0
 21 22  1  1
 23 22  1  0
 23 28  2  0
 24 23  1  0
 25 24  2  0
 25 26  1  0
 26 27  2  0
 27 28  1  0
 29 21  1  0
 30 29  1  0
 31 29  2  0
M  END
$$$$
