RNF.pdb
     RDKit          3D

 31 31  0  0  1  0  0  0  0  0999 V2000
    9.3234  -13.8654   16.8594 N   0  0  0  0  0  0  0  0  0  0  0  0
    8.7418  -13.3623   18.0522 C   0  0  0  0  0  0  0  0  0  0  0  0
    9.4350  -12.5125   18.7574 N   0  0  0  0  0  0  0  0  0  0  0  0
    7.4561  -13.7377   18.5074 N   0  0  0  0  0  0  0  0  0  0  0  0
    7.0704  -15.1106   18.5843 C   0  0  0  0  0  0  0  0  0  0  0  0
    7.6223  -15.8595   19.7828 C   0  0  0  0  0  0  0  0  0  0  0  0
    6.5992  -16.3475   20.7438 C   0  0  0  0  0  0  0  0  0  0  0  0
    6.8462  -15.7407   22.1104 C   0  0  2  0  0  0  0  0  0  0  0  0
    7.9224  -14.7353   21.9918 N   0  0  0  0  0  0  0  0  0  0  0  0
    7.2116  -16.7418   23.1320 C   0  0  0  0  0  0  0  0  0  0  0  0
    6.5081  -17.8067   23.2593 O   0  0  0  0  0  0  0  0  0  0  0  0
   10.2427  -12.0441   18.3433 N   0  0  0  0  0  0  0  0  0  0  0  0
   10.7593  -20.2582   22.7488 C   0  0  0  0  0  0  0  0  0  0  0  0
   11.1006  -18.8820   22.7393 O   0  0  0  0  0  0  0  0  0  0  0  0
   12.2824  -18.5281   22.7756 C   0  0  0  0  0  0  0  0  0  0  0  0
    9.9430  -17.9254   22.6830 C   0  0  1  0  0  0  0  0  0  0  0  0
    9.4339  -17.5823   24.0306 N   0  0  0  0  0  0  0  0  0  0  0  0
    8.3075  -16.6554   24.0252 C   0  0  0  0  0  0  0  0  0  0  0  0
   10.4241  -17.3117   25.0774 O   0  0  0  0  0  0  0  0  0  0  0  0
   10.8947  -18.2651   25.7499 N   0  0  0  0  0  0  0  0  0  0  0  0
   10.8994  -16.0017   25.3864 C   0  0  2  0  0  0  0  0  0  0  0  0
   10.0690  -15.1713   26.2495 C   0  0  0  0  0  0  0  0  0  0  0  0
    8.7663  -14.8205   25.5750 C   0  0  0  0  0  0  0  0  0  0  0  0
    7.9093  -13.9923   26.4440 C   0  0  0  0  0  0  0  0  0  0  0  0
    6.5816  -14.3457   26.5356 C   0  0  0  0  0  0  0  0  0  0  0  0
    5.7487  -13.6105   27.3383 C   0  0  0  0  0  0  0  0  0  0  0  0
    6.1931  -12.5174   28.0666 C   0  0  0  0  0  0  0  0  0  0  0  0
    7.5238  -12.2001   27.9453 C   0  0  0  0  0  0  0  0  0  0  0  0
    8.3878  -12.9268   27.1404 C   0  0  0  0  0  0  0  0  0  0  0  0
    9.7293  -15.9380   27.5069 O   0  0  0  0  0  0  0  0  0  0  0  0
    9.7977  -15.3528   28.7584 O   0  0  0  0  0  0  0  0  0  0  0  0
  2  3  2  0
  2  1  1  0
  4  2  1  0
  5  4  1  0
  6  5  1  0
  7  6  1  0
  8  7  1  0
  8  9  1  6
 10 17  1  0
 10  8  1  0
 11 10  2  0
 13 12  1  0
 13 14  2  0
 15 13  1  0
 16 15  1  6
 16 17  1  0
 18 16  1  0
 19 18  2  0
 20 18  1  0
 21 20  1  0
 21 22  1  6
 23 22  1  0
 23 28  2  0
 24 23  1  0
 25 24  2  0
 25 26  1  0
 26 27  2  0
 27 28  1  0
 29 21  1  0
 30 29  1  0
 31 29  2  0
M  END
$$$$
