RNF.pdb
     RDKit          3D

 31 31  0  0  1  0  0  0  0  0999 V2000
    9.1261  -12.5719   18.8783 N   0  0  0  0  0  0  0  0  0  0  0  0
    8.4071  -13.2362   17.8507 C   0  0  0  0  0  0  0  0  0  0  0  0
    8.3565  -12.6697   16.6775 N   0  0  0  0  0  0  0  0  0  0  0  0
    7.7480  -14.4736   18.0396 N   0  0  0  0  0  0  0  0  0  0  0  0
    6.7786  -14.6450   19.0741 C   0  0  0  0  0  0  0  0  0  0  0  0
    6.9636  -15.8920   19.9182 C   0  0  0  0  0  0  0  0  0  0  0  0
    8.0631  -16.7900   19.4790 C   0  0  0  0  0  0  0  0  0  0  0  0
    8.1253  -18.0064   20.3809 C   0  0  2  0  0  0  0  0  0  0  0  0
    6.7516  -18.3511   20.8020 N   0  0  0  0  0  0  0  0  0  0  0  0
    8.9739  -17.8028   21.5715 C   0  0  0  0  0  0  0  0  0  0  0  0
    8.4680  -17.9333   22.7430 O   0  0  0  0  0  0  0  0  0  0  0  0
    7.8015  -13.0909   15.9305 N   0  0  0  0  0  0  0  0  0  0  0  0
   13.7899  -18.2011   20.5498 C   0  0  0  0  0  0  0  0  0  0  0  0
   13.0897  -18.4730   21.7523 O   0  0  0  0  0  0  0  0  0  0  0  0
   12.8983  -19.6362   22.1180 C   0  0  0  0  0  0  0  0  0  0  0  0
   12.6177  -17.2683   22.5167 C   0  0  2  0  0  0  0  0  0  0  0  0
   11.1584  -17.2997   22.7662 N   0  0  0  0  0  0  0  0  0  0  0  0
   10.3505  -17.4693   21.5635 C   0  0  0  0  0  0  0  0  0  0  0  0
   10.6152  -16.3249   23.7171 O   0  0  0  0  0  0  0  0  0  0  0  0
   10.6761  -15.0965   23.4518 N   0  0  0  0  0  0  0  0  0  0  0  0
   10.0053  -16.6930   24.9541 C   0  0  1  0  0  0  0  0  0  0  0  0
    9.4359  -15.6257   25.7669 C   0  0  0  0  0  0  0  0  0  0  0  0
    8.2769  -14.9662   25.0621 C   0  0  0  0  0  0  0  0  0  0  0  0
    7.5976  -13.9870   25.9310 C   0  0  0  0  0  0  0  0  0  0  0  0
    8.1330  -12.7195   25.9855 C   0  0  0  0  0  0  0  0  0  0  0  0
    7.5304  -11.7732   26.7728 C   0  0  0  0  0  0  0  0  0  0  0  0
    6.3952  -12.0435   27.5219 C   0  0  0  0  0  0  0  0  0  0  0  0
    5.8954  -13.3199   27.4385 C   0  0  0  0  0  0  0  0  0  0  0  0
    6.4855  -14.2960   26.6501 C   0  0  0  0  0  0  0  0  0  0  0  0
    8.9028  -16.2074   27.0561 O   0  0  0  0  0  0  0  0  0  0  0  0
    8.5394  -17.5380   27.1600 O   0  0  0  0  0  0  0  0  0  0  0  0
  2  3  2  0
  2  1  1  0
  4  2  1  0
  5  4  1  0
  6  5  1  0
  7  6  1  0
  8  7  1  0
  8  9  1  1
 10 17  1  0
 10  8  1  0
 11 10  2  0
 13 12  1  0
 13 14  2  0
 15 13  1  0
 16 15  1  1
 16 17  1  0
 18 16  1  0
 19 18  2  0
 20 18  1  0
 21 20  1  0
 21 22  1  1
 23 22  1  0
 23 28  2  0
 24 23  1  0
 25 24  2  0
 25 26  1  0
 26 27  2  0
 27 28  1  0
 29 21  1  0
 30 29  1  0
 31 29  2  0
M  END
$$$$
