RNF.pdb
     RDKit          3D

 31 31  0  0  1  0  0  0  0  0999 V2000
    9.2944  -15.3476   15.3028 N   0  0  0  0  0  0  0  0  0  0  0  0
    8.4455  -14.2852   14.8967 C   0  0  0  0  0  0  0  0  0  0  0  0
    8.3243  -14.0558   13.6189 N   0  0  0  0  0  0  0  0  0  0  0  0
    7.7317  -13.4706   15.8067 N   0  0  0  0  0  0  0  0  0  0  0  0
    8.2245  -13.2266   17.1246 C   0  0  0  0  0  0  0  0  0  0  0  0
    8.8023  -14.4436   17.8225 C   0  0  0  0  0  0  0  0  0  0  0  0
    7.9440  -15.0226   18.8884 C   0  0  0  0  0  0  0  0  0  0  0  0
    8.2015  -14.3092   20.2005 C   0  0  2  0  0  0  0  0  0  0  0  0
    9.6584  -14.1174   20.3542 N   0  0  0  0  0  0  0  0  0  0  0  0
    7.6698  -15.0363   21.3700 C   0  0  0  0  0  0  0  0  0  0  0  0
    6.5174  -15.5955   21.3014 O   0  0  0  0  0  0  0  0  0  0  0  0
    7.7338  -13.2893   13.2915 N   0  0  0  0  0  0  0  0  0  0  0  0
    6.0390  -18.5103   22.1942 C   0  0  0  0  0  0  0  0  0  0  0  0
    7.1687  -18.5959   23.0466 O   0  0  0  0  0  0  0  0  0  0  0  0
    7.1874  -19.3968   23.9855 C   0  0  0  0  0  0  0  0  0  0  0  0
    8.3009  -17.6626   22.7217 C   0  0  2  0  0  0  0  0  0  0  0  0
    8.2000  -16.3820   23.4582 N   0  0  0  0  0  0  0  0  0  0  0  0
    8.3239  -15.1973   22.6160 C   0  0  0  0  0  0  0  0  0  0  0  0
    8.9096  -16.2814   24.7372 O   0  0  0  0  0  0  0  0  0  0  0  0
   10.1676  -16.2666   24.7513 N   0  0  0  0  0  0  0  0  0  0  0  0
    8.2447  -16.1954   25.9975 C   0  0  1  0  0  0  0  0  0  0  0  0
    9.0165  -15.7063   27.1329 C   0  0  0  0  0  0  0  0  0  0  0  0
    8.1990  -14.7620   27.9785 C   0  0  0  0  0  0  0  0  0  0  0  0
    7.6771  -13.6338   27.1845 C   0  0  0  0  0  0  0  0  0  0  0  0
    8.5673  -12.6381   26.8495 C   0  0  0  0  0  0  0  0  0  0  0  0
    8.1298  -11.5739   26.1048 C   0  0  0  0  0  0  0  0  0  0  0  0
    6.8173  -11.4594   25.6725 C   0  0  0  0  0  0  0  0  0  0  0  0
    5.9636  -12.4742   26.0295 C   0  0  0  0  0  0  0  0  0  0  0  0
    6.3801  -13.5616   26.7822 C   0  0  0  0  0  0  0  0  0  0  0  0
    9.4063  -16.8714   28.0133 O   0  0  0  0  0  0  0  0  0  0  0  0
   10.2481  -16.7145   29.0996 O   0  0  0  0  0  0  0  0  0  0  0  0
  2  3  2  0
  2  1  1  0
  4  2  1  0
  5  4  1  0
  6  5  1  0
  7  6  1  0
  8  7  1  0
  8  9  1  1
 10 17  1  0
 10  8  1  0
 11 10  2  0
 13 12  1  0
 13 14  2  0
 15 13  1  0
 16 15  1  6
 16 17  1  0
 18 16  1  0
 19 18  2  0
 20 18  1  0
 21 20  1  0
 21 22  1  1
 23 22  1  0
 23 28  2  0
 24 23  1  0
 25 24  2  0
 25 26  1  0
 26 27  2  0
 27 28  1  0
 29 21  1  0
 30 29  1  0
 31 29  2  0
M  END
$$$$
