QNG.pdb
     RDKit          3D

 22 21  0  0  1  0  0  0  0  0999 V2000
    7.7052  -12.2515   18.1192 N   0  0  0  0  0  0  0  0  0  0  0  0
    7.8028  -13.6691   18.1316 C   0  0  0  0  0  0  0  0  0  0  0  0
    7.9555  -14.2656   17.0526 O   0  0  0  0  0  0  0  0  0  0  0  0
    7.7267  -14.4188   19.3958 C   0  0  0  0  0  0  0  0  0  0  0  0
    9.0686  -14.5598   20.0306 C   0  0  0  0  0  0  0  0  0  0  0  0
    9.0900  -15.4599   21.2391 C   0  0  2  0  0  0  0  0  0  0  0  0
    8.0785  -16.4667   21.0614 N   0  0  0  0  0  0  0  0  0  0  0  0
    8.8405  -14.6023   22.4256 C   0  0  0  0  0  0  0  0  0  0  0  0
    8.6273  -13.3693   22.3611 O   0  0  0  0  0  0  0  0  0  0  0  0
    6.4566  -12.1889   26.0854 N   0  0  0  0  0  0  0  0  0  0  0  0
    6.1936  -13.5632   25.7096 C   0  0  0  0  0  0  0  0  0  0  0  0
    5.3507  -14.1520   26.3872 O   0  0  0  0  0  0  0  0  0  0  0  0
    6.9138  -14.1324   24.6017 C   0  0  0  0  0  0  0  0  0  0  0  0
    8.3455  -14.4878   24.9048 C   0  0  2  0  0  0  0  0  0  0  0  0
    8.8470  -15.2258   23.6910 N   0  0  0  0  0  0  0  0  0  0  0  0
    8.5214  -15.4942   25.9699 C   0  0  0  0  0  0  0  0  0  0  0  0
    8.2081  -15.2092   27.1920 O   0  0  0  0  0  0  0  0  0  0  0  0
    9.0109  -16.8004   25.8035 N   0  0  0  0  0  0  0  0  0  0  0  0
    9.1004  -17.7240   26.9403 C   0  0  0  0  0  0  0  0  0  0  0  0
   10.5163  -17.9723   27.2642 C   0  0  0  0  0  0  0  0  0  0  0  0
   10.8553  -18.9927   28.1361 O   0  0  0  0  0  0  0  0  0  0  0  0
   11.3987  -17.2376   26.7299 O   0  0  0  0  0  0  0  0  0  0  0  0
  2  1  1  0
  2  3  2  0
  4  2  1  0
  5  4  1  0
  6  7  1  6
  6  5  1  0
  8  6  1  0
  9  8  2  0
 10 11  1  0
 11 13  1  0
 11 12  2  0
 14 13  1  6
 14 15  1  0
 14 16  1  0
 15  8  1  0
 16 17  2  0
 16 18  1  0
 18 19  1  0
 19 20  1  0
 20 21  1  0
 22 20  2  0
M  END
$$$$
