QNG.pdb
     RDKit          3D

 22 21  0  0  1  0  0  0  0  0999 V2000
    9.8130  -13.7599   17.9683 N   0  0  0  0  0  0  0  0  0  0  0  0
    8.3937  -13.8104   17.9206 C   0  0  0  0  0  0  0  0  0  0  0  0
    7.8516  -14.6286   17.1592 O   0  0  0  0  0  0  0  0  0  0  0  0
    7.5792  -12.9137   18.7564 C   0  0  0  0  0  0  0  0  0  0  0  0
    7.8225  -13.1478   20.2089 C   0  0  0  0  0  0  0  0  0  0  0  0
    7.3748  -14.4999   20.7014 C   0  0  2  0  0  0  0  0  0  0  0  0
    5.9418  -14.5597   20.5947 N   0  0  0  0  0  0  0  0  0  0  0  0
    7.8497  -14.6325   22.1022 C   0  0  0  0  0  0  0  0  0  0  0  0
    7.4450  -13.9141   23.0456 O   0  0  0  0  0  0  0  0  0  0  0  0
    6.6536  -15.6672   24.5231 N   0  0  0  0  0  0  0  0  0  0  0  0
    7.2848  -16.9647   24.6535 C   0  0  0  0  0  0  0  0  0  0  0  0
    6.5766  -17.8613   25.1131 O   0  0  0  0  0  0  0  0  0  0  0  0
    8.6572  -17.1154   24.2491 C   0  0  0  0  0  0  0  0  0  0  0  0
    9.3113  -15.8443   23.7754 C   0  0  2  0  0  0  0  0  0  0  0  0
    8.8116  -15.6288   22.3707 N   0  0  0  0  0  0  0  0  0  0  0  0
   10.7700  -15.9377   23.5710 C   0  0  0  0  0  0  0  0  0  0  0  0
   11.2434  -16.5309   22.5237 O   0  0  0  0  0  0  0  0  0  0  0  0
   11.7611  -15.4248   24.4244 N   0  0  0  0  0  0  0  0  0  0  0  0
   13.1382  -15.2350   23.9544 C   0  0  0  0  0  0  0  0  0  0  0  0
   13.9552  -16.4001   24.3368 C   0  0  0  0  0  0  0  0  0  0  0  0
   15.3187  -16.3945   24.0974 O   0  0  0  0  0  0  0  0  0  0  0  0
   13.3830  -17.3895   24.8824 O   0  0  0  0  0  0  0  0  0  0  0  0
  2  1  1  0
  2  3  2  0
  4  2  1  0
  5  4  1  0
  6  7  1  1
  6  5  1  0
  8  6  1  0
  9  8  2  0
 10 11  1  0
 11 13  1  0
 11 12  2  0
 14 13  1  6
 14 15  1  0
 14 16  1  0
 15  8  1  0
 16 17  2  0
 16 18  1  0
 18 19  1  0
 19 20  1  0
 20 21  1  0
 22 20  2  0
M  END
$$$$
