QNG.pdb
     RDKit          3D

 22 21  0  0  1  0  0  0  0  0999 V2000
    9.5299  -13.0507   18.9731 N   0  0  0  0  0  0  0  0  0  0  0  0
    8.1966  -13.2399   18.5193 C   0  0  0  0  0  0  0  0  0  0  0  0
    8.0054  -13.4862   17.3168 O   0  0  0  0  0  0  0  0  0  0  0  0
    7.0626  -13.1483   19.4530 C   0  0  0  0  0  0  0  0  0  0  0  0
    7.5238  -12.9461   20.8566 C   0  0  0  0  0  0  0  0  0  0  0  0
    8.1508  -14.1646   21.4837 C   0  0  2  0  0  0  0  0  0  0  0  0
    7.2591  -15.2754   21.2848 N   0  0  0  0  0  0  0  0  0  0  0  0
    8.3653  -13.8539   22.9199 C   0  0  0  0  0  0  0  0  0  0  0  0
    8.9852  -12.8449   23.3291 O   0  0  0  0  0  0  0  0  0  0  0  0
    7.3444  -11.9929   26.3400 N   0  0  0  0  0  0  0  0  0  0  0  0
    6.3096  -13.0055   26.3911 C   0  0  0  0  0  0  0  0  0  0  0  0
    5.2394  -12.6533   26.8882 O   0  0  0  0  0  0  0  0  0  0  0  0
    6.5928  -14.3175   25.8729 C   0  0  0  0  0  0  0  0  0  0  0  0
    7.9910  -14.4898   25.3407 C   0  0  2  0  0  0  0  0  0  0  0  0
    7.8349  -14.7558   23.8662 N   0  0  0  0  0  0  0  0  0  0  0  0
    8.6826  -15.7097   25.8009 C   0  0  0  0  0  0  0  0  0  0  0  0
    8.2673  -16.8747   25.4226 O   0  0  0  0  0  0  0  0  0  0  0  0
    9.8052  -15.7580   26.6440 N   0  0  0  0  0  0  0  0  0  0  0  0
   10.0957  -16.9512   27.4473 C   0  0  0  0  0  0  0  0  0  0  0  0
   11.0637  -17.8029   26.7337 C   0  0  0  0  0  0  0  0  0  0  0  0
   11.5609  -18.9417   27.3438 O   0  0  0  0  0  0  0  0  0  0  0  0
   11.4206  -17.4682   25.5656 O   0  0  0  0  0  0  0  0  0  0  0  0
  2  1  1  0
  2  3  2  0
  4  2  1  0
  5  4  1  0
  6  7  1  1
  6  5  1  0
  8  6  1  0
  9  8  2  0
 10 11  1  0
 11 13  1  0
 11 12  2  0
 14 13  1  1
 14 15  1  0
 14 16  1  0
 15  8  1  0
 16 17  2  0
 16 18  1  0
 18 19  1  0
 19 20  1  0
 20 21  1  0
 22 20  2  0
M  END
$$$$
