QNG.pdb
     RDKit          3D

 22 21  0  0  1  0  0  0  0  0999 V2000
   13.6193  -15.2760   14.5887 N   0  0  0  0  0  0  0  0  0  0  0  0
   13.2008  -16.4098   13.8413 C   0  0  0  0  0  0  0  0  0  0  0  0
   13.8239  -16.7059   12.8081 O   0  0  0  0  0  0  0  0  0  0  0  0
   12.0534  -17.2203   14.2803 C   0  0  0  0  0  0  0  0  0  0  0  0
   11.5816  -16.8131   15.6350 C   0  0  0  0  0  0  0  0  0  0  0  0
   10.2065  -16.1966   15.6519 C   0  0  2  0  0  0  0  0  0  0  0  0
    9.8593  -15.8474   14.3007 N   0  0  0  0  0  0  0  0  0  0  0  0
   10.2699  -15.0151   16.5493 C   0  0  0  0  0  0  0  0  0  0  0  0
   10.0728  -13.8384   16.1664 O   0  0  0  0  0  0  0  0  0  0  0  0
    8.2983  -12.1772   18.8755 N   0  0  0  0  0  0  0  0  0  0  0  0
    7.7301  -13.4986   19.0481 C   0  0  0  0  0  0  0  0  0  0  0  0
    6.5005  -13.5517   19.0910 O   0  0  0  0  0  0  0  0  0  0  0  0
    8.6143  -14.6285   19.1549 C   0  0  0  0  0  0  0  0  0  0  0  0
   10.0722  -14.2998   18.9688 C   0  0  2  0  0  0  0  0  0  0  0  0
   10.5704  -15.2464   17.9081 N   0  0  0  0  0  0  0  0  0  0  0  0
   10.9353  -14.6426   20.1158 C   0  0  0  0  0  0  0  0  0  0  0  0
   10.4099  -14.9298   21.2622 O   0  0  0  0  0  0  0  0  0  0  0  0
   12.3388  -14.7029   20.1081 N   0  0  0  0  0  0  0  0  0  0  0  0
   13.0858  -15.0667   21.3176 C   0  0  0  0  0  0  0  0  0  0  0  0
   14.5300  -15.0660   21.0248 C   0  0  0  0  0  0  0  0  0  0  0  0
   15.4395  -15.3056   22.0405 O   0  0  0  0  0  0  0  0  0  0  0  0
   14.9079  -14.8441   19.8365 O   0  0  0  0  0  0  0  0  0  0  0  0
  2  1  1  0
  2  3  2  0
  4  2  1  0
  5  4  1  0
  6  7  1  6
  6  5  1  0
  8  6  1  0
  9  8  2  0
 10 11  1  0
 11 13  1  0
 11 12  2  0
 14 13  1  1
 14 15  1  0
 14 16  1  0
 15  8  1  0
 16 17  2  0
 16 18  1  0
 18 19  1  0
 19 20  1  0
 20 21  1  0
 22 20  2  0
M  END
$$$$
