QNG.pdb
     RDKit          3D

 22 21  0  0  1  0  0  0  0  0999 V2000
    5.7287  -20.7822   25.2850 N   0  0  0  0  0  0  0  0  0  0  0  0
    5.5823  -21.4114   24.0193 C   0  0  0  0  0  0  0  0  0  0  0  0
    4.6535  -22.2208   23.8598 O   0  0  0  0  0  0  0  0  0  0  0  0
    6.5097  -21.1112   22.9167 C   0  0  0  0  0  0  0  0  0  0  0  0
    7.1814  -19.7939   23.1093 C   0  0  0  0  0  0  0  0  0  0  0  0
    6.3526  -18.6087   22.6853 C   0  0  2  0  0  0  0  0  0  0  0  0
    6.1546  -18.6908   21.2631 N   0  0  0  0  0  0  0  0  0  0  0  0
    7.0977  -17.3892   23.0891 C   0  0  0  0  0  0  0  0  0  0  0  0
    8.1139  -16.9643   22.4919 O   0  0  0  0  0  0  0  0  0  0  0  0
    5.6799  -12.5923   26.6316 N   0  0  0  0  0  0  0  0  0  0  0  0
    6.6931  -13.4233   26.0139 C   0  0  0  0  0  0  0  0  0  0  0  0
    7.7920  -12.8932   25.8465 O   0  0  0  0  0  0  0  0  0  0  0  0
    6.3581  -14.7737   25.6475 C   0  0  0  0  0  0  0  0  0  0  0  0
    7.2834  -15.3929   24.6334 C   0  0  2  0  0  0  0  0  0  0  0  0
    6.6222  -16.6790   24.2114 N   0  0  0  0  0  0  0  0  0  0  0  0
    8.5678  -15.8732   25.1793 C   0  0  0  0  0  0  0  0  0  0  0  0
    9.6822  -15.5219   24.6248 O   0  0  0  0  0  0  0  0  0  0  0  0
    8.7329  -16.7091   26.2962 N   0  0  0  0  0  0  0  0  0  0  0  0
   10.0701  -17.0297   26.8085 C   0  0  0  0  0  0  0  0  0  0  0  0
    9.9490  -17.8748   28.0097 C   0  0  0  0  0  0  0  0  0  0  0  0
   11.0730  -18.1676   28.7627 O   0  0  0  0  0  0  0  0  0  0  0  0
    8.8056  -18.3169   28.3275 O   0  0  0  0  0  0  0  0  0  0  0  0
  2  1  1  0
  2  3  2  0
  4  2  1  0
  5  4  1  0
  6  7  1  6
  6  5  1  0
  8  6  1  0
  9  8  2  0
 10 11  1  0
 11 13  1  0
 11 12  2  0
 14 13  1  1
 14 15  1  0
 14 16  1  0
 15  8  1  0
 16 17  2  0
 16 18  1  0
 18 19  1  0
 19 20  1  0
 20 21  1  0
 22 20  2  0
M  END
$$$$
