QNG.pdb
     RDKit          3D

 22 21  0  0  1  0  0  0  0  0999 V2000
   12.5698  -18.2718   17.5029 N   0  0  0  0  0  0  0  0  0  0  0  0
   11.3321  -18.9692   17.5331 C   0  0  0  0  0  0  0  0  0  0  0  0
   11.0054  -19.6469   16.5444 O   0  0  0  0  0  0  0  0  0  0  0  0
   10.4530  -18.8938   18.7110 C   0  0  0  0  0  0  0  0  0  0  0  0
   11.0179  -17.9962   19.7593 C   0  0  0  0  0  0  0  0  0  0  0  0
   10.5703  -18.3232   21.1607 C   0  0  2  0  0  0  0  0  0  0  0  0
    9.3342  -19.0532   21.0736 N   0  0  0  0  0  0  0  0  0  0  0  0
   10.4230  -17.0340   21.8829 C   0  0  0  0  0  0  0  0  0  0  0  0
   11.3442  -16.1930   22.0015 O   0  0  0  0  0  0  0  0  0  0  0  0
    6.7813  -13.9940   20.7442 N   0  0  0  0  0  0  0  0  0  0  0  0
    7.9135  -14.1303   21.6378 C   0  0  0  0  0  0  0  0  0  0  0  0
    8.9578  -13.5945   21.2650 O   0  0  0  0  0  0  0  0  0  0  0  0
    7.7476  -14.8612   22.8658 C   0  0  0  0  0  0  0  0  0  0  0  0
    8.9937  -15.5517   23.3542 C   0  0  2  0  0  0  0  0  0  0  0  0
    9.1681  -16.7540   22.4636 N   0  0  0  0  0  0  0  0  0  0  0  0
    8.8751  -16.1726   24.6879 C   0  0  0  0  0  0  0  0  0  0  0  0
    7.7098  -16.4585   25.1708 O   0  0  0  0  0  0  0  0  0  0  0  0
    9.9379  -16.5142   25.5406 N   0  0  0  0  0  0  0  0  0  0  0  0
    9.6880  -17.1194   26.8539 C   0  0  0  0  0  0  0  0  0  0  0  0
   10.9715  -17.3811   27.5290 C   0  0  0  0  0  0  0  0  0  0  0  0
   10.9841  -17.9738   28.7799 O   0  0  0  0  0  0  0  0  0  0  0  0
   12.0442  -17.0539   26.9407 O   0  0  0  0  0  0  0  0  0  0  0  0
  2  1  1  0
  2  3  2  0
  4  2  1  0
  5  4  1  0
  6  7  1  6
  6  5  1  0
  8  6  1  0
  9  8  2  0
 10 11  1  0
 11 13  1  0
 11 12  2  0
 14 13  1  6
 14 15  1  0
 14 16  1  0
 15  8  1  0
 16 17  2  0
 16 18  1  0
 18 19  1  0
 19 20  1  0
 20 21  1  0
 22 20  2  0
M  END
$$$$
