QNG.pdb
     RDKit          3D

 22 21  0  0  1  0  0  0  0  0999 V2000
   13.5536  -23.5967   24.7405 N   0  0  0  0  0  0  0  0  0  0  0  0
   12.6248  -23.0147   25.6449 C   0  0  0  0  0  0  0  0  0  0  0  0
   13.0283  -22.6517   26.7624 O   0  0  0  0  0  0  0  0  0  0  0  0
   11.2126  -22.8426   25.2679 C   0  0  0  0  0  0  0  0  0  0  0  0
   10.3863  -22.3994   26.4275 C   0  0  0  0  0  0  0  0  0  0  0  0
    9.8078  -23.5275   27.2422 C   0  0  2  0  0  0  0  0  0  0  0  0
    8.5446  -23.8937   26.6602 N   0  0  0  0  0  0  0  0  0  0  0  0
    9.6730  -23.0336   28.6362 C   0  0  0  0  0  0  0  0  0  0  0  0
    8.6884  -22.3792   29.0510 O   0  0  0  0  0  0  0  0  0  0  0  0
   10.0231  -26.4198   31.8800 N   0  0  0  0  0  0  0  0  0  0  0  0
    9.7888  -24.9906   31.9181 C   0  0  0  0  0  0  0  0  0  0  0  0
    8.6150  -24.6435   32.0537 O   0  0  0  0  0  0  0  0  0  0  0  0
   10.9103  -24.0974   31.7986 C   0  0  0  0  0  0  0  0  0  0  0  0
   10.6448  -22.8702   30.9672 C   0  0  2  0  0  0  0  0  0  0  0  0
   10.7218  -23.3258   29.5334 N   0  0  0  0  0  0  0  0  0  0  0  0
   11.7053  -21.8450   31.0205 C   0  0  0  0  0  0  0  0  0  0  0  0
   11.9925  -21.2640   32.1398 O   0  0  0  0  0  0  0  0  0  0  0  0
   12.4877  -21.4048   29.9400 N   0  0  0  0  0  0  0  0  0  0  0  0
   13.4710  -20.3287   30.1085 C   0  0  0  0  0  0  0  0  0  0  0  0
   14.8239  -20.8511   29.8472 C   0  0  0  0  0  0  0  0  0  0  0  0
   15.9117  -19.9956   29.8812 O   0  0  0  0  0  0  0  0  0  0  0  0
   14.9597  -22.0848   29.5956 O   0  0  0  0  0  0  0  0  0  0  0  0
  2  1  1  0
  2  3  2  0
  4  2  1  0
  5  4  1  0
  6  7  1  6
  6  5  1  0
  8  6  1  0
  9  8  2  0
 10 11  1  0
 11 13  1  0
 11 12  2  0
 14 13  1  1
 14 15  1  0
 14 16  1  0
 15  8  1  0
 16 17  2  0
 16 18  1  0
 18 19  1  0
 19 20  1  0
 20 21  1  0
 22 20  2  0
M  END
$$$$
