QNG.pdb
     RDKit          3D

 22 21  0  0  1  0  0  0  0  0999 V2000
   10.8998  -15.4504   13.7261 N   0  0  0  0  0  0  0  0  0  0  0  0
    9.8094  -16.2198   14.2144 C   0  0  0  0  0  0  0  0  0  0  0  0
    8.8162  -16.3764   13.4848 O   0  0  0  0  0  0  0  0  0  0  0  0
    9.8532  -16.8219   15.5566 C   0  0  0  0  0  0  0  0  0  0  0  0
   11.0898  -16.4306   16.2924 C   0  0  0  0  0  0  0  0  0  0  0  0
   11.1544  -16.9401   17.7092 C   0  0  2  0  0  0  0  0  0  0  0  0
   10.0750  -17.8720   17.8960 N   0  0  0  0  0  0  0  0  0  0  0  0
   11.0501  -15.7582   18.6023 C   0  0  0  0  0  0  0  0  0  0  0  0
   11.8923  -14.8311   18.6317 O   0  0  0  0  0  0  0  0  0  0  0  0
    8.5502  -12.8395   18.6001 N   0  0  0  0  0  0  0  0  0  0  0  0
    7.6937  -13.5023   19.5625 C   0  0  0  0  0  0  0  0  0  0  0  0
    6.4862  -13.2961   19.4364 O   0  0  0  0  0  0  0  0  0  0  0  0
    8.2933  -14.3334   20.5723 C   0  0  0  0  0  0  0  0  0  0  0  0
    9.7776  -14.5338   20.4151 C   0  0  2  0  0  0  0  0  0  0  0  0
    9.9331  -15.6894   19.4613 N   0  0  0  0  0  0  0  0  0  0  0  0
   10.4655  -15.0361   21.6203 C   0  0  0  0  0  0  0  0  0  0  0  0
   11.3998  -14.3351   22.1757 O   0  0  0  0  0  0  0  0  0  0  0  0
   10.2072  -16.2513   22.2762 N   0  0  0  0  0  0  0  0  0  0  0  0
   10.5933  -16.4499   23.6780 C   0  0  0  0  0  0  0  0  0  0  0  0
   11.7438  -17.3680   23.7478 C   0  0  0  0  0  0  0  0  0  0  0  0
   12.2286  -17.7732   24.9794 O   0  0  0  0  0  0  0  0  0  0  0  0
   12.2663  -17.7690   22.6661 O   0  0  0  0  0  0  0  0  0  0  0  0
  2  1  1  0
  2  3  2  0
  4  2  1  0
  5  4  1  0
  6  7  1  1
  6  5  1  0
  8  6  1  0
  9  8  2  0
 10 11  1  0
 11 13  1  0
 11 12  2  0
 14 13  1  1
 14 15  1  0
 14 16  1  0
 15  8  1  0
 16 17  2  0
 16 18  1  0
 18 19  1  0
 19 20  1  0
 20 21  1  0
 22 20  2  0
M  END
$$$$
