QNG.pdb
     RDKit          3D

 22 21  0  0  1  0  0  0  0  0999 V2000
    9.2546  -12.5012   18.1445 N   0  0  0  0  0  0  0  0  0  0  0  0
    8.2798  -13.4801   17.8117 C   0  0  0  0  0  0  0  0  0  0  0  0
    8.3351  -14.0207   16.6946 O   0  0  0  0  0  0  0  0  0  0  0  0
    7.2253  -13.8497   18.7696 C   0  0  0  0  0  0  0  0  0  0  0  0
    7.6505  -13.5975   20.1764 C   0  0  0  0  0  0  0  0  0  0  0  0
    8.6858  -14.5633   20.6926 C   0  0  2  0  0  0  0  0  0  0  0  0
    8.3857  -15.8643   20.1580 N   0  0  0  0  0  0  0  0  0  0  0  0
    8.6164  -14.5248   22.1756 C   0  0  0  0  0  0  0  0  0  0  0  0
    8.7275  -13.4753   22.8509 O   0  0  0  0  0  0  0  0  0  0  0  0
    6.5738  -14.3115   25.6206 N   0  0  0  0  0  0  0  0  0  0  0  0
    6.2976  -15.7229   25.4457 C   0  0  0  0  0  0  0  0  0  0  0  0
    5.2080  -16.1120   25.8676 O   0  0  0  0  0  0  0  0  0  0  0  0
    7.2858  -16.5524   24.8091 C   0  0  0  0  0  0  0  0  0  0  0  0
    8.5166  -15.8159   24.3499 C   0  0  2  0  0  0  0  0  0  0  0  0
    8.4134  -15.7479   22.8486 N   0  0  0  0  0  0  0  0  0  0  0  0
    9.7832  -16.5499   24.5374 C   0  0  0  0  0  0  0  0  0  0  0  0
   10.9065  -16.0059   24.1982 O   0  0  0  0  0  0  0  0  0  0  0  0
    9.9217  -17.8399   25.0762 N   0  0  0  0  0  0  0  0  0  0  0  0
   11.2440  -18.4588   25.2239 C   0  0  0  0  0  0  0  0  0  0  0  0
   11.6492  -18.4253   26.6403 C   0  0  0  0  0  0  0  0  0  0  0  0
   12.8149  -19.0567   27.0389 O   0  0  0  0  0  0  0  0  0  0  0  0
   10.9125  -17.8117   27.4676 O   0  0  0  0  0  0  0  0  0  0  0  0
  2  1  1  0
  2  3  2  0
  4  2  1  0
  5  4  1  0
  6  7  1  6
  6  5  1  0
  8  6  1  0
  9  8  2  0
 10 11  1  0
 11 13  1  0
 11 12  2  0
 14 13  1  6
 14 15  1  0
 14 16  1  0
 15  8  1  0
 16 17  2  0
 16 18  1  0
 18 19  1  0
 19 20  1  0
 20 21  1  0
 22 20  2  0
M  END
$$$$
