QNG.pdb
     RDKit          3D

 22 21  0  0  1  0  0  0  0  0999 V2000
    1.7669  -18.4366   22.7315 N   0  0  0  0  0  0  0  0  0  0  0  0
    2.3477  -19.3509   21.8116 C   0  0  0  0  0  0  0  0  0  0  0  0
    1.6545  -19.7701   20.8697 O   0  0  0  0  0  0  0  0  0  0  0  0
    3.7427  -19.7932   21.9676 C   0  0  0  0  0  0  0  0  0  0  0  0
    4.6700  -18.6358   22.1231 C   0  0  0  0  0  0  0  0  0  0  0  0
    5.0612  -17.9774   20.8251 C   0  0  2  0  0  0  0  0  0  0  0  0
    5.0351  -18.9789   19.7933 N   0  0  0  0  0  0  0  0  0  0  0  0
    6.4129  -17.3949   21.0221 C   0  0  0  0  0  0  0  0  0  0  0  0
    7.4659  -18.0732   21.0524 O   0  0  0  0  0  0  0  0  0  0  0  0
    6.7723  -12.6211   18.9836 N   0  0  0  0  0  0  0  0  0  0  0  0
    7.5998  -13.6868   19.5113 C   0  0  0  0  0  0  0  0  0  0  0  0
    8.2208  -14.3461   18.6769 O   0  0  0  0  0  0  0  0  0  0  0  0
    7.6400  -13.8981   20.9338 C   0  0  0  0  0  0  0  0  0  0  0  0
    7.8429  -15.3322   21.3462 C   0  0  2  0  0  0  0  0  0  0  0  0
    6.5006  -15.9961   21.1831 N   0  0  0  0  0  0  0  0  0  0  0  0
    8.1107  -15.5310   22.7839 C   0  0  0  0  0  0  0  0  0  0  0  0
    7.3807  -14.9351   23.6699 O   0  0  0  0  0  0  0  0  0  0  0  0
    9.1175  -16.3407   23.3353 N   0  0  0  0  0  0  0  0  0  0  0  0
   10.5062  -16.2400   22.8718 C   0  0  0  0  0  0  0  0  0  0  0  0
   11.4135  -16.2161   24.0327 C   0  0  0  0  0  0  0  0  0  0  0  0
   12.4542  -15.3042   24.0757 O   0  0  0  0  0  0  0  0  0  0  0  0
   11.2160  -17.0399   24.9741 O   0  0  0  0  0  0  0  0  0  0  0  0
  2  1  1  0
  2  3  2  0
  4  2  1  0
  5  4  1  0
  6  7  1  6
  6  5  1  0
  8  6  1  0
  9  8  2  0
 10 11  1  0
 11 13  1  0
 11 12  2  0
 14 13  1  1
 14 15  1  0
 14 16  1  0
 15  8  1  0
 16 17  2  0
 16 18  1  0
 18 19  1  0
 19 20  1  0
 20 21  1  0
 22 20  2  0
M  END
$$$$
