QNG.pdb
     RDKit          3D

 22 21  0  0  1  0  0  0  0  0999 V2000
    8.0459  -12.1412   19.7478 N   0  0  0  0  0  0  0  0  0  0  0  0
    8.3341  -13.0987   18.7381 C   0  0  0  0  0  0  0  0  0  0  0  0
    8.8024  -12.7029   17.6576 O   0  0  0  0  0  0  0  0  0  0  0  0
    8.0856  -14.5314   18.9650 C   0  0  0  0  0  0  0  0  0  0  0  0
    7.5166  -14.7805   20.3207 C   0  0  0  0  0  0  0  0  0  0  0  0
    8.0107  -16.0443   20.9765 C   0  0  2  0  0  0  0  0  0  0  0  0
    7.7712  -17.1370   20.0726 N   0  0  0  0  0  0  0  0  0  0  0  0
    7.2713  -16.1887   22.2563 C   0  0  0  0  0  0  0  0  0  0  0  0
    6.0503  -15.9397   22.3870 O   0  0  0  0  0  0  0  0  0  0  0  0
    4.7115  -19.0968   22.6548 N   0  0  0  0  0  0  0  0  0  0  0  0
    5.2440  -18.3876   23.8005 C   0  0  0  0  0  0  0  0  0  0  0  0
    4.4281  -17.7373   24.4546 O   0  0  0  0  0  0  0  0  0  0  0  0
    6.6498  -18.4871   24.0896 C   0  0  0  0  0  0  0  0  0  0  0  0
    7.2796  -17.2074   24.5729 C   0  0  2  0  0  0  0  0  0  0  0  0
    7.9987  -16.6324   23.3806 N   0  0  0  0  0  0  0  0  0  0  0  0
    8.3813  -17.3859   25.5387 C   0  0  0  0  0  0  0  0  0  0  0  0
    9.5311  -17.8240   25.1401 O   0  0  0  0  0  0  0  0  0  0  0  0
    8.3278  -17.1158   26.9162 N   0  0  0  0  0  0  0  0  0  0  0  0
    9.5151  -17.2751   27.7638 C   0  0  0  0  0  0  0  0  0  0  0  0
    9.5111  -18.6175   28.3717 C   0  0  0  0  0  0  0  0  0  0  0  0
   10.4312  -18.9306   29.3574 O   0  0  0  0  0  0  0  0  0  0  0  0
    8.6550  -19.4614   27.9730 O   0  0  0  0  0  0  0  0  0  0  0  0
  2  1  1  0
  2  3  2  0
  4  2  1  0
  5  4  1  0
  6  7  1  6
  6  5  1  0
  8  6  1  0
  9  8  2  0
 10 11  1  0
 11 13  1  0
 11 12  2  0
 14 13  1  6
 14 15  1  0
 14 16  1  0
 15  8  1  0
 16 17  2  0
 16 18  1  0
 18 19  1  0
 19 20  1  0
 20 21  1  0
 22 20  2  0
M  END
$$$$
