QNG.pdb
     RDKit          3D

 22 21  0  0  1  0  0  0  0  0999 V2000
    8.8820  -13.3969   16.1073 N   0  0  0  0  0  0  0  0  0  0  0  0
    7.7238  -14.1799   16.3618 C   0  0  0  0  0  0  0  0  0  0  0  0
    7.2914  -14.9157   15.4590 O   0  0  0  0  0  0  0  0  0  0  0  0
    7.0484  -14.1240   17.6682 C   0  0  0  0  0  0  0  0  0  0  0  0
    7.5427  -12.9834   18.4919 C   0  0  0  0  0  0  0  0  0  0  0  0
    8.7861  -13.2875   19.2872 C   0  0  2  0  0  0  0  0  0  0  0  0
    9.7732  -13.8155   18.3842 N   0  0  0  0  0  0  0  0  0  0  0  0
    8.4012  -14.2575   20.3437 C   0  0  0  0  0  0  0  0  0  0  0  0
    7.3917  -14.1271   21.0743 O   0  0  0  0  0  0  0  0  0  0  0  0
    8.0325  -18.0811   18.6082 N   0  0  0  0  0  0  0  0  0  0  0  0
    7.7567  -17.8699   20.0147 C   0  0  0  0  0  0  0  0  0  0  0  0
    6.5662  -17.8318   20.3274 O   0  0  0  0  0  0  0  0  0  0  0  0
    8.8599  -17.7228   20.9264 C   0  0  0  0  0  0  0  0  0  0  0  0
    8.9291  -16.3833   21.6112 C   0  0  2  0  0  0  0  0  0  0  0  0
    9.2292  -15.3854   20.5234 N   0  0  0  0  0  0  0  0  0  0  0  0
   10.0833  -16.2088   22.5144 C   0  0  0  0  0  0  0  0  0  0  0  0
   10.1318  -16.8466   23.6385 O   0  0  0  0  0  0  0  0  0  0  0  0
   11.2012  -15.3903   22.2821 N   0  0  0  0  0  0  0  0  0  0  0  0
   12.3123  -15.3398   23.2393 C   0  0  0  0  0  0  0  0  0  0  0  0
   13.4918  -16.0084   22.6621 C   0  0  0  0  0  0  0  0  0  0  0  0
   14.6998  -15.9798   23.3375 O   0  0  0  0  0  0  0  0  0  0  0  0
   13.3695  -16.6004   21.5493 O   0  0  0  0  0  0  0  0  0  0  0  0
  2  1  1  0
  2  3  2  0
  4  2  1  0
  5  4  1  0
  6  7  1  6
  6  5  1  0
  8  6  1  0
  9  8  2  0
 10 11  1  0
 11 13  1  0
 11 12  2  0
 14 13  1  6
 14 15  1  0
 14 16  1  0
 15  8  1  0
 16 17  2  0
 16 18  1  0
 18 19  1  0
 19 20  1  0
 20 21  1  0
 22 20  2  0
M  END
$$$$
