QNG.pdb
     RDKit          3D

 22 21  0  0  1  0  0  0  0  0999 V2000
    5.4105  -11.9555   25.1466 N   0  0  0  0  0  0  0  0  0  0  0  0
    6.3453  -12.0876   26.2087 C   0  0  0  0  0  0  0  0  0  0  0  0
    6.6264  -11.0833   26.8838 O   0  0  0  0  0  0  0  0  0  0  0  0
    6.9687  -13.3870   26.5067 C   0  0  0  0  0  0  0  0  0  0  0  0
    6.5342  -14.4372   25.5413 C   0  0  0  0  0  0  0  0  0  0  0  0
    7.1049  -15.8047   25.8161 C   0  0  2  0  0  0  0  0  0  0  0  0
    7.8180  -15.7461   27.0637 N   0  0  0  0  0  0  0  0  0  0  0  0
    7.9850  -16.1477   24.6702 C   0  0  0  0  0  0  0  0  0  0  0  0
    7.5724  -16.3028   23.4973 O   0  0  0  0  0  0  0  0  0  0  0  0
    9.1416  -15.7823   21.4697 N   0  0  0  0  0  0  0  0  0  0  0  0
   10.3976  -15.2114   21.9119 C   0  0  0  0  0  0  0  0  0  0  0  0
   10.9831  -14.5043   21.0912 O   0  0  0  0  0  0  0  0  0  0  0  0
   10.8640  -15.5002   23.2420 C   0  0  0  0  0  0  0  0  0  0  0  0
   10.2969  -16.7595   23.8424 C   0  0  2  0  0  0  0  0  0  0  0  0
    9.3621  -16.3050   24.9328 N   0  0  0  0  0  0  0  0  0  0  0  0
   11.2680  -17.5792   24.5930 C   0  0  0  0  0  0  0  0  0  0  0  0
   12.2259  -18.1855   23.9704 O   0  0  0  0  0  0  0  0  0  0  0  0
   11.2793  -17.7859   25.9825 N   0  0  0  0  0  0  0  0  0  0  0  0
   10.5215  -18.8867   26.5885 C   0  0  0  0  0  0  0  0  0  0  0  0
   11.4329  -20.0034   26.8949 C   0  0  0  0  0  0  0  0  0  0  0  0
   11.8489  -20.2161   28.1980 O   0  0  0  0  0  0  0  0  0  0  0  0
   11.8172  -20.7503   25.9471 O   0  0  0  0  0  0  0  0  0  0  0  0
  2  1  1  0
  2  3  2  0
  4  2  1  0
  5  4  1  0
  6  7  1  1
  6  5  1  0
  8  6  1  0
  9  8  2  0
 10 11  1  0
 11 13  1  0
 11 12  2  0
 14 13  1  1
 14 15  1  0
 14 16  1  0
 15  8  1  0
 16 17  2  0
 16 18  1  0
 18 19  1  0
 19 20  1  0
 20 21  1  0
 22 20  2  0
M  END
$$$$
