QNG.pdb
     RDKit          3D

 22 21  0  0  1  0  0  0  0  0999 V2000
    6.9127  -12.4979   19.1874 N   0  0  0  0  0  0  0  0  0  0  0  0
    8.1628  -12.9737   18.7075 C   0  0  0  0  0  0  0  0  0  0  0  0
    9.1662  -12.8451   19.4286 O   0  0  0  0  0  0  0  0  0  0  0  0
    8.2699  -13.6082   17.3839 C   0  0  0  0  0  0  0  0  0  0  0  0
    7.9050  -15.0530   17.4380 C   0  0  0  0  0  0  0  0  0  0  0  0
    8.8043  -15.9493   16.6261 C   0  0  2  0  0  0  0  0  0  0  0  0
    7.9832  -16.6808   15.6992 N   0  0  0  0  0  0  0  0  0  0  0  0
    9.5148  -16.8354   17.5827 C   0  0  0  0  0  0  0  0  0  0  0  0
    8.9335  -17.5798   18.4061 O   0  0  0  0  0  0  0  0  0  0  0  0
   10.4125  -20.1154   18.3601 N   0  0  0  0  0  0  0  0  0  0  0  0
   11.5296  -19.7959   17.4947 C   0  0  0  0  0  0  0  0  0  0  0  0
   11.6538  -20.5055   16.4960 O   0  0  0  0  0  0  0  0  0  0  0  0
   12.3948  -18.7024   17.8492 C   0  0  0  0  0  0  0  0  0  0  0  0
   11.7131  -17.5822   18.5898 C   0  0  2  0  0  0  0  0  0  0  0  0
   10.9252  -16.8279   17.5508 N   0  0  0  0  0  0  0  0  0  0  0  0
   12.6205  -16.5381   19.1043 C   0  0  0  0  0  0  0  0  0  0  0  0
   12.6867  -16.3020   20.3743 O   0  0  0  0  0  0  0  0  0  0  0  0
   13.4731  -15.7285   18.3355 N   0  0  0  0  0  0  0  0  0  0  0  0
   14.3851  -14.7723   18.9736 C   0  0  0  0  0  0  0  0  0  0  0  0
   15.1600  -14.0638   17.9396 C   0  0  0  0  0  0  0  0  0  0  0  0
   16.0427  -13.0621   18.3050 O   0  0  0  0  0  0  0  0  0  0  0  0
   14.9978  -14.3935   16.7276 O   0  0  0  0  0  0  0  0  0  0  0  0
  2  1  1  0
  2  3  2  0
  4  2  1  0
  5  4  1  0
  6  7  1  6
  6  5  1  0
  8  6  1  0
  9  8  2  0
 10 11  1  0
 11 13  1  0
 11 12  2  0
 14 13  1  6
 14 15  1  0
 14 16  1  0
 15  8  1  0
 16 17  2  0
 16 18  1  0
 18 19  1  0
 19 20  1  0
 20 21  1  0
 22 20  2  0
M  END
$$$$
