QNG.pdb
     RDKit          3D

 22 21  0  0  1  0  0  0  0  0999 V2000
    7.8718  -12.7601   16.8077 N   0  0  0  0  0  0  0  0  0  0  0  0
    8.3488  -13.9398   16.1751 C   0  0  0  0  0  0  0  0  0  0  0  0
    7.9949  -14.1750   15.0078 O   0  0  0  0  0  0  0  0  0  0  0  0
    9.2455  -14.8658   16.8853 C   0  0  0  0  0  0  0  0  0  0  0  0
    9.5042  -14.4141   18.2826 C   0  0  0  0  0  0  0  0  0  0  0  0
   10.3456  -15.3649   19.0946 C   0  0  2  0  0  0  0  0  0  0  0  0
    9.7895  -16.6835   18.9518 N   0  0  0  0  0  0  0  0  0  0  0  0
   10.3172  -14.8816   20.4985 C   0  0  0  0  0  0  0  0  0  0  0  0
   10.7976  -13.7847   20.8673 O   0  0  0  0  0  0  0  0  0  0  0  0
    7.3022  -14.0171   21.8412 N   0  0  0  0  0  0  0  0  0  0  0  0
    7.0841  -15.1446   22.7244 C   0  0  0  0  0  0  0  0  0  0  0  0
    5.9105  -15.4828   22.8817 O   0  0  0  0  0  0  0  0  0  0  0  0
    8.2201  -15.7762   23.3412 C   0  0  0  0  0  0  0  0  0  0  0  0
    9.5534  -15.2463   22.8835 C   0  0  2  0  0  0  0  0  0  0  0  0
    9.7112  -15.7162   21.4610 N   0  0  0  0  0  0  0  0  0  0  0  0
   10.7228  -15.8614   23.5412 C   0  0  0  0  0  0  0  0  0  0  0  0
   10.5624  -16.6201   24.5763 O   0  0  0  0  0  0  0  0  0  0  0  0
   12.0645  -15.7170   23.1507 N   0  0  0  0  0  0  0  0  0  0  0  0
   13.1462  -16.3454   23.9178 C   0  0  0  0  0  0  0  0  0  0  0  0
   14.4241  -16.1674   23.2058 C   0  0  0  0  0  0  0  0  0  0  0  0
   15.5988  -16.6329   23.7711 O   0  0  0  0  0  0  0  0  0  0  0  0
   14.4157  -15.5866   22.0804 O   0  0  0  0  0  0  0  0  0  0  0  0
  2  1  1  0
  2  3  2  0
  4  2  1  0
  5  4  1  0
  6  7  1  1
  6  5  1  0
  8  6  1  0
  9  8  2  0
 10 11  1  0
 11 13  1  0
 11 12  2  0
 14 13  1  1
 14 15  1  0
 14 16  1  0
 15  8  1  0
 16 17  2  0
 16 18  1  0
 18 19  1  0
 19 20  1  0
 20 21  1  0
 22 20  2  0
M  END
$$$$
