HAI.pdb
     RDKit          3D

 24 24  0  0  1  0  0  0  0  0999 V2000
    8.4725  -16.7330   19.0556 N   0  0  0  0  0  0  0  0  0  0  0  0
    8.2568  -15.5125   19.7745 C   0  0  1  0  0  0  0  0  0  0  0  0
    7.2778  -14.5795   19.1228 C   0  0  0  0  0  0  0  0  0  0  0  0
    7.6075  -14.3220   17.7043 C   0  0  0  0  0  0  0  0  0  0  0  0
    8.2442  -13.2248   17.1667 C   0  0  0  0  0  0  0  0  0  0  0  0
    8.3102  -13.4554   15.8441 N   0  0  0  0  0  0  0  0  0  0  0  0
    7.7463  -14.6370   15.5487 C   0  0  0  0  0  0  0  0  0  0  0  0
    7.3187  -15.1603   16.6947 N   0  0  0  0  0  0  0  0  0  0  0  0
    7.9168  -15.7556   21.2074 C   0  0  0  0  0  0  0  0  0  0  0  0
    7.1151  -15.0200   21.8367 O   0  0  0  0  0  0  0  0  0  0  0  0
    8.6286  -18.4948   23.6690 C   0  0  0  0  0  0  0  0  0  0  0  0
    8.1208  -17.1046   23.3286 C   0  0  2  0  0  0  0  0  0  0  0  0
    8.4875  -16.8449   21.9484 N   0  0  0  0  0  0  0  0  0  0  0  0
    8.6911  -16.1108   24.2494 C   0  0  0  0  0  0  0  0  0  0  0  0
    9.8807  -15.7458   24.1061 O   0  0  0  0  0  0  0  0  0  0  0  0
    7.0042  -11.0456   27.0791 C   0  0  0  0  0  0  0  0  0  0  0  0
    7.9293  -12.2374   27.1124 C   0  0  0  0  0  0  0  0  0  0  0  0
    7.4731  -13.3461   26.2240 C   0  0  2  0  0  0  0  0  0  0  0  0
    6.0784  -13.7635   26.6349 C   0  0  0  0  0  0  0  0  0  0  0  0
    8.4190  -14.5241   26.1874 C   0  0  2  0  0  0  0  0  0  0  0  0
    7.9062  -15.5656   25.2939 N   0  0  0  0  0  0  0  0  0  0  0  0
    8.6157  -15.0681   27.5327 C   0  0  0  0  0  0  0  0  0  0  0  0
    8.0995  -16.1250   27.9513 O   0  0  0  0  0  0  0  0  0  0  0  0
    9.4293  -14.3804   28.4281 O   0  0  0  0  0  0  0  0  0  0  0  0
  2  1  1  6
  3  2  1  0
  4  3  1  0
  4  5  2  0
  6  5  1  0
  7  8  2  0
  7  6  1  0
  8  4  1  0
  9  2  1  0
 10  9  2  0
 12 11  1  1
 12 13  1  0
 12 14  1  0
 13  9  1  0
 14 21  1  0
 15 14  2  0
 17 16  1  0
 18 17  1  0
 18 19  1  1
 20 18  1  0
 20 22  1  0
 20 21  1  6
 22 23  2  0
 22 24  1  0
M  END
$$$$
