HAI.pdb
     RDKit          3D

 24 24  0  0  1  0  0  0  0  0999 V2000
    8.2296  -16.9124   19.1471 N   0  0  0  0  0  0  0  0  0  0  0  0
    8.2880  -15.8004   20.0489 C   0  0  1  0  0  0  0  0  0  0  0  0
    7.4245  -14.6391   19.6502 C   0  0  0  0  0  0  0  0  0  0  0  0
    7.8134  -14.0750   18.3395 C   0  0  0  0  0  0  0  0  0  0  0  0
    8.5887  -12.9636   18.0902 C   0  0  0  0  0  0  0  0  0  0  0  0
    8.6552  -12.8604   16.7517 N   0  0  0  0  0  0  0  0  0  0  0  0
    7.9602  -13.8520   16.1729 C   0  0  0  0  0  0  0  0  0  0  0  0
    7.4481  -14.5908   17.1538 N   0  0  0  0  0  0  0  0  0  0  0  0
    8.0434  -16.2093   21.4635 C   0  0  0  0  0  0  0  0  0  0  0  0
    6.8871  -16.4326   21.9028 O   0  0  0  0  0  0  0  0  0  0  0  0
    9.5066  -18.1910   23.8987 C   0  0  0  0  0  0  0  0  0  0  0  0
    8.8798  -16.8142   23.7647 C   0  0  2  0  0  0  0  0  0  0  0  0
    9.1169  -16.3706   22.4031 N   0  0  0  0  0  0  0  0  0  0  0  0
    9.4525  -15.8916   24.7553 C   0  0  0  0  0  0  0  0  0  0  0  0
   10.5753  -15.3775   24.5453 O   0  0  0  0  0  0  0  0  0  0  0  0
    6.2274  -12.1828   26.5709 C   0  0  0  0  0  0  0  0  0  0  0  0
    7.4179  -13.0081   26.1485 C   0  0  0  0  0  0  0  0  0  0  0  0
    8.1121  -13.6510   27.3024 C   0  0  2  0  0  0  0  0  0  0  0  0
    8.5985  -12.5736   28.2462 C   0  0  0  0  0  0  0  0  0  0  0  0
    9.2307  -14.5825   26.8966 C   0  0  2  0  0  0  0  0  0  0  0  0
    8.7448  -15.5815   25.9416 N   0  0  0  0  0  0  0  0  0  0  0  0
    9.8001  -15.2455   28.0716 C   0  0  0  0  0  0  0  0  0  0  0  0
    9.4893  -16.3913   28.4578 O   0  0  0  0  0  0  0  0  0  0  0  0
   10.7562  -14.5757   28.8292 O   0  0  0  0  0  0  0  0  0  0  0  0
  2  1  1  6
  3  2  1  0
  4  3  1  0
  4  5  2  0
  6  5  1  0
  7  8  2  0
  7  6  1  0
  8  4  1  0
  9  2  1  0
 10  9  2  0
 12 11  1  6
 12 13  1  0
 12 14  1  0
 13  9  1  0
 14 21  1  0
 15 14  2  0
 17 16  1  0
 18 17  1  0
 18 19  1  1
 20 18  1  0
 20 22  1  0
 20 21  1  6
 22 23  2  0
 22 24  1  0
M  END
$$$$
