HAI.pdb
     RDKit          3D

 24 24  0  0  1  0  0  0  0  0999 V2000
    8.2091  -17.2025   19.6187 N   0  0  0  0  0  0  0  0  0  0  0  0
    7.6739  -16.2267   20.5212 C   0  0  1  0  0  0  0  0  0  0  0  0
    6.7627  -15.2246   19.8740 C   0  0  0  0  0  0  0  0  0  0  0  0
    7.4640  -14.3949   18.8705 C   0  0  0  0  0  0  0  0  0  0  0  0
    8.1388  -13.2104   19.0707 C   0  0  0  0  0  0  0  0  0  0  0  0
    8.5998  -12.8465   17.8617 N   0  0  0  0  0  0  0  0  0  0  0  0
    8.2404  -13.7487   16.9353 C   0  0  0  0  0  0  0  0  0  0  0  0
    7.5450  -14.6935   17.5630 N   0  0  0  0  0  0  0  0  0  0  0  0
    7.0413  -16.8545   21.7186 C   0  0  0  0  0  0  0  0  0  0  0  0
    6.4212  -17.9456   21.6504 O   0  0  0  0  0  0  0  0  0  0  0  0
    6.8996  -18.1594   24.4313 C   0  0  0  0  0  0  0  0  0  0  0  0
    6.3564  -16.7705   24.1445 C   0  0  2  0  0  0  0  0  0  0  0  0
    7.1059  -16.2460   23.0175 N   0  0  0  0  0  0  0  0  0  0  0  0
    6.4770  -15.9170   25.3351 C   0  0  0  0  0  0  0  0  0  0  0  0
    5.4895  -15.2495   25.7203 O   0  0  0  0  0  0  0  0  0  0  0  0
    6.4490  -12.2427   28.1064 C   0  0  0  0  0  0  0  0  0  0  0  0
    6.9797  -13.5623   27.6024 C   0  0  0  0  0  0  0  0  0  0  0  0
    7.7846  -13.4208   26.3538 C   0  0  2  0  0  0  0  0  0  0  0  0
    6.8738  -12.9820   25.2286 C   0  0  0  0  0  0  0  0  0  0  0  0
    8.5627  -14.6635   25.9881 C   0  0  2  0  0  0  0  0  0  0  0  0
    7.6987  -15.8451   26.0468 N   0  0  0  0  0  0  0  0  0  0  0  0
    9.7095  -14.8345   26.8827 C   0  0  0  0  0  0  0  0  0  0  0  0
   10.6206  -13.9945   27.0338 O   0  0  0  0  0  0  0  0  0  0  0  0
    9.8171  -16.0045   27.6283 O   0  0  0  0  0  0  0  0  0  0  0  0
  2  1  1  6
  3  2  1  0
  4  3  1  0
  4  5  2  0
  6  5  1  0
  7  8  2  0
  7  6  1  0
  8  4  1  0
  9  2  1  0
 10  9  2  0
 12 11  1  1
 12 13  1  0
 12 14  1  0
 13  9  1  0
 14 21  1  0
 15 14  2  0
 17 16  1  0
 18 17  1  0
 18 19  1  6
 20 18  1  0
 20 22  1  0
 20 21  1  1
 22 23  2  0
 22 24  1  0
M  END
$$$$
