HAI.pdb
     RDKit          3D

 24 24  0  0  1  0  0  0  0  0999 V2000
    9.2160  -16.1048   19.2581 N   0  0  0  0  0  0  0  0  0  0  0  0
    8.3724  -15.0607   19.7594 C   0  0  1  0  0  0  0  0  0  0  0  0
    7.2428  -14.6894   18.8431 C   0  0  0  0  0  0  0  0  0  0  0  0
    7.7146  -14.3290   17.4886 C   0  0  0  0  0  0  0  0  0  0  0  0
    8.3456  -13.1708   17.0899 C   0  0  0  0  0  0  0  0  0  0  0  0
    8.5723  -13.3159   15.7730 N   0  0  0  0  0  0  0  0  0  0  0  0
    8.1117  -14.5032   15.3492 C   0  0  0  0  0  0  0  0  0  0  0  0
    7.5881  -15.1165   16.4074 N   0  0  0  0  0  0  0  0  0  0  0  0
    7.8899  -15.3425   21.1435 C   0  0  0  0  0  0  0  0  0  0  0  0
    7.1536  -14.5390   21.7696 O   0  0  0  0  0  0  0  0  0  0  0  0
    8.1457  -18.2266   23.5351 C   0  0  0  0  0  0  0  0  0  0  0  0
    7.8745  -16.7646   23.2263 C   0  0  2  0  0  0  0  0  0  0  0  0
    8.2404  -16.5490   21.8384 N   0  0  0  0  0  0  0  0  0  0  0  0
    8.6332  -15.8984   24.1400 C   0  0  0  0  0  0  0  0  0  0  0  0
    9.8599  -15.7265   23.9536 O   0  0  0  0  0  0  0  0  0  0  0  0
    5.9058  -12.1058   27.5058 C   0  0  0  0  0  0  0  0  0  0  0  0
    6.6014  -13.3774   27.0863 C   0  0  0  0  0  0  0  0  0  0  0  0
    7.9098  -13.1242   26.4151 C   0  0  2  0  0  0  0  0  0  0  0  0
    7.6676  -12.3370   25.1463 C   0  0  0  0  0  0  0  0  0  0  0  0
    8.7089  -14.3787   26.1481 C   0  0  2  0  0  0  0  0  0  0  0  0
    7.9877  -15.2593   25.2258 N   0  0  0  0  0  0  0  0  0  0  0  0
    8.9917  -15.0848   27.3995 C   0  0  0  0  0  0  0  0  0  0  0  0
    9.6852  -14.6252   28.3304 O   0  0  0  0  0  0  0  0  0  0  0  0
    8.4638  -16.3579   27.5920 O   0  0  0  0  0  0  0  0  0  0  0  0
  2  1  1  6
  3  2  1  0
  4  3  1  0
  4  5  2  0
  6  5  1  0
  7  8  2  0
  7  6  1  0
  8  4  1  0
  9  2  1  0
 10  9  2  0
 12 11  1  1
 12 13  1  0
 12 14  1  0
 13  9  1  0
 14 21  1  0
 15 14  2  0
 17 16  1  0
 18 17  1  0
 18 19  1  6
 20 18  1  0
 20 22  1  0
 20 21  1  6
 22 23  2  0
 22 24  1  0
M  END
$$$$
