HAI.pdb
     RDKit          3D

 24 24  0  0  1  0  0  0  0  0999 V2000
    8.5843  -18.8625   21.2491 N   0  0  0  0  0  0  0  0  0  0  0  0
    9.7198  -18.1051   20.8129 C   0  0  1  0  0  0  0  0  0  0  0  0
   10.3053  -18.5689   19.5108 C   0  0  0  0  0  0  0  0  0  0  0  0
   10.5939  -20.0194   19.5106 C   0  0  0  0  0  0  0  0  0  0  0  0
   10.7770  -20.8484   20.5958 C   0  0  0  0  0  0  0  0  0  0  0  0
   11.0116  -22.0691   20.0844 N   0  0  0  0  0  0  0  0  0  0  0  0
   10.9808  -22.0261   18.7433 C   0  0  0  0  0  0  0  0  0  0  0  0
   10.7242  -20.7662   18.4013 N   0  0  0  0  0  0  0  0  0  0  0  0
    9.4477  -16.6375   20.8036 C   0  0  0  0  0  0  0  0  0  0  0  0
   10.3119  -15.8014   20.4376 O   0  0  0  0  0  0  0  0  0  0  0  0
    6.4475  -14.4665   21.0305 C   0  0  0  0  0  0  0  0  0  0  0  0
    7.9370  -14.6676   21.2484 C   0  0  2  0  0  0  0  0  0  0  0  0
    8.1818  -16.0979   21.2129 N   0  0  0  0  0  0  0  0  0  0  0  0
    8.3544  -14.0658   22.5228 C   0  0  0  0  0  0  0  0  0  0  0  0
    8.7299  -12.8711   22.5492 O   0  0  0  0  0  0  0  0  0  0  0  0
    6.9151  -11.4377   26.9828 C   0  0  0  0  0  0  0  0  0  0  0  0
    7.8890  -12.5598   26.7193 C   0  0  0  0  0  0  0  0  0  0  0  0
    7.5501  -13.3413   25.4941 C   0  0  2  0  0  0  0  0  0  0  0  0
    6.2781  -14.1208   25.7442 C   0  0  0  0  0  0  0  0  0  0  0  0
    8.6685  -14.2386   25.0167 C   0  0  2  0  0  0  0  0  0  0  0  0
    8.3348  -14.8261   23.7169 N   0  0  0  0  0  0  0  0  0  0  0  0
    8.9319  -15.2969   25.9940 C   0  0  0  0  0  0  0  0  0  0  0  0
    9.2583  -15.0975   27.1824 O   0  0  0  0  0  0  0  0  0  0  0  0
    8.8183  -16.6263   25.5985 O   0  0  0  0  0  0  0  0  0  0  0  0
  2  1  1  6
  3  2  1  0
  4  3  1  0
  4  5  2  0
  6  5  1  0
  7  8  2  0
  7  6  1  0
  8  4  1  0
  9  2  1  0
 10  9  2  0
 12 11  1  1
 12 13  1  0
 12 14  1  0
 13  9  1  0
 14 21  1  0
 15 14  2  0
 17 16  1  0
 18 17  1  0
 18 19  1  1
 20 18  1  0
 20 22  1  0
 20 21  1  6
 22 23  2  0
 22 24  1  0
M  END
$$$$
