HAI.pdb
     RDKit          3D

 24 24  0  0  1  0  0  0  0  0999 V2000
    7.6479  -17.5838   18.5675 N   0  0  0  0  0  0  0  0  0  0  0  0
    7.8076  -16.4419   19.4182 C   0  0  1  0  0  0  0  0  0  0  0  0
    7.1249  -15.2020   18.9183 C   0  0  0  0  0  0  0  0  0  0  0  0
    7.7780  -14.6498   17.7119 C   0  0  0  0  0  0  0  0  0  0  0  0
    8.8967  -15.1222   17.0608 C   0  0  0  0  0  0  0  0  0  0  0  0
    9.0955  -14.2860   16.0275 N   0  0  0  0  0  0  0  0  0  0  0  0
    8.1552  -13.3283   16.0157 C   0  0  0  0  0  0  0  0  0  0  0  0
    7.3527  -13.5596   17.0514 N   0  0  0  0  0  0  0  0  0  0  0  0
    7.4424  -16.7396   20.8346 C   0  0  0  0  0  0  0  0  0  0  0  0
    6.2553  -16.9574   21.1856 O   0  0  0  0  0  0  0  0  0  0  0  0
    8.4583  -18.5288   23.5175 C   0  0  0  0  0  0  0  0  0  0  0  0
    8.0692  -17.0848   23.2530 C   0  0  2  0  0  0  0  0  0  0  0  0
    8.4282  -16.7937   21.8770 N   0  0  0  0  0  0  0  0  0  0  0  0
    8.7452  -16.1895   24.2028 C   0  0  0  0  0  0  0  0  0  0  0  0
    9.9206  -15.8206   23.9760 O   0  0  0  0  0  0  0  0  0  0  0  0
    5.8580  -12.3428   26.7276 C   0  0  0  0  0  0  0  0  0  0  0  0
    6.9117  -13.1844   26.0506 C   0  0  0  0  0  0  0  0  0  0  0  0
    7.7298  -13.9722   27.0186 C   0  0  2  0  0  0  0  0  0  0  0  0
    8.3939  -13.0212   27.9895 C   0  0  0  0  0  0  0  0  0  0  0  0
    8.7353  -14.8883   26.3603 C   0  0  2  0  0  0  0  0  0  0  0  0
    8.0777  -15.7431   25.3688 N   0  0  0  0  0  0  0  0  0  0  0  0
    9.4145  -15.7120   27.3627 C   0  0  0  0  0  0  0  0  0  0  0  0
    8.9701  -16.7881   27.8136 O   0  0  0  0  0  0  0  0  0  0  0  0
   10.6418  -15.2907   27.8654 O   0  0  0  0  0  0  0  0  0  0  0  0
  2  1  1  6
  3  2  1  0
  4  3  1  0
  4  5  2  0
  6  5  1  0
  7  8  2  0
  7  6  1  0
  8  4  1  0
  9  2  1  0
 10  9  2  0
 12 11  1  1
 12 13  1  0
 12 14  1  0
 13  9  1  0
 14 21  1  0
 15 14  2  0
 17 16  1  0
 18 17  1  0
 18 19  1  1
 20 18  1  0
 20 22  1  0
 20 21  1  6
 22 23  2  0
 22 24  1  0
M  END
$$$$
