HAI.pdb
     RDKit          3D

 24 24  0  0  1  0  0  0  0  0999 V2000
    9.6088  -15.8520   18.7113 N   0  0  0  0  0  0  0  0  0  0  0  0
    8.6561  -14.9717   19.3200 C   0  0  1  0  0  0  0  0  0  0  0  0
    7.3905  -14.7953   18.5323 C   0  0  0  0  0  0  0  0  0  0  0  0
    7.6532  -14.5176   17.1037 C   0  0  0  0  0  0  0  0  0  0  0  0
    8.2983  -13.4307   16.5550 C   0  0  0  0  0  0  0  0  0  0  0  0
    8.2861  -13.6340   15.2264 N   0  0  0  0  0  0  0  0  0  0  0  0
    7.6666  -14.7891   14.9377 C   0  0  0  0  0  0  0  0  0  0  0  0
    7.2825  -15.3231   16.0942 N   0  0  0  0  0  0  0  0  0  0  0  0
    8.3756  -15.3402   20.7390 C   0  0  0  0  0  0  0  0  0  0  0  0
    7.5283  -14.7237   21.4332 O   0  0  0  0  0  0  0  0  0  0  0  0
    9.4693  -18.1277   23.0108 C   0  0  0  0  0  0  0  0  0  0  0  0
    8.7221  -16.8332   22.7420 C   0  0  2  0  0  0  0  0  0  0  0  0
    9.0590  -16.4212   21.3916 N   0  0  0  0  0  0  0  0  0  0  0  0
    9.0852  -15.8153   23.7383 C   0  0  0  0  0  0  0  0  0  0  0  0
   10.1916  -15.2340   23.6538 O   0  0  0  0  0  0  0  0  0  0  0  0
    6.5973  -11.3577   26.9767 C   0  0  0  0  0  0  0  0  0  0  0  0
    7.6897  -12.3975   26.9265 C   0  0  0  0  0  0  0  0  0  0  0  0
    7.3994  -13.4920   25.9547 C   0  0  2  0  0  0  0  0  0  0  0  0
    6.1062  -14.1702   26.3496 C   0  0  0  0  0  0  0  0  0  0  0  0
    8.5270  -14.4870   25.8051 C   0  0  2  0  0  0  0  0  0  0  0  0
    8.1948  -15.4891   24.7895 N   0  0  0  0  0  0  0  0  0  0  0  0
    8.8085  -15.1419   27.0843 C   0  0  0  0  0  0  0  0  0  0  0  0
    9.3459  -14.5826   28.0626 O   0  0  0  0  0  0  0  0  0  0  0  0
    8.4640  -16.4800   27.2494 O   0  0  0  0  0  0  0  0  0  0  0  0
  2  1  1  6
  3  2  1  0
  4  3  1  0
  4  5  2  0
  6  5  1  0
  7  8  2  0
  7  6  1  0
  8  4  1  0
  9  2  1  0
 10  9  2  0
 12 11  1  1
 12 13  1  0
 12 14  1  0
 13  9  1  0
 14 21  1  0
 15 14  2  0
 17 16  1  0
 18 17  1  0
 18 19  1  1
 20 18  1  0
 20 22  1  0
 20 21  1  6
 22 23  2  0
 22 24  1  0
M  END
$$$$
