HAI.pdb
     RDKit          3D

 24 24  0  0  1  0  0  0  0  0999 V2000
    7.5881  -18.9352   19.6289 N   0  0  0  0  0  0  0  0  0  0  0  0
    7.8545  -17.5777   20.0020 C   0  0  1  0  0  0  0  0  0  0  0  0
    7.5061  -16.5696   18.9457 C   0  0  0  0  0  0  0  0  0  0  0  0
    8.2806  -16.7702   17.7019 C   0  0  0  0  0  0  0  0  0  0  0  0
    9.6470  -16.7123   17.5342 C   0  0  0  0  0  0  0  0  0  0  0  0
    9.8637  -16.9621   16.2314 N   0  0  0  0  0  0  0  0  0  0  0  0
    8.6992  -17.1693   15.5969 C   0  0  0  0  0  0  0  0  0  0  0  0
    7.7353  -17.0497   16.5061 N   0  0  0  0  0  0  0  0  0  0  0  0
    7.2486  -17.2268   21.3203 C   0  0  0  0  0  0  0  0  0  0  0  0
    6.2246  -16.5039   21.4123 O   0  0  0  0  0  0  0  0  0  0  0  0
    6.9998  -18.5857   24.6245 C   0  0  0  0  0  0  0  0  0  0  0  0
    7.2437  -17.3078   23.8411 C   0  0  2  0  0  0  0  0  0  0  0  0
    7.8026  -17.6961   22.5590 N   0  0  0  0  0  0  0  0  0  0  0  0
    8.1393  -16.4121   24.5871 C   0  0  0  0  0  0  0  0  0  0  0  0
    9.3760  -16.4765   24.3987 O   0  0  0  0  0  0  0  0  0  0  0  0
    5.9699  -11.6529   26.3608 C   0  0  0  0  0  0  0  0  0  0  0  0
    6.9960  -12.5987   25.7865 C   0  0  0  0  0  0  0  0  0  0  0  0
    7.6706  -13.4216   26.8326 C   0  0  2  0  0  0  0  0  0  0  0  0
    8.5175  -12.5168   27.6999 C   0  0  0  0  0  0  0  0  0  0  0  0
    8.4760  -14.5723   26.2751 C   0  0  2  0  0  0  0  0  0  0  0  0
    7.6140  -15.4801   25.5142 N   0  0  0  0  0  0  0  0  0  0  0  0
    9.1462  -15.3016   27.3537 C   0  0  0  0  0  0  0  0  0  0  0  0
    8.6318  -16.2359   28.0026 O   0  0  0  0  0  0  0  0  0  0  0  0
   10.4472  -14.9504   27.7011 O   0  0  0  0  0  0  0  0  0  0  0  0
  2  1  1  6
  3  2  1  0
  4  3  1  0
  4  5  2  0
  6  5  1  0
  7  8  2  0
  7  6  1  0
  8  4  1  0
  9  2  1  0
 10  9  2  0
 12 11  1  1
 12 13  1  0
 12 14  1  0
 13  9  1  0
 14 21  1  0
 15 14  2  0
 17 16  1  0
 18 17  1  0
 18 19  1  6
 20 18  1  0
 20 22  1  0
 20 21  1  1
 22 23  2  0
 22 24  1  0
M  END
$$$$
