HAI.pdb
     RDKit          3D

 24 24  0  0  1  0  0  0  0  0999 V2000
    7.9869  -16.5835   18.8655 N   0  0  0  0  0  0  0  0  0  0  0  0
    8.1053  -15.2388   19.3457 C   0  0  1  0  0  0  0  0  0  0  0  0
    7.3533  -14.2263   18.5314 C   0  0  0  0  0  0  0  0  0  0  0  0
    7.8777  -14.1137   17.1532 C   0  0  0  0  0  0  0  0  0  0  0  0
    8.9220  -14.8085   16.5830 C   0  0  0  0  0  0  0  0  0  0  0  0
    9.0128  -14.3559   15.3206 N   0  0  0  0  0  0  0  0  0  0  0  0
    8.0771  -13.4210   15.0927 C   0  0  0  0  0  0  0  0  0  0  0  0
    7.3867  -13.2796   16.2212 N   0  0  0  0  0  0  0  0  0  0  0  0
    7.7807  -15.1290   20.7984 C   0  0  0  0  0  0  0  0  0  0  0  0
    8.1034  -14.1234   21.4798 O   0  0  0  0  0  0  0  0  0  0  0  0
    8.5019  -17.9140   22.2958 C   0  0  0  0  0  0  0  0  0  0  0  0
    7.6098  -16.7588   22.7156 C   0  0  2  0  0  0  0  0  0  0  0  0
    7.0807  -16.1678   21.5001 N   0  0  0  0  0  0  0  0  0  0  0  0
    8.3699  -15.7893   23.5174 C   0  0  0  0  0  0  0  0  0  0  0  0
    9.4876  -15.3935   23.1133 O   0  0  0  0  0  0  0  0  0  0  0  0
    5.9885  -12.0737   27.1991 C   0  0  0  0  0  0  0  0  0  0  0  0
    6.4211  -13.2698   26.3871 C   0  0  0  0  0  0  0  0  0  0  0  0
    7.7160  -13.0482   25.6794 C   0  0  2  0  0  0  0  0  0  0  0  0
    7.4395  -12.4093   24.3365 C   0  0  0  0  0  0  0  0  0  0  0  0
    8.5540  -14.2979   25.5397 C   0  0  2  0  0  0  0  0  0  0  0  0
    7.8480  -15.3017   24.7397 N   0  0  0  0  0  0  0  0  0  0  0  0
    8.8839  -14.8462   26.8569 C   0  0  0  0  0  0  0  0  0  0  0  0
    8.4584  -15.9341   27.2976 O   0  0  0  0  0  0  0  0  0  0  0  0
    9.7281  -14.1264   27.6971 O   0  0  0  0  0  0  0  0  0  0  0  0
  2  1  1  6
  3  2  1  0
  4  3  1  0
  4  5  2  0
  6  5  1  0
  7  8  2  0
  7  6  1  0
  8  4  1  0
  9  2  1  0
 10  9  2  0
 12 11  1  6
 12 13  1  0
 12 14  1  0
 13  9  1  0
 14 21  1  0
 15 14  2  0
 17 16  1  0
 18 17  1  0
 18 19  1  6
 20 18  1  0
 20 22  1  0
 20 21  1  6
 22 23  2  0
 22 24  1  0
M  END
$$$$
