HAI.pdb
     RDKit          3D

 24 24  0  0  1  0  0  0  0  0999 V2000
    9.1894  -14.1968   18.3664 N   0  0  0  0  0  0  0  0  0  0  0  0
    9.8532  -14.7281   19.5197 C   0  0  1  0  0  0  0  0  0  0  0  0
   11.1014  -13.9891   19.9058 C   0  0  0  0  0  0  0  0  0  0  0  0
   12.2438  -14.3199   19.0268 C   0  0  0  0  0  0  0  0  0  0  0  0
   12.2565  -15.1519   17.9285 C   0  0  0  0  0  0  0  0  0  0  0  0
   13.5195  -15.1277   17.4695 N   0  0  0  0  0  0  0  0  0  0  0  0
   14.2769  -14.3235   18.2318 C   0  0  0  0  0  0  0  0  0  0  0  0
   13.4864  -13.8333   19.1832 N   0  0  0  0  0  0  0  0  0  0  0  0
    8.9265  -14.8885   20.6787 C   0  0  0  0  0  0  0  0  0  0  0  0
    8.3400  -13.9089   21.2042 O   0  0  0  0  0  0  0  0  0  0  0  0
    7.3867  -17.8031   22.4601 C   0  0  0  0  0  0  0  0  0  0  0  0
    7.7349  -16.3274   22.3731 C   0  0  2  0  0  0  0  0  0  0  0  0
    8.6527  -16.1728   21.2592 N   0  0  0  0  0  0  0  0  0  0  0  0
    8.3182  -15.8627   23.6398 C   0  0  0  0  0  0  0  0  0  0  0  0
    9.5585  -15.9166   23.8062 O   0  0  0  0  0  0  0  0  0  0  0  0
    5.9047  -11.7140   26.1803 C   0  0  0  0  0  0  0  0  0  0  0  0
    6.9159  -12.6922   25.6347 C   0  0  0  0  0  0  0  0  0  0  0  0
    7.1667  -13.8371   26.5582 C   0  0  2  0  0  0  0  0  0  0  0  0
    7.7504  -13.3086   27.8497 C   0  0  0  0  0  0  0  0  0  0  0  0
    8.0308  -14.9228   25.9597 C   0  0  2  0  0  0  0  0  0  0  0  0
    7.4890  -15.3561   24.6694 N   0  0  0  0  0  0  0  0  0  0  0  0
    8.1293  -16.0639   26.8723 C   0  0  0  0  0  0  0  0  0  0  0  0
    7.2977  -16.9929   26.9362 O   0  0  0  0  0  0  0  0  0  0  0  0
    9.2144  -16.1445   27.7398 O   0  0  0  0  0  0  0  0  0  0  0  0
  2  1  1  6
  3  2  1  0
  4  3  1  0
  4  5  2  0
  6  5  1  0
  7  8  2  0
  7  6  1  0
  8  4  1  0
  9  2  1  0
 10  9  2  0
 12 11  1  1
 12 13  1  0
 12 14  1  0
 13  9  1  0
 14 21  1  0
 15 14  2  0
 17 16  1  0
 18 17  1  0
 18 19  1  1
 20 18  1  0
 20 22  1  0
 20 21  1  6
 22 23  2  0
 22 24  1  0
M  END
$$$$
