HAI.pdb
     RDKit          3D

 24 24  0  0  1  0  0  0  0  0999 V2000
    8.3169  -17.1122   18.4180 N   0  0  0  0  0  0  0  0  0  0  0  0
    8.0776  -15.9424   19.2100 C   0  0  1  0  0  0  0  0  0  0  0  0
    7.1715  -14.9359   18.5626 C   0  0  0  0  0  0  0  0  0  0  0  0
    7.7205  -14.4250   17.2879 C   0  0  0  0  0  0  0  0  0  0  0  0
    8.5765  -13.3622   17.0978 C   0  0  0  0  0  0  0  0  0  0  0  0
    8.7830  -13.2952   15.7714 N   0  0  0  0  0  0  0  0  0  0  0  0
    8.0966  -14.2629   15.1437 C   0  0  0  0  0  0  0  0  0  0  0  0
    7.4489  -14.9497   16.0811 N   0  0  0  0  0  0  0  0  0  0  0  0
    7.6275  -16.2808   20.5924 C   0  0  0  0  0  0  0  0  0  0  0  0
    6.4334  -16.5755   20.8515 O   0  0  0  0  0  0  0  0  0  0  0  0
    8.5486  -18.1280   23.2279 C   0  0  0  0  0  0  0  0  0  0  0  0
    8.1092  -16.6872   23.0344 C   0  0  2  0  0  0  0  0  0  0  0  0
    8.5346  -16.2885   21.7052 N   0  0  0  0  0  0  0  0  0  0  0  0
    8.6857  -15.8306   24.0806 C   0  0  0  0  0  0  0  0  0  0  0  0
    9.9090  -15.5624   24.0560 O   0  0  0  0  0  0  0  0  0  0  0  0
    6.5338  -11.0692   27.2643 C   0  0  0  0  0  0  0  0  0  0  0  0
    7.6140  -12.1158   27.1433 C   0  0  0  0  0  0  0  0  0  0  0  0
    7.2088  -13.2656   26.2827 C   0  0  2  0  0  0  0  0  0  0  0  0
    6.0176  -13.9543   26.9109 C   0  0  0  0  0  0  0  0  0  0  0  0
    8.3301  -14.2387   26.0008 C   0  0  2  0  0  0  0  0  0  0  0  0
    7.8691  -15.3085   25.1125 N   0  0  0  0  0  0  0  0  0  0  0  0
    8.8435  -14.8078   27.2487 C   0  0  0  0  0  0  0  0  0  0  0  0
    9.4796  -14.1661   28.1102 O   0  0  0  0  0  0  0  0  0  0  0  0
    8.6217  -16.1547   27.5194 O   0  0  0  0  0  0  0  0  0  0  0  0
  2  1  1  6
  3  2  1  0
  4  3  1  0
  4  5  2  0
  6  5  1  0
  7  8  2  0
  7  6  1  0
  8  4  1  0
  9  2  1  0
 10  9  2  0
 12 11  1  1
 12 13  1  0
 12 14  1  0
 13  9  1  0
 14 21  1  0
 15 14  2  0
 17 16  1  0
 18 17  1  0
 18 19  1  1
 20 18  1  0
 20 22  1  0
 20 21  1  6
 22 23  2  0
 22 24  1  0
M  END
$$$$
