HAI.pdb
     RDKit          3D

 24 24  0  0  1  0  0  0  0  0999 V2000
    9.2374  -15.9576   19.2659 N   0  0  0  0  0  0  0  0  0  0  0  0
    8.3005  -15.0046   19.7827 C   0  0  1  0  0  0  0  0  0  0  0  0
    7.1667  -14.6891   18.8509 C   0  0  0  0  0  0  0  0  0  0  0  0
    7.6380  -14.3240   17.4975 C   0  0  0  0  0  0  0  0  0  0  0  0
    8.3766  -13.2223   17.1245 C   0  0  0  0  0  0  0  0  0  0  0  0
    8.5521  -13.3355   15.7967 N   0  0  0  0  0  0  0  0  0  0  0  0
    7.9581  -14.4499   15.3418 C   0  0  0  0  0  0  0  0  0  0  0  0
    7.4009  -15.0487   16.3911 N   0  0  0  0  0  0  0  0  0  0  0  0
    7.8096  -15.3779   21.1420 C   0  0  0  0  0  0  0  0  0  0  0  0
    6.9895  -14.6652   21.7739 O   0  0  0  0  0  0  0  0  0  0  0  0
    8.2381  -18.3142   23.4400 C   0  0  0  0  0  0  0  0  0  0  0  0
    7.8867  -16.8595   23.1816 C   0  0  2  0  0  0  0  0  0  0  0  0
    8.2474  -16.5738   21.8049 N   0  0  0  0  0  0  0  0  0  0  0  0
    8.5903  -15.9855   24.1312 C   0  0  0  0  0  0  0  0  0  0  0  0
    9.8169  -15.7763   23.9871 O   0  0  0  0  0  0  0  0  0  0  0  0
    5.7352  -12.1320   27.3188 C   0  0  0  0  0  0  0  0  0  0  0  0
    6.4422  -13.4285   27.0084 C   0  0  0  0  0  0  0  0  0  0  0  0
    7.7610  -13.2206   26.3420 C   0  0  2  0  0  0  0  0  0  0  0  0
    7.5403  -12.5078   25.0262 C   0  0  0  0  0  0  0  0  0  0  0  0
    8.5573  -14.4920   26.1600 C   0  0  2  0  0  0  0  0  0  0  0  0
    7.8922  -15.3809   25.2041 N   0  0  0  0  0  0  0  0  0  0  0  0
    8.7350  -15.1760   27.4426 C   0  0  0  0  0  0  0  0  0  0  0  0
    9.3965  -14.7240   28.4001 O   0  0  0  0  0  0  0  0  0  0  0  0
    8.1365  -16.4174   27.6358 O   0  0  0  0  0  0  0  0  0  0  0  0
  2  1  1  6
  3  2  1  0
  4  3  1  0
  4  5  2  0
  6  5  1  0
  7  8  2  0
  7  6  1  0
  8  4  1  0
  9  2  1  0
 10  9  2  0
 12 11  1  1
 12 13  1  0
 12 14  1  0
 13  9  1  0
 14 21  1  0
 15 14  2  0
 17 16  1  0
 18 17  1  0
 18 19  1  6
 20 18  1  0
 20 22  1  0
 20 21  1  6
 22 23  2  0
 22 24  1  0
M  END
$$$$
