HAI.pdb
     RDKit          3D

 24 24  0  0  1  0  0  0  0  0999 V2000
   10.3146  -16.8404   18.3295 N   0  0  0  0  0  0  0  0  0  0  0  0
   10.8524  -16.3457   19.5620 C   0  0  1  0  0  0  0  0  0  0  0  0
   11.5314  -15.0120   19.4456 C   0  0  0  0  0  0  0  0  0  0  0  0
   12.9062  -15.1272   18.9128 C   0  0  0  0  0  0  0  0  0  0  0  0
   13.5575  -16.2628   18.4831 C   0  0  0  0  0  0  0  0  0  0  0  0
   14.7780  -15.8559   18.0939 N   0  0  0  0  0  0  0  0  0  0  0  0
   14.9035  -14.5305   18.2645 C   0  0  0  0  0  0  0  0  0  0  0  0
   13.7517  -14.0931   18.7666 N   0  0  0  0  0  0  0  0  0  0  0  0
    9.8428  -16.3563   20.6614 C   0  0  0  0  0  0  0  0  0  0  0  0
    8.7035  -15.8432   20.5255 O   0  0  0  0  0  0  0  0  0  0  0  0
    9.2095  -18.3953   23.6115 C   0  0  0  0  0  0  0  0  0  0  0  0
    9.1124  -17.0159   22.9835 C   0  0  2  0  0  0  0  0  0  0  0  0
   10.1170  -16.9540   21.9377 N   0  0  0  0  0  0  0  0  0  0  0  0
    9.3082  -15.9741   24.0018 C   0  0  0  0  0  0  0  0  0  0  0  0
   10.4467  -15.4792   24.1695 O   0  0  0  0  0  0  0  0  0  0  0  0
    6.0943  -11.5332   26.7650 C   0  0  0  0  0  0  0  0  0  0  0  0
    7.2791  -12.4661   26.8186 C   0  0  0  0  0  0  0  0  0  0  0  0
    7.1509  -13.6153   25.8753 C   0  0  2  0  0  0  0  0  0  0  0  0
    5.9146  -14.4099   26.2332 C   0  0  0  0  0  0  0  0  0  0  0  0
    8.3795  -14.4932   25.8163 C   0  0  2  0  0  0  0  0  0  0  0  0
    8.2212  -15.5281   24.7916 N   0  0  0  0  0  0  0  0  0  0  0  0
    8.6338  -15.1109   27.1195 C   0  0  0  0  0  0  0  0  0  0  0  0
    9.0015  -14.4892   28.1378 O   0  0  0  0  0  0  0  0  0  0  0  0
    8.4616  -16.4844   27.2621 O   0  0  0  0  0  0  0  0  0  0  0  0
  2  1  1  6
  3  2  1  0
  4  3  1  0
  4  5  2  0
  6  5  1  0
  7  8  2  0
  7  6  1  0
  8  4  1  0
  9  2  1  0
 10  9  2  0
 12 11  1  1
 12 13  1  0
 12 14  1  0
 13  9  1  0
 14 21  1  0
 15 14  2  0
 17 16  1  0
 18 17  1  0
 18 19  1  1
 20 18  1  0
 20 22  1  0
 20 21  1  6
 22 23  2  0
 22 24  1  0
M  END
$$$$
