YPS.pdb
     RDKit          3D

 26 27  0  0  1  0  0  0  0  0999 V2000
   21.5150  -18.7194  -15.8546 O   0  0  0  0  0  0  0  0  0  0  0  0
   21.5737  -17.3407  -15.9003 C   0  0  0  0  0  0  0  0  0  0  0  0
   22.0758  -16.7124  -17.0366 C   0  0  0  0  0  0  0  0  0  0  0  0
   22.1122  -15.3365  -17.0302 C   0  0  0  0  0  0  0  0  0  0  0  0
   21.6817  -14.5518  -15.9672 C   0  0  0  0  0  0  0  0  0  0  0  0
   21.7243  -13.0799  -16.0030 C   0  0  0  0  0  0  0  0  0  0  0  0
   20.4586  -12.4914  -16.6034 C   0  0  2  0  0  0  0  0  0  0  0  0
   20.2419  -13.0810  -17.8853 N   0  0  0  0  0  0  0  0  0  0  0  0
   20.4543  -11.0282  -16.5388 C   0  0  0  0  0  0  0  0  0  0  0  0
   21.5692  -10.5127  -16.9522 O   0  0  0  0  0  0  0  0  0  0  0  0
   21.1901  -15.2566  -14.8613 C   0  0  0  0  0  0  0  0  0  0  0  0
   21.1357  -16.6119  -14.8238 C   0  0  0  0  0  0  0  0  0  0  0  0
   19.4637  -10.1473  -16.1142 N   0  0  0  0  0  0  0  0  0  0  0  0
   18.0036  -10.2984  -16.3901 C   0  0  0  0  0  0  0  0  0  0  0  0
   17.5090  -10.2769  -14.9448 C   0  0  0  0  0  0  0  0  0  0  0  0
   18.5248   -9.4009  -14.1914 C   0  0  0  0  0  0  0  0  0  0  0  0
   19.4160   -8.9381  -15.3409 C   0  0  1  0  0  0  0  0  0  0  0  0
   20.6053   -8.2627  -14.9267 C   0  0  0  0  0  0  0  0  0  0  0  0
   21.5000   -8.7304  -14.1914 O   0  0  0  0  0  0  0  0  0  0  0  0
   21.3614   -4.3006  -16.3177 O   0  0  0  0  0  0  0  0  0  0  0  0
   22.3690   -5.2213  -16.1125 C   0  0  0  0  0  0  0  0  0  0  0  0
   22.0173   -6.1597  -14.9557 C   0  0  2  0  0  0  0  0  0  0  0  0
   20.8636   -6.9045  -15.3622 N   0  0  0  0  0  0  0  0  0  0  0  0
   21.8520   -5.4413  -13.6994 C   0  0  0  0  0  0  0  0  0  0  0  0
   20.7155   -5.2794  -13.2088 O   0  0  0  0  0  0  0  0  0  0  0  0
   22.9471   -4.9300  -13.0342 O   0  0  0  0  0  0  0  0  0  0  0  0
  1  2  1  0
  2  3  2  0
  3  4  1  0
  5  4  2  0
  5  6  1  0
  7  6  1  0
  7  8  1  6
  9  7  1  0
  9 13  1  0
 10  9  2  0
 11  5  1  0
 12  2  1  0
 12 11  2  0
 13 14  1  0
 14 15  1  0
 16 15  1  0
 17 13  1  0
 17 16  1  0
 17 18  1  1
 19 18  2  0
 20 21  1  0
 22 21  1  6
 22 24  1  0
 22 23  1  0
 23 18  1  0
 24 26  1  0
 25 24  2  0
M  END
$$$$
