YPS.pdb
     RDKit          3D

 26 27  0  0  1  0  0  0  0  0999 V2000
    6.9342  -14.8730   -6.7331 O   0  0  0  0  0  0  0  0  0  0  0  0
    7.6544  -15.7000   -7.5721 C   0  0  0  0  0  0  0  0  0  0  0  0
    7.0239  -16.7869   -8.1713 C   0  0  0  0  0  0  0  0  0  0  0  0
    7.7874  -17.5791   -8.9984 C   0  0  0  0  0  0  0  0  0  0  0  0
    9.1331  -17.3567   -9.2640 C   0  0  0  0  0  0  0  0  0  0  0  0
    9.9141  -18.2201  -10.1663 C   0  0  0  0  0  0  0  0  0  0  0  0
   10.1613  -17.5570  -11.5110 C   0  0  2  0  0  0  0  0  0  0  0  0
    8.9094  -17.1328  -12.0502 N   0  0  0  0  0  0  0  0  0  0  0  0
   11.0097  -18.3796  -12.3763 C   0  0  0  0  0  0  0  0  0  0  0  0
   10.5173  -19.5626  -12.5699 O   0  0  0  0  0  0  0  0  0  0  0  0
    9.6953  -16.2446   -8.6247 C   0  0  0  0  0  0  0  0  0  0  0  0
    8.9809  -15.4365   -7.8015 C   0  0  0  0  0  0  0  0  0  0  0  0
   12.2207  -18.0842  -12.9957 N   0  0  0  0  0  0  0  0  0  0  0  0
   12.5889  -16.7572  -13.5743 C   0  0  0  0  0  0  0  0  0  0  0  0
   13.8683  -16.5216  -12.7731 C   0  0  0  0  0  0  0  0  0  0  0  0
   14.4250  -17.9281  -12.4931 C   0  0  0  0  0  0  0  0  0  0  0  0
   13.4392  -18.7907  -13.2767 C   0  0  1  0  0  0  0  0  0  0  0  0
   13.5673  -20.1937  -13.0376 C   0  0  0  0  0  0  0  0  0  0  0  0
   13.5373  -20.7569  -11.9232 O   0  0  0  0  0  0  0  0  0  0  0  0
   12.8467  -22.9006  -16.1491 O   0  0  0  0  0  0  0  0  0  0  0  0
   12.6467  -23.1124  -14.7999 C   0  0  0  0  0  0  0  0  0  0  0  0
   13.8037  -22.5317  -13.9835 C   0  0  2  0  0  0  0  0  0  0  0  0
   13.7527  -21.1097  -14.1456 N   0  0  0  0  0  0  0  0  0  0  0  0
   15.0822  -23.1284  -14.3456 C   0  0  0  0  0  0  0  0  0  0  0  0
   15.2663  -24.3562  -14.2145 O   0  0  0  0  0  0  0  0  0  0  0  0
   16.1070  -22.3469  -14.8380 O   0  0  0  0  0  0  0  0  0  0  0  0
  1  2  1  0
  2  3  2  0
  3  4  1  0
  5  4  2  0
  5  6  1  0
  7  6  1  0
  7  8  1  6
  9  7  1  0
  9 13  1  0
 10  9  2  0
 11  5  1  0
 12  2  1  0
 12 11  2  0
 13 14  1  0
 14 15  1  0
 16 15  1  0
 17 13  1  0
 17 16  1  0
 17 18  1  1
 19 18  2  0
 20 21  1  0
 22 21  1  6
 22 24  1  0
 22 23  1  0
 23 18  1  0
 24 26  1  0
 25 24  2  0
M  END
$$$$
