YPS.pdb
     RDKit          3D

 26 27  0  0  1  0  0  0  0  0999 V2000
   22.6341  -20.8982   -7.8303 O   0  0  0  0  0  0  0  0  0  0  0  0
   23.0818  -20.9575   -9.1351 C   0  0  0  0  0  0  0  0  0  0  0  0
   24.4501  -20.9708   -9.3912 C   0  0  0  0  0  0  0  0  0  0  0  0
   24.8426  -21.0305  -10.7091 C   0  0  0  0  0  0  0  0  0  0  0  0
   23.9608  -21.0775  -11.7821 C   0  0  0  0  0  0  0  0  0  0  0  0
   24.4196  -21.1542  -13.1797 C   0  0  0  0  0  0  0  0  0  0  0  0
   24.4670  -19.7846  -13.8360 C   0  0  2  0  0  0  0  0  0  0  0  0
   23.1395  -19.4020  -14.1953 N   0  0  0  0  0  0  0  0  0  0  0  0
   25.4822  -19.7203  -14.8897 C   0  0  0  0  0  0  0  0  0  0  0  0
   24.9621  -19.5780  -16.0681 O   0  0  0  0  0  0  0  0  0  0  0  0
   22.6019  -21.0606  -11.4435 C   0  0  0  0  0  0  0  0  0  0  0  0
   22.1697  -21.0023  -10.1587 C   0  0  0  0  0  0  0  0  0  0  0  0
   26.8702  -19.7871  -14.8096 N   0  0  0  0  0  0  0  0  0  0  0  0
   27.6966  -19.2067  -13.7090 C   0  0  0  0  0  0  0  0  0  0  0  0
   28.4194  -20.4847  -13.2868 C   0  0  0  0  0  0  0  0  0  0  0  0
   28.5142  -21.3286  -14.5697 C   0  0  0  0  0  0  0  0  0  0  0  0
   27.9258  -20.3629  -15.5950 C   0  0  1  0  0  0  0  0  0  0  0  0
   27.6782  -20.9457  -16.8761 C   0  0  0  0  0  0  0  0  0  0  0  0
   27.1225  -22.0434  -17.0911 O   0  0  0  0  0  0  0  0  0  0  0  0
   28.7612  -18.7159  -20.2296 O   0  0  0  0  0  0  0  0  0  0  0  0
   27.6489  -19.5293  -20.3083 C   0  0  0  0  0  0  0  0  0  0  0  0
   27.8055  -20.7500  -19.3985 C   0  0  2  0  0  0  0  0  0  0  0  0
   28.0834  -20.2543  -18.0839 N   0  0  0  0  0  0  0  0  0  0  0  0
   28.7992  -21.6864  -19.9058 C   0  0  0  0  0  0  0  0  0  0  0  0
   29.9091  -21.7956  -19.3448 O   0  0  0  0  0  0  0  0  0  0  0  0
   28.5290  -22.4654  -21.0119 O   0  0  0  0  0  0  0  0  0  0  0  0
  1  2  1  0
  2  3  2  0
  3  4  1  0
  5  4  2  0
  5  6  1  0
  7  6  1  0
  7  8  1  6
  9  7  1  0
  9 13  1  0
 10  9  2  0
 11  5  1  0
 12  2  1  0
 12 11  2  0
 13 14  1  0
 14 15  1  0
 16 15  1  0
 17 13  1  0
 17 16  1  0
 17 18  1  6
 19 18  2  0
 20 21  1  0
 22 21  1  6
 22 24  1  0
 22 23  1  0
 23 18  1  0
 24 26  1  0
 25 24  2  0
M  END
$$$$
