YPS.pdb
     RDKit          3D

 26 27  0  0  1  0  0  0  0  0999 V2000
   21.5872  -21.4116   -7.9678 O   0  0  0  0  0  0  0  0  0  0  0  0
   22.1826  -21.3039   -9.2089 C   0  0  0  0  0  0  0  0  0  0  0  0
   23.5475  -21.0438   -9.2951 C   0  0  0  0  0  0  0  0  0  0  0  0
   24.0906  -20.9462  -10.5561 C   0  0  0  0  0  0  0  0  0  0  0  0
   23.3619  -21.0908  -11.7304 C   0  0  0  0  0  0  0  0  0  0  0  0
   23.9820  -20.9925  -13.0628 C   0  0  0  0  0  0  0  0  0  0  0  0
   24.3818  -19.5652  -13.3972 C   0  0  2  0  0  0  0  0  0  0  0  0
   23.2009  -18.7693  -13.4965 N   0  0  0  0  0  0  0  0  0  0  0  0
   25.3133  -19.5106  -14.5261 C   0  0  0  0  0  0  0  0  0  0  0  0
   24.7060  -19.3519  -15.6599 O   0  0  0  0  0  0  0  0  0  0  0  0
   21.9962  -21.3509  -11.5612 C   0  0  0  0  0  0  0  0  0  0  0  0
   21.4183  -21.4553  -10.3380 C   0  0  0  0  0  0  0  0  0  0  0  0
   26.7021  -19.6009  -14.5543 N   0  0  0  0  0  0  0  0  0  0  0  0
   27.6164  -19.1243  -13.4736 C   0  0  0  0  0  0  0  0  0  0  0  0
   28.3444  -20.4418  -13.2121 C   0  0  0  0  0  0  0  0  0  0  0  0
   28.3305  -21.1770  -14.5634 C   0  0  0  0  0  0  0  0  0  0  0  0
   27.6873  -20.1222  -15.4599 C   0  0  1  0  0  0  0  0  0  0  0  0
   27.3369  -20.5934  -16.7627 C   0  0  0  0  0  0  0  0  0  0  0  0
   26.6835  -21.6257  -17.0217 O   0  0  0  0  0  0  0  0  0  0  0  0
   26.6170  -18.0900  -19.7592 O   0  0  0  0  0  0  0  0  0  0  0  0
   27.5270  -19.0441  -20.1677 C   0  0  0  0  0  0  0  0  0  0  0  0
   27.4486  -20.2844  -19.2745 C   0  0  2  0  0  0  0  0  0  0  0  0
   27.7451  -19.8545  -17.9410 N   0  0  0  0  0  0  0  0  0  0  0  0
   28.3016  -21.3615  -19.7582 C   0  0  0  0  0  0  0  0  0  0  0  0
   29.5241  -21.3617  -19.5049 O   0  0  0  0  0  0  0  0  0  0  0  0
   27.7722  -22.3958  -20.5020 O   0  0  0  0  0  0  0  0  0  0  0  0
  1  2  1  0
  2  3  2  0
  3  4  1  0
  5  4  2  0
  5  6  1  0
  7  6  1  0
  7  8  1  6
  9  7  1  0
  9 13  1  0
 10  9  2  0
 11  5  1  0
 12  2  1  0
 12 11  2  0
 13 14  1  0
 14 15  1  0
 16 15  1  0
 17 13  1  0
 17 16  1  0
 17 18  1  6
 19 18  2  0
 20 21  1  0
 22 21  1  6
 22 24  1  0
 22 23  1  0
 23 18  1  0
 24 26  1  0
 25 24  2  0
M  END
$$$$
