YPS.pdb
     RDKit          3D

 26 27  0  0  1  0  0  0  0  0999 V2000
   25.6050  -19.9561   -6.6582 O   0  0  0  0  0  0  0  0  0  0  0  0
   25.5993  -20.3392   -7.9847 C   0  0  0  0  0  0  0  0  0  0  0  0
   24.4119  -20.7704   -8.5695 C   0  0  0  0  0  0  0  0  0  0  0  0
   24.4616  -21.1408   -9.8942 C   0  0  0  0  0  0  0  0  0  0  0  0
   25.6151  -21.1083  -10.6684 C   0  0  0  0  0  0  0  0  0  0  0  0
   25.6256  -21.5005  -12.0882 C   0  0  0  0  0  0  0  0  0  0  0  0
   24.9892  -20.4416  -12.9727 C   0  0  2  0  0  0  0  0  0  0  0  0
   23.5839  -20.4190  -12.7226 N   0  0  0  0  0  0  0  0  0  0  0  0
   25.4106  -20.5730  -14.3692 C   0  0  0  0  0  0  0  0  0  0  0  0
   24.7945  -21.5343  -14.9823 O   0  0  0  0  0  0  0  0  0  0  0  0
   26.7680  -20.6633  -10.0094 C   0  0  0  0  0  0  0  0  0  0  0  0
   26.7655  -20.2885   -8.7053 C   0  0  0  0  0  0  0  0  0  0  0  0
   26.3409  -19.8423  -15.1028 N   0  0  0  0  0  0  0  0  0  0  0  0
   26.4762  -18.3549  -15.0803 C   0  0  0  0  0  0  0  0  0  0  0  0
   27.9463  -18.2795  -14.6714 C   0  0  0  0  0  0  0  0  0  0  0  0
   28.5841  -19.5548  -15.2491 C   0  0  0  0  0  0  0  0  0  0  0  0
   27.4051  -20.1447  -16.0185 C   0  0  1  0  0  0  0  0  0  0  0  0
   27.6253  -21.4703  -16.5046 C   0  0  0  0  0  0  0  0  0  0  0  0
   28.0534  -22.4371  -15.8398 O   0  0  0  0  0  0  0  0  0  0  0  0
   25.4237  -23.1203  -19.3610 O   0  0  0  0  0  0  0  0  0  0  0  0
   26.7571  -23.2178  -19.7039 C   0  0  0  0  0  0  0  0  0  0  0  0
   27.6462  -23.0724  -18.4666 C   0  0  2  0  0  0  0  0  0  0  0  0
   27.3479  -21.7962  -17.8894 N   0  0  0  0  0  0  0  0  0  0  0  0
   29.0549  -23.2719  -18.7789 C   0  0  0  0  0  0  0  0  0  0  0  0
   29.7168  -22.3629  -19.3212 O   0  0  0  0  0  0  0  0  0  0  0  0
   29.6775  -24.4663  -18.4804 O   0  0  0  0  0  0  0  0  0  0  0  0
  1  2  1  0
  2  3  2  0
  3  4  1  0
  5  4  2  0
  5  6  1  0
  7  6  1  0
  7  8  1  6
  9  7  1  0
  9 13  1  0
 10  9  2  0
 11  5  1  0
 12  2  1  0
 12 11  2  0
 13 14  1  0
 14 15  1  0
 16 15  1  0
 17 13  1  0
 17 16  1  0
 17 18  1  1
 19 18  2  0
 20 21  1  0
 22 21  1  6
 22 24  1  0
 22 23  1  0
 23 18  1  0
 24 26  1  0
 25 24  2  0
M  END
$$$$
