YPS.pdb
     RDKit          3D

 26 27  0  0  1  0  0  0  0  0999 V2000
   21.9880  -18.2573  -16.0498 O   0  0  0  0  0  0  0  0  0  0  0  0
   22.6622  -18.6705  -14.9179 C   0  0  0  0  0  0  0  0  0  0  0  0
   23.8963  -18.1049  -14.6094 C   0  0  0  0  0  0  0  0  0  0  0  0
   24.5259  -18.5525  -13.4702 C   0  0  0  0  0  0  0  0  0  0  0  0
   24.0048  -19.5236  -12.6237 C   0  0  0  0  0  0  0  0  0  0  0  0
   24.7032  -19.9675  -11.4052 C   0  0  0  0  0  0  0  0  0  0  0  0
   25.8043  -20.9674  -11.7161 C   0  0  2  0  0  0  0  0  0  0  0  0
   25.2568  -22.0208  -12.5087 N   0  0  0  0  0  0  0  0  0  0  0  0
   26.5402  -21.3593  -10.5120 C   0  0  0  0  0  0  0  0  0  0  0  0
   25.7621  -21.8327   -9.5901 O   0  0  0  0  0  0  0  0  0  0  0  0
   22.7605  -20.0439  -13.0011 C   0  0  0  0  0  0  0  0  0  0  0  0
   22.1040  -19.6327  -14.1152 C   0  0  0  0  0  0  0  0  0  0  0  0
   27.9015  -21.2986  -10.2276 N   0  0  0  0  0  0  0  0  0  0  0  0
   28.9854  -21.8572  -11.0902 C   0  0  0  0  0  0  0  0  0  0  0  0
   29.7923  -20.5736  -11.2787 C   0  0  0  0  0  0  0  0  0  0  0  0
   29.5505  -19.7616   -9.9946 C   0  0  0  0  0  0  0  0  0  0  0  0
   28.7168  -20.7482   -9.1812 C   0  0  1  0  0  0  0  0  0  0  0  0
   28.1449  -20.1950   -7.9942 C   0  0  0  0  0  0  0  0  0  0  0  0
   27.3257  -19.2538   -7.9406 O   0  0  0  0  0  0  0  0  0  0  0  0
   28.0127  -22.1708   -4.4578 O   0  0  0  0  0  0  0  0  0  0  0  0
   28.6670  -20.9620   -4.3320 C   0  0  0  0  0  0  0  0  0  0  0  0
   28.2800  -20.0158   -5.4710 C   0  0  2  0  0  0  0  0  0  0  0  0
   28.5039  -20.7262   -6.6942 N   0  0  0  0  0  0  0  0  0  0  0  0
   28.9790  -18.7409   -5.3844 C   0  0  0  0  0  0  0  0  0  0  0  0
   29.8914  -18.4644   -6.1904 O   0  0  0  0  0  0  0  0  0  0  0  0
   28.6438  -17.8214   -4.4121 O   0  0  0  0  0  0  0  0  0  0  0  0
  1  2  1  0
  2  3  2  0
  3  4  1  0
  5  4  2  0
  5  6  1  0
  7  6  1  0
  7  8  1  1
  9  7  1  0
  9 13  1  0
 10  9  2  0
 11  5  1  0
 12  2  1  0
 12 11  2  0
 13 14  1  0
 14 15  1  0
 16 15  1  0
 17 13  1  0
 17 16  1  0
 17 18  1  1
 19 18  2  0
 20 21  1  0
 22 21  1  1
 22 24  1  0
 22 23  1  0
 23 18  1  0
 24 26  1  0
 25 24  2  0
M  END
$$$$
