YPS.pdb
     RDKit          3D

 26 27  0  0  1  0  0  0  0  0999 V2000
   18.0453  -23.6184   -8.6688 O   0  0  0  0  0  0  0  0  0  0  0  0
   19.0263  -23.2532   -9.5693 C   0  0  0  0  0  0  0  0  0  0  0  0
   18.8099  -23.4377  -10.9320 C   0  0  0  0  0  0  0  0  0  0  0  0
   19.8199  -23.0569  -11.7862 C   0  0  0  0  0  0  0  0  0  0  0  0
   21.0257  -22.5067  -11.3689 C   0  0  0  0  0  0  0  0  0  0  0  0
   22.0783  -22.0991  -12.3153 C   0  0  0  0  0  0  0  0  0  0  0  0
   22.3117  -20.5978  -12.2901 C   0  0  2  0  0  0  0  0  0  0  0  0
   21.1058  -19.9395  -12.6778 N   0  0  0  0  0  0  0  0  0  0  0  0
   23.5308  -20.2239  -13.0106 C   0  0  0  0  0  0  0  0  0  0  0  0
   23.2808  -19.7475  -14.1896 O   0  0  0  0  0  0  0  0  0  0  0  0
   21.1680  -22.3527   -9.9842 C   0  0  0  0  0  0  0  0  0  0  0  0
   20.1993  -22.7140   -9.1054 C   0  0  0  0  0  0  0  0  0  0  0  0
   24.8660  -20.3035  -12.6255 N   0  0  0  0  0  0  0  0  0  0  0  0
   25.3778  -20.0601  -11.2435 C   0  0  0  0  0  0  0  0  0  0  0  0
   26.0784  -21.4017  -11.0350 C   0  0  0  0  0  0  0  0  0  0  0  0
   26.5218  -21.8399  -12.4414 C   0  0  0  0  0  0  0  0  0  0  0  0
   26.1109  -20.6231  -13.2664 C   0  0  1  0  0  0  0  0  0  0  0  0
   26.2021  -20.8137  -14.6797 C   0  0  0  0  0  0  0  0  0  0  0  0
   25.6216  -21.6988  -15.3427 O   0  0  0  0  0  0  0  0  0  0  0  0
   28.8664  -18.3842  -16.7823 O   0  0  0  0  0  0  0  0  0  0  0  0
   27.7080  -18.7549  -17.4350 C   0  0  0  0  0  0  0  0  0  0  0  0
   27.1879  -20.0905  -16.8982 C   0  0  2  0  0  0  0  0  0  0  0  0
   27.0281  -19.9348  -15.4836 N   0  0  0  0  0  0  0  0  0  0  0  0
   28.0430  -21.2050  -17.2834 C   0  0  0  0  0  0  0  0  0  0  0  0
   28.7828  -21.7544  -16.4412 O   0  0  0  0  0  0  0  0  0  0  0  0
   28.0480  -21.6693  -18.5825 O   0  0  0  0  0  0  0  0  0  0  0  0
  1  2  1  0
  2  3  2  0
  3  4  1  0
  5  4  2  0
  5  6  1  0
  7  6  1  0
  7  8  1  6
  9  7  1  0
  9 13  1  0
 10  9  2  0
 11  5  1  0
 12  2  1  0
 12 11  2  0
 13 14  1  0
 14 15  1  0
 16 15  1  0
 17 13  1  0
 17 16  1  0
 17 18  1  6
 19 18  2  0
 20 21  1  0
 22 21  1  1
 22 24  1  0
 22 23  1  0
 23 18  1  0
 24 26  1  0
 25 24  2  0
M  END
$$$$
