YPS.pdb
     RDKit          3D

 26 27  0  0  1  0  0  0  0  0999 V2000
   16.3064  -23.3581  -12.4678 O   0  0  0  0  0  0  0  0  0  0  0  0
   17.5788  -23.0505  -12.9068 C   0  0  0  0  0  0  0  0  0  0  0  0
   17.7560  -22.5260  -14.1841 C   0  0  0  0  0  0  0  0  0  0  0  0
   19.0447  -22.2370  -14.5719 C   0  0  0  0  0  0  0  0  0  0  0  0
   20.1619  -22.4372  -13.7702 C   0  0  0  0  0  0  0  0  0  0  0  0
   21.5253  -22.1028  -14.2163 C   0  0  0  0  0  0  0  0  0  0  0  0
   22.1166  -20.9538  -13.4169 C   0  0  2  0  0  0  0  0  0  0  0  0
   21.1974  -19.8617  -13.4346 N   0  0  0  0  0  0  0  0  0  0  0  0
   23.4955  -20.6646  -13.8170 C   0  0  0  0  0  0  0  0  0  0  0  0
   23.5862  -20.3223  -15.0637 O   0  0  0  0  0  0  0  0  0  0  0  0
   19.9021  -22.9673  -12.5002 C   0  0  0  0  0  0  0  0  0  0  0  0
   18.6486  -23.2671  -12.0759 C   0  0  0  0  0  0  0  0  0  0  0  0
   24.6753  -20.7030  -13.0794 N   0  0  0  0  0  0  0  0  0  0  0  0
   24.8458  -20.1519  -11.7016 C   0  0  0  0  0  0  0  0  0  0  0  0
   25.3280  -21.4301  -11.0176 C   0  0  0  0  0  0  0  0  0  0  0  0
   26.0626  -22.2153  -12.1178 C   0  0  0  0  0  0  0  0  0  0  0  0
   26.0011  -21.2200  -13.2735 C   0  0  1  0  0  0  0  0  0  0  0  0
   26.4243  -21.7524  -14.5303 C   0  0  0  0  0  0  0  0  0  0  0  0
   26.1188  -22.8696  -14.9975 O   0  0  0  0  0  0  0  0  0  0  0  0
   27.6485  -19.1526  -17.4375 O   0  0  0  0  0  0  0  0  0  0  0  0
   27.1661  -20.4177  -17.7059 C   0  0  0  0  0  0  0  0  0  0  0  0
   27.7052  -21.4291  -16.6917 C   0  0  2  0  0  0  0  0  0  0  0  0
   27.2912  -20.9787  -15.3968 N   0  0  0  0  0  0  0  0  0  0  0  0
   29.1426  -21.6240  -16.8247 C   0  0  0  0  0  0  0  0  0  0  0  0
   29.9181  -21.2425  -15.9237 O   0  0  0  0  0  0  0  0  0  0  0  0
   29.6675  -22.2321  -17.9462 O   0  0  0  0  0  0  0  0  0  0  0  0
  1  2  1  0
  2  3  2  0
  3  4  1  0
  5  4  2  0
  5  6  1  0
  7  6  1  0
  7  8  1  6
  9  7  1  0
  9 13  1  0
 10  9  2  0
 11  5  1  0
 12  2  1  0
 12 11  2  0
 13 14  1  0
 14 15  1  0
 16 15  1  0
 17 13  1  0
 17 16  1  0
 17 18  1  6
 19 18  2  0
 20 21  1  0
 22 21  1  6
 22 24  1  0
 22 23  1  0
 23 18  1  0
 24 26  1  0
 25 24  2  0
M  END
$$$$
