YPS.pdb
     RDKit          3D

 26 27  0  0  1  0  0  0  0  0999 V2000
   25.2462  -14.0974  -20.7730 O   0  0  0  0  0  0  0  0  0  0  0  0
   25.0043  -15.0415  -19.7949 C   0  0  0  0  0  0  0  0  0  0  0  0
   23.8963  -15.8767  -19.9064 C   0  0  0  0  0  0  0  0  0  0  0  0
   23.7014  -16.8000  -18.9042 C   0  0  0  0  0  0  0  0  0  0  0  0
   24.5379  -16.9417  -17.8037 C   0  0  0  0  0  0  0  0  0  0  0  0
   24.3034  -17.9516  -16.7573 C   0  0  0  0  0  0  0  0  0  0  0  0
   25.1757  -19.1806  -16.9511 C   0  0  2  0  0  0  0  0  0  0  0  0
   24.7243  -19.8859  -18.1072 N   0  0  0  0  0  0  0  0  0  0  0  0
   25.3096  -19.9541  -15.7146 C   0  0  0  0  0  0  0  0  0  0  0  0
   24.1760  -20.4301  -15.3049 O   0  0  0  0  0  0  0  0  0  0  0  0
   25.6302  -16.0661  -17.7631 C   0  0  0  0  0  0  0  0  0  0  0  0
   25.8611  -15.1408  -18.7283 C   0  0  0  0  0  0  0  0  0  0  0  0
   26.4353  -20.2398  -14.9473 N   0  0  0  0  0  0  0  0  0  0  0  0
   27.7126  -20.8077  -15.4737 C   0  0  0  0  0  0  0  0  0  0  0  0
   28.6541  -19.7092  -14.9827 C   0  0  0  0  0  0  0  0  0  0  0  0
   27.9955  -19.1657  -13.7030 C   0  0  0  0  0  0  0  0  0  0  0  0
   26.8059  -20.1122  -13.5656 C   0  0  1  0  0  0  0  0  0  0  0  0
   25.8606  -19.7261  -12.5659 C   0  0  0  0  0  0  0  0  0  0  0  0
   25.1899  -18.6726  -12.5539 O   0  0  0  0  0  0  0  0  0  0  0  0
   22.2167  -20.2976  -10.2316 O   0  0  0  0  0  0  0  0  0  0  0  0
   23.2467  -20.5038  -11.1269 C   0  0  0  0  0  0  0  0  0  0  0  0
   24.6033  -20.3093  -10.4455 C   0  0  2  0  0  0  0  0  0  0  0  0
   25.6054  -20.5892  -11.4296 N   0  0  0  0  0  0  0  0  0  0  0  0
   24.7231  -21.1019   -9.2293 C   0  0  0  0  0  0  0  0  0  0  0  0
   24.1291  -20.7545   -8.1876 O   0  0  0  0  0  0  0  0  0  0  0  0
   25.4933  -22.2463   -9.2105 O   0  0  0  0  0  0  0  0  0  0  0  0
  1  2  1  0
  2  3  2  0
  3  4  1  0
  5  4  2  0
  5  6  1  0
  7  6  1  0
  7  8  1  6
  9  7  1  0
  9 13  1  0
 10  9  2  0
 11  5  1  0
 12  2  1  0
 12 11  2  0
 13 14  1  0
 14 15  1  0
 16 15  1  0
 17 13  1  0
 17 16  1  0
 17 18  1  1
 19 18  2  0
 20 21  1  0
 22 21  1  6
 22 24  1  0
 22 23  1  0
 23 18  1  0
 24 26  1  0
 25 24  2  0
M  END
$$$$
