YPS.pdb
     RDKit          3D

 26 27  0  0  1  0  0  0  0  0999 V2000
   19.2402  -15.7889  -17.0359 O   0  0  0  0  0  0  0  0  0  0  0  0
   20.1111  -16.7390  -16.5405 C   0  0  0  0  0  0  0  0  0  0  0  0
   21.2139  -16.3356  -15.7929 C   0  0  0  0  0  0  0  0  0  0  0  0
   22.0501  -17.3228  -15.3230 C   0  0  0  0  0  0  0  0  0  0  0  0
   21.8566  -18.6799  -15.5507 C   0  0  0  0  0  0  0  0  0  0  0  0
   22.7673  -19.7084  -15.0193 C   0  0  0  0  0  0  0  0  0  0  0  0
   23.9154  -19.9950  -15.9726 C   0  0  2  0  0  0  0  0  0  0  0  0
   23.3887  -20.5865  -17.1603 N   0  0  0  0  0  0  0  0  0  0  0  0
   25.0102  -20.7062  -15.3086 C   0  0  0  0  0  0  0  0  0  0  0  0
   24.8184  -21.9874  -15.2759 O   0  0  0  0  0  0  0  0  0  0  0  0
   20.7260  -19.0059  -16.3103 C   0  0  0  0  0  0  0  0  0  0  0  0
   19.8748  -18.0663  -16.7937 C   0  0  0  0  0  0  0  0  0  0  0  0
   26.1805  -20.2221  -14.7311 N   0  0  0  0  0  0  0  0  0  0  0  0
   27.3516  -19.6826  -15.4852 C   0  0  0  0  0  0  0  0  0  0  0  0
   27.4159  -18.3062  -14.8253 C   0  0  0  0  0  0  0  0  0  0  0  0
   26.8761  -18.5240  -13.4012 C   0  0  0  0  0  0  0  0  0  0  0  0
   26.6764  -20.0373  -13.3960 C   0  0  1  0  0  0  0  0  0  0  0  0
   25.9708  -20.5326  -12.2563 C   0  0  0  0  0  0  0  0  0  0  0  0
   24.7623  -20.3482  -12.0006 O   0  0  0  0  0  0  0  0  0  0  0  0
   26.9833  -20.0130   -7.9206 O   0  0  0  0  0  0  0  0  0  0  0  0
   27.2341  -20.1638   -9.2695 C   0  0  0  0  0  0  0  0  0  0  0  0
   26.3564  -21.2681   -9.8631 C   0  0  2  0  0  0  0  0  0  0  0  0
   26.6589  -21.3314  -11.2615 N   0  0  0  0  0  0  0  0  0  0  0  0
   24.9450  -21.0641   -9.5662 C   0  0  0  0  0  0  0  0  0  0  0  0
   24.3290  -20.0967  -10.0594 O   0  0  0  0  0  0  0  0  0  0  0  0
   24.2693  -21.9353   -8.7370 O   0  0  0  0  0  0  0  0  0  0  0  0
  1  2  1  0
  2  3  2  0
  3  4  1  0
  5  4  2  0
  5  6  1  0
  7  6  1  0
  7  8  1  6
  9  7  1  0
  9 13  1  0
 10  9  2  0
 11  5  1  0
 12  2  1  0
 12 11  2  0
 13 14  1  0
 14 15  1  0
 16 15  1  0
 17 13  1  0
 17 16  1  0
 17 18  1  1
 19 18  2  0
 20 21  1  0
 22 21  1  6
 22 24  1  0
 22 23  1  0
 23 18  1  0
 24 26  1  0
 25 24  2  0
M  END
$$$$
