YPS.pdb
     RDKit          3D

 26 27  0  0  1  0  0  0  0  0999 V2000
   27.1644  -20.8327  -20.4595 O   0  0  0  0  0  0  0  0  0  0  0  0
   26.4225  -19.7842  -19.9528 C   0  0  0  0  0  0  0  0  0  0  0  0
   27.0643  -18.7602  -19.2619 C   0  0  0  0  0  0  0  0  0  0  0  0
   26.2781  -17.7394  -18.7778 C   0  0  0  0  0  0  0  0  0  0  0  0
   24.8993  -17.6760  -18.9385 C   0  0  0  0  0  0  0  0  0  0  0  0
   24.0931  -16.5592  -18.4167 C   0  0  0  0  0  0  0  0  0  0  0  0
   23.6322  -16.8114  -16.9909 C   0  0  2  0  0  0  0  0  0  0  0  0
   22.8906  -18.0307  -16.9575 N   0  0  0  0  0  0  0  0  0  0  0  0
   22.9905  -15.6305  -16.4088 C   0  0  0  0  0  0  0  0  0  0  0  0
   21.7521  -15.5122  -16.7722 O   0  0  0  0  0  0  0  0  0  0  0  0
   24.3276  -18.7421  -19.6442 C   0  0  0  0  0  0  0  0  0  0  0  0
   25.0635  -19.7691  -20.1391 C   0  0  0  0  0  0  0  0  0  0  0  0
   23.5000  -14.6562  -15.5552 N   0  0  0  0  0  0  0  0  0  0  0  0
   24.3997  -14.9180  -14.3921 C   0  0  0  0  0  0  0  0  0  0  0  0
   25.5549  -14.0076  -14.8054 C   0  0  0  0  0  0  0  0  0  0  0  0
   24.8968  -12.8724  -15.6085 C   0  0  0  0  0  0  0  0  0  0  0  0
   23.4201  -13.2259  -15.4522 C   0  0  1  0  0  0  0  0  0  0  0  0
   22.5421  -12.4600  -16.2795 C   0  0  0  0  0  0  0  0  0  0  0  0
   22.5172  -12.4629  -17.5282 O   0  0  0  0  0  0  0  0  0  0  0  0
   18.8293  -11.3458  -15.1634 O   0  0  0  0  0  0  0  0  0  0  0  0
   19.5869  -10.2555  -15.5409 C   0  0  0  0  0  0  0  0  0  0  0  0
   20.7412  -10.6866  -16.4488 C   0  0  2  0  0  0  0  0  0  0  0  0
   21.5626  -11.5743  -15.6818 N   0  0  0  0  0  0  0  0  0  0  0  0
   21.4541   -9.5454  -17.0063 C   0  0  0  0  0  0  0  0  0  0  0  0
   22.4985   -9.1269  -16.4652 O   0  0  0  0  0  0  0  0  0  0  0  0
   20.9868   -8.9110  -18.1388 O   0  0  0  0  0  0  0  0  0  0  0  0
  1  2  1  0
  2  3  2  0
  3  4  1  0
  5  4  2  0
  5  6  1  0
  7  6  1  0
  7  8  1  6
  9  7  1  0
  9 13  1  0
 10  9  2  0
 11  5  1  0
 12  2  1  0
 12 11  2  0
 13 14  1  0
 14 15  1  0
 16 15  1  0
 17 13  1  0
 17 16  1  0
 17 18  1  6
 19 18  2  0
 20 21  1  0
 22 21  1  1
 22 24  1  0
 22 23  1  0
 23 18  1  0
 24 26  1  0
 25 24  2  0
M  END
$$$$
