YPS.pdb
     RDKit          3D

 26 27  0  0  1  0  0  0  0  0999 V2000
   23.0535  -21.6008   -7.9732 O   0  0  0  0  0  0  0  0  0  0  0  0
   23.3770  -21.4516   -9.3072 C   0  0  0  0  0  0  0  0  0  0  0  0
   22.3615  -21.3999  -10.2580 C   0  0  0  0  0  0  0  0  0  0  0  0
   22.7386  -21.2503  -11.5733 C   0  0  0  0  0  0  0  0  0  0  0  0
   24.0580  -21.1496  -11.9977 C   0  0  0  0  0  0  0  0  0  0  0  0
   24.4217  -20.9768  -13.4146 C   0  0  0  0  0  0  0  0  0  0  0  0
   24.2232  -19.5438  -13.8793 C   0  0  2  0  0  0  0  0  0  0  0  0
   22.8278  -19.3137  -14.0736 N   0  0  0  0  0  0  0  0  0  0  0  0
   25.1112  -19.2046  -14.9936 C   0  0  0  0  0  0  0  0  0  0  0  0
   24.4883  -19.1746  -16.1296 O   0  0  0  0  0  0  0  0  0  0  0  0
   25.0213  -21.2099  -10.9829 C   0  0  0  0  0  0  0  0  0  0  0  0
   24.6955  -21.3567   -9.6739 C   0  0  0  0  0  0  0  0  0  0  0  0
   26.4739  -18.9209  -15.0063 N   0  0  0  0  0  0  0  0  0  0  0  0
   27.2056  -18.1710  -13.9417 C   0  0  0  0  0  0  0  0  0  0  0  0
   28.2536  -19.2330  -13.6132 C   0  0  0  0  0  0  0  0  0  0  0  0
   28.4640  -20.0022  -14.9288 C   0  0  0  0  0  0  0  0  0  0  0  0
   27.5807  -19.1976  -15.8787 C   0  0  1  0  0  0  0  0  0  0  0  0
   27.3953  -19.8006  -17.1609 C   0  0  0  0  0  0  0  0  0  0  0  0
   27.1103  -20.9971  -17.3780 O   0  0  0  0  0  0  0  0  0  0  0  0
   27.0701  -18.8275  -21.9356 O   0  0  0  0  0  0  0  0  0  0  0  0
   27.3321  -18.3854  -20.6545 C   0  0  0  0  0  0  0  0  0  0  0  0
   27.4225  -19.5644  -19.6829 C   0  0  2  0  0  0  0  0  0  0  0  0
   27.5362  -19.0098  -18.3674 N   0  0  0  0  0  0  0  0  0  0  0  0
   28.4944  -20.4847  -20.0376 C   0  0  0  0  0  0  0  0  0  0  0  0
   29.6632  -20.2712  -19.6543 O   0  0  0  0  0  0  0  0  0  0  0  0
   28.2344  -21.6040  -20.8010 O   0  0  0  0  0  0  0  0  0  0  0  0
  1  2  1  0
  2  3  2  0
  3  4  1  0
  5  4  2  0
  5  6  1  0
  7  6  1  0
  7  8  1  6
  9  7  1  0
  9 13  1  0
 10  9  2  0
 11  5  1  0
 12  2  1  0
 12 11  2  0
 13 14  1  0
 14 15  1  0
 16 15  1  0
 17 13  1  0
 17 16  1  0
 17 18  1  6
 19 18  2  0
 20 21  1  0
 22 21  1  6
 22 24  1  0
 22 23  1  0
 23 18  1  0
 24 26  1  0
 25 24  2  0
M  END
$$$$
