VVI.pdb
     RDKit          3D

 23 22  0  0  1  0  0  0  0  0999 V2000
   15.8704  -14.5394  -18.1528 C   0  0  0  0  0  0  0  0  0  0  0  0
   17.3220  -15.0507  -18.1994 C   0  0  2  0  0  0  0  0  0  0  0  0
   17.2125  -16.5239  -17.7948 C   0  0  0  0  0  0  0  0  0  0  0  0
   18.0697  -14.3098  -17.1568 C   0  0  2  0  0  0  0  0  0  0  0  0
   17.6655  -14.6356  -15.8049 N   0  0  0  0  0  0  0  0  0  0  0  0
   18.1455  -12.8430  -17.3522 C   0  0  0  0  0  0  0  0  0  0  0  0
   18.6162  -12.3092  -18.3779 O   0  0  0  0  0  0  0  0  0  0  0  0
   15.7504   -9.9344  -17.7272 C   0  0  0  0  0  0  0  0  0  0  0  0
   16.5376   -9.7581  -16.4698 C   0  0  2  0  0  0  0  0  0  0  0  0
   16.8141   -8.2504  -16.3547 C   0  0  0  0  0  0  0  0  0  0  0  0
   17.8015  -10.5290  -16.3846 C   0  0  2  0  0  0  0  0  0  0  0  0
   17.6682  -11.9660  -16.3440 N   0  0  0  0  0  0  0  0  0  0  0  0
   18.7578  -10.0117  -15.3812 C   0  0  0  0  0  0  0  0  0  0  0  0
   18.5895  -10.0860  -14.1343 O   0  0  0  0  0  0  0  0  0  0  0  0
   24.4941  -10.6603  -14.4587 C   0  0  0  0  0  0  0  0  0  0  0  0
   23.3191   -9.7810  -14.1095 C   0  0  0  0  0  0  0  0  0  0  0  0
   22.1990   -9.9258  -15.0750 C   0  0  2  0  0  0  0  0  0  0  0  0
   22.7777   -9.7009  -16.4639 C   0  0  0  0  0  0  0  0  0  0  0  0
   21.0201   -9.0676  -14.7962 C   0  0  2  0  0  0  0  0  0  0  0  0
   19.9622   -9.3823  -15.7815 N   0  0  0  0  0  0  0  0  0  0  0  0
   21.3066   -7.6133  -14.8109 C   0  0  0  0  0  0  0  0  0  0  0  0
   21.1755   -6.9550  -15.8882 O   0  0  0  0  0  0  0  0  0  0  0  0
   21.7158   -6.9246  -13.6907 O   0  0  0  0  0  0  0  0  0  0  0  0
  2  3  1  1
  2  1  1  0
  4  5  1  1
  4  2  1  0
  6  4  1  0
  7  6  2  0
  9  8  1  6
  9 11  1  0
 10  9  1  0
 11 12  1  1
 12  6  1  0
 13 11  1  0
 13 20  1  0
 14 13  2  0
 15 16  1  0
 16 17  1  0
 17 19  1  0
 17 18  1  6
 19 20  1  6
 19 21  1  0
 21 23  1  0
 22 21  2  0
M  END
$$$$
