VVI.pdb
     RDKit          3D

 23 22  0  0  1  0  0  0  0  0999 V2000
   12.4313   -9.5960  -13.8968 C   0  0  0  0  0  0  0  0  0  0  0  0
   13.3342   -9.5585  -15.1434 C   0  0  2  0  0  0  0  0  0  0  0  0
   12.4683  -10.1671  -16.2505 C   0  0  0  0  0  0  0  0  0  0  0  0
   14.4805  -10.4557  -14.8680 C   0  0  2  0  0  0  0  0  0  0  0  0
   14.1209  -11.8563  -14.7898 N   0  0  0  0  0  0  0  0  0  0  0  0
   15.3354  -10.0597  -13.7243 C   0  0  0  0  0  0  0  0  0  0  0  0
   15.3618  -10.6767  -12.6393 O   0  0  0  0  0  0  0  0  0  0  0  0
   19.1724   -9.6092  -13.6076 C   0  0  0  0  0  0  0  0  0  0  0  0
   18.5037   -8.3512  -13.1582 C   0  0  2  0  0  0  0  0  0  0  0  0
   19.3300   -7.8376  -11.9682 C   0  0  0  0  0  0  0  0  0  0  0  0
   17.0737   -8.4762  -12.7861 C   0  0  2  0  0  0  0  0  0  0  0  0
   16.1823   -8.9261  -13.8289 N   0  0  0  0  0  0  0  0  0  0  0  0
   16.5417   -7.3179  -12.0349 C   0  0  0  0  0  0  0  0  0  0  0  0
   16.2983   -6.1912  -12.5447 O   0  0  0  0  0  0  0  0  0  0  0  0
   12.3582   -6.2072   -7.9649 C   0  0  0  0  0  0  0  0  0  0  0  0
   13.6928   -5.7194   -8.4717 C   0  0  0  0  0  0  0  0  0  0  0  0
   14.3968   -6.7446   -9.2847 C   0  0  2  0  0  0  0  0  0  0  0  0
   14.5910   -7.9621   -8.3934 C   0  0  0  0  0  0  0  0  0  0  0  0
   15.6603   -6.2831   -9.9128 C   0  0  2  0  0  0  0  0  0  0  0  0
   16.2639   -7.4155  -10.6493 N   0  0  0  0  0  0  0  0  0  0  0  0
   16.6454   -5.7191   -8.9594 C   0  0  0  0  0  0  0  0  0  0  0  0
   16.4367   -4.5821   -8.4349 O   0  0  0  0  0  0  0  0  0  0  0  0
   17.8002   -6.3804   -8.6048 O   0  0  0  0  0  0  0  0  0  0  0  0
  2  3  1  6
  2  1  1  0
  4  5  1  1
  4  2  1  0
  6  4  1  0
  7  6  2  0
  9  8  1  1
  9 11  1  0
 10  9  1  0
 11 12  1  6
 12  6  1  0
 13 11  1  0
 13 20  1  0
 14 13  2  0
 15 16  1  0
 16 17  1  0
 17 19  1  0
 17 18  1  1
 19 20  1  1
 19 21  1  0
 21 23  1  0
 22 21  2  0
M  END
$$$$
