VVI.pdb
     RDKit          3D

 23 22  0  0  1  0  0  0  0  0999 V2000
   27.0859  -15.8702  -15.3248 C   0  0  0  0  0  0  0  0  0  0  0  0
   27.9812  -17.1223  -15.3638 C   0  0  2  0  0  0  0  0  0  0  0  0
   28.8475  -16.9235  -16.6110 C   0  0  0  0  0  0  0  0  0  0  0  0
   27.0838  -18.2830  -15.5695 C   0  0  2  0  0  0  0  0  0  0  0  0
   26.3492  -18.2400  -16.8168 N   0  0  0  0  0  0  0  0  0  0  0  0
   26.1876  -18.6012  -14.4332 C   0  0  0  0  0  0  0  0  0  0  0  0
   25.3197  -17.8149  -14.0006 O   0  0  0  0  0  0  0  0  0  0  0  0
   23.3857  -20.6660  -14.2651 C   0  0  0  0  0  0  0  0  0  0  0  0
   24.2919  -21.2184  -13.2138 C   0  0  2  0  0  0  0  0  0  0  0  0
   23.3826  -21.6091  -12.0376 C   0  0  0  0  0  0  0  0  0  0  0  0
   25.3779  -20.3176  -12.7576 C   0  0  2  0  0  0  0  0  0  0  0  0
   26.2902  -19.8548  -13.7764 N   0  0  0  0  0  0  0  0  0  0  0  0
   26.0690  -20.7770  -11.5327 C   0  0  0  0  0  0  0  0  0  0  0  0
   26.9128  -21.7127  -11.5011 O   0  0  0  0  0  0  0  0  0  0  0  0
   28.3712  -19.1317   -6.2424 C   0  0  0  0  0  0  0  0  0  0  0  0
   27.6510  -20.2279   -6.9876 C   0  0  0  0  0  0  0  0  0  0  0  0
   27.0524  -19.7467   -8.2596 C   0  0  2  0  0  0  0  0  0  0  0  0
   26.2079  -18.5277   -7.9201 C   0  0  0  0  0  0  0  0  0  0  0  0
   26.3004  -20.7740   -9.0232 C   0  0  2  0  0  0  0  0  0  0  0  0
   25.8124  -20.1660  -10.2806 N   0  0  0  0  0  0  0  0  0  0  0  0
   25.1675  -21.3777   -8.2819 C   0  0  0  0  0  0  0  0  0  0  0  0
   25.3933  -22.2291   -7.3678 O   0  0  0  0  0  0  0  0  0  0  0  0
   23.8538  -21.0544   -8.5390 O   0  0  0  0  0  0  0  0  0  0  0  0
  2  3  1  6
  2  1  1  0
  4  5  1  6
  4  2  1  0
  6  4  1  0
  7  6  2  0
  9  8  1  6
  9 11  1  0
 10  9  1  0
 11 12  1  6
 12  6  1  0
 13 11  1  0
 13 20  1  0
 14 13  2  0
 15 16  1  0
 16 17  1  0
 17 19  1  0
 17 18  1  1
 19 20  1  6
 19 21  1  0
 21 23  1  0
 22 21  2  0
M  END
$$$$
