VVI.pdb
     RDKit          3D

 23 22  0  0  1  0  0  0  0  0999 V2000
   21.4008  -31.1397  -18.3668 C   0  0  0  0  0  0  0  0  0  0  0  0
   22.0491  -29.8068  -17.9499 C   0  0  2  0  0  0  0  0  0  0  0  0
   22.5196  -29.1908  -19.2708 C   0  0  0  0  0  0  0  0  0  0  0  0
   23.2281  -30.1464  -17.1194 C   0  0  2  0  0  0  0  0  0  0  0  0
   22.8964  -30.8211  -15.8817 N   0  0  0  0  0  0  0  0  0  0  0  0
   24.1787  -29.0347  -16.8828 C   0  0  0  0  0  0  0  0  0  0  0  0
   24.0084  -28.1579  -16.0106 O   0  0  0  0  0  0  0  0  0  0  0  0
   27.8152  -29.2675  -15.8616 C   0  0  0  0  0  0  0  0  0  0  0  0
   27.7313  -28.4578  -17.1143 C   0  0  2  0  0  0  0  0  0  0  0  0
   28.7296  -27.3026  -16.9360 C   0  0  0  0  0  0  0  0  0  0  0  0
   26.3862  -27.9373  -17.4590 C   0  0  2  0  0  0  0  0  0  0  0  0
   25.3558  -28.9268  -17.6678 N   0  0  0  0  0  0  0  0  0  0  0  0
   26.3941  -26.8867  -18.5008 C   0  0  0  0  0  0  0  0  0  0  0  0
   26.5962  -27.1022  -19.7260 O   0  0  0  0  0  0  0  0  0  0  0  0
   23.3866  -22.0198  -20.1395 C   0  0  0  0  0  0  0  0  0  0  0  0
   24.7611  -22.6414  -20.1461 C   0  0  0  0  0  0  0  0  0  0  0  0
   24.8756  -23.7683  -19.1844 C   0  0  2  0  0  0  0  0  0  0  0  0
   24.5253  -23.2173  -17.8104 C   0  0  0  0  0  0  0  0  0  0  0  0
   26.1801  -24.4766  -19.2056 C   0  0  2  0  0  0  0  0  0  0  0  0
   26.1639  -25.5295  -18.1663 N   0  0  0  0  0  0  0  0  0  0  0  0
   27.3563  -23.5953  -19.0125 C   0  0  0  0  0  0  0  0  0  0  0  0
   27.8876  -23.4942  -17.8641 O   0  0  0  0  0  0  0  0  0  0  0  0
   27.9150  -22.8653  -20.0380 O   0  0  0  0  0  0  0  0  0  0  0  0
  2  3  1  6
  2  1  1  0
  4  5  1  1
  4  2  1  0
  6  4  1  0
  7  6  2  0
  9  8  1  1
  9 11  1  0
 10  9  1  0
 11 12  1  6
 12  6  1  0
 13 11  1  0
 13 20  1  0
 14 13  2  0
 15 16  1  0
 16 17  1  0
 17 19  1  0
 17 18  1  1
 19 20  1  1
 19 21  1  0
 21 23  1  0
 22 21  2  0
M  END
$$$$
