VVI.pdb
     RDKit          3D

 23 22  0  0  1  0  0  0  0  0999 V2000
   22.5901  -14.2274  -19.2943 C   0  0  0  0  0  0  0  0  0  0  0  0
   22.3018  -13.2118  -20.4150 C   0  0  2  0  0  0  0  0  0  0  0  0
   23.0489  -13.7726  -21.6288 C   0  0  0  0  0  0  0  0  0  0  0  0
   22.9252  -11.9325  -20.0031 C   0  0  2  0  0  0  0  0  0  0  0  0
   24.3717  -11.9772  -19.9511 N   0  0  0  0  0  0  0  0  0  0  0  0
   22.3658  -11.3208  -18.7749 C   0  0  0  0  0  0  0  0  0  0  0  0
   21.1500  -11.0861  -18.6158 O   0  0  0  0  0  0  0  0  0  0  0  0
   23.2883  -12.3735  -14.9638 C   0  0  0  0  0  0  0  0  0  0  0  0
   23.4402  -10.9109  -15.2275 C   0  0  2  0  0  0  0  0  0  0  0  0
   22.8935  -10.1995  -13.9793 C   0  0  0  0  0  0  0  0  0  0  0  0
   22.7759  -10.4020  -16.4517 C   0  0  2  0  0  0  0  0  0  0  0  0
   23.2243  -10.9697  -17.7012 N   0  0  0  0  0  0  0  0  0  0  0  0
   22.6492   -8.9288  -16.5021 C   0  0  0  0  0  0  0  0  0  0  0  0
   23.6197   -8.1362  -16.6378 O   0  0  0  0  0  0  0  0  0  0  0  0
   19.5739   -4.6727  -19.1313 C   0  0  0  0  0  0  0  0  0  0  0  0
   20.2041   -5.0076  -17.8022 C   0  0  0  0  0  0  0  0  0  0  0  0
   20.4854   -6.4597  -17.6608 C   0  0  2  0  0  0  0  0  0  0  0  0
   19.1504   -7.1825  -17.7586 C   0  0  0  0  0  0  0  0  0  0  0  0
   21.2538   -6.8309  -16.4460 C   0  0  2  0  0  0  0  0  0  0  0  0
   21.3819   -8.3041  -16.3989 N   0  0  0  0  0  0  0  0  0  0  0  0
   20.6681   -6.3347  -15.1779 C   0  0  0  0  0  0  0  0  0  0  0  0
   20.7004   -5.0942  -14.9105 O   0  0  0  0  0  0  0  0  0  0  0  0
   20.0767   -7.1687  -14.2553 O   0  0  0  0  0  0  0  0  0  0  0  0
  2  3  1  6
  2  1  1  0
  4  5  1  1
  4  2  1  0
  6  4  1  0
  7  6  2  0
  9  8  1  1
  9 11  1  0
 10  9  1  0
 11 12  1  6
 12  6  1  0
 13 11  1  0
 13 20  1  0
 14 13  2  0
 15 16  1  0
 16 17  1  0
 17 19  1  0
 17 18  1  1
 19 20  1  1
 19 21  1  0
 21 23  1  0
 22 21  2  0
M  END
$$$$
