VVI.pdb
     RDKit          3D

 23 22  0  0  1  0  0  0  0  0999 V2000
   18.0148  -13.0775  -18.4165 C   0  0  0  0  0  0  0  0  0  0  0  0
   19.3051  -13.6484  -19.0327 C   0  0  2  0  0  0  0  0  0  0  0  0
   18.8120  -14.7368  -19.9908 C   0  0  0  0  0  0  0  0  0  0  0  0
   20.0656  -14.2759  -17.9269 C   0  0  2  0  0  0  0  0  0  0  0  0
   19.4314  -15.4561  -17.3775 N   0  0  0  0  0  0  0  0  0  0  0  0
   20.4986  -13.3532  -16.8514 C   0  0  0  0  0  0  0  0  0  0  0  0
   19.8818  -13.2139  -15.7749 O   0  0  0  0  0  0  0  0  0  0  0  0
   24.0074  -13.0277  -15.1144 C   0  0  0  0  0  0  0  0  0  0  0  0
   23.5774  -11.7116  -15.6754 C   0  0  2  0  0  0  0  0  0  0  0  0
   23.9353  -10.6631  -14.6100 C   0  0  0  0  0  0  0  0  0  0  0  0
   22.1472  -11.6056  -16.0529 C   0  0  2  0  0  0  0  0  0  0  0  0
   21.6705  -12.5703  -17.0155 N   0  0  0  0  0  0  0  0  0  0  0  0
   21.7022  -10.2267  -16.3519 C   0  0  0  0  0  0  0  0  0  0  0  0
   21.9959   -9.5974  -17.4037 O   0  0  0  0  0  0  0  0  0  0  0  0
   17.0146   -8.6370  -17.1041 C   0  0  0  0  0  0  0  0  0  0  0  0
   18.5219   -8.6723  -17.0546 C   0  0  0  0  0  0  0  0  0  0  0  0
   19.0630   -7.9954  -15.8476 C   0  0  2  0  0  0  0  0  0  0  0  0
   18.5698   -6.5568  -15.8861 C   0  0  0  0  0  0  0  0  0  0  0  0
   20.5351   -8.0955  -15.6833 C   0  0  2  0  0  0  0  0  0  0  0  0
   20.8889   -9.5112  -15.4390 N   0  0  0  0  0  0  0  0  0  0  0  0
   21.0880   -7.2438  -14.6033 C   0  0  0  0  0  0  0  0  0  0  0  0
   21.0303   -7.6366  -13.3976 O   0  0  0  0  0  0  0  0  0  0  0  0
   21.6748   -6.0219  -14.8465 O   0  0  0  0  0  0  0  0  0  0  0  0
  2  3  1  6
  2  1  1  0
  4  5  1  1
  4  2  1  0
  6  4  1  0
  7  6  2  0
  9  8  1  1
  9 11  1  0
 10  9  1  0
 11 12  1  6
 12  6  1  0
 13 11  1  0
 13 20  1  0
 14 13  2  0
 15 16  1  0
 16 17  1  0
 17 19  1  0
 17 18  1  6
 19 20  1  1
 19 21  1  0
 21 23  1  0
 22 21  2  0
M  END
$$$$
