VVI.pdb
     RDKit          3D

 23 22  0  0  1  0  0  0  0  0999 V2000
   18.9137  -20.7940  -16.5255 C   0  0  0  0  0  0  0  0  0  0  0  0
   18.5292  -20.1540  -15.1790 C   0  0  2  0  0  0  0  0  0  0  0  0
   17.4841  -19.0982  -15.5518 C   0  0  0  0  0  0  0  0  0  0  0  0
   19.7441  -19.4810  -14.6632 C   0  0  2  0  0  0  0  0  0  0  0  0
   20.1740  -18.3551  -15.4662 N   0  0  0  0  0  0  0  0  0  0  0  0
   20.8812  -20.3778  -14.3496 C   0  0  0  0  0  0  0  0  0  0  0  0
   20.8071  -21.3251  -13.5398 O   0  0  0  0  0  0  0  0  0  0  0  0
   22.9819  -22.5391  -16.7525 C   0  0  0  0  0  0  0  0  0  0  0  0
   23.8861  -21.6383  -15.9760 C   0  0  2  0  0  0  0  0  0  0  0  0
   25.1099  -22.4904  -15.6033 C   0  0  0  0  0  0  0  0  0  0  0  0
   23.2955  -21.0153  -14.7668 C   0  0  2  0  0  0  0  0  0  0  0  0
   22.1361  -20.1824  -14.9824 N   0  0  0  0  0  0  0  0  0  0  0  0
   24.2878  -20.3962  -13.8607 C   0  0  0  0  0  0  0  0  0  0  0  0
   24.6673  -19.1966  -13.9353 O   0  0  0  0  0  0  0  0  0  0  0  0
   24.2731  -20.6657   -8.6099 C   0  0  0  0  0  0  0  0  0  0  0  0
   24.5033  -20.2894  -10.0525 C   0  0  0  0  0  0  0  0  0  0  0  0
   25.7618  -20.8659  -10.5923 C   0  0  2  0  0  0  0  0  0  0  0  0
   26.8921  -20.3836   -9.6955 C   0  0  0  0  0  0  0  0  0  0  0  0
   26.0088  -20.5889  -12.0298 C   0  0  2  0  0  0  0  0  0  0  0  0
   24.8873  -21.1452  -12.8184 N   0  0  0  0  0  0  0  0  0  0  0  0
   27.2959  -21.1176  -12.5408 C   0  0  0  0  0  0  0  0  0  0  0  0
   27.3942  -22.3431  -12.8564 O   0  0  0  0  0  0  0  0  0  0  0  0
   28.4148  -20.3297  -12.6951 O   0  0  0  0  0  0  0  0  0  0  0  0
  2  3  1  6
  2  1  1  0
  4  5  1  6
  4  2  1  0
  6  4  1  0
  7  6  2  0
  9  8  1  1
  9 11  1  0
 10  9  1  0
 11 12  1  6
 12  6  1  0
 13 11  1  0
 13 20  1  0
 14 13  2  0
 15 16  1  0
 16 17  1  0
 17 19  1  0
 17 18  1  1
 19 20  1  6
 19 21  1  0
 21 23  1  0
 22 21  2  0
M  END
$$$$
