VVI.pdb
     RDKit          3D

 23 22  0  0  1  0  0  0  0  0999 V2000
   27.3984  -16.6110  -17.1805 C   0  0  0  0  0  0  0  0  0  0  0  0
   26.7956  -16.8653  -15.7867 C   0  0  2  0  0  0  0  0  0  0  0  0
   27.8850  -17.6455  -15.0450 C   0  0  0  0  0  0  0  0  0  0  0  0
   25.6151  -17.7385  -15.9846 C   0  0  2  0  0  0  0  0  0  0  0  0
   24.6938  -17.2561  -16.9923 N   0  0  0  0  0  0  0  0  0  0  0  0
   24.8978  -18.1253  -14.7471 C   0  0  0  0  0  0  0  0  0  0  0  0
   24.1620  -17.3462  -14.1065 O   0  0  0  0  0  0  0  0  0  0  0  0
   22.0678  -20.1459  -14.1839 C   0  0  0  0  0  0  0  0  0  0  0  0
   23.1306  -20.7748  -13.3433 C   0  0  2  0  0  0  0  0  0  0  0  0
   22.4433  -21.1783  -12.0290 C   0  0  0  0  0  0  0  0  0  0  0  0
   24.3228  -19.9353  -13.0730 C   0  0  2  0  0  0  0  0  0  0  0  0
   25.0281  -19.4408  -14.2317 N   0  0  0  0  0  0  0  0  0  0  0  0
   25.2280  -20.4865  -12.0407 C   0  0  0  0  0  0  0  0  0  0  0  0
   26.1225  -21.3456  -12.2650 O   0  0  0  0  0  0  0  0  0  0  0  0
   27.0687  -17.3798   -8.0672 C   0  0  0  0  0  0  0  0  0  0  0  0
   26.9956  -18.4762   -9.1009 C   0  0  0  0  0  0  0  0  0  0  0  0
   26.2702  -19.6736   -8.6032 C   0  0  2  0  0  0  0  0  0  0  0  0
   27.0815  -20.2354   -7.4454 C   0  0  0  0  0  0  0  0  0  0  0  0
   25.9629  -20.6920   -9.6388 C   0  0  2  0  0  0  0  0  0  0  0  0
   25.1374  -20.0614  -10.6924 N   0  0  0  0  0  0  0  0  0  0  0  0
   25.2817  -21.9025   -9.1212 C   0  0  0  0  0  0  0  0  0  0  0  0
   24.0310  -21.8794   -8.9053 O   0  0  0  0  0  0  0  0  0  0  0  0
   25.9507  -23.0770   -8.8576 O   0  0  0  0  0  0  0  0  0  0  0  0
  2  3  1  1
  2  1  1  0
  4  5  1  6
  4  2  1  0
  6  4  1  0
  7  6  2  0
  9  8  1  6
  9 11  1  0
 10  9  1  0
 11 12  1  6
 12  6  1  0
 13 11  1  0
 13 20  1  0
 14 13  2  0
 15 16  1  0
 16 17  1  0
 17 19  1  0
 17 18  1  1
 19 20  1  6
 19 21  1  0
 21 23  1  0
 22 21  2  0
M  END
$$$$
