VVI.pdb
     RDKit          3D

 23 22  0  0  1  0  0  0  0  0999 V2000
   28.8721  -18.0481  -16.4719 C   0  0  0  0  0  0  0  0  0  0  0  0
   28.1296  -18.0127  -15.1236 C   0  0  2  0  0  0  0  0  0  0  0  0
   29.0385  -18.8008  -14.1756 C   0  0  0  0  0  0  0  0  0  0  0  0
   26.8606  -18.7530  -15.3150 C   0  0  2  0  0  0  0  0  0  0  0  0
   26.0786  -18.2906  -16.4428 N   0  0  0  0  0  0  0  0  0  0  0  0
   26.0189  -18.8928  -14.1036 C   0  0  0  0  0  0  0  0  0  0  0  0
   25.3969  -17.9428  -13.5847 O   0  0  0  0  0  0  0  0  0  0  0  0
   22.8844  -20.6188  -13.5436 C   0  0  0  0  0  0  0  0  0  0  0  0
   23.8288  -21.1797  -12.5310 C   0  0  2  0  0  0  0  0  0  0  0  0
   23.0234  -21.3026  -11.2275 C   0  0  0  0  0  0  0  0  0  0  0  0
   25.0718  -20.4030  -12.3058 C   0  0  2  0  0  0  0  0  0  0  0  0
   25.8873  -20.1563  -13.4714 N   0  0  0  0  0  0  0  0  0  0  0  0
   25.8602  -20.8508  -11.1367 C   0  0  0  0  0  0  0  0  0  0  0  0
   26.6781  -21.8095  -11.1559 O   0  0  0  0  0  0  0  0  0  0  0  0
   28.7372  -19.0900   -6.1850 C   0  0  0  0  0  0  0  0  0  0  0  0
   27.8909  -20.1838   -6.7878 C   0  0  0  0  0  0  0  0  0  0  0  0
   27.1852  -19.7387   -8.0173 C   0  0  2  0  0  0  0  0  0  0  0  0
   26.4009  -18.4875   -7.6512 C   0  0  0  0  0  0  0  0  0  0  0  0
   26.3443  -20.7769   -8.6646 C   0  0  2  0  0  0  0  0  0  0  0  0
   25.7362  -20.2008   -9.8841 N   0  0  0  0  0  0  0  0  0  0  0  0
   25.2868  -21.3381   -7.7904 C   0  0  0  0  0  0  0  0  0  0  0  0
   24.1024  -20.8874   -7.8634 O   0  0  0  0  0  0  0  0  0  0  0  0
   25.5286  -22.3462   -6.8839 O   0  0  0  0  0  0  0  0  0  0  0  0
  2  3  1  1
  2  1  1  0
  4  5  1  6
  4  2  1  0
  6  4  1  0
  7  6  2  0
  9  8  1  6
  9 11  1  0
 10  9  1  0
 11 12  1  6
 12  6  1  0
 13 11  1  0
 13 20  1  0
 14 13  2  0
 15 16  1  0
 16 17  1  0
 17 19  1  0
 17 18  1  1
 19 20  1  6
 19 21  1  0
 21 23  1  0
 22 21  2  0
M  END
$$$$
