VVI.pdb
     RDKit          3D

 23 22  0  0  1  0  0  0  0  0999 V2000
   21.7355  -20.2267  -10.5785 C   0  0  0  0  0  0  0  0  0  0  0  0
   22.6098  -19.7187  -11.7395 C   0  0  2  0  0  0  0  0  0  0  0  0
   21.6125  -19.4590  -12.8726 C   0  0  0  0  0  0  0  0  0  0  0  0
   23.5054  -20.8357  -12.1205 C   0  0  2  0  0  0  0  0  0  0  0  0
   22.8051  -22.0071  -12.6049 N   0  0  0  0  0  0  0  0  0  0  0  0
   24.5255  -21.2035  -11.1108 C   0  0  0  0  0  0  0  0  0  0  0  0
   24.3773  -22.1324  -10.2900 O   0  0  0  0  0  0  0  0  0  0  0  0
   28.2895  -21.8006  -11.9082 C   0  0  0  0  0  0  0  0  0  0  0  0
   28.1743  -20.9067  -10.7168 C   0  0  2  0  0  0  0  0  0  0  0  0
   29.1730  -21.4524   -9.6835 C   0  0  0  0  0  0  0  0  0  0  0  0
   26.8201  -20.7908  -10.1238 C   0  0  2  0  0  0  0  0  0  0  0  0
   25.7480  -20.4864  -11.0416 N   0  0  0  0  0  0  0  0  0  0  0  0
   26.7690  -19.9765   -8.8896 C   0  0  0  0  0  0  0  0  0  0  0  0
   26.3056  -18.8059   -8.8290 O   0  0  0  0  0  0  0  0  0  0  0  0
   29.0164  -21.7405   -3.7495 C   0  0  0  0  0  0  0  0  0  0  0  0
   28.8389  -21.0302   -5.0685 C   0  0  0  0  0  0  0  0  0  0  0  0
   27.4509  -20.5363   -5.2614 C   0  0  2  0  0  0  0  0  0  0  0  0
   26.5442  -21.7577   -5.2874 C   0  0  0  0  0  0  0  0  0  0  0  0
   27.2610  -19.6528   -6.4392 C   0  0  2  0  0  0  0  0  0  0  0  0
   27.2545  -20.4875   -7.6608 N   0  0  0  0  0  0  0  0  0  0  0  0
   28.2755  -18.5796   -6.5670 C   0  0  0  0  0  0  0  0  0  0  0  0
   28.2429  -17.5833   -5.7811 O   0  0  0  0  0  0  0  0  0  0  0  0
   29.2742  -18.6091   -7.5148 O   0  0  0  0  0  0  0  0  0  0  0  0
  2  3  1  6
  2  1  1  0
  4  5  1  1
  4  2  1  0
  6  4  1  0
  7  6  2  0
  9  8  1  6
  9 11  1  0
 10  9  1  0
 11 12  1  6
 12  6  1  0
 13 11  1  0
 13 20  1  0
 14 13  2  0
 15 16  1  0
 16 17  1  0
 17 19  1  0
 17 18  1  6
 19 20  1  6
 19 21  1  0
 21 23  1  0
 22 21  2  0
M  END
$$$$
