VVI.pdb
     RDKit          3D

 23 22  0  0  1  0  0  0  0  0999 V2000
   20.8566  -10.6968  -21.2103 C   0  0  0  0  0  0  0  0  0  0  0  0
   22.1988  -11.3912  -20.9158 C   0  0  2  0  0  0  0  0  0  0  0  0
   22.4343  -12.2833  -22.1383 C   0  0  0  0  0  0  0  0  0  0  0  0
   21.9870  -12.2416  -19.7212 C   0  0  2  0  0  0  0  0  0  0  0  0
   21.0977  -13.3611  -19.9511 N   0  0  0  0  0  0  0  0  0  0  0  0
   21.6214  -11.5154  -18.4825 C   0  0  0  0  0  0  0  0  0  0  0  0
   20.4528  -11.4379  -18.0500 O   0  0  0  0  0  0  0  0  0  0  0  0
   23.2843  -12.0366  -14.9647 C   0  0  0  0  0  0  0  0  0  0  0  0
   23.2923  -10.5914  -15.3432 C   0  0  2  0  0  0  0  0  0  0  0  0
   22.9347   -9.8195  -14.0629 C   0  0  0  0  0  0  0  0  0  0  0  0
   22.3875  -10.2087  -16.4539 C   0  0  2  0  0  0  0  0  0  0  0  0
   22.6235  -10.8614  -17.7199 N   0  0  0  0  0  0  0  0  0  0  0  0
   22.1806   -8.7499  -16.5888 C   0  0  0  0  0  0  0  0  0  0  0  0
   23.0470   -7.9467  -17.0276 O   0  0  0  0  0  0  0  0  0  0  0  0
   18.2472   -4.7815  -18.5129 C   0  0  0  0  0  0  0  0  0  0  0  0
   19.2736   -4.9996  -17.4290 C   0  0  0  0  0  0  0  0  0  0  0  0
   19.6711   -6.4260  -17.3068 C   0  0  2  0  0  0  0  0  0  0  0  0
   18.4042   -7.2172  -17.0176 C   0  0  0  0  0  0  0  0  0  0  0  0
   20.7523   -6.6905  -16.3244 C   0  0  2  0  0  0  0  0  0  0  0  0
   20.9498   -8.1531  -16.2204 N   0  0  0  0  0  0  0  0  0  0  0  0
   20.5082   -6.1175  -14.9793 C   0  0  0  0  0  0  0  0  0  0  0  0
   20.6024   -4.8643  -14.8004 O   0  0  0  0  0  0  0  0  0  0  0  0
   20.1763   -6.8920  -13.8900 O   0  0  0  0  0  0  0  0  0  0  0  0
  2  3  1  6
  2  1  1  0
  4  5  1  6
  4  2  1  0
  6  4  1  0
  7  6  2  0
  9  8  1  1
  9 11  1  0
 10  9  1  0
 11 12  1  6
 12  6  1  0
 13 11  1  0
 13 20  1  0
 14 13  2  0
 15 16  1  0
 16 17  1  0
 17 19  1  0
 17 18  1  1
 19 20  1  1
 19 21  1  0
 21 23  1  0
 22 21  2  0
M  END
$$$$
