VVI.pdb
     RDKit          3D

 23 22  0  0  1  0  0  0  0  0999 V2000
   21.6052  -20.6924  -10.3586 C   0  0  0  0  0  0  0  0  0  0  0  0
   22.3758  -19.8431  -11.3860 C   0  0  2  0  0  0  0  0  0  0  0  0
   21.3222  -19.4807  -12.4368 C   0  0  0  0  0  0  0  0  0  0  0  0
   23.3931  -20.7304  -11.9968 C   0  0  2  0  0  0  0  0  0  0  0  0
   22.8311  -21.8395  -12.7392 N   0  0  0  0  0  0  0  0  0  0  0  0
   24.4657  -21.1887  -11.0831 C   0  0  0  0  0  0  0  0  0  0  0  0
   24.4139  -22.2601  -10.4443 O   0  0  0  0  0  0  0  0  0  0  0  0
   28.0880  -21.7256  -11.9531 C   0  0  0  0  0  0  0  0  0  0  0  0
   28.0571  -20.8855  -10.7182 C   0  0  2  0  0  0  0  0  0  0  0  0
   29.0921  -21.5025   -9.7639 C   0  0  0  0  0  0  0  0  0  0  0  0
   26.7383  -20.7646  -10.0510 C   0  0  2  0  0  0  0  0  0  0  0  0
   25.6285  -20.3968  -10.8982 N   0  0  0  0  0  0  0  0  0  0  0  0
   26.7706  -20.0033   -8.7829 C   0  0  0  0  0  0  0  0  0  0  0  0
   26.2182  -18.8833   -8.6119 O   0  0  0  0  0  0  0  0  0  0  0  0
   28.0936  -21.0263   -2.8252 C   0  0  0  0  0  0  0  0  0  0  0  0
   27.6517  -20.0754   -3.9097 C   0  0  0  0  0  0  0  0  0  0  0  0
   27.7441  -20.6809   -5.2634 C   0  0  2  0  0  0  0  0  0  0  0  0
   29.0981  -21.3689   -5.3510 C   0  0  0  0  0  0  0  0  0  0  0  0
   27.5026  -19.7396   -6.3858 C   0  0  2  0  0  0  0  0  0  0  0  0
   27.4480  -20.5111   -7.6471 N   0  0  0  0  0  0  0  0  0  0  0  0
   28.5075  -18.6559   -6.5005 C   0  0  0  0  0  0  0  0  0  0  0  0
   29.4713  -18.7727   -7.3183 O   0  0  0  0  0  0  0  0  0  0  0  0
   28.4472  -17.5032   -5.7494 O   0  0  0  0  0  0  0  0  0  0  0  0
  2  3  1  6
  2  1  1  0
  4  5  1  1
  4  2  1  0
  6  4  1  0
  7  6  2  0
  9  8  1  6
  9 11  1  0
 10  9  1  0
 11 12  1  6
 12  6  1  0
 13 11  1  0
 13 20  1  0
 14 13  2  0
 15 16  1  0
 16 17  1  0
 17 19  1  0
 17 18  1  6
 19 20  1  6
 19 21  1  0
 21 23  1  0
 22 21  2  0
M  END
$$$$
