VVI.pdb
     RDKit          3D

 23 22  0  0  1  0  0  0  0  0999 V2000
   20.9950  -20.1261  -11.8948 C   0  0  0  0  0  0  0  0  0  0  0  0
   22.0962  -20.5603  -10.9103 C   0  0  2  0  0  0  0  0  0  0  0  0
   22.2739  -19.3488   -9.9902 C   0  0  0  0  0  0  0  0  0  0  0  0
   23.3295  -20.7559  -11.7077 C   0  0  2  0  0  0  0  0  0  0  0  0
   23.1475  -21.6049  -12.8667 N   0  0  0  0  0  0  0  0  0  0  0  0
   24.5276  -21.1583  -10.9343 C   0  0  0  0  0  0  0  0  0  0  0  0
   24.6650  -22.2856  -10.4158 O   0  0  0  0  0  0  0  0  0  0  0  0
   28.0467  -21.3936  -12.0225 C   0  0  0  0  0  0  0  0  0  0  0  0
   28.0601  -20.5557  -10.7858 C   0  0  2  0  0  0  0  0  0  0  0  0
   29.2170  -21.0915   -9.9272 C   0  0  0  0  0  0  0  0  0  0  0  0
   26.7986  -20.5324  -10.0066 C   0  0  2  0  0  0  0  0  0  0  0  0
   25.5963  -20.2429  -10.7517 N   0  0  0  0  0  0  0  0  0  0  0  0
   26.8857  -19.7748   -8.7388 C   0  0  0  0  0  0  0  0  0  0  0  0
   26.4368  -18.6085   -8.5754 O   0  0  0  0  0  0  0  0  0  0  0  0
   27.7946  -22.4382   -3.8430 C   0  0  0  0  0  0  0  0  0  0  0  0
   27.1937  -21.4660   -4.8276 C   0  0  0  0  0  0  0  0  0  0  0  0
   28.1742  -20.4478   -5.2854 C   0  0  2  0  0  0  0  0  0  0  0  0
   28.6408  -19.6930   -4.0496 C   0  0  0  0  0  0  0  0  0  0  0  0
   27.6835  -19.5475   -6.3591 C   0  0  2  0  0  0  0  0  0  0  0  0
   27.4999  -20.3406   -7.5945 N   0  0  0  0  0  0  0  0  0  0  0  0
   28.5636  -18.3862   -6.6313 C   0  0  0  0  0  0  0  0  0  0  0  0
   29.5607  -18.5175   -7.4058 O   0  0  0  0  0  0  0  0  0  0  0  0
   28.3495  -17.1444   -6.0756 O   0  0  0  0  0  0  0  0  0  0  0  0
  2  3  1  1
  2  1  1  0
  4  5  1  6
  4  2  1  0
  6  4  1  0
  7  6  2  0
  9  8  1  6
  9 11  1  0
 10  9  1  0
 11 12  1  6
 12  6  1  0
 13 11  1  0
 13 20  1  0
 14 13  2  0
 15 16  1  0
 16 17  1  0
 17 19  1  0
 17 18  1  1
 19 20  1  6
 19 21  1  0
 21 23  1  0
 22 21  2  0
M  END
$$$$
