VVI.pdb
     RDKit          3D

 23 22  0  0  1  0  0  0  0  0999 V2000
   17.1977  -22.8199  -10.4474 C   0  0  0  0  0  0  0  0  0  0  0  0
   18.6643  -22.8778  -10.9124 C   0  0  2  0  0  0  0  0  0  0  0  0
   19.3783  -21.8534  -10.0254 C   0  0  0  0  0  0  0  0  0  0  0  0
   18.6859  -22.4095  -12.3178 C   0  0  2  0  0  0  0  0  0  0  0  0
   17.6881  -23.0379  -13.1586 N   0  0  0  0  0  0  0  0  0  0  0  0
   20.0164  -22.4204  -12.9697 C   0  0  0  0  0  0  0  0  0  0  0  0
   20.6497  -23.4660  -13.2231 O   0  0  0  0  0  0  0  0  0  0  0  0
   21.2114  -21.5105  -16.3970 C   0  0  0  0  0  0  0  0  0  0  0  0
   21.8825  -20.6143  -15.4080 C   0  0  2  0  0  0  0  0  0  0  0  0
   23.3095  -20.3982  -15.9370 C   0  0  0  0  0  0  0  0  0  0  0  0
   21.9127  -21.1033  -14.0084 C   0  0  2  0  0  0  0  0  0  0  0  0
   20.6362  -21.1991  -13.3407 N   0  0  0  0  0  0  0  0  0  0  0  0
   22.9542  -20.4700  -13.1698 C   0  0  0  0  0  0  0  0  0  0  0  0
   22.8727  -19.3059  -12.6937 O   0  0  0  0  0  0  0  0  0  0  0  0
   26.0437  -20.3990   -8.4045 C   0  0  0  0  0  0  0  0  0  0  0  0
   26.1854  -20.0659   -9.8689 C   0  0  0  0  0  0  0  0  0  0  0  0
   25.2122  -20.8063  -10.7130 C   0  0  2  0  0  0  0  0  0  0  0  0
   25.4221  -22.2877  -10.4378 C   0  0  0  0  0  0  0  0  0  0  0  0
   25.2630  -20.4762  -12.1595 C   0  0  2  0  0  0  0  0  0  0  0  0
   24.1447  -21.1641  -12.8415 N   0  0  0  0  0  0  0  0  0  0  0  0
   26.5448  -20.8207  -12.8195 C   0  0  0  0  0  0  0  0  0  0  0  0
   26.6235  -21.8624  -13.5407 O   0  0  0  0  0  0  0  0  0  0  0  0
   27.6793  -20.0512  -12.6882 O   0  0  0  0  0  0  0  0  0  0  0  0
  2  3  1  1
  2  1  1  0
  4  5  1  6
  4  2  1  0
  6  4  1  0
  7  6  2  0
  9  8  1  6
  9 11  1  0
 10  9  1  0
 11 12  1  1
 12  6  1  0
 13 11  1  0
 13 20  1  0
 14 13  2  0
 15 16  1  0
 16 17  1  0
 17 19  1  0
 17 18  1  6
 19 20  1  6
 19 21  1  0
 21 23  1  0
 22 21  2  0
M  END
$$$$
