VVI.pdb
     RDKit          3D

 23 22  0  0  1  0  0  0  0  0999 V2000
   27.9217  -26.3710  -17.6045 C   0  0  0  0  0  0  0  0  0  0  0  0
   27.7320  -25.2315  -16.5866 C   0  0  2  0  0  0  0  0  0  0  0  0
   26.3414  -25.4847  -15.9968 C   0  0  0  0  0  0  0  0  0  0  0  0
   27.7147  -23.9672  -17.3588 C   0  0  2  0  0  0  0  0  0  0  0  0
   28.9166  -23.7393  -18.1338 N   0  0  0  0  0  0  0  0  0  0  0  0
   27.3395  -22.7585  -16.5883 C   0  0  0  0  0  0  0  0  0  0  0  0
   28.1732  -21.9713  -16.0944 O   0  0  0  0  0  0  0  0  0  0  0  0
   25.6690  -19.6530  -17.7393 C   0  0  0  0  0  0  0  0  0  0  0  0
   24.8170  -20.2657  -16.6761 C   0  0  2  0  0  0  0  0  0  0  0  0
   24.2312  -19.0904  -15.8773 C   0  0  0  0  0  0  0  0  0  0  0  0
   25.4994  -21.2230  -15.7723 C   0  0  2  0  0  0  0  0  0  0  0  0
   25.9715  -22.4448  -16.3796 N   0  0  0  0  0  0  0  0  0  0  0  0
   24.7941  -21.4525  -14.4921 C   0  0  0  0  0  0  0  0  0  0  0  0
   23.7562  -22.1567  -14.3687 O   0  0  0  0  0  0  0  0  0  0  0  0
   27.4972  -20.8020   -9.6803 C   0  0  0  0  0  0  0  0  0  0  0  0
   26.5871  -21.3617  -10.7454 C   0  0  0  0  0  0  0  0  0  0  0  0
   25.3436  -20.5636  -10.9017 C   0  0  2  0  0  0  0  0  0  0  0  0
   24.6183  -20.6046   -9.5650 C   0  0  0  0  0  0  0  0  0  0  0  0
   24.4798  -20.9705  -12.0385 C   0  0  2  0  0  0  0  0  0  0  0  0
   25.2655  -20.8731  -13.2884 N   0  0  0  0  0  0  0  0  0  0  0  0
   23.2292  -20.1851  -12.1664 C   0  0  0  0  0  0  0  0  0  0  0  0
   23.2747  -18.9911  -12.5949 O   0  0  0  0  0  0  0  0  0  0  0  0
   21.9932  -20.6959  -11.8378 O   0  0  0  0  0  0  0  0  0  0  0  0
  2  3  1  6
  2  1  1  0
  4  5  1  1
  4  2  1  0
  6  4  1  0
  7  6  2  0
  9  8  1  6
  9 11  1  0
 10  9  1  0
 11 12  1  6
 12  6  1  0
 13 11  1  0
 13 20  1  0
 14 13  2  0
 15 16  1  0
 16 17  1  0
 17 19  1  0
 17 18  1  1
 19 20  1  6
 19 21  1  0
 21 23  1  0
 22 21  2  0
M  END
$$$$
