SYM.pdb
     RDKit          3D

 27 27  0  0  1  0  0  0  0  0999 V2000
   25.7160  -19.9459  -18.0850 O   0  0  0  0  0  0  0  0  0  0  0  0
   27.0600  -19.6181  -17.9159 C   0  0  0  0  0  0  0  0  0  0  0  0
   27.8223  -20.7949  -17.2919 C   0  0  2  0  0  0  0  0  0  0  0  0
   27.9438  -21.8003  -18.2928 N   0  0  0  0  0  0  0  0  0  0  0  0
   27.0501  -21.2773  -16.0959 C   0  0  0  0  0  0  0  0  0  0  0  0
   26.5144  -22.4147  -16.1168 O   0  0  0  0  0  0  0  0  0  0  0  0
   24.4265  -20.6725   -7.4673 O   0  0  0  0  0  0  0  0  0  0  0  0
   24.9827  -20.5370   -8.7312 C   0  0  0  0  0  0  0  0  0  0  0  0
   26.1019  -21.2374   -9.1183 C   0  0  0  0  0  0  0  0  0  0  0  0
   26.6492  -21.0979  -10.3754 C   0  0  0  0  0  0  0  0  0  0  0  0
   26.0899  -20.2330  -11.3227 C   0  0  0  0  0  0  0  0  0  0  0  0
   26.7314  -20.0994  -12.6326 C   0  0  0  0  0  0  0  0  0  0  0  0
   26.2005  -20.9280  -13.7437 C   0  0  2  0  0  0  0  0  0  0  0  0
   26.9208  -20.4701  -14.9545 N   0  0  0  0  0  0  0  0  0  0  0  0
   24.7600  -20.7417  -13.9885 C   0  0  0  0  0  0  0  0  0  0  0  0
   24.4282  -19.6697  -14.6200 O   0  0  0  0  0  0  0  0  0  0  0  0
   24.9719  -19.5452  -10.9100 C   0  0  0  0  0  0  0  0  0  0  0  0
   24.4224  -19.6830   -9.6527 C   0  0  0  0  0  0  0  0  0  0  0  0
   20.2244  -24.3012  -16.8253 C   0  0  0  0  0  0  0  0  0  0  0  0
   19.3466  -23.6594  -15.3991 S   0  0  0  0  0  0  0  0  0  0  0  0
   20.1484  -22.2428  -14.6599 C   0  0  0  0  0  0  0  0  0  0  0  0
   21.6037  -22.3372  -14.4489 C   0  0  0  0  0  0  0  0  0  0  0  0
   22.3325  -21.1801  -13.8145 C   0  0  2  0  0  0  0  0  0  0  0  0
   23.7306  -21.6205  -13.6050 N   0  0  0  0  0  0  0  0  0  0  0  0
   21.7342  -20.7816  -12.5461 C   0  0  0  0  0  0  0  0  0  0  0  0
   20.7293  -20.0331  -12.5214 O   0  0  0  0  0  0  0  0  0  0  0  0
   22.1963  -21.1754  -11.2795 O   0  0  0  0  0  0  0  0  0  0  0  0
  2  1  1  0
  3  2  1  0
  3  5  1  0
  3  4  1  6
  5  6  2  0
  8  7  1  0
  8 18  2  0
  9  8  1  0
 10  9  2  0
 10 11  1  0
 11 17  2  0
 13 12  1  1
 12 11  1  0
 14  5  1  0
 14 13  1  0
 15 24  1  0
 15 13  1  0
 16 15  2  0
 17 18  1  0
 20 21  1  0
 20 19  1  0
 21 22  1  0
 23 24  1  0
 23 22  1  1
 25 23  1  0
 26 25  2  0
 27 25  1  0
M  END
$$$$
