SYM.pdb
     RDKit          3D

 27 27  0  0  1  0  0  0  0  0999 V2000
   29.1463  -19.5236  -13.3374 O   0  0  0  0  0  0  0  0  0  0  0  0
   28.9280  -19.3117  -14.6976 C   0  0  0  0  0  0  0  0  0  0  0  0
   27.4672  -19.6148  -15.0575 C   0  0  2  0  0  0  0  0  0  0  0  0
   27.0835  -18.7005  -16.0793 N   0  0  0  0  0  0  0  0  0  0  0  0
   26.6328  -19.4599  -13.8168 C   0  0  0  0  0  0  0  0  0  0  0  0
   26.3105  -18.3106  -13.4216 O   0  0  0  0  0  0  0  0  0  0  0  0
   20.2527  -18.9464  -15.7119 O   0  0  0  0  0  0  0  0  0  0  0  0
   21.1915  -19.5342  -14.8762 C   0  0  0  0  0  0  0  0  0  0  0  0
   21.3633  -19.1341  -13.5710 C   0  0  0  0  0  0  0  0  0  0  0  0
   22.2978  -19.7224  -12.7464 C   0  0  0  0  0  0  0  0  0  0  0  0
   23.1206  -20.7598  -13.1996 C   0  0  0  0  0  0  0  0  0  0  0  0
   24.1188  -21.3270  -12.2902 C   0  0  0  0  0  0  0  0  0  0  0  0
   25.2866  -20.4805  -11.9399 C   0  0  2  0  0  0  0  0  0  0  0  0
   26.2093  -20.5865  -13.0940 N   0  0  0  0  0  0  0  0  0  0  0  0
   26.0166  -20.9395  -10.7458 C   0  0  0  0  0  0  0  0  0  0  0  0
   26.2901  -22.1969  -10.6994 O   0  0  0  0  0  0  0  0  0  0  0  0
   22.9281  -21.1404  -14.5078 C   0  0  0  0  0  0  0  0  0  0  0  0
   21.9937  -20.5533  -15.3349 C   0  0  0  0  0  0  0  0  0  0  0  0
   29.5233  -19.5354   -3.9659 C   0  0  0  0  0  0  0  0  0  0  0  0
   28.2560  -18.8348   -5.0240 S   0  0  0  0  0  0  0  0  0  0  0  0
   27.4142  -20.0599   -6.0173 C   0  0  0  0  0  0  0  0  0  0  0  0
   27.2950  -19.7796   -7.4591 C   0  0  0  0  0  0  0  0  0  0  0  0
   26.6140  -20.7862   -8.3511 C   0  0  2  0  0  0  0  0  0  0  0  0
   26.4407  -20.1373   -9.6707 N   0  0  0  0  0  0  0  0  0  0  0  0
   25.3217  -21.2052   -7.8219 C   0  0  0  0  0  0  0  0  0  0  0  0
   24.2614  -20.6835   -8.2393 O   0  0  0  0  0  0  0  0  0  0  0  0
   25.1362  -22.1902   -6.8378 O   0  0  0  0  0  0  0  0  0  0  0  0
  2  1  1  0
  3  2  1  0
  3  5  1  0
  3  4  1  6
  5  6  2  0
  8  7  1  0
  8 18  2  0
  9  8  1  0
 10  9  2  0
 10 11  1  0
 11 17  2  0
 13 12  1  6
 12 11  1  0
 14  5  1  0
 14 13  1  0
 15 24  1  0
 15 13  1  0
 16 15  2  0
 17 18  1  0
 20 21  1  0
 20 19  1  0
 21 22  1  0
 23 24  1  0
 23 22  1  1
 25 23  1  0
 26 25  2  0
 27 25  1  0
M  END
$$$$
