SYM.pdb
     RDKit          3D

 27 27  0  0  1  0  0  0  0  0999 V2000
   17.5010  -22.2223    4.4133 O   0  0  0  0  0  0  0  0  0  0  0  0
   16.8565  -21.8461    3.2362 C   0  0  0  0  0  0  0  0  0  0  0  0
   15.8104  -20.7605    3.5236 C   0  0  2  0  0  0  0  0  0  0  0  0
   15.1191  -20.5042    2.3054 N   0  0  0  0  0  0  0  0  0  0  0  0
   16.5237  -19.5410    4.0370 C   0  0  0  0  0  0  0  0  0  0  0  0
   17.1898  -18.8281    3.2438 O   0  0  0  0  0  0  0  0  0  0  0  0
   17.8399  -12.6847    9.5956 O   0  0  0  0  0  0  0  0  0  0  0  0
   17.4071  -13.7874    8.8732 C   0  0  0  0  0  0  0  0  0  0  0  0
   17.2526  -15.0268    9.4501 C   0  0  0  0  0  0  0  0  0  0  0  0
   16.8223  -16.1180    8.7265 C   0  0  0  0  0  0  0  0  0  0  0  0
   16.5206  -16.0167    7.3637 C   0  0  0  0  0  0  0  0  0  0  0  0
   16.0983  -17.2156    6.6362 C   0  0  0  0  0  0  0  0  0  0  0  0
   17.1474  -17.9978    5.9360 C   0  0  2  0  0  0  0  0  0  0  0  0
   16.4537  -19.1894    5.3944 N   0  0  0  0  0  0  0  0  0  0  0  0
   18.2229  -18.4761    6.8216 C   0  0  0  0  0  0  0  0  0  0  0  0
   18.0582  -19.6484    7.3282 O   0  0  0  0  0  0  0  0  0  0  0  0
   16.6834  -14.7667    6.8120 C   0  0  0  0  0  0  0  0  0  0  0  0
   17.1139  -13.6734    7.5340 C   0  0  0  0  0  0  0  0  0  0  0  0
   25.4143  -17.4113   10.1243 C   0  0  0  0  0  0  0  0  0  0  0  0
   24.1701  -16.9464    8.9192 S   0  0  0  0  0  0  0  0  0  0  0  0
   22.6811  -17.9294    9.0320 C   0  0  0  0  0  0  0  0  0  0  0  0
   21.6146  -17.6355    8.0585 C   0  0  0  0  0  0  0  0  0  0  0  0
   20.3192  -18.4030    8.1313 C   0  0  2  0  0  0  0  0  0  0  0  0
   19.3990  -17.7791    7.1533 N   0  0  0  0  0  0  0  0  0  0  0  0
   19.7339  -18.3697    9.4662 C   0  0  0  0  0  0  0  0  0  0  0  0
   19.1511  -17.3411    9.8822 O   0  0  0  0  0  0  0  0  0  0  0  0
   19.7583  -19.4341   10.3823 O   0  0  0  0  0  0  0  0  0  0  0  0
  2  1  1  0
  3  2  1  0
  3  5  1  0
  3  4  1  6
  5  6  2  0
  8  7  1  0
  8 18  2  0
  9  8  1  0
 10  9  2  0
 10 11  1  0
 11 17  2  0
 13 12  1  1
 12 11  1  0
 14  5  1  0
 14 13  1  0
 15 24  1  0
 15 13  1  0
 16 15  2  0
 17 18  1  0
 20 21  1  0
 20 19  1  0
 21 22  1  0
 23 24  1  0
 23 22  1  1
 25 23  1  0
 26 25  2  0
 27 25  1  0
M  END
$$$$
