SYM.pdb
     RDKit          3D

 27 27  0  0  1  0  0  0  0  0999 V2000
   19.4097   -7.4407  -20.5196 O   0  0  0  0  0  0  0  0  0  0  0  0
   19.2365   -8.8199  -20.4178 C   0  0  0  0  0  0  0  0  0  0  0  0
   20.4844   -9.4711  -19.8061 C   0  0  2  0  0  0  0  0  0  0  0  0
   20.2483  -10.8742  -19.7535 N   0  0  0  0  0  0  0  0  0  0  0  0
   20.7036   -8.8823  -18.4405 C   0  0  0  0  0  0  0  0  0  0  0  0
   20.0031   -9.2744  -17.4727 O   0  0  0  0  0  0  0  0  0  0  0  0
   24.0379  -13.2147  -15.1947 O   0  0  0  0  0  0  0  0  0  0  0  0
   23.8735  -11.8775  -15.5264 C   0  0  0  0  0  0  0  0  0  0  0  0
   23.4416  -10.9436  -14.6130 C   0  0  0  0  0  0  0  0  0  0  0  0
   23.2805   -9.6168  -14.9493 C   0  0  0  0  0  0  0  0  0  0  0  0
   23.5498   -9.1540  -16.2422 C   0  0  0  0  0  0  0  0  0  0  0  0
   23.3305   -7.7398  -16.5532 C   0  0  0  0  0  0  0  0  0  0  0  0
   21.9491   -7.3195  -16.8968 C   0  0  2  0  0  0  0  0  0  0  0  0
   21.6833   -7.8981  -18.2344 N   0  0  0  0  0  0  0  0  0  0  0  0
   21.7811   -5.8601  -17.0044 C   0  0  0  0  0  0  0  0  0  0  0  0
   22.3604   -5.2971  -18.0071 O   0  0  0  0  0  0  0  0  0  0  0  0
   23.9801  -10.1081  -17.1355 C   0  0  0  0  0  0  0  0  0  0  0  0
   24.1421  -11.4363  -16.8014 C   0  0  0  0  0  0  0  0  0  0  0  0
   16.2546   -2.4272  -15.9257 C   0  0  0  0  0  0  0  0  0  0  0  0
   17.2575   -1.7274  -17.2376 S   0  0  0  0  0  0  0  0  0  0  0  0
   19.0110   -1.9672  -16.9852 C   0  0  0  0  0  0  0  0  0  0  0  0
   19.4637   -3.3457  -16.7281 C   0  0  0  0  0  0  0  0  0  0  0  0
   20.9252   -3.6038  -16.4642 C   0  0  2  0  0  0  0  0  0  0  0  0
   21.0499   -5.0399  -16.1259 N   0  0  0  0  0  0  0  0  0  0  0  0
   21.4413   -2.7829  -15.3754 C   0  0  0  0  0  0  0  0  0  0  0  0
   21.5467   -3.2511  -14.2175 O   0  0  0  0  0  0  0  0  0  0  0  0
   21.8559   -1.4469  -15.5016 O   0  0  0  0  0  0  0  0  0  0  0  0
  2  1  1  0
  3  2  1  0
  3  5  1  0
  3  4  1  1
  5  6  2  0
  8  7  1  0
  8 18  2  0
  9  8  1  0
 10  9  2  0
 10 11  1  0
 11 17  2  0
 13 12  1  6
 12 11  1  0
 14  5  1  0
 14 13  1  0
 15 24  1  0
 15 13  1  0
 16 15  2  0
 17 18  1  0
 20 21  1  0
 20 19  1  0
 21 22  1  0
 23 24  1  0
 23 22  1  1
 25 23  1  0
 26 25  2  0
 27 25  1  0
M  END
$$$$
