SYM.pdb
     RDKit          3D

 27 27  0  0  1  0  0  0  0  0999 V2000
   19.7528  -14.5329  -15.3582 O   0  0  0  0  0  0  0  0  0  0  0  0
   19.4323  -13.5482  -16.2911 C   0  0  0  0  0  0  0  0  0  0  0  0
   18.2546  -12.7012  -15.7902 C   0  0  2  0  0  0  0  0  0  0  0  0
   17.0596  -13.4113  -16.0987 N   0  0  0  0  0  0  0  0  0  0  0  0
   18.3104  -11.3633  -16.4733 C   0  0  0  0  0  0  0  0  0  0  0  0
   18.0948  -11.2850  -17.7096 O   0  0  0  0  0  0  0  0  0  0  0  0
   16.7876   -2.5885  -16.6347 O   0  0  0  0  0  0  0  0  0  0  0  0
   16.9653   -3.9352  -16.3517 C   0  0  0  0  0  0  0  0  0  0  0  0
   17.6984   -4.3663  -15.2702 C   0  0  0  0  0  0  0  0  0  0  0  0
   17.8709   -5.7057  -14.9950 C   0  0  0  0  0  0  0  0  0  0  0  0
   17.3058   -6.6959  -15.8066 C   0  0  0  0  0  0  0  0  0  0  0  0
   17.5480   -8.1042  -15.4860 C   0  0  0  0  0  0  0  0  0  0  0  0
   18.5023   -8.8487  -16.3450 C   0  0  2  0  0  0  0  0  0  0  0  0
   18.6010  -10.1992  -15.7443 N   0  0  0  0  0  0  0  0  0  0  0  0
   19.8579   -8.2729  -16.3652 C   0  0  0  0  0  0  0  0  0  0  0  0
   20.5995   -8.5380  -15.3465 O   0  0  0  0  0  0  0  0  0  0  0  0
   16.5779   -6.2377  -16.8806 C   0  0  0  0  0  0  0  0  0  0  0  0
   16.4039   -4.8980  -17.1581 C   0  0  0  0  0  0  0  0  0  0  0  0
   26.1626   -5.1180  -19.3081 C   0  0  0  0  0  0  0  0  0  0  0  0
   24.4128   -5.5092  -19.2660 S   0  0  0  0  0  0  0  0  0  0  0  0
   24.0453   -6.9835  -18.3239 C   0  0  0  0  0  0  0  0  0  0  0  0
   22.6346   -7.4062  -18.2735 C   0  0  0  0  0  0  0  0  0  0  0  0
   21.7527   -6.8979  -17.1616 C   0  0  2  0  0  0  0  0  0  0  0  0
   20.4083   -7.4765  -17.3859 N   0  0  0  0  0  0  0  0  0  0  0  0
   21.6777   -5.4420  -17.1404 C   0  0  0  0  0  0  0  0  0  0  0  0
   20.8522   -4.8348  -17.8619 O   0  0  0  0  0  0  0  0  0  0  0  0
   22.4816   -4.6063  -16.3479 O   0  0  0  0  0  0  0  0  0  0  0  0
  2  1  1  0
  3  2  1  0
  3  5  1  0
  3  4  1  6
  5  6  2  0
  8  7  1  0
  8 18  2  0
  9  8  1  0
 10  9  2  0
 10 11  1  0
 11 17  2  0
 13 12  1  1
 12 11  1  0
 14  5  1  0
 14 13  1  0
 15 24  1  0
 15 13  1  0
 16 15  2  0
 17 18  1  0
 20 21  1  0
 20 19  1  0
 21 22  1  0
 23 24  1  0
 23 22  1  6
 25 23  1  0
 26 25  2  0
 27 25  1  0
M  END
$$$$
