SYM.pdb
     RDKit          3D

 27 27  0  0  1  0  0  0  0  0999 V2000
   25.9907  -12.0217  -18.7359 O   0  0  0  0  0  0  0  0  0  0  0  0
   24.9372  -11.1099  -18.7693 C   0  0  0  0  0  0  0  0  0  0  0  0
   23.6432  -11.7705  -18.2747 C   0  0  2  0  0  0  0  0  0  0  0  0
   23.2376  -12.7060  -19.2686 N   0  0  0  0  0  0  0  0  0  0  0  0
   22.6163  -10.6945  -18.0576 C   0  0  0  0  0  0  0  0  0  0  0  0
   21.9751  -10.2375  -19.0378 O   0  0  0  0  0  0  0  0  0  0  0  0
   16.5543  -13.6422  -17.2642 O   0  0  0  0  0  0  0  0  0  0  0  0
   17.4974  -12.7157  -16.8431 C   0  0  0  0  0  0  0  0  0  0  0  0
   18.4817  -13.0328  -15.9356 C   0  0  0  0  0  0  0  0  0  0  0  0
   19.4155  -12.1075  -15.5216 C   0  0  0  0  0  0  0  0  0  0  0  0
   19.4069  -10.7950  -16.0070 C   0  0  0  0  0  0  0  0  0  0  0  0
   20.4031   -9.8441  -15.5087 C   0  0  0  0  0  0  0  0  0  0  0  0
   21.2972   -9.2027  -16.5047 C   0  0  2  0  0  0  0  0  0  0  0  0
   22.3655  -10.1940  -16.7700 N   0  0  0  0  0  0  0  0  0  0  0  0
   21.9453   -7.9731  -16.0171 C   0  0  0  0  0  0  0  0  0  0  0  0
   22.8998   -8.1361  -15.1685 O   0  0  0  0  0  0  0  0  0  0  0  0
   18.4127  -10.5047  -16.9129 C   0  0  0  0  0  0  0  0  0  0  0  0
   17.4772  -11.4288  -17.3286 C   0  0  0  0  0  0  0  0  0  0  0  0
   24.2608   -0.5913  -17.5877 C   0  0  0  0  0  0  0  0  0  0  0  0
   23.4260   -2.1127  -18.0406 S   0  0  0  0  0  0  0  0  0  0  0  0
   23.2983   -3.2736  -16.6871 C   0  0  0  0  0  0  0  0  0  0  0  0
   22.5977   -4.5406  -16.9612 C   0  0  0  0  0  0  0  0  0  0  0  0
   22.4604   -5.5597  -15.8589 C   0  0  2  0  0  0  0  0  0  0  0  0
   21.6231   -6.6569  -16.3951 N   0  0  0  0  0  0  0  0  0  0  0  0
   21.8472   -4.9966  -14.6620 C   0  0  0  0  0  0  0  0  0  0  0  0
   20.6075   -5.0608  -14.4893 O   0  0  0  0  0  0  0  0  0  0  0  0
   22.5456   -4.3553  -13.6258 O   0  0  0  0  0  0  0  0  0  0  0  0
  2  1  1  0
  3  2  1  0
  3  5  1  0
  3  4  1  6
  5  6  2  0
  8  7  1  0
  8 18  2  0
  9  8  1  0
 10  9  2  0
 10 11  1  0
 11 17  2  0
 13 12  1  1
 12 11  1  0
 14  5  1  0
 14 13  1  0
 15 24  1  0
 15 13  1  0
 16 15  2  0
 17 18  1  0
 20 21  1  0
 20 19  1  0
 21 22  1  0
 23 24  1  0
 23 22  1  6
 25 23  1  0
 26 25  2  0
 27 25  1  0
M  END
$$$$
