SYM.pdb
     RDKit          3D

 27 27  0  0  1  0  0  0  0  0999 V2000
   30.0176  -23.9658  -16.8372 O   0  0  0  0  0  0  0  0  0  0  0  0
   28.7044  -24.1722  -17.2558 C   0  0  0  0  0  0  0  0  0  0  0  0
   28.1611  -25.4875  -16.6811 C   0  0  2  0  0  0  0  0  0  0  0  0
   28.7596  -26.5506  -17.4152 N   0  0  0  0  0  0  0  0  0  0  0  0
   26.6640  -25.4793  -16.8157 C   0  0  0  0  0  0  0  0  0  0  0  0
   26.1315  -25.8817  -17.8813 O   0  0  0  0  0  0  0  0  0  0  0  0
   18.3474  -25.4127  -13.3859 O   0  0  0  0  0  0  0  0  0  0  0  0
   19.7056  -25.4394  -13.6684 C   0  0  0  0  0  0  0  0  0  0  0  0
   20.2764  -26.4333  -14.4295 C   0  0  0  0  0  0  0  0  0  0  0  0
   21.6264  -26.4538  -14.7062 C   0  0  0  0  0  0  0  0  0  0  0  0
   22.4851  -25.4596  -14.2238 C   0  0  0  0  0  0  0  0  0  0  0  0
   23.9163  -25.5481  -14.5215 C   0  0  0  0  0  0  0  0  0  0  0  0
   24.3742  -25.0486  -15.8420 C   0  0  2  0  0  0  0  0  0  0  0  0
   25.8533  -25.0265  -15.7627 N   0  0  0  0  0  0  0  0  0  0  0  0
   23.9267  -23.6788  -16.1472 C   0  0  0  0  0  0  0  0  0  0  0  0
   24.4968  -22.7364  -15.4802 O   0  0  0  0  0  0  0  0  0  0  0  0
   21.8887  -24.4781  -13.4660 C   0  0  0  0  0  0  0  0  0  0  0  0
   20.5382  -24.4555  -13.1877 C   0  0  0  0  0  0  0  0  0  0  0  0
   24.1187  -20.0836  -21.3487 C   0  0  0  0  0  0  0  0  0  0  0  0
   22.4631  -19.7203  -20.7626 S   0  0  0  0  0  0  0  0  0  0  0  0
   22.2133  -20.1584  -19.0474 C   0  0  0  0  0  0  0  0  0  0  0  0
   22.6866  -21.4884  -18.6248 C   0  0  0  0  0  0  0  0  0  0  0  0
   22.5697  -21.8854  -17.1753 C   0  0  2  0  0  0  0  0  0  0  0  0
   22.9512  -23.3137  -17.0927 N   0  0  0  0  0  0  0  0  0  0  0  0
   21.2196  -21.6938  -16.6594 C   0  0  0  0  0  0  0  0  0  0  0  0
   20.4323  -22.6634  -16.5553 O   0  0  0  0  0  0  0  0  0  0  0  0
   20.6842  -20.4637  -16.2433 O   0  0  0  0  0  0  0  0  0  0  0  0
  2  1  1  0
  3  2  1  0
  3  5  1  0
  3  4  1  6
  5  6  2  0
  8  7  1  0
  8 18  2  0
  9  8  1  0
 10  9  2  0
 10 11  1  0
 11 17  2  0
 13 12  1  1
 12 11  1  0
 14  5  1  0
 14 13  1  0
 15 24  1  0
 15 13  1  0
 16 15  2  0
 17 18  1  0
 20 21  1  0
 20 19  1  0
 21 22  1  0
 23 24  1  0
 23 22  1  6
 25 23  1  0
 26 25  2  0
 27 25  1  0
M  END
$$$$
