SYM.pdb
     RDKit          3D

 27 27  0  0  1  0  0  0  0  0999 V2000
   29.7051  -21.0723  -16.9153 O   0  0  0  0  0  0  0  0  0  0  0  0
   29.0179  -20.4017  -15.9051 C   0  0  0  0  0  0  0  0  0  0  0  0
   27.5242  -20.3095  -16.2456 C   0  0  2  0  0  0  0  0  0  0  0  0
   27.3874  -19.3649  -17.3023 N   0  0  0  0  0  0  0  0  0  0  0  0
   26.7827  -19.8861  -15.0085 C   0  0  0  0  0  0  0  0  0  0  0  0
   26.7884  -18.6777  -14.6610 O   0  0  0  0  0  0  0  0  0  0  0  0
   19.5816  -20.1519   -9.8312 O   0  0  0  0  0  0  0  0  0  0  0  0
   20.6246  -20.3766  -10.7182 C   0  0  0  0  0  0  0  0  0  0  0  0
   21.1914  -21.6193  -10.8833 C   0  0  0  0  0  0  0  0  0  0  0  0
   22.2274  -21.8354  -11.7662 C   0  0  0  0  0  0  0  0  0  0  0  0
   22.7547  -20.7959  -12.5407 C   0  0  0  0  0  0  0  0  0  0  0  0
   23.8769  -21.0750  -13.4394 C   0  0  0  0  0  0  0  0  0  0  0  0
   25.1762  -20.4249  -13.1362 C   0  0  2  0  0  0  0  0  0  0  0  0
   26.0832  -20.8270  -14.2362 N   0  0  0  0  0  0  0  0  0  0  0  0
   25.7857  -20.8749  -11.8730 C   0  0  0  0  0  0  0  0  0  0  0  0
   26.0915  -22.1239  -11.8067 O   0  0  0  0  0  0  0  0  0  0  0  0
   22.1699  -19.5640  -12.3562 C   0  0  0  0  0  0  0  0  0  0  0  0
   21.1333  -19.3454  -11.4734 C   0  0  0  0  0  0  0  0  0  0  0  0
   28.3905  -19.4489   -4.4803 C   0  0  0  0  0  0  0  0  0  0  0  0
   28.0862  -18.8985   -6.1600 S   0  0  0  0  0  0  0  0  0  0  0  0
   27.2222  -20.1103   -7.1505 C   0  0  0  0  0  0  0  0  0  0  0  0
   27.0349  -19.7921   -8.5770 C   0  0  0  0  0  0  0  0  0  0  0  0
   26.2642  -20.7493   -9.4501 C   0  0  2  0  0  0  0  0  0  0  0  0
   26.0649  -20.0723  -10.7518 N   0  0  0  0  0  0  0  0  0  0  0  0
   24.9773  -21.1110   -8.8679 C   0  0  0  0  0  0  0  0  0  0  0  0
   23.9365  -20.4878   -9.1826 O   0  0  0  0  0  0  0  0  0  0  0  0
   24.7765  -22.1457   -7.9395 O   0  0  0  0  0  0  0  0  0  0  0  0
  2  1  1  0
  3  2  1  0
  3  5  1  0
  3  4  1  6
  5  6  2  0
  8  7  1  0
  8 18  2  0
  9  8  1  0
 10  9  2  0
 10 11  1  0
 11 17  2  0
 13 12  1  6
 12 11  1  0
 14  5  1  0
 14 13  1  0
 15 24  1  0
 15 13  1  0
 16 15  2  0
 17 18  1  0
 20 21  1  0
 20 19  1  0
 21 22  1  0
 23 24  1  0
 23 22  1  1
 25 23  1  0
 26 25  2  0
 27 25  1  0
M  END
$$$$
