SYM.pdb
     RDKit          3D

 27 27  0  0  1  0  0  0  0  0999 V2000
   27.0486  -20.7465  -18.2992 O   0  0  0  0  0  0  0  0  0  0  0  0
   28.2343  -20.5178  -17.6032 C   0  0  0  0  0  0  0  0  0  0  0  0
   28.5784  -21.7268  -16.7227 C   0  0  2  0  0  0  0  0  0  0  0  0
   28.7170  -22.8527  -17.5832 N   0  0  0  0  0  0  0  0  0  0  0  0
   27.4726  -21.9123  -15.7216 C   0  0  0  0  0  0  0  0  0  0  0  0
   26.6955  -22.8953  -15.8258 O   0  0  0  0  0  0  0  0  0  0  0  0
   23.2510  -20.4231   -7.9589 O   0  0  0  0  0  0  0  0  0  0  0  0
   24.1196  -20.4545   -9.0405 C   0  0  0  0  0  0  0  0  0  0  0  0
   23.8441  -19.8035  -10.2208 C   0  0  0  0  0  0  0  0  0  0  0  0
   24.7114  -19.8389  -11.2913 C   0  0  0  0  0  0  0  0  0  0  0  0
   25.9197  -20.5422  -11.2283 C   0  0  0  0  0  0  0  0  0  0  0  0
   26.7888  -20.5730  -12.4066 C   0  0  0  0  0  0  0  0  0  0  0  0
   26.2361  -21.1634  -13.6511 C   0  0  2  0  0  0  0  0  0  0  0  0
   27.2984  -20.9983  -14.6703 N   0  0  0  0  0  0  0  0  0  0  0  0
   25.0324  -20.4773  -14.1511 C   0  0  0  0  0  0  0  0  0  0  0  0
   25.2221  -19.3215  -14.6861 O   0  0  0  0  0  0  0  0  0  0  0  0
   26.1705  -21.1838  -10.0371 C   0  0  0  0  0  0  0  0  0  0  0  0
   25.3041  -21.1499   -8.9646 C   0  0  0  0  0  0  0  0  0  0  0  0
   19.0949  -20.2999  -18.9393 C   0  0  0  0  0  0  0  0  0  0  0  0
   20.4277  -21.1335  -18.0758 S   0  0  0  0  0  0  0  0  0  0  0  0
   20.9548  -20.2731  -16.6001 C   0  0  0  0  0  0  0  0  0  0  0  0
   22.1150  -20.8312  -15.8832 C   0  0  0  0  0  0  0  0  0  0  0  0
   22.6401  -20.1175  -14.6637 C   0  0  2  0  0  0  0  0  0  0  0  0
   23.7147  -20.9676  -14.1024 N   0  0  0  0  0  0  0  0  0  0  0  0
   21.6006  -19.8950  -13.6659 C   0  0  0  0  0  0  0  0  0  0  0  0
   21.4154  -20.7211  -12.7418 O   0  0  0  0  0  0  0  0  0  0  0  0
   20.7395  -18.7858  -13.6345 O   0  0  0  0  0  0  0  0  0  0  0  0
  2  1  1  0
  3  2  1  0
  3  5  1  0
  3  4  1  6
  5  6  2  0
  8  7  1  0
  8 18  2  0
  9  8  1  0
 10  9  2  0
 10 11  1  0
 11 17  2  0
 13 12  1  1
 12 11  1  0
 14  5  1  0
 14 13  1  0
 15 24  1  0
 15 13  1  0
 16 15  2  0
 17 18  1  0
 20 21  1  0
 20 19  1  0
 21 22  1  0
 23 24  1  0
 23 22  1  6
 25 23  1  0
 26 25  2  0
 27 25  1  0
M  END
$$$$
