SYM.pdb
     RDKit          3D

 27 27  0  0  1  0  0  0  0  0999 V2000
   14.2368  -12.3724  -17.3996 O   0  0  0  0  0  0  0  0  0  0  0  0
   14.8166  -12.3348  -16.1327 C   0  0  0  0  0  0  0  0  0  0  0  0
   16.3468  -12.3734  -16.2443 C   0  0  2  0  0  0  0  0  0  0  0  0
   16.7343  -13.7427  -16.2924 N   0  0  0  0  0  0  0  0  0  0  0  0
   16.9256  -11.6628  -15.0528 C   0  0  0  0  0  0  0  0  0  0  0  0
   16.9664  -12.2447  -13.9389 O   0  0  0  0  0  0  0  0  0  0  0  0
   22.3105   -5.5151  -11.3430 O   0  0  0  0  0  0  0  0  0  0  0  0
   21.5727   -6.3573  -12.1625 C   0  0  0  0  0  0  0  0  0  0  0  0
   20.6857   -5.8771  -13.0983 C   0  0  0  0  0  0  0  0  0  0  0  0
   19.9559   -6.7194  -13.9090 C   0  0  0  0  0  0  0  0  0  0  0  0
   20.0830   -8.1101  -13.8186 C   0  0  0  0  0  0  0  0  0  0  0  0
   19.2593   -8.9588  -14.6825 C   0  0  0  0  0  0  0  0  0  0  0  0
   18.1191   -9.6732  -14.0560 C   0  0  2  0  0  0  0  0  0  0  0  0
   17.4216  -10.3548  -15.1711 N   0  0  0  0  0  0  0  0  0  0  0  0
   17.1450   -8.7815  -13.4036 C   0  0  0  0  0  0  0  0  0  0  0  0
   16.3151   -8.1830  -14.1852 O   0  0  0  0  0  0  0  0  0  0  0  0
   20.9763   -8.5635  -12.8753 C   0  0  0  0  0  0  0  0  0  0  0  0
   21.7076   -7.7227  -12.0629 C   0  0  0  0  0  0  0  0  0  0  0  0
   12.6656   -6.9578   -7.1765 C   0  0  0  0  0  0  0  0  0  0  0  0
   13.8787   -7.9986   -7.9900 S   0  0  0  0  0  0  0  0  0  0  0  0
   14.5275   -7.2786   -9.4921 C   0  0  0  0  0  0  0  0  0  0  0  0
   15.4093   -8.1293  -10.3107 C   0  0  0  0  0  0  0  0  0  0  0  0
   16.0132   -7.5657  -11.5717 C   0  0  2  0  0  0  0  0  0  0  0  0
   17.0384   -8.5342  -12.0228 N   0  0  0  0  0  0  0  0  0  0  0  0
   16.6173   -6.2566  -11.3552 C   0  0  0  0  0  0  0  0  0  0  0  0
   15.9006   -5.2380  -11.2152 O   0  0  0  0  0  0  0  0  0  0  0  0
   17.9981   -6.0096  -11.2826 O   0  0  0  0  0  0  0  0  0  0  0  0
  2  1  1  0
  3  2  1  0
  3  5  1  0
  3  4  1  1
  5  6  2  0
  8  7  1  0
  8 18  2  0
  9  8  1  0
 10  9  2  0
 10 11  1  0
 11 17  2  0
 13 12  1  6
 12 11  1  0
 14  5  1  0
 14 13  1  0
 15 24  1  0
 15 13  1  0
 16 15  2  0
 17 18  1  0
 20 21  1  0
 20 19  1  0
 21 22  1  0
 23 24  1  0
 23 22  1  1
 25 23  1  0
 26 25  2  0
 27 25  1  0
M  END
$$$$
