SYM.pdb
     RDKit          3D

 27 27  0  0  1  0  0  0  0  0999 V2000
   29.3295  -22.2236  -15.6996 O   0  0  0  0  0  0  0  0  0  0  0  0
   28.9181  -21.2344  -14.8081 C   0  0  0  0  0  0  0  0  0  0  0  0
   27.7125  -20.4725  -15.3750 C   0  0  2  0  0  0  0  0  0  0  0  0
   28.2200  -19.3941  -16.1539 N   0  0  0  0  0  0  0  0  0  0  0  0
   26.8725  -19.9934  -14.2241 C   0  0  0  0  0  0  0  0  0  0  0  0
   27.0181  -18.8219  -13.7911 O   0  0  0  0  0  0  0  0  0  0  0  0
   19.2610  -19.4943   -9.6368 O   0  0  0  0  0  0  0  0  0  0  0  0
   20.3446  -19.8463  -10.4286 C   0  0  0  0  0  0  0  0  0  0  0  0
   20.9777  -18.9410  -11.2487 C   0  0  0  0  0  0  0  0  0  0  0  0
   22.0537  -19.2974  -12.0327 C   0  0  0  0  0  0  0  0  0  0  0  0
   22.5560  -20.6036  -12.0320 C   0  0  0  0  0  0  0  0  0  0  0  0
   23.6812  -20.9351  -12.9088 C   0  0  0  0  0  0  0  0  0  0  0  0
   25.0100  -20.3725  -12.5616 C   0  0  2  0  0  0  0  0  0  0  0  0
   25.9262  -20.8414  -13.6271 N   0  0  0  0  0  0  0  0  0  0  0  0
   25.5425  -20.8553  -11.2758 C   0  0  0  0  0  0  0  0  0  0  0  0
   25.9243  -22.0847  -11.2483 O   0  0  0  0  0  0  0  0  0  0  0  0
   21.9049  -21.4884  -11.2033 C   0  0  0  0  0  0  0  0  0  0  0  0
   20.8281  -21.1341  -10.4180 C   0  0  0  0  0  0  0  0  0  0  0  0
   28.6151  -19.5031   -4.0828 C   0  0  0  0  0  0  0  0  0  0  0  0
   28.1958  -18.9624   -5.7406 S   0  0  0  0  0  0  0  0  0  0  0  0
   27.2324  -20.1638   -6.6486 C   0  0  0  0  0  0  0  0  0  0  0  0
   26.8492  -19.8057   -8.0257 C   0  0  0  0  0  0  0  0  0  0  0  0
   26.1066  -20.8109   -8.8686 C   0  0  2  0  0  0  0  0  0  0  0  0
   25.6747  -20.1023  -10.0949 N   0  0  0  0  0  0  0  0  0  0  0  0
   24.9512  -21.3655   -8.1735 C   0  0  0  0  0  0  0  0  0  0  0  0
   25.0928  -22.2812   -7.3296 O   0  0  0  0  0  0  0  0  0  0  0  0
   23.6224  -20.9524   -8.3650 O   0  0  0  0  0  0  0  0  0  0  0  0
  2  1  1  0
  3  2  1  0
  3  5  1  0
  3  4  1  1
  5  6  2  0
  8  7  1  0
  8 18  2  0
  9  8  1  0
 10  9  2  0
 10 11  1  0
 11 17  2  0
 13 12  1  6
 12 11  1  0
 14  5  1  0
 14 13  1  0
 15 24  1  0
 15 13  1  0
 16 15  2  0
 17 18  1  0
 20 21  1  0
 20 19  1  0
 21 22  1  0
 23 24  1  0
 23 22  1  1
 25 23  1  0
 26 25  2  0
 27 25  1  0
M  END
$$$$
