SYM.pdb
     RDKit          3D

 27 27  0  0  1  0  0  0  0  0999 V2000
   20.4129   -8.2271  -13.0277 O   0  0  0  0  0  0  0  0  0  0  0  0
   19.1000   -7.8082  -12.8192 C   0  0  0  0  0  0  0  0  0  0  0  0
   18.3017   -8.8969  -12.0891 C   0  0  2  0  0  0  0  0  0  0  0  0
   18.0897   -9.9593  -13.0130 N   0  0  0  0  0  0  0  0  0  0  0  0
   17.0094   -8.2954  -11.6119 C   0  0  0  0  0  0  0  0  0  0  0  0
   16.0484   -8.1668  -12.4124 O   0  0  0  0  0  0  0  0  0  0  0  0
   10.5242   -6.1664   -5.9432 O   0  0  0  0  0  0  0  0  0  0  0  0
   11.6976   -6.5769   -6.5595 C   0  0  0  0  0  0  0  0  0  0  0  0
   12.9054   -5.9636   -6.3184 C   0  0  0  0  0  0  0  0  0  0  0  0
   14.0672   -6.3765   -6.9341 C   0  0  0  0  0  0  0  0  0  0  0  0
   14.0737   -7.4446   -7.8383 C   0  0  0  0  0  0  0  0  0  0  0  0
   15.3312   -7.8207   -8.4882 C   0  0  0  0  0  0  0  0  0  0  0  0
   15.6401   -7.1947   -9.7980 C   0  0  2  0  0  0  0  0  0  0  0  0
   16.8643   -7.8754  -10.2801 N   0  0  0  0  0  0  0  0  0  0  0  0
   15.9383   -5.7547   -9.7132 C   0  0  0  0  0  0  0  0  0  0  0  0
   17.0778   -5.4431   -9.2008 O   0  0  0  0  0  0  0  0  0  0  0  0
   12.8533   -8.0399   -8.0611 C   0  0  0  0  0  0  0  0  0  0  0  0
   11.6895   -7.6285   -7.4463 C   0  0  0  0  0  0  0  0  0  0  0  0
   15.7929    1.2250  -13.2264 C   0  0  0  0  0  0  0  0  0  0  0  0
   15.4884   -0.5414  -13.1639 S   0  0  0  0  0  0  0  0  0  0  0  0
   15.6884   -1.2311  -11.5267 C   0  0  0  0  0  0  0  0  0  0  0  0
   15.3835   -2.6638  -11.3666 C   0  0  0  0  0  0  0  0  0  0  0  0
   15.6222   -3.3230  -10.0321 C   0  0  2  0  0  0  0  0  0  0  0  0
   15.1044   -4.7059  -10.1413 N   0  0  0  0  0  0  0  0  0  0  0  0
   14.9549   -2.6194   -8.9434 C   0  0  0  0  0  0  0  0  0  0  0  0
   13.8374   -3.0033   -8.5254 O   0  0  0  0  0  0  0  0  0  0  0  0
   15.4679   -1.4933   -8.2790 O   0  0  0  0  0  0  0  0  0  0  0  0
  2  1  1  0
  3  2  1  0
  3  5  1  0
  3  4  1  6
  5  6  2  0
  8  7  1  0
  8 18  2  0
  9  8  1  0
 10  9  2  0
 10 11  1  0
 11 17  2  0
 13 12  1  1
 12 11  1  0
 14  5  1  0
 14 13  1  0
 15 24  1  0
 15 13  1  0
 16 15  2  0
 17 18  1  0
 20 21  1  0
 20 19  1  0
 21 22  1  0
 23 24  1  0
 23 22  1  6
 25 23  1  0
 26 25  2  0
 27 25  1  0
M  END
$$$$
