SYM.pdb
     RDKit          3D

 27 27  0  0  1  0  0  0  0  0999 V2000
   22.0295  -19.4684  -15.1539 O   0  0  0  0  0  0  0  0  0  0  0  0
   22.5932  -18.5755  -16.0636 C   0  0  0  0  0  0  0  0  0  0  0  0
   23.6519  -19.2831  -16.9203 C   0  0  2  0  0  0  0  0  0  0  0  0
   22.9635  -20.1535  -17.8124 N   0  0  0  0  0  0  0  0  0  0  0  0
   24.5794  -20.0305  -16.0033 C   0  0  0  0  0  0  0  0  0  0  0  0
   24.4388  -21.2705  -15.8497 O   0  0  0  0  0  0  0  0  0  0  0  0
   30.6166  -21.6915  -19.2194 O   0  0  0  0  0  0  0  0  0  0  0  0
   29.9416  -21.1728  -18.1237 C   0  0  0  0  0  0  0  0  0  0  0  0
   29.4031  -19.9067  -18.1268 C   0  0  0  0  0  0  0  0  0  0  0  0
   28.7338  -19.3977  -17.0349 C   0  0  0  0  0  0  0  0  0  0  0  0
   28.5692  -20.1481  -15.8652 C   0  0  0  0  0  0  0  0  0  0  0  0
   27.8775  -19.5459  -14.7234 C   0  0  0  0  0  0  0  0  0  0  0  0
   26.5244  -20.0588  -14.3931 C   0  0  2  0  0  0  0  0  0  0  0  0
   25.6020  -19.3575  -15.3160 N   0  0  0  0  0  0  0  0  0  0  0  0
   26.0921  -19.7537  -13.0185 C   0  0  0  0  0  0  0  0  0  0  0  0
   25.5150  -18.6155  -12.8473 O   0  0  0  0  0  0  0  0  0  0  0  0
   29.1169  -21.4102  -15.8888 C   0  0  0  0  0  0  0  0  0  0  0  0
   29.7871  -21.9217  -16.9802 C   0  0  0  0  0  0  0  0  0  0  0  0
   20.1145  -20.0622   -9.1983 C   0  0  0  0  0  0  0  0  0  0  0  0
   21.2992  -20.5770  -10.4425 S   0  0  0  0  0  0  0  0  0  0  0  0
   22.9918  -20.2206   -9.9906 C   0  0  0  0  0  0  0  0  0  0  0  0
   24.0143  -20.4176  -11.0332 C   0  0  0  0  0  0  0  0  0  0  0  0
   25.4699  -20.2527  -10.6778 C   0  0  2  0  0  0  0  0  0  0  0  0
   26.2458  -20.5853  -11.8942 N   0  0  0  0  0  0  0  0  0  0  0  0
   25.8683  -21.1176   -9.5737 C   0  0  0  0  0  0  0  0  0  0  0  0
   26.2615  -22.2879   -9.7894 O   0  0  0  0  0  0  0  0  0  0  0  0
   25.8559  -20.7496   -8.2183 O   0  0  0  0  0  0  0  0  0  0  0  0
  2  1  1  0
  3  2  1  0
  3  5  1  0
  3  4  1  6
  5  6  2  0
  8  7  1  0
  8 18  2  0
  9  8  1  0
 10  9  2  0
 10 11  1  0
 11 17  2  0
 13 12  1  1
 12 11  1  0
 14  5  1  0
 14 13  1  0
 15 24  1  0
 15 13  1  0
 16 15  2  0
 17 18  1  0
 20 21  1  0
 20 19  1  0
 21 22  1  0
 23 24  1  0
 23 22  1  6
 25 23  1  0
 26 25  2  0
 27 25  1  0
M  END
$$$$
