HWH.pdb
     RDKit          3D

 35 38  0  0  1  0  0  0  0  0999 V2000
   10.8861  -16.3275   18.6656 N   0  0  0  0  0  0  0  0  0  0  0  0
   10.0432  -17.0918   19.5697 C   0  0  1  0  0  0  0  0  0  0  0  0
   10.7839  -18.3993   19.8187 C   0  0  0  0  0  0  0  0  0  0  0  0
   10.7098  -19.2097   18.5869 C   0  0  0  0  0  0  0  0  0  0  0  0
   10.0969  -18.7756   17.4174 C   0  0  0  0  0  0  0  0  0  0  0  0
   10.2437  -19.7980   16.5377 N   0  0  0  0  0  0  0  0  0  0  0  0
   10.8968  -20.8130   17.0859 C   0  0  0  0  0  0  0  0  0  0  0  0
   11.1807  -20.4426   18.3492 N   0  0  0  0  0  0  0  0  0  0  0  0
    9.9371  -16.4150   20.8866 C   0  0  0  0  0  0  0  0  0  0  0  0
   10.9217  -15.7432   21.2768 O   0  0  0  0  0  0  0  0  0  0  0  0
    8.8057  -16.4853   21.7114 N   0  0  0  0  0  0  0  0  0  0  0  0
    8.6946  -15.8023   23.0177 C   0  0  1  0  0  0  0  0  0  0  0  0
    7.2591  -15.5342   23.3149 C   0  0  0  0  0  0  0  0  0  0  0  0
    7.0211  -15.0339   24.6689 C   0  0  0  0  0  0  0  0  0  0  0  0
    6.5597  -15.7338   25.7617 C   0  0  0  0  0  0  0  0  0  0  0  0
    6.4428  -14.9261   26.8235 N   0  0  0  0  0  0  0  0  0  0  0  0
    6.8139  -13.6841   26.4859 C   0  0  0  0  0  0  0  0  0  0  0  0
    6.8597  -12.5411   27.2311 C   0  0  0  0  0  0  0  0  0  0  0  0
    7.2837  -11.3789   26.6385 C   0  0  0  0  0  0  0  0  0  0  0  0
    7.6509  -11.4107   25.2994 C   0  0  0  0  0  0  0  0  0  0  0  0
    7.5962  -12.5720   24.5722 C   0  0  0  0  0  0  0  0  0  0  0  0
    7.1798  -13.7381   25.1339 C   0  0  0  0  0  0  0  0  0  0  0  0
    9.4352  -16.5827   24.0324 C   0  0  0  0  0  0  0  0  0  0  0  0
    9.1515  -17.8428   24.1404 O   0  0  0  0  0  0  0  0  0  0  0  0
   10.4311  -16.0944   24.8969 N   0  0  0  0  0  0  0  0  0  0  0  0
   11.0329  -16.9008   25.9501 C   0  0  1  0  0  0  0  0  0  0  0  0
   12.4933  -16.5575   26.1247 C   0  0  0  0  0  0  0  0  0  0  0  0
   13.2533  -17.0598   24.9655 C   0  0  0  0  0  0  0  0  0  0  0  0
   12.7223  -17.8014   23.9033 C   0  0  0  0  0  0  0  0  0  0  0  0
   13.7132  -18.0806   23.0406 N   0  0  0  0  0  0  0  0  0  0  0  0
   14.8347  -17.5519   23.5091 C   0  0  0  0  0  0  0  0  0  0  0  0
   14.5573  -16.9397   24.6639 N   0  0  0  0  0  0  0  0  0  0  0  0
   10.3286  -16.7022   27.2173 C   0  0  0  0  0  0  0  0  0  0  0  0
   10.7649  -17.2934   28.2544 O   0  0  0  0  0  0  0  0  0  0  0  0
    9.1998  -15.8948   27.3575 O   0  0  0  0  0  0  0  0  0  0  0  0
  2  1  1  6
  3  2  1  0
  3  4  1  0
  4  5  2  0
  5  6  1  0
  7  6  1  0
  8  4  1  0
  8  7  2  0
  9 10  2  0
  9  2  1  0
 11  9  1  0
 12 23  1  0
 12 11  1  0
 12 13  1  1
 14 13  1  0
 15 14  2  0
 16 15  1  0
 17 16  1  0
 17 22  2  0
 18 19  2  0
 18 17  1  0
 19 20  1  0
 20 21  2  0
 22 21  1  0
 22 14  1  0
 23 25  1  0
 24 23  2  0
 25 26  1  0
 26 27  1  1
 27 28  1  0
 28 29  2  0
 28 32  1  0
 29 30  1  0
 30 31  1  0
 32 31  2  0
 33 35  1  0
 33 26  1  0
 34 33  2  0
M  END
$$$$
