HWH.pdb
     RDKit          3D

 35 38  0  0  1  0  0  0  0  0999 V2000
    7.8115  -16.4351   20.7024 N   0  0  0  0  0  0  0  0  0  0  0  0
    9.0857  -16.9815   21.1382 C   0  0  1  0  0  0  0  0  0  0  0  0
   10.1329  -16.3766   20.2122 C   0  0  0  0  0  0  0  0  0  0  0  0
   10.1178  -17.1353   18.9458 C   0  0  0  0  0  0  0  0  0  0  0  0
    9.2393  -18.1807   18.6869 C   0  0  0  0  0  0  0  0  0  0  0  0
    9.5472  -18.6029   17.4349 N   0  0  0  0  0  0  0  0  0  0  0  0
   10.5418  -17.8938   16.9201 C   0  0  0  0  0  0  0  0  0  0  0  0
   10.8881  -16.9910   17.8576 N   0  0  0  0  0  0  0  0  0  0  0  0
    9.4177  -16.5120   22.5068 C   0  0  0  0  0  0  0  0  0  0  0  0
    9.9828  -15.3979   22.6188 O   0  0  0  0  0  0  0  0  0  0  0  0
    9.1366  -17.2399   23.6714 N   0  0  0  0  0  0  0  0  0  0  0  0
    9.5512  -16.8190   25.0264 C   0  0  1  0  0  0  0  0  0  0  0  0
    8.3796  -16.8853   25.9449 C   0  0  0  0  0  0  0  0  0  0  0  0
    7.3859  -15.8377   25.7093 C   0  0  0  0  0  0  0  0  0  0  0  0
    6.1551  -15.9584   25.1030 C   0  0  0  0  0  0  0  0  0  0  0  0
    5.5406  -14.7700   25.0436 N   0  0  0  0  0  0  0  0  0  0  0  0
    6.3215  -13.8326   25.5962 C   0  0  0  0  0  0  0  0  0  0  0  0
    6.1153  -12.4929   25.7593 C   0  0  0  0  0  0  0  0  0  0  0  0
    7.0886  -11.7405   26.3662 C   0  0  0  0  0  0  0  0  0  0  0  0
    8.2493  -12.3732   26.7924 C   0  0  0  0  0  0  0  0  0  0  0  0
    8.4326  -13.7208   26.6171 C   0  0  0  0  0  0  0  0  0  0  0  0
    7.4848  -14.4905   26.0188 C   0  0  0  0  0  0  0  0  0  0  0  0
   10.7402  -17.6006   25.4296 C   0  0  0  0  0  0  0  0  0  0  0  0
   10.6691  -18.8908   25.3278 O   0  0  0  0  0  0  0  0  0  0  0  0
   11.9555  -17.0821   25.9110 N   0  0  0  0  0  0  0  0  0  0  0  0
   13.0371  -17.9234   26.4048 C   0  0  1  0  0  0  0  0  0  0  0  0
   14.3583  -17.1939   26.3455 C   0  0  0  0  0  0  0  0  0  0  0  0
   14.6673  -16.8599   24.9431 C   0  0  0  0  0  0  0  0  0  0  0  0
   14.2683  -17.5995   23.8232 C   0  0  0  0  0  0  0  0  0  0  0  0
   14.7363  -16.9906   22.7212 N   0  0  0  0  0  0  0  0  0  0  0  0
   15.4064  -15.9099   23.0950 C   0  0  0  0  0  0  0  0  0  0  0  0
   15.3642  -15.8326   24.4283 N   0  0  0  0  0  0  0  0  0  0  0  0
   12.7736  -18.3472   27.7804 C   0  0  0  0  0  0  0  0  0  0  0  0
   13.6477  -19.0500   28.3781 O   0  0  0  0  0  0  0  0  0  0  0  0
   11.6126  -18.0218   28.4818 O   0  0  0  0  0  0  0  0  0  0  0  0
  2  1  1  6
  3  2  1  0
  3  4  1  0
  4  5  2  0
  5  6  1  0
  7  6  1  0
  8  4  1  0
  8  7  2  0
  9 10  2  0
  9  2  1  0
 11  9  1  0
 12 23  1  0
 12 11  1  0
 12 13  1  1
 14 13  1  0
 15 14  2  0
 16 15  1  0
 17 16  1  0
 17 22  2  0
 18 19  2  0
 18 17  1  0
 19 20  1  0
 20 21  2  0
 22 21  1  0
 22 14  1  0
 23 25  1  0
 24 23  2  0
 25 26  1  0
 26 27  1  1
 27 28  1  0
 28 29  2  0
 28 32  1  0
 29 30  1  0
 30 31  1  0
 32 31  2  0
 33 35  1  0
 33 26  1  0
 34 33  2  0
M  END
$$$$
