HWH.pdb
     RDKit          3D

 35 38  0  0  1  0  0  0  0  0999 V2000
    9.0460  -17.3979   18.5469 N   0  0  0  0  0  0  0  0  0  0  0  0
    8.8869  -18.3271   19.6530 C   0  0  1  0  0  0  0  0  0  0  0  0
    9.9282  -19.4162   19.4306 C   0  0  0  0  0  0  0  0  0  0  0  0
    9.5964  -20.1178   18.1747 C   0  0  0  0  0  0  0  0  0  0  0  0
    8.6432  -21.1254   18.0863 C   0  0  0  0  0  0  0  0  0  0  0  0
    8.6416  -21.5008   16.7825 N   0  0  0  0  0  0  0  0  0  0  0  0
    9.5189  -20.7983   16.0797 C   0  0  0  0  0  0  0  0  0  0  0  0
   10.1034  -19.9478   16.9449 N   0  0  0  0  0  0  0  0  0  0  0  0
    9.2337  -17.6747   20.9406 C   0  0  0  0  0  0  0  0  0  0  0  0
   10.4224  -17.7559   21.3326 O   0  0  0  0  0  0  0  0  0  0  0  0
    8.3128  -16.9787   21.7360 N   0  0  0  0  0  0  0  0  0  0  0  0
    8.6794  -16.2274   22.9551 C   0  0  1  0  0  0  0  0  0  0  0  0
    7.8134  -15.0201   23.0709 C   0  0  0  0  0  0  0  0  0  0  0  0
    8.1489  -14.1609   24.2065 C   0  0  0  0  0  0  0  0  0  0  0  0
    9.3912  -13.6993   24.5817 C   0  0  0  0  0  0  0  0  0  0  0  0
    9.3026  -12.9596   25.6945 N   0  0  0  0  0  0  0  0  0  0  0  0
    8.0257  -12.9013   26.0945 C   0  0  0  0  0  0  0  0  0  0  0  0
    7.4620  -12.2696   27.1656 C   0  0  0  0  0  0  0  0  0  0  0  0
    6.1071  -12.3671   27.3561 C   0  0  0  0  0  0  0  0  0  0  0  0
    5.3594  -13.1069   26.4490 C   0  0  0  0  0  0  0  0  0  0  0  0
    5.9492  -13.7321   25.3807 C   0  0  0  0  0  0  0  0  0  0  0  0
    7.2898  -13.6524   25.1677 C   0  0  0  0  0  0  0  0  0  0  0  0
    8.6677  -17.1507   24.1103 C   0  0  0  0  0  0  0  0  0  0  0  0
    7.5386  -17.7082   24.4175 O   0  0  0  0  0  0  0  0  0  0  0  0
    9.7689  -17.4950   24.9143 N   0  0  0  0  0  0  0  0  0  0  0  0
    9.7224  -17.4855   26.3701 C   0  0  1  0  0  0  0  0  0  0  0  0
    9.0449  -16.2357   26.8802 C   0  0  0  0  0  0  0  0  0  0  0  0
    9.9574  -15.5265   27.7957 C   0  0  0  0  0  0  0  0  0  0  0  0
   10.9083  -16.1308   28.6269 C   0  0  0  0  0  0  0  0  0  0  0  0
   11.5470  -15.1692   29.3136 N   0  0  0  0  0  0  0  0  0  0  0  0
   11.0442  -13.9967   28.9543 C   0  0  0  0  0  0  0  0  0  0  0  0
   10.0906  -14.2125   28.0435 N   0  0  0  0  0  0  0  0  0  0  0  0
    9.0152  -18.6646   26.8709 C   0  0  0  0  0  0  0  0  0  0  0  0
    7.7878  -18.8088   26.5745 O   0  0  0  0  0  0  0  0  0  0  0  0
    9.6123  -19.6491   27.6583 O   0  0  0  0  0  0  0  0  0  0  0  0
  2  1  1  6
  3  2  1  0
  3  4  1  0
  4  5  2  0
  5  6  1  0
  7  6  1  0
  8  4  1  0
  8  7  2  0
  9 10  2  0
  9  2  1  0
 11  9  1  0
 12 23  1  0
 12 11  1  0
 12 13  1  1
 14 13  1  0
 15 14  2  0
 16 15  1  0
 17 16  1  0
 17 22  2  0
 18 19  2  0
 18 17  1  0
 19 20  1  0
 20 21  2  0
 22 21  1  0
 22 14  1  0
 23 25  1  0
 24 23  2  0
 25 26  1  0
 26 27  1  6
 27 28  1  0
 28 29  2  0
 28 32  1  0
 29 30  1  0
 30 31  1  0
 32 31  2  0
 33 35  1  0
 33 26  1  0
 34 33  2  0
M  END
$$$$
