HWH.pdb
     RDKit          3D

 35 38  0  0  1  0  0  0  0  0999 V2000
    7.7822  -13.3895   20.3149 N   0  0  0  0  0  0  0  0  0  0  0  0
    8.0384  -14.8032   20.5335 C   0  0  1  0  0  0  0  0  0  0  0  0
    9.0110  -15.2210   19.4382 C   0  0  0  0  0  0  0  0  0  0  0  0
    8.3046  -15.1435   18.1442 C   0  0  0  0  0  0  0  0  0  0  0  0
    8.5299  -14.1446   17.2044 C   0  0  0  0  0  0  0  0  0  0  0  0
    7.6949  -14.4302   16.1739 N   0  0  0  0  0  0  0  0  0  0  0  0
    6.9850  -15.5224   16.4198 C   0  0  0  0  0  0  0  0  0  0  0  0
    7.3666  -15.9563   17.6362 N   0  0  0  0  0  0  0  0  0  0  0  0
    8.7446  -15.0156   21.8219 C   0  0  0  0  0  0  0  0  0  0  0  0
    9.8209  -14.3982   22.0044 O   0  0  0  0  0  0  0  0  0  0  0  0
    8.2780  -15.8619   22.8375 N   0  0  0  0  0  0  0  0  0  0  0  0
    9.0004  -16.1051   24.1040 C   0  0  1  0  0  0  0  0  0  0  0  0
    8.0156  -16.3005   25.2052 C   0  0  0  0  0  0  0  0  0  0  0  0
    7.0501  -15.2089   25.3332 C   0  0  0  0  0  0  0  0  0  0  0  0
    5.7165  -15.2126   24.9889 C   0  0  0  0  0  0  0  0  0  0  0  0
    5.1649  -14.0158   25.2272 N   0  0  0  0  0  0  0  0  0  0  0  0
    6.0900  -13.1869   25.7285 C   0  0  0  0  0  0  0  0  0  0  0  0
    5.9911  -11.8819   26.1171 C   0  0  0  0  0  0  0  0  0  0  0  0
    7.1057  -11.2481   26.6046 C   0  0  0  0  0  0  0  0  0  0  0  0
    8.2949  -11.9612   26.6839 C   0  0  0  0  0  0  0  0  0  0  0  0
    8.3686  -13.2717   26.2872 C   0  0  0  0  0  0  0  0  0  0  0  0
    7.2797  -13.9245   25.8003 C   0  0  0  0  0  0  0  0  0  0  0  0
    9.9743  -17.1990   23.8993 C   0  0  0  0  0  0  0  0  0  0  0  0
   10.1499  -17.6228   22.6870 O   0  0  0  0  0  0  0  0  0  0  0  0
   10.7428  -17.8288   24.8944 N   0  0  0  0  0  0  0  0  0  0  0  0
   12.1935  -17.9406   24.8250 C   0  0  1  0  0  0  0  0  0  0  0  0
   12.8358  -16.5768   24.7315 C   0  0  0  0  0  0  0  0  0  0  0  0
   13.1714  -16.2923   23.3243 C   0  0  0  0  0  0  0  0  0  0  0  0
   12.9050  -17.1341   22.2377 C   0  0  0  0  0  0  0  0  0  0  0  0
   13.3556  -16.5422   21.1193 N   0  0  0  0  0  0  0  0  0  0  0  0
   13.8891  -15.3753   21.4514 C   0  0  0  0  0  0  0  0  0  0  0  0
   13.7779  -15.2266   22.7746 N   0  0  0  0  0  0  0  0  0  0  0  0
   12.7127  -18.6468   25.9967 C   0  0  0  0  0  0  0  0  0  0  0  0
   12.0634  -18.5751   27.0869 O   0  0  0  0  0  0  0  0  0  0  0  0
   13.8855  -19.4020   25.9887 O   0  0  0  0  0  0  0  0  0  0  0  0
  2  1  1  6
  3  2  1  0
  3  4  1  0
  4  5  2  0
  5  6  1  0
  7  6  1  0
  8  4  1  0
  8  7  2  0
  9 10  2  0
  9  2  1  0
 11  9  1  0
 12 23  1  0
 12 11  1  0
 12 13  1  1
 14 13  1  0
 15 14  2  0
 16 15  1  0
 17 16  1  0
 17 22  2  0
 18 19  2  0
 18 17  1  0
 19 20  1  0
 20 21  2  0
 22 21  1  0
 22 14  1  0
 23 25  1  0
 24 23  2  0
 25 26  1  0
 26 27  1  1
 27 28  1  0
 28 29  2  0
 28 32  1  0
 29 30  1  0
 30 31  1  0
 32 31  2  0
 33 35  1  0
 33 26  1  0
 34 33  2  0
M  END
$$$$
