HWH.pdb
     RDKit          3D

 35 38  0  0  1  0  0  0  0  0999 V2000
    6.7927  -14.9044   20.6941 N   0  0  0  0  0  0  0  0  0  0  0  0
    7.7737  -15.9314   21.0025 C   0  0  1  0  0  0  0  0  0  0  0  0
    8.8468  -15.8134   19.9279 C   0  0  0  0  0  0  0  0  0  0  0  0
    8.3559  -16.4944   18.7135 C   0  0  0  0  0  0  0  0  0  0  0  0
    7.0899  -17.0580   18.6073 C   0  0  0  0  0  0  0  0  0  0  0  0
    7.0342  -17.5752   17.3543 N   0  0  0  0  0  0  0  0  0  0  0  0
    8.1672  -17.3671   16.6983 C   0  0  0  0  0  0  0  0  0  0  0  0
    8.9769  -16.7002   17.5428 N   0  0  0  0  0  0  0  0  0  0  0  0
    8.4446  -15.6450   22.2954 C   0  0  0  0  0  0  0  0  0  0  0  0
    8.7888  -14.4606   22.5228 O   0  0  0  0  0  0  0  0  0  0  0  0
    8.7126  -16.6183   23.2681 N   0  0  0  0  0  0  0  0  0  0  0  0
    9.3546  -16.3293   24.5679 C   0  0  1  0  0  0  0  0  0  0  0  0
    8.3571  -16.5029   25.6614 C   0  0  0  0  0  0  0  0  0  0  0  0
    7.3028  -15.4887   25.6639 C   0  0  0  0  0  0  0  0  0  0  0  0
    5.9950  -15.6252   25.2542 C   0  0  0  0  0  0  0  0  0  0  0  0
    5.3382  -14.4649   25.3802 N   0  0  0  0  0  0  0  0  0  0  0  0
    6.1655  -13.5313   25.8681 C   0  0  0  0  0  0  0  0  0  0  0  0
    5.9423  -12.2162   26.1590 C   0  0  0  0  0  0  0  0  0  0  0  0
    6.9745  -11.4619   26.6563 C   0  0  0  0  0  0  0  0  0  0  0  0
    8.2100  -12.0676   26.8450 C   0  0  0  0  0  0  0  0  0  0  0  0
    8.4090  -13.3908   26.5452 C   0  0  0  0  0  0  0  0  0  0  0  0
    7.4039  -14.1618   26.0510 C   0  0  0  0  0  0  0  0  0  0  0  0
   10.5920  -17.1312   24.6815 C   0  0  0  0  0  0  0  0  0  0  0  0
   10.5292  -18.3783   24.3341 O   0  0  0  0  0  0  0  0  0  0  0  0
   11.8450  -16.6732   25.1262 N   0  0  0  0  0  0  0  0  0  0  0  0
   13.0034  -17.5446   25.2695 C   0  0  1  0  0  0  0  0  0  0  0  0
   14.2780  -16.8074   24.9335 C   0  0  0  0  0  0  0  0  0  0  0  0
   14.2236  -16.3553   23.5312 C   0  0  0  0  0  0  0  0  0  0  0  0
   14.2224  -17.1892   22.4066 C   0  0  0  0  0  0  0  0  0  0  0  0
   14.1675  -16.4210   21.3061 N   0  0  0  0  0  0  0  0  0  0  0  0
   14.1344  -15.1515   21.6854 C   0  0  0  0  0  0  0  0  0  0  0  0
   14.1680  -15.1135   23.0207 N   0  0  0  0  0  0  0  0  0  0  0  0
   13.0872  -18.0707   26.6324 C   0  0  0  0  0  0  0  0  0  0  0  0
   12.2568  -17.6510   27.4982 O   0  0  0  0  0  0  0  0  0  0  0  0
   14.0293  -19.0145   27.0414 O   0  0  0  0  0  0  0  0  0  0  0  0
  2  1  1  6
  3  2  1  0
  3  4  1  0
  4  5  2  0
  5  6  1  0
  7  6  1  0
  8  4  1  0
  8  7  2  0
  9 10  2  0
  9  2  1  0
 11  9  1  0
 12 23  1  0
 12 11  1  0
 12 13  1  1
 14 13  1  0
 15 14  2  0
 16 15  1  0
 17 16  1  0
 17 22  2  0
 18 19  2  0
 18 17  1  0
 19 20  1  0
 20 21  2  0
 22 21  1  0
 22 14  1  0
 23 25  1  0
 24 23  2  0
 25 26  1  0
 26 27  1  1
 27 28  1  0
 28 29  2  0
 28 32  1  0
 29 30  1  0
 30 31  1  0
 32 31  2  0
 33 35  1  0
 33 26  1  0
 34 33  2  0
M  END
$$$$
