HWH.pdb
     RDKit          3D

 35 38  0  0  1  0  0  0  0  0999 V2000
   10.7947  -17.7985   19.4059 N   0  0  0  0  0  0  0  0  0  0  0  0
    9.5775  -17.5897   20.1721 C   0  0  1  0  0  0  0  0  0  0  0  0
    9.0162  -18.9796   20.4424 C   0  0  0  0  0  0  0  0  0  0  0  0
    8.2722  -19.4144   19.2436 C   0  0  0  0  0  0  0  0  0  0  0  0
    8.1458  -18.6413   18.0955 C   0  0  0  0  0  0  0  0  0  0  0  0
    7.4006  -19.3887   17.2431 N   0  0  0  0  0  0  0  0  0  0  0  0
    7.0687  -20.5507   17.7880 C   0  0  0  0  0  0  0  0  0  0  0  0
    7.6098  -20.5590   19.0212 N   0  0  0  0  0  0  0  0  0  0  0  0
    9.8871  -16.9995   21.4986 C   0  0  0  0  0  0  0  0  0  0  0  0
   11.0110  -17.2464   21.9976 O   0  0  0  0  0  0  0  0  0  0  0  0
    8.9990  -16.1880   22.2183 N   0  0  0  0  0  0  0  0  0  0  0  0
    9.3405  -15.5211   23.4926 C   0  0  1  0  0  0  0  0  0  0  0  0
    8.7286  -14.1625   23.5190 C   0  0  0  0  0  0  0  0  0  0  0  0
    7.7224  -13.9896   24.5667 C   0  0  0  0  0  0  0  0  0  0  0  0
    6.7838  -14.9004   24.9986 C   0  0  0  0  0  0  0  0  0  0  0  0
    6.0164  -14.3674   25.9580 N   0  0  0  0  0  0  0  0  0  0  0  0
    6.4060  -13.1083   26.1968 C   0  0  0  0  0  0  0  0  0  0  0  0
    5.9231  -12.1850   27.0790 C   0  0  0  0  0  0  0  0  0  0  0  0
    6.5076  -10.9450   27.1284 C   0  0  0  0  0  0  0  0  0  0  0  0
    7.5712  -10.6767   26.2765 C   0  0  0  0  0  0  0  0  0  0  0  0
    8.0382  -11.6213   25.3991 C   0  0  0  0  0  0  0  0  0  0  0  0
    7.4778  -12.8582   25.3289 C   0  0  0  0  0  0  0  0  0  0  0  0
    8.9856  -16.4173   24.6142 C   0  0  0  0  0  0  0  0  0  0  0  0
    7.9132  -17.1344   24.4889 O   0  0  0  0  0  0  0  0  0  0  0  0
    9.7034  -16.5781   25.8127 N   0  0  0  0  0  0  0  0  0  0  0  0
   10.0871  -17.8809   26.3392 C   0  0  1  0  0  0  0  0  0  0  0  0
   10.9370  -18.6357   25.3447 C   0  0  0  0  0  0  0  0  0  0  0  0
   11.3304  -19.9323   25.9260 C   0  0  0  0  0  0  0  0  0  0  0  0
   10.9957  -20.3848   27.2080 C   0  0  0  0  0  0  0  0  0  0  0  0
   11.5311  -21.6042   27.3832 N   0  0  0  0  0  0  0  0  0  0  0  0
   12.1824  -21.9360   26.2776 C   0  0  0  0  0  0  0  0  0  0  0  0
   12.0611  -20.9321   25.4041 N   0  0  0  0  0  0  0  0  0  0  0  0
   10.8206  -17.7329   27.5968 C   0  0  0  0  0  0  0  0  0  0  0  0
   11.2582  -18.7784   28.1719 O   0  0  0  0  0  0  0  0  0  0  0  0
   11.0726  -16.5037   28.2060 O   0  0  0  0  0  0  0  0  0  0  0  0
  2  1  1  6
  3  2  1  0
  3  4  1  0
  4  5  2  0
  5  6  1  0
  7  6  1  0
  8  4  1  0
  8  7  2  0
  9 10  2  0
  9  2  1  0
 11  9  1  0
 12 23  1  0
 12 11  1  0
 12 13  1  1
 14 13  1  0
 15 14  2  0
 16 15  1  0
 17 16  1  0
 17 22  2  0
 18 19  2  0
 18 17  1  0
 19 20  1  0
 20 21  2  0
 22 21  1  0
 22 14  1  0
 23 25  1  0
 24 23  2  0
 25 26  1  0
 26 27  1  6
 27 28  1  0
 28 29  2  0
 28 32  1  0
 29 30  1  0
 30 31  1  0
 32 31  2  0
 33 35  1  0
 33 26  1  0
 34 33  2  0
M  END
$$$$
