HWH.pdb
     RDKit          3D

 35 38  0  0  1  0  0  0  0  0999 V2000
    9.7399  -17.6301   21.4226 N   0  0  0  0  0  0  0  0  0  0  0  0
   10.3300  -16.3399   21.7379 C   0  0  1  0  0  0  0  0  0  0  0  0
    9.5768  -15.3230   20.8902 C   0  0  0  0  0  0  0  0  0  0  0  0
    9.4773  -15.8554   19.5167 C   0  0  0  0  0  0  0  0  0  0  0  0
   10.0034  -17.0818   19.1281 C   0  0  0  0  0  0  0  0  0  0  0  0
    9.7040  -17.1962   17.8098 N   0  0  0  0  0  0  0  0  0  0  0  0
    9.0390  -16.1351   17.3748 C   0  0  0  0  0  0  0  0  0  0  0  0
    8.9032  -15.3132   18.4329 N   0  0  0  0  0  0  0  0  0  0  0  0
   10.0711  -15.9763   23.1537 C   0  0  0  0  0  0  0  0  0  0  0  0
   10.5095  -14.8741   23.5611 O   0  0  0  0  0  0  0  0  0  0  0  0
    9.3694  -16.7912   24.0531 N   0  0  0  0  0  0  0  0  0  0  0  0
    9.1506  -16.4509   25.4749 C   0  0  1  0  0  0  0  0  0  0  0  0
    7.6923  -16.5040   25.7772 C   0  0  0  0  0  0  0  0  0  0  0  0
    6.9710  -15.2832   25.4171 C   0  0  0  0  0  0  0  0  0  0  0  0
    5.9891  -15.1294   24.4636 C   0  0  0  0  0  0  0  0  0  0  0  0
    5.5871  -13.8534   24.4027 N   0  0  0  0  0  0  0  0  0  0  0  0
    6.2710  -13.1242   25.2941 C   0  0  0  0  0  0  0  0  0  0  0  0
    6.2029  -11.7923   25.5862 C   0  0  0  0  0  0  0  0  0  0  0  0
    7.0260  -11.2829   26.5581 C   0  0  0  0  0  0  0  0  0  0  0  0
    7.8991  -12.1449   27.2090 C   0  0  0  0  0  0  0  0  0  0  0  0
    7.9485  -13.4794   26.8975 C   0  0  0  0  0  0  0  0  0  0  0  0
    7.1444  -14.0110   25.9386 C   0  0  0  0  0  0  0  0  0  0  0  0
   10.0210  -17.3039   26.3126 C   0  0  0  0  0  0  0  0  0  0  0  0
    9.6647  -17.4927   27.5445 O   0  0  0  0  0  0  0  0  0  0  0  0
   11.2047  -17.9438   25.9039 N   0  0  0  0  0  0  0  0  0  0  0  0
   12.0111  -18.7659   26.7958 C   0  0  1  0  0  0  0  0  0  0  0  0
   12.4808  -17.9671   27.9885 C   0  0  0  0  0  0  0  0  0  0  0  0
   13.3119  -18.8256   28.8524 C   0  0  0  0  0  0  0  0  0  0  0  0
   13.5422  -20.1933   28.6611 C   0  0  0  0  0  0  0  0  0  0  0  0
   14.3430  -20.6327   29.6459 N   0  0  0  0  0  0  0  0  0  0  0  0
   14.6243  -19.6107   30.4415 C   0  0  0  0  0  0  0  0  0  0  0  0
   14.0051  -18.5271   29.9643 N   0  0  0  0  0  0  0  0  0  0  0  0
   11.2498  -19.9283   27.2546 C   0  0  0  0  0  0  0  0  0  0  0  0
   10.0057  -19.9793   26.9998 O   0  0  0  0  0  0  0  0  0  0  0  0
   11.8120  -20.9935   27.9581 O   0  0  0  0  0  0  0  0  0  0  0  0
  2  1  1  1
  3  2  1  0
  3  4  1  0
  4  5  2  0
  5  6  1  0
  7  6  1  0
  8  4  1  0
  8  7  2  0
  9 10  2  0
  9  2  1  0
 11  9  1  0
 12 23  1  0
 12 11  1  0
 12 13  1  1
 14 13  1  0
 15 14  2  0
 16 15  1  0
 17 16  1  0
 17 22  2  0
 18 19  2  0
 18 17  1  0
 19 20  1  0
 20 21  2  0
 22 21  1  0
 22 14  1  0
 23 25  1  0
 24 23  2  0
 25 26  1  0
 26 27  1  1
 27 28  1  0
 28 29  2  0
 28 32  1  0
 29 30  1  0
 30 31  1  0
 32 31  2  0
 33 35  1  0
 33 26  1  0
 34 33  2  0
M  END
$$$$
