HWH.pdb
     RDKit          3D

 35 38  0  0  1  0  0  0  0  0999 V2000
   10.9258  -16.7656   18.8649 N   0  0  0  0  0  0  0  0  0  0  0  0
    9.9336  -17.3979   19.7179 C   0  0  1  0  0  0  0  0  0  0  0  0
   10.4858  -18.7806   20.0391 C   0  0  0  0  0  0  0  0  0  0  0  0
   10.0862  -19.6972   18.9528 C   0  0  0  0  0  0  0  0  0  0  0  0
    9.5191  -19.2710   17.7577 C   0  0  0  0  0  0  0  0  0  0  0  0
    9.3026  -20.4034   17.0424 N   0  0  0  0  0  0  0  0  0  0  0  0
    9.6950  -21.4773   17.7133 C   0  0  0  0  0  0  0  0  0  0  0  0
   10.1769  -21.0336   18.8900 N   0  0  0  0  0  0  0  0  0  0  0  0
    9.8223  -16.6818   21.0135 C   0  0  0  0  0  0  0  0  0  0  0  0
   10.8850  -16.3090   21.5657 O   0  0  0  0  0  0  0  0  0  0  0  0
    8.6043  -16.4019   21.6486 N   0  0  0  0  0  0  0  0  0  0  0  0
    8.4960  -15.8056   22.9968 C   0  0  1  0  0  0  0  0  0  0  0  0
    7.0671  -15.4986   23.2884 C   0  0  0  0  0  0  0  0  0  0  0  0
    6.8441  -14.9435   24.6234 C   0  0  0  0  0  0  0  0  0  0  0  0
    6.4416  -15.6080   25.7608 C   0  0  0  0  0  0  0  0  0  0  0  0
    6.3189  -14.7553   26.7861 N   0  0  0  0  0  0  0  0  0  0  0  0
    6.6282  -13.5170   26.3798 C   0  0  0  0  0  0  0  0  0  0  0  0
    6.6456  -12.3384   27.0686 C   0  0  0  0  0  0  0  0  0  0  0  0
    7.0045  -11.1899   26.4099 C   0  0  0  0  0  0  0  0  0  0  0  0
    7.3372  -11.2715   25.0639 C   0  0  0  0  0  0  0  0  0  0  0  0
    7.3122  -12.4678   24.3942 C   0  0  0  0  0  0  0  0  0  0  0  0
    6.9603  -13.6213   25.0221 C   0  0  0  0  0  0  0  0  0  0  0  0
    9.1848  -16.6836   23.9673 C   0  0  0  0  0  0  0  0  0  0  0  0
    8.8391  -17.9326   23.9923 O   0  0  0  0  0  0  0  0  0  0  0  0
   10.1918  -16.3001   24.8708 N   0  0  0  0  0  0  0  0  0  0  0  0
   10.7935  -17.2205   25.8261 C   0  0  1  0  0  0  0  0  0  0  0  0
   12.2969  -17.0772   25.8400 C   0  0  0  0  0  0  0  0  0  0  0  0
   12.8278  -17.3873   24.4999 C   0  0  0  0  0  0  0  0  0  0  0  0
   13.0158  -18.6720   23.9760 C   0  0  0  0  0  0  0  0  0  0  0  0
   13.5168  -18.5574   22.7350 N   0  0  0  0  0  0  0  0  0  0  0  0
   13.6511  -17.2684   22.4573 C   0  0  0  0  0  0  0  0  0  0  0  0
   13.2373  -16.5675   23.5170 N   0  0  0  0  0  0  0  0  0  0  0  0
   10.2670  -16.9846   27.1709 C   0  0  0  0  0  0  0  0  0  0  0  0
   10.7374  -17.6649   28.1359 O   0  0  0  0  0  0  0  0  0  0  0  0
    9.2740  -16.0488   27.4605 O   0  0  0  0  0  0  0  0  0  0  0  0
  2  1  1  6
  3  2  1  0
  3  4  1  0
  4  5  2  0
  5  6  1  0
  7  6  1  0
  8  4  1  0
  8  7  2  0
  9 10  2  0
  9  2  1  0
 11  9  1  0
 12 23  1  0
 12 11  1  0
 12 13  1  1
 14 13  1  0
 15 14  2  0
 16 15  1  0
 17 16  1  0
 17 22  2  0
 18 19  2  0
 18 17  1  0
 19 20  1  0
 20 21  2  0
 22 21  1  0
 22 14  1  0
 23 25  1  0
 24 23  2  0
 25 26  1  0
 26 27  1  1
 27 28  1  0
 28 29  2  0
 28 32  1  0
 29 30  1  0
 30 31  1  0
 32 31  2  0
 33 35  1  0
 33 26  1  0
 34 33  2  0
M  END
$$$$
