HWH.pdb
     RDKit          3D

 35 38  0  0  1  0  0  0  0  0999 V2000
    8.5716  -17.6246   20.9191 N   0  0  0  0  0  0  0  0  0  0  0  0
    9.3545  -16.4277   21.1772 C   0  0  1  0  0  0  0  0  0  0  0  0
    8.5350  -15.2704   20.6211 C   0  0  0  0  0  0  0  0  0  0  0  0
    8.4977  -15.4001   19.1509 C   0  0  0  0  0  0  0  0  0  0  0  0
    9.0756  -16.4574   18.4581 C   0  0  0  0  0  0  0  0  0  0  0  0
    8.8232  -16.2056   17.1490 N   0  0  0  0  0  0  0  0  0  0  0  0
    8.1389  -15.0801   16.9999 C   0  0  0  0  0  0  0  0  0  0  0  0
    7.9421  -14.5895   18.2385 N   0  0  0  0  0  0  0  0  0  0  0  0
    9.4797  -16.1870   22.6367 C   0  0  0  0  0  0  0  0  0  0  0  0
   10.0009  -15.1076   23.0060 O   0  0  0  0  0  0  0  0  0  0  0  0
    9.0508  -17.0929   23.6168 N   0  0  0  0  0  0  0  0  0  0  0  0
    9.3026  -16.9220   25.0633 C   0  0  1  0  0  0  0  0  0  0  0  0
    8.0030  -16.9006   25.7922 C   0  0  0  0  0  0  0  0  0  0  0  0
    7.1934  -15.7132   25.5187 C   0  0  0  0  0  0  0  0  0  0  0  0
    6.0268  -15.6324   24.7910 C   0  0  0  0  0  0  0  0  0  0  0  0
    5.5919  -14.3670   24.7368 N   0  0  0  0  0  0  0  0  0  0  0  0
    6.4339  -13.5735   25.4117 C   0  0  0  0  0  0  0  0  0  0  0  0
    6.3993  -12.2256   25.6261 C   0  0  0  0  0  0  0  0  0  0  0  0
    7.3995  -11.6449   26.3636 C   0  0  0  0  0  0  0  0  0  0  0  0
    8.4113  -12.4535   26.8650 C   0  0  0  0  0  0  0  0  0  0  0  0
    8.4236  -13.8054   26.6359 C   0  0  0  0  0  0  0  0  0  0  0  0
    7.4452  -14.4073   25.9085 C   0  0  0  0  0  0  0  0  0  0  0  0
   10.2802  -17.9403   25.5045 C   0  0  0  0  0  0  0  0  0  0  0  0
   10.1203  -19.1501   25.0676 O   0  0  0  0  0  0  0  0  0  0  0  0
   11.3813  -17.7273   26.3530 N   0  0  0  0  0  0  0  0  0  0  0  0
   12.1514  -18.8143   26.9418 C   0  0  1  0  0  0  0  0  0  0  0  0
   13.5387  -18.3506   27.3181 C   0  0  0  0  0  0  0  0  0  0  0  0
   14.3812  -18.3045   26.1090 C   0  0  0  0  0  0  0  0  0  0  0  0
   13.9860  -18.7014   24.8259 C   0  0  0  0  0  0  0  0  0  0  0  0
   15.0178  -18.5175   23.9858 N   0  0  0  0  0  0  0  0  0  0  0  0
   16.0360  -18.0266   24.6778 C   0  0  0  0  0  0  0  0  0  0  0  0
   15.6527  -17.8992   25.9515 N   0  0  0  0  0  0  0  0  0  0  0  0
   11.4742  -19.3432   28.1262 C   0  0  0  0  0  0  0  0  0  0  0  0
   10.3947  -18.7908   28.5068 O   0  0  0  0  0  0  0  0  0  0  0  0
   11.9443  -20.4274   28.8674 O   0  0  0  0  0  0  0  0  0  0  0  0
  2  1  1  1
  3  2  1  0
  3  4  1  0
  4  5  2  0
  5  6  1  0
  7  6  1  0
  8  4  1  0
  8  7  2  0
  9 10  2  0
  9  2  1  0
 11  9  1  0
 12 23  1  0
 12 11  1  0
 12 13  1  1
 14 13  1  0
 15 14  2  0
 16 15  1  0
 17 16  1  0
 17 22  2  0
 18 19  2  0
 18 17  1  0
 19 20  1  0
 20 21  2  0
 22 21  1  0
 22 14  1  0
 23 25  1  0
 24 23  2  0
 25 26  1  0
 26 27  1  1
 27 28  1  0
 28 29  2  0
 28 32  1  0
 29 30  1  0
 30 31  1  0
 32 31  2  0
 33 35  1  0
 33 26  1  0
 34 33  2  0
M  END
$$$$
