HWH.pdb
     RDKit          3D

 35 38  0  0  1  0  0  0  0  0999 V2000
   11.5465  -16.3195   18.9249 N   0  0  0  0  0  0  0  0  0  0  0  0
   10.4750  -16.9984   19.6342 C   0  0  1  0  0  0  0  0  0  0  0  0
   10.9995  -18.3966   19.9345 C   0  0  0  0  0  0  0  0  0  0  0  0
   11.2606  -19.0739   18.6489 C   0  0  0  0  0  0  0  0  0  0  0  0
   10.8001  -18.6030   17.4250 C   0  0  0  0  0  0  0  0  0  0  0  0
   11.2474  -19.4974   16.5081 N   0  0  0  0  0  0  0  0  0  0  0  0
   11.9408  -20.4692   17.0841 C   0  0  0  0  0  0  0  0  0  0  0  0
   11.9445  -20.2010   18.4039 N   0  0  0  0  0  0  0  0  0  0  0  0
   10.2255  -16.3551   20.9486 C   0  0  0  0  0  0  0  0  0  0  0  0
   11.2199  -15.9471   21.5950 O   0  0  0  0  0  0  0  0  0  0  0  0
    8.9496  -16.1804   21.5025 N   0  0  0  0  0  0  0  0  0  0  0  0
    8.7082  -15.7322   22.8903 C   0  0  1  0  0  0  0  0  0  0  0  0
    7.2863  -15.3096   23.0331 C   0  0  0  0  0  0  0  0  0  0  0  0
    6.9496  -14.8155   24.3683 C   0  0  0  0  0  0  0  0  0  0  0  0
    6.4146  -15.5217   25.4229 C   0  0  0  0  0  0  0  0  0  0  0  0
    6.2181  -14.7186   26.4764 N   0  0  0  0  0  0  0  0  0  0  0  0
    6.6062  -13.4736   26.1705 C   0  0  0  0  0  0  0  0  0  0  0  0
    6.5930  -12.3332   26.9210 C   0  0  0  0  0  0  0  0  0  0  0  0
    7.0525  -11.1668   26.3642 C   0  0  0  0  0  0  0  0  0  0  0  0
    7.5147  -11.1919   25.0547 C   0  0  0  0  0  0  0  0  0  0  0  0
    7.5179  -12.3506   24.3214 C   0  0  0  0  0  0  0  0  0  0  0  0
    7.0682  -13.5208   24.8480 C   0  0  0  0  0  0  0  0  0  0  0  0
    9.1723  -16.7827   23.8221 C   0  0  0  0  0  0  0  0  0  0  0  0
    9.4130  -17.9561   23.3268 O   0  0  0  0  0  0  0  0  0  0  0  0
    9.3880  -16.6362   25.2040 N   0  0  0  0  0  0  0  0  0  0  0  0
   10.5874  -17.1180   25.8754 C   0  0  1  0  0  0  0  0  0  0  0  0
   11.8025  -16.3356   25.4369 C   0  0  0  0  0  0  0  0  0  0  0  0
   12.5959  -17.1528   24.5007 C   0  0  0  0  0  0  0  0  0  0  0  0
   12.2359  -18.4162   24.0165 C   0  0  0  0  0  0  0  0  0  0  0  0
   13.2038  -18.8486   23.1917 N   0  0  0  0  0  0  0  0  0  0  0  0
   14.1489  -17.9210   23.1361 C   0  0  0  0  0  0  0  0  0  0  0  0
   13.7829  -16.9041   23.9218 N   0  0  0  0  0  0  0  0  0  0  0  0
   10.4399  -17.0193   27.3280 C   0  0  0  0  0  0  0  0  0  0  0  0
    9.4869  -16.3209   27.7961 O   0  0  0  0  0  0  0  0  0  0  0  0
   11.2874  -17.6526   28.2370 O   0  0  0  0  0  0  0  0  0  0  0  0
  2  1  1  1
  3  2  1  0
  3  4  1  0
  4  5  2  0
  5  6  1  0
  7  6  1  0
  8  4  1  0
  8  7  2  0
  9 10  2  0
  9  2  1  0
 11  9  1  0
 12 23  1  0
 12 11  1  0
 12 13  1  6
 14 13  1  0
 15 14  2  0
 16 15  1  0
 17 16  1  0
 17 22  2  0
 18 19  2  0
 18 17  1  0
 19 20  1  0
 20 21  2  0
 22 21  1  0
 22 14  1  0
 23 25  1  0
 24 23  2  0
 25 26  1  0
 26 27  1  6
 27 28  1  0
 28 29  2  0
 28 32  1  0
 29 30  1  0
 30 31  1  0
 32 31  2  0
 33 35  1  0
 33 26  1  0
 34 33  2  0
M  END
$$$$
