HWH.pdb
     RDKit          3D

 35 38  0  0  1  0  0  0  0  0999 V2000
    8.0933  -15.2394   19.5495 N   0  0  0  0  0  0  0  0  0  0  0  0
    8.3854  -16.5278   20.1551 C   0  0  1  0  0  0  0  0  0  0  0  0
    9.4860  -17.1451   19.3021 C   0  0  0  0  0  0  0  0  0  0  0  0
    8.9483  -17.3571   17.9435 C   0  0  0  0  0  0  0  0  0  0  0  0
    7.8137  -18.1138   17.6757 C   0  0  0  0  0  0  0  0  0  0  0  0
    7.6599  -18.0607   16.3288 N   0  0  0  0  0  0  0  0  0  0  0  0
    8.6128  -17.3315   15.7652 C   0  0  0  0  0  0  0  0  0  0  0  0
    9.4030  -16.9012   16.7672 N   0  0  0  0  0  0  0  0  0  0  0  0
    8.9590  -16.3517   21.5129 C   0  0  0  0  0  0  0  0  0  0  0  0
   10.0864  -15.8095   21.6026 O   0  0  0  0  0  0  0  0  0  0  0  0
    8.3147  -16.7551   22.6908 N   0  0  0  0  0  0  0  0  0  0  0  0
    8.8833  -16.5763   24.0435 C   0  0  1  0  0  0  0  0  0  0  0  0
    7.7763  -16.4888   25.0374 C   0  0  0  0  0  0  0  0  0  0  0  0
    7.0646  -15.2108   25.0160 C   0  0  0  0  0  0  0  0  0  0  0  0
    5.9047  -14.8982   24.3422 C   0  0  0  0  0  0  0  0  0  0  0  0
    5.5740  -13.6161   24.5431 N   0  0  0  0  0  0  0  0  0  0  0  0
    6.4813  -13.0381   25.3412 C   0  0  0  0  0  0  0  0  0  0  0  0
    6.5576  -11.7593   25.8131 C   0  0  0  0  0  0  0  0  0  0  0  0
    7.6056  -11.4140   26.6280 C   0  0  0  0  0  0  0  0  0  0  0  0
    8.5509  -12.3819   26.9421 C   0  0  0  0  0  0  0  0  0  0  0  0
    8.4518  -13.6600   26.4554 C   0  0  0  0  0  0  0  0  0  0  0  0
    7.4239  -14.0297   25.6458 C   0  0  0  0  0  0  0  0  0  0  0  0
    9.8926  -17.6302   24.2837 C   0  0  0  0  0  0  0  0  0  0  0  0
   10.3284  -18.2852   23.2537 O   0  0  0  0  0  0  0  0  0  0  0  0
   10.4390  -17.9941   25.5274 N   0  0  0  0  0  0  0  0  0  0  0  0
   11.8526  -18.2898   25.7171 C   0  0  1  0  0  0  0  0  0  0  0  0
   12.7067  -17.0991   25.3515 C   0  0  0  0  0  0  0  0  0  0  0  0
   13.1131  -17.2073   23.9383 C   0  0  0  0  0  0  0  0  0  0  0  0
   12.7369  -18.2299   23.0591 C   0  0  0  0  0  0  0  0  0  0  0  0
   13.3002  -17.9927   21.8630 N   0  0  0  0  0  0  0  0  0  0  0  0
   14.0082  -16.8757   21.9501 C   0  0  0  0  0  0  0  0  0  0  0  0
   13.8950  -16.4054   23.1957 N   0  0  0  0  0  0  0  0  0  0  0  0
   12.1171  -18.6742   27.1041 C   0  0  0  0  0  0  0  0  0  0  0  0
   13.2876  -19.0591   27.4156 O   0  0  0  0  0  0  0  0  0  0  0  0
   11.1550  -18.6413   28.1135 O   0  0  0  0  0  0  0  0  0  0  0  0
  2  1  1  6
  3  2  1  0
  3  4  1  0
  4  5  2  0
  5  6  1  0
  7  6  1  0
  8  4  1  0
  8  7  2  0
  9 10  2  0
  9  2  1  0
 11  9  1  0
 12 23  1  0
 12 11  1  0
 12 13  1  1
 14 13  1  0
 15 14  2  0
 16 15  1  0
 17 16  1  0
 17 22  2  0
 18 19  2  0
 18 17  1  0
 19 20  1  0
 20 21  2  0
 22 21  1  0
 22 14  1  0
 23 25  1  0
 24 23  2  0
 25 26  1  0
 26 27  1  1
 27 28  1  0
 28 29  2  0
 28 32  1  0
 29 30  1  0
 30 31  1  0
 32 31  2  0
 33 35  1  0
 33 26  1  0
 34 33  2  0
M  END
$$$$
