HWH.pdb
     RDKit          3D

 35 38  0  0  1  0  0  0  0  0999 V2000
    7.6553  -16.2252   21.0451 N   0  0  0  0  0  0  0  0  0  0  0  0
    8.9967  -15.6876   21.1993 C   0  0  1  0  0  0  0  0  0  0  0  0
    8.8839  -14.2007   20.8886 C   0  0  0  0  0  0  0  0  0  0  0  0
    8.4270  -14.0579   19.4919 C   0  0  0  0  0  0  0  0  0  0  0  0
    7.1634  -13.5982   19.1402 C   0  0  0  0  0  0  0  0  0  0  0  0
    7.1429  -13.6159   17.7837 N   0  0  0  0  0  0  0  0  0  0  0  0
    8.2947  -14.0501   17.2918 C   0  0  0  0  0  0  0  0  0  0  0  0
    9.0811  -14.3204   18.3511 N   0  0  0  0  0  0  0  0  0  0  0  0
    9.4424  -15.7860   22.6119 C   0  0  0  0  0  0  0  0  0  0  0  0
   10.5759  -15.3314   22.8976 O   0  0  0  0  0  0  0  0  0  0  0  0
    8.6720  -16.3549   23.6357 N   0  0  0  0  0  0  0  0  0  0  0  0
    9.1760  -16.6094   25.0018 C   0  0  1  0  0  0  0  0  0  0  0  0
    8.0468  -16.5193   25.9701 C   0  0  0  0  0  0  0  0  0  0  0  0
    7.1882  -15.3523   25.7674 C   0  0  0  0  0  0  0  0  0  0  0  0
    5.9289  -15.3135   25.2107 C   0  0  0  0  0  0  0  0  0  0  0  0
    5.4711  -14.0558   25.1683 N   0  0  0  0  0  0  0  0  0  0  0  0
    6.3879  -13.2265   25.6839 C   0  0  0  0  0  0  0  0  0  0  0  0
    6.3631  -11.8713   25.8467 C   0  0  0  0  0  0  0  0  0  0  0  0
    7.4487  -11.2504   26.4101 C   0  0  0  0  0  0  0  0  0  0  0  0
    8.5340  -12.0273   26.7942 C   0  0  0  0  0  0  0  0  0  0  0  0
    8.5347  -13.3875   26.6202 C   0  0  0  0  0  0  0  0  0  0  0  0
    7.4724  -14.0289   26.0644 C   0  0  0  0  0  0  0  0  0  0  0  0
    9.9371  -17.8774   25.0047 C   0  0  0  0  0  0  0  0  0  0  0  0
   10.1218  -18.4654   23.8644 O   0  0  0  0  0  0  0  0  0  0  0  0
   10.4929  -18.5142   26.1286 N   0  0  0  0  0  0  0  0  0  0  0  0
   11.9060  -18.8520   26.2314 C   0  0  1  0  0  0  0  0  0  0  0  0
   12.7693  -17.6301   26.0248 C   0  0  0  0  0  0  0  0  0  0  0  0
   13.3348  -17.6583   24.6634 C   0  0  0  0  0  0  0  0  0  0  0  0
   13.0779  -18.6367   23.6954 C   0  0  0  0  0  0  0  0  0  0  0  0
   13.7689  -18.3299   22.5851 N   0  0  0  0  0  0  0  0  0  0  0  0
   14.4434  -17.2114   22.8100 C   0  0  0  0  0  0  0  0  0  0  0  0
   14.1819  -16.8094   24.0572 N   0  0  0  0  0  0  0  0  0  0  0  0
   12.2007  -19.4443   27.5367 C   0  0  0  0  0  0  0  0  0  0  0  0
   13.0838  -20.3557   27.6052 O   0  0  0  0  0  0  0  0  0  0  0  0
   11.5677  -19.0642   28.7201 O   0  0  0  0  0  0  0  0  0  0  0  0
  2  1  1  1
  3  2  1  0
  3  4  1  0
  4  5  2  0
  5  6  1  0
  7  6  1  0
  8  4  1  0
  8  7  2  0
  9 10  2  0
  9  2  1  0
 11  9  1  0
 12 23  1  0
 12 11  1  0
 12 13  1  1
 14 13  1  0
 15 14  2  0
 16 15  1  0
 17 16  1  0
 17 22  2  0
 18 19  2  0
 18 17  1  0
 19 20  1  0
 20 21  2  0
 22 21  1  0
 22 14  1  0
 23 25  1  0
 24 23  2  0
 25 26  1  0
 26 27  1  1
 27 28  1  0
 28 29  2  0
 28 32  1  0
 29 30  1  0
 30 31  1  0
 32 31  2  0
 33 35  1  0
 33 26  1  0
 34 33  2  0
M  END
$$$$
