HWH.pdb
     RDKit          3D

 35 38  0  0  1  0  0  0  0  0999 V2000
    8.0836  -16.6176   20.2796 N   0  0  0  0  0  0  0  0  0  0  0  0
    9.1021  -15.6056   20.5047 C   0  0  1  0  0  0  0  0  0  0  0  0
    8.4587  -14.2795   20.1207 C   0  0  0  0  0  0  0  0  0  0  0  0
    8.2484  -14.2784   18.6594 C   0  0  0  0  0  0  0  0  0  0  0  0
    8.5453  -15.3608   17.8397 C   0  0  0  0  0  0  0  0  0  0  0  0
    8.2124  -14.9606   16.5868 N   0  0  0  0  0  0  0  0  0  0  0  0
    7.7385  -13.7226   16.5883 C   0  0  0  0  0  0  0  0  0  0  0  0
    7.7638  -13.3089   17.8697 N   0  0  0  0  0  0  0  0  0  0  0  0
    9.4333  -15.5062   21.9484 C   0  0  0  0  0  0  0  0  0  0  0  0
   10.2476  -14.6190   22.2990 O   0  0  0  0  0  0  0  0  0  0  0  0
    8.8901  -16.3431   22.9332 N   0  0  0  0  0  0  0  0  0  0  0  0
    9.3251  -16.3429   24.3460 C   0  0  1  0  0  0  0  0  0  0  0  0
    8.1270  -16.3616   25.2321 C   0  0  0  0  0  0  0  0  0  0  0  0
    7.2690  -15.1855   25.0881 C   0  0  0  0  0  0  0  0  0  0  0  0
    6.1862  -15.0240   24.2523 C   0  0  0  0  0  0  0  0  0  0  0  0
    5.6701  -13.7950   24.3819 N   0  0  0  0  0  0  0  0  0  0  0  0
    6.3741  -13.1058   25.2894 C   0  0  0  0  0  0  0  0  0  0  0  0
    6.2196  -11.8280   25.7446 C   0  0  0  0  0  0  0  0  0  0  0  0
    7.0890  -11.3514   26.6927 C   0  0  0  0  0  0  0  0  0  0  0  0
    8.0954  -12.1902   27.1537 C   0  0  0  0  0  0  0  0  0  0  0  0
    8.2296  -13.4703   26.6807 C   0  0  0  0  0  0  0  0  0  0  0  0
    7.3823  -13.9684   25.7412 C   0  0  0  0  0  0  0  0  0  0  0  0
   10.3019  -17.4347   24.5481 C   0  0  0  0  0  0  0  0  0  0  0  0
    9.9753  -18.6145   24.1220 O   0  0  0  0  0  0  0  0  0  0  0  0
   11.5652  -17.3220   25.1556 N   0  0  0  0  0  0  0  0  0  0  0  0
   12.3948  -18.4741   25.4814 C   0  0  1  0  0  0  0  0  0  0  0  0
   13.8615  -18.1229   25.4006 C   0  0  0  0  0  0  0  0  0  0  0  0
   14.1650  -17.6074   24.0530 C   0  0  0  0  0  0  0  0  0  0  0  0
   13.4927  -17.9592   22.8764 C   0  0  0  0  0  0  0  0  0  0  0  0
   14.0488  -17.2921   21.8517 N   0  0  0  0  0  0  0  0  0  0  0  0
   15.0328  -16.5425   22.3276 C   0  0  0  0  0  0  0  0  0  0  0  0
   15.1014  -16.7326   23.6485 N   0  0  0  0  0  0  0  0  0  0  0  0
   12.0837  -18.9706   26.8223 C   0  0  0  0  0  0  0  0  0  0  0  0
   11.2104  -18.3555   27.5109 O   0  0  0  0  0  0  0  0  0  0  0  0
   12.6909  -20.0888   27.3939 O   0  0  0  0  0  0  0  0  0  0  0  0
  2  1  1  1
  3  2  1  0
  3  4  1  0
  4  5  2  0
  5  6  1  0
  7  6  1  0
  8  4  1  0
  8  7  2  0
  9 10  2  0
  9  2  1  0
 11  9  1  0
 12 23  1  0
 12 11  1  0
 12 13  1  1
 14 13  1  0
 15 14  2  0
 16 15  1  0
 17 16  1  0
 17 22  2  0
 18 19  2  0
 18 17  1  0
 19 20  1  0
 20 21  2  0
 22 21  1  0
 22 14  1  0
 23 25  1  0
 24 23  2  0
 25 26  1  0
 26 27  1  1
 27 28  1  0
 28 29  2  0
 28 32  1  0
 29 30  1  0
 30 31  1  0
 32 31  2  0
 33 35  1  0
 33 26  1  0
 34 33  2  0
M  END
$$$$
