HWH.pdb
     RDKit          3D

 35 38  0  0  1  0  0  0  0  0999 V2000
    8.8339  -18.8464   19.5138 N   0  0  0  0  0  0  0  0  0  0  0  0
    8.0263  -18.8315   20.7220 C   0  0  1  0  0  0  0  0  0  0  0  0
    8.0660  -20.2548   21.2629 C   0  0  0  0  0  0  0  0  0  0  0  0
    7.1505  -21.0796   20.4497 C   0  0  0  0  0  0  0  0  0  0  0  0
    5.9524  -20.6086   19.9258 C   0  0  0  0  0  0  0  0  0  0  0  0
    5.4197  -21.6599   19.2539 N   0  0  0  0  0  0  0  0  0  0  0  0
    6.2031  -22.7264   19.3323 C   0  0  0  0  0  0  0  0  0  0  0  0
    7.2680  -22.3607   20.0710 N   0  0  0  0  0  0  0  0  0  0  0  0
    8.6505  -17.9731   21.7600 C   0  0  0  0  0  0  0  0  0  0  0  0
    9.8960  -18.0342   21.8940 O   0  0  0  0  0  0  0  0  0  0  0  0
    7.9296  -17.1051   22.5919 N   0  0  0  0  0  0  0  0  0  0  0  0
    8.5462  -16.2748   23.6482 C   0  0  1  0  0  0  0  0  0  0  0  0
    7.7224  -15.0509   23.8589 C   0  0  0  0  0  0  0  0  0  0  0  0
    8.1938  -14.2047   24.9552 C   0  0  0  0  0  0  0  0  0  0  0  0
    9.4831  -14.0559   25.4165 C   0  0  0  0  0  0  0  0  0  0  0  0
    9.5170  -13.2136   26.4571 N   0  0  0  0  0  0  0  0  0  0  0  0
    8.2784  -12.7785   26.7230 C   0  0  0  0  0  0  0  0  0  0  0  0
    7.8303  -11.9174   27.6831 C   0  0  0  0  0  0  0  0  0  0  0  0
    6.4901  -11.6315   27.7450 C   0  0  0  0  0  0  0  0  0  0  0  0
    5.6390  -12.2310   26.8256 C   0  0  0  0  0  0  0  0  0  0  0  0
    6.1138  -13.0926   25.8704 C   0  0  0  0  0  0  0  0  0  0  0  0
    7.4369  -13.3939   25.7861 C   0  0  0  0  0  0  0  0  0  0  0  0
    8.7828  -17.1143   24.8424 C   0  0  0  0  0  0  0  0  0  0  0  0
    7.7648  -17.7421   25.3421 O   0  0  0  0  0  0  0  0  0  0  0  0
   10.0133  -17.3091   25.4948 N   0  0  0  0  0  0  0  0  0  0  0  0
   10.1427  -18.0564   26.7383 C   0  0  1  0  0  0  0  0  0  0  0  0
   11.4161  -18.8686   26.7497 C   0  0  0  0  0  0  0  0  0  0  0  0
   11.2881  -19.9876   25.7982 C   0  0  0  0  0  0  0  0  0  0  0  0
   10.1567  -20.2729   25.0245 C   0  0  0  0  0  0  0  0  0  0  0  0
   10.4108  -21.3639   24.2833 N   0  0  0  0  0  0  0  0  0  0  0  0
   11.6417  -21.7741   24.5543 C   0  0  0  0  0  0  0  0  0  0  0  0
   12.1669  -20.9475   25.4632 N   0  0  0  0  0  0  0  0  0  0  0  0
   10.1297  -17.1509   27.8877 C   0  0  0  0  0  0  0  0  0  0  0  0
   10.1138  -15.8981   27.6744 O   0  0  0  0  0  0  0  0  0  0  0  0
   10.1313  -17.5831   29.2139 O   0  0  0  0  0  0  0  0  0  0  0  0
  2  1  1  6
  3  2  1  0
  3  4  1  0
  4  5  2  0
  5  6  1  0
  7  6  1  0
  8  4  1  0
  8  7  2  0
  9 10  2  0
  9  2  1  0
 11  9  1  0
 12 23  1  0
 12 11  1  0
 12 13  1  1
 14 13  1  0
 15 14  2  0
 16 15  1  0
 17 16  1  0
 17 22  2  0
 18 19  2  0
 18 17  1  0
 19 20  1  0
 20 21  2  0
 22 21  1  0
 22 14  1  0
 23 25  1  0
 24 23  2  0
 25 26  1  0
 26 27  1  6
 27 28  1  0
 28 29  2  0
 28 32  1  0
 29 30  1  0
 30 31  1  0
 32 31  2  0
 33 35  1  0
 33 26  1  0
 34 33  2  0
M  END
$$$$
