HWH.pdb
     RDKit          3D

 35 38  0  0  1  0  0  0  0  0999 V2000
   11.0578  -16.7220   18.8551 N   0  0  0  0  0  0  0  0  0  0  0  0
   10.0812  -17.3903   19.6987 C   0  0  1  0  0  0  0  0  0  0  0  0
   10.6624  -18.7672   19.9925 C   0  0  0  0  0  0  0  0  0  0  0  0
   10.2542  -19.6784   18.9048 C   0  0  0  0  0  0  0  0  0  0  0  0
    9.1667  -19.4421   18.0722 C   0  0  0  0  0  0  0  0  0  0  0  0
    9.1330  -20.4989   17.2220 N   0  0  0  0  0  0  0  0  0  0  0  0
   10.1146  -21.3522   17.4776 C   0  0  0  0  0  0  0  0  0  0  0  0
   10.8014  -20.8394   18.5163 N   0  0  0  0  0  0  0  0  0  0  0  0
    9.9592  -16.7010   21.0078 C   0  0  0  0  0  0  0  0  0  0  0  0
   10.9951  -16.1875   21.4940 O   0  0  0  0  0  0  0  0  0  0  0  0
    8.7592  -16.5936   21.7246 N   0  0  0  0  0  0  0  0  0  0  0  0
    8.6278  -15.8715   23.0078 C   0  0  1  0  0  0  0  0  0  0  0  0
    7.1903  -15.5706   23.2608 C   0  0  0  0  0  0  0  0  0  0  0  0
    6.9300  -15.0103   24.5868 C   0  0  0  0  0  0  0  0  0  0  0  0
    6.3766  -15.6408   25.6792 C   0  0  0  0  0  0  0  0  0  0  0  0
    6.2701  -14.7918   26.7094 N   0  0  0  0  0  0  0  0  0  0  0  0
    6.7385  -13.5893   26.3505 C   0  0  0  0  0  0  0  0  0  0  0  0
    6.8304  -12.4274   27.0615 C   0  0  0  0  0  0  0  0  0  0  0  0
    7.3569  -11.3166   26.4527 C   0  0  0  0  0  0  0  0  0  0  0  0
    7.7771  -11.4179   25.1327 C   0  0  0  0  0  0  0  0  0  0  0  0
    7.6744  -12.5967   24.4399 C   0  0  0  0  0  0  0  0  0  0  0  0
    7.1566  -13.7130   25.0184 C   0  0  0  0  0  0  0  0  0  0  0  0
    9.3290  -16.6349   24.0626 C   0  0  0  0  0  0  0  0  0  0  0  0
    9.1985  -17.9244   24.0532 O   0  0  0  0  0  0  0  0  0  0  0  0
   10.1370  -16.1003   25.0820 N   0  0  0  0  0  0  0  0  0  0  0  0
   10.8085  -16.9251   26.0771 C   0  0  1  0  0  0  0  0  0  0  0  0
   11.9434  -16.1697   26.7271 C   0  0  0  0  0  0  0  0  0  0  0  0
   12.5341  -17.0006   27.7923 C   0  0  0  0  0  0  0  0  0  0  0  0
   12.1165  -18.2896   28.1451 C   0  0  0  0  0  0  0  0  0  0  0  0
   12.8864  -18.7256   29.1558 N   0  0  0  0  0  0  0  0  0  0  0  0
   13.7622  -17.7759   29.4519 C   0  0  0  0  0  0  0  0  0  0  0  0
   13.5498  -16.7416   28.6331 N   0  0  0  0  0  0  0  0  0  0  0  0
    9.8634  -17.3666   27.1034 C   0  0  0  0  0  0  0  0  0  0  0  0
    8.8080  -16.6840   27.2919 O   0  0  0  0  0  0  0  0  0  0  0  0
   10.0512  -18.5017   27.8919 O   0  0  0  0  0  0  0  0  0  0  0  0
  2  1  1  6
  3  2  1  0
  3  4  1  0
  4  5  2  0
  5  6  1  0
  7  6  1  0
  8  4  1  0
  8  7  2  0
  9 10  2  0
  9  2  1  0
 11  9  1  0
 12 23  1  0
 12 11  1  0
 12 13  1  1
 14 13  1  0
 15 14  2  0
 16 15  1  0
 17 16  1  0
 17 22  2  0
 18 19  2  0
 18 17  1  0
 19 20  1  0
 20 21  2  0
 22 21  1  0
 22 14  1  0
 23 25  1  0
 24 23  2  0
 25 26  1  0
 26 27  1  1
 27 28  1  0
 28 29  2  0
 28 32  1  0
 29 30  1  0
 30 31  1  0
 32 31  2  0
 33 35  1  0
 33 26  1  0
 34 33  2  0
M  END
$$$$
