MGI.pdb
     RDKit          3D

 21 20  0  0  1  0  0  0  0  0999 V2000
   29.8926  -19.2631  -14.6794 C   0  0  0  0  0  0  0  0  0  0  0  0
   29.0415  -20.3856  -15.8177 S   0  0  0  0  0  0  0  0  0  0  0  0
   27.4471  -20.9286  -15.1193 C   0  0  0  0  0  0  0  0  0  0  0  0
   27.2002  -20.2547  -13.7689 C   0  0  0  0  0  0  0  0  0  0  0  0
   25.8184  -20.7025  -13.3267 C   0  0  2  0  0  0  0  0  0  0  0  0
   24.8958  -20.3736  -14.3936 N   0  0  0  0  0  0  0  0  0  0  0  0
   25.3690  -20.0581  -12.0928 C   0  0  0  0  0  0  0  0  0  0  0  0
   24.6555  -19.0198  -12.1464 O   0  0  0  0  0  0  0  0  0  0  0  0
   25.7506  -20.6226  -10.8307 N   0  0  0  0  0  0  0  0  0  0  0  0
   25.8831  -19.7550   -9.6809 C   0  0  0  0  0  0  0  0  0  0  0  0
   26.3713  -20.5326   -8.5268 C   0  0  0  0  0  0  0  0  0  0  0  0
   26.5930  -21.7648   -8.6423 O   0  0  0  0  0  0  0  0  0  0  0  0
   29.9827  -18.3147   -5.2842 C   0  0  0  0  0  0  0  0  0  0  0  0
   29.1086  -19.1991   -6.1576 C   0  0  0  0  0  0  0  0  0  0  0  0
   28.0015  -19.7945   -5.3360 C   0  0  2  0  0  0  0  0  0  0  0  0
   28.5186  -20.4393   -4.0732 C   0  0  0  0  0  0  0  0  0  0  0  0
   27.1505  -20.7239   -6.1404 C   0  0  2  0  0  0  0  0  0  0  0  0
   26.6074  -19.9413   -7.2651 N   0  0  0  0  0  0  0  0  0  0  0  0
   25.9766  -21.1834   -5.3638 C   0  0  0  0  0  0  0  0  0  0  0  0
   24.9352  -20.4871   -5.2435 O   0  0  0  0  0  0  0  0  0  0  0  0
   25.9631  -22.4343   -4.7132 O   0  0  0  0  0  0  0  0  0  0  0  0
  2  1  1  0
  3  4  1  0
  3  2  1  0
  4  5  1  0
  5  7  1  0
  5  6  1  6
  7  9  1  0
  8  7  2  0
  9 10  1  0
 10 11  1  0
 11 12  2  0
 11 18  1  0
 14 13  1  0
 15 16  1  1
 15 14  1  0
 17 15  1  0
 17 18  1  6
 19 21  1  0
 19 17  1  0
 20 19  2  0
M  END
$$$$
