MGI.pdb
     RDKit          3D

 21 20  0  0  1  0  0  0  0  0999 V2000
   23.4837  -15.7175  -15.1162 C   0  0  0  0  0  0  0  0  0  0  0  0
   22.0980  -16.8757  -15.2518 S   0  0  0  0  0  0  0  0  0  0  0  0
   20.7505  -16.1582  -16.2490 C   0  0  0  0  0  0  0  0  0  0  0  0
   20.9126  -14.6409  -16.3498 C   0  0  0  0  0  0  0  0  0  0  0  0
   19.7536  -14.1542  -17.2014 C   0  0  2  0  0  0  0  0  0  0  0  0
   19.6513  -15.0432  -18.3402 N   0  0  0  0  0  0  0  0  0  0  0  0
   19.9246  -12.7830  -17.6815 C   0  0  0  0  0  0  0  0  0  0  0  0
   19.7315  -12.5111  -18.8975 O   0  0  0  0  0  0  0  0  0  0  0  0
   20.3125  -11.7610  -16.7529 N   0  0  0  0  0  0  0  0  0  0  0  0
   20.5920  -10.4298  -17.2452 C   0  0  0  0  0  0  0  0  0  0  0  0
   20.9353   -9.5457  -16.1158 C   0  0  0  0  0  0  0  0  0  0  0  0
   20.8316   -9.9603  -14.9334 O   0  0  0  0  0  0  0  0  0  0  0  0
   25.0559   -9.2042  -15.3422 C   0  0  0  0  0  0  0  0  0  0  0  0
   24.2119   -8.6246  -16.4650 C   0  0  0  0  0  0  0  0  0  0  0  0
   23.5830   -7.3359  -16.0189 C   0  0  2  0  0  0  0  0  0  0  0  0
   24.5292   -6.5024  -15.1897 C   0  0  0  0  0  0  0  0  0  0  0  0
   22.2757   -7.5644  -15.3305 C   0  0  2  0  0  0  0  0  0  0  0  0
   21.3871   -8.2203  -16.3065 N   0  0  0  0  0  0  0  0  0  0  0  0
   21.6205   -6.2825  -14.9851 C   0  0  0  0  0  0  0  0  0  0  0  0
   21.0401   -5.5704  -15.8454 O   0  0  0  0  0  0  0  0  0  0  0  0
   21.6117   -5.7878  -13.6647 O   0  0  0  0  0  0  0  0  0  0  0  0
  2  1  1  0
  3  4  1  0
  3  2  1  0
  4  5  1  0
  5  7  1  0
  5  6  1  6
  7  9  1  0
  8  7  2  0
  9 10  1  0
 10 11  1  0
 11 12  2  0
 11 18  1  0
 14 13  1  0
 15 16  1  1
 15 14  1  0
 17 15  1  0
 17 18  1  6
 19 21  1  0
 19 17  1  0
 20 19  2  0
M  END
$$$$
