MGI.pdb
     RDKit          3D

 21 20  0  0  1  0  0  0  0  0999 V2000
   25.6545  -20.5166  -20.2033 C   0  0  0  0  0  0  0  0  0  0  0  0
   25.6200  -22.3255  -20.2845 S   0  0  0  0  0  0  0  0  0  0  0  0
   24.2528  -22.9923  -19.2791 C   0  0  0  0  0  0  0  0  0  0  0  0
   24.3287  -22.4505  -17.8511 C   0  0  0  0  0  0  0  0  0  0  0  0
   25.0968  -23.4886  -17.0523 C   0  0  2  0  0  0  0  0  0  0  0  0
   24.2874  -24.6890  -17.0132 N   0  0  0  0  0  0  0  0  0  0  0  0
   25.3876  -23.0653  -15.6826 C   0  0  0  0  0  0  0  0  0  0  0  0
   26.0197  -21.9945  -15.4734 O   0  0  0  0  0  0  0  0  0  0  0  0
   24.9449  -23.8824  -14.5900 N   0  0  0  0  0  0  0  0  0  0  0  0
   25.1803  -23.4357  -13.2344 C   0  0  0  0  0  0  0  0  0  0  0  0
   24.0214  -22.6559  -12.7614 C   0  0  0  0  0  0  0  0  0  0  0  0
   24.0017  -22.1988  -11.5904 O   0  0  0  0  0  0  0  0  0  0  0  0
   23.2047  -18.4759  -15.0595 C   0  0  0  0  0  0  0  0  0  0  0  0
   23.2050  -19.6325  -14.0740 C   0  0  0  0  0  0  0  0  0  0  0  0
   21.8615  -20.3035  -14.0726 C   0  0  2  0  0  0  0  0  0  0  0  0
   20.7431  -19.3287  -13.7958 C   0  0  0  0  0  0  0  0  0  0  0  0
   21.8292  -21.4809  -13.1518 C   0  0  2  0  0  0  0  0  0  0  0  0
   22.9035  -22.3923  -13.5849 N   0  0  0  0  0  0  0  0  0  0  0  0
   20.5685  -22.2429  -13.3004 C   0  0  0  0  0  0  0  0  0  0  0  0
   20.2603  -22.8319  -14.3690 O   0  0  0  0  0  0  0  0  0  0  0  0
   19.6397  -22.3502  -12.2448 O   0  0  0  0  0  0  0  0  0  0  0  0
  2  1  1  0
  3  4  1  0
  3  2  1  0
  4  5  1  0
  5  7  1  0
  5  6  1  1
  7  9  1  0
  8  7  2  0
  9 10  1  0
 10 11  1  0
 11 12  2  0
 11 18  1  0
 14 13  1  0
 15 16  1  1
 15 14  1  0
 17 15  1  0
 17 18  1  6
 19 21  1  0
 19 17  1  0
 20 19  2  0
M  END
$$$$
