MGI.pdb
     RDKit          3D

 21 20  0  0  1  0  0  0  0  0999 V2000
   31.3801  -23.7783  -20.0656 C   0  0  0  0  0  0  0  0  0  0  0  0
   30.6158  -22.7891  -18.7551 S   0  0  0  0  0  0  0  0  0  0  0  0
   28.9916  -22.1543  -19.2876 C   0  0  0  0  0  0  0  0  0  0  0  0
   28.4227  -21.1995  -18.2372 C   0  0  0  0  0  0  0  0  0  0  0  0
   28.7652  -21.8106  -16.8902 C   0  0  2  0  0  0  0  0  0  0  0  0
   27.9228  -22.9761  -16.7179 N   0  0  0  0  0  0  0  0  0  0  0  0
   28.5490  -20.8967  -15.7687 C   0  0  0  0  0  0  0  0  0  0  0  0
   29.2237  -19.8352  -15.6800 O   0  0  0  0  0  0  0  0  0  0  0  0
   27.5641  -21.2257  -14.7792 N   0  0  0  0  0  0  0  0  0  0  0  0
   27.2698  -20.2718  -13.7322 C   0  0  0  0  0  0  0  0  0  0  0  0
   26.3750  -20.8898  -12.7360 C   0  0  0  0  0  0  0  0  0  0  0  0
   25.8461  -22.0067  -12.9672 O   0  0  0  0  0  0  0  0  0  0  0  0
   26.9475  -19.2743   -7.5764 C   0  0  0  0  0  0  0  0  0  0  0  0
   26.7711  -20.1983   -8.7698 C   0  0  0  0  0  0  0  0  0  0  0  0
   25.3438  -20.1650   -9.2355 C   0  0  2  0  0  0  0  0  0  0  0  0
   24.3900  -20.6463   -8.1695 C   0  0  0  0  0  0  0  0  0  0  0  0
   25.1640  -20.8933  -10.5287 C   0  0  2  0  0  0  0  0  0  0  0  0
   26.0773  -20.2682  -11.5022 N   0  0  0  0  0  0  0  0  0  0  0  0
   23.8001  -20.6959  -11.0699 C   0  0  0  0  0  0  0  0  0  0  0  0
   23.4445  -19.6228  -11.6229 O   0  0  0  0  0  0  0  0  0  0  0  0
   22.8202  -21.7070  -10.9938 O   0  0  0  0  0  0  0  0  0  0  0  0
  2  1  1  0
  3  4  1  0
  3  2  1  0
  4  5  1  0
  5  7  1  0
  5  6  1  1
  7  9  1  0
  8  7  2  0
  9 10  1  0
 10 11  1  0
 11 12  2  0
 11 18  1  0
 14 13  1  0
 15 16  1  1
 15 14  1  0
 17 15  1  0
 17 18  1  6
 19 21  1  0
 19 17  1  0
 20 19  2  0
M  END
$$$$
