MGI.pdb
     RDKit          3D

 21 20  0  0  1  0  0  0  0  0999 V2000
   15.8076  -18.3558  -20.6660 C   0  0  0  0  0  0  0  0  0  0  0  0
   15.7626  -16.9084  -19.5783 S   0  0  0  0  0  0  0  0  0  0  0  0
   17.3296  -16.7394  -18.6613 C   0  0  0  0  0  0  0  0  0  0  0  0
   17.3497  -15.4255  -17.8791 C   0  0  0  0  0  0  0  0  0  0  0  0
   18.6389  -15.4383  -17.0772 C   0  0  2  0  0  0  0  0  0  0  0  0
   18.7226  -16.7233  -16.4144 N   0  0  0  0  0  0  0  0  0  0  0  0
   18.7047  -14.3783  -16.0712 C   0  0  0  0  0  0  0  0  0  0  0  0
   18.2970  -14.5951  -14.8979 O   0  0  0  0  0  0  0  0  0  0  0  0
   19.2367  -13.0981  -16.4390 N   0  0  0  0  0  0  0  0  0  0  0  0
   19.2541  -12.0335  -15.4598 C   0  0  0  0  0  0  0  0  0  0  0  0
   19.9211  -10.8476  -16.0287 C   0  0  0  0  0  0  0  0  0  0  0  0
   20.5279  -10.9288  -17.1269 O   0  0  0  0  0  0  0  0  0  0  0  0
   17.4777   -6.9251  -17.6310 C   0  0  0  0  0  0  0  0  0  0  0  0
   18.5475   -7.9616  -17.3304 C   0  0  0  0  0  0  0  0  0  0  0  0
   19.4985   -7.4298  -16.2970 C   0  0  2  0  0  0  0  0  0  0  0  0
   20.0564   -6.0816  -16.6827 C   0  0  0  0  0  0  0  0  0  0  0  0
   20.5732   -8.4165  -15.9706 C   0  0  2  0  0  0  0  0  0  0  0  0
   19.9093   -9.5923  -15.3796 N   0  0  0  0  0  0  0  0  0  0  0  0
   21.4794   -7.8949  -14.9224 C   0  0  0  0  0  0  0  0  0  0  0  0
   21.1810   -7.9232  -13.7001 O   0  0  0  0  0  0  0  0  0  0  0  0
   22.7338   -7.3347  -15.2402 O   0  0  0  0  0  0  0  0  0  0  0  0
  2  1  1  0
  3  4  1  0
  3  2  1  0
  4  5  1  0
  5  7  1  0
  5  6  1  1
  7  9  1  0
  8  7  2  0
  9 10  1  0
 10 11  1  0
 11 12  2  0
 11 18  1  0
 14 13  1  0
 15 16  1  6
 15 14  1  0
 17 15  1  0
 17 18  1  1
 19 21  1  0
 19 17  1  0
 20 19  2  0
M  END
$$$$
