MGI.pdb
     RDKit          3D

 21 20  0  0  1  0  0  0  0  0999 V2000
   25.2441  -20.2367  -16.1939 C   0  0  0  0  0  0  0  0  0  0  0  0
   23.4772  -20.2010  -15.7984 S   0  0  0  0  0  0  0  0  0  0  0  0
   23.2081  -19.6214  -14.0906 C   0  0  0  0  0  0  0  0  0  0  0  0
   24.4976  -19.7432  -13.2777 C   0  0  0  0  0  0  0  0  0  0  0  0
   24.2069  -20.7569  -12.1853 C   0  0  2  0  0  0  0  0  0  0  0  0
   23.2270  -20.1660  -11.2975 N   0  0  0  0  0  0  0  0  0  0  0  0
   25.3907  -21.1266  -11.4096 C   0  0  0  0  0  0  0  0  0  0  0  0
   26.3926  -21.6290  -11.9874 O   0  0  0  0  0  0  0  0  0  0  0  0
   25.3927  -20.9098   -9.9918 N   0  0  0  0  0  0  0  0  0  0  0  0
   26.6102  -21.1385   -9.2448 C   0  0  0  0  0  0  0  0  0  0  0  0
   26.7101  -20.1578   -8.1479 C   0  0  0  0  0  0  0  0  0  0  0  0
   25.8052  -19.3013   -7.9804 O   0  0  0  0  0  0  0  0  0  0  0  0
   30.3617  -20.5411   -3.8773 C   0  0  0  0  0  0  0  0  0  0  0  0
   29.4760  -20.8427   -5.0746 C   0  0  0  0  0  0  0  0  0  0  0  0
   28.1327  -20.1964   -4.8924 C   0  0  2  0  0  0  0  0  0  0  0  0
   27.0512  -21.2104   -4.6100 C   0  0  0  0  0  0  0  0  0  0  0  0
   27.7863  -19.3016   -6.0389 C   0  0  2  0  0  0  0  0  0  0  0  0
   27.8043  -20.1362   -7.2536 N   0  0  0  0  0  0  0  0  0  0  0  0
   28.8252  -18.2669   -6.2442 C   0  0  0  0  0  0  0  0  0  0  0  0
   29.6585  -18.3277   -7.1853 O   0  0  0  0  0  0  0  0  0  0  0  0
   28.9368  -17.1505   -5.3901 O   0  0  0  0  0  0  0  0  0  0  0  0
  2  1  1  0
  3  4  1  0
  3  2  1  0
  4  5  1  0
  5  7  1  0
  5  6  1  1
  7  9  1  0
  8  7  2  0
  9 10  1  0
 10 11  1  0
 11 12  2  0
 11 18  1  0
 14 13  1  0
 15 16  1  6
 15 14  1  0
 17 15  1  0
 17 18  1  6
 19 21  1  0
 19 17  1  0
 20 19  2  0
M  END
$$$$
