MGI.pdb
     RDKit          3D

 21 20  0  0  1  0  0  0  0  0999 V2000
   29.8267  -15.4384  -19.6268 C   0  0  0  0  0  0  0  0  0  0  0  0
   28.5465  -16.2845  -20.5885 S   0  0  0  0  0  0  0  0  0  0  0  0
   27.5121  -17.3296  -19.5103 C   0  0  0  0  0  0  0  0  0  0  0  0
   27.8246  -17.0505  -18.0396 C   0  0  0  0  0  0  0  0  0  0  0  0
   27.0078  -18.0523  -17.2431 C   0  0  2  0  0  0  0  0  0  0  0  0
   25.6139  -17.6874  -17.3902 N   0  0  0  0  0  0  0  0  0  0  0  0
   27.3468  -18.0740  -15.8203 C   0  0  0  0  0  0  0  0  0  0  0  0
   28.4706  -18.5059  -15.4455 O   0  0  0  0  0  0  0  0  0  0  0  0
   26.3870  -17.5992  -14.8660 N   0  0  0  0  0  0  0  0  0  0  0  0
   26.7035  -17.6621  -13.4559 C   0  0  0  0  0  0  0  0  0  0  0  0
   26.1457  -18.8987  -12.8774 C   0  0  0  0  0  0  0  0  0  0  0  0
   25.8155  -19.8541  -13.6250 O   0  0  0  0  0  0  0  0  0  0  0  0
   27.1256  -19.4688   -7.5986 C   0  0  0  0  0  0  0  0  0  0  0  0
   27.0782  -19.9384   -9.0429 C   0  0  0  0  0  0  0  0  0  0  0  0
   25.6610  -20.2428   -9.4353 C   0  0  2  0  0  0  0  0  0  0  0  0
   25.1241  -21.4571   -8.7178 C   0  0  0  0  0  0  0  0  0  0  0  0
   25.5046  -20.3448  -10.9187 C   0  0  2  0  0  0  0  0  0  0  0  0
   25.9607  -19.0632  -11.4860 N   0  0  0  0  0  0  0  0  0  0  0  0
   24.0796  -20.4711  -11.3000 C   0  0  0  0  0  0  0  0  0  0  0  0
   23.2764  -19.5048  -11.2307 O   0  0  0  0  0  0  0  0  0  0  0  0
   23.5429  -21.6896  -11.7645 O   0  0  0  0  0  0  0  0  0  0  0  0
  2  1  1  0
  3  4  1  0
  3  2  1  0
  4  5  1  0
  5  7  1  0
  5  6  1  1
  7  9  1  0
  8  7  2  0
  9 10  1  0
 10 11  1  0
 11 12  2  0
 11 18  1  0
 14 13  1  0
 15 16  1  1
 15 14  1  0
 17 15  1  0
 17 18  1  6
 19 21  1  0
 19 17  1  0
 20 19  2  0
M  END
$$$$
