MGI.pdb
     RDKit          3D

 21 20  0  0  1  0  0  0  0  0999 V2000
   22.2499  -18.5104  -15.3477 C   0  0  0  0  0  0  0  0  0  0  0  0
   22.7226  -20.1370  -15.9883 S   0  0  0  0  0  0  0  0  0  0  0  0
   23.6202  -21.0948  -14.7227 C   0  0  0  0  0  0  0  0  0  0  0  0
   24.2742  -20.1555  -13.7086 C   0  0  0  0  0  0  0  0  0  0  0  0
   24.9709  -21.0517  -12.7002 C   0  0  2  0  0  0  0  0  0  0  0  0
   23.9527  -21.8680  -12.0720 N   0  0  0  0  0  0  0  0  0  0  0  0
   25.6905  -20.3084  -11.6660 C   0  0  0  0  0  0  0  0  0  0  0  0
   26.7326  -19.6630  -11.9619 O   0  0  0  0  0  0  0  0  0  0  0  0
   25.1946  -20.3257  -10.3203 N   0  0  0  0  0  0  0  0  0  0  0  0
   25.8322  -19.4945   -9.3227 C   0  0  0  0  0  0  0  0  0  0  0  0
   26.3632  -20.3411   -8.2382 C   0  0  0  0  0  0  0  0  0  0  0  0
   26.2432  -21.5913   -8.2948 O   0  0  0  0  0  0  0  0  0  0  0  0
   29.8985  -18.1756   -4.3344 C   0  0  0  0  0  0  0  0  0  0  0  0
   28.6597  -18.6449   -5.0788 C   0  0  0  0  0  0  0  0  0  0  0  0
   28.8979  -20.0097   -5.6583 C   0  0  2  0  0  0  0  0  0  0  0  0
   29.9231  -19.9828   -6.7655 C   0  0  0  0  0  0  0  0  0  0  0  0
   27.6222  -20.6641   -6.0818 C   0  0  2  0  0  0  0  0  0  0  0  0
   27.0176  -19.7976   -7.1095 N   0  0  0  0  0  0  0  0  0  0  0  0
   26.6478  -20.7102   -4.9680 C   0  0  0  0  0  0  0  0  0  0  0  0
   25.6460  -19.9502   -4.9187 O   0  0  0  0  0  0  0  0  0  0  0  0
   26.7917  -21.6147   -3.8958 O   0  0  0  0  0  0  0  0  0  0  0  0
  2  1  1  0
  3  4  1  0
  3  2  1  0
  4  5  1  0
  5  7  1  0
  5  6  1  1
  7  9  1  0
  8  7  2  0
  9 10  1  0
 10 11  1  0
 11 12  2  0
 11 18  1  0
 14 13  1  0
 15 16  1  6
 15 14  1  0
 17 15  1  0
 17 18  1  6
 19 21  1  0
 19 17  1  0
 20 19  2  0
M  END
$$$$
