MGI.pdb
     RDKit          3D

 21 20  0  0  1  0  0  0  0  0999 V2000
   34.5239  -22.7573  -12.1141 C   0  0  0  0  0  0  0  0  0  0  0  0
   34.6260  -23.8242  -13.5740 S   0  0  0  0  0  0  0  0  0  0  0  0
   32.9635  -24.1789  -14.2335 C   0  0  0  0  0  0  0  0  0  0  0  0
   32.1980  -22.8774  -14.4760 C   0  0  0  0  0  0  0  0  0  0  0  0
   30.8159  -23.2896  -14.9504 C   0  0  2  0  0  0  0  0  0  0  0  0
   30.9461  -23.7399  -16.3208 N   0  0  0  0  0  0  0  0  0  0  0  0
   29.8381  -22.2029  -14.8969 C   0  0  0  0  0  0  0  0  0  0  0  0
   29.3893  -21.7043  -15.9646 O   0  0  0  0  0  0  0  0  0  0  0  0
   29.4019  -21.7178  -13.6196 N   0  0  0  0  0  0  0  0  0  0  0  0
   28.4107  -20.6655  -13.5656 C   0  0  0  0  0  0  0  0  0  0  0  0
   27.1847  -21.1723  -12.9213 C   0  0  0  0  0  0  0  0  0  0  0  0
   27.0229  -22.4075  -12.7521 O   0  0  0  0  0  0  0  0  0  0  0  0
   26.5643  -19.7666   -8.3409 C   0  0  0  0  0  0  0  0  0  0  0  0
   26.4549  -20.5044   -9.6649 C   0  0  0  0  0  0  0  0  0  0  0  0
   25.1415  -20.1867  -10.3201 C   0  0  2  0  0  0  0  0  0  0  0  0
   23.9698  -20.5248   -9.4310 C   0  0  0  0  0  0  0  0  0  0  0  0
   25.0282  -20.8154  -11.6718 C   0  0  2  0  0  0  0  0  0  0  0  0
   26.1572  -20.3111  -12.4740 N   0  0  0  0  0  0  0  0  0  0  0  0
   23.8031  -20.3658  -12.3710 C   0  0  0  0  0  0  0  0  0  0  0  0
   23.7306  -19.2520  -12.9524 O   0  0  0  0  0  0  0  0  0  0  0  0
   22.6442  -21.1675  -12.4232 O   0  0  0  0  0  0  0  0  0  0  0  0
  2  1  1  0
  3  4  1  0
  3  2  1  0
  4  5  1  0
  5  7  1  0
  5  6  1  6
  7  9  1  0
  8  7  2  0
  9 10  1  0
 10 11  1  0
 11 12  2  0
 11 18  1  0
 14 13  1  0
 15 16  1  1
 15 14  1  0
 17 15  1  0
 17 18  1  6
 19 21  1  0
 19 17  1  0
 20 19  2  0
M  END
$$$$
