MGI.pdb
     RDKit          3D

 21 20  0  0  1  0  0  0  0  0999 V2000
   17.4487  -17.5047  -22.2756 C   0  0  0  0  0  0  0  0  0  0  0  0
   18.3624  -15.9436  -22.1860 S   0  0  0  0  0  0  0  0  0  0  0  0
   17.9951  -15.0675  -20.6296 C   0  0  0  0  0  0  0  0  0  0  0  0
   18.8540  -13.8077  -20.5124 C   0  0  0  0  0  0  0  0  0  0  0  0
   18.4579  -13.1547  -19.2001 C   0  0  2  0  0  0  0  0  0  0  0  0
   17.0845  -12.7147  -19.3338 N   0  0  0  0  0  0  0  0  0  0  0  0
   19.2940  -12.0065  -18.8501 C   0  0  0  0  0  0  0  0  0  0  0  0
   20.5008  -12.1790  -18.5279 O   0  0  0  0  0  0  0  0  0  0  0  0
   18.7224  -10.6913  -18.8793 N   0  0  0  0  0  0  0  0  0  0  0  0
   19.5738   -9.5465  -18.6403 C   0  0  0  0  0  0  0  0  0  0  0  0
   19.7183   -9.3308  -17.1886 C   0  0  0  0  0  0  0  0  0  0  0  0
   18.7641   -9.5904  -16.4122 O   0  0  0  0  0  0  0  0  0  0  0  0
   23.5593  -11.5252  -14.8918 C   0  0  0  0  0  0  0  0  0  0  0  0
   22.2515  -10.8345  -15.2406 C   0  0  0  0  0  0  0  0  0  0  0  0
   22.2759   -9.4156  -14.7494 C   0  0  2  0  0  0  0  0  0  0  0  0
   22.5280   -9.3360  -13.2635 C   0  0  0  0  0  0  0  0  0  0  0  0
   21.0493   -8.6648  -15.1579 C   0  0  2  0  0  0  0  0  0  0  0  0
   20.9104   -8.8330  -16.6156 N   0  0  0  0  0  0  0  0  0  0  0  0
   21.2111   -7.2105  -14.9326 C   0  0  0  0  0  0  0  0  0  0  0  0
   21.8683   -6.4773  -15.7164 O   0  0  0  0  0  0  0  0  0  0  0  0
   20.6333   -6.5651  -13.8200 O   0  0  0  0  0  0  0  0  0  0  0  0
  2  1  1  0
  3  4  1  0
  3  2  1  0
  4  5  1  0
  5  7  1  0
  5  6  1  6
  7  9  1  0
  8  7  2  0
  9 10  1  0
 10 11  1  0
 11 12  2  0
 11 18  1  0
 14 13  1  0
 15 16  1  1
 15 14  1  0
 17 15  1  0
 17 18  1  6
 19 21  1  0
 19 17  1  0
 20 19  2  0
M  END
$$$$
