MGI.pdb
     RDKit          3D

 21 20  0  0  1  0  0  0  0  0999 V2000
   22.6317  -19.4249  -20.9129 C   0  0  0  0  0  0  0  0  0  0  0  0
   23.3852  -17.9782  -20.1260 S   0  0  0  0  0  0  0  0  0  0  0  0
   24.6014  -18.4870  -18.8663 C   0  0  0  0  0  0  0  0  0  0  0  0
   24.2898  -19.8976  -18.3646 C   0  0  0  0  0  0  0  0  0  0  0  0
   24.8675  -19.9779  -16.9628 C   0  0  2  0  0  0  0  0  0  0  0  0
   26.2896  -19.7234  -17.0665 N   0  0  0  0  0  0  0  0  0  0  0  0
   24.6617  -21.2787  -16.3260 C   0  0  0  0  0  0  0  0  0  0  0  0
   23.4926  -21.7155  -16.1459 O   0  0  0  0  0  0  0  0  0  0  0  0
   25.8030  -22.0430  -15.9134 N   0  0  0  0  0  0  0  0  0  0  0  0
   25.6042  -23.2323  -15.1142 C   0  0  0  0  0  0  0  0  0  0  0  0
   25.1265  -22.8530  -13.7715 C   0  0  0  0  0  0  0  0  0  0  0  0
   24.1293  -23.4301  -13.2683 O   0  0  0  0  0  0  0  0  0  0  0  0
   28.7846  -20.5582  -10.4904 C   0  0  0  0  0  0  0  0  0  0  0  0
   27.6655  -21.4700  -10.9652 C   0  0  0  0  0  0  0  0  0  0  0  0
   26.3688  -20.7133  -10.9981 C   0  0  2  0  0  0  0  0  0  0  0  0
   25.9713  -20.2129   -9.6309 C   0  0  0  0  0  0  0  0  0  0  0  0
   25.2807  -21.5033  -11.6518 C   0  0  2  0  0  0  0  0  0  0  0  0
   25.7541  -21.8450  -13.0052 N   0  0  0  0  0  0  0  0  0  0  0  0
   24.0640  -20.6822  -11.8447 C   0  0  0  0  0  0  0  0  0  0  0  0
   23.9452  -19.8690  -12.7979 O   0  0  0  0  0  0  0  0  0  0  0  0
   22.9657  -20.7682  -10.9645 O   0  0  0  0  0  0  0  0  0  0  0  0
  2  1  1  0
  3  4  1  0
  3  2  1  0
  4  5  1  0
  5  7  1  0
  5  6  1  6
  7  9  1  0
  8  7  2  0
  9 10  1  0
 10 11  1  0
 11 12  2  0
 11 18  1  0
 14 13  1  0
 15 16  1  1
 15 14  1  0
 17 15  1  0
 17 18  1  6
 19 21  1  0
 19 17  1  0
 20 19  2  0
M  END
$$$$
