MGI.pdb
     RDKit          3D

 21 20  0  0  1  0  0  0  0  0999 V2000
   25.2065  -24.5101  -13.7362 C   0  0  0  0  0  0  0  0  0  0  0  0
   25.5634  -23.7413  -15.3366 S   0  0  0  0  0  0  0  0  0  0  0  0
   26.5854  -22.2464  -15.1227 C   0  0  0  0  0  0  0  0  0  0  0  0
   26.6750  -21.8700  -13.6432 C   0  0  0  0  0  0  0  0  0  0  0  0
   25.6791  -20.7421  -13.4396 C   0  0  2  0  0  0  0  0  0  0  0  0
   26.2087  -19.5721  -14.1092 N   0  0  0  0  0  0  0  0  0  0  0  0
   25.4486  -20.4214  -12.0312 C   0  0  0  0  0  0  0  0  0  0  0  0
   24.7646  -21.1978  -11.3105 O   0  0  0  0  0  0  0  0  0  0  0  0
   26.0094  -19.2183  -11.4878 N   0  0  0  0  0  0  0  0  0  0  0  0
   25.7402  -18.8746  -10.1087 C   0  0  0  0  0  0  0  0  0  0  0  0
   26.3729  -19.8655   -9.2183 C   0  0  0  0  0  0  0  0  0  0  0  0
   27.0920  -20.7787   -9.6976 O   0  0  0  0  0  0  0  0  0  0  0  0
   28.8569  -18.0841   -5.0977 C   0  0  0  0  0  0  0  0  0  0  0  0
   28.4404  -18.9640   -6.2645 C   0  0  0  0  0  0  0  0  0  0  0  0
   27.4625  -20.0035   -5.7972 C   0  0  2  0  0  0  0  0  0  0  0  0
   28.0476  -20.8878   -4.7232 C   0  0  0  0  0  0  0  0  0  0  0  0
   26.9013  -20.7911   -6.9374 C   0  0  2  0  0  0  0  0  0  0  0  0
   26.2038  -19.8348   -7.8156 N   0  0  0  0  0  0  0  0  0  0  0  0
   25.8663  -21.7427   -6.4734 C   0  0  0  0  0  0  0  0  0  0  0  0
   24.6697  -21.3986   -6.2902 O   0  0  0  0  0  0  0  0  0  0  0  0
   26.1685  -23.0947   -6.2105 O   0  0  0  0  0  0  0  0  0  0  0  0
  2  1  1  0
  3  4  1  0
  3  2  1  0
  4  5  1  0
  5  7  1  0
  5  6  1  6
  7  9  1  0
  8  7  2  0
  9 10  1  0
 10 11  1  0
 11 12  2  0
 11 18  1  0
 14 13  1  0
 15 16  1  1
 15 14  1  0
 17 15  1  0
 17 18  1  6
 19 21  1  0
 19 17  1  0
 20 19  2  0
M  END
$$$$
