MGI.pdb
     RDKit          3D

 21 20  0  0  1  0  0  0  0  0999 V2000
   23.4301  -21.0502   -7.7427 C   0  0  0  0  0  0  0  0  0  0  0  0
   25.1978  -20.6564   -7.7355 S   0  0  0  0  0  0  0  0  0  0  0  0
   25.8084  -20.3912   -9.4330 C   0  0  0  0  0  0  0  0  0  0  0  0
   24.6985  -20.6688  -10.4475 C   0  0  0  0  0  0  0  0  0  0  0  0
   25.3583  -21.4172  -11.5921 C   0  0  2  0  0  0  0  0  0  0  0  0
   26.7420  -20.9925  -11.6450 N   0  0  0  0  0  0  0  0  0  0  0  0
   24.7314  -21.1606  -12.8885 C   0  0  0  0  0  0  0  0  0  0  0  0
   23.5663  -21.5830  -13.1212 O   0  0  0  0  0  0  0  0  0  0  0  0
   25.4584  -20.4259  -13.8830 N   0  0  0  0  0  0  0  0  0  0  0  0
   24.8060  -20.0904  -15.1297 C   0  0  0  0  0  0  0  0  0  0  0  0
   24.4831  -18.6515  -15.1484 C   0  0  0  0  0  0  0  0  0  0  0  0
   24.0676  -18.0826  -14.1071 O   0  0  0  0  0  0  0  0  0  0  0  0
   26.8957  -13.6305  -15.6034 C   0  0  0  0  0  0  0  0  0  0  0  0
   25.5635  -14.2534  -15.9859 C   0  0  0  0  0  0  0  0  0  0  0  0
   25.6817  -15.7504  -15.9910 C   0  0  2  0  0  0  0  0  0  0  0  0
   26.7858  -16.2273  -16.9026 C   0  0  0  0  0  0  0  0  0  0  0  0
   24.3739  -16.4102  -16.2902 C   0  0  2  0  0  0  0  0  0  0  0  0
   24.6229  -17.8628  -16.3128 N   0  0  0  0  0  0  0  0  0  0  0  0
   23.8956  -16.0612  -17.6472 C   0  0  0  0  0  0  0  0  0  0  0  0
   24.1620  -16.7648  -18.6561 O   0  0  0  0  0  0  0  0  0  0  0  0
   23.1106  -14.9139  -17.8830 O   0  0  0  0  0  0  0  0  0  0  0  0
  2  1  1  0
  3  4  1  0
  3  2  1  0
  4  5  1  0
  5  7  1  0
  5  6  1  6
  7  9  1  0
  8  7  2  0
  9 10  1  0
 10 11  1  0
 11 12  2  0
 11 18  1  0
 14 13  1  0
 15 16  1  6
 15 14  1  0
 17 15  1  0
 17 18  1  6
 19 21  1  0
 19 17  1  0
 20 19  2  0
M  END
$$$$
