TNN.pdb
     RDKit          3D

 24 23  0  0  1  0  0  0  0  0999 V2000
   26.0340   -9.3186  -14.8942 C   0  0  0  0  0  0  0  0  0  0  0  0
   26.1510  -10.4932  -15.8729 C   0  0  1  0  0  0  0  0  0  0  0  0
   27.2000  -11.3118  -15.4291 O   0  0  0  0  0  0  0  0  0  0  0  0
   24.8555  -11.2662  -15.7434 C   0  0  2  0  0  0  0  0  0  0  0  0
   25.0537  -12.5464  -16.3928 N   0  0  0  0  0  0  0  0  0  0  0  0
   23.6954  -10.5350  -16.3037 C   0  0  0  0  0  0  0  0  0  0  0  0
   23.4880  -10.5029  -17.5394 O   0  0  0  0  0  0  0  0  0  0  0  0
   19.3809   -8.0865  -16.8473 N   0  0  0  0  0  0  0  0  0  0  0  0
   19.2267   -9.3330  -16.1680 C   0  0  0  0  0  0  0  0  0  0  0  0
   18.0953   -9.8541  -16.1113 O   0  0  0  0  0  0  0  0  0  0  0  0
   20.4144   -9.9696  -15.5513 C   0  0  0  0  0  0  0  0  0  0  0  0
   21.6346   -9.1385  -15.8794 C   0  0  2  0  0  0  0  0  0  0  0  0
   22.8028   -9.8588  -15.4289 N   0  0  0  0  0  0  0  0  0  0  0  0
   21.6006   -7.8231  -15.1833 C   0  0  0  0  0  0  0  0  0  0  0  0
   21.7522   -7.8046  -13.9383 O   0  0  0  0  0  0  0  0  0  0  0  0
   24.1893   -5.2209  -15.2819 N   0  0  0  0  0  0  0  0  0  0  0  0
   23.5115   -4.3156  -16.1406 C   0  0  0  0  0  0  0  0  0  0  0  0
   24.1696   -3.5587  -16.8737 O   0  0  0  0  0  0  0  0  0  0  0  0
   22.0357   -4.2775  -16.1587 C   0  0  0  0  0  0  0  0  0  0  0  0
   21.4406   -5.3130  -15.2519 C   0  0  2  0  0  0  0  0  0  0  0  0
   21.4026   -6.6210  -15.9009 N   0  0  0  0  0  0  0  0  0  0  0  0
   20.0631   -4.9567  -14.8722 C   0  0  0  0  0  0  0  0  0  0  0  0
   19.0755   -5.0393  -15.6703 O   0  0  0  0  0  0  0  0  0  0  0  0
   19.8017   -4.5020  -13.5738 O   0  0  0  0  0  0  0  0  0  0  0  0
  2  1  1  1
  3  2  1  0
  4  2  1  0
  4  5  1  6
  6  4  1  0
  6  7  2  0
  9 11  1  0
  9  8  1  0
 10  9  2  0
 12 11  1  1
 12 13  1  0
 13  6  1  0
 14 12  1  0
 15 14  2  0
 16 17  1  0
 17 18  2  0
 17 19  1  0
 20 19  1  6
 20 22  1  0
 20 21  1  0
 21 14  1  0
 22 24  1  0
 23 22  2  0
M  END
$$$$
