TNN.pdb
     RDKit          3D

 24 23  0  0  1  0  0  0  0  0999 V2000
   19.4966  -10.4589  -17.4575 C   0  0  0  0  0  0  0  0  0  0  0  0
   18.0269  -10.8845  -17.3587 C   0  0  1  0  0  0  0  0  0  0  0  0
   17.9197  -12.1698  -17.9101 O   0  0  0  0  0  0  0  0  0  0  0  0
   17.7241  -10.9743  -15.8778 C   0  0  2  0  0  0  0  0  0  0  0  0
   16.4312  -11.6146  -15.7429 N   0  0  0  0  0  0  0  0  0  0  0  0
   17.7611   -9.6546  -15.2060 C   0  0  0  0  0  0  0  0  0  0  0  0
   17.1815   -8.6606  -15.7030 O   0  0  0  0  0  0  0  0  0  0  0  0
   16.1834   -8.8666  -12.3034 N   0  0  0  0  0  0  0  0  0  0  0  0
   17.2400   -8.8587  -11.3430 C   0  0  0  0  0  0  0  0  0  0  0  0
   16.9745   -9.1102  -10.1509 O   0  0  0  0  0  0  0  0  0  0  0  0
   18.6190   -8.5524  -11.7910 C   0  0  0  0  0  0  0  0  0  0  0  0
   18.5921   -8.2568  -13.2739 C   0  0  2  0  0  0  0  0  0  0  0  0
   18.4638   -9.5108  -13.9793 N   0  0  0  0  0  0  0  0  0  0  0  0
   19.8496   -7.5972  -13.7204 C   0  0  0  0  0  0  0  0  0  0  0  0
   20.8960   -8.2866  -13.7761 O   0  0  0  0  0  0  0  0  0  0  0  0
   21.8745   -2.6194  -16.7987 N   0  0  0  0  0  0  0  0  0  0  0  0
   21.9808   -3.7510  -15.9475 C   0  0  0  0  0  0  0  0  0  0  0  0
   23.1047   -4.1635  -15.6158 O   0  0  0  0  0  0  0  0  0  0  0  0
   20.7623   -4.4292  -15.4630 C   0  0  0  0  0  0  0  0  0  0  0  0
   21.0869   -5.5650  -14.5392 C   0  0  2  0  0  0  0  0  0  0  0  0
   19.8715   -6.2284  -14.0740 N   0  0  0  0  0  0  0  0  0  0  0  0
   21.8245   -5.0915  -13.3557 C   0  0  0  0  0  0  0  0  0  0  0  0
   22.9450   -4.4925  -13.4251 O   0  0  0  0  0  0  0  0  0  0  0  0
   21.2864   -5.2989  -12.0797 O   0  0  0  0  0  0  0  0  0  0  0  0
  2  1  1  1
  3  2  1  0
  4  2  1  0
  4  5  1  6
  6  4  1  0
  6  7  2  0
  9 11  1  0
  9  8  1  0
 10  9  2  0
 12 11  1  1
 12 13  1  0
 13  6  1  0
 14 12  1  0
 15 14  2  0
 16 17  1  0
 17 18  2  0
 17 19  1  0
 20 19  1  6
 20 22  1  0
 20 21  1  0
 21 14  1  0
 22 24  1  0
 23 22  2  0
M  END
$$$$
