TNN.pdb
     RDKit          3D

 24 23  0  0  1  0  0  0  0  0999 V2000
   21.0867  -10.4101  -21.4296 C   0  0  0  0  0  0  0  0  0  0  0  0
   21.4406  -11.3896  -20.3042 C   0  0  1  0  0  0  0  0  0  0  0  0
   22.5150  -12.1746  -20.7479 O   0  0  0  0  0  0  0  0  0  0  0  0
   21.9198  -10.5339  -19.1506 C   0  0  2  0  0  0  0  0  0  0  0  0
   22.4398  -11.4312  -18.1386 N   0  0  0  0  0  0  0  0  0  0  0  0
   20.8580   -9.6509  -18.6146 C   0  0  0  0  0  0  0  0  0  0  0  0
   20.3208   -8.7767  -19.3345 O   0  0  0  0  0  0  0  0  0  0  0  0
   16.1621   -9.7590  -16.9528 N   0  0  0  0  0  0  0  0  0  0  0  0
   17.4389  -10.3967  -16.9067 C   0  0  0  0  0  0  0  0  0  0  0  0
   17.6694  -11.3441  -17.6841 O   0  0  0  0  0  0  0  0  0  0  0  0
   18.4510   -9.9142  -15.9376 C   0  0  0  0  0  0  0  0  0  0  0  0
   19.4074   -8.9890  -16.6564 C   0  0  2  0  0  0  0  0  0  0  0  0
   20.4405   -9.7951  -17.2640 N   0  0  0  0  0  0  0  0  0  0  0  0
   20.0539   -8.0353  -15.7139 C   0  0  0  0  0  0  0  0  0  0  0  0
   20.9438   -8.4702  -14.9444 O   0  0  0  0  0  0  0  0  0  0  0  0
   21.7467   -3.8375  -13.3548 N   0  0  0  0  0  0  0  0  0  0  0  0
   22.4745   -4.5624  -14.3353 C   0  0  0  0  0  0  0  0  0  0  0  0
   23.6696   -4.2891  -14.5361 O   0  0  0  0  0  0  0  0  0  0  0  0
   21.8117   -5.6318  -15.1078 C   0  0  0  0  0  0  0  0  0  0  0  0
   20.3433   -5.7041  -14.8123 C   0  0  2  0  0  0  0  0  0  0  0  0
   19.6791   -6.6723  -15.6812 N   0  0  0  0  0  0  0  0  0  0  0  0
   19.6966   -4.3967  -15.0152 C   0  0  0  0  0  0  0  0  0  0  0  0
   19.2247   -3.6962  -14.0635 O   0  0  0  0  0  0  0  0  0  0  0  0
   19.5837   -3.8772  -16.3106 O   0  0  0  0  0  0  0  0  0  0  0  0
  2  1  1  6
  3  2  1  0
  4  2  1  0
  4  5  1  1
  6  4  1  0
  6  7  2  0
  9 11  1  0
  9  8  1  0
 10  9  2  0
 12 11  1  1
 12 13  1  0
 13  6  1  0
 14 12  1  0
 15 14  2  0
 16 17  1  0
 17 18  2  0
 17 19  1  0
 20 19  1  6
 20 22  1  0
 20 21  1  0
 21 14  1  0
 22 24  1  0
 23 22  2  0
M  END
$$$$
