TNN.pdb
     RDKit          3D

 24 23  0  0  1  0  0  0  0  0999 V2000
   15.1732   -8.5670  -16.3935 C   0  0  0  0  0  0  0  0  0  0  0  0
   15.3364   -9.4649  -15.1613 C   0  0  1  0  0  0  0  0  0  0  0  0
   15.1789  -10.7938  -15.5814 O   0  0  0  0  0  0  0  0  0  0  0  0
   16.7670   -9.2764  -14.7025 C   0  0  2  0  0  0  0  0  0  0  0  0
   17.1071  -10.4192  -13.8792 N   0  0  0  0  0  0  0  0  0  0  0  0
   16.9731   -7.9966  -13.9855 C   0  0  0  0  0  0  0  0  0  0  0  0
   16.6870   -6.9015  -14.5239 O   0  0  0  0  0  0  0  0  0  0  0  0
   18.1860   -4.6871  -10.3472 N   0  0  0  0  0  0  0  0  0  0  0  0
   17.8224   -5.8856   -9.6613 C   0  0  0  0  0  0  0  0  0  0  0  0
   17.7184   -5.8627   -8.4189 O   0  0  0  0  0  0  0  0  0  0  0  0
   17.5798   -7.1195  -10.4454 C   0  0  0  0  0  0  0  0  0  0  0  0
   17.7911   -6.8115  -11.9109 C   0  0  2  0  0  0  0  0  0  0  0  0
   17.5034   -8.0081  -12.6672 N   0  0  0  0  0  0  0  0  0  0  0  0
   19.1988   -6.4132  -12.1861 C   0  0  0  0  0  0  0  0  0  0  0  0
   20.1205   -7.1247  -11.7199 O   0  0  0  0  0  0  0  0  0  0  0  0
   22.6783   -7.3945  -13.9955 N   0  0  0  0  0  0  0  0  0  0  0  0
   21.5017   -6.8527  -14.5774 C   0  0  0  0  0  0  0  0  0  0  0  0
   20.6528   -7.6173  -15.0653 O   0  0  0  0  0  0  0  0  0  0  0  0
   21.2933   -5.3914  -14.6004 C   0  0  0  0  0  0  0  0  0  0  0  0
   20.8688   -4.8682  -13.2607 C   0  0  2  0  0  0  0  0  0  0  0  0
   19.4967   -5.2630  -12.9526 N   0  0  0  0  0  0  0  0  0  0  0  0
   20.9358   -3.3976  -13.2203 C   0  0  0  0  0  0  0  0  0  0  0  0
   22.0231   -2.7452  -13.3269 O   0  0  0  0  0  0  0  0  0  0  0  0
   19.7578   -2.6582  -13.0575 O   0  0  0  0  0  0  0  0  0  0  0  0
  2  1  1  6
  3  2  1  0
  4  2  1  0
  4  5  1  1
  6  4  1  0
  6  7  2  0
  9 11  1  0
  9  8  1  0
 10  9  2  0
 12 11  1  1
 12 13  1  0
 13  6  1  0
 14 12  1  0
 15 14  2  0
 16 17  1  0
 17 18  2  0
 17 19  1  0
 20 19  1  6
 20 22  1  0
 20 21  1  0
 21 14  1  0
 22 24  1  0
 23 22  2  0
M  END
$$$$
