TNN.pdb
     RDKit          3D

 24 23  0  0  1  0  0  0  0  0999 V2000
   11.5115   -8.1301   -9.1722 C   0  0  0  0  0  0  0  0  0  0  0  0
   11.5114   -9.6620   -9.1038 C   0  0  1  0  0  0  0  0  0  0  0  0
   10.1751  -10.0873   -9.1285 O   0  0  0  0  0  0  0  0  0  0  0  0
   12.1842  -10.1298  -10.3770 C   0  0  2  0  0  0  0  0  0  0  0  0
   12.0046  -11.5657  -10.4539 N   0  0  0  0  0  0  0  0  0  0  0  0
   13.6137   -9.7466  -10.4420 C   0  0  0  0  0  0  0  0  0  0  0  0
   14.1630   -9.1389   -9.4934 O   0  0  0  0  0  0  0  0  0  0  0  0
   16.0867  -12.2207  -11.3980 N   0  0  0  0  0  0  0  0  0  0  0  0
   16.4485  -11.7606  -12.7004 C   0  0  0  0  0  0  0  0  0  0  0  0
   16.9023  -12.5782  -13.5254 O   0  0  0  0  0  0  0  0  0  0  0  0
   16.2742  -10.3269  -13.0327 C   0  0  0  0  0  0  0  0  0  0  0  0
   15.7269   -9.6113  -11.8179 C   0  0  2  0  0  0  0  0  0  0  0  0
   14.3758  -10.0716  -11.5965 N   0  0  0  0  0  0  0  0  0  0  0  0
   15.6894   -8.1377  -12.0252 C   0  0  0  0  0  0  0  0  0  0  0  0
   14.7684   -7.6590  -12.7293 O   0  0  0  0  0  0  0  0  0  0  0  0
   16.0026   -5.5800   -8.0968 N   0  0  0  0  0  0  0  0  0  0  0  0
   15.8016   -5.1796   -9.4443 C   0  0  0  0  0  0  0  0  0  0  0  0
   14.6585   -4.8838   -9.8305 O   0  0  0  0  0  0  0  0  0  0  0  0
   16.9453   -5.1170  -10.3757 C   0  0  0  0  0  0  0  0  0  0  0  0
   16.6627   -5.8472  -11.6547 C   0  0  2  0  0  0  0  0  0  0  0  0
   16.6643   -7.2929  -11.4463 N   0  0  0  0  0  0  0  0  0  0  0  0
   17.6757   -5.5368  -12.6774 C   0  0  0  0  0  0  0  0  0  0  0  0
   17.8713   -4.3650  -13.1332 O   0  0  0  0  0  0  0  0  0  0  0  0
   18.4761   -6.5656  -13.1892 O   0  0  0  0  0  0  0  0  0  0  0  0
  2  1  1  6
  3  2  1  0
  4  2  1  0
  4  5  1  1
  6  4  1  0
  6  7  2  0
  9 11  1  0
  9  8  1  0
 10  9  2  0
 12 11  1  6
 12 13  1  0
 13  6  1  0
 14 12  1  0
 15 14  2  0
 16 17  1  0
 17 18  2  0
 17 19  1  0
 20 19  1  1
 20 22  1  0
 20 21  1  0
 21 14  1  0
 22 24  1  0
 23 22  2  0
M  END
$$$$
