TNN.pdb
     RDKit          3D

 24 23  0  0  1  0  0  0  0  0999 V2000
   22.4196  -15.5145  -19.9393 C   0  0  0  0  0  0  0  0  0  0  0  0
   22.6775  -14.2141  -19.1688 C   0  0  1  0  0  0  0  0  0  0  0  0
   21.4310  -13.6727  -18.8218 O   0  0  0  0  0  0  0  0  0  0  0  0
   23.3896  -14.6247  -17.8972 C   0  0  2  0  0  0  0  0  0  0  0  0
   22.5701  -15.6315  -17.2532 N   0  0  0  0  0  0  0  0  0  0  0  0
   23.6644  -13.4781  -17.0005 C   0  0  0  0  0  0  0  0  0  0  0  0
   22.8097  -13.0878  -16.1709 O   0  0  0  0  0  0  0  0  0  0  0  0
   26.1285   -9.6364  -14.7670 N   0  0  0  0  0  0  0  0  0  0  0  0
   27.1213  -10.2518  -15.5884 C   0  0  0  0  0  0  0  0  0  0  0  0
   28.2991   -9.8487  -15.5169 O   0  0  0  0  0  0  0  0  0  0  0  0
   26.7229  -11.3499  -16.5003 C   0  0  0  0  0  0  0  0  0  0  0  0
   25.2600  -11.6602  -16.2748 C   0  0  2  0  0  0  0  0  0  0  0  0
   24.9153  -12.8086  -17.0803 N   0  0  0  0  0  0  0  0  0  0  0  0
   24.3925  -10.5233  -16.6881 C   0  0  0  0  0  0  0  0  0  0  0  0
   24.2050  -10.3326  -17.9135 O   0  0  0  0  0  0  0  0  0  0  0  0
   20.7097   -7.3084  -18.1300 N   0  0  0  0  0  0  0  0  0  0  0  0
   20.6107   -8.1210  -16.9697 C   0  0  0  0  0  0  0  0  0  0  0  0
   19.6738   -7.9399  -16.1743 O   0  0  0  0  0  0  0  0  0  0  0  0
   21.6160   -9.1716  -16.7145 C   0  0  0  0  0  0  0  0  0  0  0  0
   22.8657   -8.6104  -16.1045 C   0  0  2  0  0  0  0  0  0  0  0  0
   23.7918   -9.6757  -15.7289 N   0  0  0  0  0  0  0  0  0  0  0  0
   22.5602   -7.8296  -14.8938 C   0  0  0  0  0  0  0  0  0  0  0  0
   21.9509   -6.7127  -14.9188 O   0  0  0  0  0  0  0  0  0  0  0  0
   22.9493   -8.3196  -13.6411 O   0  0  0  0  0  0  0  0  0  0  0  0
  2  1  1  6
  3  2  1  0
  4  2  1  0
  4  5  1  1
  6  4  1  0
  6  7  2  0
  9 11  1  0
  9  8  1  0
 10  9  2  0
 12 11  1  6
 12 13  1  0
 13  6  1  0
 14 12  1  0
 15 14  2  0
 16 17  1  0
 17 18  2  0
 17 19  1  0
 20 19  1  1
 20 22  1  0
 20 21  1  0
 21 14  1  0
 22 24  1  0
 23 22  2  0
M  END
$$$$
