TNN.pdb
     RDKit          3D

 24 23  0  0  1  0  0  0  0  0999 V2000
   18.4474  -10.2124  -15.5987 C   0  0  0  0  0  0  0  0  0  0  0  0
   16.9192  -10.2972  -15.6910 C   0  0  1  0  0  0  0  0  0  0  0  0
   16.5924  -11.5858  -16.1385 O   0  0  0  0  0  0  0  0  0  0  0  0
   16.4129  -10.1424  -14.2725 C   0  0  2  0  0  0  0  0  0  0  0  0
   14.9966  -10.4485  -14.2872 N   0  0  0  0  0  0  0  0  0  0  0  0
   16.6828   -8.7976  -13.7130 C   0  0  0  0  0  0  0  0  0  0  0  0
   16.1706   -7.7724  -14.2205 O   0  0  0  0  0  0  0  0  0  0  0  0
   18.7237   -5.1451  -10.8292 N   0  0  0  0  0  0  0  0  0  0  0  0
   18.4455   -6.2377   -9.9530 C   0  0  0  0  0  0  0  0  0  0  0  0
   18.5948   -6.0803   -8.7251 O   0  0  0  0  0  0  0  0  0  0  0  0
   17.9881   -7.5246  -10.5282 C   0  0  0  0  0  0  0  0  0  0  0  0
   17.9420   -7.3929  -12.0341 C   0  0  2  0  0  0  0  0  0  0  0  0
   17.5353   -8.6653  -12.5838 N   0  0  0  0  0  0  0  0  0  0  0  0
   19.2788   -7.0499  -12.5918 C   0  0  0  0  0  0  0  0  0  0  0  0
   20.2358   -7.8282  -12.3648 O   0  0  0  0  0  0  0  0  0  0  0  0
   23.0748   -4.7791  -15.2364 N   0  0  0  0  0  0  0  0  0  0  0  0
   21.8548   -4.4672  -15.8927 C   0  0  0  0  0  0  0  0  0  0  0  0
   21.8798   -3.8388  -16.9640 O   0  0  0  0  0  0  0  0  0  0  0  0
   20.5687   -4.8882  -15.3024 C   0  0  0  0  0  0  0  0  0  0  0  0
   20.7578   -5.5536  -13.9719 C   0  0  2  0  0  0  0  0  0  0  0  0
   19.4723   -5.8779  -13.3587 N   0  0  0  0  0  0  0  0  0  0  0  0
   21.4944   -4.6806  -13.0424 C   0  0  0  0  0  0  0  0  0  0  0  0
   20.9236   -3.8619  -12.2530 O   0  0  0  0  0  0  0  0  0  0  0  0
   22.8932   -4.7359  -13.0069 O   0  0  0  0  0  0  0  0  0  0  0  0
  2  1  1  1
  3  2  1  0
  4  2  1  0
  4  5  1  6
  6  4  1  0
  6  7  2  0
  9 11  1  0
  9  8  1  0
 10  9  2  0
 12 11  1  1
 12 13  1  0
 13  6  1  0
 14 12  1  0
 15 14  2  0
 16 17  1  0
 17 18  2  0
 17 19  1  0
 20 19  1  6
 20 22  1  0
 20 21  1  0
 21 14  1  0
 22 24  1  0
 23 22  2  0
M  END
$$$$
