TNN.pdb
     RDKit          3D

 24 23  0  0  1  0  0  0  0  0999 V2000
   16.8567  -11.6397  -19.0558 C   0  0  0  0  0  0  0  0  0  0  0  0
   16.7853  -12.5517  -17.8253 C   0  0  1  0  0  0  0  0  0  0  0  0
   15.8668  -13.5735  -18.1077 O   0  0  0  0  0  0  0  0  0  0  0  0
   18.1609  -13.1705  -17.6925 C   0  0  2  0  0  0  0  0  0  0  0  0
   18.0524  -14.2554  -16.7380 N   0  0  0  0  0  0  0  0  0  0  0  0
   19.1944  -12.1859  -17.2963 C   0  0  0  0  0  0  0  0  0  0  0  0
   19.1574  -11.6266  -16.1752 O   0  0  0  0  0  0  0  0  0  0  0  0
   23.5190   -9.5275  -17.3769 N   0  0  0  0  0  0  0  0  0  0  0  0
   23.6100  -10.3801  -18.5187 C   0  0  0  0  0  0  0  0  0  0  0  0
   24.6587  -10.3763  -19.1933 O   0  0  0  0  0  0  0  0  0  0  0  0
   22.4569  -11.2431  -18.8675 C   0  0  0  0  0  0  0  0  0  0  0  0
   21.3491  -10.9991  -17.8673 C   0  0  2  0  0  0  0  0  0  0  0  0
   20.2448  -11.8690  -18.1994 N   0  0  0  0  0  0  0  0  0  0  0  0
   20.8669   -9.5919  -17.9217 C   0  0  0  0  0  0  0  0  0  0  0  0
   20.2405   -9.2164  -18.9415 O   0  0  0  0  0  0  0  0  0  0  0  0
   18.8259   -5.2285  -16.1660 N   0  0  0  0  0  0  0  0  0  0  0  0
   18.1361   -6.4575  -16.3399 C   0  0  0  0  0  0  0  0  0  0  0  0
   16.8947   -6.4736  -16.2969 O   0  0  0  0  0  0  0  0  0  0  0  0
   18.8927   -7.7043  -16.5695 C   0  0  0  0  0  0  0  0  0  0  0  0
   20.3634   -7.4459  -16.7083 C   0  0  2  0  0  0  0  0  0  0  0  0
   21.1054   -8.6955  -16.8545 N   0  0  0  0  0  0  0  0  0  0  0  0
   20.8917   -6.7420  -15.5276 C   0  0  0  0  0  0  0  0  0  0  0  0
   20.5186   -5.5743  -15.1862 O   0  0  0  0  0  0  0  0  0  0  0  0
   21.8532   -7.3681  -14.7250 O   0  0  0  0  0  0  0  0  0  0  0  0
  2  1  1  6
  3  2  1  0
  4  2  1  0
  4  5  1  1
  6  4  1  0
  6  7  2  0
  9 11  1  0
  9  8  1  0
 10  9  2  0
 12 11  1  6
 12 13  1  0
 13  6  1  0
 14 12  1  0
 15 14  2  0
 16 17  1  0
 17 18  2  0
 17 19  1  0
 20 19  1  1
 20 22  1  0
 20 21  1  0
 21 14  1  0
 22 24  1  0
 23 22  2  0
M  END
$$$$
