TNN.pdb
     RDKit          3D

 24 23  0  0  1  0  0  0  0  0999 V2000
   13.9775   -9.8586  -15.9045 C   0  0  0  0  0  0  0  0  0  0  0  0
   14.0982  -11.2374  -15.2445 C   0  0  1  0  0  0  0  0  0  0  0  0
   13.2692  -12.1201  -15.9522 O   0  0  0  0  0  0  0  0  0  0  0  0
   15.5359  -11.6661  -15.4489 C   0  0  2  0  0  0  0  0  0  0  0  0
   15.6331  -13.0511  -15.0342 N   0  0  0  0  0  0  0  0  0  0  0  0
   16.4979  -10.8028  -14.7252 C   0  0  0  0  0  0  0  0  0  0  0  0
   16.4172  -10.6449  -13.4845 O   0  0  0  0  0  0  0  0  0  0  0  0
   21.9296   -8.1479  -15.2535 N   0  0  0  0  0  0  0  0  0  0  0  0
   20.7319   -8.5240  -14.5730 C   0  0  0  0  0  0  0  0  0  0  0  0
   20.4793   -8.0092  -13.4657 O   0  0  0  0  0  0  0  0  0  0  0  0
   19.8259   -9.5136  -15.2022 C   0  0  0  0  0  0  0  0  0  0  0  0
   18.3981   -9.1454  -14.8662 C   0  0  2  0  0  0  0  0  0  0  0  0
   17.5288  -10.1424  -15.4466 N   0  0  0  0  0  0  0  0  0  0  0  0
   18.0301   -7.8190  -15.4329 C   0  0  0  0  0  0  0  0  0  0  0  0
   17.8636   -7.7271  -16.6727 O   0  0  0  0  0  0  0  0  0  0  0  0
   15.1382   -3.2254  -15.8821 N   0  0  0  0  0  0  0  0  0  0  0  0
   15.9634   -3.4614  -14.7509 C   0  0  0  0  0  0  0  0  0  0  0  0
   16.4064   -2.4970  -14.1051 O   0  0  0  0  0  0  0  0  0  0  0  0
   16.2901   -4.8440  -14.3491 C   0  0  0  0  0  0  0  0  0  0  0  0
   17.4516   -5.3898  -15.1249 C   0  0  2  0  0  0  0  0  0  0  0  0
   17.8710   -6.6871  -14.6008 N   0  0  0  0  0  0  0  0  0  0  0  0
   18.6079   -4.4802  -15.0586 C   0  0  0  0  0  0  0  0  0  0  0  0
   19.5875   -4.6535  -14.2651 O   0  0  0  0  0  0  0  0  0  0  0  0
   18.6547   -3.3623  -15.9005 O   0  0  0  0  0  0  0  0  0  0  0  0
  2  1  1  6
  3  2  1  0
  4  2  1  0
  4  5  1  1
  6  4  1  0
  6  7  2  0
  9 11  1  0
  9  8  1  0
 10  9  2  0
 12 11  1  6
 12 13  1  0
 13  6  1  0
 14 12  1  0
 15 14  2  0
 16 17  1  0
 17 18  2  0
 17 19  1  0
 20 19  1  1
 20 22  1  0
 20 21  1  0
 21 14  1  0
 22 24  1  0
 23 22  2  0
M  END
$$$$
