TNN.pdb
     RDKit          3D

 24 23  0  0  1  0  0  0  0  0999 V2000
   27.6045  -10.0271  -15.9217 C   0  0  0  0  0  0  0  0  0  0  0  0
   27.1594  -11.2978  -16.6554 C   0  0  1  0  0  0  0  0  0  0  0  0
   28.1309  -12.2828  -16.4247 O   0  0  0  0  0  0  0  0  0  0  0  0
   25.8730  -11.7303  -15.9841 C   0  0  2  0  0  0  0  0  0  0  0  0
   25.6290  -13.1052  -16.3711 N   0  0  0  0  0  0  0  0  0  0  0  0
   24.7298  -10.8497  -16.3187 C   0  0  0  0  0  0  0  0  0  0  0  0
   24.2440  -10.8332  -17.4740 O   0  0  0  0  0  0  0  0  0  0  0  0
   20.3749   -9.4055  -15.2979 N   0  0  0  0  0  0  0  0  0  0  0  0
   21.0368   -8.8584  -14.1571 C   0  0  0  0  0  0  0  0  0  0  0  0
   20.3558   -8.5152  -13.1705 O   0  0  0  0  0  0  0  0  0  0  0  0
   22.5116   -8.7150  -14.1795 C   0  0  0  0  0  0  0  0  0  0  0  0
   23.0217   -9.1651  -15.5302 C   0  0  2  0  0  0  0  0  0  0  0  0
   24.1736  -10.0099  -15.3163 N   0  0  0  0  0  0  0  0  0  0  0  0
   23.4411   -8.0077  -16.3670 C   0  0  0  0  0  0  0  0  0  0  0  0
   24.4598   -7.3621  -16.0221 O   0  0  0  0  0  0  0  0  0  0  0  0
   23.9032   -4.5553  -20.1263 N   0  0  0  0  0  0  0  0  0  0  0  0
   23.4988   -5.7919  -20.6954 C   0  0  0  0  0  0  0  0  0  0  0  0
   23.5195   -5.9332  -21.9294 O   0  0  0  0  0  0  0  0  0  0  0  0
   23.0576   -6.8983  -19.8232 C   0  0  0  0  0  0  0  0  0  0  0  0
   23.1195   -6.5228  -18.3727 C   0  0  2  0  0  0  0  0  0  0  0  0
   22.7144   -7.6395  -17.5226 N   0  0  0  0  0  0  0  0  0  0  0  0
   22.2293   -5.3865  -18.0807 C   0  0  0  0  0  0  0  0  0  0  0  0
   20.9764   -5.5108  -17.8962 O   0  0  0  0  0  0  0  0  0  0  0  0
   22.7647   -4.0953  -17.9968 O   0  0  0  0  0  0  0  0  0  0  0  0
  2  1  1  1
  3  2  1  0
  4  2  1  0
  4  5  1  6
  6  4  1  0
  6  7  2  0
  9 11  1  0
  9  8  1  0
 10  9  2  0
 12 11  1  1
 12 13  1  0
 13  6  1  0
 14 12  1  0
 15 14  2  0
 16 17  1  0
 17 18  2  0
 17 19  1  0
 20 19  1  6
 20 22  1  0
 20 21  1  0
 21 14  1  0
 22 24  1  0
 23 22  2  0
M  END
$$$$
