TNN.pdb
     RDKit          3D

 24 23  0  0  1  0  0  0  0  0999 V2000
   14.8596  -10.7972  -15.8397 C   0  0  0  0  0  0  0  0  0  0  0  0
   15.8786  -11.3119  -14.8161 C   0  0  1  0  0  0  0  0  0  0  0  0
   16.5662  -12.3835  -15.4045 O   0  0  0  0  0  0  0  0  0  0  0  0
   16.8573  -10.1762  -14.6042 C   0  0  2  0  0  0  0  0  0  0  0  0
   18.0489  -10.7435  -14.0058 N   0  0  0  0  0  0  0  0  0  0  0  0
   16.2926   -9.0811  -13.7819 C   0  0  0  0  0  0  0  0  0  0  0  0
   15.2120   -8.5291  -14.0960 O   0  0  0  0  0  0  0  0  0  0  0  0
   15.2896   -9.1538  -10.1168 N   0  0  0  0  0  0  0  0  0  0  0  0
   16.5879   -8.7139   -9.7170 C   0  0  0  0  0  0  0  0  0  0  0  0
   17.1377   -9.2626   -8.7416 O   0  0  0  0  0  0  0  0  0  0  0  0
   17.2424   -7.6197  -10.4722 C   0  0  0  0  0  0  0  0  0  0  0  0
   16.5844   -7.5066  -11.8292 C   0  0  2  0  0  0  0  0  0  0  0  0
   16.9846   -8.6480  -12.6188 N   0  0  0  0  0  0  0  0  0  0  0  0
   17.0147   -6.2726  -12.5418 C   0  0  0  0  0  0  0  0  0  0  0  0
   18.0603   -6.3186  -13.2331 O   0  0  0  0  0  0  0  0  0  0  0  0
   16.8865   -1.7606  -14.9567 N   0  0  0  0  0  0  0  0  0  0  0  0
   16.7513   -3.0387  -15.5606 C   0  0  0  0  0  0  0  0  0  0  0  0
   16.7895   -3.1375  -16.7983 O   0  0  0  0  0  0  0  0  0  0  0  0
   16.5668   -4.2381  -14.7198 C   0  0  0  0  0  0  0  0  0  0  0  0
   16.5760   -3.9010  -13.2587 C   0  0  2  0  0  0  0  0  0  0  0  0
   16.2689   -5.0752  -12.4460 N   0  0  0  0  0  0  0  0  0  0  0  0
   15.5789   -2.8628  -12.9478 C   0  0  0  0  0  0  0  0  0  0  0  0
   14.3502   -3.1165  -12.7353 O   0  0  0  0  0  0  0  0  0  0  0  0
   15.9784   -1.5226  -12.8767 O   0  0  0  0  0  0  0  0  0  0  0  0
  2  1  1  6
  3  2  1  0
  4  2  1  0
  4  5  1  1
  6  4  1  0
  6  7  2  0
  9 11  1  0
  9  8  1  0
 10  9  2  0
 12 11  1  1
 12 13  1  0
 13  6  1  0
 14 12  1  0
 15 14  2  0
 16 17  1  0
 17 18  2  0
 17 19  1  0
 20 19  1  6
 20 22  1  0
 20 21  1  0
 21 14  1  0
 22 24  1  0
 23 22  2  0
M  END
$$$$
