TNN.pdb
     RDKit          3D

 24 23  0  0  1  0  0  0  0  0999 V2000
   12.5206   -9.2733  -11.5511 C   0  0  0  0  0  0  0  0  0  0  0  0
   13.2356   -9.8570  -10.3266 C   0  0  1  0  0  0  0  0  0  0  0  0
   12.8704  -11.2076  -10.2265 O   0  0  0  0  0  0  0  0  0  0  0  0
   14.7148   -9.7851  -10.6419 C   0  0  2  0  0  0  0  0  0  0  0  0
   15.4122  -10.4966   -9.5896 N   0  0  0  0  0  0  0  0  0  0  0  0
   15.2014   -8.3934  -10.7857 C   0  0  0  0  0  0  0  0  0  0  0  0
   14.7930   -7.6595  -11.7160 O   0  0  0  0  0  0  0  0  0  0  0  0
   14.2591   -6.1369   -7.2467 N   0  0  0  0  0  0  0  0  0  0  0  0
   14.9885   -5.5838   -8.3425 C   0  0  0  0  0  0  0  0  0  0  0  0
   14.3999   -4.8260   -9.1389 O   0  0  0  0  0  0  0  0  0  0  0  0
   16.4217   -5.9262   -8.5006 C   0  0  0  0  0  0  0  0  0  0  0  0
   16.6291   -6.5193   -9.8763 C   0  0  2  0  0  0  0  0  0  0  0  0
   16.1457   -7.8804   -9.8560 N   0  0  0  0  0  0  0  0  0  0  0  0
   18.0703   -6.5418  -10.2478 C   0  0  0  0  0  0  0  0  0  0  0  0
   18.8576   -7.2118   -9.5375 O   0  0  0  0  0  0  0  0  0  0  0  0
   22.0657   -8.7771  -12.9234 N   0  0  0  0  0  0  0  0  0  0  0  0
   21.2081   -7.6913  -13.2427 C   0  0  0  0  0  0  0  0  0  0  0  0
   21.5134   -6.9230  -14.1700 O   0  0  0  0  0  0  0  0  0  0  0  0
   19.9643   -7.4808  -12.4758 C   0  0  0  0  0  0  0  0  0  0  0  0
   19.8641   -6.0797  -11.9507 C   0  0  2  0  0  0  0  0  0  0  0  0
   18.5470   -5.8281  -11.3715 N   0  0  0  0  0  0  0  0  0  0  0  0
   20.0816   -5.0946  -13.0235 C   0  0  0  0  0  0  0  0  0  0  0  0
   19.1688   -4.7292  -13.8313 O   0  0  0  0  0  0  0  0  0  0  0  0
   21.3473   -4.5170  -13.1827 O   0  0  0  0  0  0  0  0  0  0  0  0
  2  1  1  6
  3  2  1  0
  4  2  1  0
  4  5  1  1
  6  4  1  0
  6  7  2  0
  9 11  1  0
  9  8  1  0
 10  9  2  0
 12 11  1  1
 12 13  1  0
 13  6  1  0
 14 12  1  0
 15 14  2  0
 16 17  1  0
 17 18  2  0
 17 19  1  0
 20 19  1  6
 20 22  1  0
 20 21  1  0
 21 14  1  0
 22 24  1  0
 23 22  2  0
M  END
$$$$
