TNN.pdb
     RDKit          3D

 24 23  0  0  1  0  0  0  0  0999 V2000
   18.3025  -15.0621  -17.8386 C   0  0  0  0  0  0  0  0  0  0  0  0
   17.0676  -15.1623  -16.9351 C   0  0  1  0  0  0  0  0  0  0  0  0
   17.0135  -16.4716  -16.4349 O   0  0  0  0  0  0  0  0  0  0  0  0
   17.3276  -14.2205  -15.7784 C   0  0  2  0  0  0  0  0  0  0  0  0
   16.3580  -14.5305  -14.7472 N   0  0  0  0  0  0  0  0  0  0  0  0
   17.2733  -12.7953  -16.1788 C   0  0  0  0  0  0  0  0  0  0  0  0
   17.9957  -12.3567  -17.1044 O   0  0  0  0  0  0  0  0  0  0  0  0
   13.6433   -8.4490  -17.0175 N   0  0  0  0  0  0  0  0  0  0  0  0
   14.5730   -8.7279  -15.9702 C   0  0  0  0  0  0  0  0  0  0  0  0
   15.1824   -7.7806  -15.4354 O   0  0  0  0  0  0  0  0  0  0  0  0
   14.7857  -10.1332  -15.5505 C   0  0  0  0  0  0  0  0  0  0  0  0
   16.2102  -10.5250  -15.8739 C   0  0  2  0  0  0  0  0  0  0  0  0
   16.3897  -11.9099  -15.5046 N   0  0  0  0  0  0  0  0  0  0  0  0
   17.1877   -9.7069  -15.1052 C   0  0  0  0  0  0  0  0  0  0  0  0
   17.4311  -10.0303  -13.9180 O   0  0  0  0  0  0  0  0  0  0  0  0
   21.2391   -6.6560  -14.1695 N   0  0  0  0  0  0  0  0  0  0  0  0
   21.3105   -8.0562  -14.3953 C   0  0  0  0  0  0  0  0  0  0  0  0
   22.3523   -8.6695  -14.1096 O   0  0  0  0  0  0  0  0  0  0  0  0
   20.1530   -8.7733  -14.9658 C   0  0  0  0  0  0  0  0  0  0  0  0
   18.9366   -7.8992  -15.0381 C   0  0  2  0  0  0  0  0  0  0  0  0
   17.8293   -8.5919  -15.6920 N   0  0  0  0  0  0  0  0  0  0  0  0
   19.2124   -6.6688  -15.7989 C   0  0  0  0  0  0  0  0  0  0  0  0
   19.0143   -6.5635  -17.0515 O   0  0  0  0  0  0  0  0  0  0  0  0
   19.7179   -5.5454  -15.1332 O   0  0  0  0  0  0  0  0  0  0  0  0
  2  1  1  6
  3  2  1  0
  4  2  1  0
  4  5  1  1
  6  4  1  0
  6  7  2  0
  9 11  1  0
  9  8  1  0
 10  9  2  0
 12 11  1  1
 12 13  1  0
 13  6  1  0
 14 12  1  0
 15 14  2  0
 16 17  1  0
 17 18  2  0
 17 19  1  0
 20 19  1  6
 20 22  1  0
 20 21  1  0
 21 14  1  0
 22 24  1  0
 23 22  2  0
M  END
$$$$
