TNN.pdb
     RDKit          3D

 24 23  0  0  1  0  0  0  0  0999 V2000
   20.1291  -10.1330  -17.4636 C   0  0  0  0  0  0  0  0  0  0  0  0
   19.7234  -11.4907  -16.8777 C   0  0  1  0  0  0  0  0  0  0  0  0
   18.6812  -11.9986  -17.6671 O   0  0  0  0  0  0  0  0  0  0  0  0
   20.9309  -12.3884  -17.0470 C   0  0  2  0  0  0  0  0  0  0  0  0
   20.4982  -13.7444  -16.7754 N   0  0  0  0  0  0  0  0  0  0  0  0
   22.0668  -11.9867  -16.1851 C   0  0  0  0  0  0  0  0  0  0  0  0
   22.0188  -12.1375  -14.9418 O   0  0  0  0  0  0  0  0  0  0  0  0
   26.5863  -10.2338  -14.7216 N   0  0  0  0  0  0  0  0  0  0  0  0
   26.7953  -10.9743  -15.9245 C   0  0  0  0  0  0  0  0  0  0  0  0
   27.9602  -11.2684  -16.2580 O   0  0  0  0  0  0  0  0  0  0  0  0
   25.6229  -11.3707  -16.7397 C   0  0  0  0  0  0  0  0  0  0  0  0
   24.3641  -10.9521  -16.0136 C   0  0  2  0  0  0  0  0  0  0  0  0
   23.2297  -11.4214  -16.7747 N   0  0  0  0  0  0  0  0  0  0  0  0
   24.2685   -9.4710  -15.8994 C   0  0  0  0  0  0  0  0  0  0  0  0
   25.1079   -8.8739  -15.1838 O   0  0  0  0  0  0  0  0  0  0  0  0
   22.8119   -7.0103  -20.1482 N   0  0  0  0  0  0  0  0  0  0  0  0
   23.3615   -6.7809  -18.8591 C   0  0  0  0  0  0  0  0  0  0  0  0
   24.5891   -6.6364  -18.7345 O   0  0  0  0  0  0  0  0  0  0  0  0
   22.4771   -6.7157  -17.6788 C   0  0  0  0  0  0  0  0  0  0  0  0
   23.1296   -7.2988  -16.4610 C   0  0  2  0  0  0  0  0  0  0  0  0
   23.2594   -8.7491  -16.5774 N   0  0  0  0  0  0  0  0  0  0  0  0
   22.3435   -7.0113  -15.2493 C   0  0  0  0  0  0  0  0  0  0  0  0
   22.0696   -5.8317  -14.8586 O   0  0  0  0  0  0  0  0  0  0  0  0
   21.8624   -8.0720  -14.4720 O   0  0  0  0  0  0  0  0  0  0  0  0
  2  1  1  6
  3  2  1  0
  4  2  1  0
  4  5  1  1
  6  4  1  0
  6  7  2  0
  9 11  1  0
  9  8  1  0
 10  9  2  0
 12 11  1  6
 12 13  1  0
 13  6  1  0
 14 12  1  0
 15 14  2  0
 16 17  1  0
 17 18  2  0
 17 19  1  0
 20 19  1  6
 20 22  1  0
 20 21  1  0
 21 14  1  0
 22 24  1  0
 23 22  2  0
M  END
$$$$
