TNN.pdb
     RDKit          3D

 24 23  0  0  1  0  0  0  0  0999 V2000
   21.1710  -12.9096  -18.3225 C   0  0  0  0  0  0  0  0  0  0  0  0
   20.7598  -11.5404  -17.7682 C   0  0  1  0  0  0  0  0  0  0  0  0
   20.2712  -10.7786  -18.8398 O   0  0  0  0  0  0  0  0  0  0  0  0
   19.6154  -11.8104  -16.8143 C   0  0  2  0  0  0  0  0  0  0  0  0
   18.5832  -12.4950  -17.5663 N   0  0  0  0  0  0  0  0  0  0  0  0
   19.1055  -10.5777  -16.1701 C   0  0  0  0  0  0  0  0  0  0  0  0
   18.1781   -9.9137  -16.6899 O   0  0  0  0  0  0  0  0  0  0  0  0
   18.2971   -6.9211  -12.7932 N   0  0  0  0  0  0  0  0  0  0  0  0
   18.4871   -8.1402  -12.0744 C   0  0  0  0  0  0  0  0  0  0  0  0
   18.2452   -8.1642  -10.8513 O   0  0  0  0  0  0  0  0  0  0  0  0
   18.9654   -9.3391  -12.8023 C   0  0  0  0  0  0  0  0  0  0  0  0
   19.2403   -8.9558  -14.2392 C   0  0  2  0  0  0  0  0  0  0  0  0
   19.6749  -10.1392  -14.9443 N   0  0  0  0  0  0  0  0  0  0  0  0
   20.3190   -7.9343  -14.3333 C   0  0  0  0  0  0  0  0  0  0  0  0
   21.4944   -8.2841  -14.0697 O   0  0  0  0  0  0  0  0  0  0  0  0
   22.9418   -3.6329  -15.3672 N   0  0  0  0  0  0  0  0  0  0  0  0
   21.6347   -3.4127  -15.8766 C   0  0  0  0  0  0  0  0  0  0  0  0
   21.3870   -2.3625  -16.4923 O   0  0  0  0  0  0  0  0  0  0  0  0
   20.5811   -4.4267  -15.6733 C   0  0  0  0  0  0  0  0  0  0  0  0
   21.0835   -5.6027  -14.8901 C   0  0  2  0  0  0  0  0  0  0  0  0
   20.0333   -6.6017  -14.7093 N   0  0  0  0  0  0  0  0  0  0  0  0
   21.5498   -5.1907  -13.5554 C   0  0  0  0  0  0  0  0  0  0  0  0
   22.7735   -4.9783  -13.2783 O   0  0  0  0  0  0  0  0  0  0  0  0
   20.6194   -5.0173  -12.5234 O   0  0  0  0  0  0  0  0  0  0  0  0
  2  1  1  6
  3  2  1  0
  4  2  1  0
  4  5  1  6
  6  4  1  0
  6  7  2  0
  9 11  1  0
  9  8  1  0
 10  9  2  0
 12 11  1  1
 12 13  1  0
 13  6  1  0
 14 12  1  0
 15 14  2  0
 16 17  1  0
 17 18  2  0
 17 19  1  0
 20 19  1  1
 20 22  1  0
 20 21  1  0
 21 14  1  0
 22 24  1  0
 23 22  2  0
M  END
$$$$
