WNL.pdb
     RDKit          3D

 31 32  0  0  1  0  0  0  0  0999 V2000
   15.9659  -16.6869    5.2207 N   0  0  0  0  0  0  0  0  0  0  0  0
   16.7025  -16.3093    6.4444 C   0  0  1  0  0  0  0  0  0  0  0  0
   16.4409  -14.9138    6.7622 C   0  0  0  0  0  0  0  0  0  0  0  0
   17.2670  -13.8911    6.1208 C   0  0  0  0  0  0  0  0  0  0  0  0
   16.8927  -13.2875    4.9098 C   0  0  0  0  0  0  0  0  0  0  0  0
   17.7863  -12.3343    4.5929 N   0  0  0  0  0  0  0  0  0  0  0  0
   18.7199  -12.3269    5.5842 C   0  0  0  0  0  0  0  0  0  0  0  0
   19.8588  -11.5625    5.7390 C   0  0  0  0  0  0  0  0  0  0  0  0
   20.7091  -11.7315    6.8280 C   0  0  0  0  0  0  0  0  0  0  0  0
   20.3840  -12.6920    7.7581 C   0  0  0  0  0  0  0  0  0  0  0  0
   19.2482  -13.4528    7.6048 C   0  0  0  0  0  0  0  0  0  0  0  0
   18.4058  -13.2843    6.5283 C   0  0  0  0  0  0  0  0  0  0  0  0
   16.6516  -17.3475    7.4627 C   0  0  0  0  0  0  0  0  0  0  0  0
   15.7714  -18.2404    7.5295 O   0  0  0  0  0  0  0  0  0  0  0  0
   16.3378  -21.2090    7.6529 N   0  0  0  0  0  0  0  0  0  0  0  0
   16.6015  -20.4090    8.8180 C   0  0  0  0  0  0  0  0  0  0  0  0
   15.7049  -20.2364    9.6590 O   0  0  0  0  0  0  0  0  0  0  0  0
   17.9673  -19.8574    8.8893 C   0  0  0  0  0  0  0  0  0  0  0  0
   17.9506  -18.4710    9.3877 C   0  0  2  0  0  0  0  0  0  0  0  0
   17.6451  -17.4098    8.5134 N   0  0  0  0  0  0  0  0  0  0  0  0
   19.1073  -18.1605   10.2852 C   0  0  0  0  0  0  0  0  0  0  0  0
   19.3635  -19.0034   11.1764 O   0  0  0  0  0  0  0  0  0  0  0  0
   22.9928  -18.8960    9.6554 C   0  0  0  0  0  0  0  0  0  0  0  0
   22.5367  -17.5177    9.3623 C   0  0  2  0  0  0  0  0  0  0  0  0
   23.4972  -16.8865    8.3350 C   0  0  0  0  0  0  0  0  0  0  0  0
   22.2634  -16.5959   10.4812 C   0  0  0  0  0  0  0  0  0  0  0  0
   20.9929  -16.7327   11.1969 C   0  0  2  0  0  0  0  0  0  0  0  0
   19.9078  -17.0059   10.1912 N   0  0  0  0  0  0  0  0  0  0  0  0
   20.5168  -15.7028   12.0627 C   0  0  0  0  0  0  0  0  0  0  0  0
   19.3628  -15.1841   11.8668 O   0  0  0  0  0  0  0  0  0  0  0  0
   21.1872  -15.1601   13.1721 O   0  0  0  0  0  0  0  0  0  0  0  0
  2  1  1  6
  2  3  1  0
  2 13  1  0
  3  4  1  0
  4  5  2  0
  5  6  1  0
  7  8  2  0
  7  6  1  0
  9  8  1  0
 10  9  2  0
 11 10  1  0
 11 12  2  0
 12  4  1  0
 12  7  1  0
 13 20  1  0
 13 14  2  0
 16 15  1  0
 17 16  2  0
 18 16  1  0
 19 18  1  6
 20 19  1  0
 21 19  1  0
 21 22  2  0
 24 26  1  0
 24 23  1  1
 25 24  1  0
 27 26  1  6
 27 28  1  0
 28 21  1  0
 29 27  1  0
 30 29  2  0
 31 29  1  0
M  END
$$$$
