WNL.pdb
     RDKit          3D

 31 32  0  0  1  0  0  0  0  0999 V2000
   27.7218  -32.4417  -18.5399 N   0  0  0  0  0  0  0  0  0  0  0  0
   27.8959  -32.5368  -17.0759 C   0  0  1  0  0  0  0  0  0  0  0  0
   28.2241  -31.2262  -16.5359 C   0  0  0  0  0  0  0  0  0  0  0  0
   29.5052  -30.6255  -16.9072 C   0  0  0  0  0  0  0  0  0  0  0  0
   29.5826  -29.5059  -17.7507 C   0  0  0  0  0  0  0  0  0  0  0  0
   30.8653  -29.1177  -17.8583 N   0  0  0  0  0  0  0  0  0  0  0  0
   31.5996  -29.9751  -17.0967 C   0  0  0  0  0  0  0  0  0  0  0  0
   32.9607  -30.0390  -16.8760 C   0  0  0  0  0  0  0  0  0  0  0  0
   33.5245  -31.0256  -16.0721 C   0  0  0  0  0  0  0  0  0  0  0  0
   32.6821  -31.9486  -15.4961 C   0  0  0  0  0  0  0  0  0  0  0  0
   31.3254  -31.8841  -15.7146 C   0  0  0  0  0  0  0  0  0  0  0  0
   30.7674  -30.9068  -16.5085 C   0  0  0  0  0  0  0  0  0  0  0  0
   26.8946  -33.3904  -16.4546 C   0  0  0  0  0  0  0  0  0  0  0  0
   25.6751  -33.3955  -16.7531 O   0  0  0  0  0  0  0  0  0  0  0  0
   26.2631  -37.0391  -16.4192 N   0  0  0  0  0  0  0  0  0  0  0  0
   26.8695  -37.4747  -15.1906 C   0  0  0  0  0  0  0  0  0  0  0  0
   27.2856  -38.6402  -15.0919 O   0  0  0  0  0  0  0  0  0  0  0  0
   26.9339  -36.4449  -14.1371 C   0  0  0  0  0  0  0  0  0  0  0  0
   26.4248  -35.1533  -14.6306 C   0  0  2  0  0  0  0  0  0  0  0  0
   27.2543  -34.3149  -15.4005 N   0  0  0  0  0  0  0  0  0  0  0  0
   25.6480  -34.3999  -13.5969 C   0  0  0  0  0  0  0  0  0  0  0  0
   26.3166  -33.8213  -12.7089 O   0  0  0  0  0  0  0  0  0  0  0  0
   21.8072  -31.3936  -15.2269 C   0  0  0  0  0  0  0  0  0  0  0  0
   22.1134  -32.5431  -14.3446 C   0  0  2  0  0  0  0  0  0  0  0  0
   20.7978  -33.2725  -14.0075 C   0  0  0  0  0  0  0  0  0  0  0  0
   22.9335  -32.3265  -13.1376 C   0  0  0  0  0  0  0  0  0  0  0  0
   23.5502  -33.4925  -12.5009 C   0  0  2  0  0  0  0  0  0  0  0  0
   24.2437  -34.3026  -13.5621 N   0  0  0  0  0  0  0  0  0  0  0  0
   22.7793  -34.3997  -11.7135 C   0  0  0  0  0  0  0  0  0  0  0  0
   22.1269  -33.9719  -10.6985 O   0  0  0  0  0  0  0  0  0  0  0  0
   22.6287  -35.7804  -11.9275 O   0  0  0  0  0  0  0  0  0  0  0  0
  2  1  1  6
  2  3  1  0
  2 13  1  0
  3  4  1  0
  4  5  2  0
  5  6  1  0
  7  8  2  0
  7  6  1  0
  9  8  1  0
 10  9  2  0
 11 10  1  0
 11 12  2  0
 12  4  1  0
 12  7  1  0
 13 20  1  0
 13 14  2  0
 16 15  1  0
 17 16  2  0
 18 16  1  0
 19 18  1  1
 20 19  1  0
 21 19  1  0
 21 22  2  0
 24 26  1  0
 24 23  1  1
 25 24  1  0
 27 26  1  6
 27 28  1  0
 28 21  1  0
 29 27  1  0
 30 29  2  0
 31 29  1  0
M  END
$$$$
