WNL.pdb
     RDKit          3D

 31 32  0  0  1  0  0  0  0  0999 V2000
   22.6806  -11.5691  -16.9856 N   0  0  0  0  0  0  0  0  0  0  0  0
   21.3436  -10.9696  -16.7964 C   0  0  1  0  0  0  0  0  0  0  0  0
   20.3388  -12.0206  -16.7450 C   0  0  0  0  0  0  0  0  0  0  0  0
   20.1674  -12.8727  -17.9217 C   0  0  0  0  0  0  0  0  0  0  0  0
   21.0690  -13.9044  -18.2279 C   0  0  0  0  0  0  0  0  0  0  0  0
   20.6296  -14.5732  -19.3083 N   0  0  0  0  0  0  0  0  0  0  0  0
   19.4650  -13.9796  -19.6900 C   0  0  0  0  0  0  0  0  0  0  0  0
   18.6204  -14.2565  -20.7460 C   0  0  0  0  0  0  0  0  0  0  0  0
   17.4754  -13.5011  -20.9828 C   0  0  0  0  0  0  0  0  0  0  0  0
   17.2025  -12.4574  -20.1288 C   0  0  0  0  0  0  0  0  0  0  0  0
   18.0432  -12.1822  -19.0753 C   0  0  0  0  0  0  0  0  0  0  0  0
   19.1752  -12.9308  -18.8399 C   0  0  0  0  0  0  0  0  0  0  0  0
   21.3582   -9.8786  -15.8338 C   0  0  0  0  0  0  0  0  0  0  0  0
   21.7721   -9.9736  -14.6523 O   0  0  0  0  0  0  0  0  0  0  0  0
   22.0181   -5.1554  -13.6702 N   0  0  0  0  0  0  0  0  0  0  0  0
   21.2609   -5.0698  -14.8892 C   0  0  0  0  0  0  0  0  0  0  0  0
   20.4892   -4.1136  -15.0657 O   0  0  0  0  0  0  0  0  0  0  0  0
   21.4940   -6.1750  -15.8373 C   0  0  0  0  0  0  0  0  0  0  0  0
   20.7958   -7.3978  -15.4036 C   0  0  2  0  0  0  0  0  0  0  0  0
   20.8631   -8.5655  -16.1883 N   0  0  0  0  0  0  0  0  0  0  0  0
   19.4158   -7.1298  -14.8903 C   0  0  0  0  0  0  0  0  0  0  0  0
   18.5040   -7.0694  -15.7478 O   0  0  0  0  0  0  0  0  0  0  0  0
   15.9366   -9.2552  -12.5447 C   0  0  0  0  0  0  0  0  0  0  0  0
   17.1183   -8.7731  -11.7933 C   0  0  2  0  0  0  0  0  0  0  0  0
   17.0423   -9.3137  -10.3516 C   0  0  0  0  0  0  0  0  0  0  0  0
   17.4468   -7.3350  -11.8125 C   0  0  0  0  0  0  0  0  0  0  0  0
   17.6654   -6.6918  -13.1100 C   0  0  2  0  0  0  0  0  0  0  0  0
   19.0864   -6.9466  -13.5336 N   0  0  0  0  0  0  0  0  0  0  0  0
   17.4119   -5.2998  -13.2978 C   0  0  0  0  0  0  0  0  0  0  0  0
   18.3752   -4.4590  -13.2333 O   0  0  0  0  0  0  0  0  0  0  0  0
   16.1702   -4.7004  -13.5692 O   0  0  0  0  0  0  0  0  0  0  0  0
  2  1  1  1
  2  3  1  0
  2 13  1  0
  3  4  1  0
  4  5  2  0
  5  6  1  0
  7  8  2  0
  7  6  1  0
  9  8  1  0
 10  9  2  0
 11 10  1  0
 11 12  2  0
 12  4  1  0
 12  7  1  0
 13 20  1  0
 13 14  2  0
 16 15  1  0
 17 16  2  0
 18 16  1  0
 19 18  1  6
 20 19  1  0
 21 19  1  0
 21 22  2  0
 24 26  1  0
 24 23  1  1
 25 24  1  0
 27 26  1  1
 27 28  1  0
 28 21  1  0
 29 27  1  0
 30 29  2  0
 31 29  1  0
M  END
$$$$
