WNL.pdb
     RDKit          3D

 31 32  0  0  1  0  0  0  0  0999 V2000
   16.5135  -10.5702  -19.1727 N   0  0  0  0  0  0  0  0  0  0  0  0
   17.6139   -9.6112  -18.9442 C   0  0  1  0  0  0  0  0  0  0  0  0
   17.2152   -8.2898  -19.4045 C   0  0  0  0  0  0  0  0  0  0  0  0
   16.9755   -8.0982  -20.8348 C   0  0  0  0  0  0  0  0  0  0  0  0
   15.7264   -7.6906  -21.3294 C   0  0  0  0  0  0  0  0  0  0  0  0
   15.8099   -7.5166  -22.6599 N   0  0  0  0  0  0  0  0  0  0  0  0
   17.0919   -7.8089  -23.0138 C   0  0  0  0  0  0  0  0  0  0  0  0
   17.7026   -7.8134  -24.2517 C   0  0  0  0  0  0  0  0  0  0  0  0
   19.0379   -8.1752  -24.4059 C   0  0  0  0  0  0  0  0  0  0  0  0
   19.7436   -8.5342  -23.2806 C   0  0  0  0  0  0  0  0  0  0  0  0
   19.1356   -8.5283  -22.0466 C   0  0  0  0  0  0  0  0  0  0  0  0
   17.8150   -8.1685  -21.8938 C   0  0  0  0  0  0  0  0  0  0  0  0
   18.2605   -9.8087  -17.6557 C   0  0  0  0  0  0  0  0  0  0  0  0
   17.9532  -10.7049  -16.8318 O   0  0  0  0  0  0  0  0  0  0  0  0
   19.7859  -12.5025  -15.8375 N   0  0  0  0  0  0  0  0  0  0  0  0
   19.6427  -11.2197  -15.2043 C   0  0  0  0  0  0  0  0  0  0  0  0
   18.6961  -11.0227  -14.4256 O   0  0  0  0  0  0  0  0  0  0  0  0
   20.6808  -10.2363  -15.5646 C   0  0  0  0  0  0  0  0  0  0  0  0
   20.0747   -8.9738  -16.0226 C   0  0  2  0  0  0  0  0  0  0  0  0
   19.3328   -8.9399  -17.2193 N   0  0  0  0  0  0  0  0  0  0  0  0
   20.9952   -7.8019  -15.8844 C   0  0  0  0  0  0  0  0  0  0  0  0
   21.8284   -7.6357  -16.8055 O   0  0  0  0  0  0  0  0  0  0  0  0
   23.9248   -3.6985  -15.8559 C   0  0  0  0  0  0  0  0  0  0  0  0
   22.5170   -3.7674  -16.3109 C   0  0  2  0  0  0  0  0  0  0  0  0
   21.7613   -2.5375  -15.7699 C   0  0  0  0  0  0  0  0  0  0  0  0
   21.7498   -5.0088  -16.0947 C   0  0  0  0  0  0  0  0  0  0  0  0
   21.8789   -5.6866  -14.8027 C   0  0  2  0  0  0  0  0  0  0  0  0
   20.9819   -6.8944  -14.8078 N   0  0  0  0  0  0  0  0  0  0  0  0
   21.6468   -4.9933  -13.5770 C   0  0  0  0  0  0  0  0  0  0  0  0
   20.6057   -5.2560  -12.8798 O   0  0  0  0  0  0  0  0  0  0  0  0
   22.4667   -4.0089  -12.9995 O   0  0  0  0  0  0  0  0  0  0  0  0
  2  1  1  1
  2  3  1  0
  2 13  1  0
  3  4  1  0
  4  5  2  0
  5  6  1  0
  7  8  2  0
  7  6  1  0
  9  8  1  0
 10  9  2  0
 11 10  1  0
 11 12  2  0
 12  4  1  0
 12  7  1  0
 13 20  1  0
 13 14  2  0
 16 15  1  0
 17 16  2  0
 18 16  1  0
 19 18  1  6
 20 19  1  0
 21 19  1  0
 21 22  2  0
 24 26  1  0
 24 23  1  1
 25 24  1  0
 27 26  1  6
 27 28  1  0
 28 21  1  0
 29 27  1  0
 30 29  2  0
 31 29  1  0
M  END
$$$$
