WNL.pdb
     RDKit          3D

 31 32  0  0  1  0  0  0  0  0999 V2000
   27.5172  -22.1065  -14.0845 N   0  0  0  0  0  0  0  0  0  0  0  0
   26.4475  -21.7551  -13.1280 C   0  0  1  0  0  0  0  0  0  0  0  0
   26.8825  -20.6457  -12.2931 C   0  0  0  0  0  0  0  0  0  0  0  0
   27.8403  -20.9196  -11.2219 C   0  0  0  0  0  0  0  0  0  0  0  0
   29.1898  -21.2009  -11.4877 C   0  0  0  0  0  0  0  0  0  0  0  0
   29.8542  -21.3317  -10.3262 N   0  0  0  0  0  0  0  0  0  0  0  0
   28.9453  -21.1384   -9.3307 C   0  0  0  0  0  0  0  0  0  0  0  0
   29.0931  -21.1838   -7.9591 C   0  0  0  0  0  0  0  0  0  0  0  0
   28.0155  -20.9816   -7.1015 C   0  0  0  0  0  0  0  0  0  0  0  0
   26.7831  -20.7333   -7.6607 C   0  0  0  0  0  0  0  0  0  0  0  0
   26.6359  -20.6864   -9.0276 C   0  0  0  0  0  0  0  0  0  0  0  0
   27.7025  -20.8846   -9.8762 C   0  0  0  0  0  0  0  0  0  0  0  0
   25.1281  -21.7786  -13.7411 C   0  0  0  0  0  0  0  0  0  0  0  0
   24.8026  -21.1236  -14.7616 O   0  0  0  0  0  0  0  0  0  0  0  0
   21.1352  -24.3732  -15.9444 N   0  0  0  0  0  0  0  0  0  0  0  0
   21.0353  -24.3503  -14.5104 C   0  0  0  0  0  0  0  0  0  0  0  0
   19.9174  -24.4003  -13.9729 O   0  0  0  0  0  0  0  0  0  0  0  0
   22.3275  -24.2666  -13.8047 C   0  0  0  0  0  0  0  0  0  0  0  0
   22.7910  -22.8707  -13.7175 C   0  0  2  0  0  0  0  0  0  0  0  0
   24.0608  -22.5804  -13.1816 N   0  0  0  0  0  0  0  0  0  0  0  0
   21.7323  -21.9350  -13.2243 C   0  0  0  0  0  0  0  0  0  0  0  0
   21.5891  -21.8601  -11.9816 O   0  0  0  0  0  0  0  0  0  0  0  0
   20.5482  -17.6962  -11.8724 C   0  0  0  0  0  0  0  0  0  0  0  0
   20.8113  -17.9761  -13.3028 C   0  0  2  0  0  0  0  0  0  0  0  0
   20.9067  -16.6366  -14.0598 C   0  0  0  0  0  0  0  0  0  0  0  0
   19.9527  -18.9390  -14.0184 C   0  0  0  0  0  0  0  0  0  0  0  0
   19.8193  -20.2899  -13.4683 C   0  0  2  0  0  0  0  0  0  0  0  0
   20.9064  -21.1506  -14.0522 N   0  0  0  0  0  0  0  0  0  0  0  0
   18.5970  -21.0180  -13.5828 C   0  0  0  0  0  0  0  0  0  0  0  0
   18.3852  -21.7569  -14.6066 O   0  0  0  0  0  0  0  0  0  0  0  0
   17.5391  -21.0357  -12.6580 O   0  0  0  0  0  0  0  0  0  0  0  0
  2  1  1  6
  2  3  1  0
  2 13  1  0
  3  4  1  0
  4  5  2  0
  5  6  1  0
  7  8  2  0
  7  6  1  0
  9  8  1  0
 10  9  2  0
 11 10  1  0
 11 12  2  0
 12  4  1  0
 12  7  1  0
 13 20  1  0
 13 14  2  0
 16 15  1  0
 17 16  2  0
 18 16  1  0
 19 18  1  1
 20 19  1  0
 21 19  1  0
 21 22  2  0
 24 26  1  0
 24 23  1  1
 25 24  1  0
 27 26  1  6
 27 28  1  0
 28 21  1  0
 29 27  1  0
 30 29  2  0
 31 29  1  0
M  END
$$$$
