WNL.pdb
     RDKit          3D

 31 32  0  0  1  0  0  0  0  0999 V2000
   25.7185  -22.7858  -13.6827 N   0  0  0  0  0  0  0  0  0  0  0  0
   24.6882  -21.8827  -13.1298 C   0  0  1  0  0  0  0  0  0  0  0  0
   25.2966  -20.6133  -12.7617 C   0  0  0  0  0  0  0  0  0  0  0  0
   26.3867  -20.6252  -11.7864 C   0  0  0  0  0  0  0  0  0  0  0  0
   27.7340  -20.6543  -12.1802 C   0  0  0  0  0  0  0  0  0  0  0  0
   28.5178  -20.5776  -11.0906 N   0  0  0  0  0  0  0  0  0  0  0  0
   27.6870  -20.5015  -10.0145 C   0  0  0  0  0  0  0  0  0  0  0  0
   27.9698  -20.4285   -8.6654 C   0  0  0  0  0  0  0  0  0  0  0  0
   26.9596  -20.3855   -7.7088 C   0  0  0  0  0  0  0  0  0  0  0  0
   25.6552  -20.4191   -8.1454 C   0  0  0  0  0  0  0  0  0  0  0  0
   25.3730  -20.4902   -9.4899 C   0  0  0  0  0  0  0  0  0  0  0  0
   26.3726  -20.5309  -10.4365 C   0  0  0  0  0  0  0  0  0  0  0  0
   23.4409  -21.9443  -13.8766 C   0  0  0  0  0  0  0  0  0  0  0  0
   23.3470  -22.2715  -15.0851 O   0  0  0  0  0  0  0  0  0  0  0  0
   20.4468  -24.5111  -13.7094 N   0  0  0  0  0  0  0  0  0  0  0  0
   20.0777  -23.6840  -12.5929 C   0  0  0  0  0  0  0  0  0  0  0  0
   20.0196  -24.1791  -11.4560 O   0  0  0  0  0  0  0  0  0  0  0  0
   19.7966  -22.2774  -12.9354 C   0  0  0  0  0  0  0  0  0  0  0  0
   20.8740  -21.7117  -13.7661 C   0  0  2  0  0  0  0  0  0  0  0  0
   22.1806  -21.6045  -13.2512 N   0  0  0  0  0  0  0  0  0  0  0  0
   20.4501  -20.4876  -14.5156 C   0  0  0  0  0  0  0  0  0  0  0  0
   20.5810  -19.3943  -13.9173 O   0  0  0  0  0  0  0  0  0  0  0  0
   15.9077  -17.6625  -15.4307 C   0  0  0  0  0  0  0  0  0  0  0  0
   16.9789  -18.1545  -16.3275 C   0  0  2  0  0  0  0  0  0  0  0  0
   16.3602  -18.4922  -17.6985 C   0  0  0  0  0  0  0  0  0  0  0  0
   17.8721  -19.2314  -15.8599 C   0  0  0  0  0  0  0  0  0  0  0  0
   19.2398  -19.2726  -16.3821 C   0  0  2  0  0  0  0  0  0  0  0  0
   19.9261  -20.4889  -15.8225 N   0  0  0  0  0  0  0  0  0  0  0  0
   20.1300  -18.1699  -16.2126 C   0  0  0  0  0  0  0  0  0  0  0  0
   19.7839  -17.0013  -16.6044 O   0  0  0  0  0  0  0  0  0  0  0  0
   21.4079  -18.2029  -15.6287 O   0  0  0  0  0  0  0  0  0  0  0  0
  2  1  1  6
  2  3  1  0
  2 13  1  0
  3  4  1  0
  4  5  2  0
  5  6  1  0
  7  8  2  0
  7  6  1  0
  9  8  1  0
 10  9  2  0
 11 10  1  0
 11 12  2  0
 12  4  1  0
 12  7  1  0
 13 20  1  0
 13 14  2  0
 16 15  1  0
 17 16  2  0
 18 16  1  0
 19 18  1  1
 20 19  1  0
 21 19  1  0
 21 22  2  0
 24 26  1  0
 24 23  1  1
 25 24  1  0
 27 26  1  1
 27 28  1  0
 28 21  1  0
 29 27  1  0
 30 29  2  0
 31 29  1  0
M  END
$$$$
