WNL.pdb
     RDKit          3D

 31 32  0  0  1  0  0  0  0  0999 V2000
   22.3106  -13.8421  -21.4955 N   0  0  0  0  0  0  0  0  0  0  0  0
   21.7355  -13.4172  -20.2027 C   0  0  1  0  0  0  0  0  0  0  0  0
   21.9135  -14.4727  -19.2172 C   0  0  0  0  0  0  0  0  0  0  0  0
   21.2847  -15.7690  -19.4702 C   0  0  0  0  0  0  0  0  0  0  0  0
   20.1083  -16.1635  -18.8134 C   0  0  0  0  0  0  0  0  0  0  0  0
   19.7100  -17.3553  -19.2915 N   0  0  0  0  0  0  0  0  0  0  0  0
   20.6169  -17.7204  -20.2394 C   0  0  0  0  0  0  0  0  0  0  0  0
   20.6925  -18.8572  -21.0187 C   0  0  0  0  0  0  0  0  0  0  0  0
   21.7318  -19.0545  -21.9234 C   0  0  0  0  0  0  0  0  0  0  0  0
   22.6953  -18.0773  -22.0231 C   0  0  0  0  0  0  0  0  0  0  0  0
   22.6192  -16.9435  -21.2477 C   0  0  0  0  0  0  0  0  0  0  0  0
   21.5899  -16.7475  -20.3538 C   0  0  0  0  0  0  0  0  0  0  0  0
   22.0341  -12.0266  -19.8954 C   0  0  0  0  0  0  0  0  0  0  0  0
   23.1648  -11.4947  -20.0171 O   0  0  0  0  0  0  0  0  0  0  0  0
   19.5469   -6.5932  -19.4415 N   0  0  0  0  0  0  0  0  0  0  0  0
   20.7183   -7.4056  -19.6279 C   0  0  0  0  0  0  0  0  0  0  0  0
   21.8419   -6.9149  -19.4337 O   0  0  0  0  0  0  0  0  0  0  0  0
   20.4448   -8.7927  -20.0475 C   0  0  0  0  0  0  0  0  0  0  0  0
   21.0788   -9.7556  -19.1301 C   0  0  2  0  0  0  0  0  0  0  0  0
   21.0072  -11.1369  -19.3963 N   0  0  0  0  0  0  0  0  0  0  0  0
   20.8338   -9.4354  -17.6889 C   0  0  0  0  0  0  0  0  0  0  0  0
   19.7294   -9.7941  -17.2179 O   0  0  0  0  0  0  0  0  0  0  0  0
   23.3565   -9.8848  -12.3208 C   0  0  0  0  0  0  0  0  0  0  0  0
   22.3011   -9.2301  -13.1278 C   0  0  2  0  0  0  0  0  0  0  0  0
   20.9277   -9.5702  -12.5160 C   0  0  0  0  0  0  0  0  0  0  0  0
   22.2978   -9.4103  -14.5920 C   0  0  0  0  0  0  0  0  0  0  0  0
   21.4355   -8.5403  -15.3950 C   0  0  2  0  0  0  0  0  0  0  0  0
   21.7480   -8.7716  -16.8484 N   0  0  0  0  0  0  0  0  0  0  0  0
   21.4105   -7.1283  -15.1879 C   0  0  0  0  0  0  0  0  0  0  0  0
   22.1550   -6.3640  -15.8955 O   0  0  0  0  0  0  0  0  0  0  0  0
   20.6212   -6.4284  -14.2595 O   0  0  0  0  0  0  0  0  0  0  0  0
  2  1  1  6
  2  3  1  0
  2 13  1  0
  3  4  1  0
  4  5  2  0
  5  6  1  0
  7  8  2  0
  7  6  1  0
  9  8  1  0
 10  9  2  0
 11 10  1  0
 11 12  2  0
 12  4  1  0
 12  7  1  0
 13 20  1  0
 13 14  2  0
 16 15  1  0
 17 16  2  0
 18 16  1  0
 19 18  1  6
 20 19  1  0
 21 19  1  0
 21 22  2  0
 24 26  1  0
 24 23  1  1
 25 24  1  0
 27 26  1  1
 27 28  1  0
 28 21  1  0
 29 27  1  0
 30 29  2  0
 31 29  1  0
M  END
$$$$
