WNL.pdb
     RDKit          3D

 31 32  0  0  1  0  0  0  0  0999 V2000
   23.2982  -21.3825  -17.2940 N   0  0  0  0  0  0  0  0  0  0  0  0
   22.1140  -22.2086  -16.9814 C   0  0  1  0  0  0  0  0  0  0  0  0
   22.1601  -23.4417  -17.7523 C   0  0  0  0  0  0  0  0  0  0  0  0
   21.9348  -23.3645  -19.1957 C   0  0  0  0  0  0  0  0  0  0  0  0
   22.9692  -23.0519  -20.0920 C   0  0  0  0  0  0  0  0  0  0  0  0
   22.5050  -23.1289  -21.3514 N   0  0  0  0  0  0  0  0  0  0  0  0
   21.1933  -23.4843  -21.2648 C   0  0  0  0  0  0  0  0  0  0  0  0
   20.2486  -23.6777  -22.2524 C   0  0  0  0  0  0  0  0  0  0  0  0
   18.9333  -24.0167  -21.9483 C   0  0  0  0  0  0  0  0  0  0  0  0
   18.5922  -24.1551  -20.6225 C   0  0  0  0  0  0  0  0  0  0  0  0
   19.5339  -23.9641  -19.6381 C   0  0  0  0  0  0  0  0  0  0  0  0
   20.8359  -23.6304  -19.9391 C   0  0  0  0  0  0  0  0  0  0  0  0
   21.7983  -22.2068  -15.5610 C   0  0  0  0  0  0  0  0  0  0  0  0
   22.6397  -22.3591  -14.6417 O   0  0  0  0  0  0  0  0  0  0  0  0
   20.3589  -19.0474  -13.7364 N   0  0  0  0  0  0  0  0  0  0  0  0
   19.9241  -19.9763  -12.7289 C   0  0  0  0  0  0  0  0  0  0  0  0
   20.2642  -19.8032  -11.5477 O   0  0  0  0  0  0  0  0  0  0  0  0
   19.0854  -21.0805  -13.2309 C   0  0  0  0  0  0  0  0  0  0  0  0
   19.9157  -22.1576  -13.7977 C   0  0  2  0  0  0  0  0  0  0  0  0
   20.4365  -22.0365  -15.1007 N   0  0  0  0  0  0  0  0  0  0  0  0
   19.3662  -23.5224  -13.5237 C   0  0  0  0  0  0  0  0  0  0  0  0
   18.7254  -24.0628  -14.4552 O   0  0  0  0  0  0  0  0  0  0  0  0
   20.7413  -28.7651  -10.7657 C   0  0  0  0  0  0  0  0  0  0  0  0
   19.8711  -27.9061  -11.6015 C   0  0  2  0  0  0  0  0  0  0  0  0
   19.9658  -28.3810  -13.0651 C   0  0  0  0  0  0  0  0  0  0  0  0
   19.9968  -26.4396  -11.5021 C   0  0  0  0  0  0  0  0  0  0  0  0
   18.9728  -25.6116  -12.1432 C   0  0  2  0  0  0  0  0  0  0  0  0
   19.5223  -24.2212  -12.3112 N   0  0  0  0  0  0  0  0  0  0  0  0
   17.6664  -25.4846  -11.5827 C   0  0  0  0  0  0  0  0  0  0  0  0
   17.3824  -24.4801  -10.8414 O   0  0  0  0  0  0  0  0  0  0  0  0
   16.5868  -26.3670  -11.7578 O   0  0  0  0  0  0  0  0  0  0  0  0
  2  1  1  1
  2  3  1  0
  2 13  1  0
  3  4  1  0
  4  5  2  0
  5  6  1  0
  7  8  2  0
  7  6  1  0
  9  8  1  0
 10  9  2  0
 11 10  1  0
 11 12  2  0
 12  4  1  0
 12  7  1  0
 13 20  1  0
 13 14  2  0
 16 15  1  0
 17 16  2  0
 18 16  1  0
 19 18  1  6
 20 19  1  0
 21 19  1  0
 21 22  2  0
 24 26  1  0
 24 23  1  1
 25 24  1  0
 27 26  1  1
 27 28  1  0
 28 21  1  0
 29 27  1  0
 30 29  2  0
 31 29  1  0
M  END
$$$$
