WNL.pdb
     RDKit          3D

 31 32  0  0  1  0  0  0  0  0999 V2000
   16.7591   -9.6544  -17.2093 N   0  0  0  0  0  0  0  0  0  0  0  0
   17.3425  -10.0721  -15.9179 C   0  0  1  0  0  0  0  0  0  0  0  0
   18.7803  -10.2418  -16.0624 C   0  0  0  0  0  0  0  0  0  0  0  0
   19.2755  -11.0052  -17.2078 C   0  0  0  0  0  0  0  0  0  0  0  0
   20.1043  -10.4267  -18.1822 C   0  0  0  0  0  0  0  0  0  0  0  0
   20.4727  -11.3679  -19.0688 N   0  0  0  0  0  0  0  0  0  0  0  0
   19.8888  -12.5318  -18.6703 C   0  0  0  0  0  0  0  0  0  0  0  0
   19.9214  -13.7913  -19.2340 C   0  0  0  0  0  0  0  0  0  0  0  0
   19.2224  -14.8586  -18.6775 C   0  0  0  0  0  0  0  0  0  0  0  0
   18.4876  -14.6252  -17.5378 C   0  0  0  0  0  0  0  0  0  0  0  0
   18.4563  -13.3704  -16.9749 C   0  0  0  0  0  0  0  0  0  0  0  0
   19.1495  -12.3147  -17.5245 C   0  0  0  0  0  0  0  0  0  0  0  0
   16.7675   -9.3508  -14.7925 C   0  0  0  0  0  0  0  0  0  0  0  0
   16.5217   -8.1196  -14.7833 O   0  0  0  0  0  0  0  0  0  0  0  0
   14.9888   -9.9179   -9.1286 N   0  0  0  0  0  0  0  0  0  0  0  0
   14.4312   -9.6232  -10.4205 C   0  0  0  0  0  0  0  0  0  0  0  0
   13.5249   -8.7805  -10.5193 O   0  0  0  0  0  0  0  0  0  0  0  0
   15.0224  -10.3870  -11.5348 C   0  0  0  0  0  0  0  0  0  0  0  0
   15.8563   -9.5193  -12.3849 C   0  0  2  0  0  0  0  0  0  0  0  0
   16.4428  -10.0329  -13.5579 N   0  0  0  0  0  0  0  0  0  0  0  0
   16.8002   -8.6657  -11.5975 C   0  0  0  0  0  0  0  0  0  0  0  0
   17.7762   -9.2511  -11.0730 O   0  0  0  0  0  0  0  0  0  0  0  0
   20.3682   -4.1120  -12.2859 C   0  0  0  0  0  0  0  0  0  0  0  0
   19.6817   -4.9812  -11.3026 C   0  0  2  0  0  0  0  0  0  0  0  0
   20.7406   -5.8180  -10.5577 C   0  0  0  0  0  0  0  0  0  0  0  0
   18.5496   -5.8167  -11.7462 C   0  0  0  0  0  0  0  0  0  0  0  0
   17.7339   -6.4768  -10.7244 C   0  0  2  0  0  0  0  0  0  0  0  0
   16.6626   -7.2763  -11.4147 N   0  0  0  0  0  0  0  0  0  0  0  0
   17.1005   -5.7293   -9.6866 C   0  0  0  0  0  0  0  0  0  0  0  0
   15.9107   -5.2862   -9.8512 O   0  0  0  0  0  0  0  0  0  0  0  0
   17.6434   -5.4065   -8.4312 O   0  0  0  0  0  0  0  0  0  0  0  0
  2  1  1  6
  2  3  1  0
  2 13  1  0
  3  4  1  0
  4  5  2  0
  5  6  1  0
  7  8  2  0
  7  6  1  0
  9  8  1  0
 10  9  2  0
 11 10  1  0
 11 12  2  0
 12  4  1  0
 12  7  1  0
 13 20  1  0
 13 14  2  0
 16 15  1  0
 17 16  2  0
 18 16  1  0
 19 18  1  1
 20 19  1  0
 21 19  1  0
 21 22  2  0
 24 26  1  0
 24 23  1  6
 25 24  1  0
 27 26  1  6
 27 28  1  0
 28 21  1  0
 29 27  1  0
 30 29  2  0
 31 29  1  0
M  END
$$$$
