WNL.pdb
     RDKit          3D

 31 32  0  0  1  0  0  0  0  0999 V2000
   27.2790  -22.3896  -13.2936 N   0  0  0  0  0  0  0  0  0  0  0  0
   26.3617  -21.4515  -12.6146 C   0  0  1  0  0  0  0  0  0  0  0  0
   27.1307  -20.4162  -11.9410 C   0  0  0  0  0  0  0  0  0  0  0  0
   28.0373  -20.8168  -10.8652 C   0  0  0  0  0  0  0  0  0  0  0  0
   29.2964  -21.3798  -11.1275 C   0  0  0  0  0  0  0  0  0  0  0  0
   29.9465  -21.5761   -9.9671 N   0  0  0  0  0  0  0  0  0  0  0  0
   29.1175  -21.1469   -8.9758 C   0  0  0  0  0  0  0  0  0  0  0  0
   29.2836  -21.1434   -7.6055 C   0  0  0  0  0  0  0  0  0  0  0  0
   28.2880  -20.6792   -6.7505 C   0  0  0  0  0  0  0  0  0  0  0  0
   27.1186  -20.2190   -7.3108 C   0  0  0  0  0  0  0  0  0  0  0  0
   26.9536  -20.2208   -8.6766 C   0  0  0  0  0  0  0  0  0  0  0  0
   27.9394  -20.6784   -9.5226 C   0  0  0  0  0  0  0  0  0  0  0  0
   25.1971  -21.1321  -13.4264 C   0  0  0  0  0  0  0  0  0  0  0  0
   24.9295  -19.9901  -13.8741 O   0  0  0  0  0  0  0  0  0  0  0  0
   24.7251  -22.6798  -17.3600 N   0  0  0  0  0  0  0  0  0  0  0  0
   23.8498  -21.7699  -16.6724 C   0  0  0  0  0  0  0  0  0  0  0  0
   23.9946  -20.5465  -16.8252 O   0  0  0  0  0  0  0  0  0  0  0  0
   22.8319  -22.4176  -15.8244 C   0  0  0  0  0  0  0  0  0  0  0  0
   22.9830  -22.0117  -14.4162 C   0  0  2  0  0  0  0  0  0  0  0  0
   24.2273  -22.1499  -13.7709 N   0  0  0  0  0  0  0  0  0  0  0  0
   21.8389  -22.4511  -13.5572 C   0  0  0  0  0  0  0  0  0  0  0  0
   21.5924  -23.6796  -13.5426 O   0  0  0  0  0  0  0  0  0  0  0  0
   17.7690  -22.0181   -9.6964 C   0  0  0  0  0  0  0  0  0  0  0  0
   19.2141  -22.2989   -9.5339 C   0  0  2  0  0  0  0  0  0  0  0  0
   19.6422  -21.8830   -8.1125 C   0  0  0  0  0  0  0  0  0  0  0  0
   20.1630  -21.8029  -10.5487 C   0  0  0  0  0  0  0  0  0  0  0  0
   19.9030  -22.1216  -11.9544 C   0  0  2  0  0  0  0  0  0  0  0  0
   21.0412  -21.5884  -12.7812 N   0  0  0  0  0  0  0  0  0  0  0  0
   18.6920  -21.7180  -12.5928 C   0  0  0  0  0  0  0  0  0  0  0  0
   17.7366  -22.5570  -12.7428 O   0  0  0  0  0  0  0  0  0  0  0  0
   18.3931  -20.4416  -13.0989 O   0  0  0  0  0  0  0  0  0  0  0  0
  2  1  1  6
  2  3  1  0
  2 13  1  0
  3  4  1  0
  4  5  2  0
  5  6  1  0
  7  8  2  0
  7  6  1  0
  9  8  1  0
 10  9  2  0
 11 10  1  0
 11 12  2  0
 12  4  1  0
 12  7  1  0
 13 20  1  0
 13 14  2  0
 16 15  1  0
 17 16  2  0
 18 16  1  0
 19 18  1  6
 20 19  1  0
 21 19  1  0
 21 22  2  0
 24 26  1  0
 24 23  1  6
 25 24  1  0
 27 26  1  1
 27 28  1  0
 28 21  1  0
 29 27  1  0
 30 29  2  0
 31 29  1  0
M  END
$$$$
