WNL.pdb
     RDKit          3D

 31 32  0  0  1  0  0  0  0  0999 V2000
   15.0982  -14.4321    7.2251 N   0  0  0  0  0  0  0  0  0  0  0  0
   16.0452  -15.3648    6.5801 C   0  0  1  0  0  0  0  0  0  0  0  0
   17.4050  -14.8744    6.7463 C   0  0  0  0  0  0  0  0  0  0  0  0
   17.9492  -13.9826    5.7224 C   0  0  0  0  0  0  0  0  0  0  0  0
   18.1761  -12.6195    5.9707 C   0  0  0  0  0  0  0  0  0  0  0  0
   18.7512  -12.0604    4.8917 N   0  0  0  0  0  0  0  0  0  0  0  0
   18.8902  -13.0486    3.9653 C   0  0  0  0  0  0  0  0  0  0  0  0
   19.3980  -13.0112    2.6822 C   0  0  0  0  0  0  0  0  0  0  0  0
   19.4262  -14.1447    1.8748 C   0  0  0  0  0  0  0  0  0  0  0  0
   18.9282  -15.3185    2.3921 C   0  0  0  0  0  0  0  0  0  0  0  0
   18.4236  -15.3564    3.6713 C   0  0  0  0  0  0  0  0  0  0  0  0
   18.3974  -14.2352    4.4709 C   0  0  0  0  0  0  0  0  0  0  0  0
   15.7003  -16.7576    6.8217 C   0  0  0  0  0  0  0  0  0  0  0  0
   15.3668  -17.2281    7.9369 O   0  0  0  0  0  0  0  0  0  0  0  0
   15.2255  -22.2844    4.3057 N   0  0  0  0  0  0  0  0  0  0  0  0
   14.9206  -21.3643    5.3674 C   0  0  0  0  0  0  0  0  0  0  0  0
   14.7070  -21.7971    6.5112 O   0  0  0  0  0  0  0  0  0  0  0  0
   14.8939  -19.9461    4.9641 C   0  0  0  0  0  0  0  0  0  0  0  0
   15.7729  -19.1363    5.8258 C   0  0  2  0  0  0  0  0  0  0  0  0
   15.7352  -17.7303    5.7505 N   0  0  0  0  0  0  0  0  0  0  0  0
   17.1691  -19.6700    5.8994 C   0  0  0  0  0  0  0  0  0  0  0  0
   17.9529  -19.3085    4.9910 O   0  0  0  0  0  0  0  0  0  0  0  0
   21.7086  -20.4405    9.6774 C   0  0  0  0  0  0  0  0  0  0  0  0
   21.1557  -20.7030    8.3287 C   0  0  2  0  0  0  0  0  0  0  0  0
   22.1300  -20.1384    7.2759 C   0  0  0  0  0  0  0  0  0  0  0  0
   19.7623  -20.3185    8.0338 C   0  0  0  0  0  0  0  0  0  0  0  0
   19.0809  -20.9840    6.9211 C   0  0  2  0  0  0  0  0  0  0  0  0
   17.6456  -20.5332    6.9047 N   0  0  0  0  0  0  0  0  0  0  0  0
   19.0783  -22.4060    6.7992 C   0  0  0  0  0  0  0  0  0  0  0  0
   18.0147  -23.0692    7.0596 O   0  0  0  0  0  0  0  0  0  0  0  0
   20.1532  -23.2175    6.3981 O   0  0  0  0  0  0  0  0  0  0  0  0
  2  1  1  1
  2  3  1  0
  2 13  1  0
  3  4  1  0
  4  5  2  0
  5  6  1  0
  7  8  2  0
  7  6  1  0
  9  8  1  0
 10  9  2  0
 11 10  1  0
 11 12  2  0
 12  4  1  0
 12  7  1  0
 13 20  1  0
 13 14  2  0
 16 15  1  0
 17 16  2  0
 18 16  1  0
 19 18  1  6
 20 19  1  0
 21 19  1  0
 21 22  2  0
 24 26  1  0
 24 23  1  1
 25 24  1  0
 27 26  1  1
 27 28  1  0
 28 21  1  0
 29 27  1  0
 30 29  2  0
 31 29  1  0
M  END
$$$$
