WNL.pdb
     RDKit          3D

 31 32  0  0  1  0  0  0  0  0999 V2000
   27.4241  -19.6632  -17.2408 N   0  0  0  0  0  0  0  0  0  0  0  0
   27.2575  -19.0945  -15.8874 C   0  0  1  0  0  0  0  0  0  0  0  0
   27.0013  -17.6656  -15.9850 C   0  0  0  0  0  0  0  0  0  0  0  0
   27.8896  -16.8586  -16.8215 C   0  0  0  0  0  0  0  0  0  0  0  0
   27.4115  -15.7872  -17.5925 C   0  0  0  0  0  0  0  0  0  0  0  0
   28.4465  -15.1754  -18.1942 N   0  0  0  0  0  0  0  0  0  0  0  0
   29.5709  -15.8441  -17.8161 C   0  0  0  0  0  0  0  0  0  0  0  0
   30.8924  -15.6454  -18.1617 C   0  0  0  0  0  0  0  0  0  0  0  0
   31.9050  -16.4702  -17.6803 C   0  0  0  0  0  0  0  0  0  0  0  0
   31.5528  -17.5027  -16.8417 C   0  0  0  0  0  0  0  0  0  0  0  0
   30.2360  -17.6999  -16.4959 C   0  0  0  0  0  0  0  0  0  0  0  0
   29.2343  -16.8826  -16.9708 C   0  0  0  0  0  0  0  0  0  0  0  0
   26.4676  -19.9550  -15.0197 C   0  0  0  0  0  0  0  0  0  0  0  0
   25.7525  -20.9075  -15.4169 O   0  0  0  0  0  0  0  0  0  0  0  0
   25.0660  -20.8580   -8.9933 N   0  0  0  0  0  0  0  0  0  0  0  0
   25.1331  -21.1874  -10.3911 C   0  0  0  0  0  0  0  0  0  0  0  0
   24.4939  -22.1600  -10.8231 O   0  0  0  0  0  0  0  0  0  0  0  0
   25.9906  -20.2951  -11.1931 C   0  0  0  0  0  0  0  0  0  0  0  0
   25.6123  -20.3394  -12.6164 C   0  0  2  0  0  0  0  0  0  0  0  0
   26.4448  -19.7493  -13.5872 N   0  0  0  0  0  0  0  0  0  0  0  0
   24.1637  -20.0399  -12.8438 C   0  0  0  0  0  0  0  0  0  0  0  0
   23.8015  -18.8565  -12.6473 O   0  0  0  0  0  0  0  0  0  0  0  0
   21.1018  -18.4872  -15.6936 C   0  0  0  0  0  0  0  0  0  0  0  0
   21.6713  -19.8427  -15.8727 C   0  0  2  0  0  0  0  0  0  0  0  0
   21.3205  -20.3438  -17.2878 C   0  0  0  0  0  0  0  0  0  0  0  0
   21.4055  -20.8763  -14.8543 C   0  0  0  0  0  0  0  0  0  0  0  0
   21.7682  -20.5889  -13.4646 C   0  0  2  0  0  0  0  0  0  0  0  0
   23.2047  -20.9847  -13.2566 N   0  0  0  0  0  0  0  0  0  0  0  0
   21.0192  -21.1307  -12.3772 C   0  0  0  0  0  0  0  0  0  0  0  0
   21.2867  -22.3024  -11.9361 O   0  0  0  0  0  0  0  0  0  0  0  0
   19.9712  -20.5029  -11.6827 O   0  0  0  0  0  0  0  0  0  0  0  0
  2  1  1  6
  2  3  1  0
  2 13  1  0
  3  4  1  0
  4  5  2  0
  5  6  1  0
  7  8  2  0
  7  6  1  0
  9  8  1  0
 10  9  2  0
 11 10  1  0
 11 12  2  0
 12  4  1  0
 12  7  1  0
 13 20  1  0
 13 14  2  0
 16 15  1  0
 17 16  2  0
 18 16  1  0
 19 18  1  1
 20 19  1  0
 21 19  1  0
 21 22  2  0
 24 26  1  0
 24 23  1  1
 25 24  1  0
 27 26  1  6
 27 28  1  0
 28 21  1  0
 29 27  1  0
 30 29  2  0
 31 29  1  0
M  END
$$$$
