WNL.pdb
     RDKit          3D

 31 32  0  0  1  0  0  0  0  0999 V2000
   26.6242  -19.7709  -11.3450 N   0  0  0  0  0  0  0  0  0  0  0  0
   26.5162  -21.2441  -11.3672 C   0  0  1  0  0  0  0  0  0  0  0  0
   26.1961  -21.7317  -10.0343 C   0  0  0  0  0  0  0  0  0  0  0  0
   26.4997  -20.8710   -8.8910 C   0  0  0  0  0  0  0  0  0  0  0  0
   25.5537  -19.9781   -8.3630 C   0  0  0  0  0  0  0  0  0  0  0  0
   26.0676  -19.3770   -7.2757 N   0  0  0  0  0  0  0  0  0  0  0  0
   27.3238  -19.8755   -7.1091 C   0  0  0  0  0  0  0  0  0  0  0  0
   28.2876  -19.5831   -6.1652 C   0  0  0  0  0  0  0  0  0  0  0  0
   29.5386  -20.1931   -6.1859 C   0  0  0  0  0  0  0  0  0  0  0  0
   29.7957  -21.1055   -7.1832 C   0  0  0  0  0  0  0  0  0  0  0  0
   28.8347  -21.3983   -8.1230 C   0  0  0  0  0  0  0  0  0  0  0  0
   27.5962  -20.7960   -8.1015 C   0  0  0  0  0  0  0  0  0  0  0  0
   25.8159  -21.7292  -12.5469 C   0  0  0  0  0  0  0  0  0  0  0  0
   25.6328  -22.9406  -12.8216 O   0  0  0  0  0  0  0  0  0  0  0  0
   21.6664  -18.7949  -14.3044 N   0  0  0  0  0  0  0  0  0  0  0  0
   22.5684  -19.6257  -13.5542 C   0  0  0  0  0  0  0  0  0  0  0  0
   23.0212  -19.2183  -12.4725 O   0  0  0  0  0  0  0  0  0  0  0  0
   22.8699  -20.9271  -14.1788 C   0  0  0  0  0  0  0  0  0  0  0  0
   24.3006  -21.0318  -14.5149 C   0  0  2  0  0  0  0  0  0  0  0  0
   25.2770  -20.8080  -13.5247 N   0  0  0  0  0  0  0  0  0  0  0  0
   24.6427  -20.3772  -15.8166 C   0  0  0  0  0  0  0  0  0  0  0  0
   23.7112  -20.2683  -16.6477 O   0  0  0  0  0  0  0  0  0  0  0  0
   26.6728  -16.2408  -15.7145 C   0  0  0  0  0  0  0  0  0  0  0  0
   27.3369  -17.5441  -15.9473 C   0  0  2  0  0  0  0  0  0  0  0  0
   28.8106  -17.4340  -15.5085 C   0  0  0  0  0  0  0  0  0  0  0  0
   27.2153  -18.1888  -17.2686 C   0  0  0  0  0  0  0  0  0  0  0  0
   26.1509  -19.1761  -17.4622 C   0  0  2  0  0  0  0  0  0  0  0  0
   25.9180  -19.8864  -16.1566 N   0  0  0  0  0  0  0  0  0  0  0  0
   26.2448  -20.1762  -18.4762 C   0  0  0  0  0  0  0  0  0  0  0  0
   26.9754  -21.2108  -18.2896 O   0  0  0  0  0  0  0  0  0  0  0  0
   25.5933  -20.1750  -19.7213 O   0  0  0  0  0  0  0  0  0  0  0  0
  2  1  1  1
  2  3  1  0
  2 13  1  0
  3  4  1  0
  4  5  2  0
  5  6  1  0
  7  8  2  0
  7  6  1  0
  9  8  1  0
 10  9  2  0
 11 10  1  0
 11 12  2  0
 12  4  1  0
 12  7  1  0
 13 20  1  0
 13 14  2  0
 16 15  1  0
 17 16  2  0
 18 16  1  0
 19 18  1  1
 20 19  1  0
 21 19  1  0
 21 22  2  0
 24 26  1  0
 24 23  1  6
 25 24  1  0
 27 26  1  1
 27 28  1  0
 28 21  1  0
 29 27  1  0
 30 29  2  0
 31 29  1  0
M  END
$$$$
