WNL.pdb
     RDKit          3D

 31 32  0  0  1  0  0  0  0  0999 V2000
   41.3128   -9.3872   -7.3579 N   0  0  0  0  0  0  0  0  0  0  0  0
   40.2758   -9.0967   -8.3693 C   0  0  1  0  0  0  0  0  0  0  0  0
   38.9563   -9.2557   -7.7772 C   0  0  0  0  0  0  0  0  0  0  0  0
   38.4287  -10.6105   -7.6160 C   0  0  0  0  0  0  0  0  0  0  0  0
   38.1492  -11.1520   -6.3512 C   0  0  0  0  0  0  0  0  0  0  0  0
   37.6034  -12.3716   -6.5000 N   0  0  0  0  0  0  0  0  0  0  0  0
   37.5345  -12.6096   -7.8390 C   0  0  0  0  0  0  0  0  0  0  0  0
   37.0807  -13.7136   -8.5323 C   0  0  0  0  0  0  0  0  0  0  0  0
   37.1221  -13.7705   -9.9225 C   0  0  0  0  0  0  0  0  0  0  0  0
   37.6338  -12.6866  -10.5981 C   0  0  0  0  0  0  0  0  0  0  0  0
   38.0846  -11.5856   -9.9074 C   0  0  0  0  0  0  0  0  0  0  0  0
   38.0420  -11.5285   -8.5320 C   0  0  0  0  0  0  0  0  0  0  0  0
   40.6115   -7.9424   -9.1892 C   0  0  0  0  0  0  0  0  0  0  0  0
   41.3477   -6.9943   -8.8213 O   0  0  0  0  0  0  0  0  0  0  0  0
   39.8884   -5.3479  -14.7576 N   0  0  0  0  0  0  0  0  0  0  0  0
   40.5029   -5.5378  -13.4718 C   0  0  0  0  0  0  0  0  0  0  0  0
   41.2260   -4.6458  -13.0002 O   0  0  0  0  0  0  0  0  0  0  0  0
   40.1932   -6.8270  -12.8262 C   0  0  0  0  0  0  0  0  0  0  0  0
   40.0692   -6.6694  -11.3666 C   0  0  2  0  0  0  0  0  0  0  0  0
   40.0844   -7.8024  -10.5300 N   0  0  0  0  0  0  0  0  0  0  0  0
   39.0163   -5.6807  -10.9747 C   0  0  0  0  0  0  0  0  0  0  0  0
   37.8265   -6.0480  -11.1153 O   0  0  0  0  0  0  0  0  0  0  0  0
   37.0817   -4.6937   -6.0698 C   0  0  0  0  0  0  0  0  0  0  0  0
   37.0303   -4.0963   -7.4241 C   0  0  2  0  0  0  0  0  0  0  0  0
   35.5693   -4.1093   -7.9157 C   0  0  0  0  0  0  0  0  0  0  0  0
   37.9529   -4.5892   -8.4645 C   0  0  0  0  0  0  0  0  0  0  0  0
   38.2805   -3.6969   -9.5788 C   0  0  2  0  0  0  0  0  0  0  0  0
   39.2747   -4.3924  -10.4684 N   0  0  0  0  0  0  0  0  0  0  0  0
   38.7704   -2.3761   -9.3497 C   0  0  0  0  0  0  0  0  0  0  0  0
   40.0315   -2.1585   -9.3110 O   0  0  0  0  0  0  0  0  0  0  0  0
   38.0016   -1.2153   -9.1591 O   0  0  0  0  0  0  0  0  0  0  0  0
  2  1  1  1
  2  3  1  0
  2 13  1  0
  3  4  1  0
  4  5  2  0
  5  6  1  0
  7  8  2  0
  7  6  1  0
  9  8  1  0
 10  9  2  0
 11 10  1  0
 11 12  2  0
 12  4  1  0
 12  7  1  0
 13 20  1  0
 13 14  2  0
 16 15  1  0
 17 16  2  0
 18 16  1  0
 19 18  1  6
 20 19  1  0
 21 19  1  0
 21 22  2  0
 24 26  1  0
 24 23  1  1
 25 24  1  0
 27 26  1  1
 27 28  1  0
 28 21  1  0
 29 27  1  0
 30 29  2  0
 31 29  1  0
M  END
$$$$
