YVL.pdb
     RDKit          3D

 28 28  0  0  1  0  0  0  0  0999 V2000
   24.6308  -28.7091  -18.0813 O   0  0  0  0  0  0  0  0  0  0  0  0
   25.1805  -27.5920  -17.4461 C   0  0  0  0  0  0  0  0  0  0  0  0
   24.4561  -26.8400  -16.5465 C   0  0  0  0  0  0  0  0  0  0  0  0
   25.0007  -25.7382  -15.9210 C   0  0  0  0  0  0  0  0  0  0  0  0
   26.3022  -25.3327  -16.1658 C   0  0  0  0  0  0  0  0  0  0  0  0
   26.8737  -24.1348  -15.4828 C   0  0  0  0  0  0  0  0  0  0  0  0
   26.4403  -22.8581  -16.1727 C   0  0  2  0  0  0  0  0  0  0  0  0
   27.3186  -22.4941  -17.2430 N   0  0  0  0  0  0  0  0  0  0  0  0
   26.2911  -21.7367  -15.2421 C   0  0  0  0  0  0  0  0  0  0  0  0
   26.5482  -20.5724  -15.6363 O   0  0  0  0  0  0  0  0  0  0  0  0
   27.0198  -26.0912  -17.0677 C   0  0  0  0  0  0  0  0  0  0  0  0
   26.4772  -27.1958  -17.6962 C   0  0  0  0  0  0  0  0  0  0  0  0
   24.7224  -19.7358  -15.3068 C   0  0  0  0  0  0  0  0  0  0  0  0
   24.2046  -20.0889  -13.9308 C   0  0  1  0  0  0  0  0  0  0  0  0
   23.0085  -20.9692  -14.0861 C   0  0  0  0  0  0  0  0  0  0  0  0
   25.3197  -20.7650  -13.1370 C   0  0  2  0  0  0  0  0  0  0  0  0
   25.8559  -21.8880  -13.8744 N   0  0  0  0  0  0  0  0  0  0  0  0
   24.8920  -21.0823  -11.7673 C   0  0  0  0  0  0  0  0  0  0  0  0
   24.1908  -22.1182  -11.5473 O   0  0  0  0  0  0  0  0  0  0  0  0
   27.6135  -18.9873   -7.4163 C   0  0  0  0  0  0  0  0  0  0  0  0
   26.9300  -19.8857   -8.4312 C   0  0  1  0  0  0  0  0  0  0  0  0
   27.4697  -21.2914   -8.1811 C   0  0  0  0  0  0  0  0  0  0  0  0
   25.4514  -19.9524   -8.2265 C   0  0  0  0  0  0  0  0  0  0  0  0
   24.7320  -20.6949   -9.3003 C   0  0  2  0  0  0  0  0  0  0  0  0
   25.2166  -20.2919  -10.6331 N   0  0  0  0  0  0  0  0  0  0  0  0
   23.2577  -20.6156   -9.2420 C   0  0  0  0  0  0  0  0  0  0  0  0
   22.4624  -19.8759  -10.0975 O   0  0  0  0  0  0  0  0  0  0  0  0
   22.6598  -21.2643   -8.3518 O   0  0  0  0  0  0  0  0  0  0  0  0
  2  1  1  0
  3  2  2  0
  4  3  1  0
  5 11  1  0
  5  4  2  0
  6  7  1  0
  6  5  1  0
  7  8  1  6
  7  9  1  0
  9 10  2  0
 11 12  2  0
 12  2  1  0
 14 16  1  0
 14 13  1  6
 15 14  1  0
 17  9  1  0
 16 17  1  6
 18 16  1  0
 18 19  2  0
 21 20  1  1
 21 23  1  0
 21 22  1  0
 24 23  1  1
 24 26  1  0
 24 25  1  0
 25 18  1  0
 26 27  1  0
 28 26  2  0
M  END
$$$$
