YVL.pdb
     RDKit          3D

 28 28  0  0  1  0  0  0  0  0999 V2000
   19.7856  -14.2105  -18.8319 O   0  0  0  0  0  0  0  0  0  0  0  0
   20.4273  -15.2195  -18.1083 C   0  0  0  0  0  0  0  0  0  0  0  0
   21.5014  -14.9517  -17.2873 C   0  0  0  0  0  0  0  0  0  0  0  0
   22.1329  -15.9490  -16.5743 C   0  0  0  0  0  0  0  0  0  0  0  0
   21.7193  -17.2687  -16.6478 C   0  0  0  0  0  0  0  0  0  0  0  0
   22.4177  -18.3358  -15.8721 C   0  0  0  0  0  0  0  0  0  0  0  0
   23.7126  -18.7382  -16.5466 C   0  0  2  0  0  0  0  0  0  0  0  0
   23.4911  -19.3957  -17.7989 N   0  0  0  0  0  0  0  0  0  0  0  0
   24.5623  -19.5666  -15.6878 C   0  0  0  0  0  0  0  0  0  0  0  0
   24.2657  -20.7740  -15.5104 O   0  0  0  0  0  0  0  0  0  0  0  0
   20.6435  -17.5275  -17.4720 C   0  0  0  0  0  0  0  0  0  0  0  0
   20.0084  -16.5307  -18.1879 C   0  0  0  0  0  0  0  0  0  0  0  0
   28.6380  -20.4805  -13.0778 C   0  0  0  0  0  0  0  0  0  0  0  0
   27.9410  -19.6084  -14.0974 C   0  0  1  0  0  0  0  0  0  0  0  0
   28.5235  -19.8937  -15.4424 C   0  0  0  0  0  0  0  0  0  0  0  0
   26.4405  -19.8855  -14.0477 C   0  0  2  0  0  0  0  0  0  0  0  0
   25.7440  -19.0739  -15.0216 N   0  0  0  0  0  0  0  0  0  0  0  0
   25.9165  -19.7803  -12.6788 C   0  0  0  0  0  0  0  0  0  0  0  0
   25.9635  -18.6682  -12.0670 O   0  0  0  0  0  0  0  0  0  0  0  0
   21.1349  -21.3137  -11.1101 C   0  0  0  0  0  0  0  0  0  0  0  0
   22.4785  -20.6198  -11.2415 C   0  0  1  0  0  0  0  0  0  0  0  0
   22.2712  -19.1983  -10.7254 C   0  0  0  0  0  0  0  0  0  0  0  0
   23.5260  -21.2407  -10.3756 C   0  0  0  0  0  0  0  0  0  0  0  0
   24.8865  -20.6657  -10.5772 C   0  0  2  0  0  0  0  0  0  0  0  0
   25.3407  -20.8648  -11.9656 N   0  0  0  0  0  0  0  0  0  0  0  0
   25.9155  -21.1337   -9.6258 C   0  0  0  0  0  0  0  0  0  0  0  0
   26.1010  -20.6465   -8.3453 O   0  0  0  0  0  0  0  0  0  0  0  0
   26.6939  -22.0462   -9.9894 O   0  0  0  0  0  0  0  0  0  0  0  0
  2  1  1  0
  3  2  2  0
  4  3  1  0
  5 11  1  0
  5  4  2  0
  6  7  1  0
  6  5  1  0
  7  8  1  6
  7  9  1  0
  9 10  2  0
 11 12  2  0
 12  2  1  0
 14 16  1  0
 14 13  1  1
 15 14  1  0
 17  9  1  0
 16 17  1  6
 18 16  1  0
 18 19  2  0
 21 20  1  1
 21 23  1  0
 21 22  1  0
 24 23  1  6
 24 26  1  0
 24 25  1  0
 25 18  1  0
 26 27  1  0
 28 26  2  0
M  END
$$$$
