YVL.pdb
     RDKit          3D

 28 28  0  0  1  0  0  0  0  0999 V2000
   19.3314  -15.6760  -16.8201 O   0  0  0  0  0  0  0  0  0  0  0  0
   19.8900  -16.4967  -15.8363 C   0  0  0  0  0  0  0  0  0  0  0  0
   19.1352  -17.4249  -15.1520 C   0  0  0  0  0  0  0  0  0  0  0  0
   19.6887  -18.2335  -14.1817 C   0  0  0  0  0  0  0  0  0  0  0  0
   21.0302  -18.1531  -13.8468 C   0  0  0  0  0  0  0  0  0  0  0  0
   21.6112  -19.0335  -12.7907 C   0  0  0  0  0  0  0  0  0  0  0  0
   22.3877  -20.1792  -13.4055 C   0  0  2  0  0  0  0  0  0  0  0  0
   21.5341  -21.1271  -14.0553 N   0  0  0  0  0  0  0  0  0  0  0  0
   23.2493  -20.8609  -12.4366 C   0  0  0  0  0  0  0  0  0  0  0  0
   22.7732  -21.7883  -11.7363 O   0  0  0  0  0  0  0  0  0  0  0  0
   21.7780  -17.2212  -14.5367 C   0  0  0  0  0  0  0  0  0  0  0  0
   21.2267  -16.4094  -15.5096 C   0  0  0  0  0  0  0  0  0  0  0  0
   25.6270  -22.9789  -13.1869 C   0  0  0  0  0  0  0  0  0  0  0  0
   26.4236  -22.1963  -12.1676 C   0  0  1  0  0  0  0  0  0  0  0  0
   27.4537  -21.3906  -12.8882 C   0  0  0  0  0  0  0  0  0  0  0  0
   25.4714  -21.3220  -11.3554 C   0  0  2  0  0  0  0  0  0  0  0  0
   24.6393  -20.5294  -12.2337 N   0  0  0  0  0  0  0  0  0  0  0  0
   26.1881  -20.5490  -10.3315 C   0  0  0  0  0  0  0  0  0  0  0  0
   26.6318  -19.3914  -10.6078 O   0  0  0  0  0  0  0  0  0  0  0  0
   27.9025  -18.3051   -5.7740 C   0  0  0  0  0  0  0  0  0  0  0  0
   28.0948  -19.8100   -5.8249 C   0  0  1  0  0  0  0  0  0  0  0  0
   27.8088  -20.3196   -4.4148 C   0  0  0  0  0  0  0  0  0  0  0  0
   27.1109  -20.4784   -6.7291 C   0  0  0  0  0  0  0  0  0  0  0  0
   27.4434  -20.3470   -8.1763 C   0  0  2  0  0  0  0  0  0  0  0  0
   26.4282  -21.0143   -9.0115 N   0  0  0  0  0  0  0  0  0  0  0  0
   28.7991  -20.7967   -8.5545 C   0  0  0  0  0  0  0  0  0  0  0  0
   29.9422  -20.0208   -8.5029 O   0  0  0  0  0  0  0  0  0  0  0  0
   28.9466  -21.9742   -8.9576 O   0  0  0  0  0  0  0  0  0  0  0  0
  2  1  1  0
  3  2  2  0
  4  3  1  0
  5 11  1  0
  5  4  2  0
  6  7  1  0
  6  5  1  0
  7  8  1  1
  7  9  1  0
  9 10  2  0
 11 12  2  0
 12  2  1  0
 14 16  1  0
 14 13  1  6
 15 14  1  0
 17  9  1  0
 16 17  1  6
 18 16  1  0
 18 19  2  0
 21 20  1  1
 21 23  1  0
 21 22  1  0
 24 23  1  1
 24 26  1  0
 24 25  1  0
 25 18  1  0
 26 27  1  0
 28 26  2  0
M  END
$$$$
