YVL.pdb
     RDKit          3D

 28 28  0  0  1  0  0  0  0  0999 V2000
   22.3925  -30.1969  -19.4996 O   0  0  0  0  0  0  0  0  0  0  0  0
   23.0965  -29.3120  -18.6783 C   0  0  0  0  0  0  0  0  0  0  0  0
   24.1329  -29.7369  -17.8752 C   0  0  0  0  0  0  0  0  0  0  0  0
   24.8261  -28.8617  -17.0657 C   0  0  0  0  0  0  0  0  0  0  0  0
   24.5155  -27.5128  -17.0196 C   0  0  0  0  0  0  0  0  0  0  0  0
   25.2740  -26.5808  -16.1340 C   0  0  0  0  0  0  0  0  0  0  0  0
   26.3065  -25.8023  -16.9223 C   0  0  2  0  0  0  0  0  0  0  0  0
   27.4285  -26.6101  -17.2938 N   0  0  0  0  0  0  0  0  0  0  0  0
   26.7634  -24.6003  -16.2206 C   0  0  0  0  0  0  0  0  0  0  0  0
   27.7607  -24.6737  -15.4609 O   0  0  0  0  0  0  0  0  0  0  0  0
   23.4768  -27.0964  -17.8267 C   0  0  0  0  0  0  0  0  0  0  0  0
   22.7801  -27.9706  -18.6391 C   0  0  0  0  0  0  0  0  0  0  0  0
   27.2776  -19.7867  -15.7317 C   0  0  0  0  0  0  0  0  0  0  0  0
   26.8717  -20.9921  -16.5492 C   0  0  1  0  0  0  0  0  0  0  0  0
   27.9570  -21.2855  -17.5319 C   0  0  0  0  0  0  0  0  0  0  0  0
   26.6110  -22.1667  -15.6095 C   0  0  2  0  0  0  0  0  0  0  0  0
   26.1288  -23.3107  -16.3519 N   0  0  0  0  0  0  0  0  0  0  0  0
   25.7631  -21.7736  -14.4753 C   0  0  0  0  0  0  0  0  0  0  0  0
   24.5120  -21.6302  -14.6404 O   0  0  0  0  0  0  0  0  0  0  0  0
   24.5982  -21.3319   -8.9382 C   0  0  0  0  0  0  0  0  0  0  0  0
   25.2094  -20.2160   -9.7661 C   0  0  1  0  0  0  0  0  0  0  0  0
   26.1185  -19.4375   -8.8187 C   0  0  0  0  0  0  0  0  0  0  0  0
   26.0797  -20.7344  -10.8644 C   0  0  0  0  0  0  0  0  0  0  0  0
   25.3382  -21.0401  -12.1210 C   0  0  2  0  0  0  0  0  0  0  0  0
   26.2543  -21.5359  -13.1643 N   0  0  0  0  0  0  0  0  0  0  0  0
   24.5069  -19.9373  -12.6462 C   0  0  0  0  0  0  0  0  0  0  0  0
   24.9764  -18.8578  -13.3713 O   0  0  0  0  0  0  0  0  0  0  0  0
   23.2731  -19.9633  -12.4276 O   0  0  0  0  0  0  0  0  0  0  0  0
  2  1  1  0
  3  2  2  0
  4  3  1  0
  5 11  1  0
  5  4  2  0
  6  7  1  0
  6  5  1  0
  7  8  1  1
  7  9  1  0
  9 10  2  0
 11 12  2  0
 12  2  1  0
 14 16  1  0
 14 13  1  1
 15 14  1  0
 17  9  1  0
 16 17  1  6
 18 16  1  0
 18 19  2  0
 21 20  1  1
 21 23  1  0
 21 22  1  0
 24 23  1  1
 24 26  1  0
 24 25  1  0
 25 18  1  0
 26 27  1  0
 28 26  2  0
M  END
$$$$
