YVL.pdb
     RDKit          3D

 28 28  0  0  1  0  0  0  0  0999 V2000
   27.3973  -11.8700  -17.6820 O   0  0  0  0  0  0  0  0  0  0  0  0
   26.8910  -13.0862  -17.2150 C   0  0  0  0  0  0  0  0  0  0  0  0
   27.0554  -13.4852  -15.9061 C   0  0  0  0  0  0  0  0  0  0  0  0
   26.5549  -14.6857  -15.4477 C   0  0  0  0  0  0  0  0  0  0  0  0
   25.8625  -15.5498  -16.2797 C   0  0  0  0  0  0  0  0  0  0  0  0
   25.3316  -16.8473  -15.7671 C   0  0  0  0  0  0  0  0  0  0  0  0
   26.4460  -17.8571  -15.5879 C   0  0  2  0  0  0  0  0  0  0  0  0
   27.0668  -18.2069  -16.8295 N   0  0  0  0  0  0  0  0  0  0  0  0
   26.0044  -19.0664  -14.8890 C   0  0  0  0  0  0  0  0  0  0  0  0
   25.5080  -20.0118  -15.5500 O   0  0  0  0  0  0  0  0  0  0  0  0
   25.7028  -15.1423  -17.5882 C   0  0  0  0  0  0  0  0  0  0  0  0
   26.2030  -13.9401  -18.0508 C   0  0  0  0  0  0  0  0  0  0  0  0
   25.6198  -21.9687  -10.9175 C   0  0  0  0  0  0  0  0  0  0  0  0
   26.2438  -20.7352  -11.5301 C   0  0  1  0  0  0  0  0  0  0  0  0
   27.6876  -21.0138  -11.7900 C   0  0  0  0  0  0  0  0  0  0  0  0
   25.4868  -20.3749  -12.8059 C   0  0  2  0  0  0  0  0  0  0  0  0
   26.1084  -19.2447  -13.4605 N   0  0  0  0  0  0  0  0  0  0  0  0
   24.0473  -20.2187  -12.5544 C   0  0  0  0  0  0  0  0  0  0  0  0
   23.5811  -19.0823  -12.2312 O   0  0  0  0  0  0  0  0  0  0  0  0
   19.6641  -18.4368  -13.3683 C   0  0  0  0  0  0  0  0  0  0  0  0
   19.9940  -19.7038  -14.1365 C   0  0  1  0  0  0  0  0  0  0  0  0
   19.7973  -19.3655  -15.6119 C   0  0  0  0  0  0  0  0  0  0  0  0
   21.4233  -20.1090  -13.9774 C   0  0  0  0  0  0  0  0  0  0  0  0
   21.6717  -20.9698  -12.7860 C   0  0  2  0  0  0  0  0  0  0  0  0
   23.1069  -21.2784  -12.6506 N   0  0  0  0  0  0  0  0  0  0  0  0
   20.8698  -22.2094  -12.7263 C   0  0  0  0  0  0  0  0  0  0  0  0
   19.6668  -22.3520  -12.0599 O   0  0  0  0  0  0  0  0  0  0  0  0
   21.2972  -23.2261  -13.3216 O   0  0  0  0  0  0  0  0  0  0  0  0
  2  1  1  0
  3  2  2  0
  4  3  1  0
  5 11  1  0
  5  4  2  0
  6  7  1  0
  6  5  1  0
  7  8  1  6
  7  9  1  0
  9 10  2  0
 11 12  2  0
 12  2  1  0
 14 16  1  0
 14 13  1  6
 15 14  1  0
 17  9  1  0
 16 17  1  1
 18 16  1  0
 18 19  2  0
 21 20  1  1
 21 23  1  0
 21 22  1  0
 24 23  1  6
 24 26  1  0
 24 25  1  0
 25 18  1  0
 26 27  1  0
 28 26  2  0
M  END
$$$$
