YVL.pdb
     RDKit          3D

 28 28  0  0  1  0  0  0  0  0999 V2000
   18.4441  -18.2533  -15.2423 O   0  0  0  0  0  0  0  0  0  0  0  0
   19.4064  -18.8258  -14.4060 C   0  0  0  0  0  0  0  0  0  0  0  0
   19.2151  -20.0574  -13.8175 C   0  0  0  0  0  0  0  0  0  0  0  0
   20.1662  -20.6203  -12.9927 C   0  0  0  0  0  0  0  0  0  0  0  0
   21.3604  -19.9763  -12.7147 C   0  0  0  0  0  0  0  0  0  0  0  0
   22.3766  -20.5989  -11.8159 C   0  0  0  0  0  0  0  0  0  0  0  0
   23.5823  -21.0687  -12.6028 C   0  0  2  0  0  0  0  0  0  0  0  0
   23.2832  -22.1954  -13.4338 N   0  0  0  0  0  0  0  0  0  0  0  0
   24.7331  -21.3673  -11.7469 C   0  0  0  0  0  0  0  0  0  0  0  0
   24.8709  -22.5268  -11.2847 O   0  0  0  0  0  0  0  0  0  0  0  0
   21.5432  -18.7441  -13.3080 C   0  0  0  0  0  0  0  0  0  0  0  0
   20.5924  -18.1771  -14.1350 C   0  0  0  0  0  0  0  0  0  0  0  0
   29.3079  -20.8396  -10.2998 C   0  0  0  0  0  0  0  0  0  0  0  0
   28.1755  -20.4245  -11.2115 C   0  0  1  0  0  0  0  0  0  0  0  0
   28.3322  -21.1347  -12.5156 C   0  0  0  0  0  0  0  0  0  0  0  0
   26.8461  -20.7480  -10.5342 C   0  0  2  0  0  0  0  0  0  0  0  0
   25.7400  -20.3945  -11.3966 N   0  0  0  0  0  0  0  0  0  0  0  0
   26.7742  -20.1744   -9.1831 C   0  0  0  0  0  0  0  0  0  0  0  0
   26.2372  -19.0371   -9.0062 O   0  0  0  0  0  0  0  0  0  0  0  0
   27.4738  -21.2052   -3.1756 C   0  0  0  0  0  0  0  0  0  0  0  0
   27.8736  -20.2849   -4.3146 C   0  0  1  0  0  0  0  0  0  0  0  0
   29.3381  -19.9281   -4.0743 C   0  0  0  0  0  0  0  0  0  0  0  0
   27.8115  -20.9651   -5.6435 C   0  0  0  0  0  0  0  0  0  0  0  0
   27.3244  -20.0850   -6.7436 C   0  0  2  0  0  0  0  0  0  0  0  0
   27.2755  -20.8190   -8.0213 N   0  0  0  0  0  0  0  0  0  0  0  0
   28.0606  -18.8143   -6.9067 C   0  0  0  0  0  0  0  0  0  0  0  0
   27.6638  -17.5900   -6.4016 O   0  0  0  0  0  0  0  0  0  0  0  0
   29.1348  -18.8254   -7.5522 O   0  0  0  0  0  0  0  0  0  0  0  0
  2  1  1  0
  3  2  2  0
  4  3  1  0
  5 11  1  0
  5  4  2  0
  6  7  1  0
  6  5  1  0
  7  8  1  1
  7  9  1  0
  9 10  2  0
 11 12  2  0
 12  2  1  0
 14 16  1  0
 14 13  1  1
 15 14  1  0
 17  9  1  0
 16 17  1  6
 18 16  1  0
 18 19  2  0
 21 20  1  1
 21 23  1  0
 21 22  1  0
 24 23  1  1
 24 26  1  0
 24 25  1  0
 25 18  1  0
 26 27  1  0
 28 26  2  0
M  END
$$$$
