YVL.pdb
     RDKit          3D

 28 28  0  0  1  0  0  0  0  0999 V2000
   28.7325  -14.5970  -19.9864 O   0  0  0  0  0  0  0  0  0  0  0  0
   27.9934  -15.5094  -19.2283 C   0  0  0  0  0  0  0  0  0  0  0  0
   27.3246  -16.5635  -19.8124 C   0  0  0  0  0  0  0  0  0  0  0  0
   26.5960  -17.4625  -19.0623 C   0  0  0  0  0  0  0  0  0  0  0  0
   26.5002  -17.3509  -17.6851 C   0  0  0  0  0  0  0  0  0  0  0  0
   25.7034  -18.3309  -16.8897 C   0  0  0  0  0  0  0  0  0  0  0  0
   26.6076  -19.2305  -16.0732 C   0  0  2  0  0  0  0  0  0  0  0  0
   27.4574  -20.0372  -16.8958 N   0  0  0  0  0  0  0  0  0  0  0  0
   25.8646  -20.0770  -15.1366 C   0  0  0  0  0  0  0  0  0  0  0  0
   25.4586  -21.2035  -15.5153 O   0  0  0  0  0  0  0  0  0  0  0  0
   27.1727  -16.2928  -17.1090 C   0  0  0  0  0  0  0  0  0  0  0  0
   27.9037  -15.3902  -17.8576 C   0  0  0  0  0  0  0  0  0  0  0  0
   24.5243  -21.4502  -10.6236 C   0  0  0  0  0  0  0  0  0  0  0  0
   25.3128  -20.4877  -11.4827 C   0  0  1  0  0  0  0  0  0  0  0  0
   26.7591  -20.8481  -11.3930 C   0  0  0  0  0  0  0  0  0  0  0  0
   24.7891  -20.5543  -12.9152 C   0  0  2  0  0  0  0  0  0  0  0  0
   25.5661  -19.6917  -13.7781 N   0  0  0  0  0  0  0  0  0  0  0  0
   23.3383  -20.3272  -12.9713 C   0  0  0  0  0  0  0  0  0  0  0  0
   22.8515  -19.2358  -12.5411 O   0  0  0  0  0  0  0  0  0  0  0  0
   20.1524  -21.5356  -17.2037 C   0  0  0  0  0  0  0  0  0  0  0  0
   20.8644  -20.9713  -15.9877 C   0  0  1  0  0  0  0  0  0  0  0  0
   20.5932  -19.4692  -15.9996 C   0  0  0  0  0  0  0  0  0  0  0  0
   20.3042  -21.4970  -14.7062 C   0  0  0  0  0  0  0  0  0  0  0  0
   20.9701  -20.9457  -13.4917 C   0  0  2  0  0  0  0  0  0  0  0  0
   22.4089  -21.2675  -13.4896 N   0  0  0  0  0  0  0  0  0  0  0  0
   20.3536  -21.3311  -12.2055 C   0  0  0  0  0  0  0  0  0  0  0  0
   19.3413  -20.6403  -11.5654 O   0  0  0  0  0  0  0  0  0  0  0  0
   20.7674  -22.3654  -11.6312 O   0  0  0  0  0  0  0  0  0  0  0  0
  2  1  1  0
  3  2  2  0
  4  3  1  0
  5 11  1  0
  5  4  2  0
  6  7  1  0
  6  5  1  0
  7  8  1  6
  7  9  1  0
  9 10  2  0
 11 12  2  0
 12  2  1  0
 14 16  1  0
 14 13  1  1
 15 14  1  0
 17  9  1  0
 16 17  1  6
 18 16  1  0
 18 19  2  0
 21 20  1  6
 21 23  1  0
 21 22  1  0
 24 23  1  6
 24 26  1  0
 24 25  1  0
 25 18  1  0
 26 27  1  0
 28 26  2  0
M  END
$$$$
