YVL.pdb
     RDKit          3D

 28 28  0  0  1  0  0  0  0  0999 V2000
   30.0576  -19.2133   -2.9197 O   0  0  0  0  0  0  0  0  0  0  0  0
   29.2671  -19.5705   -4.0156 C   0  0  0  0  0  0  0  0  0  0  0  0
   29.7904  -19.6647   -5.2871 C   0  0  0  0  0  0  0  0  0  0  0  0
   29.0083  -20.0174   -6.3668 C   0  0  0  0  0  0  0  0  0  0  0  0
   27.6585  -20.2944   -6.2271 C   0  0  0  0  0  0  0  0  0  0  0  0
   26.8264  -20.6704   -7.4079 C   0  0  0  0  0  0  0  0  0  0  0  0
   27.0503  -19.7105   -8.5577 C   0  0  2  0  0  0  0  0  0  0  0  0
   26.7936  -18.3514   -8.1885 N   0  0  0  0  0  0  0  0  0  0  0  0
   26.2714  -20.0635   -9.7471 C   0  0  0  0  0  0  0  0  0  0  0  0
   25.1503  -19.5276   -9.9290 O   0  0  0  0  0  0  0  0  0  0  0  0
   27.1432  -20.1975   -4.9508 C   0  0  0  0  0  0  0  0  0  0  0  0
   27.9240  -19.8444   -3.8668 C   0  0  0  0  0  0  0  0  0  0  0  0
   27.0810  -20.9428  -14.4814 C   0  0  0  0  0  0  0  0  0  0  0  0
   27.4643  -21.2704  -13.0560 C   0  0  1  0  0  0  0  0  0  0  0  0
   28.7334  -20.5542  -12.7300 C   0  0  0  0  0  0  0  0  0  0  0  0
   26.3206  -20.8696  -12.1276 C   0  0  2  0  0  0  0  0  0  0  0  0
   26.7212  -21.0049  -10.7443 N   0  0  0  0  0  0  0  0  0  0  0  0
   25.0742  -21.5673  -12.4733 C   0  0  0  0  0  0  0  0  0  0  0  0
   24.6580  -22.5189  -11.7422 O   0  0  0  0  0  0  0  0  0  0  0  0
   20.3396  -21.8794  -11.3216 C   0  0  0  0  0  0  0  0  0  0  0  0
   20.7641  -20.7536  -12.2471 C   0  0  1  0  0  0  0  0  0  0  0  0
   20.2878  -19.4625  -11.5867 C   0  0  0  0  0  0  0  0  0  0  0  0
   22.2495  -20.6484  -12.3700 C   0  0  0  0  0  0  0  0  0  0  0  0
   22.8092  -21.4072  -13.5247 C   0  0  2  0  0  0  0  0  0  0  0  0
   24.2726  -21.2451  -13.6003 N   0  0  0  0  0  0  0  0  0  0  0  0
   22.1893  -21.1113  -14.8329 C   0  0  0  0  0  0  0  0  0  0  0  0
   21.1474  -21.8197  -15.4023 O   0  0  0  0  0  0  0  0  0  0  0  0
   22.6289  -20.1433  -15.4965 O   0  0  0  0  0  0  0  0  0  0  0  0
  2  1  1  0
  3  2  2  0
  4  3  1  0
  5 11  1  0
  5  4  2  0
  6  7  1  0
  6  5  1  0
  7  8  1  1
  7  9  1  0
  9 10  2  0
 11 12  2  0
 12  2  1  0
 14 16  1  0
 14 13  1  6
 15 14  1  0
 17  9  1  0
 16 17  1  1
 18 16  1  0
 18 19  2  0
 21 20  1  1
 21 23  1  0
 21 22  1  0
 24 23  1  1
 24 26  1  0
 24 25  1  0
 25 18  1  0
 26 27  1  0
 28 26  2  0
M  END
$$$$
