YVL.pdb
     RDKit          3D

 28 28  0  0  1  0  0  0  0  0999 V2000
   18.6819  -15.5426  -16.5990 O   0  0  0  0  0  0  0  0  0  0  0  0
   19.5499  -16.4290  -15.9554 C   0  0  0  0  0  0  0  0  0  0  0  0
   20.8193  -16.0518  -15.5736 C   0  0  0  0  0  0  0  0  0  0  0  0
   21.6740  -16.9283  -14.9386 C   0  0  0  0  0  0  0  0  0  0  0  0
   21.2991  -18.2306  -14.6530 C   0  0  0  0  0  0  0  0  0  0  0  0
   22.2391  -19.1669  -13.9689 C   0  0  0  0  0  0  0  0  0  0  0  0
   23.2868  -19.6847  -14.9322 C   0  0  2  0  0  0  0  0  0  0  0  0
   22.7191  -20.4909  -15.9701 N   0  0  0  0  0  0  0  0  0  0  0  0
   24.3605  -20.4179  -14.2572 C   0  0  0  0  0  0  0  0  0  0  0  0
   24.2384  -21.6539  -14.0716 O   0  0  0  0  0  0  0  0  0  0  0  0
   20.0268  -18.5994  -15.0388 C   0  0  0  0  0  0  0  0  0  0  0  0
   19.1679  -17.7238  -15.6752 C   0  0  0  0  0  0  0  0  0  0  0  0
   28.9100  -21.0298  -12.5633 C   0  0  0  0  0  0  0  0  0  0  0  0
   27.9498  -20.2453  -13.4285 C   0  0  1  0  0  0  0  0  0  0  0  0
   28.1795  -20.6237  -14.8546 C   0  0  0  0  0  0  0  0  0  0  0  0
   26.5207  -20.5361  -12.9772 C   0  0  2  0  0  0  0  0  0  0  0  0
   25.5752  -19.7976  -13.7852 N   0  0  0  0  0  0  0  0  0  0  0  0
   26.3628  -20.3485  -11.5282 C   0  0  0  0  0  0  0  0  0  0  0  0
   26.4206  -19.1811  -11.0313 O   0  0  0  0  0  0  0  0  0  0  0  0
   27.2680  -18.3299   -7.1032 C   0  0  0  0  0  0  0  0  0  0  0  0
   27.3495  -19.8185   -7.3884 C   0  0  1  0  0  0  0  0  0  0  0  0
   26.1324  -20.4446   -6.7126 C   0  0  0  0  0  0  0  0  0  0  0  0
   27.2341  -20.1251   -8.8462 C   0  0  0  0  0  0  0  0  0  0  0  0
   26.1945  -21.1456   -9.1622 C   0  0  2  0  0  0  0  0  0  0  0  0
   26.1413  -21.4103  -10.6116 N   0  0  0  0  0  0  0  0  0  0  0  0
   24.8434  -20.8505   -8.6420 C   0  0  0  0  0  0  0  0  0  0  0  0
   24.2982  -21.3799   -7.4870 O   0  0  0  0  0  0  0  0  0  0  0  0
   24.1160  -20.0580   -9.2851 O   0  0  0  0  0  0  0  0  0  0  0  0
  2  1  1  0
  3  2  2  0
  4  3  1  0
  5 11  1  0
  5  4  2  0
  6  7  1  0
  6  5  1  0
  7  8  1  6
  7  9  1  0
  9 10  2  0
 11 12  2  0
 12  2  1  0
 14 16  1  0
 14 13  1  1
 15 14  1  0
 17  9  1  0
 16 17  1  6
 18 16  1  0
 18 19  2  0
 21 20  1  6
 21 23  1  0
 21 22  1  0
 24 23  1  6
 24 26  1  0
 24 25  1  0
 25 18  1  0
 26 27  1  0
 28 26  2  0
M  END
$$$$
