YVL.pdb
     RDKit          3D

 28 28  0  0  1  0  0  0  0  0999 V2000
   25.7394  -12.0102  -18.5899 O   0  0  0  0  0  0  0  0  0  0  0  0
   25.6293  -13.2389  -17.9329 C   0  0  0  0  0  0  0  0  0  0  0  0
   26.1315  -13.4299  -16.6637 C   0  0  0  0  0  0  0  0  0  0  0  0
   26.0217  -14.6432  -16.0175 C   0  0  0  0  0  0  0  0  0  0  0  0
   25.4014  -15.7297  -16.6116 C   0  0  0  0  0  0  0  0  0  0  0  0
   25.2956  -17.0369  -15.8987 C   0  0  0  0  0  0  0  0  0  0  0  0
   26.5913  -17.8149  -15.9959 C   0  0  2  0  0  0  0  0  0  0  0  0
   26.8671  -18.2460  -17.3329 N   0  0  0  0  0  0  0  0  0  0  0  0
   26.6329  -18.9581  -15.0809 C   0  0  0  0  0  0  0  0  0  0  0  0
   26.0597  -20.0271  -15.4065 O   0  0  0  0  0  0  0  0  0  0  0  0
   24.9018  -15.5294  -17.8821 C   0  0  0  0  0  0  0  0  0  0  0  0
   25.0101  -14.3151  -18.5325 C   0  0  0  0  0  0  0  0  0  0  0  0
   28.2388  -21.3399  -11.0708 C   0  0  0  0  0  0  0  0  0  0  0  0
   28.4183  -20.1764  -12.0194 C   0  0  1  0  0  0  0  0  0  0  0  0
   29.6303  -20.4283  -12.8545 C   0  0  0  0  0  0  0  0  0  0  0  0
   27.1565  -20.0234  -12.8650 C   0  0  2  0  0  0  0  0  0  0  0  0
   27.3066  -18.9340  -13.8048 N   0  0  0  0  0  0  0  0  0  0  0  0
   25.9511  -19.9457  -12.0279 C   0  0  0  0  0  0  0  0  0  0  0  0
   25.8309  -19.0105  -11.1769 O   0  0  0  0  0  0  0  0  0  0  0  0
   20.7070  -20.0501  -10.8171 C   0  0  0  0  0  0  0  0  0  0  0  0
   21.3717  -21.4133  -10.7544 C   0  0  1  0  0  0  0  0  0  0  0  0
   20.3427  -22.4089  -11.2835 C   0  0  0  0  0  0  0  0  0  0  0  0
   22.5606  -21.5080  -11.6544 C   0  0  0  0  0  0  0  0  0  0  0  0
   23.7455  -20.7496  -11.1616 C   0  0  2  0  0  0  0  0  0  0  0  0
   24.8738  -20.8678  -12.1031 N   0  0  0  0  0  0  0  0  0  0  0  0
   24.1814  -21.0838   -9.7899 C   0  0  0  0  0  0  0  0  0  0  0  0
   24.9921  -22.1496   -9.4460 O   0  0  0  0  0  0  0  0  0  0  0  0
   23.7959  -20.3542   -8.8466 O   0  0  0  0  0  0  0  0  0  0  0  0
  2  1  1  0
  3  2  2  0
  4  3  1  0
  5 11  1  0
  5  4  2  0
  6  7  1  0
  6  5  1  0
  7  8  1  6
  7  9  1  0
  9 10  2  0
 11 12  2  0
 12  2  1  0
 14 16  1  0
 14 13  1  1
 15 14  1  0
 17  9  1  0
 16 17  1  1
 18 16  1  0
 18 19  2  0
 21 20  1  6
 21 23  1  0
 21 22  1  0
 24 23  1  6
 24 26  1  0
 24 25  1  0
 25 18  1  0
 26 27  1  0
 28 26  2  0
M  END
$$$$
