YVL.pdb
     RDKit          3D

 28 28  0  0  1  0  0  0  0  0999 V2000
   17.9932  -18.8805  -14.8234 O   0  0  0  0  0  0  0  0  0  0  0  0
   19.0664  -19.3711  -14.0744 C   0  0  0  0  0  0  0  0  0  0  0  0
   20.1279  -18.5680  -13.7167 C   0  0  0  0  0  0  0  0  0  0  0  0
   21.1857  -19.0543  -12.9776 C   0  0  0  0  0  0  0  0  0  0  0  0
   21.2340  -20.3734  -12.5582 C   0  0  0  0  0  0  0  0  0  0  0  0
   22.3893  -20.8836  -11.7625 C   0  0  0  0  0  0  0  0  0  0  0  0
   23.5868  -21.1470  -12.6514 C   0  0  2  0  0  0  0  0  0  0  0  0
   23.3257  -22.1606  -13.6281 N   0  0  0  0  0  0  0  0  0  0  0  0
   24.7921  -21.4825  -11.8894 C   0  0  0  0  0  0  0  0  0  0  0  0
   24.8660  -22.5969  -11.3153 O   0  0  0  0  0  0  0  0  0  0  0  0
   20.1673  -21.1699  -12.9209 C   0  0  0  0  0  0  0  0  0  0  0  0
   19.1058  -20.6859  -13.6614 C   0  0  0  0  0  0  0  0  0  0  0  0
   29.4949  -20.9235  -10.6326 C   0  0  0  0  0  0  0  0  0  0  0  0
   28.3506  -20.4698  -11.5105 C   0  0  1  0  0  0  0  0  0  0  0  0
   28.5573  -21.0230  -12.8820 C   0  0  0  0  0  0  0  0  0  0  0  0
   27.0340  -20.9344  -10.8931 C   0  0  2  0  0  0  0  0  0  0  0  0
   25.9236  -20.5965  -11.7563 N   0  0  0  0  0  0  0  0  0  0  0  0
   26.8931  -20.4682   -9.5065 C   0  0  0  0  0  0  0  0  0  0  0  0
   26.2887  -19.3778   -9.2639 O   0  0  0  0  0  0  0  0  0  0  0  0
   28.4595  -21.8256   -3.5968 C   0  0  0  0  0  0  0  0  0  0  0  0
   27.9549  -20.8481   -4.6428 C   0  0  1  0  0  0  0  0  0  0  0  0
   28.9942  -19.7324   -4.7134 C   0  0  0  0  0  0  0  0  0  0  0  0
   27.8887  -21.4578   -6.0053 C   0  0  0  0  0  0  0  0  0  0  0  0
   27.3919  -20.5232   -7.0551 C   0  0  2  0  0  0  0  0  0  0  0  0
   27.3974  -21.1702   -8.3798 N   0  0  0  0  0  0  0  0  0  0  0  0
   28.0832  -19.2187   -7.1154 C   0  0  0  0  0  0  0  0  0  0  0  0
   29.3671  -19.0154   -7.5861 O   0  0  0  0  0  0  0  0  0  0  0  0
   27.4735  -18.2009   -6.7117 O   0  0  0  0  0  0  0  0  0  0  0  0
  2  1  1  0
  3  2  2  0
  4  3  1  0
  5 11  1  0
  5  4  2  0
  6  7  1  0
  6  5  1  0
  7  8  1  6
  7  9  1  0
  9 10  2  0
 11 12  2  0
 12  2  1  0
 14 16  1  0
 14 13  1  1
 15 14  1  0
 17  9  1  0
 16 17  1  6
 18 16  1  0
 18 19  2  0
 21 20  1  1
 21 23  1  0
 21 22  1  0
 24 23  1  1
 24 26  1  0
 24 25  1  0
 25 18  1  0
 26 27  1  0
 28 26  2  0
M  END
$$$$
