NYQ.pdb
     RDKit          3D

 30 30  0  0  1  0  0  0  0  0999 V2000
   25.4521  -25.8539  -17.2486 N   0  0  0  0  0  0  0  0  0  0  0  0
   25.1686  -26.0058  -15.8745 C   0  0  0  0  0  0  0  0  0  0  0  0
   25.3690  -27.1371  -15.3624 O   0  0  0  0  0  0  0  0  0  0  0  0
   24.6549  -24.9352  -14.9959 C   0  0  0  0  0  0  0  0  0  0  0  0
   24.5037  -23.6769  -15.8185 C   0  0  2  0  0  0  0  0  0  0  0  0
   25.8129  -23.2213  -16.1714 N   0  0  0  0  0  0  0  0  0  0  0  0
   23.7577  -22.6209  -15.0866 C   0  0  0  0  0  0  0  0  0  0  0  0
   22.5630  -22.8806  -14.7668 O   0  0  0  0  0  0  0  0  0  0  0  0
   25.3416  -21.6152   -8.1242 O   0  0  0  0  0  0  0  0  0  0  0  0
   25.0224  -21.0800   -9.3589 C   0  0  0  0  0  0  0  0  0  0  0  0
   26.0053  -21.0021  -10.3227 C   0  0  0  0  0  0  0  0  0  0  0  0
   25.7450  -20.4720  -11.5879 C   0  0  0  0  0  0  0  0  0  0  0  0
   24.4800  -20.0182  -11.8775 C   0  0  0  0  0  0  0  0  0  0  0  0
   24.2123  -19.4639  -13.2077 C   0  0  0  0  0  0  0  0  0  0  0  0
   23.4742  -20.3757  -14.1172 C   0  0  2  0  0  0  0  0  0  0  0  0
   24.3008  -21.3786  -14.7408 N   0  0  0  0  0  0  0  0  0  0  0  0
   22.7983  -19.5425  -15.1763 C   0  0  0  0  0  0  0  0  0  0  0  0
   23.4071  -19.3194  -16.2486 O   0  0  0  0  0  0  0  0  0  0  0  0
   23.4907  -20.0929  -10.9178 C   0  0  0  0  0  0  0  0  0  0  0  0
   23.7520  -20.6177   -9.6676 C   0  0  0  0  0  0  0  0  0  0  0  0
   21.1175  -21.6319  -18.8770 N   0  0  0  0  0  0  0  0  0  0  0  0
   19.7623  -21.2022  -18.9170 C   0  0  0  0  0  0  0  0  0  0  0  0
   19.0232  -21.4453  -19.8963 O   0  0  0  0  0  0  0  0  0  0  0  0
   19.2734  -20.4387  -17.7109 C   0  0  0  0  0  0  0  0  0  0  0  0
   20.3692  -20.3158  -16.7073 C   0  0  0  0  0  0  0  0  0  0  0  0
   20.4805  -18.9858  -16.0452 C   0  0  2  0  0  0  0  0  0  0  0  0
   21.5006  -19.0139  -14.9809 N   0  0  0  0  0  0  0  0  0  0  0  0
   19.2250  -18.4101  -15.5527 C   0  0  0  0  0  0  0  0  0  0  0  0
   18.6944  -18.8306  -14.4996 O   0  0  0  0  0  0  0  0  0  0  0  0
   18.5775  -17.3836  -16.2275 O   0  0  0  0  0  0  0  0  0  0  0  0
  1  2  1  0
  2  3  2  0
  4  5  1  0
  4  2  1  0
  5  7  1  0
  5  6  1  1
  7  8  2  0
  9 10  1  0
 10 11  2  0
 10 20  1  0
 11 12  1  0
 12 13  2  0
 13 14  1  0
 15 14  1  1
 16 15  1  0
 16  7  1  0
 17 15  1  0
 17 27  1  0
 18 17  2  0
 19 13  1  0
 20 19  2  0
 21 22  1  0
 22 24  1  0
 22 23  2  0
 24 25  1  0
 26 25  1  1
 26 27  1  0
 26 28  1  0
 28 30  1  0
 29 28  2  0
M  END
$$$$
