NYQ.pdb
     RDKit          3D

 30 30  0  0  1  0  0  0  0  0999 V2000
   26.3206  -20.6389  -18.8071 N   0  0  0  0  0  0  0  0  0  0  0  0
   25.5037  -21.7892  -18.7746 C   0  0  0  0  0  0  0  0  0  0  0  0
   25.5614  -22.5697  -19.7593 O   0  0  0  0  0  0  0  0  0  0  0  0
   24.5878  -22.1423  -17.6707 C   0  0  0  0  0  0  0  0  0  0  0  0
   25.3666  -22.1044  -16.3765 C   0  0  2  0  0  0  0  0  0  0  0  0
   26.2187  -23.2528  -16.3412 N   0  0  0  0  0  0  0  0  0  0  0  0
   24.4722  -22.0752  -15.1905 C   0  0  0  0  0  0  0  0  0  0  0  0
   23.9718  -23.1759  -14.8232 O   0  0  0  0  0  0  0  0  0  0  0  0
   28.1182  -21.2336   -9.2162 O   0  0  0  0  0  0  0  0  0  0  0  0
   27.0214  -20.9362  -10.0045 C   0  0  0  0  0  0  0  0  0  0  0  0
   25.8061  -20.7115   -9.3932 C   0  0  0  0  0  0  0  0  0  0  0  0
   24.6627  -20.4071  -10.1345 C   0  0  0  0  0  0  0  0  0  0  0  0
   24.7524  -20.3302  -11.5042 C   0  0  0  0  0  0  0  0  0  0  0  0
   23.5490  -20.0092  -12.2770 C   0  0  0  0  0  0  0  0  0  0  0  0
   23.2428  -20.9699  -13.3662 C   0  0  2  0  0  0  0  0  0  0  0  0
   24.1626  -20.9135  -14.4747 N   0  0  0  0  0  0  0  0  0  0  0  0
   21.8415  -20.7020  -13.8535 C   0  0  0  0  0  0  0  0  0  0  0  0
   21.6837  -20.1937  -14.9880 O   0  0  0  0  0  0  0  0  0  0  0  0
   25.9656  -20.5539  -12.1234 C   0  0  0  0  0  0  0  0  0  0  0  0
   27.0942  -20.8547  -11.3869 C   0  0  0  0  0  0  0  0  0  0  0  0
   20.5982  -25.7676  -14.5507 N   0  0  0  0  0  0  0  0  0  0  0  0
   20.0513  -25.0413  -15.6444 C   0  0  0  0  0  0  0  0  0  0  0  0
   19.7832  -25.5942  -16.7337 O   0  0  0  0  0  0  0  0  0  0  0  0
   19.8157  -23.5693  -15.4106 C   0  0  0  0  0  0  0  0  0  0  0  0
   20.2339  -23.1999  -14.0280 C   0  0  0  0  0  0  0  0  0  0  0  0
   19.6510  -21.9332  -13.5031 C   0  0  2  0  0  0  0  0  0  0  0  0
   20.7131  -21.0122  -13.0584 N   0  0  0  0  0  0  0  0  0  0  0  0
   18.6214  -22.0836  -12.4699 C   0  0  0  0  0  0  0  0  0  0  0  0
   18.9140  -22.5009  -11.3264 O   0  0  0  0  0  0  0  0  0  0  0  0
   17.2903  -21.7724  -12.7141 O   0  0  0  0  0  0  0  0  0  0  0  0
  1  2  1  0
  2  3  2  0
  4  5  1  0
  4  2  1  0
  5  7  1  0
  5  6  1  1
  7  8  2  0
  9 10  1  0
 10 11  2  0
 10 20  1  0
 11 12  1  0
 12 13  2  0
 13 14  1  0
 15 14  1  1
 16 15  1  0
 16  7  1  0
 17 15  1  0
 17 27  1  0
 18 17  2  0
 19 13  1  0
 20 19  2  0
 21 22  1  0
 22 24  1  0
 22 23  2  0
 24 25  1  0
 26 25  1  1
 26 27  1  0
 26 28  1  0
 28 30  1  0
 29 28  2  0
M  END
$$$$
