NYQ.pdb
     RDKit          3D

 30 30  0  0  1  0  0  0  0  0999 V2000
   18.5205  -13.0072  -16.9091 N   0  0  0  0  0  0  0  0  0  0  0  0
   19.4500  -13.2486  -15.8750 C   0  0  0  0  0  0  0  0  0  0  0  0
   19.6866  -14.4472  -15.5757 O   0  0  0  0  0  0  0  0  0  0  0  0
   20.1635  -12.1983  -15.1201 C   0  0  0  0  0  0  0  0  0  0  0  0
   20.4568  -11.0530  -16.0609 C   0  0  2  0  0  0  0  0  0  0  0  0
   21.3539  -11.5288  -17.0682 N   0  0  0  0  0  0  0  0  0  0  0  0
   21.0352   -9.8838  -15.3496 C   0  0  0  0  0  0  0  0  0  0  0  0
   20.3303   -9.3598  -14.4411 O   0  0  0  0  0  0  0  0  0  0  0  0
   27.5561  -11.3814  -17.6381 O   0  0  0  0  0  0  0  0  0  0  0  0
   26.7148  -10.6414  -16.8272 C   0  0  0  0  0  0  0  0  0  0  0  0
   26.3730   -9.3636  -17.2161 C   0  0  0  0  0  0  0  0  0  0  0  0
   25.5280   -8.5672  -16.4405 C   0  0  0  0  0  0  0  0  0  0  0  0
   25.0266   -9.0701  -15.2634 C   0  0  0  0  0  0  0  0  0  0  0  0
   24.1392   -8.2300  -14.4540 C   0  0  0  0  0  0  0  0  0  0  0  0
   22.7419   -8.1553  -14.9492 C   0  0  2  0  0  0  0  0  0  0  0  0
   22.2959   -9.3451  -15.6298 N   0  0  0  0  0  0  0  0  0  0  0  0
   22.6297   -6.9686  -15.8723 C   0  0  0  0  0  0  0  0  0  0  0  0
   22.9846   -7.0975  -17.0672 O   0  0  0  0  0  0  0  0  0  0  0  0
   25.3644  -10.3485  -14.8673 C   0  0  0  0  0  0  0  0  0  0  0  0
   26.2003  -11.1330  -15.6370 C   0  0  0  0  0  0  0  0  0  0  0  0
   18.9211   -6.2404  -18.9728 N   0  0  0  0  0  0  0  0  0  0  0  0
   19.0971   -4.8396  -19.1450 C   0  0  0  0  0  0  0  0  0  0  0  0
   18.4447   -4.1936  -19.9943 O   0  0  0  0  0  0  0  0  0  0  0  0
   20.1145   -4.1840  -18.2440 C   0  0  0  0  0  0  0  0  0  0  0  0
   20.6991   -5.1941  -17.3161 C   0  0  0  0  0  0  0  0  0  0  0  0
   21.6804   -4.6608  -16.3300 C   0  0  2  0  0  0  0  0  0  0  0  0
   22.1352   -5.7242  -15.4155 N   0  0  0  0  0  0  0  0  0  0  0  0
   21.2540   -3.4736  -15.5824 C   0  0  0  0  0  0  0  0  0  0  0  0
   20.8254   -3.5716  -14.4102 O   0  0  0  0  0  0  0  0  0  0  0  0
   21.3071   -2.2020  -16.1380 O   0  0  0  0  0  0  0  0  0  0  0  0
  1  2  1  0
  2  3  2  0
  4  5  1  0
  4  2  1  0
  5  7  1  0
  5  6  1  6
  7  8  2  0
  9 10  1  0
 10 11  2  0
 10 20  1  0
 11 12  1  0
 12 13  2  0
 13 14  1  0
 15 14  1  6
 16 15  1  0
 16  7  1  0
 17 15  1  0
 17 27  1  0
 18 17  2  0
 19 13  1  0
 20 19  2  0
 21 22  1  0
 22 24  1  0
 22 23  2  0
 24 25  1  0
 26 25  1  1
 26 27  1  0
 26 28  1  0
 28 30  1  0
 29 28  2  0
M  END
$$$$
