NYQ.pdb
     RDKit          3D

 30 30  0  0  1  0  0  0  0  0999 V2000
   22.2928  -10.6042  -21.1093 N   0  0  0  0  0  0  0  0  0  0  0  0
   21.0292  -10.9304  -20.5722 C   0  0  0  0  0  0  0  0  0  0  0  0
   20.1457  -11.3338  -21.3715 O   0  0  0  0  0  0  0  0  0  0  0  0
   20.6696  -10.8327  -19.1428 C   0  0  0  0  0  0  0  0  0  0  0  0
   21.8747  -10.3299  -18.3828 C   0  0  2  0  0  0  0  0  0  0  0  0
   22.5375  -11.4606  -17.8097 N   0  0  0  0  0  0  0  0  0  0  0  0
   21.4992   -9.3502  -17.3309 C   0  0  0  0  0  0  0  0  0  0  0  0
   20.4796   -9.6198  -16.6347 O   0  0  0  0  0  0  0  0  0  0  0  0
   26.9588   -4.2821  -18.2781 O   0  0  0  0  0  0  0  0  0  0  0  0
   25.9884   -4.9289  -17.5347 C   0  0  0  0  0  0  0  0  0  0  0  0
   25.0377   -4.1724  -16.8829 C   0  0  0  0  0  0  0  0  0  0  0  0
   24.0327   -4.7669  -16.1172 C   0  0  0  0  0  0  0  0  0  0  0  0
   23.9916   -6.1371  -16.0121 C   0  0  0  0  0  0  0  0  0  0  0  0
   22.9337   -6.7555  -15.2080 C   0  0  0  0  0  0  0  0  0  0  0  0
   21.8019   -7.3033  -15.9968 C   0  0  2  0  0  0  0  0  0  0  0  0
   22.2038   -8.1680  -17.0778 N   0  0  0  0  0  0  0  0  0  0  0  0
   21.0007   -6.1477  -16.5404 C   0  0  0  0  0  0  0  0  0  0  0  0
   21.2884   -5.6929  -17.6721 O   0  0  0  0  0  0  0  0  0  0  0  0
   24.9400   -6.9011  -16.6618 C   0  0  0  0  0  0  0  0  0  0  0  0
   25.9324   -6.3096  -17.4181 C   0  0  0  0  0  0  0  0  0  0  0  0
   15.4498   -4.9058  -18.0055 N   0  0  0  0  0  0  0  0  0  0  0  0
   15.4519   -5.3299  -16.6479 C   0  0  0  0  0  0  0  0  0  0  0  0
   14.4040   -5.6945  -16.0705 O   0  0  0  0  0  0  0  0  0  0  0  0
   16.7898   -5.3130  -15.9505 C   0  0  0  0  0  0  0  0  0  0  0  0
   17.8634   -4.9440  -16.9171 C   0  0  0  0  0  0  0  0  0  0  0  0
   19.1293   -4.4508  -16.3056 C   0  0  2  0  0  0  0  0  0  0  0  0
   19.9399   -5.5741  -15.8005 N   0  0  0  0  0  0  0  0  0  0  0  0
   18.9819   -3.4097  -15.2835 C   0  0  0  0  0  0  0  0  0  0  0  0
   18.7010   -2.2318  -15.6013 O   0  0  0  0  0  0  0  0  0  0  0  0
   19.1461   -3.6839  -13.9321 O   0  0  0  0  0  0  0  0  0  0  0  0
  1  2  1  0
  2  3  2  0
  4  5  1  0
  4  2  1  0
  5  7  1  0
  5  6  1  1
  7  8  2  0
  9 10  1  0
 10 11  2  0
 10 20  1  0
 11 12  1  0
 12 13  2  0
 13 14  1  0
 15 14  1  6
 16 15  1  0
 16  7  1  0
 17 15  1  0
 17 27  1  0
 18 17  2  0
 19 13  1  0
 20 19  2  0
 21 22  1  0
 22 24  1  0
 22 23  2  0
 24 25  1  0
 26 25  1  1
 26 27  1  0
 26 28  1  0
 28 30  1  0
 29 28  2  0
M  END
$$$$
