NYQ.pdb
     RDKit          3D

 30 30  0  0  1  0  0  0  0  0999 V2000
   26.5393  -23.7025  -23.2750 N   0  0  0  0  0  0  0  0  0  0  0  0
   25.6292  -24.7752  -23.1628 C   0  0  0  0  0  0  0  0  0  0  0  0
   24.9616  -25.0790  -24.1847 O   0  0  0  0  0  0  0  0  0  0  0  0
   25.4042  -25.5655  -21.9352 C   0  0  0  0  0  0  0  0  0  0  0  0
   26.3817  -25.0973  -20.8827 C   0  0  2  0  0  0  0  0  0  0  0  0
   27.5224  -25.9594  -20.9261 N   0  0  0  0  0  0  0  0  0  0  0  0
   25.7768  -25.0917  -19.5257 C   0  0  0  0  0  0  0  0  0  0  0  0
   25.1977  -26.1510  -19.1523 O   0  0  0  0  0  0  0  0  0  0  0  0
   29.5837  -28.7748  -16.6298 O   0  0  0  0  0  0  0  0  0  0  0  0
   28.8118  -27.6294  -16.5590 C   0  0  0  0  0  0  0  0  0  0  0  0
   27.5499  -27.7125  -16.0096 C   0  0  0  0  0  0  0  0  0  0  0  0
   26.7231  -26.5917  -15.9103 C   0  0  0  0  0  0  0  0  0  0  0  0
   27.1790  -25.3792  -16.3710 C   0  0  0  0  0  0  0  0  0  0  0  0
   26.3071  -24.2060  -16.2630 C   0  0  0  0  0  0  0  0  0  0  0  0
   25.2762  -24.1056  -17.3261 C   0  0  2  0  0  0  0  0  0  0  0  0
   25.8155  -23.9944  -18.6583 N   0  0  0  0  0  0  0  0  0  0  0  0
   24.4043  -22.9121  -17.0288 C   0  0  0  0  0  0  0  0  0  0  0  0
   24.8041  -21.7734  -17.3659 O   0  0  0  0  0  0  0  0  0  0  0  0
   28.4411  -25.2882  -16.9223 C   0  0  0  0  0  0  0  0  0  0  0  0
   29.2559  -26.3989  -17.0188 C   0  0  0  0  0  0  0  0  0  0  0  0
   18.4906  -22.6766  -14.6433 N   0  0  0  0  0  0  0  0  0  0  0  0
   19.5095  -23.0720  -13.7332 C   0  0  0  0  0  0  0  0  0  0  0  0
   19.2395  -23.5377  -12.6042 O   0  0  0  0  0  0  0  0  0  0  0  0
   20.9298  -22.8959  -14.2113 C   0  0  0  0  0  0  0  0  0  0  0  0
   20.9360  -22.3895  -15.6137 C   0  0  0  0  0  0  0  0  0  0  0  0
   22.2571  -21.9168  -16.1145 C   0  0  2  0  0  0  0  0  0  0  0  0
   23.1544  -23.0559  -16.3816 N   0  0  0  0  0  0  0  0  0  0  0  0
   22.9267  -20.9036  -15.2928 C   0  0  0  0  0  0  0  0  0  0  0  0
   23.7740  -21.2316  -14.4314 O   0  0  0  0  0  0  0  0  0  0  0  0
   22.6519  -19.5498  -15.4341 O   0  0  0  0  0  0  0  0  0  0  0  0
  1  2  1  0
  2  3  2  0
  4  5  1  0
  4  2  1  0
  5  7  1  0
  5  6  1  1
  7  8  2  0
  9 10  1  0
 10 11  2  0
 10 20  1  0
 11 12  1  0
 12 13  2  0
 13 14  1  0
 15 14  1  1
 16 15  1  0
 16  7  1  0
 17 15  1  0
 17 27  1  0
 18 17  2  0
 19 13  1  0
 20 19  2  0
 21 22  1  0
 22 24  1  0
 22 23  2  0
 24 25  1  0
 26 25  1  1
 26 27  1  0
 26 28  1  0
 28 30  1  0
 29 28  2  0
M  END
$$$$
