NYQ.pdb
     RDKit          3D

 30 30  0  0  1  0  0  0  0  0999 V2000
   45.7866  -13.6405   -7.2398 N   0  0  0  0  0  0  0  0  0  0  0  0
   44.9415  -13.8596   -8.3486 C   0  0  0  0  0  0  0  0  0  0  0  0
   45.2508  -14.7875   -9.1394 O   0  0  0  0  0  0  0  0  0  0  0  0
   43.7228  -13.0800   -8.6472 C   0  0  0  0  0  0  0  0  0  0  0  0
   43.6200  -11.9556   -7.6433 C   0  0  2  0  0  0  0  0  0  0  0  0
   43.6190  -12.5323   -6.3343 N   0  0  0  0  0  0  0  0  0  0  0  0
   42.4033  -11.1300   -7.8563 C   0  0  0  0  0  0  0  0  0  0  0  0
   42.2647  -10.5969   -8.9937 O   0  0  0  0  0  0  0  0  0  0  0  0
   35.1281   -6.3133   -7.0121 O   0  0  0  0  0  0  0  0  0  0  0  0
   36.1477   -7.2146   -6.7652 C   0  0  0  0  0  0  0  0  0  0  0  0
   36.3332   -8.2630   -7.6412 C   0  0  0  0  0  0  0  0  0  0  0  0
   37.3450   -9.2053   -7.4461 C   0  0  0  0  0  0  0  0  0  0  0  0
   38.1736   -9.0835   -6.3559 C   0  0  0  0  0  0  0  0  0  0  0  0
   39.2345  -10.0750   -6.1569 C   0  0  0  0  0  0  0  0  0  0  0  0
   40.3655   -9.9662   -7.1121 C   0  0  2  0  0  0  0  0  0  0  0  0
   41.4233  -10.9176   -6.8804 N   0  0  0  0  0  0  0  0  0  0  0  0
   40.9159   -8.5647   -7.0362 C   0  0  0  0  0  0  0  0  0  0  0  0
   41.6768   -8.2655   -6.0865 O   0  0  0  0  0  0  0  0  0  0  0  0
   37.9940   -8.0366   -5.4745 C   0  0  0  0  0  0  0  0  0  0  0  0
   36.9923   -7.1067   -5.6707 C   0  0  0  0  0  0  0  0  0  0  0  0
   44.6541   -6.1765  -10.1905 N   0  0  0  0  0  0  0  0  0  0  0  0
   44.3321   -4.9003   -9.6519 C   0  0  0  0  0  0  0  0  0  0  0  0
   45.0746   -3.9080   -9.8206 O   0  0  0  0  0  0  0  0  0  0  0  0
   43.0455   -4.8174   -8.8680 C   0  0  0  0  0  0  0  0  0  0  0  0
   42.4123   -6.1647   -8.7845 C   0  0  0  0  0  0  0  0  0  0  0  0
   41.1501   -6.2276   -7.9955 C   0  0  2  0  0  0  0  0  0  0  0  0
   40.5903   -7.5916   -8.0102 N   0  0  0  0  0  0  0  0  0  0  0  0
   40.1271   -5.2374   -8.3464 C   0  0  0  0  0  0  0  0  0  0  0  0
   39.3589   -5.4230   -9.3174 O   0  0  0  0  0  0  0  0  0  0  0  0
   39.9687   -4.0626   -7.6231 O   0  0  0  0  0  0  0  0  0  0  0  0
  1  2  1  0
  2  3  2  0
  4  5  1  0
  4  2  1  0
  5  7  1  0
  5  6  1  1
  7  8  2  0
  9 10  1  0
 10 11  2  0
 10 20  1  0
 11 12  1  0
 12 13  2  0
 13 14  1  0
 15 14  1  1
 16 15  1  0
 16  7  1  0
 17 15  1  0
 17 27  1  0
 18 17  2  0
 19 13  1  0
 20 19  2  0
 21 22  1  0
 22 24  1  0
 22 23  2  0
 24 25  1  0
 26 25  1  6
 26 27  1  0
 26 28  1  0
 28 30  1  0
 29 28  2  0
M  END
$$$$
