NYQ.pdb
     RDKit          3D

 30 30  0  0  1  0  0  0  0  0999 V2000
   20.8799   -8.4128  -14.6188 N   0  0  0  0  0  0  0  0  0  0  0  0
   22.0458   -7.6604  -14.3614 C   0  0  0  0  0  0  0  0  0  0  0  0
   22.0747   -6.9785  -13.3048 O   0  0  0  0  0  0  0  0  0  0  0  0
   23.2319   -7.6156  -15.2408 C   0  0  0  0  0  0  0  0  0  0  0  0
   22.9255   -8.4040  -16.4926 C   0  0  2  0  0  0  0  0  0  0  0  0
   22.9429   -9.7935  -16.1536 N   0  0  0  0  0  0  0  0  0  0  0  0
   23.8936   -8.1152  -17.5821 C   0  0  0  0  0  0  0  0  0  0  0  0
   25.0402   -8.6371  -17.4827 O   0  0  0  0  0  0  0  0  0  0  0  0
   23.4062  -12.9521  -21.9090 O   0  0  0  0  0  0  0  0  0  0  0  0
   23.5623  -11.5973  -21.6793 C   0  0  0  0  0  0  0  0  0  0  0  0
   24.6717  -10.9605  -22.1937 C   0  0  0  0  0  0  0  0  0  0  0  0
   24.8853   -9.5948  -21.9959 C   0  0  0  0  0  0  0  0  0  0  0  0
   23.9679   -8.8707  -21.2719 C   0  0  0  0  0  0  0  0  0  0  0  0
   24.1968   -7.4373  -21.0684 C   0  0  0  0  0  0  0  0  0  0  0  0
   24.6129   -7.0699  -19.6918 C   0  0  2  0  0  0  0  0  0  0  0  0
   23.6049   -7.3106  -18.6899 N   0  0  0  0  0  0  0  0  0  0  0  0
   24.9977   -5.6123  -19.6868 C   0  0  0  0  0  0  0  0  0  0  0  0
   24.4855   -4.8556  -18.8293 O   0  0  0  0  0  0  0  0  0  0  0  0
   22.8548   -9.5013  -20.7537 C   0  0  0  0  0  0  0  0  0  0  0  0
   22.6471  -10.8520  -20.9514 C   0  0  0  0  0  0  0  0  0  0  0  0
   25.8699   -1.9912  -17.2006 N   0  0  0  0  0  0  0  0  0  0  0  0
   26.8868   -1.2853  -17.9009 C   0  0  0  0  0  0  0  0  0  0  0  0
   27.2405   -0.1340  -17.5639 O   0  0  0  0  0  0  0  0  0  0  0  0
   27.5097   -2.0076  -19.0701 C   0  0  0  0  0  0  0  0  0  0  0  0
   26.9057   -3.3635  -19.2115 C   0  0  0  0  0  0  0  0  0  0  0  0
   26.4100   -3.7010  -20.5754 C   0  0  2  0  0  0  0  0  0  0  0  0
   25.9186   -5.0903  -20.6255 N   0  0  0  0  0  0  0  0  0  0  0  0
   27.3397   -3.4338  -21.6774 C   0  0  0  0  0  0  0  0  0  0  0  0
   28.0975   -4.3310  -22.1111 O   0  0  0  0  0  0  0  0  0  0  0  0
   27.4181   -2.1857  -22.2810 O   0  0  0  0  0  0  0  0  0  0  0  0
  1  2  1  0
  2  3  2  0
  4  5  1  0
  4  2  1  0
  5  7  1  0
  5  6  1  1
  7  8  2  0
  9 10  1  0
 10 11  2  0
 10 20  1  0
 11 12  1  0
 12 13  2  0
 13 14  1  0
 15 14  1  6
 16 15  1  0
 16  7  1  0
 17 15  1  0
 17 27  1  0
 18 17  2  0
 19 13  1  0
 20 19  2  0
 21 22  1  0
 22 24  1  0
 22 23  2  0
 24 25  1  0
 26 25  1  1
 26 27  1  0
 26 28  1  0
 28 30  1  0
 29 28  2  0
M  END
$$$$
