NYQ.pdb
     RDKit          3D

 30 30  0  0  1  0  0  0  0  0999 V2000
   27.0876   -8.5929  -21.8574 N   0  0  0  0  0  0  0  0  0  0  0  0
   26.4268   -7.4456  -21.3689 C   0  0  0  0  0  0  0  0  0  0  0  0
   27.0962   -6.3844  -21.2799 O   0  0  0  0  0  0  0  0  0  0  0  0
   25.0094   -7.4006  -20.9554 C   0  0  0  0  0  0  0  0  0  0  0  0
   24.3936   -8.7544  -21.2211 C   0  0  2  0  0  0  0  0  0  0  0  0
   24.0435   -8.8150  -22.6067 N   0  0  0  0  0  0  0  0  0  0  0  0
   23.2041   -9.0013  -20.3657 C   0  0  0  0  0  0  0  0  0  0  0  0
   22.1342   -8.4112  -20.6883 O   0  0  0  0  0  0  0  0  0  0  0  0
   17.0870  -12.2221  -15.0187 O   0  0  0  0  0  0  0  0  0  0  0  0
   18.2125  -12.0238  -15.7976 C   0  0  0  0  0  0  0  0  0  0  0  0
   19.4466  -11.9881  -15.1838 C   0  0  0  0  0  0  0  0  0  0  0  0
   20.6192  -11.7913  -15.9158 C   0  0  0  0  0  0  0  0  0  0  0  0
   20.5397  -11.6298  -17.2787 C   0  0  0  0  0  0  0  0  0  0  0  0
   21.7741  -11.4248  -18.0420 C   0  0  0  0  0  0  0  0  0  0  0  0
   22.0047  -10.0237  -18.4744 C   0  0  2  0  0  0  0  0  0  0  0  0
   23.2093   -9.8374  -19.2438 N   0  0  0  0  0  0  0  0  0  0  0  0
   22.0447   -9.1499  -17.2465 C   0  0  0  0  0  0  0  0  0  0  0  0
   23.1583   -8.8019  -16.7892 O   0  0  0  0  0  0  0  0  0  0  0  0
   19.3078  -11.6643  -17.9004 C   0  0  0  0  0  0  0  0  0  0  0  0
   18.1503  -11.8591  -17.1731 C   0  0  0  0  0  0  0  0  0  0  0  0
   23.2365   -4.5246  -16.5440 N   0  0  0  0  0  0  0  0  0  0  0  0
   22.5628   -4.3233  -15.3077 C   0  0  0  0  0  0  0  0  0  0  0  0
   22.7120   -3.2767  -14.6393 O   0  0  0  0  0  0  0  0  0  0  0  0
   21.6612   -5.4450  -14.8542 C   0  0  0  0  0  0  0  0  0  0  0  0
   21.6614   -6.5397  -15.8666 C   0  0  0  0  0  0  0  0  0  0  0  0
   20.8504   -7.7375  -15.5100 C   0  0  2  0  0  0  0  0  0  0  0  0
   20.8570   -8.7209  -16.6086 N   0  0  0  0  0  0  0  0  0  0  0  0
   19.4826   -7.4703  -15.0540 C   0  0  0  0  0  0  0  0  0  0  0  0
   19.2699   -6.8294  -13.9998 O   0  0  0  0  0  0  0  0  0  0  0  0
   18.3754   -7.9129  -15.7659 O   0  0  0  0  0  0  0  0  0  0  0  0
  1  2  1  0
  2  3  2  0
  4  5  1  0
  4  2  1  0
  5  7  1  0
  5  6  1  6
  7  8  2  0
  9 10  1  0
 10 11  2  0
 10 20  1  0
 11 12  1  0
 12 13  2  0
 13 14  1  0
 15 14  1  1
 16 15  1  0
 16  7  1  0
 17 15  1  0
 17 27  1  0
 18 17  2  0
 19 13  1  0
 20 19  2  0
 21 22  1  0
 22 24  1  0
 22 23  2  0
 24 25  1  0
 26 25  1  6
 26 27  1  0
 26 28  1  0
 28 30  1  0
 29 28  2  0
M  END
$$$$
