NYQ.pdb
     RDKit          3D

 30 30  0  0  1  0  0  0  0  0999 V2000
   18.5498  -14.2059  -16.5142 N   0  0  0  0  0  0  0  0  0  0  0  0
   19.9120  -13.8492  -16.4202 C   0  0  0  0  0  0  0  0  0  0  0  0
   20.7622  -14.7677  -16.5455 O   0  0  0  0  0  0  0  0  0  0  0  0
   20.4107  -12.4787  -16.1858 C   0  0  0  0  0  0  0  0  0  0  0  0
   19.2282  -11.5383  -16.1729 C   0  0  2  0  0  0  0  0  0  0  0  0
   18.7189  -11.4525  -17.5069 N   0  0  0  0  0  0  0  0  0  0  0  0
   19.5941  -10.1925  -15.6609 C   0  0  0  0  0  0  0  0  0  0  0  0
   20.1819  -10.1452  -14.5432 O   0  0  0  0  0  0  0  0  0  0  0  0
   22.9736   -2.3767  -14.4688 O   0  0  0  0  0  0  0  0  0  0  0  0
   22.5249   -3.6647  -14.6983 C   0  0  0  0  0  0  0  0  0  0  0  0
   22.6437   -4.1927  -15.9664 C   0  0  0  0  0  0  0  0  0  0  0  0
   22.2093   -5.4867  -16.2606 C   0  0  0  0  0  0  0  0  0  0  0  0
   21.6511   -6.2498  -15.2626 C   0  0  0  0  0  0  0  0  0  0  0  0
   21.1980   -7.6078  -15.5771 C   0  0  0  0  0  0  0  0  0  0  0  0
   19.7326   -7.7371  -15.7752 C   0  0  2  0  0  0  0  0  0  0  0  0
   19.3257   -8.9992  -16.3405 N   0  0  0  0  0  0  0  0  0  0  0  0
   19.2739   -6.6095  -16.6646 C   0  0  0  0  0  0  0  0  0  0  0  0
   19.7951   -6.4837  -17.7972 O   0  0  0  0  0  0  0  0  0  0  0  0
   21.5287   -5.7280  -13.9906 C   0  0  0  0  0  0  0  0  0  0  0  0
   21.9594   -4.4479  -13.7034 C   0  0  0  0  0  0  0  0  0  0  0  0
   14.1163   -3.3233  -15.7659 N   0  0  0  0  0  0  0  0  0  0  0  0
   14.5905   -2.5476  -16.8596 C   0  0  0  0  0  0  0  0  0  0  0  0
   13.9339   -1.5876  -17.3195 O   0  0  0  0  0  0  0  0  0  0  0  0
   15.9282   -2.9524  -17.4283 C   0  0  0  0  0  0  0  0  0  0  0  0
   16.4485   -4.1479  -16.7049 C   0  0  0  0  0  0  0  0  0  0  0  0
   17.8320   -4.5620  -17.0712 C   0  0  2  0  0  0  0  0  0  0  0  0
   18.2744   -5.7003  -16.2451 N   0  0  0  0  0  0  0  0  0  0  0  0
   18.8382   -3.4954  -17.0758 C   0  0  0  0  0  0  0  0  0  0  0  0
   19.3482   -3.0880  -16.0075 O   0  0  0  0  0  0  0  0  0  0  0  0
   19.2640   -2.8976  -18.2546 O   0  0  0  0  0  0  0  0  0  0  0  0
  1  2  1  0
  2  3  2  0
  4  5  1  0
  4  2  1  0
  5  7  1  0
  5  6  1  6
  7  8  2  0
  9 10  1  0
 10 11  2  0
 10 20  1  0
 11 12  1  0
 12 13  2  0
 13 14  1  0
 15 14  1  6
 16 15  1  0
 16  7  1  0
 17 15  1  0
 17 27  1  0
 18 17  2  0
 19 13  1  0
 20 19  2  0
 21 22  1  0
 22 24  1  0
 22 23  2  0
 24 25  1  0
 26 25  1  1
 26 27  1  0
 26 28  1  0
 28 30  1  0
 29 28  2  0
M  END
$$$$
