NYQ.pdb
     RDKit          3D

 30 30  0  0  1  0  0  0  0  0999 V2000
   28.6487  -23.4939  -19.5023 N   0  0  0  0  0  0  0  0  0  0  0  0
   27.2640  -23.7090  -19.6694 C   0  0  0  0  0  0  0  0  0  0  0  0
   26.7758  -23.4883  -20.8074 O   0  0  0  0  0  0  0  0  0  0  0  0
   26.3484  -24.1735  -18.6073 C   0  0  0  0  0  0  0  0  0  0  0  0
   27.1400  -24.3227  -17.3291 C   0  0  2  0  0  0  0  0  0  0  0  0
   27.5717  -25.6831  -17.2344 N   0  0  0  0  0  0  0  0  0  0  0  0
   26.3445  -23.9379  -16.1347 C   0  0  0  0  0  0  0  0  0  0  0  0
   25.7433  -24.8663  -15.5235 O   0  0  0  0  0  0  0  0  0  0  0  0
   23.4924  -20.2514   -8.7499 O   0  0  0  0  0  0  0  0  0  0  0  0
   24.1646  -20.5179   -9.9288 C   0  0  0  0  0  0  0  0  0  0  0  0
   23.6737  -19.9935  -11.1057 C   0  0  0  0  0  0  0  0  0  0  0  0
   24.3074  -20.2270  -12.3279 C   0  0  0  0  0  0  0  0  0  0  0  0
   25.4460  -20.9970  -12.3565 C   0  0  0  0  0  0  0  0  0  0  0  0
   26.1075  -21.2377  -13.6421 C   0  0  0  0  0  0  0  0  0  0  0  0
   25.5346  -22.3586  -14.4285 C   0  0  2  0  0  0  0  0  0  0  0  0
   26.2301  -22.6257  -15.6625 N   0  0  0  0  0  0  0  0  0  0  0  0
   24.0887  -22.0440  -14.7170 C   0  0  0  0  0  0  0  0  0  0  0  0
   23.8204  -21.1623  -15.5661 O   0  0  0  0  0  0  0  0  0  0  0  0
   25.9434  -21.5254  -11.1824 C   0  0  0  0  0  0  0  0  0  0  0  0
   25.3139  -21.2924   -9.9756 C   0  0  0  0  0  0  0  0  0  0  0  0
   18.0075  -22.7040  -11.0831 N   0  0  0  0  0  0  0  0  0  0  0  0
   18.6044  -23.4659  -12.1252 C   0  0  0  0  0  0  0  0  0  0  0  0
   18.5236  -24.7136  -12.1578 O   0  0  0  0  0  0  0  0  0  0  0  0
   19.3378  -22.6800  -13.1840 C   0  0  0  0  0  0  0  0  0  0  0  0
   20.7888  -23.0222  -13.1589 C   0  0  0  0  0  0  0  0  0  0  0  0
   21.6263  -22.3219  -14.1727 C   0  0  2  0  0  0  0  0  0  0  0  0
   23.0403  -22.7216  -14.0510 N   0  0  0  0  0  0  0  0  0  0  0  0
   21.4957  -20.8619  -14.2110 C   0  0  0  0  0  0  0  0  0  0  0  0
   21.8972  -20.1553  -13.2586 O   0  0  0  0  0  0  0  0  0  0  0  0
   20.9265  -20.2073  -15.2953 O   0  0  0  0  0  0  0  0  0  0  0  0
  1  2  1  0
  2  3  2  0
  4  5  1  0
  4  2  1  0
  5  7  1  0
  5  6  1  1
  7  8  2  0
  9 10  1  0
 10 11  2  0
 10 20  1  0
 11 12  1  0
 12 13  2  0
 13 14  1  0
 15 14  1  6
 16 15  1  0
 16  7  1  0
 17 15  1  0
 17 27  1  0
 18 17  2  0
 19 13  1  0
 20 19  2  0
 21 22  1  0
 22 24  1  0
 22 23  2  0
 24 25  1  0
 26 25  1  1
 26 27  1  0
 26 28  1  0
 28 30  1  0
 29 28  2  0
M  END
$$$$
