NYQ.pdb
     RDKit          3D

 30 30  0  0  1  0  0  0  0  0999 V2000
   17.7906  -10.9110  -16.4651 N   0  0  0  0  0  0  0  0  0  0  0  0
   17.5399   -9.8113  -15.6170 C   0  0  0  0  0  0  0  0  0  0  0  0
   16.3435   -9.5804  -15.3047 O   0  0  0  0  0  0  0  0  0  0  0  0
   18.5781   -8.9136  -15.0707 C   0  0  0  0  0  0  0  0  0  0  0  0
   19.9248   -9.3887  -15.5640 C   0  0  2  0  0  0  0  0  0  0  0  0
   20.3124  -10.5144  -14.7711 N   0  0  0  0  0  0  0  0  0  0  0  0
   20.9514   -8.3170  -15.4952 C   0  0  0  0  0  0  0  0  0  0  0  0
   21.3886   -8.0153  -14.3485 O   0  0  0  0  0  0  0  0  0  0  0  0
   25.9705  -11.7428  -15.1469 O   0  0  0  0  0  0  0  0  0  0  0  0
   25.4560  -10.5348  -15.5816 C   0  0  0  0  0  0  0  0  0  0  0  0
   24.4248  -10.5435  -16.4968 C   0  0  0  0  0  0  0  0  0  0  0  0
   23.8634   -9.3572  -16.9735 C   0  0  0  0  0  0  0  0  0  0  0  0
   24.3509   -8.1548  -16.5191 C   0  0  0  0  0  0  0  0  0  0  0  0
   23.7570   -6.9128  -17.0222 C   0  0  0  0  0  0  0  0  0  0  0  0
   22.4254   -6.5918  -16.4504 C   0  0  2  0  0  0  0  0  0  0  0  0
   21.4483   -7.6390  -16.6138 N   0  0  0  0  0  0  0  0  0  0  0  0
   21.9260   -5.3244  -17.0962 C   0  0  0  0  0  0  0  0  0  0  0  0
   21.3076   -5.4038  -18.1832 O   0  0  0  0  0  0  0  0  0  0  0  0
   25.3832   -8.1380  -15.6029 C   0  0  0  0  0  0  0  0  0  0  0  0
   25.9358   -9.3133  -15.1338 C   0  0  0  0  0  0  0  0  0  0  0  0
   19.8585   -0.5063  -14.1537 N   0  0  0  0  0  0  0  0  0  0  0  0
   18.9698   -1.4717  -14.7024 C   0  0  0  0  0  0  0  0  0  0  0  0
   17.7948   -1.5935  -14.2916 O   0  0  0  0  0  0  0  0  0  0  0  0
   19.5294   -2.3359  -15.8054 C   0  0  0  0  0  0  0  0  0  0  0  0
   20.9525   -1.9739  -16.0638 C   0  0  0  0  0  0  0  0  0  0  0  0
   21.6445   -2.8030  -17.0902 C   0  0  2  0  0  0  0  0  0  0  0  0
   22.1422   -4.0594  -16.5006 N   0  0  0  0  0  0  0  0  0  0  0  0
   22.6999   -2.1274  -17.8519 C   0  0  0  0  0  0  0  0  0  0  0  0
   23.8993   -2.4633  -17.7257 O   0  0  0  0  0  0  0  0  0  0  0  0
   22.4160   -1.0959  -18.7372 O   0  0  0  0  0  0  0  0  0  0  0  0
  1  2  1  0
  2  3  2  0
  4  5  1  0
  4  2  1  0
  5  7  1  0
  5  6  1  1
  7  8  2  0
  9 10  1  0
 10 11  2  0
 10 20  1  0
 11 12  1  0
 12 13  2  0
 13 14  1  0
 15 14  1  6
 16 15  1  0
 16  7  1  0
 17 15  1  0
 17 27  1  0
 18 17  2  0
 19 13  1  0
 20 19  2  0
 21 22  1  0
 22 24  1  0
 22 23  2  0
 24 25  1  0
 26 25  1  1
 26 27  1  0
 26 28  1  0
 28 30  1  0
 29 28  2  0
M  END
$$$$
