NYQ.pdb
     RDKit          3D

 30 30  0  0  1  0  0  0  0  0999 V2000
   29.1016  -18.2209  -15.6844 N   0  0  0  0  0  0  0  0  0  0  0  0
   27.7433  -18.3719  -16.0362 C   0  0  0  0  0  0  0  0  0  0  0  0
   27.3176  -17.6976  -17.0091 O   0  0  0  0  0  0  0  0  0  0  0  0
   26.7874  -19.2621  -15.3466 C   0  0  0  0  0  0  0  0  0  0  0  0
   27.5195  -19.9748  -14.2336 C   0  0  2  0  0  0  0  0  0  0  0  0
   28.4051  -20.9278  -14.8283 N   0  0  0  0  0  0  0  0  0  0  0  0
   26.5844  -20.6411  -13.2908 C   0  0  0  0  0  0  0  0  0  0  0  0
   26.2129  -21.8126  -13.5845 O   0  0  0  0  0  0  0  0  0  0  0  0
   29.2319  -20.5512   -6.4627 O   0  0  0  0  0  0  0  0  0  0  0  0
   28.1715  -20.4829   -7.3480 C   0  0  0  0  0  0  0  0  0  0  0  0
   27.3464  -19.3789   -7.3112 C   0  0  0  0  0  0  0  0  0  0  0  0
   26.2599  -19.2519   -8.1790 C   0  0  0  0  0  0  0  0  0  0  0  0
   26.0088  -20.2507   -9.0897 C   0  0  0  0  0  0  0  0  0  0  0  0
   24.8675  -20.1114   -9.9987 C   0  0  0  0  0  0  0  0  0  0  0  0
   25.0775  -20.7007  -11.3448 C   0  0  2  0  0  0  0  0  0  0  0  0
   26.1044  -20.0481  -12.1177 N   0  0  0  0  0  0  0  0  0  0  0  0
   23.7692  -20.6516  -12.0923 C   0  0  0  0  0  0  0  0  0  0  0  0
   23.5311  -19.6659  -12.8285 O   0  0  0  0  0  0  0  0  0  0  0  0
   26.8304  -21.3590   -9.1325 C   0  0  0  0  0  0  0  0  0  0  0  0
   27.9040  -21.4811   -8.2726 C   0  0  0  0  0  0  0  0  0  0  0  0
   22.1247  -25.1991  -15.1588 N   0  0  0  0  0  0  0  0  0  0  0  0
   21.6850  -24.0850  -15.9258 C   0  0  0  0  0  0  0  0  0  0  0  0
   21.4636  -24.1769  -17.1533 O   0  0  0  0  0  0  0  0  0  0  0  0
   21.5031  -22.7912  -15.1708 C   0  0  0  0  0  0  0  0  0  0  0  0
   21.7286  -23.0156  -13.7141 C   0  0  0  0  0  0  0  0  0  0  0  0
   21.6401  -21.7976  -12.8607 C   0  0  2  0  0  0  0  0  0  0  0  0
   22.8155  -21.6902  -11.9770 N   0  0  0  0  0  0  0  0  0  0  0  0
   20.3964  -21.6393  -12.1002 C   0  0  0  0  0  0  0  0  0  0  0  0
   20.3240  -22.0002  -10.9036 O   0  0  0  0  0  0  0  0  0  0  0  0
   19.2567  -21.0872  -12.6700 O   0  0  0  0  0  0  0  0  0  0  0  0
  1  2  1  0
  2  3  2  0
  4  5  1  0
  4  2  1  0
  5  7  1  0
  5  6  1  6
  7  8  2  0
  9 10  1  0
 10 11  2  0
 10 20  1  0
 11 12  1  0
 12 13  2  0
 13 14  1  0
 15 14  1  1
 16 15  1  0
 16  7  1  0
 17 15  1  0
 17 27  1  0
 18 17  2  0
 19 13  1  0
 20 19  2  0
 21 22  1  0
 22 24  1  0
 22 23  2  0
 24 25  1  0
 26 25  1  1
 26 27  1  0
 26 28  1  0
 28 30  1  0
 29 28  2  0
M  END
$$$$
