NYQ.pdb
     RDKit          3D

 30 30  0  0  1  0  0  0  0  0999 V2000
   38.9561   -2.4132   -7.3492 N   0  0  0  0  0  0  0  0  0  0  0  0
   39.5119   -2.2465   -8.6356 C   0  0  0  0  0  0  0  0  0  0  0  0
   39.5597   -1.0785   -9.1000 O   0  0  0  0  0  0  0  0  0  0  0  0
   40.0405   -3.3416   -9.4743 C   0  0  0  0  0  0  0  0  0  0  0  0
   39.8122   -4.6477   -8.7500 C   0  0  2  0  0  0  0  0  0  0  0  0
   40.8787   -4.8244   -7.8133 N   0  0  0  0  0  0  0  0  0  0  0  0
   39.7386   -5.7976   -9.6878 C   0  0  0  0  0  0  0  0  0  0  0  0
   40.8341   -6.2521  -10.1241 O   0  0  0  0  0  0  0  0  0  0  0  0
   39.9072  -10.9025   -5.6701 O   0  0  0  0  0  0  0  0  0  0  0  0
   39.4165  -10.3922   -6.8582 C   0  0  0  0  0  0  0  0  0  0  0  0
   38.4689   -9.3918   -6.8097 C   0  0  0  0  0  0  0  0  0  0  0  0
   37.9354   -8.8362   -7.9743 C   0  0  0  0  0  0  0  0  0  0  0  0
   38.3656   -9.2981   -9.1956 C   0  0  0  0  0  0  0  0  0  0  0  0
   37.8028   -8.7104  -10.4147 C   0  0  0  0  0  0  0  0  0  0  0  0
   38.5670   -7.5564  -10.9509 C   0  0  2  0  0  0  0  0  0  0  0  0
   38.5413   -6.3905  -10.1036 N   0  0  0  0  0  0  0  0  0  0  0  0
   38.0114   -7.2108  -12.3092 C   0  0  0  0  0  0  0  0  0  0  0  0
   37.1701   -6.2866  -12.4000 O   0  0  0  0  0  0  0  0  0  0  0  0
   39.3139  -10.2995   -9.2523 C   0  0  0  0  0  0  0  0  0  0  0  0
   39.8392  -10.8465   -8.0983 C   0  0  0  0  0  0  0  0  0  0  0  0
   40.1418   -4.2495  -16.1070 N   0  0  0  0  0  0  0  0  0  0  0  0
   39.2932   -4.7692  -17.1232 C   0  0  0  0  0  0  0  0  0  0  0  0
   39.2449   -4.2603  -18.2647 O   0  0  0  0  0  0  0  0  0  0  0  0
   38.4588   -5.9669  -16.7412 C   0  0  0  0  0  0  0  0  0  0  0  0
   38.7728   -6.3816  -15.3438 C   0  0  0  0  0  0  0  0  0  0  0  0
   37.9769   -7.5297  -14.8259 C   0  0  2  0  0  0  0  0  0  0  0  0
   38.4207   -7.9064  -13.4712 N   0  0  0  0  0  0  0  0  0  0  0  0
   37.9071   -8.7049  -15.7002 C   0  0  0  0  0  0  0  0  0  0  0  0
   38.8376   -9.5420  -15.7277 O   0  0  0  0  0  0  0  0  0  0  0  0
   36.8157   -8.9367  -16.5269 O   0  0  0  0  0  0  0  0  0  0  0  0
  1  2  1  0
  2  3  2  0
  4  5  1  0
  4  2  1  0
  5  7  1  0
  5  6  1  1
  7  8  2  0
  9 10  1  0
 10 11  2  0
 10 20  1  0
 11 12  1  0
 12 13  2  0
 13 14  1  0
 15 14  1  1
 16 15  1  0
 16  7  1  0
 17 15  1  0
 17 27  1  0
 18 17  2  0
 19 13  1  0
 20 19  2  0
 21 22  1  0
 22 24  1  0
 22 23  2  0
 24 25  1  0
 26 25  1  6
 26 27  1  0
 26 28  1  0
 28 30  1  0
 29 28  2  0
M  END
$$$$
