NYQ.pdb
     RDKit          3D

 30 30  0  0  1  0  0  0  0  0999 V2000
   16.8324  -25.0976  -13.3848 N   0  0  0  0  0  0  0  0  0  0  0  0
   16.9165  -24.2099  -14.4787 C   0  0  0  0  0  0  0  0  0  0  0  0
   15.9209  -24.1363  -15.2440 O   0  0  0  0  0  0  0  0  0  0  0  0
   18.0860  -23.3628  -14.7895 C   0  0  0  0  0  0  0  0  0  0  0  0
   19.1457  -23.6127  -13.7420 C   0  0  2  0  0  0  0  0  0  0  0  0
   18.7717  -22.9017  -12.5585 N   0  0  0  0  0  0  0  0  0  0  0  0
   20.4940  -23.1937  -14.2046 C   0  0  0  0  0  0  0  0  0  0  0  0
   20.7089  -21.9515  -14.2927 O   0  0  0  0  0  0  0  0  0  0  0  0
   28.8482  -22.9392  -16.9660 O   0  0  0  0  0  0  0  0  0  0  0  0
   27.6417  -23.3008  -16.3946 C   0  0  0  0  0  0  0  0  0  0  0  0
   26.9391  -24.3549  -16.9389 C   0  0  0  0  0  0  0  0  0  0  0  0
   25.7158  -24.7674  -16.4071 C   0  0  0  0  0  0  0  0  0  0  0  0
   25.2019  -24.1067  -15.3164 C   0  0  0  0  0  0  0  0  0  0  0  0
   23.9179  -24.5449  -14.7617 C   0  0  0  0  0  0  0  0  0  0  0  0
   22.8001  -23.5908  -14.9696 C   0  0  2  0  0  0  0  0  0  0  0  0
   21.5167  -24.0875  -14.5407 N   0  0  0  0  0  0  0  0  0  0  0  0
   22.7455  -23.2376  -16.4343 C   0  0  0  0  0  0  0  0  0  0  0  0
   22.2720  -24.0729  -17.2395 O   0  0  0  0  0  0  0  0  0  0  0  0
   25.8995  -23.0505  -14.7659 C   0  0  0  0  0  0  0  0  0  0  0  0
   27.1091  -22.6455  -15.2947 C   0  0  0  0  0  0  0  0  0  0  0  0
   19.8478  -19.9118  -17.9171 N   0  0  0  0  0  0  0  0  0  0  0  0
   20.8208  -19.1816  -17.1802 C   0  0  0  0  0  0  0  0  0  0  0  0
   20.4960  -18.3578  -16.2969 O   0  0  0  0  0  0  0  0  0  0  0  0
   22.2622  -19.4607  -17.5280 C   0  0  0  0  0  0  0  0  0  0  0  0
   22.3360  -20.4808  -18.6130 C   0  0  0  0  0  0  0  0  0  0  0  0
   23.2356  -21.6367  -18.3406 C   0  0  2  0  0  0  0  0  0  0  0  0
   23.2156  -21.9906  -16.9093 N   0  0  0  0  0  0  0  0  0  0  0  0
   24.6121  -21.5040  -18.8284 C   0  0  0  0  0  0  0  0  0  0  0  0
   25.5822  -21.5604  -18.0390 O   0  0  0  0  0  0  0  0  0  0  0  0
   24.8951  -21.3120  -20.1743 O   0  0  0  0  0  0  0  0  0  0  0  0
  1  2  1  0
  2  3  2  0
  4  5  1  0
  4  2  1  0
  5  7  1  0
  5  6  1  1
  7  8  2  0
  9 10  1  0
 10 11  2  0
 10 20  1  0
 11 12  1  0
 12 13  2  0
 13 14  1  0
 15 14  1  6
 16 15  1  0
 16  7  1  0
 17 15  1  0
 17 27  1  0
 18 17  2  0
 19 13  1  0
 20 19  2  0
 21 22  1  0
 22 24  1  0
 22 23  2  0
 24 25  1  0
 26 25  1  1
 26 27  1  0
 26 28  1  0
 28 30  1  0
 29 28  2  0
M  END
$$$$
