NYQ.pdb
     RDKit          3D

 30 30  0  0  1  0  0  0  0  0999 V2000
   22.9070  -11.6387  -19.8435 N   0  0  0  0  0  0  0  0  0  0  0  0
   22.4841  -10.3208  -20.1187 C   0  0  0  0  0  0  0  0  0  0  0  0
   22.9001   -9.7876  -21.1793 O   0  0  0  0  0  0  0  0  0  0  0  0
   21.5905   -9.5238  -19.2536 C   0  0  0  0  0  0  0  0  0  0  0  0
   21.3134  -10.3167  -17.9977 C   0  0  2  0  0  0  0  0  0  0  0  0
   20.3795  -11.3494  -18.3257 N   0  0  0  0  0  0  0  0  0  0  0  0
   20.7884   -9.4594  -16.9038 C   0  0  0  0  0  0  0  0  0  0  0  0
   19.5711   -9.1264  -16.9710 O   0  0  0  0  0  0  0  0  0  0  0  0
   18.8554   -5.3234   -9.5071 O   0  0  0  0  0  0  0  0  0  0  0  0
   19.4860   -6.0821  -10.4764 C   0  0  0  0  0  0  0  0  0  0  0  0
   20.5661   -5.5430  -11.1425 C   0  0  0  0  0  0  0  0  0  0  0  0
   21.2443   -6.2591  -12.1309 C   0  0  0  0  0  0  0  0  0  0  0  0
   20.8244   -7.5298  -12.4455 C   0  0  0  0  0  0  0  0  0  0  0  0
   21.5408   -8.2772  -13.4831 C   0  0  0  0  0  0  0  0  0  0  0  0
   20.9878   -8.1151  -14.8510 C   0  0  2  0  0  0  0  0  0  0  0  0
   21.5586   -9.0113  -15.8250 N   0  0  0  0  0  0  0  0  0  0  0  0
   21.2059   -6.6874  -15.2836 C   0  0  0  0  0  0  0  0  0  0  0  0
   22.3658   -6.3167  -15.5794 O   0  0  0  0  0  0  0  0  0  0  0  0
   19.7438   -8.0763  -11.7830 C   0  0  0  0  0  0  0  0  0  0  0  0
   19.0757   -7.3650  -10.8061 C   0  0  0  0  0  0  0  0  0  0  0  0
   18.9620   -4.0181  -19.7004 N   0  0  0  0  0  0  0  0  0  0  0  0
   19.3629   -2.7701  -19.1485 C   0  0  0  0  0  0  0  0  0  0  0  0
   19.3204   -1.7119  -19.8139 O   0  0  0  0  0  0  0  0  0  0  0  0
   19.8404   -2.8012  -17.7175 C   0  0  0  0  0  0  0  0  0  0  0  0
   19.8132   -4.1999  -17.2018 C   0  0  0  0  0  0  0  0  0  0  0  0
   20.3049   -4.3741  -15.8062 C   0  0  2  0  0  0  0  0  0  0  0  0
   20.1326   -5.7688  -15.3601 N   0  0  0  0  0  0  0  0  0  0  0  0
   19.7642   -3.4367  -14.8167 C   0  0  0  0  0  0  0  0  0  0  0  0
   20.2519   -2.2915  -14.6821 O   0  0  0  0  0  0  0  0  0  0  0  0
   18.6980   -3.7766  -13.9945 O   0  0  0  0  0  0  0  0  0  0  0  0
  1  2  1  0
  2  3  2  0
  4  5  1  0
  4  2  1  0
  5  7  1  0
  5  6  1  6
  7  8  2  0
  9 10  1  0
 10 11  2  0
 10 20  1  0
 11 12  1  0
 12 13  2  0
 13 14  1  0
 15 14  1  1
 16 15  1  0
 16  7  1  0
 17 15  1  0
 17 27  1  0
 18 17  2  0
 19 13  1  0
 20 19  2  0
 21 22  1  0
 22 24  1  0
 22 23  2  0
 24 25  1  0
 26 25  1  6
 26 27  1  0
 26 28  1  0
 28 30  1  0
 29 28  2  0
M  END
$$$$
