NYQ.pdb
     RDKit          3D

 30 30  0  0  1  0  0  0  0  0999 V2000
   27.5610  -20.7845  -21.2320 N   0  0  0  0  0  0  0  0  0  0  0  0
   27.4808  -22.0942  -20.7125 C   0  0  0  0  0  0  0  0  0  0  0  0
   27.7228  -23.0459  -21.4986 O   0  0  0  0  0  0  0  0  0  0  0  0
   27.1340  -22.4278  -19.3159 C   0  0  0  0  0  0  0  0  0  0  0  0
   26.9240  -21.1382  -18.5573 C   0  0  2  0  0  0  0  0  0  0  0  0
   28.1586  -20.4158  -18.5660 N   0  0  0  0  0  0  0  0  0  0  0  0
   26.4652  -21.3809  -17.1652 C   0  0  0  0  0  0  0  0  0  0  0  0
   25.4277  -22.0874  -17.0189 O   0  0  0  0  0  0  0  0  0  0  0  0
   24.8862  -20.6849   -8.5580 O   0  0  0  0  0  0  0  0  0  0  0  0
   25.4916  -20.6212   -9.7999 C   0  0  0  0  0  0  0  0  0  0  0  0
   26.0125  -21.7759  -10.3442 C   0  0  0  0  0  0  0  0  0  0  0  0
   26.6355  -21.7759  -11.5939 C   0  0  0  0  0  0  0  0  0  0  0  0
   26.7307  -20.5976  -12.2956 C   0  0  0  0  0  0  0  0  0  0  0  0
   27.3847  -20.6040  -13.6073 C   0  0  0  0  0  0  0  0  0  0  0  0
   26.5080  -21.0212  -14.7300 C   0  0  2  0  0  0  0  0  0  0  0  0
   27.1113  -20.8765  -16.0312 N   0  0  0  0  0  0  0  0  0  0  0  0
   25.2380  -20.2114  -14.6650 C   0  0  0  0  0  0  0  0  0  0  0  0
   25.2284  -19.0624  -15.1649 O   0  0  0  0  0  0  0  0  0  0  0  0
   26.2116  -19.4375  -11.7572 C   0  0  0  0  0  0  0  0  0  0  0  0
   25.5962  -19.4414  -10.5211 C   0  0  0  0  0  0  0  0  0  0  0  0
   21.3152  -19.4330  -17.8192 N   0  0  0  0  0  0  0  0  0  0  0  0
   20.7280  -18.5357  -16.8850 C   0  0  0  0  0  0  0  0  0  0  0  0
   19.8366  -17.7254  -17.2212 O   0  0  0  0  0  0  0  0  0  0  0  0
   21.2442  -18.6213  -15.4697 C   0  0  0  0  0  0  0  0  0  0  0  0
   22.3812  -19.5833  -15.3996 C   0  0  0  0  0  0  0  0  0  0  0  0
   22.7937  -19.9830  -14.0249 C   0  0  2  0  0  0  0  0  0  0  0  0
   24.0687  -20.7229  -14.0545 N   0  0  0  0  0  0  0  0  0  0  0  0
   21.7870  -20.7048  -13.2402 C   0  0  0  0  0  0  0  0  0  0  0  0
   21.9018  -21.9319  -13.0200 O   0  0  0  0  0  0  0  0  0  0  0  0
   20.6738  -20.0636  -12.7129 O   0  0  0  0  0  0  0  0  0  0  0  0
  1  2  1  0
  2  3  2  0
  4  5  1  0
  4  2  1  0
  5  7  1  0
  5  6  1  1
  7  8  2  0
  9 10  1  0
 10 11  2  0
 10 20  1  0
 11 12  1  0
 12 13  2  0
 13 14  1  0
 15 14  1  1
 16 15  1  0
 16  7  1  0
 17 15  1  0
 17 27  1  0
 18 17  2  0
 19 13  1  0
 20 19  2  0
 21 22  1  0
 22 24  1  0
 22 23  2  0
 24 25  1  0
 26 25  1  6
 26 27  1  0
 26 28  1  0
 28 30  1  0
 29 28  2  0
M  END
$$$$
