NYQ.pdb
     RDKit          3D

 30 30  0  0  1  0  0  0  0  0999 V2000
   27.8542  -22.1206  -16.4153 N   0  0  0  0  0  0  0  0  0  0  0  0
   27.9552  -20.7139  -16.3665 C   0  0  0  0  0  0  0  0  0  0  0  0
   29.0659  -20.2014  -16.6597 O   0  0  0  0  0  0  0  0  0  0  0  0
   26.8537  -19.8015  -15.9970 C   0  0  0  0  0  0  0  0  0  0  0  0
   25.6796  -20.6349  -15.5393 C   0  0  2  0  0  0  0  0  0  0  0  0
   25.3199  -21.5143  -16.6087 N   0  0  0  0  0  0  0  0  0  0  0  0
   24.5232  -19.7928  -15.1380 C   0  0  0  0  0  0  0  0  0  0  0  0
   24.6373  -19.1376  -14.0635 O   0  0  0  0  0  0  0  0  0  0  0  0
   17.0919  -15.2176  -14.4738 O   0  0  0  0  0  0  0  0  0  0  0  0
   18.2048  -15.9004  -14.9299 C   0  0  0  0  0  0  0  0  0  0  0  0
   18.0271  -17.1148  -15.5581 C   0  0  0  0  0  0  0  0  0  0  0  0
   19.1109  -17.8514  -16.0403 C   0  0  0  0  0  0  0  0  0  0  0  0
   20.3827  -17.3532  -15.8844 C   0  0  0  0  0  0  0  0  0  0  0  0
   21.5163  -18.1303  -16.3936 C   0  0  0  0  0  0  0  0  0  0  0  0
   22.2305  -18.9245  -15.3628 C   0  0  2  0  0  0  0  0  0  0  0  0
   23.3384  -19.6910  -15.8755 N   0  0  0  0  0  0  0  0  0  0  0  0
   21.2365  -19.8458  -14.7024 C   0  0  0  0  0  0  0  0  0  0  0  0
   21.0651  -20.9914  -15.1804 O   0  0  0  0  0  0  0  0  0  0  0  0
   20.5686  -16.1381  -15.2566 C   0  0  0  0  0  0  0  0  0  0  0  0
   19.4943  -15.4125  -14.7810 C   0  0  0  0  0  0  0  0  0  0  0  0
   21.5262  -21.7617   -9.4607 N   0  0  0  0  0  0  0  0  0  0  0  0
   20.2052  -22.2732   -9.5877 C   0  0  0  0  0  0  0  0  0  0  0  0
   19.7510  -23.1277   -8.7953 O   0  0  0  0  0  0  0  0  0  0  0  0
   19.3892  -21.7241  -10.7320 C   0  0  0  0  0  0  0  0  0  0  0  0
   20.2254  -20.8092  -11.5608 C   0  0  0  0  0  0  0  0  0  0  0  0
   19.5984  -20.3490  -12.8315 C   0  0  2  0  0  0  0  0  0  0  0  0
   20.5015  -19.4416  -13.5631 N   0  0  0  0  0  0  0  0  0  0  0  0
   18.2580  -19.7673  -12.7086 C   0  0  0  0  0  0  0  0  0  0  0  0
   18.1056  -18.5466  -12.4758 O   0  0  0  0  0  0  0  0  0  0  0  0
   17.1113  -20.5389  -12.8439 O   0  0  0  0  0  0  0  0  0  0  0  0
  1  2  1  0
  2  3  2  0
  4  5  1  0
  4  2  1  0
  5  7  1  0
  5  6  1  6
  7  8  2  0
  9 10  1  0
 10 11  2  0
 10 20  1  0
 11 12  1  0
 12 13  2  0
 13 14  1  0
 15 14  1  6
 16 15  1  0
 16  7  1  0
 17 15  1  0
 17 27  1  0
 18 17  2  0
 19 13  1  0
 20 19  2  0
 21 22  1  0
 22 24  1  0
 22 23  2  0
 24 25  1  0
 26 25  1  1
 26 27  1  0
 26 28  1  0
 28 30  1  0
 29 28  2  0
M  END
$$$$
