SVL.pdb
     RDKit          3D

 22 21  0  0  1  0  0  0  0  0999 V2000
    5.2370  -19.5420   24.3854 O   0  0  0  0  0  0  0  0  0  0  0  0
    6.2225  -18.5953   24.1209 C   0  0  0  0  0  0  0  0  0  0  0  0
    6.1782  -18.3183   22.6301 C   0  0  2  0  0  0  0  0  0  0  0  0
    6.6054  -19.5088   21.9229 N   0  0  0  0  0  0  0  0  0  0  0  0
    7.1709  -17.2540   22.3380 C   0  0  0  0  0  0  0  0  0  0  0  0
    8.3812  -17.5868   22.1263 O   0  0  0  0  0  0  0  0  0  0  0  0
    6.9940  -14.2004   19.8911 C   0  0  0  0  0  0  0  0  0  0  0  0
    7.3808  -13.7117   21.2783 C   0  0  2  0  0  0  0  0  0  0  0  0
    8.3536  -12.5877   21.0788 C   0  0  0  0  0  0  0  0  0  0  0  0
    7.9236  -14.8596   22.1103 C   0  0  2  0  0  0  0  0  0  0  0  0
    6.8796  -15.8750   22.2739 N   0  0  0  0  0  0  0  0  0  0  0  0
    8.3316  -14.4619   23.4694 C   0  0  0  0  0  0  0  0  0  0  0  0
    8.2672  -13.2294   23.8103 O   0  0  0  0  0  0  0  0  0  0  0  0
    7.8211  -12.0000   26.5769 C   0  0  0  0  0  0  0  0  0  0  0  0
    7.1133  -13.2505   26.1971 C   0  0  2  0  0  0  0  0  0  0  0  0
    5.6686  -13.1958   26.7074 C   0  0  0  0  0  0  0  0  0  0  0  0
    7.7750  -14.5312   26.5229 C   0  0  0  0  0  0  0  0  0  0  0  0
    9.0529  -14.8505   25.8502 C   0  0  2  0  0  0  0  0  0  0  0  0
    8.8058  -15.3323   24.4848 N   0  0  0  0  0  0  0  0  0  0  0  0
    9.6718  -15.9948   26.6151 C   0  0  0  0  0  0  0  0  0  0  0  0
    9.6920  -17.1584   26.1591 O   0  0  0  0  0  0  0  0  0  0  0  0
   10.2447  -15.7907   27.8626 O   0  0  0  0  0  0  0  0  0  0  0  0
  2  1  1  0
  3  2  1  0
  3  4  1  6
  5  3  1  0
  5  6  2  0
  8  7  1  6
  8 10  1  0
  9  8  1  0
 10 11  1  1
 10 12  1  0
 11  5  1  0
 12 19  1  0
 13 12  2  0
 15 14  1  1
 16 15  1  0
 17 15  1  0
 18 17  1  1
 19 18  1  0
 20 22  1  0
 20 18  1  0
 21 20  2  0
M  END
$$$$
