SVL.pdb
     RDKit          3D

 22 21  0  0  1  0  0  0  0  0999 V2000
    6.9941  -19.9993   20.2178 O   0  0  0  0  0  0  0  0  0  0  0  0
    7.7954  -18.9922   20.7479 C   0  0  0  0  0  0  0  0  0  0  0  0
    7.8206  -17.8678   19.7299 C   0  0  2  0  0  0  0  0  0  0  0  0
    8.6514  -18.2702   18.6129 N   0  0  0  0  0  0  0  0  0  0  0  0
    8.4757  -16.6970   20.3651 C   0  0  0  0  0  0  0  0  0  0  0  0
    9.7367  -16.5648   20.2520 O   0  0  0  0  0  0  0  0  0  0  0  0
    6.5169  -13.1073   21.5294 C   0  0  0  0  0  0  0  0  0  0  0  0
    7.9917  -13.2726   21.1967 C   0  0  2  0  0  0  0  0  0  0  0  0
    8.1103  -13.1412   19.7073 C   0  0  0  0  0  0  0  0  0  0  0  0
    8.5126  -14.5887   21.7454 C   0  0  2  0  0  0  0  0  0  0  0  0
    7.8039  -15.6969   21.0994 N   0  0  0  0  0  0  0  0  0  0  0  0
    8.2997  -14.7492   23.1947 C   0  0  0  0  0  0  0  0  0  0  0  0
    7.1405  -15.0784   23.6278 O   0  0  0  0  0  0  0  0  0  0  0  0
    8.2542  -11.9002   26.7627 C   0  0  0  0  0  0  0  0  0  0  0  0
    7.3199  -12.6917   25.9204 C   0  0  2  0  0  0  0  0  0  0  0  0
    5.8743  -12.3480   26.2981 C   0  0  0  0  0  0  0  0  0  0  0  0
    7.5469  -14.1498   25.8401 C   0  0  0  0  0  0  0  0  0  0  0  0
    8.9289  -14.6332   25.6299 C   0  0  2  0  0  0  0  0  0  0  0  0
    9.2805  -14.5737   24.2051 N   0  0  0  0  0  0  0  0  0  0  0  0
    8.9443  -16.0893   26.0264 C   0  0  0  0  0  0  0  0  0  0  0  0
    8.9581  -16.4464   27.2241 O   0  0  0  0  0  0  0  0  0  0  0  0
    8.9436  -17.0896   25.0645 O   0  0  0  0  0  0  0  0  0  0  0  0
  2  1  1  0
  3  2  1  0
  3  4  1  6
  5  3  1  0
  5  6  2  0
  8  7  1  6
  8 10  1  0
  9  8  1  0
 10 11  1  6
 10 12  1  0
 11  5  1  0
 12 19  1  0
 13 12  2  0
 15 14  1  1
 16 15  1  0
 17 15  1  0
 18 17  1  6
 19 18  1  0
 20 22  1  0
 20 18  1  0
 21 20  2  0
M  END
$$$$
