SVL.pdb
     RDKit          3D

 22 21  0  0  1  0  0  0  0  0999 V2000
    8.0156  -20.2124   22.3709 O   0  0  0  0  0  0  0  0  0  0  0  0
    7.4294  -18.9514   22.3132 C   0  0  0  0  0  0  0  0  0  0  0  0
    7.4799  -18.5081   20.8633 C   0  0  2  0  0  0  0  0  0  0  0  0
    8.2922  -19.4483   20.1175 N   0  0  0  0  0  0  0  0  0  0  0  0
    8.1715  -17.1955   20.8153 C   0  0  0  0  0  0  0  0  0  0  0  0
    9.4319  -17.1736   20.6386 O   0  0  0  0  0  0  0  0  0  0  0  0
    7.0821  -13.7874   18.9669 C   0  0  0  0  0  0  0  0  0  0  0  0
    7.3924  -13.5687   20.4397 C   0  0  2  0  0  0  0  0  0  0  0  0
    7.9967  -12.2004   20.5497 C   0  0  0  0  0  0  0  0  0  0  0  0
    8.2818  -14.6821   20.9629 C   0  0  2  0  0  0  0  0  0  0  0  0
    7.5357  -15.9434   20.9519 N   0  0  0  0  0  0  0  0  0  0  0  0
    8.7285  -14.4768   22.3522 C   0  0  0  0  0  0  0  0  0  0  0  0
    9.7508  -13.7408   22.5822 O   0  0  0  0  0  0  0  0  0  0  0  0
    5.9760  -12.1626   26.9255 C   0  0  0  0  0  0  0  0  0  0  0  0
    7.2174  -12.8547   26.4909 C   0  0  2  0  0  0  0  0  0  0  0  0
    8.4036  -11.8886   26.5907 C   0  0  0  0  0  0  0  0  0  0  0  0
    7.1807  -13.5657   25.1958 C   0  0  0  0  0  0  0  0  0  0  0  0
    8.3275  -14.4284   24.8374 C   0  0  2  0  0  0  0  0  0  0  0  0
    8.1228  -15.0267   23.5116 N   0  0  0  0  0  0  0  0  0  0  0  0
    8.3456  -15.5621   25.8335 C   0  0  0  0  0  0  0  0  0  0  0  0
    8.5680  -15.3690   27.0482 O   0  0  0  0  0  0  0  0  0  0  0  0
    8.1135  -16.8693   25.4294 O   0  0  0  0  0  0  0  0  0  0  0  0
  2  1  1  0
  3  2  1  0
  3  4  1  6
  5  3  1  0
  5  6  2  0
  8  7  1  6
  8 10  1  0
  9  8  1  0
 10 11  1  1
 10 12  1  0
 11  5  1  0
 12 19  1  0
 13 12  2  0
 15 14  1  6
 16 15  1  0
 17 15  1  0
 18 17  1  1
 19 18  1  0
 20 22  1  0
 20 18  1  0
 21 20  2  0
M  END
$$$$
