SVL.pdb
     RDKit          3D

 22 21  0  0  1  0  0  0  0  0999 V2000
   11.1672  -17.7623   18.0131 O   0  0  0  0  0  0  0  0  0  0  0  0
    9.8608  -18.1601   18.2826 C   0  0  0  0  0  0  0  0  0  0  0  0
    9.7291  -18.2462   19.7914 C   0  0  2  0  0  0  0  0  0  0  0  0
    8.4463  -18.8383   20.1133 N   0  0  0  0  0  0  0  0  0  0  0  0
    9.7197  -16.8609   20.3245 C   0  0  0  0  0  0  0  0  0  0  0  0
   10.7977  -16.1846   20.2912 O   0  0  0  0  0  0  0  0  0  0  0  0
    7.7354  -13.8600   19.3278 C   0  0  0  0  0  0  0  0  0  0  0  0
    7.5320  -14.0271   20.8257 C   0  0  2  0  0  0  0  0  0  0  0  0
    7.4237  -12.6450   21.3983 C   0  0  0  0  0  0  0  0  0  0  0  0
    8.6543  -14.8577   21.4216 C   0  0  2  0  0  0  0  0  0  0  0  0
    8.5925  -16.2168   20.8768 N   0  0  0  0  0  0  0  0  0  0  0  0
    8.5733  -14.9943   22.8866 C   0  0  0  0  0  0  0  0  0  0  0  0
    7.6142  -15.6666   23.4039 O   0  0  0  0  0  0  0  0  0  0  0  0
    5.7366  -12.4339   26.2997 C   0  0  0  0  0  0  0  0  0  0  0  0
    7.1460  -12.8977   26.3851 C   0  0  2  0  0  0  0  0  0  0  0  0
    7.9567  -11.9165   27.2397 C   0  0  0  0  0  0  0  0  0  0  0  0
    7.8282  -13.2341   25.1181 C   0  0  0  0  0  0  0  0  0  0  0  0
    9.0484  -14.0680   25.1792 C   0  0  2  0  0  0  0  0  0  0  0  0
    9.4814  -14.4409   23.8261 N   0  0  0  0  0  0  0  0  0  0  0  0
    8.6660  -15.3453   25.8863 C   0  0  0  0  0  0  0  0  0  0  0  0
    8.3673  -15.3630   27.0999 O   0  0  0  0  0  0  0  0  0  0  0  0
    8.6331  -16.5542   25.2056 O   0  0  0  0  0  0  0  0  0  0  0  0
  2  1  1  0
  3  2  1  0
  3  4  1  6
  5  3  1  0
  5  6  2  0
  8  7  1  6
  8 10  1  0
  9  8  1  0
 10 11  1  6
 10 12  1  0
 11  5  1  0
 12 19  1  0
 13 12  2  0
 15 14  1  6
 16 15  1  0
 17 15  1  0
 18 17  1  6
 19 18  1  0
 20 22  1  0
 20 18  1  0
 21 20  2  0
M  END
$$$$
