SVL.pdb
     RDKit          3D

 22 21  0  0  1  0  0  0  0  0999 V2000
   11.4726  -13.0082   19.7852 O   0  0  0  0  0  0  0  0  0  0  0  0
   11.6236  -14.3659   19.5184 C   0  0  0  0  0  0  0  0  0  0  0  0
   10.2906  -14.8621   18.9910 C   0  0  2  0  0  0  0  0  0  0  0  0
    9.5619  -13.7383   18.4378 N   0  0  0  0  0  0  0  0  0  0  0  0
    9.5072  -15.3681   20.1458 C   0  0  0  0  0  0  0  0  0  0  0  0
    8.3789  -14.8365   20.4004 O   0  0  0  0  0  0  0  0  0  0  0  0
    9.1512  -19.2925   21.1465 C   0  0  0  0  0  0  0  0  0  0  0  0
    9.4557  -18.3946   22.3356 C   0  0  2  0  0  0  0  0  0  0  0  0
    8.7592  -19.0011   23.5175 C   0  0  0  0  0  0  0  0  0  0  0  0
    9.0394  -16.9653   22.0383 C   0  0  2  0  0  0  0  0  0  0  0  0
    9.9166  -16.4109   21.0034 N   0  0  0  0  0  0  0  0  0  0  0  0
    9.1486  -16.0652   23.2000 C   0  0  0  0  0  0  0  0  0  0  0  0
   10.3037  -15.6592   23.5751 O   0  0  0  0  0  0  0  0  0  0  0  0
    5.7450  -12.3081   26.8622 C   0  0  0  0  0  0  0  0  0  0  0  0
    7.0560  -12.8525   26.4219 C   0  0  2  0  0  0  0  0  0  0  0  0
    8.0243  -11.6960   26.1476 C   0  0  0  0  0  0  0  0  0  0  0  0
    7.0459  -13.8467   25.3285 C   0  0  0  0  0  0  0  0  0  0  0  0
    8.2844  -14.6111   25.0650 C   0  0  2  0  0  0  0  0  0  0  0  0
    8.0683  -15.5771   23.9798 N   0  0  0  0  0  0  0  0  0  0  0  0
    8.5756  -15.4089   26.3126 C   0  0  0  0  0  0  0  0  0  0  0  0
    9.2408  -14.9343   27.2584 O   0  0  0  0  0  0  0  0  0  0  0  0
    8.1096  -16.7086   26.4520 O   0  0  0  0  0  0  0  0  0  0  0  0
  2  1  1  0
  3  2  1  0
  3  4  1  1
  5  3  1  0
  5  6  2  0
  8  7  1  6
  8 10  1  0
  9  8  1  0
 10 11  1  6
 10 12  1  0
 11  5  1  0
 12 19  1  0
 13 12  2  0
 15 14  1  6
 16 15  1  0
 17 15  1  0
 18 17  1  1
 19 18  1  0
 20 22  1  0
 20 18  1  0
 21 20  2  0
M  END
$$$$
