SVL.pdb
     RDKit          3D

 22 21  0  0  1  0  0  0  0  0999 V2000
    7.4610  -18.8871   23.3027 O   0  0  0  0  0  0  0  0  0  0  0  0
    6.2351  -18.6897   22.6740 C   0  0  0  0  0  0  0  0  0  0  0  0
    6.5323  -18.3566   21.2242 C   0  0  2  0  0  0  0  0  0  0  0  0
    7.2358  -19.4730   20.6252 N   0  0  0  0  0  0  0  0  0  0  0  0
    7.4562  -17.1950   21.2071 C   0  0  0  0  0  0  0  0  0  0  0  0
    8.7012  -17.4051   21.0449 O   0  0  0  0  0  0  0  0  0  0  0  0
    6.6627  -13.6351   19.4441 C   0  0  0  0  0  0  0  0  0  0  0  0
    7.2540  -13.4795   20.8367 C   0  0  2  0  0  0  0  0  0  0  0  0
    8.1015  -12.2425   20.8044 C   0  0  0  0  0  0  0  0  0  0  0  0
    8.0077  -14.7360   21.2337 C   0  0  2  0  0  0  0  0  0  0  0  0
    7.0622  -15.8487   21.3586 N   0  0  0  0  0  0  0  0  0  0  0  0
    8.6932  -14.6268   22.5337 C   0  0  0  0  0  0  0  0  0  0  0  0
    9.6608  -13.7987   22.6672 O   0  0  0  0  0  0  0  0  0  0  0  0
    5.6890  -12.5241   26.7058 C   0  0  0  0  0  0  0  0  0  0  0  0
    7.0146  -13.1510   26.4637 C   0  0  2  0  0  0  0  0  0  0  0  0
    8.1231  -12.1328   26.7554 C   0  0  0  0  0  0  0  0  0  0  0  0
    7.2135  -13.8419   25.1725 C   0  0  0  0  0  0  0  0  0  0  0  0
    8.3820  -14.7375   25.0297 C   0  0  2  0  0  0  0  0  0  0  0  0
    8.3839  -15.3683   23.7033 N   0  0  0  0  0  0  0  0  0  0  0  0
    8.2077  -15.8429   26.0423 C   0  0  0  0  0  0  0  0  0  0  0  0
    7.3655  -16.7532   25.8863 O   0  0  0  0  0  0  0  0  0  0  0  0
    8.9847  -15.8855   27.1914 O   0  0  0  0  0  0  0  0  0  0  0  0
  2  1  1  0
  3  2  1  0
  3  4  1  1
  5  3  1  0
  5  6  2  0
  8  7  1  6
  8 10  1  0
  9  8  1  0
 10 11  1  1
 10 12  1  0
 11  5  1  0
 12 19  1  0
 13 12  2  0
 15 14  1  6
 16 15  1  0
 17 15  1  0
 18 17  1  6
 19 18  1  0
 20 22  1  0
 20 18  1  0
 21 20  2  0
M  END
$$$$
