SVL.pdb
     RDKit          3D

 22 21  0  0  1  0  0  0  0  0999 V2000
    7.4672  -18.8701   24.5030 O   0  0  0  0  0  0  0  0  0  0  0  0
    6.3366  -18.8710   23.6911 C   0  0  0  0  0  0  0  0  0  0  0  0
    6.8258  -18.8696   22.2552 C   0  0  2  0  0  0  0  0  0  0  0  0
    7.6553  -20.0391   22.0451 N   0  0  0  0  0  0  0  0  0  0  0  0
    7.6922  -17.6781   22.0735 C   0  0  0  0  0  0  0  0  0  0  0  0
    8.9453  -17.8487   21.9275 O   0  0  0  0  0  0  0  0  0  0  0  0
    6.9018  -14.3207   19.9433 C   0  0  0  0  0  0  0  0  0  0  0  0
    7.3863  -14.0170   21.3525 C   0  0  2  0  0  0  0  0  0  0  0  0
    8.1975  -12.7586   21.2627 C   0  0  0  0  0  0  0  0  0  0  0  0
    8.1457  -15.2040   21.9171 C   0  0  2  0  0  0  0  0  0  0  0  0
    7.2341  -16.3439   22.0486 N   0  0  0  0  0  0  0  0  0  0  0  0
    8.7041  -14.9628   23.2594 C   0  0  0  0  0  0  0  0  0  0  0  0
    9.9231  -14.5887   23.3760 O   0  0  0  0  0  0  0  0  0  0  0  0
    7.8875  -11.5385   26.2841 C   0  0  0  0  0  0  0  0  0  0  0  0
    6.9812  -12.7141   26.2096 C   0  0  2  0  0  0  0  0  0  0  0  0
    5.6693  -12.3957   26.9364 C   0  0  0  0  0  0  0  0  0  0  0  0
    7.5364  -14.0258   26.6035 C   0  0  0  0  0  0  0  0  0  0  0  0
    8.5860  -14.6266   25.7519 C   0  0  2  0  0  0  0  0  0  0  0  0
    8.0087  -15.1035   24.4883 N   0  0  0  0  0  0  0  0  0  0  0  0
    9.0990  -15.8407   26.4871 C   0  0  0  0  0  0  0  0  0  0  0  0
    9.6636  -15.7488   27.5984 O   0  0  0  0  0  0  0  0  0  0  0  0
    8.9591  -17.1118   25.9480 O   0  0  0  0  0  0  0  0  0  0  0  0
  2  1  1  0
  3  2  1  0
  3  4  1  1
  5  3  1  0
  5  6  2  0
  8  7  1  6
  8 10  1  0
  9  8  1  0
 10 11  1  1
 10 12  1  0
 11  5  1  0
 12 19  1  0
 13 12  2  0
 15 14  1  1
 16 15  1  0
 17 15  1  0
 18 17  1  1
 19 18  1  0
 20 22  1  0
 20 18  1  0
 21 20  2  0
M  END
$$$$
