SVL.pdb
     RDKit          3D

 22 21  0  0  1  0  0  0  0  0999 V2000
   11.9184  -19.7025   19.9234 O   0  0  0  0  0  0  0  0  0  0  0  0
   11.3670  -18.7287   20.7511 C   0  0  0  0  0  0  0  0  0  0  0  0
   11.0559  -17.5303   19.8746 C   0  0  2  0  0  0  0  0  0  0  0  0
   12.2825  -17.0829   19.2459 N   0  0  0  0  0  0  0  0  0  0  0  0
   10.5894  -16.4325   20.7581 C   0  0  0  0  0  0  0  0  0  0  0  0
   11.4449  -15.6061   21.2117 O   0  0  0  0  0  0  0  0  0  0  0  0
    7.4098  -14.1276   20.1940 C   0  0  0  0  0  0  0  0  0  0  0  0
    7.4364  -14.6689   21.6150 C   0  0  2  0  0  0  0  0  0  0  0  0
    6.8697  -13.5925   22.4923 C   0  0  0  0  0  0  0  0  0  0  0  0
    8.8437  -15.0968   21.9908 C   0  0  2  0  0  0  0  0  0  0  0  0
    9.2490  -16.2235   21.1458 N   0  0  0  0  0  0  0  0  0  0  0  0
    8.9674  -15.5585   23.3848 C   0  0  0  0  0  0  0  0  0  0  0  0
    8.7463  -16.7889   23.6621 O   0  0  0  0  0  0  0  0  0  0  0  0
   10.4767  -15.7174   28.7421 C   0  0  0  0  0  0  0  0  0  0  0  0
   10.6453  -14.4936   27.9158 C   0  0  2  0  0  0  0  0  0  0  0  0
   10.8138  -13.2764   28.8327 C   0  0  0  0  0  0  0  0  0  0  0  0
    9.6557  -14.2558   26.8443 C   0  0  0  0  0  0  0  0  0  0  0  0
    9.4300  -15.3262   25.8488 C   0  0  2  0  0  0  0  0  0  0  0  0
    9.3219  -14.7556   24.4997 N   0  0  0  0  0  0  0  0  0  0  0  0
    8.0924  -15.9454   26.1731 C   0  0  0  0  0  0  0  0  0  0  0  0
    7.0173  -15.3526   25.9388 O   0  0  0  0  0  0  0  0  0  0  0  0
    8.0114  -17.2060   26.7478 O   0  0  0  0  0  0  0  0  0  0  0  0
  2  1  1  0
  3  2  1  0
  3  4  1  1
  5  3  1  0
  5  6  2  0
  8  7  1  6
  8 10  1  0
  9  8  1  0
 10 11  1  6
 10 12  1  0
 11  5  1  0
 12 19  1  0
 13 12  2  0
 15 14  1  1
 16 15  1  0
 17 15  1  0
 18 17  1  1
 19 18  1  0
 20 22  1  0
 20 18  1  0
 21 20  2  0
M  END
$$$$
