SVL.pdb
     RDKit          3D

 22 21  0  0  1  0  0  0  0  0999 V2000
    9.4168  -12.4051   20.1476 O   0  0  0  0  0  0  0  0  0  0  0  0
    9.7062  -13.6630   19.6268 C   0  0  0  0  0  0  0  0  0  0  0  0
    8.3812  -14.3012   19.2551 C   0  0  2  0  0  0  0  0  0  0  0  0
    7.5121  -13.2812   18.7035 N   0  0  0  0  0  0  0  0  0  0  0  0
    7.7473  -14.7890   20.5056 C   0  0  0  0  0  0  0  0  0  0  0  0
    6.7417  -14.1603   20.9680 O   0  0  0  0  0  0  0  0  0  0  0  0
    6.7348  -18.4841   21.2570 C   0  0  0  0  0  0  0  0  0  0  0  0
    7.4948  -17.9168   22.4459 C   0  0  2  0  0  0  0  0  0  0  0  0
    6.8832  -18.5250   23.6729 C   0  0  0  0  0  0  0  0  0  0  0  0
    7.4559  -16.3993   22.4221 C   0  0  2  0  0  0  0  0  0  0  0  0
    8.1748  -15.9150   21.2405 N   0  0  0  0  0  0  0  0  0  0  0  0
    8.1058  -15.7742   23.5877 C   0  0  0  0  0  0  0  0  0  0  0  0
    9.3836  -15.7072   23.6349 O   0  0  0  0  0  0  0  0  0  0  0  0
    6.1071  -11.6307   27.1191 C   0  0  0  0  0  0  0  0  0  0  0  0
    7.2292  -12.3645   26.4777 C   0  0  2  0  0  0  0  0  0  0  0  0
    7.3064  -11.9860   24.9940 C   0  0  0  0  0  0  0  0  0  0  0  0
    7.2929  -13.8260   26.6875 C   0  0  0  0  0  0  0  0  0  0  0  0
    8.1938  -14.6193   25.8234 C   0  0  2  0  0  0  0  0  0  0  0  0
    7.4425  -15.2129   24.7095 N   0  0  0  0  0  0  0  0  0  0  0  0
    8.7080  -15.7615   26.6652 C   0  0  0  0  0  0  0  0  0  0  0  0
    8.1224  -16.8650   26.7077 O   0  0  0  0  0  0  0  0  0  0  0  0
    9.8593  -15.6227   27.4275 O   0  0  0  0  0  0  0  0  0  0  0  0
  2  1  1  0
  3  2  1  0
  3  4  1  1
  5  3  1  0
  5  6  2  0
  8  7  1  6
  8 10  1  0
  9  8  1  0
 10 11  1  6
 10 12  1  0
 11  5  1  0
 12 19  1  0
 13 12  2  0
 15 14  1  6
 16 15  1  0
 17 15  1  0
 18 17  1  1
 19 18  1  0
 20 22  1  0
 20 18  1  0
 21 20  2  0
M  END
$$$$
