SVL.pdb
     RDKit          3D

 22 21  0  0  1  0  0  0  0  0999 V2000
   11.3919  -17.2968   19.1145 O   0  0  0  0  0  0  0  0  0  0  0  0
   10.3677  -16.7014   19.8452 C   0  0  0  0  0  0  0  0  0  0  0  0
    9.1302  -17.5557   19.6455 C   0  0  2  0  0  0  0  0  0  0  0  0
    8.4231  -17.0832   18.4722 N   0  0  0  0  0  0  0  0  0  0  0  0
    8.2384  -17.3400   20.8123 C   0  0  0  0  0  0  0  0  0  0  0  0
    7.3047  -16.4797   20.7187 O   0  0  0  0  0  0  0  0  0  0  0  0
    5.9436  -19.7518   22.4467 C   0  0  0  0  0  0  0  0  0  0  0  0
    6.8165  -19.1746   23.5503 C   0  0  2  0  0  0  0  0  0  0  0  0
    5.9660  -19.1245   24.7847 C   0  0  0  0  0  0  0  0  0  0  0  0
    7.3774  -17.8280   23.1301 C   0  0  2  0  0  0  0  0  0  0  0  0
    8.3406  -18.0227   22.0428 N   0  0  0  0  0  0  0  0  0  0  0  0
    8.1025  -17.1292   24.2060 C   0  0  0  0  0  0  0  0  0  0  0  0
    9.3496  -17.3624   24.3789 O   0  0  0  0  0  0  0  0  0  0  0  0
    8.1028  -12.4213   25.2558 C   0  0  0  0  0  0  0  0  0  0  0  0
    7.1088  -13.3353   25.8768 C   0  0  2  0  0  0  0  0  0  0  0  0
    6.0103  -12.5104   26.5573 C   0  0  0  0  0  0  0  0  0  0  0  0
    7.6264  -14.4090   26.7505 C   0  0  0  0  0  0  0  0  0  0  0  0
    8.3733  -15.5222   26.1253 C   0  0  2  0  0  0  0  0  0  0  0  0
    7.5469  -16.1848   25.1077 N   0  0  0  0  0  0  0  0  0  0  0  0
    8.6301  -16.5370   27.2124 C   0  0  0  0  0  0  0  0  0  0  0  0
    9.5281  -16.3751   28.0667 O   0  0  0  0  0  0  0  0  0  0  0  0
    7.8701  -17.6948   27.3002 O   0  0  0  0  0  0  0  0  0  0  0  0
  2  1  1  0
  3  2  1  0
  3  4  1  6
  5  3  1  0
  5  6  2  0
  8  7  1  6
  8 10  1  0
  9  8  1  0
 10 11  1  6
 10 12  1  0
 11  5  1  0
 12 19  1  0
 13 12  2  0
 15 14  1  1
 16 15  1  0
 17 15  1  0
 18 17  1  1
 19 18  1  0
 20 22  1  0
 20 18  1  0
 21 20  2  0
M  END
$$$$
