SVL.pdb
     RDKit          3D

 22 21  0  0  1  0  0  0  0  0999 V2000
    7.0887  -20.4054   22.2773 O   0  0  0  0  0  0  0  0  0  0  0  0
    7.4929  -19.0768   22.3700 C   0  0  0  0  0  0  0  0  0  0  0  0
    7.2311  -18.4414   21.0177 C   0  0  2  0  0  0  0  0  0  0  0  0
    7.7974  -19.2892   19.9879 N   0  0  0  0  0  0  0  0  0  0  0  0
    7.9625  -17.1504   20.9751 C   0  0  0  0  0  0  0  0  0  0  0  0
    9.1826  -17.1496   20.6120 O   0  0  0  0  0  0  0  0  0  0  0  0
    6.8395  -13.7818   19.2776 C   0  0  0  0  0  0  0  0  0  0  0  0
    7.2472  -13.5412   20.7229 C   0  0  2  0  0  0  0  0  0  0  0  0
    7.8601  -12.1732   20.7712 C   0  0  0  0  0  0  0  0  0  0  0  0
    8.1674  -14.6490   21.2033 C   0  0  2  0  0  0  0  0  0  0  0  0
    7.4074  -15.8974   21.3103 N   0  0  0  0  0  0  0  0  0  0  0  0
    8.7450  -14.3998   22.5360 C   0  0  0  0  0  0  0  0  0  0  0  0
    9.5427  -13.4119   22.7013 O   0  0  0  0  0  0  0  0  0  0  0  0
    5.8030  -12.3510   26.7238 C   0  0  0  0  0  0  0  0  0  0  0  0
    7.1260  -12.9874   26.4924 C   0  0  2  0  0  0  0  0  0  0  0  0
    8.2400  -11.9977   26.8530 C   0  0  0  0  0  0  0  0  0  0  0  0
    7.3503  -13.6306   25.1809 C   0  0  0  0  0  0  0  0  0  0  0  0
    8.5025  -14.5470   25.0378 C   0  0  2  0  0  0  0  0  0  0  0  0
    8.5017  -15.1655   23.7056 N   0  0  0  0  0  0  0  0  0  0  0  0
    8.3002  -15.6581   26.0388 C   0  0  0  0  0  0  0  0  0  0  0  0
    8.4095  -15.4653   27.2689 O   0  0  0  0  0  0  0  0  0  0  0  0
    7.9830  -16.9433   25.6222 O   0  0  0  0  0  0  0  0  0  0  0  0
  2  1  1  0
  3  2  1  0
  3  4  1  6
  5  3  1  0
  5  6  2  0
  8  7  1  6
  8 10  1  0
  9  8  1  0
 10 11  1  1
 10 12  1  0
 11  5  1  0
 12 19  1  0
 13 12  2  0
 15 14  1  6
 16 15  1  0
 17 15  1  0
 18 17  1  6
 19 18  1  0
 20 22  1  0
 20 18  1  0
 21 20  2  0
M  END
$$$$
