SVL.pdb
     RDKit          3D

 22 21  0  0  1  0  0  0  0  0999 V2000
    8.5256  -18.9274   22.4497 O   0  0  0  0  0  0  0  0  0  0  0  0
    7.3179  -18.9939   21.7610 C   0  0  0  0  0  0  0  0  0  0  0  0
    7.5520  -18.3661   20.4000 C   0  0  2  0  0  0  0  0  0  0  0  0
    8.4566  -19.2116   19.6471 N   0  0  0  0  0  0  0  0  0  0  0  0
    8.2391  -17.0677   20.6127 C   0  0  0  0  0  0  0  0  0  0  0  0
    9.4980  -17.0046   20.4348 O   0  0  0  0  0  0  0  0  0  0  0  0
    7.0157  -13.6108   19.1424 C   0  0  0  0  0  0  0  0  0  0  0  0
    7.3499  -13.4818   20.6205 C   0  0  2  0  0  0  0  0  0  0  0  0
    7.8929  -12.0974   20.8158 C   0  0  0  0  0  0  0  0  0  0  0  0
    8.3018  -14.5856   21.0449 C   0  0  2  0  0  0  0  0  0  0  0  0
    7.6006  -15.8719   21.0039 N   0  0  0  0  0  0  0  0  0  0  0  0
    8.8067  -14.4324   22.4209 C   0  0  0  0  0  0  0  0  0  0  0  0
    9.6416  -13.4980   22.6843 O   0  0  0  0  0  0  0  0  0  0  0  0
    5.7994  -12.4302   26.6072 C   0  0  0  0  0  0  0  0  0  0  0  0
    7.0820  -13.1487   26.3893 C   0  0  2  0  0  0  0  0  0  0  0  0
    8.2492  -12.2565   26.8275 C   0  0  0  0  0  0  0  0  0  0  0  0
    7.3055  -13.7510   25.0583 C   0  0  0  0  0  0  0  0  0  0  0  0
    8.4326  -14.6951   24.8968 C   0  0  2  0  0  0  0  0  0  0  0  0
    8.4523  -15.2396   23.5328 N   0  0  0  0  0  0  0  0  0  0  0  0
    8.1662  -15.8522   25.8285 C   0  0  0  0  0  0  0  0  0  0  0  0
    8.3864  -15.7741   27.0564 O   0  0  0  0  0  0  0  0  0  0  0  0
    7.6631  -17.0528   25.3477 O   0  0  0  0  0  0  0  0  0  0  0  0
  2  1  1  0
  3  2  1  0
  3  4  1  6
  5  3  1  0
  5  6  2  0
  8  7  1  6
  8 10  1  0
  9  8  1  0
 10 11  1  1
 10 12  1  0
 11  5  1  0
 12 19  1  0
 13 12  2  0
 15 14  1  6
 16 15  1  0
 17 15  1  0
 18 17  1  6
 19 18  1  0
 20 22  1  0
 20 18  1  0
 21 20  2  0
M  END
$$$$
