SVL.pdb
     RDKit          3D

 22 21  0  0  1  0  0  0  0  0999 V2000
   11.8727  -18.9806   21.6690 O   0  0  0  0  0  0  0  0  0  0  0  0
   12.5125  -18.3099   20.6306 C   0  0  0  0  0  0  0  0  0  0  0  0
   11.4417  -17.5491   19.8719 C   0  0  2  0  0  0  0  0  0  0  0  0
   12.0645  -16.8444   18.7694 N   0  0  0  0  0  0  0  0  0  0  0  0
   10.8804  -16.5242   20.7873 C   0  0  0  0  0  0  0  0  0  0  0  0
   11.5118  -15.4297   20.9420 O   0  0  0  0  0  0  0  0  0  0  0  0
    7.3758  -14.9583   20.6746 C   0  0  0  0  0  0  0  0  0  0  0  0
    7.6371  -15.4698   22.0828 C   0  0  2  0  0  0  0  0  0  0  0  0
    6.9271  -14.5338   23.0152 C   0  0  0  0  0  0  0  0  0  0  0  0
    9.1299  -15.5811   22.3356 C   0  0  2  0  0  0  0  0  0  0  0  0
    9.6804  -16.6640   21.5159 N   0  0  0  0  0  0  0  0  0  0  0  0
    9.4691  -15.9051   23.7326 C   0  0  0  0  0  0  0  0  0  0  0  0
    9.7695  -17.1103   24.0439 O   0  0  0  0  0  0  0  0  0  0  0  0
   10.1073  -13.3460   29.4252 C   0  0  0  0  0  0  0  0  0  0  0  0
   10.3414  -14.4686   28.4798 C   0  0  2  0  0  0  0  0  0  0  0  0
   11.7595  -15.0169   28.6776 C   0  0  0  0  0  0  0  0  0  0  0  0
   10.0243  -14.2345   27.0555 C   0  0  0  0  0  0  0  0  0  0  0  0
    9.9370  -15.4051   26.1555 C   0  0  2  0  0  0  0  0  0  0  0  0
    9.5027  -14.9888   24.8156 N   0  0  0  0  0  0  0  0  0  0  0  0
    8.8555  -16.2994   26.7105 C   0  0  0  0  0  0  0  0  0  0  0  0
    9.1173  -17.2586   27.4680 O   0  0  0  0  0  0  0  0  0  0  0  0
    7.5213  -16.0841   26.3949 O   0  0  0  0  0  0  0  0  0  0  0  0
  2  1  1  0
  3  2  1  0
  3  4  1  6
  5  3  1  0
  5  6  2  0
  8  7  1  6
  8 10  1  0
  9  8  1  0
 10 11  1  6
 10 12  1  0
 11  5  1  0
 12 19  1  0
 13 12  2  0
 15 14  1  1
 16 15  1  0
 17 15  1  0
 18 17  1  1
 19 18  1  0
 20 22  1  0
 20 18  1  0
 21 20  2  0
M  END
$$$$
