HND.pdb
     RDKit          3D

 27 27  0  0  1  0  0  0  0  0999 V2000
    9.2819  -15.8146   21.0872 N   0  0  0  0  0  0  0  0  0  0  0  0
    8.8709  -14.5397   21.5863 C   0  0  1  0  0  0  0  0  0  0  0  0
    7.6236  -13.9824   20.9875 C   0  0  0  0  0  0  0  0  0  0  0  0
    7.6707  -13.9249   19.5028 C   0  0  0  0  0  0  0  0  0  0  0  0
    8.1110  -12.8049   18.8266 C   0  0  0  0  0  0  0  0  0  0  0  0
    8.0384  -13.0530   17.4983 N   0  0  0  0  0  0  0  0  0  0  0  0
    7.5630  -14.2991   17.3681 C   0  0  0  0  0  0  0  0  0  0  0  0
    7.3426  -14.8209   18.5791 N   0  0  0  0  0  0  0  0  0  0  0  0
    8.6209  -14.7008   23.0620 C   0  0  0  0  0  0  0  0  0  0  0  0
    8.1275  -13.7512   23.7281 O   0  0  0  0  0  0  0  0  0  0  0  0
    5.6358  -17.7793   24.0065 N   0  0  0  0  0  0  0  0  0  0  0  0
    6.2841  -17.2276   25.1679 C   0  0  0  0  0  0  0  0  0  0  0  0
    6.2141  -17.9751   26.1923 O   0  0  0  0  0  0  0  0  0  0  0  0
    6.9571  -15.9207   25.1467 C   0  0  0  0  0  0  0  0  0  0  0  0
    8.4382  -16.1120   25.0891 C   0  0  2  0  0  0  0  0  0  0  0  0
    8.9251  -15.9034   23.7450 N   0  0  0  0  0  0  0  0  0  0  0  0
    8.8300  -17.4885   25.5722 C   0  0  0  0  0  0  0  0  0  0  0  0
    8.2105  -18.0039   26.5368 O   0  0  0  0  0  0  0  0  0  0  0  0
    9.8847  -18.2207   24.9637 N   0  0  0  0  0  0  0  0  0  0  0  0
   11.2016  -18.2245   25.5125 C   0  0  1  0  0  0  0  0  0  0  0  0
   12.0074  -16.9979   25.1652 C   0  0  0  0  0  0  0  0  0  0  0  0
   13.1030  -17.2798   24.2052 C   0  0  0  0  0  0  0  0  0  0  0  0
   13.4882  -18.4470   24.0017 O   0  0  0  0  0  0  0  0  0  0  0  0
   11.2281  -18.4989   26.9682 C   0  0  0  0  0  0  0  0  0  0  0  0
   12.4356  -18.7329   27.6109 O   0  0  0  0  0  0  0  0  0  0  0  0
   13.7363  -16.2662   23.5026 O   0  0  0  0  0  0  0  0  0  0  0  0
   10.1977  -18.5371   27.6966 O   0  0  0  0  0  0  0  0  0  0  0  0
  2  1  1  6
  2  9  1  0
  3  4  1  0
  3  2  1  0
  4  5  2  0
  4  8  1  0
  5  6  1  0
  6  7  1  0
  8  7  2  0
  9 10  2  0
 11 12  1  0
 12 14  1  0
 13 12  2  0
 15 14  1  6
 15 17  1  0
 16  9  1  0
 16 15  1  0
 17 19  1  0
 17 18  2  0
 19 20  1  0
 20 24  1  0
 20 21  1  1
 22 21  1  0
 23 22  2  0
 24 25  1  0
 26 22  1  0
 27 24  2  0
M  END
$$$$
