HND.pdb
     RDKit          3D

 27 27  0  0  1  0  0  0  0  0999 V2000
   10.6687  -15.3574   17.4889 N   0  0  0  0  0  0  0  0  0  0  0  0
   11.3587  -14.4306   18.3305 C   0  0  1  0  0  0  0  0  0  0  0  0
   10.6328  -14.0140   19.5652 C   0  0  0  0  0  0  0  0  0  0  0  0
    9.3593  -13.3041   19.2753 C   0  0  0  0  0  0  0  0  0  0  0  0
    8.8884  -13.1401   17.9881 C   0  0  0  0  0  0  0  0  0  0  0  0
    7.7191  -12.4614   18.0452 N   0  0  0  0  0  0  0  0  0  0  0  0
    7.4827  -12.2166   19.3412 C   0  0  0  0  0  0  0  0  0  0  0  0
    8.4741  -12.7263   20.0793 N   0  0  0  0  0  0  0  0  0  0  0  0
   12.6355  -15.0962   18.7700 C   0  0  0  0  0  0  0  0  0  0  0  0
   12.7325  -16.3529   18.7545 O   0  0  0  0  0  0  0  0  0  0  0  0
   16.1819  -13.1741   16.6420 N   0  0  0  0  0  0  0  0  0  0  0  0
   16.2302  -14.3253   17.5058 C   0  0  0  0  0  0  0  0  0  0  0  0
   16.3416  -15.4253   16.8810 O   0  0  0  0  0  0  0  0  0  0  0  0
   16.1558  -14.2138   18.9698 C   0  0  0  0  0  0  0  0  0  0  0  0
   15.0059  -15.0184   19.4836 C   0  0  2  0  0  0  0  0  0  0  0  0
   13.7553  -14.3490   19.2094 N   0  0  0  0  0  0  0  0  0  0  0  0
   15.1392  -15.2762   20.9659 C   0  0  0  0  0  0  0  0  0  0  0  0
   15.0707  -14.3117   21.7691 O   0  0  0  0  0  0  0  0  0  0  0  0
   15.3410  -16.5850   21.4805 N   0  0  0  0  0  0  0  0  0  0  0  0
   15.5236  -16.8163   22.8764 C   0  0  1  0  0  0  0  0  0  0  0  0
   15.1022  -18.1936   23.3237 C   0  0  0  0  0  0  0  0  0  0  0  0
   13.6656  -18.4673   23.0737 C   0  0  0  0  0  0  0  0  0  0  0  0
   12.7858  -17.6923   23.4948 O   0  0  0  0  0  0  0  0  0  0  0  0
   16.8868  -16.4831   23.3514 C   0  0  0  0  0  0  0  0  0  0  0  0
   17.8674  -16.1057   22.4448 O   0  0  0  0  0  0  0  0  0  0  0  0
   13.2479  -19.5854   22.3682 O   0  0  0  0  0  0  0  0  0  0  0  0
   17.2382  -16.5170   24.5634 O   0  0  0  0  0  0  0  0  0  0  0  0
  2  1  1  1
  2  9  1  0
  3  4  1  0
  3  2  1  0
  4  5  2  0
  4  8  1  0
  5  6  1  0
  6  7  1  0
  8  7  2  0
  9 10  2  0
 11 12  1  0
 12 14  1  0
 13 12  2  0
 15 14  1  1
 15 17  1  0
 16  9  1  0
 16 15  1  0
 17 19  1  0
 17 18  2  0
 19 20  1  0
 20 24  1  0
 20 21  1  6
 22 21  1  0
 23 22  2  0
 24 25  1  0
 26 22  1  0
 27 24  2  0
M  END
$$$$
