HND.pdb
     RDKit          3D

 27 27  0  0  1  0  0  0  0  0999 V2000
   10.0248  -16.3418   19.4010 N   0  0  0  0  0  0  0  0  0  0  0  0
   10.7158  -16.4043   18.1512 C   0  0  1  0  0  0  0  0  0  0  0  0
   10.2798  -15.4174   17.1213 C   0  0  0  0  0  0  0  0  0  0  0  0
    9.3457  -14.3940   17.6600 C   0  0  0  0  0  0  0  0  0  0  0  0
    9.3151  -14.0628   18.9997 C   0  0  0  0  0  0  0  0  0  0  0  0
    8.3713  -13.1104   19.1819 N   0  0  0  0  0  0  0  0  0  0  0  0
    7.8374  -12.8666   17.9773 C   0  0  0  0  0  0  0  0  0  0  0  0
    8.4278  -13.6427   17.0627 N   0  0  0  0  0  0  0  0  0  0  0  0
   12.1698  -16.1366   18.4345 C   0  0  0  0  0  0  0  0  0  0  0  0
   13.0262  -16.2560   17.5173 O   0  0  0  0  0  0  0  0  0  0  0  0
   14.2567  -13.1901   17.4975 N   0  0  0  0  0  0  0  0  0  0  0  0
   14.9935  -13.8173   18.5639 C   0  0  0  0  0  0  0  0  0  0  0  0
   16.1966  -14.0878   18.2600 O   0  0  0  0  0  0  0  0  0  0  0  0
   14.3897  -14.1076   19.8726 C   0  0  0  0  0  0  0  0  0  0  0  0
   14.0339  -15.5566   19.9586 C   0  0  2  0  0  0  0  0  0  0  0  0
   12.6221  -15.7477   19.7188 N   0  0  0  0  0  0  0  0  0  0  0  0
   14.4118  -16.1326   21.3028 C   0  0  0  0  0  0  0  0  0  0  0  0
   13.6008  -16.0509   22.2597 O   0  0  0  0  0  0  0  0  0  0  0  0
   15.6648  -16.7672   21.5171 N   0  0  0  0  0  0  0  0  0  0  0  0
   16.0129  -17.3182   22.7862 C   0  0  1  0  0  0  0  0  0  0  0  0
   16.4322  -18.7656   22.7251 C   0  0  0  0  0  0  0  0  0  0  0  0
   15.3362  -19.6662   22.2906 C   0  0  0  0  0  0  0  0  0  0  0  0
   15.2078  -19.9829   21.0925 O   0  0  0  0  0  0  0  0  0  0  0  0
   16.9965  -16.4976   23.5305 C   0  0  0  0  0  0  0  0  0  0  0  0
   17.3041  -16.8043   24.8485 O   0  0  0  0  0  0  0  0  0  0  0  0
   14.4194  -20.1869   23.1909 O   0  0  0  0  0  0  0  0  0  0  0  0
   17.5996  -15.5033   23.0392 O   0  0  0  0  0  0  0  0  0  0  0  0
  2  1  1  1
  2  9  1  0
  3  4  1  0
  3  2  1  0
  4  5  2  0
  4  8  1  0
  5  6  1  0
  6  7  1  0
  8  7  2  0
  9 10  2  0
 11 12  1  0
 12 14  1  0
 13 12  2  0
 15 14  1  1
 15 17  1  0
 16  9  1  0
 16 15  1  0
 17 19  1  0
 17 18  2  0
 19 20  1  0
 20 24  1  0
 20 21  1  6
 22 21  1  0
 23 22  2  0
 24 25  1  0
 26 22  1  0
 27 24  2  0
M  END
$$$$
