HND.pdb
     RDKit          3D

 27 27  0  0  1  0  0  0  0  0999 V2000
   10.3331  -16.3166   15.6576 N   0  0  0  0  0  0  0  0  0  0  0  0
   10.1430  -15.3872   16.7270 C   0  0  1  0  0  0  0  0  0  0  0  0
    8.8037  -15.4211   17.3827 C   0  0  0  0  0  0  0  0  0  0  0  0
    8.6375  -14.3625   18.4130 C   0  0  0  0  0  0  0  0  0  0  0  0
    9.6085  -13.4099   18.6481 C   0  0  0  0  0  0  0  0  0  0  0  0
    9.1731  -12.5916   19.6339 N   0  0  0  0  0  0  0  0  0  0  0  0
    7.9612  -13.0372   19.9925 C   0  0  0  0  0  0  0  0  0  0  0  0
    7.6424  -14.1050   19.2539 N   0  0  0  0  0  0  0  0  0  0  0  0
   11.1632  -15.7136   17.7848 C   0  0  0  0  0  0  0  0  0  0  0  0
   11.3946  -16.9139   18.0926 O   0  0  0  0  0  0  0  0  0  0  0  0
   15.0456  -13.4572   17.1347 N   0  0  0  0  0  0  0  0  0  0  0  0
   14.9354  -14.3333   18.2721 C   0  0  0  0  0  0  0  0  0  0  0  0
   15.6950  -15.3490   18.2069 O   0  0  0  0  0  0  0  0  0  0  0  0
   14.0229  -14.0581   19.3915 C   0  0  0  0  0  0  0  0  0  0  0  0
   12.9186  -15.0650   19.4071 C   0  0  2  0  0  0  0  0  0  0  0  0
   11.8879  -14.7028   18.4617 N   0  0  0  0  0  0  0  0  0  0  0  0
   12.3255  -15.2033   20.7894 C   0  0  0  0  0  0  0  0  0  0  0  0
   11.2586  -14.5995   21.0668 O   0  0  0  0  0  0  0  0  0  0  0  0
   12.9432  -16.0008   21.7900 N   0  0  0  0  0  0  0  0  0  0  0  0
   12.2963  -16.2686   23.0330 C   0  0  1  0  0  0  0  0  0  0  0  0
   10.8718  -16.7417   22.8864 C   0  0  0  0  0  0  0  0  0  0  0  0
   10.2408  -17.0840   24.1848 C   0  0  0  0  0  0  0  0  0  0  0  0
   10.3021  -16.2993   25.1505 O   0  0  0  0  0  0  0  0  0  0  0  0
   13.0781  -17.1623   23.9189 C   0  0  0  0  0  0  0  0  0  0  0  0
   12.7461  -17.2765   25.2615 O   0  0  0  0  0  0  0  0  0  0  0  0
    9.5640  -18.2791   24.3745 O   0  0  0  0  0  0  0  0  0  0  0  0
   14.0602  -17.8547   23.5317 O   0  0  0  0  0  0  0  0  0  0  0  0
  2  1  1  6
  2  9  1  0
  3  4  1  0
  3  2  1  0
  4  5  2  0
  4  8  1  0
  5  6  1  0
  6  7  1  0
  8  7  2  0
  9 10  2  0
 11 12  1  0
 12 14  1  0
 13 12  2  0
 15 14  1  1
 15 17  1  0
 16  9  1  0
 16 15  1  0
 17 19  1  0
 17 18  2  0
 19 20  1  0
 20 24  1  0
 20 21  1  6
 22 21  1  0
 23 22  2  0
 24 25  1  0
 26 22  1  0
 27 24  2  0
M  END
$$$$
