HND.pdb
     RDKit          3D

 27 27  0  0  1  0  0  0  0  0999 V2000
    8.8529  -20.1369   16.1159 N   0  0  0  0  0  0  0  0  0  0  0  0
    9.4758  -18.8731   16.3573 C   0  0  1  0  0  0  0  0  0  0  0  0
    8.8256  -17.6975   15.7092 C   0  0  0  0  0  0  0  0  0  0  0  0
    8.6727  -17.8589   14.2394 C   0  0  0  0  0  0  0  0  0  0  0  0
    9.7159  -17.6307   13.3647 C   0  0  0  0  0  0  0  0  0  0  0  0
    9.2744  -17.8578   12.1059 N   0  0  0  0  0  0  0  0  0  0  0  0
    7.9876  -18.2167   12.2117 C   0  0  0  0  0  0  0  0  0  0  0  0
    7.6291  -18.2159   13.4997 N   0  0  0  0  0  0  0  0  0  0  0  0
    9.4385  -18.6370   17.8436 C   0  0  0  0  0  0  0  0  0  0  0  0
    9.9786  -17.6097   18.3355 O   0  0  0  0  0  0  0  0  0  0  0  0
    7.4229  -20.6250   23.2623 N   0  0  0  0  0  0  0  0  0  0  0  0
    7.8526  -19.6338   22.3102 C   0  0  0  0  0  0  0  0  0  0  0  0
    8.3664  -18.6033   22.8460 O   0  0  0  0  0  0  0  0  0  0  0  0
    7.7008  -19.8186   20.8597 C   0  0  0  0  0  0  0  0  0  0  0  0
    8.9405  -19.3684   20.1569 C   0  0  2  0  0  0  0  0  0  0  0  0
    8.8068  -19.5438   18.7291 N   0  0  0  0  0  0  0  0  0  0  0  0
   10.1538  -20.1161   20.6574 C   0  0  0  0  0  0  0  0  0  0  0  0
   10.4585  -21.2183   20.1356 O   0  0  0  0  0  0  0  0  0  0  0  0
   10.9641  -19.6060   21.7070 N   0  0  0  0  0  0  0  0  0  0  0  0
   12.1869  -20.2400   22.0789 C   0  0  1  0  0  0  0  0  0  0  0  0
   13.3371  -19.9302   21.1538 C   0  0  0  0  0  0  0  0  0  0  0  0
   14.6109  -20.5553   21.5872 C   0  0  0  0  0  0  0  0  0  0  0  0
   14.7914  -21.7825   21.4706 O   0  0  0  0  0  0  0  0  0  0  0  0
   12.5538  -20.0174   23.4968 C   0  0  0  0  0  0  0  0  0  0  0  0
   11.8049  -19.1528   24.2826 O   0  0  0  0  0  0  0  0  0  0  0  0
   15.6419  -19.8069   22.1341 O   0  0  0  0  0  0  0  0  0  0  0  0
   13.5322  -20.5754   24.0672 O   0  0  0  0  0  0  0  0  0  0  0  0
  2  1  1  1
  2  9  1  0
  3  4  1  0
  3  2  1  0
  4  5  2  0
  4  8  1  0
  5  6  1  0
  6  7  1  0
  8  7  2  0
  9 10  2  0
 11 12  1  0
 12 14  1  0
 13 12  2  0
 15 14  1  1
 15 17  1  0
 16  9  1  0
 16 15  1  0
 17 19  1  0
 17 18  2  0
 19 20  1  0
 20 24  1  0
 20 21  1  6
 22 21  1  0
 23 22  2  0
 24 25  1  0
 26 22  1  0
 27 24  2  0
M  END
$$$$
