HND.pdb
     RDKit          3D

 27 27  0  0  1  0  0  0  0  0999 V2000
   10.0909  -15.8017   16.4942 N   0  0  0  0  0  0  0  0  0  0  0  0
   10.6050  -14.9724   17.5389 C   0  0  1  0  0  0  0  0  0  0  0  0
    9.9094  -15.0830   18.8537 C   0  0  0  0  0  0  0  0  0  0  0  0
    8.7299  -14.1846   18.9611 C   0  0  0  0  0  0  0  0  0  0  0  0
    8.2893  -13.4234   17.8972 C   0  0  0  0  0  0  0  0  0  0  0  0
    7.2076  -12.7161   18.2981 N   0  0  0  0  0  0  0  0  0  0  0  0
    6.9937  -13.0399   19.5807 C   0  0  0  0  0  0  0  0  0  0  0  0
    7.9138  -13.9255   19.9763 N   0  0  0  0  0  0  0  0  0  0  0  0
   12.0385  -15.3752   17.7602 C   0  0  0  0  0  0  0  0  0  0  0  0
   12.4063  -16.5589   17.5309 O   0  0  0  0  0  0  0  0  0  0  0  0
   17.2908  -15.2090   16.9235 N   0  0  0  0  0  0  0  0  0  0  0  0
   16.6998  -14.3284   17.8975 C   0  0  0  0  0  0  0  0  0  0  0  0
   17.4904  -14.0070   18.8381 O   0  0  0  0  0  0  0  0  0  0  0  0
   15.3107  -13.8586   17.7929 C   0  0  0  0  0  0  0  0  0  0  0  0
   14.3843  -14.8752   18.3775 C   0  0  2  0  0  0  0  0  0  0  0  0
   13.0100  -14.4563   18.2260 N   0  0  0  0  0  0  0  0  0  0  0  0
   14.6918  -15.1190   19.8361 C   0  0  0  0  0  0  0  0  0  0  0  0
   14.4244  -14.2275   20.6810 O   0  0  0  0  0  0  0  0  0  0  0  0
   15.2780  -16.3339   20.2822 N   0  0  0  0  0  0  0  0  0  0  0  0
   15.5622  -16.5609   21.6617 C   0  0  1  0  0  0  0  0  0  0  0  0
   15.3868  -17.9966   22.0893 C   0  0  0  0  0  0  0  0  0  0  0  0
   13.9705  -18.4375   22.0635 C   0  0  0  0  0  0  0  0  0  0  0  0
   13.0596  -17.6810   22.4510 O   0  0  0  0  0  0  0  0  0  0  0  0
   16.8766  -16.0239   22.0845 C   0  0  0  0  0  0  0  0  0  0  0  0
   17.7545  -15.5085   21.1412 O   0  0  0  0  0  0  0  0  0  0  0  0
   13.6064  -19.6967   21.6116 O   0  0  0  0  0  0  0  0  0  0  0  0
   17.2745  -15.9975   23.2823 O   0  0  0  0  0  0  0  0  0  0  0  0
  2  1  1  6
  2  9  1  0
  3  4  1  0
  3  2  1  0
  4  5  2  0
  4  8  1  0
  5  6  1  0
  6  7  1  0
  8  7  2  0
  9 10  2  0
 11 12  1  0
 12 14  1  0
 13 12  2  0
 15 14  1  1
 15 17  1  0
 16  9  1  0
 16 15  1  0
 17 19  1  0
 17 18  2  0
 19 20  1  0
 20 24  1  0
 20 21  1  6
 22 21  1  0
 23 22  2  0
 24 25  1  0
 26 22  1  0
 27 24  2  0
M  END
$$$$
