HND.pdb
     RDKit          3D

 27 27  0  0  1  0  0  0  0  0999 V2000
    8.6165  -16.2456   19.6763 N   0  0  0  0  0  0  0  0  0  0  0  0
    9.5287  -15.2616   20.1693 C   0  0  1  0  0  0  0  0  0  0  0  0
    9.2237  -13.8509   19.7927 C   0  0  0  0  0  0  0  0  0  0  0  0
    8.9865  -13.6800   18.3352 C   0  0  0  0  0  0  0  0  0  0  0  0
    8.1353  -12.7128   17.8399 C   0  0  0  0  0  0  0  0  0  0  0  0
    8.1266  -12.8034   16.4898 N   0  0  0  0  0  0  0  0  0  0  0  0
    8.9558  -13.8061   16.1692 C   0  0  0  0  0  0  0  0  0  0  0  0
    9.4719  -14.3317   17.2848 N   0  0  0  0  0  0  0  0  0  0  0  0
    9.4928  -15.3371   21.6724 C   0  0  0  0  0  0  0  0  0  0  0  0
   10.1204  -14.4906   22.3642 O   0  0  0  0  0  0  0  0  0  0  0  0
    6.4275  -14.9284   23.0136 N   0  0  0  0  0  0  0  0  0  0  0  0
    6.4796  -16.2800   23.5075 C   0  0  0  0  0  0  0  0  0  0  0  0
    5.5229  -17.0080   23.0980 O   0  0  0  0  0  0  0  0  0  0  0  0
    7.5485  -16.7506   24.4004 C   0  0  0  0  0  0  0  0  0  0  0  0
    8.8829  -16.4719   23.7876 C   0  0  2  0  0  0  0  0  0  0  0  0
    8.7660  -16.3437   22.3533 N   0  0  0  0  0  0  0  0  0  0  0  0
    9.8777  -17.5559   24.1296 C   0  0  0  0  0  0  0  0  0  0  0  0
    9.6892  -18.7235   23.7041 O   0  0  0  0  0  0  0  0  0  0  0  0
   11.0262  -17.2913   24.9230 N   0  0  0  0  0  0  0  0  0  0  0  0
   11.3674  -18.1148   26.0369 C   0  0  1  0  0  0  0  0  0  0  0  0
   10.3912  -18.0211   27.1826 C   0  0  0  0  0  0  0  0  0  0  0  0
   10.7151  -18.9489   28.2942 C   0  0  0  0  0  0  0  0  0  0  0  0
   11.7950  -19.5698   28.3128 O   0  0  0  0  0  0  0  0  0  0  0  0
   11.6344  -19.5234   25.6632 C   0  0  0  0  0  0  0  0  0  0  0  0
   12.9241  -20.0306   25.7350 O   0  0  0  0  0  0  0  0  0  0  0  0
    9.8381  -19.1605   29.3470 O   0  0  0  0  0  0  0  0  0  0  0  0
   10.7450  -20.3284   25.2699 O   0  0  0  0  0  0  0  0  0  0  0  0
  2  1  1  6
  2  9  1  0
  3  4  1  0
  3  2  1  0
  4  5  2  0
  4  8  1  0
  5  6  1  0
  6  7  1  0
  8  7  2  0
  9 10  2  0
 11 12  1  0
 12 14  1  0
 13 12  2  0
 15 14  1  6
 15 17  1  0
 16  9  1  0
 16 15  1  0
 17 19  1  0
 17 18  2  0
 19 20  1  0
 20 24  1  0
 20 21  1  1
 22 21  1  0
 23 22  2  0
 24 25  1  0
 26 22  1  0
 27 24  2  0
M  END
$$$$
