HND.pdb
     RDKit          3D

 27 27  0  0  1  0  0  0  0  0999 V2000
    8.2870  -14.8078   17.4618 N   0  0  0  0  0  0  0  0  0  0  0  0
    9.3261  -13.8383   17.6149 C   0  0  1  0  0  0  0  0  0  0  0  0
    9.0158  -12.6957   18.5221 C   0  0  0  0  0  0  0  0  0  0  0  0
    8.3597  -13.1225   19.7859 C   0  0  0  0  0  0  0  0  0  0  0  0
    8.0760  -14.4467   20.0532 C   0  0  0  0  0  0  0  0  0  0  0  0
    7.4849  -14.5191   21.2683 N   0  0  0  0  0  0  0  0  0  0  0  0
    7.4097  -13.2640   21.7317 C   0  0  0  0  0  0  0  0  0  0  0  0
    7.9382  -12.4252   20.8347 N   0  0  0  0  0  0  0  0  0  0  0  0
   10.5179  -14.5531   18.1938 C   0  0  0  0  0  0  0  0  0  0  0  0
   10.3750  -15.6761   18.7483 O   0  0  0  0  0  0  0  0  0  0  0  0
   16.5609  -14.6881   18.7114 N   0  0  0  0  0  0  0  0  0  0  0  0
   15.3297  -15.1931   18.1611 C   0  0  0  0  0  0  0  0  0  0  0  0
   15.3267  -16.4519   17.9929 O   0  0  0  0  0  0  0  0  0  0  0  0
   14.1966  -14.3158   17.8326 C   0  0  0  0  0  0  0  0  0  0  0  0
   12.9606  -14.8034   18.5168 C   0  0  2  0  0  0  0  0  0  0  0  0
   11.8206  -14.0008   18.1382 N   0  0  0  0  0  0  0  0  0  0  0  0
   13.1261  -14.7893   20.0181 C   0  0  0  0  0  0  0  0  0  0  0  0
   13.3918  -13.7073   20.5999 O   0  0  0  0  0  0  0  0  0  0  0  0
   12.9892  -15.9710   20.7951 N   0  0  0  0  0  0  0  0  0  0  0  0
   13.2202  -15.9672   22.2029 C   0  0  1  0  0  0  0  0  0  0  0  0
   12.0410  -16.4450   23.0128 C   0  0  0  0  0  0  0  0  0  0  0  0
   11.6834  -17.8576   22.7335 C   0  0  0  0  0  0  0  0  0  0  0  0
   11.9518  -18.3783   21.6340 O   0  0  0  0  0  0  0  0  0  0  0  0
   14.4672  -16.6656   22.5931 C   0  0  0  0  0  0  0  0  0  0  0  0
   14.9155  -16.6095   23.9052 O   0  0  0  0  0  0  0  0  0  0  0  0
   11.0424  -18.6478   23.6754 O   0  0  0  0  0  0  0  0  0  0  0  0
   15.1801  -17.3337   21.7935 O   0  0  0  0  0  0  0  0  0  0  0  0
  2  1  1  1
  2  9  1  0
  3  4  1  0
  3  2  1  0
  4  5  2  0
  4  8  1  0
  5  6  1  0
  6  7  1  0
  8  7  2  0
  9 10  2  0
 11 12  1  0
 12 14  1  0
 13 12  2  0
 15 14  1  6
 15 17  1  0
 16  9  1  0
 16 15  1  0
 17 19  1  0
 17 18  2  0
 19 20  1  0
 20 24  1  0
 20 21  1  1
 22 21  1  0
 23 22  2  0
 24 25  1  0
 26 22  1  0
 27 24  2  0
M  END
$$$$
