HND.pdb
     RDKit          3D

 27 27  0  0  1  0  0  0  0  0999 V2000
    8.0822  -13.5860   16.0834 N   0  0  0  0  0  0  0  0  0  0  0  0
    8.6108  -14.8437   16.5102 C   0  0  1  0  0  0  0  0  0  0  0  0
    9.7746  -15.3543   15.7295 C   0  0  0  0  0  0  0  0  0  0  0  0
    9.6344  -15.1270   14.2672 C   0  0  0  0  0  0  0  0  0  0  0  0
    8.4313  -15.2948   13.6116 C   0  0  0  0  0  0  0  0  0  0  0  0
    8.6178  -15.0171   12.3005 N   0  0  0  0  0  0  0  0  0  0  0  0
    9.9089  -14.6870   12.1601 C   0  0  0  0  0  0  0  0  0  0  0  0
   10.5181  -14.7547   13.3483 N   0  0  0  0  0  0  0  0  0  0  0  0
    9.0723  -14.6711   17.9327 C   0  0  0  0  0  0  0  0  0  0  0  0
   10.1237  -14.0225   18.1831 O   0  0  0  0  0  0  0  0  0  0  0  0
    7.1541  -12.9820   20.3580 N   0  0  0  0  0  0  0  0  0  0  0  0
    6.8958  -14.0752   21.2590 C   0  0  0  0  0  0  0  0  0  0  0  0
    5.8263  -13.9389   21.9302 O   0  0  0  0  0  0  0  0  0  0  0  0
    7.7988  -15.2296   21.3744 C   0  0  0  0  0  0  0  0  0  0  0  0
    8.8922  -15.1236   20.3610 C   0  0  2  0  0  0  0  0  0  0  0  0
    8.3556  -15.2210   19.0232 N   0  0  0  0  0  0  0  0  0  0  0  0
    9.9404  -16.1898   20.5756 C   0  0  0  0  0  0  0  0  0  0  0  0
   10.1439  -17.0454   19.6774 O   0  0  0  0  0  0  0  0  0  0  0  0
   10.7067  -16.2532   21.7703 N   0  0  0  0  0  0  0  0  0  0  0  0
   12.0357  -16.7720   21.7757 C   0  0  1  0  0  0  0  0  0  0  0  0
   12.9209  -16.1848   20.7050 C   0  0  0  0  0  0  0  0  0  0  0  0
   14.2966  -16.7401   20.7249 C   0  0  0  0  0  0  0  0  0  0  0  0
   14.6052  -17.6518   21.5159 O   0  0  0  0  0  0  0  0  0  0  0  0
   12.6812  -16.7136   23.1079 C   0  0  0  0  0  0  0  0  0  0  0  0
   13.4125  -17.7964   23.5756 O   0  0  0  0  0  0  0  0  0  0  0  0
   15.2848  -16.2718   19.8726 O   0  0  0  0  0  0  0  0  0  0  0  0
   12.6151  -15.7167   23.8796 O   0  0  0  0  0  0  0  0  0  0  0  0
  2  1  1  6
  2  9  1  0
  3  4  1  0
  3  2  1  0
  4  5  2  0
  4  8  1  0
  5  6  1  0
  6  7  1  0
  8  7  2  0
  9 10  2  0
 11 12  1  0
 12 14  1  0
 13 12  2  0
 15 14  1  1
 15 17  1  0
 16  9  1  0
 16 15  1  0
 17 19  1  0
 17 18  2  0
 19 20  1  0
 20 24  1  0
 20 21  1  6
 22 21  1  0
 23 22  2  0
 24 25  1  0
 26 22  1  0
 27 24  2  0
M  END
$$$$
