HND.pdb
     RDKit          3D

 27 27  0  0  1  0  0  0  0  0999 V2000
   13.4862  -14.2234   18.0418 N   0  0  0  0  0  0  0  0  0  0  0  0
   12.1167  -14.6254   17.9623 C   0  0  1  0  0  0  0  0  0  0  0  0
   11.8822  -16.0550   17.6071 C   0  0  0  0  0  0  0  0  0  0  0  0
   11.6973  -16.2652   16.1471 C   0  0  0  0  0  0  0  0  0  0  0  0
   10.4979  -16.0043   15.5154 C   0  0  0  0  0  0  0  0  0  0  0  0
   10.6379  -16.2900   14.2002 N   0  0  0  0  0  0  0  0  0  0  0  0
   11.8973  -16.7167   14.0341 C   0  0  0  0  0  0  0  0  0  0  0  0
   12.5323  -16.7002   15.2105 N   0  0  0  0  0  0  0  0  0  0  0  0
   11.5088  -14.4005   19.3210 C   0  0  0  0  0  0  0  0  0  0  0  0
   12.2138  -13.9488   20.2633 O   0  0  0  0  0  0  0  0  0  0  0  0
    7.3601  -12.6276   18.8305 N   0  0  0  0  0  0  0  0  0  0  0  0
    8.0087  -12.7559   20.1097 C   0  0  0  0  0  0  0  0  0  0  0  0
    8.4359  -11.6544   20.5758 O   0  0  0  0  0  0  0  0  0  0  0  0
    8.1514  -14.0497   20.7930 C   0  0  0  0  0  0  0  0  0  0  0  0
    9.5971  -14.4143   20.8955 C   0  0  2  0  0  0  0  0  0  0  0  0
   10.1469  -14.6829   19.5868 N   0  0  0  0  0  0  0  0  0  0  0  0
    9.7957  -15.6118   21.7945 C   0  0  0  0  0  0  0  0  0  0  0  0
    9.3762  -15.5712   22.9787 O   0  0  0  0  0  0  0  0  0  0  0  0
   10.4468  -16.7887   21.3368 N   0  0  0  0  0  0  0  0  0  0  0  0
   11.0594  -17.7020   22.2456 C   0  0  1  0  0  0  0  0  0  0  0  0
   12.3685  -18.2644   21.7509 C   0  0  0  0  0  0  0  0  0  0  0  0
   12.2240  -19.0468   20.4986 C   0  0  0  0  0  0  0  0  0  0  0  0
   11.1450  -19.6002   20.2130 O   0  0  0  0  0  0  0  0  0  0  0  0
   11.1828  -17.1649   23.6208 C   0  0  0  0  0  0  0  0  0  0  0  0
   11.6525  -17.9747   24.6452 O   0  0  0  0  0  0  0  0  0  0  0  0
   13.2733  -19.1925   19.6042 O   0  0  0  0  0  0  0  0  0  0  0  0
   10.8827  -15.9822   23.9446 O   0  0  0  0  0  0  0  0  0  0  0  0
  2  1  1  1
  2  9  1  0
  3  4  1  0
  3  2  1  0
  4  5  2  0
  4  8  1  0
  5  6  1  0
  6  7  1  0
  8  7  2  0
  9 10  2  0
 11 12  1  0
 12 14  1  0
 13 12  2  0
 15 14  1  6
 15 17  1  0
 16  9  1  0
 16 15  1  0
 17 19  1  0
 17 18  2  0
 19 20  1  0
 20 24  1  0
 20 21  1  6
 22 21  1  0
 23 22  2  0
 24 25  1  0
 26 22  1  0
 27 24  2  0
M  END
$$$$
