HND.pdb
     RDKit          3D

 27 27  0  0  1  0  0  0  0  0999 V2000
   10.4888  -16.2222   18.6196 N   0  0  0  0  0  0  0  0  0  0  0  0
   11.4289  -15.2512   19.0850 C   0  0  1  0  0  0  0  0  0  0  0  0
   11.2688  -13.8770   18.5274 C   0  0  0  0  0  0  0  0  0  0  0  0
    9.8482  -13.5153   18.2802 C   0  0  0  0  0  0  0  0  0  0  0  0
    9.1132  -12.7736   19.1831 C   0  0  0  0  0  0  0  0  0  0  0  0
    7.8665  -12.6079   18.6839 N   0  0  0  0  0  0  0  0  0  0  0  0
    7.8424  -13.2365   17.5007 C   0  0  0  0  0  0  0  0  0  0  0  0
    9.0393  -13.7822   17.2614 N   0  0  0  0  0  0  0  0  0  0  0  0
   11.2572  -15.1472   20.5770 C   0  0  0  0  0  0  0  0  0  0  0  0
   11.9633  -14.3414   21.2411 O   0  0  0  0  0  0  0  0  0  0  0  0
   10.0073  -15.3792   25.4212 N   0  0  0  0  0  0  0  0  0  0  0  0
    8.8085  -15.4429   24.6260 C   0  0  0  0  0  0  0  0  0  0  0  0
    7.7427  -15.2918   25.3000 O   0  0  0  0  0  0  0  0  0  0  0  0
    8.8394  -15.6629   23.1727 C   0  0  0  0  0  0  0  0  0  0  0  0
   10.2481  -15.8718   22.7195 C   0  0  2  0  0  0  0  0  0  0  0  0
   10.3133  -15.9365   21.2777 N   0  0  0  0  0  0  0  0  0  0  0  0
   10.8340  -17.1280   23.3197 C   0  0  0  0  0  0  0  0  0  0  0  0
   10.2315  -18.2214   23.1733 O   0  0  0  0  0  0  0  0  0  0  0  0
   12.0533  -17.1083   24.0488 N   0  0  0  0  0  0  0  0  0  0  0  0
   12.5852  -18.2917   24.6421 C   0  0  1  0  0  0  0  0  0  0  0  0
   13.9997  -18.1370   25.1421 C   0  0  0  0  0  0  0  0  0  0  0  0
   14.5623  -19.3993   25.6818 C   0  0  0  0  0  0  0  0  0  0  0  0
   14.5310  -20.4494   25.0121 O   0  0  0  0  0  0  0  0  0  0  0  0
   11.7020  -18.8742   25.6791 C   0  0  0  0  0  0  0  0  0  0  0  0
   11.2183  -20.1670   25.5360 O   0  0  0  0  0  0  0  0  0  0  0  0
   15.1402  -19.4611   26.9405 O   0  0  0  0  0  0  0  0  0  0  0  0
   11.3424  -18.2619   26.7229 O   0  0  0  0  0  0  0  0  0  0  0  0
  2  1  1  6
  2  9  1  0
  3  4  1  0
  3  2  1  0
  4  5  2  0
  4  8  1  0
  5  6  1  0
  6  7  1  0
  8  7  2  0
  9 10  2  0
 11 12  1  0
 12 14  1  0
 13 12  2  0
 15 14  1  6
 15 17  1  0
 16  9  1  0
 16 15  1  0
 17 19  1  0
 17 18  2  0
 19 20  1  0
 20 24  1  0
 20 21  1  1
 22 21  1  0
 23 22  2  0
 24 25  1  0
 26 22  1  0
 27 24  2  0
M  END
$$$$
