HND.pdb
     RDKit          3D

 27 27  0  0  1  0  0  0  0  0999 V2000
    9.6688  -16.8093   17.0449 N   0  0  0  0  0  0  0  0  0  0  0  0
    8.3506  -17.0782   17.5283 C   0  0  1  0  0  0  0  0  0  0  0  0
    7.6234  -18.1849   16.8417 C   0  0  0  0  0  0  0  0  0  0  0  0
    7.9116  -18.2497   15.3848 C   0  0  0  0  0  0  0  0  0  0  0  0
    8.3187  -17.1422   14.6685 C   0  0  0  0  0  0  0  0  0  0  0  0
    8.5010  -17.5116   13.3795 N   0  0  0  0  0  0  0  0  0  0  0  0
    8.2104  -18.8180   13.3120 C   0  0  0  0  0  0  0  0  0  0  0  0
    7.8554  -19.2588   14.5233 N   0  0  0  0  0  0  0  0  0  0  0  0
    8.4799  -17.4643   18.9775 C   0  0  0  0  0  0  0  0  0  0  0  0
    7.4535  -17.7533   19.6499 O   0  0  0  0  0  0  0  0  0  0  0  0
    9.1528  -20.5751   23.4008 N   0  0  0  0  0  0  0  0  0  0  0  0
    8.8423  -19.3637   22.6869 C   0  0  0  0  0  0  0  0  0  0  0  0
    8.3010  -18.4716   23.4109 O   0  0  0  0  0  0  0  0  0  0  0  0
    9.1331  -19.1977   21.2554 C   0  0  0  0  0  0  0  0  0  0  0  0
    9.8113  -17.8864   21.0228 C   0  0  2  0  0  0  0  0  0  0  0  0
    9.7365  -17.5165   19.6282 N   0  0  0  0  0  0  0  0  0  0  0  0
   11.2540  -17.9314   21.4681 C   0  0  0  0  0  0  0  0  0  0  0  0
   11.7194  -18.9963   21.9471 O   0  0  0  0  0  0  0  0  0  0  0  0
   12.1039  -16.7980   21.3604 N   0  0  0  0  0  0  0  0  0  0  0  0
   13.4206  -16.7999   21.9098 C   0  0  1  0  0  0  0  0  0  0  0  0
   14.2658  -15.6330   21.4642 C   0  0  0  0  0  0  0  0  0  0  0  0
   15.6705  -15.7256   21.9327 C   0  0  0  0  0  0  0  0  0  0  0  0
   16.4405  -16.5908   21.4735 O   0  0  0  0  0  0  0  0  0  0  0  0
   13.4397  -16.9545   23.3830 C   0  0  0  0  0  0  0  0  0  0  0  0
   14.4397  -17.6993   23.9923 O   0  0  0  0  0  0  0  0  0  0  0  0
   16.1785  -14.8618   22.8909 O   0  0  0  0  0  0  0  0  0  0  0  0
   12.5841  -16.4410   24.1563 O   0  0  0  0  0  0  0  0  0  0  0  0
  2  1  1  6
  2  9  1  0
  3  4  1  0
  3  2  1  0
  4  5  2  0
  4  8  1  0
  5  6  1  0
  6  7  1  0
  8  7  2  0
  9 10  2  0
 11 12  1  0
 12 14  1  0
 13 12  2  0
 15 14  1  6
 15 17  1  0
 16  9  1  0
 16 15  1  0
 17 19  1  0
 17 18  2  0
 19 20  1  0
 20 24  1  0
 20 21  1  1
 22 21  1  0
 23 22  2  0
 24 25  1  0
 26 22  1  0
 27 24  2  0
M  END
$$$$
