HND.pdb
     RDKit          3D

 27 27  0  0  1  0  0  0  0  0999 V2000
    7.5081  -13.9417   22.7617 N   0  0  0  0  0  0  0  0  0  0  0  0
    8.0734  -15.1221   22.1868 C   0  0  1  0  0  0  0  0  0  0  0  0
    9.0866  -14.8980   21.1152 C   0  0  0  0  0  0  0  0  0  0  0  0
    8.5153  -14.2489   19.9060 C   0  0  0  0  0  0  0  0  0  0  0  0
    8.6603  -12.8981   19.6618 C   0  0  0  0  0  0  0  0  0  0  0  0
    8.0382  -12.6064   18.4960 N   0  0  0  0  0  0  0  0  0  0  0  0
    7.5243  -13.7567   18.0394 C   0  0  0  0  0  0  0  0  0  0  0  0
    7.8142  -14.7443   18.8927 N   0  0  0  0  0  0  0  0  0  0  0  0
    8.7606  -15.8710   23.2973 C   0  0  0  0  0  0  0  0  0  0  0  0
    8.9590  -15.3124   24.4097 O   0  0  0  0  0  0  0  0  0  0  0  0
    9.8295  -19.4210   21.9443 N   0  0  0  0  0  0  0  0  0  0  0  0
    9.2278  -19.9744   23.1297 C   0  0  0  0  0  0  0  0  0  0  0  0
    8.7188  -21.1243   22.9520 O   0  0  0  0  0  0  0  0  0  0  0  0
    9.2157  -19.2581   24.4135 C   0  0  0  0  0  0  0  0  0  0  0  0
    9.8175  -17.9006   24.2445 C   0  0  2  0  0  0  0  0  0  0  0  0
    9.2021  -17.2068   23.1367 N   0  0  0  0  0  0  0  0  0  0  0  0
   11.3107  -17.9880   24.0335 C   0  0  0  0  0  0  0  0  0  0  0  0
   12.0154  -18.6188   24.8613 O   0  0  0  0  0  0  0  0  0  0  0  0
   11.9441  -17.3738   22.9198 N   0  0  0  0  0  0  0  0  0  0  0  0
   13.3461  -17.1101   22.9129 C   0  0  1  0  0  0  0  0  0  0  0  0
   13.7457  -15.9750   22.0038 C   0  0  0  0  0  0  0  0  0  0  0  0
   15.2131  -15.7603   21.9594 C   0  0  0  0  0  0  0  0  0  0  0  0
   15.9819  -16.4649   22.6411 O   0  0  0  0  0  0  0  0  0  0  0  0
   13.9177  -16.9475   24.2700 C   0  0  0  0  0  0  0  0  0  0  0  0
   15.2354  -17.3050   24.5182 O   0  0  0  0  0  0  0  0  0  0  0  0
   15.7829  -14.7769   21.1654 O   0  0  0  0  0  0  0  0  0  0  0  0
   13.2739  -16.4909   25.2553 O   0  0  0  0  0  0  0  0  0  0  0  0
  2  1  1  1
  2  9  1  0
  3  4  1  0
  3  2  1  0
  4  5  2  0
  4  8  1  0
  5  6  1  0
  6  7  1  0
  8  7  2  0
  9 10  2  0
 11 12  1  0
 12 14  1  0
 13 12  2  0
 15 14  1  6
 15 17  1  0
 16  9  1  0
 16 15  1  0
 17 19  1  0
 17 18  2  0
 19 20  1  0
 20 24  1  0
 20 21  1  6
 22 21  1  0
 23 22  2  0
 24 25  1  0
 26 22  1  0
 27 24  2  0
M  END
$$$$
