ELM.pdb
     RDKit          3D

 26 25  0  0  1  0  0  0  0  0999 V2000
   14.8602  -23.1207   -0.6831 N   0  0  0  0  0  0  0  0  0  0  0  0
   14.5246  -22.7560    0.6563 C   0  0  1  0  0  0  0  0  0  0  0  0
   13.8680  -23.8497    1.4311 C   0  0  0  0  0  0  0  0  0  0  0  0
   12.6127  -24.3733    0.8356 C   0  0  0  0  0  0  0  0  0  0  0  0
   11.3769  -23.6521    1.0957 C   0  0  0  0  0  0  0  0  0  0  0  0
   11.3418  -22.5426    1.6733 O   0  0  0  0  0  0  0  0  0  0  0  0
   15.6449  -22.1454    1.4273 C   0  0  0  0  0  0  0  0  0  0  0  0
   16.8440  -22.3702    1.0421 O   0  0  0  0  0  0  0  0  0  0  0  0
   10.1433  -24.2194    0.6813 O   0  0  0  0  0  0  0  0  0  0  0  0
   16.1120  -16.9646    1.7987 C   0  0  0  0  0  0  0  0  0  0  0  0
   16.5259  -18.4406    1.7764 C   0  0  1  0  0  0  0  0  0  0  0  0
   18.0154  -18.5071    1.3760 C   0  0  0  0  0  0  0  0  0  0  0  0
   16.3158  -19.0843    3.1113 C   0  0  0  0  0  0  0  0  0  0  0  0
   16.6606  -20.5313    3.0649 C   0  0  2  0  0  0  0  0  0  0  0  0
   15.5222  -21.3250    2.5634 N   0  0  0  0  0  0  0  0  0  0  0  0
   17.0100  -21.0709    4.4125 C   0  0  0  0  0  0  0  0  0  0  0  0
   17.8703  -20.5598    5.1702 O   0  0  0  0  0  0  0  0  0  0  0  0
   11.6370  -21.4526    7.8597 C   0  0  0  0  0  0  0  0  0  0  0  0
   12.8195  -22.8256    7.7448 S   0  0  0  0  0  0  0  0  0  0  0  0
   14.3678  -22.1850    6.9896 C   0  0  0  0  0  0  0  0  0  0  0  0
   15.3895  -23.2769    6.8975 C   0  0  0  0  0  0  0  0  0  0  0  0
   16.6571  -22.7814    6.2626 C   0  0  2  0  0  0  0  0  0  0  0  0
   16.3644  -22.2352    4.9316 N   0  0  0  0  0  0  0  0  0  0  0  0
   17.6782  -23.8041    6.2132 C   0  0  0  0  0  0  0  0  0  0  0  0
   18.1514  -24.4777    7.2997 O   0  0  0  0  0  0  0  0  0  0  0  0
   18.1903  -24.1120    5.0817 O   0  0  0  0  0  0  0  0  0  0  0  0
  2  1  1  6
  3  2  1  0
  4  3  1  0
  5  6  2  0
  5  4  1  0
  7  2  1  0
  7  8  2  0
  9  5  1  0
 11 10  1  1
 12 11  1  0
 14 13  1  1
 13 11  1  0
 14 15  1  0
 15  7  1  0
 16 14  1  0
 17 16  2  0
 19 18  1  0
 19 20  1  0
 20 21  1  0
 22 21  1  6
 22 24  1  0
 22 23  1  0
 23 16  1  0
 24 25  1  0
 26 24  2  0
M  END
$$$$
