ELM.pdb
     RDKit          3D

 26 25  0  0  1  0  0  0  0  0999 V2000
   13.4461  -10.7476  -14.1889 N   0  0  0  0  0  0  0  0  0  0  0  0
   14.4174  -10.6988  -13.1430 C   0  0  1  0  0  0  0  0  0  0  0  0
   15.7554  -11.2281  -13.5391 C   0  0  0  0  0  0  0  0  0  0  0  0
   16.2793  -10.7072  -14.8272 C   0  0  0  0  0  0  0  0  0  0  0  0
   17.5706  -11.1915  -15.2888 C   0  0  0  0  0  0  0  0  0  0  0  0
   17.6979  -12.1652  -16.0642 O   0  0  0  0  0  0  0  0  0  0  0  0
   14.5377   -9.3709  -12.4761 C   0  0  0  0  0  0  0  0  0  0  0  0
   14.0066   -8.3539  -13.0419 O   0  0  0  0  0  0  0  0  0  0  0  0
   18.7525  -10.5400  -14.8482 O   0  0  0  0  0  0  0  0  0  0  0  0
   14.0419   -5.6813   -8.8274 C   0  0  0  0  0  0  0  0  0  0  0  0
   15.3809   -6.4040   -8.6401 C   0  0  1  0  0  0  0  0  0  0  0  0
   15.6803   -6.4585   -7.1266 C   0  0  0  0  0  0  0  0  0  0  0  0
   15.3375   -7.7862   -9.2129 C   0  0  0  0  0  0  0  0  0  0  0  0
   15.2540   -7.7447  -10.6982 C   0  0  2  0  0  0  0  0  0  0  0  0
   15.1893   -9.1087  -11.2572 N   0  0  0  0  0  0  0  0  0  0  0  0
   16.4405   -7.0768  -11.3108 C   0  0  0  0  0  0  0  0  0  0  0  0
   16.7163   -5.8617  -11.1595 O   0  0  0  0  0  0  0  0  0  0  0  0
   23.5959   -8.4366  -14.4275 C   0  0  0  0  0  0  0  0  0  0  0  0
   22.0392   -9.1603  -13.8362 S   0  0  0  0  0  0  0  0  0  0  0  0
   20.8772   -7.7872  -13.4590 C   0  0  0  0  0  0  0  0  0  0  0  0
   19.6153   -8.3268  -12.8582 C   0  0  0  0  0  0  0  0  0  0  0  0
   18.6154   -7.2314  -12.6221 C   0  0  2  0  0  0  0  0  0  0  0  0
   17.3576   -7.8060  -12.1289 N   0  0  0  0  0  0  0  0  0  0  0  0
   18.4111   -6.4166  -13.7992 C   0  0  0  0  0  0  0  0  0  0  0  0
   19.1500   -5.3158  -14.1156 O   0  0  0  0  0  0  0  0  0  0  0  0
   17.4745   -6.7300  -14.6128 O   0  0  0  0  0  0  0  0  0  0  0  0
  2  1  1  6
  3  2  1  0
  4  3  1  0
  5  6  2  0
  5  4  1  0
  7  2  1  0
  7  8  2  0
  9  5  1  0
 11 10  1  1
 12 11  1  0
 14 13  1  1
 13 11  1  0
 14 15  1  0
 15  7  1  0
 16 14  1  0
 17 16  2  0
 19 18  1  0
 19 20  1  0
 20 21  1  0
 22 21  1  6
 22 24  1  0
 22 23  1  0
 23 16  1  0
 24 25  1  0
 26 24  2  0
M  END
$$$$
