ELM.pdb
     RDKit          3D

 26 25  0  0  1  0  0  0  0  0999 V2000
   18.2559  -11.2394  -18.1622 N   0  0  0  0  0  0  0  0  0  0  0  0
   17.7464   -9.9863  -17.7043 C   0  0  1  0  0  0  0  0  0  0  0  0
   16.9301  -10.0875  -16.4588 C   0  0  0  0  0  0  0  0  0  0  0  0
   15.6639  -10.8501  -16.5995 C   0  0  0  0  0  0  0  0  0  0  0  0
   14.7366  -10.8530  -15.4792 C   0  0  0  0  0  0  0  0  0  0  0  0
   14.3833  -11.8972  -14.8872 O   0  0  0  0  0  0  0  0  0  0  0  0
   18.7706   -8.9088  -17.5927 C   0  0  0  0  0  0  0  0  0  0  0  0
   19.9892   -9.2440  -17.3946 O   0  0  0  0  0  0  0  0  0  0  0  0
   14.1973   -9.6215  -15.0232 O   0  0  0  0  0  0  0  0  0  0  0  0
   18.9834   -4.0733  -20.3127 C   0  0  0  0  0  0  0  0  0  0  0  0
   19.3961   -5.3757  -19.6171 C   0  0  1  0  0  0  0  0  0  0  0  0
   20.8469   -5.6957  -20.0369 C   0  0  0  0  0  0  0  0  0  0  0  0
   19.2995   -5.2513  -18.1287 C   0  0  0  0  0  0  0  0  0  0  0  0
   19.6159   -6.5450  -17.4646 C   0  0  2  0  0  0  0  0  0  0  0  0
   18.5352   -7.5251  -17.6856 N   0  0  0  0  0  0  0  0  0  0  0  0
   19.7758   -6.3960  -15.9876 C   0  0  0  0  0  0  0  0  0  0  0  0
   18.8170   -6.2566  -15.1897 O   0  0  0  0  0  0  0  0  0  0  0  0
   22.9029   -9.1125   -9.5569 C   0  0  0  0  0  0  0  0  0  0  0  0
   22.6079   -9.2387  -11.3440 S   0  0  0  0  0  0  0  0  0  0  0  0
   22.1032   -7.5817  -11.9586 C   0  0  0  0  0  0  0  0  0  0  0  0
   21.8381   -7.6344  -13.4322 C   0  0  0  0  0  0  0  0  0  0  0  0
   21.2676   -6.3364  -13.9274 C   0  0  2  0  0  0  0  0  0  0  0  0
   21.0695   -6.4042  -15.3806 N   0  0  0  0  0  0  0  0  0  0  0  0
   22.0806   -5.2028  -13.5463 C   0  0  0  0  0  0  0  0  0  0  0  0
   22.9821   -4.5881  -14.3633 O   0  0  0  0  0  0  0  0  0  0  0  0
   21.9648   -4.7291  -12.3633 O   0  0  0  0  0  0  0  0  0  0  0  0
  2  1  1  1
  3  2  1  0
  4  3  1  0
  5  6  2  0
  5  4  1  0
  7  2  1  0
  7  8  2  0
  9  5  1  0
 11 10  1  6
 12 11  1  0
 14 13  1  6
 13 11  1  0
 14 15  1  0
 15  7  1  0
 16 14  1  0
 17 16  2  0
 19 18  1  0
 19 20  1  0
 20 21  1  0
 22 21  1  6
 22 24  1  0
 22 23  1  0
 23 16  1  0
 24 25  1  0
 26 24  2  0
M  END
$$$$
