ELM.pdb
     RDKit          3D

 26 25  0  0  1  0  0  0  0  0999 V2000
   23.7633  -18.3351  -14.2590 N   0  0  0  0  0  0  0  0  0  0  0  0
   23.6376  -19.7075  -14.6335 C   0  0  1  0  0  0  0  0  0  0  0  0
   23.3877  -19.9131  -16.0905 C   0  0  0  0  0  0  0  0  0  0  0  0
   22.1739  -19.2408  -16.6192 C   0  0  0  0  0  0  0  0  0  0  0  0
   21.0742  -20.0734  -17.0803 C   0  0  0  0  0  0  0  0  0  0  0  0
   21.0297  -20.5736  -18.2263 O   0  0  0  0  0  0  0  0  0  0  0  0
   24.7421  -20.5823  -14.1463 C   0  0  0  0  0  0  0  0  0  0  0  0
   24.6379  -21.8463  -14.3137 O   0  0  0  0  0  0  0  0  0  0  0  0
   19.9921  -20.3409  -16.2011 O   0  0  0  0  0  0  0  0  0  0  0  0
   29.7148  -19.1054  -14.8405 C   0  0  0  0  0  0  0  0  0  0  0  0
   28.3940  -19.8657  -14.6733 C   0  0  1  0  0  0  0  0  0  0  0  0
   28.2999  -20.9044  -15.8115 C   0  0  0  0  0  0  0  0  0  0  0  0
   28.3222  -20.5443  -13.3411 C   0  0  0  0  0  0  0  0  0  0  0  0
   26.9677  -21.1144  -13.1063 C   0  0  2  0  0  0  0  0  0  0  0  0
   25.9196  -20.1557  -13.5058 N   0  0  0  0  0  0  0  0  0  0  0  0
   26.7358  -21.4418  -11.6681 C   0  0  0  0  0  0  0  0  0  0  0  0
   27.5413  -22.0927  -10.9590 O   0  0  0  0  0  0  0  0  0  0  0  0
   29.0300  -20.2542   -6.6116 C   0  0  0  0  0  0  0  0  0  0  0  0
   27.5359  -19.2230   -6.5780 S   0  0  0  0  0  0  0  0  0  0  0  0
   26.1784  -20.1565   -7.3928 C   0  0  0  0  0  0  0  0  0  0  0  0
   26.4257  -20.2488   -8.8676 C   0  0  0  0  0  0  0  0  0  0  0  0
   25.3845  -21.0967   -9.5401 C   0  0  2  0  0  0  0  0  0  0  0  0
   25.5471  -21.0189  -10.9972 N   0  0  0  0  0  0  0  0  0  0  0  0
   24.0442  -20.7439   -9.1275 C   0  0  0  0  0  0  0  0  0  0  0  0
   23.0617  -20.3193   -9.9715 O   0  0  0  0  0  0  0  0  0  0  0  0
   23.7378  -20.8249   -7.8878 O   0  0  0  0  0  0  0  0  0  0  0  0
  2  1  1  6
  3  2  1  0
  4  3  1  0
  5  6  2  0
  5  4  1  0
  7  2  1  0
  7  8  2  0
  9  5  1  0
 11 10  1  1
 12 11  1  0
 14 13  1  1
 13 11  1  0
 14 15  1  0
 15  7  1  0
 16 14  1  0
 17 16  2  0
 19 18  1  0
 19 20  1  0
 20 21  1  0
 22 21  1  1
 22 24  1  0
 22 23  1  0
 23 16  1  0
 24 25  1  0
 26 24  2  0
M  END
$$$$
