ELM.pdb
     RDKit          3D

 26 25  0  0  1  0  0  0  0  0999 V2000
   17.0404  -11.4976  -17.9510 N   0  0  0  0  0  0  0  0  0  0  0  0
   18.2747  -10.9223  -18.3811 C   0  0  1  0  0  0  0  0  0  0  0  0
   18.1085   -9.7724  -19.3180 C   0  0  0  0  0  0  0  0  0  0  0  0
   17.3661  -10.0829  -20.5658 C   0  0  0  0  0  0  0  0  0  0  0  0
   17.1710   -9.0136  -21.5322 C   0  0  0  0  0  0  0  0  0  0  0  0
   17.6129   -7.8546  -21.3674 O   0  0  0  0  0  0  0  0  0  0  0  0
   19.2158  -10.5859  -17.2748 C   0  0  0  0  0  0  0  0  0  0  0  0
   18.7308  -10.1648  -16.1685 O   0  0  0  0  0  0  0  0  0  0  0  0
   16.4473   -9.2806  -22.7239 O   0  0  0  0  0  0  0  0  0  0  0  0
   22.9278  -10.5878  -13.6547 C   0  0  0  0  0  0  0  0  0  0  0  0
   23.5944  -10.4023  -15.0228 C   0  0  1  0  0  0  0  0  0  0  0  0
   24.9473  -11.1455  -14.9933 C   0  0  0  0  0  0  0  0  0  0  0  0
   22.7317  -10.9337  -16.1245 C   0  0  0  0  0  0  0  0  0  0  0  0
   21.4591  -10.1681  -16.2206 C   0  0  2  0  0  0  0  0  0  0  0  0
   20.6183  -10.6858  -17.3172 N   0  0  0  0  0  0  0  0  0  0  0  0
   21.6925   -8.7192  -16.4952 C   0  0  0  0  0  0  0  0  0  0  0  0
   21.8056   -8.2338  -17.6472 O   0  0  0  0  0  0  0  0  0  0  0  0
   19.2591   -2.0273  -17.6883 C   0  0  0  0  0  0  0  0  0  0  0  0
   19.1169   -3.8078  -17.3623 S   0  0  0  0  0  0  0  0  0  0  0  0
   20.6676   -4.3657  -16.5487 C   0  0  0  0  0  0  0  0  0  0  0  0
   20.6524   -5.8530  -16.3694 C   0  0  0  0  0  0  0  0  0  0  0  0
   21.8852   -6.3258  -15.6539 C   0  0  2  0  0  0  0  0  0  0  0  0
   21.8033   -7.7743  -15.4289 N   0  0  0  0  0  0  0  0  0  0  0  0
   22.1133   -5.6010  -14.4234 C   0  0  0  0  0  0  0  0  0  0  0  0
   22.6091   -4.3333  -14.3531 O   0  0  0  0  0  0  0  0  0  0  0  0
   21.8412   -6.1714  -13.3108 O   0  0  0  0  0  0  0  0  0  0  0  0
  2  1  1  1
  3  2  1  0
  4  3  1  0
  5  6  2  0
  5  4  1  0
  7  2  1  0
  7  8  2  0
  9  5  1  0
 11 10  1  1
 12 11  1  0
 14 13  1  6
 13 11  1  0
 14 15  1  0
 15  7  1  0
 16 14  1  0
 17 16  2  0
 19 18  1  0
 19 20  1  0
 20 21  1  0
 22 21  1  1
 22 24  1  0
 22 23  1  0
 23 16  1  0
 24 25  1  0
 26 24  2  0
M  END
$$$$
