ELM.pdb
     RDKit          3D

 26 25  0  0  1  0  0  0  0  0999 V2000
   27.8504  -21.7628  -16.5487 N   0  0  0  0  0  0  0  0  0  0  0  0
   27.3290  -20.8101  -15.6213 C   0  0  1  0  0  0  0  0  0  0  0  0
   26.9679  -19.5016  -16.2419 C   0  0  0  0  0  0  0  0  0  0  0  0
   25.6547  -19.4776  -16.9344 C   0  0  0  0  0  0  0  0  0  0  0  0
   24.8476  -18.2720  -16.8331 C   0  0  0  0  0  0  0  0  0  0  0  0
   25.2328  -17.1551  -17.2453 O   0  0  0  0  0  0  0  0  0  0  0  0
   26.2225  -21.3256  -14.7655 C   0  0  0  0  0  0  0  0  0  0  0  0
   25.3531  -22.1009  -15.2943 O   0  0  0  0  0  0  0  0  0  0  0  0
   23.5595  -18.3484  -16.2413 O   0  0  0  0  0  0  0  0  0  0  0  0
   24.1098  -19.8474  -10.0551 C   0  0  0  0  0  0  0  0  0  0  0  0
   25.4388  -20.3500  -10.6310 C   0  0  1  0  0  0  0  0  0  0  0  0
   26.4869  -20.3165   -9.4980 C   0  0  0  0  0  0  0  0  0  0  0  0
   25.3049  -21.7374  -11.1763 C   0  0  0  0  0  0  0  0  0  0  0  0
   24.9628  -21.7097  -12.6245 C   0  0  2  0  0  0  0  0  0  0  0  0
   26.0268  -21.0447  -13.4011 N   0  0  0  0  0  0  0  0  0  0  0  0
   23.6966  -20.9645  -12.8901 C   0  0  0  0  0  0  0  0  0  0  0  0
   23.6284  -19.7161  -13.0004 O   0  0  0  0  0  0  0  0  0  0  0  0
   20.7568  -21.7642  -17.7897 C   0  0  0  0  0  0  0  0  0  0  0  0
   19.2493  -21.0710  -17.0523 S   0  0  0  0  0  0  0  0  0  0  0  0
   19.6060  -20.6669  -15.2951 C   0  0  0  0  0  0  0  0  0  0  0  0
   20.8946  -21.3013  -14.8690 C   0  0  0  0  0  0  0  0  0  0  0  0
   21.2119  -20.9761  -13.4376 C   0  0  2  0  0  0  0  0  0  0  0  0
   22.4527  -21.6520  -13.0388 N   0  0  0  0  0  0  0  0  0  0  0  0
   20.1154  -21.2942  -12.5501 C   0  0  0  0  0  0  0  0  0  0  0  0
   19.0765  -20.4563  -12.2732 O   0  0  0  0  0  0  0  0  0  0  0  0
   20.1004  -22.4348  -11.9704 O   0  0  0  0  0  0  0  0  0  0  0  0
  2  1  1  6
  3  2  1  0
  4  3  1  0
  5  6  2  0
  5  4  1  0
  7  2  1  0
  7  8  2  0
  9  5  1  0
 11 10  1  1
 12 11  1  0
 14 13  1  1
 13 11  1  0
 14 15  1  0
 15  7  1  0
 16 14  1  0
 17 16  2  0
 19 18  1  0
 19 20  1  0
 20 21  1  0
 22 21  1  6
 22 24  1  0
 22 23  1  0
 23 16  1  0
 24 25  1  0
 26 24  2  0
M  END
$$$$
