ELM.pdb
     RDKit          3D

 26 25  0  0  1  0  0  0  0  0999 V2000
   18.5862  -11.7620  -18.0093 N   0  0  0  0  0  0  0  0  0  0  0  0
   19.5803  -10.8223  -18.4196 C   0  0  1  0  0  0  0  0  0  0  0  0
   19.2826  -10.1629  -19.7251 C   0  0  0  0  0  0  0  0  0  0  0  0
   19.2825  -11.0707  -20.9001 C   0  0  0  0  0  0  0  0  0  0  0  0
   20.5525  -11.3502  -21.5513 C   0  0  0  0  0  0  0  0  0  0  0  0
   21.6306  -10.8192  -21.2029 O   0  0  0  0  0  0  0  0  0  0  0  0
   19.9462   -9.8193  -17.3790 C   0  0  0  0  0  0  0  0  0  0  0  0
   19.0087   -9.2774  -16.6980 O   0  0  0  0  0  0  0  0  0  0  0  0
   20.5883  -12.2663  -22.6352 O   0  0  0  0  0  0  0  0  0  0  0  0
   23.9896  -10.2234  -13.8505 C   0  0  0  0  0  0  0  0  0  0  0  0
   22.6494   -9.8734  -14.5077 C   0  0  1  0  0  0  0  0  0  0  0  0
   21.5979   -9.7275  -13.3867 C   0  0  0  0  0  0  0  0  0  0  0  0
   22.7464   -8.6069  -15.2994 C   0  0  0  0  0  0  0  0  0  0  0  0
   21.4844   -8.3463  -16.0439 C   0  0  2  0  0  0  0  0  0  0  0  0
   21.2475   -9.3940  -17.0556 N   0  0  0  0  0  0  0  0  0  0  0  0
   21.5157   -7.0400  -16.7661 C   0  0  0  0  0  0  0  0  0  0  0  0
   22.4082   -6.7141  -17.5863 O   0  0  0  0  0  0  0  0  0  0  0  0
   16.6763   -3.7025  -19.7020 C   0  0  0  0  0  0  0  0  0  0  0  0
   17.3644   -2.4703  -18.5597 S   0  0  0  0  0  0  0  0  0  0  0  0
   19.0917   -2.9586  -18.1646 C   0  0  0  0  0  0  0  0  0  0  0  0
   19.1172   -4.3292  -17.5602 C   0  0  0  0  0  0  0  0  0  0  0  0
   20.5183   -4.7420  -17.2111 C   0  0  2  0  0  0  0  0  0  0  0  0
   20.4997   -6.0568  -16.5581 N   0  0  0  0  0  0  0  0  0  0  0  0
   21.1946   -3.7494  -16.4057 C   0  0  0  0  0  0  0  0  0  0  0  0
   21.9614   -2.7395  -16.9056 O   0  0  0  0  0  0  0  0  0  0  0  0
   21.0824   -3.8059  -15.1323 O   0  0  0  0  0  0  0  0  0  0  0  0
  2  1  1  1
  3  2  1  0
  4  3  1  0
  5  6  2  0
  5  4  1  0
  7  2  1  0
  7  8  2  0
  9  5  1  0
 11 10  1  1
 12 11  1  0
 14 13  1  6
 13 11  1  0
 14 15  1  0
 15  7  1  0
 16 14  1  0
 17 16  2  0
 19 18  1  0
 19 20  1  0
 20 21  1  0
 22 21  1  1
 22 24  1  0
 22 23  1  0
 23 16  1  0
 24 25  1  0
 26 24  2  0
M  END
$$$$
