ELM.pdb
     RDKit          3D

 26 25  0  0  1  0  0  0  0  0999 V2000
   16.4622  -12.6996  -15.3016 N   0  0  0  0  0  0  0  0  0  0  0  0
   17.8122  -12.9453  -15.6974 C   0  0  1  0  0  0  0  0  0  0  0  0
   17.9746  -14.1454  -16.5698 C   0  0  0  0  0  0  0  0  0  0  0  0
   17.2069  -15.3414  -16.1396 C   0  0  0  0  0  0  0  0  0  0  0  0
   17.2775  -16.5359  -16.9663 C   0  0  0  0  0  0  0  0  0  0  0  0
   16.7102  -17.6098  -16.6653 O   0  0  0  0  0  0  0  0  0  0  0  0
   18.5104  -11.7606  -16.2733 C   0  0  0  0  0  0  0  0  0  0  0  0
   19.5982  -11.9485  -16.9197 O   0  0  0  0  0  0  0  0  0  0  0  0
   18.0211  -16.4988  -18.1751 O   0  0  0  0  0  0  0  0  0  0  0  0
   17.4387   -7.4176  -14.6695 C   0  0  0  0  0  0  0  0  0  0  0  0
   16.9242   -8.0669  -15.9594 C   0  0  1  0  0  0  0  0  0  0  0  0
   15.7283   -7.2311  -16.4641 C   0  0  0  0  0  0  0  0  0  0  0  0
   17.9957   -8.1267  -17.0028 C   0  0  0  0  0  0  0  0  0  0  0  0
   18.8509   -9.3308  -16.8196 C   0  0  2  0  0  0  0  0  0  0  0  0
   18.0894  -10.4215  -16.1811 N   0  0  0  0  0  0  0  0  0  0  0  0
   20.0329   -9.0553  -15.9500 C   0  0  0  0  0  0  0  0  0  0  0  0
   19.9845   -9.0067  -14.6967 O   0  0  0  0  0  0  0  0  0  0  0  0
   27.6249  -10.5515  -15.1535 C   0  0  0  0  0  0  0  0  0  0  0  0
   26.2559  -10.3644  -16.3314 S   0  0  0  0  0  0  0  0  0  0  0  0
   24.8744   -9.5101  -15.4715 C   0  0  0  0  0  0  0  0  0  0  0  0
   23.6596   -9.4781  -16.3477 C   0  0  0  0  0  0  0  0  0  0  0  0
   22.5416   -8.7150  -15.6973 C   0  0  2  0  0  0  0  0  0  0  0  0
   21.3259   -8.8248  -16.5130 N   0  0  0  0  0  0  0  0  0  0  0  0
   22.8978   -7.3367  -15.4432 C   0  0  0  0  0  0  0  0  0  0  0  0
   23.4265   -6.8774  -14.2738 O   0  0  0  0  0  0  0  0  0  0  0  0
   22.7087   -6.4695  -16.3649 O   0  0  0  0  0  0  0  0  0  0  0  0
  2  1  1  6
  3  2  1  0
  4  3  1  0
  5  6  2  0
  5  4  1  0
  7  2  1  0
  7  8  2  0
  9  5  1  0
 11 10  1  1
 12 11  1  0
 14 13  1  1
 13 11  1  0
 14 15  1  0
 15  7  1  0
 16 14  1  0
 17 16  2  0
 19 18  1  0
 19 20  1  0
 20 21  1  0
 22 21  1  6
 22 24  1  0
 22 23  1  0
 23 16  1  0
 24 25  1  0
 26 24  2  0
M  END
$$$$
