ELM.pdb
     RDKit          3D

 26 25  0  0  1  0  0  0  0  0999 V2000
   26.9715  -18.0823  -14.9274 N   0  0  0  0  0  0  0  0  0  0  0  0
   26.4796  -19.2644  -15.5601 C   0  0  1  0  0  0  0  0  0  0  0  0
   27.5488  -20.1135  -16.1631 C   0  0  0  0  0  0  0  0  0  0  0  0
   28.4608  -19.4044  -17.0959 C   0  0  0  0  0  0  0  0  0  0  0  0
   27.8820  -18.7603  -18.2644 C   0  0  0  0  0  0  0  0  0  0  0  0
   27.1484  -19.3596  -19.0819 O   0  0  0  0  0  0  0  0  0  0  0  0
   25.5570  -20.0761  -14.7161 C   0  0  0  0  0  0  0  0  0  0  0  0
   25.1611  -21.2084  -15.1607 O   0  0  0  0  0  0  0  0  0  0  0  0
   28.1520  -17.3872  -18.5035 O   0  0  0  0  0  0  0  0  0  0  0  0
   26.0985  -20.4175   -9.3998 C   0  0  0  0  0  0  0  0  0  0  0  0
   25.8296  -20.7104  -10.8805 C   0  0  1  0  0  0  0  0  0  0  0  0
   26.2183  -22.1802  -11.1491 C   0  0  0  0  0  0  0  0  0  0  0  0
   24.3922  -20.4796  -11.2280 C   0  0  0  0  0  0  0  0  0  0  0  0
   24.1690  -20.6214  -12.6926 C   0  0  2  0  0  0  0  0  0  0  0  0
   25.0623  -19.7219  -13.4477 N   0  0  0  0  0  0  0  0  0  0  0  0
   22.7698  -20.2788  -13.0851 C   0  0  0  0  0  0  0  0  0  0  0  0
   22.2521  -19.1477  -12.9174 O   0  0  0  0  0  0  0  0  0  0  0  0
   19.4931  -22.5852  -18.1857 C   0  0  0  0  0  0  0  0  0  0  0  0
   18.1710  -22.7006  -16.9466 S   0  0  0  0  0  0  0  0  0  0  0  0
   18.6440  -21.6601  -15.5072 C   0  0  0  0  0  0  0  0  0  0  0  0
   20.0934  -21.8542  -15.1818 C   0  0  0  0  0  0  0  0  0  0  0  0
   20.5168  -20.9705  -14.0437 C   0  0  2  0  0  0  0  0  0  0  0  0
   21.9150  -21.2492  -13.6931 N   0  0  0  0  0  0  0  0  0  0  0  0
   19.6393  -21.0950  -12.9010 C   0  0  0  0  0  0  0  0  0  0  0  0
   18.5682  -20.2881  -12.6570 O   0  0  0  0  0  0  0  0  0  0  0  0
   19.8674  -22.0176  -12.0443 O   0  0  0  0  0  0  0  0  0  0  0  0
  2  1  1  1
  3  2  1  0
  4  3  1  0
  5  6  2  0
  5  4  1  0
  7  2  1  0
  7  8  2  0
  9  5  1  0
 11 10  1  1
 12 11  1  0
 14 13  1  1
 13 11  1  0
 14 15  1  0
 15  7  1  0
 16 14  1  0
 17 16  2  0
 19 18  1  0
 19 20  1  0
 20 21  1  0
 22 21  1  6
 22 24  1  0
 22 23  1  0
 23 16  1  0
 24 25  1  0
 26 24  2  0
M  END
$$$$
