ELM.pdb
     RDKit          3D

 26 25  0  0  1  0  0  0  0  0999 V2000
   18.4256  -22.6006  -12.5128 N   0  0  0  0  0  0  0  0  0  0  0  0
   19.4764  -22.4299  -13.4648 C   0  0  1  0  0  0  0  0  0  0  0  0
   19.0046  -21.9815  -14.8079 C   0  0  0  0  0  0  0  0  0  0  0  0
   19.9072  -22.3243  -15.9359 C   0  0  0  0  0  0  0  0  0  0  0  0
   20.0898  -23.7289  -16.2661 C   0  0  0  0  0  0  0  0  0  0  0  0
   19.2026  -24.5934  -16.0890 O   0  0  0  0  0  0  0  0  0  0  0  0
   20.6125  -21.5927  -12.9843 C   0  0  0  0  0  0  0  0  0  0  0  0
   20.3525  -20.4565  -12.4570 O   0  0  0  0  0  0  0  0  0  0  0  0
   21.3268  -24.1560  -16.8161 O   0  0  0  0  0  0  0  0  0  0  0  0
   25.0303  -20.4733  -10.1203 C   0  0  0  0  0  0  0  0  0  0  0  0
   25.2895  -20.9152  -11.5653 C   0  0  1  0  0  0  0  0  0  0  0  0
   26.6520  -21.6403  -11.5999 C   0  0  0  0  0  0  0  0  0  0  0  0
   24.2047  -21.8200  -12.0600 C   0  0  0  0  0  0  0  0  0  0  0  0
   23.0139  -21.0380  -12.4904 C   0  0  2  0  0  0  0  0  0  0  0  0
   21.9773  -21.9274  -13.0487 N   0  0  0  0  0  0  0  0  0  0  0  0
   23.3484  -20.0384  -13.5478 C   0  0  0  0  0  0  0  0  0  0  0  0
   24.1308  -19.0721  -13.3761 O   0  0  0  0  0  0  0  0  0  0  0  0
   26.3571  -21.4595  -18.1154 C   0  0  0  0  0  0  0  0  0  0  0  0
   26.0494  -19.8259  -18.8457 S   0  0  0  0  0  0  0  0  0  0  0  0
   24.6767  -19.0331  -17.9155 C   0  0  0  0  0  0  0  0  0  0  0  0
   24.2867  -19.8818  -16.7441 C   0  0  0  0  0  0  0  0  0  0  0  0
   23.1758  -19.2454  -15.9592 C   0  0  2  0  0  0  0  0  0  0  0  0
   22.7793  -20.1286  -14.8555 N   0  0  0  0  0  0  0  0  0  0  0  0
   22.0512  -18.8898  -16.7959 C   0  0  0  0  0  0  0  0  0  0  0  0
   20.9602  -19.6804  -17.0022 O   0  0  0  0  0  0  0  0  0  0  0  0
   22.0611  -17.7604  -17.3973 O   0  0  0  0  0  0  0  0  0  0  0  0
  2  1  1  1
  3  2  1  0
  4  3  1  0
  5  6  2  0
  5  4  1  0
  7  2  1  0
  7  8  2  0
  9  5  1  0
 11 10  1  1
 12 11  1  0
 14 13  1  6
 13 11  1  0
 14 15  1  0
 15  7  1  0
 16 14  1  0
 17 16  2  0
 19 18  1  0
 19 20  1  0
 20 21  1  0
 22 21  1  6
 22 24  1  0
 22 23  1  0
 23 16  1  0
 24 25  1  0
 26 24  2  0
M  END
$$$$
