ELM.pdb
     RDKit          3D

 26 25  0  0  1  0  0  0  0  0999 V2000
   27.1286  -21.6350  -15.7054 N   0  0  0  0  0  0  0  0  0  0  0  0
   26.2937  -20.6355  -15.1193 C   0  0  1  0  0  0  0  0  0  0  0  0
   25.5484  -19.8130  -16.1172 C   0  0  0  0  0  0  0  0  0  0  0  0
   24.7281  -20.5889  -17.0815 C   0  0  0  0  0  0  0  0  0  0  0  0
   23.3098  -20.2822  -17.1782 C   0  0  0  0  0  0  0  0  0  0  0  0
   22.8556  -19.1186  -17.1034 O   0  0  0  0  0  0  0  0  0  0  0  0
   25.3859  -21.1410  -14.0502 C   0  0  0  0  0  0  0  0  0  0  0  0
   24.9849  -22.3541  -14.1139 O   0  0  0  0  0  0  0  0  0  0  0  0
   22.3833  -21.3412  -17.3662 O   0  0  0  0  0  0  0  0  0  0  0  0
   26.2499  -19.8077   -8.9278 C   0  0  0  0  0  0  0  0  0  0  0  0
   25.9177  -20.4959  -10.2568 C   0  0  1  0  0  0  0  0  0  0  0  0
   26.3795  -21.9655  -10.1558 C   0  0  0  0  0  0  0  0  0  0  0  0
   24.4518  -20.4293  -10.5520 C   0  0  0  0  0  0  0  0  0  0  0  0
   24.1443  -21.0562  -11.8662 C   0  0  2  0  0  0  0  0  0  0  0  0
   24.9106  -20.4078  -12.9477 N   0  0  0  0  0  0  0  0  0  0  0  0
   22.6992  -20.9378  -12.2226 C   0  0  0  0  0  0  0  0  0  0  0  0
   21.7616  -21.3315  -11.4868 O   0  0  0  0  0  0  0  0  0  0  0  0
   20.3325  -16.2884  -16.1551 C   0  0  0  0  0  0  0  0  0  0  0  0
   19.2496  -17.6641  -16.6363 S   0  0  0  0  0  0  0  0  0  0  0  0
   19.3424  -18.9500  -15.3263 C   0  0  0  0  0  0  0  0  0  0  0  0
   20.7723  -19.2811  -15.0259 C   0  0  0  0  0  0  0  0  0  0  0  0
   20.8797  -20.1933  -13.8377 C   0  0  2  0  0  0  0  0  0  0  0  0
   22.2895  -20.3510  -13.4595 N   0  0  0  0  0  0  0  0  0  0  0  0
   20.2376  -21.4682  -14.0692 C   0  0  0  0  0  0  0  0  0  0  0  0
   18.9199  -21.7247  -13.8329 O   0  0  0  0  0  0  0  0  0  0  0  0
   20.9367  -22.4387  -14.5239 O   0  0  0  0  0  0  0  0  0  0  0  0
  2  1  1  6
  3  2  1  0
  4  3  1  0
  5  6  2  0
  5  4  1  0
  7  2  1  0
  7  8  2  0
  9  5  1  0
 11 10  1  1
 12 11  1  0
 14 13  1  1
 13 11  1  0
 14 15  1  0
 15  7  1  0
 16 14  1  0
 17 16  2  0
 19 18  1  0
 19 20  1  0
 20 21  1  0
 22 21  1  6
 22 24  1  0
 22 23  1  0
 23 16  1  0
 24 25  1  0
 26 24  2  0
M  END
$$$$
