ELM.pdb
     RDKit          3D

 26 25  0  0  1  0  0  0  0  0999 V2000
   18.4341  -11.3365  -18.0870 N   0  0  0  0  0  0  0  0  0  0  0  0
   19.4004  -10.2996  -18.2622 C   0  0  1  0  0  0  0  0  0  0  0  0
   18.9120   -9.1549  -19.0862 C   0  0  0  0  0  0  0  0  0  0  0  0
   18.8511   -9.4151  -20.5467 C   0  0  0  0  0  0  0  0  0  0  0  0
   18.5568   -8.2984  -21.4309 C   0  0  0  0  0  0  0  0  0  0  0  0
   17.5082   -8.2219  -22.1092 O   0  0  0  0  0  0  0  0  0  0  0  0
   20.0299   -9.8245  -16.9970 C   0  0  0  0  0  0  0  0  0  0  0  0
   19.2826   -9.6434  -15.9746 O   0  0  0  0  0  0  0  0  0  0  0  0
   19.4929   -7.2369  -21.5412 O   0  0  0  0  0  0  0  0  0  0  0  0
   24.6050  -11.5622  -14.8701 C   0  0  0  0  0  0  0  0  0  0  0  0
   23.1943  -10.9808  -15.0191 C   0  0  1  0  0  0  0  0  0  0  0  0
   22.3965  -11.3463  -13.7489 C   0  0  0  0  0  0  0  0  0  0  0  0
   23.2348   -9.4955  -15.1997 C   0  0  0  0  0  0  0  0  0  0  0  0
   21.8867   -8.9633  -15.5380 C   0  0  2  0  0  0  0  0  0  0  0  0
   21.3950   -9.5475  -16.8006 N   0  0  0  0  0  0  0  0  0  0  0  0
   21.8946   -7.4809  -15.7159 C   0  0  0  0  0  0  0  0  0  0  0  0
   22.3998   -6.8966  -16.7052 O   0  0  0  0  0  0  0  0  0  0  0  0
   17.9002   -0.9046  -15.3464 C   0  0  0  0  0  0  0  0  0  0  0  0
   17.9555   -2.7003  -15.0835 S   0  0  0  0  0  0  0  0  0  0  0  0
   19.7179   -3.2215  -15.0659 C   0  0  0  0  0  0  0  0  0  0  0  0
   19.8175   -4.7049  -14.8810 C   0  0  0  0  0  0  0  0  0  0  0  0
   21.2488   -5.1590  -14.9002 C   0  0  2  0  0  0  0  0  0  0  0  0
   21.3087   -6.6171  -14.7398 N   0  0  0  0  0  0  0  0  0  0  0  0
   22.0514   -4.4743  -13.9111 C   0  0  0  0  0  0  0  0  0  0  0  0
   22.6128   -3.2447  -14.0871 O   0  0  0  0  0  0  0  0  0  0  0  0
   22.2657   -5.0452  -12.7862 O   0  0  0  0  0  0  0  0  0  0  0  0
  2  1  1  1
  3  2  1  0
  4  3  1  0
  5  6  2  0
  5  4  1  0
  7  2  1  0
  7  8  2  0
  9  5  1  0
 11 10  1  1
 12 11  1  0
 14 13  1  6
 13 11  1  0
 14 15  1  0
 15  7  1  0
 16 14  1  0
 17 16  2  0
 19 18  1  0
 19 20  1  0
 20 21  1  0
 22 21  1  1
 22 24  1  0
 22 23  1  0
 23 16  1  0
 24 25  1  0
 26 24  2  0
M  END
$$$$
