WDG.pdb
     RDKit          3D

 27 28  0  0  1  0  0  0  0  0999 V2000
   27.8578  -22.1441  -14.2654 N   0  0  0  0  0  0  0  0  0  0  0  0
   26.8145  -21.7349  -13.3991 C   0  0  1  0  0  0  0  0  0  0  0  0
   27.0983  -20.4312  -12.7399 C   0  0  0  0  0  0  0  0  0  0  0  0
   27.9568  -20.6180  -11.5524 C   0  0  0  0  0  0  0  0  0  0  0  0
   29.3313  -20.7346  -11.5583 C   0  0  0  0  0  0  0  0  0  0  0  0
   29.7599  -20.8615  -10.2926 N   0  0  0  0  0  0  0  0  0  0  0  0
   28.7078  -20.8308   -9.4768 C   0  0  0  0  0  0  0  0  0  0  0  0
   28.6374  -20.9306   -8.0916 C   0  0  0  0  0  0  0  0  0  0  0  0
   27.4265  -20.8832   -7.4300 C   0  0  0  0  0  0  0  0  0  0  0  0
   26.3093  -20.7340   -8.2080 C   0  0  0  0  0  0  0  0  0  0  0  0
   26.3456  -20.6324   -9.5794 C   0  0  0  0  0  0  0  0  0  0  0  0
   27.5614  -20.6794  -10.2373 C   0  0  0  0  0  0  0  0  0  0  0  0
   25.4777  -21.7618  -14.0628 C   0  0  0  0  0  0  0  0  0  0  0  0
   25.3760  -21.2250  -15.1952 O   0  0  0  0  0  0  0  0  0  0  0  0
   24.3235  -22.3469  -13.5083 N   0  0  0  0  0  0  0  0  0  0  0  0
   23.0617  -22.4557  -14.2196 C   0  0  1  0  0  0  0  0  0  0  0  0
   22.5949  -23.8730  -14.3290 C   0  0  0  0  0  0  0  0  0  0  0  0
   23.2826  -24.6772  -15.3545 C   0  0  0  0  0  0  0  0  0  0  0  0
   24.0231  -24.1519  -16.2107 O   0  0  0  0  0  0  0  0  0  0  0  0
   22.0845  -21.5315  -13.5986 C   0  0  0  0  0  0  0  0  0  0  0  0
   22.0580  -21.3684  -12.3347 O   0  0  0  0  0  0  0  0  0  0  0  0
   23.1097  -26.0472  -15.3768 O   0  0  0  0  0  0  0  0  0  0  0  0
   21.1316  -20.7769  -14.3353 N   0  0  0  0  0  0  0  0  0  0  0  0
   20.0933  -19.9800  -13.7155 C   0  0  0  0  0  0  0  0  0  0  0  0
   19.0152  -20.7825  -13.0990 C   0  0  0  0  0  0  0  0  0  0  0  0
   18.7460  -21.9077  -13.5591 O   0  0  0  0  0  0  0  0  0  0  0  0
   18.3260  -20.2723  -12.0261 O   0  0  0  0  0  0  0  0  0  0  0  0
  2  3  1  0
  2  1  1  6
  4  5  2  0
  4  3  1  0
  6  5  1  0
  7 12  2  0
  7  6  1  0
  8  7  1  0
  9 10  1  0
  9  8  2  0
 10 11  2  0
 11 12  1  0
 12  4  1  0
 13  2  1  0
 14 13  2  0
 15 13  1  0
 16 15  1  0
 16 17  1  1
 17 18  1  0
 18 22  1  0
 19 18  2  0
 20 16  1  0
 20 21  2  0
 23 20  1  0
 24 23  1  0
 24 25  1  0
 25 27  1  0
 26 25  2  0
M  END
$$$$
