WDG.pdb
     RDKit          3D

 27 28  0  0  1  0  0  0  0  0999 V2000
   26.7205  -21.3338  -12.5168 N   0  0  0  0  0  0  0  0  0  0  0  0
   25.5767  -21.1971  -11.6924 C   0  0  1  0  0  0  0  0  0  0  0  0
   25.8394  -20.3675  -10.4851 C   0  0  0  0  0  0  0  0  0  0  0  0
   27.1627  -20.6817   -9.9087 C   0  0  0  0  0  0  0  0  0  0  0  0
   28.2156  -21.2732  -10.5755 C   0  0  0  0  0  0  0  0  0  0  0  0
   29.2588  -21.3704   -9.7365 N   0  0  0  0  0  0  0  0  0  0  0  0
   28.9104  -20.8624   -8.5559 C   0  0  0  0  0  0  0  0  0  0  0  0
   29.6362  -20.7430   -7.3757 C   0  0  0  0  0  0  0  0  0  0  0  0
   29.0772  -20.1846   -6.2436 C   0  0  0  0  0  0  0  0  0  0  0  0
   27.7796  -19.7591   -6.3477 C   0  0  0  0  0  0  0  0  0  0  0  0
   27.0354  -19.8629   -7.5000 C   0  0  0  0  0  0  0  0  0  0  0  0
   27.6005  -20.4222   -8.6318 C   0  0  0  0  0  0  0  0  0  0  0  0
   24.3767  -20.7381  -12.4525 C   0  0  0  0  0  0  0  0  0  0  0  0
   24.3552  -19.5442  -12.8464 O   0  0  0  0  0  0  0  0  0  0  0  0
   23.2680  -21.5498  -12.7585 N   0  0  0  0  0  0  0  0  0  0  0  0
   22.1501  -21.1030  -13.5714 C   0  0  1  0  0  0  0  0  0  0  0  0
   22.1100  -21.7864  -14.9018 C   0  0  0  0  0  0  0  0  0  0  0  0
   23.2145  -21.4390  -15.8133 C   0  0  0  0  0  0  0  0  0  0  0  0
   23.4116  -20.2641  -16.1852 O   0  0  0  0  0  0  0  0  0  0  0  0
   20.9054  -21.2268  -12.7776 C   0  0  0  0  0  0  0  0  0  0  0  0
   19.7824  -20.8845  -13.2740 O   0  0  0  0  0  0  0  0  0  0  0  0
   24.0579  -22.4313  -16.2730 O   0  0  0  0  0  0  0  0  0  0  0  0
   20.8631  -21.7213  -11.4458 N   0  0  0  0  0  0  0  0  0  0  0  0
   19.6365  -21.8820  -10.6928 C   0  0  0  0  0  0  0  0  0  0  0  0
   18.7773  -22.9813  -11.1824 C   0  0  0  0  0  0  0  0  0  0  0  0
   18.3513  -22.9548  -12.3520 O   0  0  0  0  0  0  0  0  0  0  0  0
   18.4620  -24.0166  -10.3367 O   0  0  0  0  0  0  0  0  0  0  0  0
  2  3  1  0
  2  1  1  6
  4  5  2  0
  4  3  1  0
  6  5  1  0
  7 12  2  0
  7  6  1  0
  8  7  1  0
  9 10  1  0
  9  8  2  0
 10 11  2  0
 11 12  1  0
 12  4  1  0
 13  2  1  0
 14 13  2  0
 15 13  1  0
 16 15  1  0
 16 17  1  6
 17 18  1  0
 18 22  1  0
 19 18  2  0
 20 16  1  0
 20 21  2  0
 23 20  1  0
 24 23  1  0
 24 25  1  0
 25 27  1  0
 26 25  2  0
M  END
$$$$
