WDG.pdb
     RDKit          3D

 27 28  0  0  1  0  0  0  0  0999 V2000
   28.1658  -21.3497  -10.6718 N   0  0  0  0  0  0  0  0  0  0  0  0
   26.9385  -20.9522  -10.0866 C   0  0  1  0  0  0  0  0  0  0  0  0
   27.1160  -19.9045   -9.0447 C   0  0  0  0  0  0  0  0  0  0  0  0
   28.2176  -20.2574   -8.1261 C   0  0  0  0  0  0  0  0  0  0  0  0
   29.4311  -20.8032   -8.4904 C   0  0  0  0  0  0  0  0  0  0  0  0
   30.1838  -20.9571   -7.3898 N   0  0  0  0  0  0  0  0  0  0  0  0
   29.4945  -20.5295   -6.3337 C   0  0  0  0  0  0  0  0  0  0  0  0
   29.8395  -20.4902   -4.9871 C   0  0  0  0  0  0  0  0  0  0  0  0
   28.9621  -20.0089   -4.0360 C   0  0  0  0  0  0  0  0  0  0  0  0
   27.7442  -19.5768   -4.4894 C   0  0  0  0  0  0  0  0  0  0  0  0
   27.3731  -19.6025   -5.8138 C   0  0  0  0  0  0  0  0  0  0  0  0
   28.2563  -20.0846   -6.7629 C   0  0  0  0  0  0  0  0  0  0  0  0
   25.9146  -20.5780  -11.1063 C   0  0  0  0  0  0  0  0  0  0  0  0
   26.0607  -19.4835  -11.7077 O   0  0  0  0  0  0  0  0  0  0  0  0
   24.7971  -21.3662  -11.4410 N   0  0  0  0  0  0  0  0  0  0  0  0
   23.8654  -21.0231  -12.5012 C   0  0  1  0  0  0  0  0  0  0  0  0
   23.9259  -21.9897  -13.6416 C   0  0  0  0  0  0  0  0  0  0  0  0
   25.2048  -22.0096  -14.3733 C   0  0  0  0  0  0  0  0  0  0  0  0
   25.6557  -20.9885  -14.9315 O   0  0  0  0  0  0  0  0  0  0  0  0
   22.5174  -20.8493  -11.9119 C   0  0  0  0  0  0  0  0  0  0  0  0
   22.1775  -21.4957  -10.8671 O   0  0  0  0  0  0  0  0  0  0  0  0
   25.9298  -23.1825  -14.4488 O   0  0  0  0  0  0  0  0  0  0  0  0
   21.5286  -19.9775  -12.4434 N   0  0  0  0  0  0  0  0  0  0  0  0
   20.2240  -19.7901  -11.8432 C   0  0  0  0  0  0  0  0  0  0  0  0
   19.2628  -20.8682  -12.1598 C   0  0  0  0  0  0  0  0  0  0  0  0
   18.5938  -20.8074  -13.2081 O   0  0  0  0  0  0  0  0  0  0  0  0
   19.1228  -21.9217  -11.2899 O   0  0  0  0  0  0  0  0  0  0  0  0
  2  3  1  0
  2  1  1  6
  4  5  2  0
  4  3  1  0
  6  5  1  0
  7 12  2  0
  7  6  1  0
  8  7  1  0
  9 10  1  0
  9  8  2  0
 10 11  2  0
 11 12  1  0
 12  4  1  0
 13  2  1  0
 14 13  2  0
 15 13  1  0
 16 15  1  0
 16 17  1  6
 17 18  1  0
 18 22  1  0
 19 18  2  0
 20 16  1  0
 20 21  2  0
 23 20  1  0
 24 23  1  0
 24 25  1  0
 25 27  1  0
 26 25  2  0
M  END
$$$$
