WDG.pdb
     RDKit          3D

 27 28  0  0  1  0  0  0  0  0999 V2000
  -19.6076  -57.6425  -67.5329 N   0  0  0  0  0  0  0  0  0  0  0  0
  -20.3014  -58.2426  -66.4535 C   0  0  1  0  0  0  0  0  0  0  0  0
  -20.2563  -57.4167  -65.2164 C   0  0  0  0  0  0  0  0  0  0  0  0
  -20.7452  -58.1846  -64.0531 C   0  0  0  0  0  0  0  0  0  0  0  0
  -21.8601  -58.9966  -64.0306 C   0  0  0  0  0  0  0  0  0  0  0  0
  -21.9684  -59.5488  -62.8120 N   0  0  0  0  0  0  0  0  0  0  0  0
  -20.9621  -59.1183  -62.0535 C   0  0  0  0  0  0  0  0  0  0  0  0
  -20.6475  -59.3987  -60.7282 C   0  0  0  0  0  0  0  0  0  0  0  0
  -19.5464  -58.8324  -60.1175 C   0  0  0  0  0  0  0  0  0  0  0  0
  -18.7890  -57.9866  -60.8834 C   0  0  0  0  0  0  0  0  0  0  0  0
  -19.0733  -57.6893  -62.1960 C   0  0  0  0  0  0  0  0  0  0  0  0
  -20.1771  -58.2601  -62.8036 C   0  0  0  0  0  0  0  0  0  0  0  0
  -21.6904  -58.6468  -66.8218 C   0  0  0  0  0  0  0  0  0  0  0  0
  -22.2906  -59.4428  -66.0557 O   0  0  0  0  0  0  0  0  0  0  0  0
  -22.3743  -58.1980  -67.9676 N   0  0  0  0  0  0  0  0  0  0  0  0
  -21.9486  -57.0549  -68.7563 C   0  0  1  0  0  0  0  0  0  0  0  0
  -23.0894  -56.4098  -69.4781 C   0  0  0  0  0  0  0  0  0  0  0  0
  -22.7799  -55.1068  -70.0926 C   0  0  0  0  0  0  0  0  0  0  0  0
  -22.5255  -55.0007  -71.3098 O   0  0  0  0  0  0  0  0  0  0  0  0
  -21.1732  -56.1396  -67.8871 C   0  0  0  0  0  0  0  0  0  0  0  0
  -20.4416  -56.5989  -66.9498 O   0  0  0  0  0  0  0  0  0  0  0  0
  -22.7684  -53.9687  -69.3104 O   0  0  0  0  0  0  0  0  0  0  0  0
  -21.1801  -54.7248  -68.0234 N   0  0  0  0  0  0  0  0  0  0  0  0
  -20.0228  -53.9570  -68.4337 C   0  0  0  0  0  0  0  0  0  0  0  0
  -18.8093  -54.2374  -67.6367 C   0  0  0  0  0  0  0  0  0  0  0  0
  -17.6859  -54.0586  -68.1430 O   0  0  0  0  0  0  0  0  0  0  0  0
  -18.9414  -54.6920  -66.3474 O   0  0  0  0  0  0  0  0  0  0  0  0
  2  3  1  0
  2  1  1  6
  4  5  2  0
  4  3  1  0
  6  5  1  0
  7 12  2  0
  7  6  1  0
  8  7  1  0
  9 10  1  0
  9  8  2  0
 10 11  2  0
 11 12  1  0
 12  4  1  0
 13  2  1  0
 14 13  2  0
 15 13  1  0
 16 15  1  0
 16 17  1  1
 17 18  1  0
 18 22  1  0
 19 18  2  0
 20 16  1  0
 20 21  2  0
 23 20  1  0
 24 23  1  0
 24 25  1  0
 25 27  1  0
 26 25  2  0
M  END
$$$$
