WDG.pdb
     RDKit          3D

 27 28  0  0  1  0  0  0  0  0999 V2000
   27.0395  -21.2970  -13.7162 N   0  0  0  0  0  0  0  0  0  0  0  0
   26.0007  -21.2042  -12.7577 C   0  0  1  0  0  0  0  0  0  0  0  0
   26.2590  -20.1534  -11.7360 C   0  0  0  0  0  0  0  0  0  0  0  0
   27.4074  -20.5205  -10.8826 C   0  0  0  0  0  0  0  0  0  0  0  0
   28.6689  -20.8598  -11.3261 C   0  0  0  0  0  0  0  0  0  0  0  0
   29.4510  -21.1004  -10.2621 N   0  0  0  0  0  0  0  0  0  0  0  0
   28.7343  -20.9276   -9.1532 C   0  0  0  0  0  0  0  0  0  0  0  0
   29.0934  -21.0642   -7.8167 C   0  0  0  0  0  0  0  0  0  0  0  0
   28.1822  -20.8434   -6.8033 C   0  0  0  0  0  0  0  0  0  0  0  0
   26.9165  -20.4859   -7.1852 C   0  0  0  0  0  0  0  0  0  0  0  0
   26.5303  -20.3424   -8.4977 C   0  0  0  0  0  0  0  0  0  0  0  0
   27.4474  -20.5637   -9.5092 C   0  0  0  0  0  0  0  0  0  0  0  0
   24.6535  -21.0721  -13.3870 C   0  0  0  0  0  0  0  0  0  0  0  0
   24.4904  -20.1565  -14.2331 O   0  0  0  0  0  0  0  0  0  0  0  0
   23.5535  -21.9020  -13.0983 N   0  0  0  0  0  0  0  0  0  0  0  0
   22.2654  -21.7807  -13.7587 C   0  0  1  0  0  0  0  0  0  0  0  0
   22.1764  -22.6334  -14.9849 C   0  0  0  0  0  0  0  0  0  0  0  0
   20.9649  -22.4289  -15.7984 C   0  0  0  0  0  0  0  0  0  0  0  0
   20.2068  -23.3753  -16.0934 O   0  0  0  0  0  0  0  0  0  0  0  0
   21.1957  -22.0210  -12.7624 C   0  0  0  0  0  0  0  0  0  0  0  0
   21.0718  -23.1608  -12.2052 O   0  0  0  0  0  0  0  0  0  0  0  0
   20.6521  -21.1619  -16.2504 O   0  0  0  0  0  0  0  0  0  0  0  0
   20.2546  -21.0350  -12.3595 N   0  0  0  0  0  0  0  0  0  0  0  0
   18.9077  -20.9553  -12.8856 C   0  0  0  0  0  0  0  0  0  0  0  0
   18.0417  -22.0822  -12.4775 C   0  0  0  0  0  0  0  0  0  0  0  0
   16.8111  -21.9129  -12.3928 O   0  0  0  0  0  0  0  0  0  0  0  0
   18.6103  -23.3007  -12.1975 O   0  0  0  0  0  0  0  0  0  0  0  0
  2  3  1  0
  2  1  1  6
  4  5  2  0
  4  3  1  0
  6  5  1  0
  7 12  2  0
  7  6  1  0
  8  7  1  0
  9 10  1  0
  9  8  2  0
 10 11  2  0
 11 12  1  0
 12  4  1  0
 13  2  1  0
 14 13  2  0
 15 13  1  0
 16 15  1  0
 16 17  1  6
 17 18  1  0
 18 22  1  0
 19 18  2  0
 20 16  1  0
 20 21  2  0
 23 20  1  0
 24 23  1  0
 24 25  1  0
 25 27  1  0
 26 25  2  0
M  END
$$$$
