WDG.pdb
     RDKit          3D

 27 28  0  0  1  0  0  0  0  0999 V2000
   29.5266  -36.1710   -5.7148 N   0  0  0  0  0  0  0  0  0  0  0  0
   28.6744  -35.4195   -4.8689 C   0  0  1  0  0  0  0  0  0  0  0  0
   27.3088  -35.2534   -5.4366 C   0  0  0  0  0  0  0  0  0  0  0  0
   27.3317  -34.3524   -6.6069 C   0  0  0  0  0  0  0  0  0  0  0  0
   28.1994  -34.4370   -7.6759 C   0  0  0  0  0  0  0  0  0  0  0  0
   27.8977  -33.4689   -8.5554 N   0  0  0  0  0  0  0  0  0  0  0  0
   26.8676  -32.7672   -8.0865 C   0  0  0  0  0  0  0  0  0  0  0  0
   26.2022  -31.6717   -8.6259 C   0  0  0  0  0  0  0  0  0  0  0  0
   25.1469  -31.0766   -7.9639 C   0  0  0  0  0  0  0  0  0  0  0  0
   24.7961  -31.6209   -6.7572 C   0  0  0  0  0  0  0  0  0  0  0  0
   25.4337  -32.7035   -6.1971 C   0  0  0  0  0  0  0  0  0  0  0  0
   26.4898  -33.2968   -6.8649 C   0  0  0  0  0  0  0  0  0  0  0  0
   28.6536  -35.9413   -3.4704 C   0  0  0  0  0  0  0  0  0  0  0  0
   28.7752  -37.1821   -3.3072 O   0  0  0  0  0  0  0  0  0  0  0  0
   28.5073  -35.1399   -2.3222 N   0  0  0  0  0  0  0  0  0  0  0  0
   28.4356  -35.6786   -0.9751 C   0  0  1  0  0  0  0  0  0  0  0  0
   29.3805  -34.9914   -0.0406 C   0  0  0  0  0  0  0  0  0  0  0  0
   30.8050  -35.2995   -0.2581 C   0  0  0  0  0  0  0  0  0  0  0  0
   31.6849  -34.4180   -0.1803 O   0  0  0  0  0  0  0  0  0  0  0  0
   27.0210  -35.6726   -0.5353 C   0  0  0  0  0  0  0  0  0  0  0  0
   26.7073  -36.0313    0.6470 O   0  0  0  0  0  0  0  0  0  0  0  0
   31.1857  -36.5932   -0.5561 O   0  0  0  0  0  0  0  0  0  0  0  0
   25.9366  -35.2789   -1.3656 N   0  0  0  0  0  0  0  0  0  0  0  0
   24.5641  -35.2134   -0.9081 C   0  0  0  0  0  0  0  0  0  0  0  0
   23.8525  -36.5079   -0.9734 C   0  0  0  0  0  0  0  0  0  0  0  0
   23.1175  -36.7574   -1.9469 O   0  0  0  0  0  0  0  0  0  0  0  0
   24.0141  -37.4166    0.0437 O   0  0  0  0  0  0  0  0  0  0  0  0
  2  3  1  0
  2  1  1  6
  4  5  2  0
  4  3  1  0
  6  5  1  0
  7 12  2  0
  7  6  1  0
  8  7  1  0
  9 10  1  0
  9  8  2  0
 10 11  2  0
 11 12  1  0
 12  4  1  0
 13  2  1  0
 14 13  2  0
 15 13  1  0
 16 15  1  0
 16 17  1  1
 17 18  1  0
 18 22  1  0
 19 18  2  0
 20 16  1  0
 20 21  2  0
 23 20  1  0
 24 23  1  0
 24 25  1  0
 25 27  1  0
 26 25  2  0
M  END
$$$$
