WDG.pdb
     RDKit          3D

 27 28  0  0  1  0  0  0  0  0999 V2000
   14.0937  -13.3918    5.5813 N   0  0  0  0  0  0  0  0  0  0  0  0
   14.9756  -14.4208    5.1688 C   0  0  1  0  0  0  0  0  0  0  0  0
   15.7326  -14.0643    3.9382 C   0  0  0  0  0  0  0  0  0  0  0  0
   16.1766  -15.2784    3.2235 C   0  0  0  0  0  0  0  0  0  0  0  0
   15.4302  -16.4226    3.0318 C   0  0  0  0  0  0  0  0  0  0  0  0
   16.1542  -17.2961    2.3146 N   0  0  0  0  0  0  0  0  0  0  0  0
   17.3381  -16.7514    2.0409 C   0  0  0  0  0  0  0  0  0  0  0  0
   18.4244  -17.2606    1.3377 C   0  0  0  0  0  0  0  0  0  0  0  0
   19.5805  -16.5244    1.1726 C   0  0  0  0  0  0  0  0  0  0  0  0
   19.5970  -15.2760    1.7356 C   0  0  0  0  0  0  0  0  0  0  0  0
   18.5396  -14.7439    2.4365 C   0  0  0  0  0  0  0  0  0  0  0  0
   17.3831  -15.4853    2.5981 C   0  0  0  0  0  0  0  0  0  0  0  0
   15.8650  -14.8871    6.2733 C   0  0  0  0  0  0  0  0  0  0  0  0
   16.1356  -14.0709    7.1906 O   0  0  0  0  0  0  0  0  0  0  0  0
   16.4214  -16.1775    6.3584 N   0  0  0  0  0  0  0  0  0  0  0  0
   17.1326  -16.6661    7.5270 C   0  0  1  0  0  0  0  0  0  0  0  0
   16.7096  -18.0496    7.9085 C   0  0  0  0  0  0  0  0  0  0  0  0
   15.4029  -18.1367    8.5841 C   0  0  0  0  0  0  0  0  0  0  0  0
   14.8133  -17.1197    9.0031 O   0  0  0  0  0  0  0  0  0  0  0  0
   18.5877  -16.5078    7.2987 C   0  0  0  0  0  0  0  0  0  0  0  0
   19.1256  -16.9294    6.2227 O   0  0  0  0  0  0  0  0  0  0  0  0
   14.8079  -19.3701    8.7629 O   0  0  0  0  0  0  0  0  0  0  0  0
   19.4713  -15.8933    8.2271 N   0  0  0  0  0  0  0  0  0  0  0  0
   20.9028  -15.8036    8.0270 C   0  0  0  0  0  0  0  0  0  0  0  0
   21.6374  -17.0227    8.4276 C   0  0  0  0  0  0  0  0  0  0  0  0
   21.0055  -18.0169    8.8308 O   0  0  0  0  0  0  0  0  0  0  0  0
   23.0084  -17.0388    8.3484 O   0  0  0  0  0  0  0  0  0  0  0  0
  2  3  1  0
  2  1  1  1
  4  5  2  0
  4  3  1  0
  6  5  1  0
  7 12  2  0
  7  6  1  0
  8  7  1  0
  9 10  1  0
  9  8  2  0
 10 11  2  0
 11 12  1  0
 12  4  1  0
 13  2  1  0
 14 13  2  0
 15 13  1  0
 16 15  1  0
 16 17  1  6
 17 18  1  0
 18 22  1  0
 19 18  2  0
 20 16  1  0
 20 21  2  0
 23 20  1  0
 24 23  1  0
 24 25  1  0
 25 27  1  0
 26 25  2  0
M  END
$$$$
