WDG.pdb
     RDKit          3D

 27 28  0  0  1  0  0  0  0  0999 V2000
   26.2566  -21.6617   -8.0494 N   0  0  0  0  0  0  0  0  0  0  0  0
   26.0657  -20.5257   -8.8738 C   0  0  1  0  0  0  0  0  0  0  0  0
   27.3288  -19.7765   -9.1145 C   0  0  0  0  0  0  0  0  0  0  0  0
   27.8140  -19.1491   -7.8683 C   0  0  0  0  0  0  0  0  0  0  0  0
   28.6294  -18.0395   -7.7857 C   0  0  0  0  0  0  0  0  0  0  0  0
   28.8320  -17.7473   -6.4914 N   0  0  0  0  0  0  0  0  0  0  0  0
   28.1753  -18.6312   -5.7426 C   0  0  0  0  0  0  0  0  0  0  0  0
   28.0828  -18.7503   -4.3602 C   0  0  0  0  0  0  0  0  0  0  0  0
   27.3448  -19.7599   -3.7754 C   0  0  0  0  0  0  0  0  0  0  0  0
   26.7152  -20.6295   -4.6258 C   0  0  0  0  0  0  0  0  0  0  0  0
   26.7869  -20.5386   -5.9965 C   0  0  0  0  0  0  0  0  0  0  0  0
   27.5268  -19.5245   -6.5775 C   0  0  0  0  0  0  0  0  0  0  0  0
   25.3442  -20.8533  -10.1389 C   0  0  0  0  0  0  0  0  0  0  0  0
   25.6492  -21.9223  -10.7263 O   0  0  0  0  0  0  0  0  0  0  0  0
   24.3460  -20.0478  -10.7193 N   0  0  0  0  0  0  0  0  0  0  0  0
   23.6676  -20.3843  -11.9589 C   0  0  1  0  0  0  0  0  0  0  0  0
   22.3770  -19.6439  -12.1158 C   0  0  0  0  0  0  0  0  0  0  0  0
   21.3854  -19.8900  -11.0540 C   0  0  0  0  0  0  0  0  0  0  0  0
   21.0098  -21.0441  -10.7635 O   0  0  0  0  0  0  0  0  0  0  0  0
   24.6173  -20.2118  -13.0827 C   0  0  0  0  0  0  0  0  0  0  0  0
   25.3866  -19.1966  -13.1324 O   0  0  0  0  0  0  0  0  0  0  0  0
   20.8525  -18.8233  -10.3572 O   0  0  0  0  0  0  0  0  0  0  0  0
   24.7449  -21.1323  -14.1582 N   0  0  0  0  0  0  0  0  0  0  0  0
   25.7142  -20.9847  -15.2240 C   0  0  0  0  0  0  0  0  0  0  0  0
   27.0614  -21.4860  -14.8771 C   0  0  0  0  0  0  0  0  0  0  0  0
   27.9766  -21.4233  -15.7189 O   0  0  0  0  0  0  0  0  0  0  0  0
   27.2818  -22.0143  -13.6286 O   0  0  0  0  0  0  0  0  0  0  0  0
  2  3  1  0
  2  1  1  6
  4  5  2  0
  4  3  1  0
  6  5  1  0
  7 12  2  0
  7  6  1  0
  8  7  1  0
  9 10  1  0
  9  8  2  0
 10 11  2  0
 11 12  1  0
 12  4  1  0
 13  2  1  0
 14 13  2  0
 15 13  1  0
 16 15  1  0
 16 17  1  6
 17 18  1  0
 18 22  1  0
 19 18  2  0
 20 16  1  0
 20 21  2  0
 23 20  1  0
 24 23  1  0
 24 25  1  0
 25 27  1  0
 26 25  2  0
M  END
$$$$
