WDG.pdb
     RDKit          3D

 27 28  0  0  1  0  0  0  0  0999 V2000
   25.1716  -19.2056   -9.0198 N   0  0  0  0  0  0  0  0  0  0  0  0
   25.1548  -20.1708  -10.0565 C   0  0  1  0  0  0  0  0  0  0  0  0
   25.8814  -21.4162   -9.6885 C   0  0  0  0  0  0  0  0  0  0  0  0
   27.2225  -21.1043   -9.1536 C   0  0  0  0  0  0  0  0  0  0  0  0
   28.4145  -21.2271   -9.8370 C   0  0  0  0  0  0  0  0  0  0  0  0
   29.4147  -20.8240   -9.0378 N   0  0  0  0  0  0  0  0  0  0  0  0
   28.9048  -20.4480   -7.8665 C   0  0  0  0  0  0  0  0  0  0  0  0
   29.5318  -19.9655   -6.7229 C   0  0  0  0  0  0  0  0  0  0  0  0
   28.8090  -19.6364   -5.5936 C   0  0  0  0  0  0  0  0  0  0  0  0
   27.4524  -19.8106   -5.6627 C   0  0  0  0  0  0  0  0  0  0  0  0
   26.8025  -20.2853   -6.7784 C   0  0  0  0  0  0  0  0  0  0  0  0
   27.5312  -20.6126   -7.9076 C   0  0  0  0  0  0  0  0  0  0  0  0
   23.7768  -20.4403  -10.5633 C   0  0  0  0  0  0  0  0  0  0  0  0
   22.8842  -20.7051   -9.7182 O   0  0  0  0  0  0  0  0  0  0  0  0
   23.4080  -20.4182  -11.9217 N   0  0  0  0  0  0  0  0  0  0  0  0
   22.0499  -20.6430  -12.3853 C   0  0  1  0  0  0  0  0  0  0  0  0
   21.5628  -19.5360  -13.2661 C   0  0  0  0  0  0  0  0  0  0  0  0
   21.0884  -18.3366  -12.5535 C   0  0  0  0  0  0  0  0  0  0  0  0
   21.3540  -17.1864  -12.9584 O   0  0  0  0  0  0  0  0  0  0  0  0
   21.9715  -21.9924  -12.9915 C   0  0  0  0  0  0  0  0  0  0  0  0
   22.8923  -22.4096  -13.7680 O   0  0  0  0  0  0  0  0  0  0  0  0
   20.3302  -18.4787  -11.4079 O   0  0  0  0  0  0  0  0  0  0  0  0
   20.9020  -22.9004  -12.7638 N   0  0  0  0  0  0  0  0  0  0  0  0
   20.7340  -24.1362  -13.4999 C   0  0  0  0  0  0  0  0  0  0  0  0
   19.6085  -24.9666  -13.0200 C   0  0  0  0  0  0  0  0  0  0  0  0
   18.9908  -24.6307  -11.9925 O   0  0  0  0  0  0  0  0  0  0  0  0
   19.2620  -26.0980  -13.7172 O   0  0  0  0  0  0  0  0  0  0  0  0
  2  3  1  0
  2  1  1  1
  4  5  2  0
  4  3  1  0
  6  5  1  0
  7 12  2  0
  7  6  1  0
  8  7  1  0
  9 10  1  0
  9  8  2  0
 10 11  2  0
 11 12  1  0
 12  4  1  0
 13  2  1  0
 14 13  2  0
 15 13  1  0
 16 15  1  0
 16 17  1  6
 17 18  1  0
 18 22  1  0
 19 18  2  0
 20 16  1  0
 20 21  2  0
 23 20  1  0
 24 23  1  0
 24 25  1  0
 25 27  1  0
 26 25  2  0
M  END
$$$$
