WDG.pdb
     RDKit          3D

 27 28  0  0  1  0  0  0  0  0999 V2000
   16.1697  -16.5128    7.0515 N   0  0  0  0  0  0  0  0  0  0  0  0
   17.2790  -17.2133    6.5174 C   0  0  1  0  0  0  0  0  0  0  0  0
   18.5537  -16.4590    6.6620 C   0  0  0  0  0  0  0  0  0  0  0  0
   18.4686  -15.1480    5.9867 C   0  0  0  0  0  0  0  0  0  0  0  0
   17.4519  -14.7327    5.1519 C   0  0  0  0  0  0  0  0  0  0  0  0
   17.7055  -13.4762    4.7537 N   0  0  0  0  0  0  0  0  0  0  0  0
   18.8491  -13.0728    5.3039 C   0  0  0  0  0  0  0  0  0  0  0  0
   19.5278  -11.8644    5.1903 C   0  0  0  0  0  0  0  0  0  0  0  0
   20.7228  -11.6488    5.8472 C   0  0  0  0  0  0  0  0  0  0  0  0
   21.1975  -12.6828    6.6096 C   0  0  0  0  0  0  0  0  0  0  0  0
   20.5503  -13.8893    6.7424 C   0  0  0  0  0  0  0  0  0  0  0  0
   19.3527  -14.0998    6.0830 C   0  0  0  0  0  0  0  0  0  0  0  0
   17.3774  -18.6089    7.0382 C   0  0  0  0  0  0  0  0  0  0  0  0
   16.9879  -18.8231    8.2143 O   0  0  0  0  0  0  0  0  0  0  0  0
   17.8759  -19.7012    6.3031 N   0  0  0  0  0  0  0  0  0  0  0  0
   18.1502  -21.0013    6.8899 C   0  0  1  0  0  0  0  0  0  0  0  0
   18.1652  -22.0919    5.8656 C   0  0  0  0  0  0  0  0  0  0  0  0
   18.3870  -23.4463    6.4020 C   0  0  0  0  0  0  0  0  0  0  0  0
   17.7846  -23.8561    7.4152 O   0  0  0  0  0  0  0  0  0  0  0  0
   19.3836  -20.9046    7.7048 C   0  0  0  0  0  0  0  0  0  0  0  0
   20.4477  -20.4024    7.2146 O   0  0  0  0  0  0  0  0  0  0  0  0
   19.2819  -24.2907    5.7748 O   0  0  0  0  0  0  0  0  0  0  0  0
   19.4773  -21.3467    9.0524 N   0  0  0  0  0  0  0  0  0  0  0  0
   20.7278  -21.4372    9.7773 C   0  0  0  0  0  0  0  0  0  0  0  0
   21.2017  -20.1419   10.3105 C   0  0  0  0  0  0  0  0  0  0  0  0
   20.5517  -19.1059   10.0772 O   0  0  0  0  0  0  0  0  0  0  0  0
   22.3544  -20.1025   11.0562 O   0  0  0  0  0  0  0  0  0  0  0  0
  2  3  1  0
  2  1  1  1
  4  5  2  0
  4  3  1  0
  6  5  1  0
  7 12  2  0
  7  6  1  0
  8  7  1  0
  9 10  1  0
  9  8  2  0
 10 11  2  0
 11 12  1  0
 12  4  1  0
 13  2  1  0
 14 13  2  0
 15 13  1  0
 16 15  1  0
 16 17  1  6
 17 18  1  0
 18 22  1  0
 19 18  2  0
 20 16  1  0
 20 21  2  0
 23 20  1  0
 24 23  1  0
 24 25  1  0
 25 27  1  0
 26 25  2  0
M  END
$$$$
