WDG.pdb
     RDKit          3D

 27 28  0  0  1  0  0  0  0  0999 V2000
   14.5989  -17.9002    5.3630 N   0  0  0  0  0  0  0  0  0  0  0  0
   15.9936  -18.1481    5.3604 C   0  0  1  0  0  0  0  0  0  0  0  0
   16.7883  -16.9424    5.7201 C   0  0  0  0  0  0  0  0  0  0  0  0
   17.3589  -16.3093    4.5136 C   0  0  0  0  0  0  0  0  0  0  0  0
   17.3826  -16.8565    3.2474 C   0  0  0  0  0  0  0  0  0  0  0  0
   17.9530  -15.9784    2.4076 N   0  0  0  0  0  0  0  0  0  0  0  0
   18.2958  -14.8887    3.0919 C   0  0  0  0  0  0  0  0  0  0  0  0
   18.9161  -13.7173    2.6711 C   0  0  0  0  0  0  0  0  0  0  0  0
   19.1945  -12.6955    3.5566 C   0  0  0  0  0  0  0  0  0  0  0  0
   18.8290  -12.8989    4.8607 C   0  0  0  0  0  0  0  0  0  0  0  0
   18.2143  -14.0453    5.3082 C   0  0  0  0  0  0  0  0  0  0  0  0
   17.9366  -15.0657    4.4166 C   0  0  0  0  0  0  0  0  0  0  0  0
   16.3627  -19.3417    6.1774 C   0  0  0  0  0  0  0  0  0  0  0  0
   15.5989  -19.6619    7.1235 O   0  0  0  0  0  0  0  0  0  0  0  0
   17.5066  -20.1334    5.9614 N   0  0  0  0  0  0  0  0  0  0  0  0
   17.8593  -21.2721    6.7914 C   0  0  1  0  0  0  0  0  0  0  0  0
   18.4961  -22.3716    6.0014 C   0  0  0  0  0  0  0  0  0  0  0  0
   18.8014  -23.5924    6.7681 C   0  0  0  0  0  0  0  0  0  0  0  0
   17.9275  -24.1815    7.4365 O   0  0  0  0  0  0  0  0  0  0  0  0
   18.6636  -20.7929    7.9394 C   0  0  0  0  0  0  0  0  0  0  0  0
   18.8780  -21.5495    8.9426 O   0  0  0  0  0  0  0  0  0  0  0  0
   20.0836  -24.1051    6.7529 O   0  0  0  0  0  0  0  0  0  0  0  0
   19.2428  -19.4970    8.0127 N   0  0  0  0  0  0  0  0  0  0  0  0
   20.0111  -19.0294    9.1478 C   0  0  0  0  0  0  0  0  0  0  0  0
   21.2095  -19.8474    9.4331 C   0  0  0  0  0  0  0  0  0  0  0  0
   21.4023  -20.8992    8.7953 O   0  0  0  0  0  0  0  0  0  0  0  0
   22.0927  -19.4328   10.3997 O   0  0  0  0  0  0  0  0  0  0  0  0
  2  3  1  0
  2  1  1  1
  4  5  2  0
  4  3  1  0
  6  5  1  0
  7 12  2  0
  7  6  1  0
  8  7  1  0
  9 10  1  0
  9  8  2  0
 10 11  2  0
 11 12  1  0
 12  4  1  0
 13  2  1  0
 14 13  2  0
 15 13  1  0
 16 15  1  0
 16 17  1  6
 17 18  1  0
 18 22  1  0
 19 18  2  0
 20 16  1  0
 20 21  2  0
 23 20  1  0
 24 23  1  0
 24 25  1  0
 25 27  1  0
 26 25  2  0
M  END
$$$$
