WDG.pdb
     RDKit          3D

 27 28  0  0  1  0  0  0  0  0999 V2000
   19.5687  -20.5201  -13.1440 N   0  0  0  0  0  0  0  0  0  0  0  0
   18.9678  -21.8027  -13.1245 C   0  0  1  0  0  0  0  0  0  0  0  0
   19.9699  -22.9027  -13.1460 C   0  0  0  0  0  0  0  0  0  0  0  0
   20.9074  -22.7382  -14.2755 C   0  0  0  0  0  0  0  0  0  0  0  0
   22.0823  -22.0157  -14.2529 C   0  0  0  0  0  0  0  0  0  0  0  0
   22.6780  -22.1211  -15.4511 N   0  0  0  0  0  0  0  0  0  0  0  0
   21.9253  -22.8853  -16.2402 C   0  0  0  0  0  0  0  0  0  0  0  0
   22.1129  -23.2781  -17.5609 C   0  0  0  0  0  0  0  0  0  0  0  0
   21.1933  -24.0789  -18.2083 C   0  0  0  0  0  0  0  0  0  0  0  0
   20.0961  -24.4607  -17.4830 C   0  0  0  0  0  0  0  0  0  0  0  0
   19.8818  -24.0894  -16.1758 C   0  0  0  0  0  0  0  0  0  0  0  0
   20.8067  -23.2878  -15.5315 C   0  0  0  0  0  0  0  0  0  0  0  0
   17.9770  -21.9522  -12.0180 C   0  0  0  0  0  0  0  0  0  0  0  0
   18.2924  -21.5047  -10.8861 O   0  0  0  0  0  0  0  0  0  0  0  0
   16.7143  -22.5594  -12.1547 N   0  0  0  0  0  0  0  0  0  0  0  0
   15.7551  -22.6629  -11.0687 C   0  0  1  0  0  0  0  0  0  0  0  0
   14.3482  -22.4613  -11.5362 C   0  0  0  0  0  0  0  0  0  0  0  0
   13.9986  -21.0706  -11.8758 C   0  0  0  0  0  0  0  0  0  0  0  0
   13.3005  -20.7958  -12.8730 O   0  0  0  0  0  0  0  0  0  0  0  0
   15.9882  -23.9360  -10.3480 C   0  0  0  0  0  0  0  0  0  0  0  0
   16.4032  -24.9679  -10.9708 O   0  0  0  0  0  0  0  0  0  0  0  0
   14.4501  -20.0387  -11.0767 O   0  0  0  0  0  0  0  0  0  0  0  0
   15.7772  -24.1045   -8.9526 N   0  0  0  0  0  0  0  0  0  0  0  0
   16.0135  -25.3513   -8.2546 C   0  0  0  0  0  0  0  0  0  0  0  0
   17.1903  -25.3188   -7.3599 C   0  0  0  0  0  0  0  0  0  0  0  0
   17.9090  -24.3027   -7.3255 O   0  0  0  0  0  0  0  0  0  0  0  0
   17.4726  -26.4131   -6.5795 O   0  0  0  0  0  0  0  0  0  0  0  0
  2  3  1  0
  2  1  1  1
  4  5  2  0
  4  3  1  0
  6  5  1  0
  7 12  2  0
  7  6  1  0
  8  7  1  0
  9 10  1  0
  9  8  2  0
 10 11  2  0
 11 12  1  0
 12  4  1  0
 13  2  1  0
 14 13  2  0
 15 13  1  0
 16 15  1  0
 16 17  1  6
 17 18  1  0
 18 22  1  0
 19 18  2  0
 20 16  1  0
 20 21  2  0
 23 20  1  0
 24 23  1  0
 24 25  1  0
 25 27  1  0
 26 25  2  0
M  END
$$$$
