WIM.pdb
     RDKit          3D

 31 32  0  0  1  0  0  0  0  0999 V2000
    5.7579  -18.3659   24.1691 N   0  0  0  0  0  0  0  0  0  0  0  0
    6.4078  -17.1016   24.2682 C   0  0  1  0  0  0  0  0  0  0  0  0
    6.8719  -16.8556   25.6756 C   0  0  0  0  0  0  0  0  0  0  0  0
    6.3665  -15.5394   26.1327 C   0  0  0  0  0  0  0  0  0  0  0  0
    5.1242  -15.3283   26.7461 C   0  0  0  0  0  0  0  0  0  0  0  0
    4.9855  -14.0334   27.0665 N   0  0  0  0  0  0  0  0  0  0  0  0
    6.0969  -13.3959   26.6807 C   0  0  0  0  0  0  0  0  0  0  0  0
    6.4270  -12.0619   26.7837 C   0  0  0  0  0  0  0  0  0  0  0  0
    7.6345  -11.6127   26.3060 C   0  0  0  0  0  0  0  0  0  0  0  0
    8.4908  -12.5148   25.7313 C   0  0  0  0  0  0  0  0  0  0  0  0
    8.1700  -13.8614   25.6217 C   0  0  0  0  0  0  0  0  0  0  0  0
    6.9599  -14.3000   26.1039 C   0  0  0  0  0  0  0  0  0  0  0  0
    7.5375  -16.9737   23.2954 C   0  0  0  0  0  0  0  0  0  0  0  0
    8.2349  -17.9745   23.0901 O   0  0  0  0  0  0  0  0  0  0  0  0
    7.0159  -13.1747   19.6201 C   0  0  0  0  0  0  0  0  0  0  0  0
    7.4635  -14.4857   20.2386 C   0  0  0  0  0  0  0  0  0  0  0  0
    8.7744  -14.4102   20.9080 C   0  0  2  0  0  0  0  0  0  0  0  0
    9.9241  -14.0796   19.9886 C   0  0  0  0  0  0  0  0  0  0  0  0
    9.0424  -15.5683   21.8104 C   0  0  2  0  0  0  0  0  0  0  0  0
    7.8320  -15.7760   22.6164 N   0  0  0  0  0  0  0  0  0  0  0  0
   10.1967  -15.4613   22.6948 C   0  0  0  0  0  0  0  0  0  0  0  0
   10.5780  -14.2886   23.0382 O   0  0  0  0  0  0  0  0  0  0  0  0
   10.0967  -13.7534   27.2224 C   0  0  0  0  0  0  0  0  0  0  0  0
   11.6162  -14.5259   27.8464 S   0  0  0  0  0  0  0  0  0  0  0  0
   12.4222  -15.5252   26.5469 C   0  0  0  0  0  0  0  0  0  0  0  0
   11.4619  -15.6245   25.4062 C   0  0  0  0  0  0  0  0  0  0  0  0
   12.0448  -16.2938   24.1846 C   0  0  2  0  0  0  0  0  0  0  0  0
   10.9672  -16.5057   23.2390 N   0  0  0  0  0  0  0  0  0  0  0  0
   12.6158  -17.6137   24.6088 C   0  0  0  0  0  0  0  0  0  0  0  0
   12.1026  -18.8291   24.2372 O   0  0  0  0  0  0  0  0  0  0  0  0
   13.6351  -17.6070   25.3570 O   0  0  0  0  0  0  0  0  0  0  0  0
  2  1  1  1
  2 13  1  0
  2  3  1  0
  3  4  1  0
  4  5  2  0
  5  6  1  0
  7  6  1  0
  8  7  2  0
  9  8  1  0
 10 11  1  0
 10  9  2  0
 11 12  2  0
 12  4  1  0
 12  7  1  0
 13 14  2  0
 15 16  1  0
 16 17  1  0
 17 18  1  6
 19 17  1  0
 20 13  1  0
 19 20  1  1
 21 22  2  0
 21 19  1  0
 23 24  1  0
 24 25  1  0
 26 25  1  0
 27 26  1  1
 27 28  1  0
 28 21  1  0
 29 30  1  0
 29 27  1  0
 31 29  2  0
M  END
$$$$
