WIM.pdb
     RDKit          3D

 31 32  0  0  1  0  0  0  0  0999 V2000
    5.8845  -18.0918   24.2959 N   0  0  0  0  0  0  0  0  0  0  0  0
    6.5591  -16.8442   24.1573 C   0  0  1  0  0  0  0  0  0  0  0  0
    7.2128  -16.4511   25.4514 C   0  0  0  0  0  0  0  0  0  0  0  0
    6.5038  -15.2802   26.0198 C   0  0  0  0  0  0  0  0  0  0  0  0
    5.2780  -15.3381   26.6968 C   0  0  0  0  0  0  0  0  0  0  0  0
    4.9258  -14.1125   27.1126 N   0  0  0  0  0  0  0  0  0  0  0  0
    5.8823  -13.2600   26.7271 C   0  0  0  0  0  0  0  0  0  0  0  0
    5.9721  -11.8970   26.9097 C   0  0  0  0  0  0  0  0  0  0  0  0
    7.0521  -11.2059   26.4155 C   0  0  0  0  0  0  0  0  0  0  0  0
    8.0250  -11.8990   25.7445 C   0  0  0  0  0  0  0  0  0  0  0  0
    7.9463  -13.2723   25.5541 C   0  0  0  0  0  0  0  0  0  0  0  0
    6.8621  -13.9537   26.0536 C   0  0  0  0  0  0  0  0  0  0  0  0
    7.5483  -16.8631   23.0348 C   0  0  0  0  0  0  0  0  0  0  0  0
    7.9108  -17.9656   22.6069 O   0  0  0  0  0  0  0  0  0  0  0  0
    7.3740  -12.7716   19.6001 C   0  0  0  0  0  0  0  0  0  0  0  0
    7.5944  -14.1697   20.1463 C   0  0  0  0  0  0  0  0  0  0  0  0
    8.9559  -14.3985   20.6620 C   0  0  2  0  0  0  0  0  0  0  0  0
   10.0518  -14.1565   19.6537 C   0  0  0  0  0  0  0  0  0  0  0  0
    9.0965  -15.6868   21.4024 C   0  0  2  0  0  0  0  0  0  0  0  0
    8.0740  -15.6916   22.4571 N   0  0  0  0  0  0  0  0  0  0  0  0
   10.3991  -15.9681   21.9940 C   0  0  0  0  0  0  0  0  0  0  0  0
   11.3883  -15.2412   21.6313 O   0  0  0  0  0  0  0  0  0  0  0  0
   10.1406  -14.5789   28.4065 C   0  0  0  0  0  0  0  0  0  0  0  0
   11.2744  -14.5245   26.9900 S   0  0  0  0  0  0  0  0  0  0  0  0
   10.9681  -15.9220   25.8541 C   0  0  0  0  0  0  0  0  0  0  0  0
   11.8320  -15.7128   24.6528 C   0  0  0  0  0  0  0  0  0  0  0  0
   11.9195  -16.9241   23.7554 C   0  0  2  0  0  0  0  0  0  0  0  0
   10.7219  -16.9588   22.9401 N   0  0  0  0  0  0  0  0  0  0  0  0
   11.9762  -18.1423   24.6277 C   0  0  0  0  0  0  0  0  0  0  0  0
   13.0716  -18.5107   25.3645 O   0  0  0  0  0  0  0  0  0  0  0  0
   10.9493  -18.8777   24.6883 O   0  0  0  0  0  0  0  0  0  0  0  0
  2  1  1  1
  2 13  1  0
  2  3  1  0
  3  4  1  0
  4  5  2  0
  5  6  1  0
  7  6  1  0
  8  7  2  0
  9  8  1  0
 10 11  1  0
 10  9  2  0
 11 12  2  0
 12  4  1  0
 12  7  1  0
 13 14  2  0
 15 16  1  0
 16 17  1  0
 17 18  1  6
 19 17  1  0
 20 13  1  0
 19 20  1  1
 21 22  2  0
 21 19  1  0
 23 24  1  0
 24 25  1  0
 26 25  1  0
 27 26  1  1
 27 28  1  0
 28 21  1  0
 29 30  1  0
 29 27  1  0
 31 29  2  0
M  END
$$$$
