WIM.pdb
     RDKit          3D

 31 32  0  0  1  0  0  0  0  0999 V2000
    5.7979  -17.8778   24.5825 N   0  0  0  0  0  0  0  0  0  0  0  0
    6.5216  -16.6638   24.4003 C   0  0  1  0  0  0  0  0  0  0  0  0
    7.1695  -16.2374   25.6868 C   0  0  0  0  0  0  0  0  0  0  0  0
    6.5216  -14.9954   26.1708 C   0  0  0  0  0  0  0  0  0  0  0  0
    5.1841  -14.8968   26.5780 C   0  0  0  0  0  0  0  0  0  0  0  0
    4.9212  -13.6476   26.9892 N   0  0  0  0  0  0  0  0  0  0  0  0
    6.0439  -12.9309   26.8618 C   0  0  0  0  0  0  0  0  0  0  0  0
    6.2766  -11.6023   27.1442 C   0  0  0  0  0  0  0  0  0  0  0  0
    7.5200  -11.0596   26.9256 C   0  0  0  0  0  0  0  0  0  0  0  0
    8.5097  -11.8642   26.4254 C   0  0  0  0  0  0  0  0  0  0  0  0
    8.2880  -13.2043   26.1370 C   0  0  0  0  0  0  0  0  0  0  0  0
    7.0408  -13.7370   26.3604 C   0  0  0  0  0  0  0  0  0  0  0  0
    7.5269  -16.7701   23.2971 C   0  0  0  0  0  0  0  0  0  0  0  0
    8.0269  -17.8807   23.0806 O   0  0  0  0  0  0  0  0  0  0  0  0
    7.2771  -12.8716   19.6961 C   0  0  0  0  0  0  0  0  0  0  0  0
    7.4994  -14.0102   20.6738 C   0  0  0  0  0  0  0  0  0  0  0  0
    8.8344  -14.6267   20.5745 C   0  0  2  0  0  0  0  0  0  0  0  0
    9.2283  -15.0356   19.1766 C   0  0  0  0  0  0  0  0  0  0  0  0
    9.0712  -15.6867   21.5982 C   0  0  2  0  0  0  0  0  0  0  0  0
    7.9191  -15.6710   22.5093 N   0  0  0  0  0  0  0  0  0  0  0  0
   10.3008  -15.5889   22.3758 C   0  0  0  0  0  0  0  0  0  0  0  0
   11.2229  -14.8161   21.9386 O   0  0  0  0  0  0  0  0  0  0  0  0
    9.9056  -15.0446   28.3549 C   0  0  0  0  0  0  0  0  0  0  0  0
   10.8162  -13.7836   27.4192 S   0  0  0  0  0  0  0  0  0  0  0  0
   10.9859  -14.2669   25.6657 C   0  0  0  0  0  0  0  0  0  0  0  0
   11.6481  -15.6063   25.6385 C   0  0  0  0  0  0  0  0  0  0  0  0
   11.8985  -16.1261   24.2431 C   0  0  2  0  0  0  0  0  0  0  0  0
   10.6161  -16.2474   23.5789 N   0  0  0  0  0  0  0  0  0  0  0  0
   12.5396  -17.4764   24.3610 C   0  0  0  0  0  0  0  0  0  0  0  0
   13.8269  -17.6824   24.7841 O   0  0  0  0  0  0  0  0  0  0  0  0
   11.8506  -18.4902   24.0505 O   0  0  0  0  0  0  0  0  0  0  0  0
  2  1  1  1
  2 13  1  0
  2  3  1  0
  3  4  1  0
  4  5  2  0
  5  6  1  0
  7  6  1  0
  8  7  2  0
  9  8  1  0
 10 11  1  0
 10  9  2  0
 11 12  2  0
 12  4  1  0
 12  7  1  0
 13 14  2  0
 15 16  1  0
 16 17  1  0
 17 18  1  6
 19 17  1  0
 20 13  1  0
 19 20  1  1
 21 22  2  0
 21 19  1  0
 23 24  1  0
 24 25  1  0
 26 25  1  0
 27 26  1  1
 27 28  1  0
 28 21  1  0
 29 30  1  0
 29 27  1  0
 31 29  2  0
M  END
$$$$
