WIM.pdb
     RDKit          3D

 31 32  0  0  1  0  0  0  0  0999 V2000
    5.7609  -18.3288   24.0063 N   0  0  0  0  0  0  0  0  0  0  0  0
    6.3702  -17.0409   24.0287 C   0  0  1  0  0  0  0  0  0  0  0  0
    6.9344  -16.7475   25.3896 C   0  0  0  0  0  0  0  0  0  0  0  0
    6.3976  -15.4527   25.8712 C   0  0  0  0  0  0  0  0  0  0  0  0
    5.1017  -15.2589   26.3688 C   0  0  0  0  0  0  0  0  0  0  0  0
    4.9433  -13.9828   26.7501 N   0  0  0  0  0  0  0  0  0  0  0  0
    6.0936  -13.3408   26.5158 C   0  0  0  0  0  0  0  0  0  0  0  0
    6.4239  -12.0202   26.7304 C   0  0  0  0  0  0  0  0  0  0  0  0
    7.6775  -11.5622   26.4033 C   0  0  0  0  0  0  0  0  0  0  0  0
    8.5790  -12.4421   25.8646 C   0  0  0  0  0  0  0  0  0  0  0  0
    8.2586  -13.7751   25.6437 C   0  0  0  0  0  0  0  0  0  0  0  0
    7.0021  -14.2227   25.9756 C   0  0  0  0  0  0  0  0  0  0  0  0
    7.4145  -16.8959   22.9670 C   0  0  0  0  0  0  0  0  0  0  0  0
    7.9802  -17.9231   22.5733 O   0  0  0  0  0  0  0  0  0  0  0  0
    7.0618  -12.6688   19.5969 C   0  0  0  0  0  0  0  0  0  0  0  0
    7.3633  -14.0513   20.1440 C   0  0  0  0  0  0  0  0  0  0  0  0
    8.6821  -14.1590   20.7931 C   0  0  2  0  0  0  0  0  0  0  0  0
    9.8400  -13.7359   19.9233 C   0  0  0  0  0  0  0  0  0  0  0  0
    8.8952  -15.4666   21.4804 C   0  0  2  0  0  0  0  0  0  0  0  0
    7.7722  -15.6538   22.4085 N   0  0  0  0  0  0  0  0  0  0  0  0
   10.1501  -15.6340   22.2038 C   0  0  0  0  0  0  0  0  0  0  0  0
   11.2305  -15.6867   21.5193 O   0  0  0  0  0  0  0  0  0  0  0  0
    9.7446  -12.9173   28.3363 C   0  0  0  0  0  0  0  0  0  0  0  0
   10.9888  -14.0578   27.6682 S   0  0  0  0  0  0  0  0  0  0  0  0
   10.3637  -14.9050   26.1754 C   0  0  0  0  0  0  0  0  0  0  0  0
   11.4354  -15.8397   25.7161 C   0  0  0  0  0  0  0  0  0  0  0  0
   11.6411  -15.8317   24.2202 C   0  0  2  0  0  0  0  0  0  0  0  0
   10.3369  -15.7454   23.5942 N   0  0  0  0  0  0  0  0  0  0  0  0
   12.3042  -17.1210   23.8379 C   0  0  0  0  0  0  0  0  0  0  0  0
   13.6200  -17.4129   24.0873 O   0  0  0  0  0  0  0  0  0  0  0  0
   11.6069  -17.9954   23.2480 O   0  0  0  0  0  0  0  0  0  0  0  0
  2  1  1  1
  2 13  1  0
  2  3  1  0
  3  4  1  0
  4  5  2  0
  5  6  1  0
  7  6  1  0
  8  7  2  0
  9  8  1  0
 10 11  1  0
 10  9  2  0
 11 12  2  0
 12  4  1  0
 12  7  1  0
 13 14  2  0
 15 16  1  0
 16 17  1  0
 17 18  1  6
 19 17  1  0
 20 13  1  0
 19 20  1  1
 21 22  2  0
 21 19  1  0
 23 24  1  0
 24 25  1  0
 26 25  1  0
 27 26  1  1
 27 28  1  0
 28 21  1  0
 29 30  1  0
 29 27  1  0
 31 29  2  0
M  END
$$$$
