WIM.pdb
     RDKit          3D

 31 32  0  0  1  0  0  0  0  0999 V2000
    5.6874  -17.8128   24.9262 N   0  0  0  0  0  0  0  0  0  0  0  0
    6.5077  -16.7094   24.5519 C   0  0  1  0  0  0  0  0  0  0  0  0
    7.5986  -16.4960   25.5623 C   0  0  0  0  0  0  0  0  0  0  0  0
    7.2317  -15.3625   26.4439 C   0  0  0  0  0  0  0  0  0  0  0  0
    7.1865  -15.4194   27.8436 C   0  0  0  0  0  0  0  0  0  0  0  0
    6.8522  -14.2192   28.3404 N   0  0  0  0  0  0  0  0  0  0  0  0
    6.6780  -13.3846   27.3093 C   0  0  0  0  0  0  0  0  0  0  0  0
    6.3222  -12.0531   27.3052 C   0  0  0  0  0  0  0  0  0  0  0  0
    6.1874  -11.3803   26.1147 C   0  0  0  0  0  0  0  0  0  0  0  0
    6.4129  -12.0596   24.9464 C   0  0  0  0  0  0  0  0  0  0  0  0
    6.7720  -13.4009   24.9372 C   0  0  0  0  0  0  0  0  0  0  0  0
    6.9050  -14.0639   26.1338 C   0  0  0  0  0  0  0  0  0  0  0  0
    7.0695  -16.8699   23.1744 C   0  0  0  0  0  0  0  0  0  0  0  0
    7.2693  -18.0203   22.7658 O   0  0  0  0  0  0  0  0  0  0  0  0
    8.3330  -12.2303   19.8979 C   0  0  0  0  0  0  0  0  0  0  0  0
    8.6042  -13.3780   20.8523 C   0  0  0  0  0  0  0  0  0  0  0  0
    8.1273  -14.6836   20.3625 C   0  0  2  0  0  0  0  0  0  0  0  0
    6.7096  -14.6742   19.8462 C   0  0  0  0  0  0  0  0  0  0  0  0
    8.4153  -15.8063   21.3027 C   0  0  2  0  0  0  0  0  0  0  0  0
    7.3750  -15.7781   22.3394 N   0  0  0  0  0  0  0  0  0  0  0  0
    9.7276  -15.8134   21.9383 C   0  0  0  0  0  0  0  0  0  0  0  0
   10.7571  -15.8725   21.1799 O   0  0  0  0  0  0  0  0  0  0  0  0
   11.0224  -14.3494   28.3134 C   0  0  0  0  0  0  0  0  0  0  0  0
   12.2976  -15.5434   27.8199 S   0  0  0  0  0  0  0  0  0  0  0  0
   12.6003  -15.4692   26.0199 C   0  0  0  0  0  0  0  0  0  0  0  0
   11.2725  -15.5803   25.3433 C   0  0  0  0  0  0  0  0  0  0  0  0
   11.3692  -15.6808   23.8398 C   0  0  2  0  0  0  0  0  0  0  0  0
   10.0211  -15.7592   23.3136 N   0  0  0  0  0  0  0  0  0  0  0  0
   12.1185  -16.9363   23.5077 C   0  0  0  0  0  0  0  0  0  0  0  0
   13.4537  -16.9770   23.2006 O   0  0  0  0  0  0  0  0  0  0  0  0
   11.4796  -18.0276   23.5104 O   0  0  0  0  0  0  0  0  0  0  0  0
  2  1  1  1
  2 13  1  0
  2  3  1  0
  3  4  1  0
  4  5  2  0
  5  6  1  0
  7  6  1  0
  8  7  2  0
  9  8  1  0
 10 11  1  0
 10  9  2  0
 11 12  2  0
 12  4  1  0
 12  7  1  0
 13 14  2  0
 15 16  1  0
 16 17  1  0
 17 18  1  1
 19 17  1  0
 20 13  1  0
 19 20  1  1
 21 22  2  0
 21 19  1  0
 23 24  1  0
 24 25  1  0
 26 25  1  0
 27 26  1  1
 27 28  1  0
 28 21  1  0
 29 30  1  0
 29 27  1  0
 31 29  2  0
M  END
$$$$
