WIM.pdb
     RDKit          3D

 31 32  0  0  1  0  0  0  0  0999 V2000
    5.6633  -18.0397   24.5928 N   0  0  0  0  0  0  0  0  0  0  0  0
    6.3657  -16.8016   24.5262 C   0  0  1  0  0  0  0  0  0  0  0  0
    6.8499  -16.3954   25.8889 C   0  0  0  0  0  0  0  0  0  0  0  0
    6.2208  -15.1076   26.2661 C   0  0  0  0  0  0  0  0  0  0  0  0
    4.9260  -14.9711   26.7850 C   0  0  0  0  0  0  0  0  0  0  0  0
    4.6729  -13.6813   27.0520 N   0  0  0  0  0  0  0  0  0  0  0  0
    5.7607  -12.9751   26.7227 C   0  0  0  0  0  0  0  0  0  0  0  0
    5.9867  -11.6181   26.8039 C   0  0  0  0  0  0  0  0  0  0  0  0
    7.1901  -11.0950   26.3959 C   0  0  0  0  0  0  0  0  0  0  0  0
    8.1472  -11.9476   25.9120 C   0  0  0  0  0  0  0  0  0  0  0  0
    7.9319  -13.3167   25.8253 C   0  0  0  0  0  0  0  0  0  0  0  0
    6.7248  -13.8292   26.2372 C   0  0  0  0  0  0  0  0  0  0  0  0
    7.4926  -16.8483   23.5429 C   0  0  0  0  0  0  0  0  0  0  0  0
    8.0987  -17.9189   23.4140 O   0  0  0  0  0  0  0  0  0  0  0  0
    7.0249  -13.2703   19.9031 C   0  0  0  0  0  0  0  0  0  0  0  0
    7.5717  -14.6418   20.2518 C   0  0  0  0  0  0  0  0  0  0  0  0
    8.8805  -14.6054   20.9286 C   0  0  2  0  0  0  0  0  0  0  0  0
   10.0545  -14.4067   20.0021 C   0  0  0  0  0  0  0  0  0  0  0  0
    9.0694  -15.7177   21.9055 C   0  0  2  0  0  0  0  0  0  0  0  0
    7.8830  -15.7369   22.7716 N   0  0  0  0  0  0  0  0  0  0  0  0
   10.2686  -15.6709   22.7336 C   0  0  0  0  0  0  0  0  0  0  0  0
   10.4508  -14.6335   23.4610 O   0  0  0  0  0  0  0  0  0  0  0  0
   10.5408  -13.4486   27.4301 C   0  0  0  0  0  0  0  0  0  0  0  0
   11.7110  -14.8305   27.3040 S   0  0  0  0  0  0  0  0  0  0  0  0
   12.4254  -14.9305   25.6257 C   0  0  0  0  0  0  0  0  0  0  0  0
   12.0670  -16.2714   25.0719 C   0  0  0  0  0  0  0  0  0  0  0  0
   12.4821  -16.4590   23.6322 C   0  0  2  0  0  0  0  0  0  0  0  0
   11.2795  -16.6437   22.8450 N   0  0  0  0  0  0  0  0  0  0  0  0
   13.3352  -17.6895   23.5537 C   0  0  0  0  0  0  0  0  0  0  0  0
   14.6349  -17.7533   23.9842 O   0  0  0  0  0  0  0  0  0  0  0  0
   12.8249  -18.7354   23.0591 O   0  0  0  0  0  0  0  0  0  0  0  0
  2  1  1  1
  2 13  1  0
  2  3  1  0
  3  4  1  0
  4  5  2  0
  5  6  1  0
  7  6  1  0
  8  7  2  0
  9  8  1  0
 10 11  1  0
 10  9  2  0
 11 12  2  0
 12  4  1  0
 12  7  1  0
 13 14  2  0
 15 16  1  0
 16 17  1  0
 17 18  1  6
 19 17  1  0
 20 13  1  0
 19 20  1  1
 21 22  2  0
 21 19  1  0
 23 24  1  0
 24 25  1  0
 26 25  1  0
 27 26  1  1
 27 28  1  0
 28 21  1  0
 29 30  1  0
 29 27  1  0
 31 29  2  0
M  END
$$$$
