WIM.pdb
     RDKit          3D

 31 32  0  0  1  0  0  0  0  0999 V2000
    7.9583  -18.1909   17.0972 N   0  0  0  0  0  0  0  0  0  0  0  0
    9.3729  -18.0213   17.1269 C   0  0  1  0  0  0  0  0  0  0  0  0
    9.8898  -17.6595   15.7636 C   0  0  0  0  0  0  0  0  0  0  0  0
    9.4301  -18.6717   14.7834 C   0  0  0  0  0  0  0  0  0  0  0  0
    8.7154  -18.3849   13.6124 C   0  0  0  0  0  0  0  0  0  0  0  0
    8.4815  -19.5155   12.9298 N   0  0  0  0  0  0  0  0  0  0  0  0
    9.0201  -20.5277   13.6195 C   0  0  0  0  0  0  0  0  0  0  0  0
    9.0363  -21.8761   13.3352 C   0  0  0  0  0  0  0  0  0  0  0  0
    9.6454  -22.7544   14.1988 C   0  0  0  0  0  0  0  0  0  0  0  0
   10.2287  -22.2605   15.3358 C   0  0  0  0  0  0  0  0  0  0  0  0
   10.2193  -20.9042   15.6335 C   0  0  0  0  0  0  0  0  0  0  0  0
    9.6081  -20.0344   14.7622 C   0  0  0  0  0  0  0  0  0  0  0  0
    9.7959  -17.0155   18.1508 C   0  0  0  0  0  0  0  0  0  0  0  0
   10.9722  -16.6333   18.1290 O   0  0  0  0  0  0  0  0  0  0  0  0
    6.3203  -13.1773   19.6678 C   0  0  0  0  0  0  0  0  0  0  0  0
    7.6001  -13.9319   19.3603 C   0  0  0  0  0  0  0  0  0  0  0  0
    8.1089  -14.7254   20.4933 C   0  0  2  0  0  0  0  0  0  0  0  0
    8.2359  -13.9557   21.7846 C   0  0  0  0  0  0  0  0  0  0  0  0
    9.3198  -15.5287   20.1528 C   0  0  2  0  0  0  0  0  0  0  0  0
    8.9195  -16.4966   19.1229 N   0  0  0  0  0  0  0  0  0  0  0  0
    9.9718  -16.2351   21.2492 C   0  0  0  0  0  0  0  0  0  0  0  0
    9.3004  -17.1381   21.8596 O   0  0  0  0  0  0  0  0  0  0  0  0
   16.7400  -17.5421   25.2421 C   0  0  0  0  0  0  0  0  0  0  0  0
   15.7620  -16.6644   23.9897 S   0  0  0  0  0  0  0  0  0  0  0  0
   14.0232  -17.2241   24.0086 C   0  0  0  0  0  0  0  0  0  0  0  0
   13.2995  -16.4541   22.9519 C   0  0  0  0  0  0  0  0  0  0  0  0
   11.8464  -16.8409   22.8134 C   0  0  2  0  0  0  0  0  0  0  0  0
   11.2791  -16.0531   21.7373 N   0  0  0  0  0  0  0  0  0  0  0  0
   11.1557  -16.5121   24.1030 C   0  0  0  0  0  0  0  0  0  0  0  0
   10.8418  -17.4366   25.0650 O   0  0  0  0  0  0  0  0  0  0  0  0
   10.8420  -15.3062   24.3181 O   0  0  0  0  0  0  0  0  0  0  0  0
  2  1  1  6
  2 13  1  0
  2  3  1  0
  3  4  1  0
  4  5  2  0
  5  6  1  0
  7  6  1  0
  8  7  2  0
  9  8  1  0
 10 11  1  0
 10  9  2  0
 11 12  2  0
 12  4  1  0
 12  7  1  0
 13 14  2  0
 15 16  1  0
 16 17  1  0
 17 18  1  1
 19 17  1  0
 20 13  1  0
 19 20  1  6
 21 22  2  0
 21 19  1  0
 23 24  1  0
 24 25  1  0
 26 25  1  0
 27 26  1  1
 27 28  1  0
 28 21  1  0
 29 30  1  0
 29 27  1  0
 31 29  2  0
M  END
$$$$
