WIM.pdb
     RDKit          3D

 31 32  0  0  1  0  0  0  0  0999 V2000
    5.7359  -18.1513   24.3703 N   0  0  0  0  0  0  0  0  0  0  0  0
    6.4324  -16.9095   24.3120 C   0  0  1  0  0  0  0  0  0  0  0  0
    7.0264  -16.5741   25.6504 C   0  0  0  0  0  0  0  0  0  0  0  0
    6.4187  -15.3192   26.1529 C   0  0  0  0  0  0  0  0  0  0  0  0
    5.1738  -15.2322   26.7908 C   0  0  0  0  0  0  0  0  0  0  0  0
    4.9308  -13.9632   27.1506 N   0  0  0  0  0  0  0  0  0  0  0  0
    5.9769  -13.2225   26.7666 C   0  0  0  0  0  0  0  0  0  0  0  0
    6.1938  -11.8685   26.9032 C   0  0  0  0  0  0  0  0  0  0  0  0
    7.3502  -11.3045   26.4204 C   0  0  0  0  0  0  0  0  0  0  0  0
    8.2701  -12.1137   25.8071 C   0  0  0  0  0  0  0  0  0  0  0  0
    8.0634  -13.4793   25.6635 C   0  0  0  0  0  0  0  0  0  0  0  0
    6.9036  -14.0331   26.1510 C   0  0  0  0  0  0  0  0  0  0  0  0
    7.4756  -16.9012   23.2393 C   0  0  0  0  0  0  0  0  0  0  0  0
    8.0696  -17.9612   23.0074 O   0  0  0  0  0  0  0  0  0  0  0  0
    7.2352  -12.8375   19.5905 C   0  0  0  0  0  0  0  0  0  0  0  0
    7.4729  -14.2285   20.1474 C   0  0  0  0  0  0  0  0  0  0  0  0
    8.7817  -14.3896   20.8054 C   0  0  2  0  0  0  0  0  0  0  0  0
    9.9642  -14.0685   19.9252 C   0  0  0  0  0  0  0  0  0  0  0  0
    8.9158  -15.6809   21.5417 C   0  0  2  0  0  0  0  0  0  0  0  0
    7.8015  -15.7504   22.4964 N   0  0  0  0  0  0  0  0  0  0  0  0
   10.1702  -15.9091   22.2491 C   0  0  0  0  0  0  0  0  0  0  0  0
   11.1597  -16.3643   21.5766 O   0  0  0  0  0  0  0  0  0  0  0  0
    9.3171  -13.9095   28.0566 C   0  0  0  0  0  0  0  0  0  0  0  0
   10.6827  -15.1054   28.0610 S   0  0  0  0  0  0  0  0  0  0  0  0
   10.7866  -15.9840   26.4627 C   0  0  0  0  0  0  0  0  0  0  0  0
   11.7047  -15.1971   25.5846 C   0  0  0  0  0  0  0  0  0  0  0  0
   11.7826  -15.7218   24.1708 C   0  0  2  0  0  0  0  0  0  0  0  0
   10.4464  -15.6860   23.6109 N   0  0  0  0  0  0  0  0  0  0  0  0
   12.2714  -17.1381   24.2297 C   0  0  0  0  0  0  0  0  0  0  0  0
   11.5150  -18.2279   23.8849 O   0  0  0  0  0  0  0  0  0  0  0  0
   13.4560  -17.3417   24.6222 O   0  0  0  0  0  0  0  0  0  0  0  0
  2  1  1  1
  2 13  1  0
  2  3  1  0
  3  4  1  0
  4  5  2  0
  5  6  1  0
  7  6  1  0
  8  7  2  0
  9  8  1  0
 10 11  1  0
 10  9  2  0
 11 12  2  0
 12  4  1  0
 12  7  1  0
 13 14  2  0
 15 16  1  0
 16 17  1  0
 17 18  1  6
 19 17  1  0
 20 13  1  0
 19 20  1  1
 21 22  2  0
 21 19  1  0
 23 24  1  0
 24 25  1  0
 26 25  1  0
 27 26  1  1
 27 28  1  0
 28 21  1  0
 29 30  1  0
 29 27  1  0
 31 29  2  0
M  END
$$$$
