WIM.pdb
     RDKit          3D

 31 32  0  0  1  0  0  0  0  0999 V2000
    5.9097  -18.8857   23.9089 N   0  0  0  0  0  0  0  0  0  0  0  0
    6.3898  -17.5456   23.9745 C   0  0  1  0  0  0  0  0  0  0  0  0
    6.9440  -17.2497   25.3389 C   0  0  0  0  0  0  0  0  0  0  0  0
    6.4748  -15.9137   25.7766 C   0  0  0  0  0  0  0  0  0  0  0  0
    5.1447  -15.5922   26.0793 C   0  0  0  0  0  0  0  0  0  0  0  0
    5.0608  -14.3132   26.4743 N   0  0  0  0  0  0  0  0  0  0  0  0
    6.2929  -13.7928   26.4373 C   0  0  0  0  0  0  0  0  0  0  0  0
    6.7195  -12.5184   26.7427 C   0  0  0  0  0  0  0  0  0  0  0  0
    8.0486  -12.1903   26.6235 C   0  0  0  0  0  0  0  0  0  0  0  0
    8.9274  -13.1515   26.1980 C   0  0  0  0  0  0  0  0  0  0  0  0
    8.5102  -14.4391   25.8876 C   0  0  0  0  0  0  0  0  0  0  0  0
    7.1786  -14.7566   26.0114 C   0  0  0  0  0  0  0  0  0  0  0  0
    7.3977  -17.2579   22.9066 C   0  0  0  0  0  0  0  0  0  0  0  0
    8.2009  -18.1535   22.6184 O   0  0  0  0  0  0  0  0  0  0  0  0
    8.8160  -12.5130   19.1163 C   0  0  0  0  0  0  0  0  0  0  0  0
    9.0729  -13.9209   19.6198 C   0  0  0  0  0  0  0  0  0  0  0  0
    8.2073  -14.3170   20.7449 C   0  0  2  0  0  0  0  0  0  0  0  0
    8.0242  -13.2490   21.7948 C   0  0  0  0  0  0  0  0  0  0  0  0
    8.5477  -15.6573   21.3064 C   0  0  2  0  0  0  0  0  0  0  0  0
    7.4655  -16.0256   22.2289 N   0  0  0  0  0  0  0  0  0  0  0  0
    9.8278  -15.7780   21.9940 C   0  0  0  0  0  0  0  0  0  0  0  0
   10.8923  -15.7334   21.2844 O   0  0  0  0  0  0  0  0  0  0  0  0
   11.0488  -12.6001   27.9195 C   0  0  0  0  0  0  0  0  0  0  0  0
   11.6173  -14.3239   27.9017 S   0  0  0  0  0  0  0  0  0  0  0  0
   12.1947  -14.8042   26.2365 C   0  0  0  0  0  0  0  0  0  0  0  0
   10.9874  -15.1863   25.4431 C   0  0  0  0  0  0  0  0  0  0  0  0
   11.3031  -15.5905   24.0228 C   0  0  2  0  0  0  0  0  0  0  0  0
   10.0551  -15.9384   23.3735 N   0  0  0  0  0  0  0  0  0  0  0  0
   12.2019  -16.7896   24.0724 C   0  0  0  0  0  0  0  0  0  0  0  0
   11.8626  -18.0260   23.5877 O   0  0  0  0  0  0  0  0  0  0  0  0
   13.3456  -16.6534   24.5943 O   0  0  0  0  0  0  0  0  0  0  0  0
  2  1  1  1
  2 13  1  0
  2  3  1  0
  3  4  1  0
  4  5  2  0
  5  6  1  0
  7  6  1  0
  8  7  2  0
  9  8  1  0
 10 11  1  0
 10  9  2  0
 11 12  2  0
 12  4  1  0
 12  7  1  0
 13 14  2  0
 15 16  1  0
 16 17  1  0
 17 18  1  1
 19 17  1  0
 20 13  1  0
 19 20  1  1
 21 22  2  0
 21 19  1  0
 23 24  1  0
 24 25  1  0
 26 25  1  0
 27 26  1  1
 27 28  1  0
 28 21  1  0
 29 30  1  0
 29 27  1  0
 31 29  2  0
M  END
$$$$
