WIM.pdb
     RDKit          3D

 31 32  0  0  1  0  0  0  0  0999 V2000
    5.9846  -18.1478   24.6182 N   0  0  0  0  0  0  0  0  0  0  0  0
    6.5668  -16.8568   24.4594 C   0  0  1  0  0  0  0  0  0  0  0  0
    7.1513  -16.3781   25.7577 C   0  0  0  0  0  0  0  0  0  0  0  0
    6.5046  -15.1012   26.1422 C   0  0  0  0  0  0  0  0  0  0  0  0
    5.1625  -14.9666   26.5229 C   0  0  0  0  0  0  0  0  0  0  0  0
    4.9018  -13.6897   26.8396 N   0  0  0  0  0  0  0  0  0  0  0  0
    6.0305  -12.9899   26.6763 C   0  0  0  0  0  0  0  0  0  0  0  0
    6.2676  -11.6455   26.8655 C   0  0  0  0  0  0  0  0  0  0  0  0
    7.5170  -11.1264   26.6255 C   0  0  0  0  0  0  0  0  0  0  0  0
    8.5084  -11.9700   26.1981 C   0  0  0  0  0  0  0  0  0  0  0  0
    8.2823  -13.3263   26.0039 C   0  0  0  0  0  0  0  0  0  0  0  0
    7.0290  -13.8350   26.2480 C   0  0  0  0  0  0  0  0  0  0  0  0
    7.5866  -16.8322   23.3648 C   0  0  0  0  0  0  0  0  0  0  0  0
    8.1985  -17.8804   23.1260 O   0  0  0  0  0  0  0  0  0  0  0  0
    6.8884  -13.4820   19.2164 C   0  0  0  0  0  0  0  0  0  0  0  0
    7.3156  -14.6579   20.0744 C   0  0  0  0  0  0  0  0  0  0  0  0
    8.6421  -14.4905   20.6943 C   0  0  2  0  0  0  0  0  0  0  0  0
    9.7487  -14.1727   19.7192 C   0  0  0  0  0  0  0  0  0  0  0  0
    8.9847  -15.5796   21.6555 C   0  0  2  0  0  0  0  0  0  0  0  0
    7.8716  -15.6790   22.6089 N   0  0  0  0  0  0  0  0  0  0  0  0
   10.2364  -15.4404   22.3904 C   0  0  0  0  0  0  0  0  0  0  0  0
   10.5861  -14.2643   22.7550 O   0  0  0  0  0  0  0  0  0  0  0  0
   11.7721  -14.4009   28.9056 C   0  0  0  0  0  0  0  0  0  0  0  0
   10.9143  -14.7561   27.3457 S   0  0  0  0  0  0  0  0  0  0  0  0
   11.7235  -16.1292   26.4532 C   0  0  0  0  0  0  0  0  0  0  0  0
   11.0138  -16.2870   25.1476 C   0  0  0  0  0  0  0  0  0  0  0  0
   11.9460  -16.4022   23.9653 C   0  0  2  0  0  0  0  0  0  0  0  0
   11.1349  -16.4565   22.7655 N   0  0  0  0  0  0  0  0  0  0  0  0
   12.7231  -17.6760   24.1118 C   0  0  0  0  0  0  0  0  0  0  0  0
   13.8466  -17.8071   24.8858 O   0  0  0  0  0  0  0  0  0  0  0  0
   12.3178  -18.6948   23.4819 O   0  0  0  0  0  0  0  0  0  0  0  0
  2  1  1  1
  2 13  1  0
  2  3  1  0
  3  4  1  0
  4  5  2  0
  5  6  1  0
  7  6  1  0
  8  7  2  0
  9  8  1  0
 10 11  1  0
 10  9  2  0
 11 12  2  0
 12  4  1  0
 12  7  1  0
 13 14  2  0
 15 16  1  0
 16 17  1  0
 17 18  1  6
 19 17  1  0
 20 13  1  0
 19 20  1  1
 21 22  2  0
 21 19  1  0
 23 24  1  0
 24 25  1  0
 26 25  1  0
 27 26  1  1
 27 28  1  0
 28 21  1  0
 29 30  1  0
 29 27  1  0
 31 29  2  0
M  END
$$$$
