WIM.pdb
     RDKit          3D

 31 32  0  0  1  0  0  0  0  0999 V2000
    5.7552  -18.5598   24.3185 N   0  0  0  0  0  0  0  0  0  0  0  0
    6.3254  -17.2547   24.2715 C   0  0  1  0  0  0  0  0  0  0  0  0
    6.8364  -16.8528   25.6258 C   0  0  0  0  0  0  0  0  0  0  0  0
    6.3145  -15.5076   25.9644 C   0  0  0  0  0  0  0  0  0  0  0  0
    4.9795  -15.2241   26.2834 C   0  0  0  0  0  0  0  0  0  0  0  0
    4.8440  -13.9212   26.5713 N   0  0  0  0  0  0  0  0  0  0  0  0
    6.0471  -13.3486   26.4491 C   0  0  0  0  0  0  0  0  0  0  0  0
    6.4186  -12.0340   26.6310 C   0  0  0  0  0  0  0  0  0  0  0  0
    7.7256  -11.6554   26.4398 C   0  0  0  0  0  0  0  0  0  0  0  0
    8.6382  -12.6073   26.0679 C   0  0  0  0  0  0  0  0  0  0  0  0
    8.2765  -13.9350   25.8817 C   0  0  0  0  0  0  0  0  0  0  0  0
    6.9666  -14.3029   26.0766 C   0  0  0  0  0  0  0  0  0  0  0  0
    7.3988  -17.1485   23.2345 C   0  0  0  0  0  0  0  0  0  0  0  0
    8.1027  -18.1453   23.0320 O   0  0  0  0  0  0  0  0  0  0  0  0
    6.8974  -13.1979   19.5268 C   0  0  0  0  0  0  0  0  0  0  0  0
    7.2533  -14.5283   20.1632 C   0  0  0  0  0  0  0  0  0  0  0  0
    8.5620  -14.5318   20.8410 C   0  0  2  0  0  0  0  0  0  0  0  0
    9.7203  -14.1360   19.9591 C   0  0  0  0  0  0  0  0  0  0  0  0
    8.8099  -15.7702   21.6363 C   0  0  2  0  0  0  0  0  0  0  0  0
    7.6343  -15.9751   22.4928 N   0  0  0  0  0  0  0  0  0  0  0  0
   10.0141  -15.7954   22.4582 C   0  0  0  0  0  0  0  0  0  0  0  0
   11.1450  -15.8113   21.8587 O   0  0  0  0  0  0  0  0  0  0  0  0
   10.1424  -14.1323   28.6907 C   0  0  0  0  0  0  0  0  0  0  0  0
   11.6311  -15.1698   28.6388 S   0  0  0  0  0  0  0  0  0  0  0  0
   12.2247  -15.3753   26.9234 C   0  0  0  0  0  0  0  0  0  0  0  0
   11.0184  -15.5002   26.0502 C   0  0  0  0  0  0  0  0  0  0  0  0
   11.3491  -15.6668   24.5864 C   0  0  2  0  0  0  0  0  0  0  0  0
   10.1007  -15.8017   23.8628 N   0  0  0  0  0  0  0  0  0  0  0  0
   12.1619  -16.9178   24.4356 C   0  0  0  0  0  0  0  0  0  0  0  0
   11.8423  -18.1175   25.0163 O   0  0  0  0  0  0  0  0  0  0  0  0
   13.2087  -16.8643   23.7284 O   0  0  0  0  0  0  0  0  0  0  0  0
  2  1  1  1
  2 13  1  0
  2  3  1  0
  3  4  1  0
  4  5  2  0
  5  6  1  0
  7  6  1  0
  8  7  2  0
  9  8  1  0
 10 11  1  0
 10  9  2  0
 11 12  2  0
 12  4  1  0
 12  7  1  0
 13 14  2  0
 15 16  1  0
 16 17  1  0
 17 18  1  6
 19 17  1  0
 20 13  1  0
 19 20  1  1
 21 22  2  0
 21 19  1  0
 23 24  1  0
 24 25  1  0
 26 25  1  0
 27 26  1  1
 27 28  1  0
 28 21  1  0
 29 30  1  0
 29 27  1  0
 31 29  2  0
M  END
$$$$
