WIM.pdb
     RDKit          3D

 31 32  0  0  1  0  0  0  0  0999 V2000
    6.5229  -17.9000   25.8435 N   0  0  0  0  0  0  0  0  0  0  0  0
    6.2189  -17.1274   24.6854 C   0  0  1  0  0  0  0  0  0  0  0  0
    5.7104  -15.7689   25.0757 C   0  0  0  0  0  0  0  0  0  0  0  0
    6.6798  -15.1320   25.9985 C   0  0  0  0  0  0  0  0  0  0  0  0
    7.5904  -15.8265   26.8066 C   0  0  0  0  0  0  0  0  0  0  0  0
    8.3454  -14.9587   27.4963 N   0  0  0  0  0  0  0  0  0  0  0  0
    7.9546  -13.7230   27.1635 C   0  0  0  0  0  0  0  0  0  0  0  0
    8.4183  -12.5037   27.6080 C   0  0  0  0  0  0  0  0  0  0  0  0
    7.8593  -11.3408   27.1354 C   0  0  0  0  0  0  0  0  0  0  0  0
    6.8411  -11.4245   26.2224 C   0  0  0  0  0  0  0  0  0  0  0  0
    6.3651  -12.6468   25.7666 C   0  0  0  0  0  0  0  0  0  0  0  0
    6.9324  -13.8037   26.2452 C   0  0  0  0  0  0  0  0  0  0  0  0
    7.3887  -17.0219   23.7585 C   0  0  0  0  0  0  0  0  0  0  0  0
    8.3264  -17.8115   23.9245 O   0  0  0  0  0  0  0  0  0  0  0  0
    7.9074  -12.6266   19.9804 C   0  0  0  0  0  0  0  0  0  0  0  0
    8.2851  -13.5728   21.1046 C   0  0  0  0  0  0  0  0  0  0  0  0
    8.2108  -14.9971   20.7328 C   0  0  2  0  0  0  0  0  0  0  0  0
    6.9214  -15.3978   20.0597 C   0  0  0  0  0  0  0  0  0  0  0  0
    8.6222  -15.9156   21.8349 C   0  0  2  0  0  0  0  0  0  0  0  0
    7.4614  -16.0723   22.7214 N   0  0  0  0  0  0  0  0  0  0  0  0
    9.7812  -15.5186   22.6256 C   0  0  0  0  0  0  0  0  0  0  0  0
    9.7344  -14.3894   23.2267 O   0  0  0  0  0  0  0  0  0  0  0  0
    9.9885  -15.2891   27.9074 C   0  0  0  0  0  0  0  0  0  0  0  0
   11.6258  -14.6162   27.5055 S   0  0  0  0  0  0  0  0  0  0  0  0
   12.4446  -15.6169   26.2150 C   0  0  0  0  0  0  0  0  0  0  0  0
   11.4349  -15.8663   25.1420 C   0  0  0  0  0  0  0  0  0  0  0  0
   12.0128  -15.8165   23.7478 C   0  0  2  0  0  0  0  0  0  0  0  0
   10.9770  -16.2335   22.8239 N   0  0  0  0  0  0  0  0  0  0  0  0
   13.1628  -16.7767   23.6895 C   0  0  0  0  0  0  0  0  0  0  0  0
   13.1544  -17.9445   22.9720 O   0  0  0  0  0  0  0  0  0  0  0  0
   14.2073  -16.4929   24.3434 O   0  0  0  0  0  0  0  0  0  0  0  0
  2  1  1  1
  2 13  1  0
  2  3  1  0
  3  4  1  0
  4  5  2  0
  5  6  1  0
  7  6  1  0
  8  7  2  0
  9  8  1  0
 10 11  1  0
 10  9  2  0
 11 12  2  0
 12  4  1  0
 12  7  1  0
 13 14  2  0
 15 16  1  0
 16 17  1  0
 17 18  1  1
 19 17  1  0
 20 13  1  0
 19 20  1  1
 21 22  2  0
 21 19  1  0
 23 24  1  0
 24 25  1  0
 26 25  1  0
 27 26  1  1
 27 28  1  0
 28 21  1  0
 29 30  1  0
 29 27  1  0
 31 29  2  0
M  END
$$$$
