WIM.pdb
     RDKit          3D

 31 32  0  0  1  0  0  0  0  0999 V2000
    7.7353  -16.5797   25.3493 N   0  0  0  0  0  0  0  0  0  0  0  0
    6.9797  -16.9649   24.2042 C   0  0  1  0  0  0  0  0  0  0  0  0
    5.6515  -16.2633   24.1877 C   0  0  0  0  0  0  0  0  0  0  0  0
    5.6290  -15.2369   25.2566 C   0  0  0  0  0  0  0  0  0  0  0  0
    5.0881  -15.4253   26.5358 C   0  0  0  0  0  0  0  0  0  0  0  0
    5.2560  -14.3169   27.2721 N   0  0  0  0  0  0  0  0  0  0  0  0
    5.8875  -13.4141   26.5130 C   0  0  0  0  0  0  0  0  0  0  0  0
    6.2747  -12.1265   26.8153 C   0  0  0  0  0  0  0  0  0  0  0  0
    6.9106  -11.3589   25.8695 C   0  0  0  0  0  0  0  0  0  0  0  0
    7.1463  -11.9005   24.6333 C   0  0  0  0  0  0  0  0  0  0  0  0
    6.7614  -13.1965   24.3164 C   0  0  0  0  0  0  0  0  0  0  0  0
    6.1269  -13.9558   25.2704 C   0  0  0  0  0  0  0  0  0  0  0  0
    7.7313  -16.7311   22.9317 C   0  0  0  0  0  0  0  0  0  0  0  0
    7.7092  -17.6266   22.0785 O   0  0  0  0  0  0  0  0  0  0  0  0
    7.0453  -12.7542   20.0447 C   0  0  0  0  0  0  0  0  0  0  0  0
    7.5280  -14.1101   20.5244 C   0  0  0  0  0  0  0  0  0  0  0  0
    8.9728  -14.1593   20.8109 C   0  0  2  0  0  0  0  0  0  0  0  0
    9.8528  -13.8404   19.6276 C   0  0  0  0  0  0  0  0  0  0  0  0
    9.3850  -15.3885   21.5504 C   0  0  2  0  0  0  0  0  0  0  0  0
    8.4517  -15.5493   22.6733 N   0  0  0  0  0  0  0  0  0  0  0  0
   10.7533  -15.4276   22.0528 C   0  0  0  0  0  0  0  0  0  0  0  0
   11.2389  -14.3502   22.5446 O   0  0  0  0  0  0  0  0  0  0  0  0
   10.9301  -15.3338   28.2057 C   0  0  0  0  0  0  0  0  0  0  0  0
   10.8684  -16.5683   26.8764 S   0  0  0  0  0  0  0  0  0  0  0  0
   11.9956  -16.1159   25.5119 C   0  0  0  0  0  0  0  0  0  0  0  0
   11.7471  -17.0780   24.3958 C   0  0  0  0  0  0  0  0  0  0  0  0
   12.5596  -16.7862   23.1569 C   0  0  2  0  0  0  0  0  0  0  0  0
   11.6348  -16.5244   22.0723 N   0  0  0  0  0  0  0  0  0  0  0  0
   13.3787  -18.0026   22.8442 C   0  0  0  0  0  0  0  0  0  0  0  0
   14.6395  -18.2274   23.3325 O   0  0  0  0  0  0  0  0  0  0  0  0
   12.8760  -18.8772   22.0818 O   0  0  0  0  0  0  0  0  0  0  0  0
  2  1  1  1
  2 13  1  0
  2  3  1  0
  3  4  1  0
  4  5  2  0
  5  6  1  0
  7  6  1  0
  8  7  2  0
  9  8  1  0
 10 11  1  0
 10  9  2  0
 11 12  2  0
 12  4  1  0
 12  7  1  0
 13 14  2  0
 15 16  1  0
 16 17  1  0
 17 18  1  6
 19 17  1  0
 20 13  1  0
 19 20  1  1
 21 22  2  0
 21 19  1  0
 23 24  1  0
 24 25  1  0
 26 25  1  0
 27 26  1  1
 27 28  1  0
 28 21  1  0
 29 30  1  0
 29 27  1  0
 31 29  2  0
M  END
$$$$
