WIM.pdb
     RDKit          3D

 31 32  0  0  1  0  0  0  0  0999 V2000
    6.3920  -18.9798   24.5354 N   0  0  0  0  0  0  0  0  0  0  0  0
    6.6120  -17.5723   24.4998 C   0  0  1  0  0  0  0  0  0  0  0  0
    6.9861  -17.0620   25.8621 C   0  0  0  0  0  0  0  0  0  0  0  0
    6.4300  -15.7000   26.0422 C   0  0  0  0  0  0  0  0  0  0  0  0
    5.0661  -15.3801   25.9976 C   0  0  0  0  0  0  0  0  0  0  0  0
    4.8948  -14.0704   26.2305 N   0  0  0  0  0  0  0  0  0  0  0  0
    6.1028  -13.5287   26.4243 C   0  0  0  0  0  0  0  0  0  0  0  0
    6.4488  -12.2210   26.6879 C   0  0  0  0  0  0  0  0  0  0  0  0
    7.7699  -11.8765   26.8438 C   0  0  0  0  0  0  0  0  0  0  0  0
    8.7221  -12.8551   26.7313 C   0  0  0  0  0  0  0  0  0  0  0  0
    8.3864  -14.1762   26.4662 C   0  0  0  0  0  0  0  0  0  0  0  0
    7.0619  -14.5098   26.3131 C   0  0  0  0  0  0  0  0  0  0  0  0
    7.6366  -17.1905   23.4784 C   0  0  0  0  0  0  0  0  0  0  0  0
    8.5068  -18.0238   23.1982 O   0  0  0  0  0  0  0  0  0  0  0  0
    8.4490  -12.4913   19.4696 C   0  0  0  0  0  0  0  0  0  0  0  0
    8.8235  -13.8724   19.9736 C   0  0  0  0  0  0  0  0  0  0  0  0
    8.1282  -14.2613   21.2135 C   0  0  2  0  0  0  0  0  0  0  0  0
    8.0752  -13.1785   22.2628 C   0  0  0  0  0  0  0  0  0  0  0  0
    8.5641  -15.5872   21.7421 C   0  0  2  0  0  0  0  0  0  0  0  0
    7.6475  -15.9381   22.8351 N   0  0  0  0  0  0  0  0  0  0  0  0
    9.9392  -15.6878   22.2166 C   0  0  0  0  0  0  0  0  0  0  0  0
   10.8781  -15.4809   21.3715 O   0  0  0  0  0  0  0  0  0  0  0  0
   10.2211  -14.8130   28.5373 C   0  0  0  0  0  0  0  0  0  0  0  0
   11.8604  -14.6877   27.7677 S   0  0  0  0  0  0  0  0  0  0  0  0
   11.7214  -14.5674   25.9502 C   0  0  0  0  0  0  0  0  0  0  0  0
   11.8527  -15.9522   25.4042 C   0  0  0  0  0  0  0  0  0  0  0  0
   11.7822  -16.0146   23.8971 C   0  0  2  0  0  0  0  0  0  0  0  0
   10.3838  -15.9876   23.5177 N   0  0  0  0  0  0  0  0  0  0  0  0
   12.4032  -17.3070   23.4585 C   0  0  0  0  0  0  0  0  0  0  0  0
   13.7333  -17.6073   23.5968 O   0  0  0  0  0  0  0  0  0  0  0  0
   11.6537  -18.1758   22.9271 O   0  0  0  0  0  0  0  0  0  0  0  0
  2  1  1  1
  2 13  1  0
  2  3  1  0
  3  4  1  0
  4  5  2  0
  5  6  1  0
  7  6  1  0
  8  7  2  0
  9  8  1  0
 10 11  1  0
 10  9  2  0
 11 12  2  0
 12  4  1  0
 12  7  1  0
 13 14  2  0
 15 16  1  0
 16 17  1  0
 17 18  1  1
 19 17  1  0
 20 13  1  0
 19 20  1  1
 21 22  2  0
 21 19  1  0
 23 24  1  0
 24 25  1  0
 26 25  1  0
 27 26  1  1
 27 28  1  0
 28 21  1  0
 29 30  1  0
 29 27  1  0
 31 29  2  0
M  END
$$$$
