SFT.pdb
     RDKit          3D

 25 25  0  0  1  0  0  0  0  0999 V2000
   18.9850  -13.8164  -19.3093 O   0  0  0  0  0  0  0  0  0  0  0  0
   18.2566  -12.8129  -18.6456 C   0  0  0  0  0  0  0  0  0  0  0  0
   18.8437  -11.4952  -19.0840 C   0  0  2  0  0  0  0  0  0  0  0  0
   20.2023  -11.7225  -19.5396 N   0  0  0  0  0  0  0  0  0  0  0  0
   18.8212  -10.5011  -17.9814 C   0  0  0  0  0  0  0  0  0  0  0  0
   17.7976  -10.1851  -17.3254 O   0  0  0  0  0  0  0  0  0  0  0  0
   20.0459   -9.8637  -17.6469 N   0  0  0  0  0  0  0  0  0  0  0  0
   20.1587   -8.8862  -16.5936 C   0  0  1  0  0  0  0  0  0  0  0  0
   21.4985   -8.9035  -15.9251 C   0  0  0  0  0  0  0  0  0  0  0  0
   21.6536   -7.9235  -14.8268 C   0  0  0  0  0  0  0  0  0  0  0  0
   21.2860   -8.2643  -13.5194 C   0  0  0  0  0  0  0  0  0  0  0  0
   21.4205   -7.4006  -12.4549 C   0  0  0  0  0  0  0  0  0  0  0  0
   21.9366   -6.1413  -12.6609 C   0  0  0  0  0  0  0  0  0  0  0  0
   22.3132   -5.7599  -13.9316 C   0  0  0  0  0  0  0  0  0  0  0  0
   22.1666   -6.6555  -14.9949 C   0  0  0  0  0  0  0  0  0  0  0  0
   19.9175   -7.5524  -17.1784 C   0  0  0  0  0  0  0  0  0  0  0  0
   20.5647   -7.0922  -18.1524 O   0  0  0  0  0  0  0  0  0  0  0  0
   16.9376   -5.9298  -18.6894 C   0  0  0  0  0  0  0  0  0  0  0  0
   17.2580   -5.1035  -17.4612 C   0  0  1  0  0  0  0  0  0  0  0  0
   16.4815   -5.6159  -16.4156 O   0  0  0  0  0  0  0  0  0  0  0  0
   18.7039   -5.3640  -17.0988 C   0  0  2  0  0  0  0  0  0  0  0  0
   18.9029   -6.7214  -16.6287 N   0  0  0  0  0  0  0  0  0  0  0  0
   19.1954   -4.3703  -16.1110 C   0  0  0  0  0  0  0  0  0  0  0  0
   19.3177   -3.0367  -16.4427 O   0  0  0  0  0  0  0  0  0  0  0  0
   19.5066   -4.7392  -14.9546 O   0  0  0  0  0  0  0  0  0  0  0  0
  2  1  1  0
  3  5  1  0
  3  2  1  0
  3  4  1  1
  5  6  2  0
  7  5  1  0
  8  7  1  0
  8  9  1  6
  9 10  1  0
 10 15  2  0
 11 10  1  0
 11 12  2  0
 12 13  1  0
 13 14  2  0
 15 14  1  0
 16  8  1  0
 17 16  2  0
 19 18  1  6
 19 21  1  0
 20 19  1  0
 21 23  1  0
 21 22  1  1
 22 16  1  0
 23 24  1  0
 25 23  2  0
M  END
$$$$
