SFT.pdb
     RDKit          3D

 25 25  0  0  1  0  0  0  0  0999 V2000
   26.8188  -19.8687  -14.0465 O   0  0  0  0  0  0  0  0  0  0  0  0
   28.1930  -19.7092  -13.7934 C   0  0  0  0  0  0  0  0  0  0  0  0
   28.6896  -21.0333  -13.2705 C   0  0  2  0  0  0  0  0  0  0  0  0
   28.3197  -22.0717  -14.2138 N   0  0  0  0  0  0  0  0  0  0  0  0
   28.1321  -21.3257  -11.9257 C   0  0  0  0  0  0  0  0  0  0  0  0
   27.2603  -22.1984  -11.6883 O   0  0  0  0  0  0  0  0  0  0  0  0
   28.6213  -20.5625  -10.8321 N   0  0  0  0  0  0  0  0  0  0  0  0
   28.1003  -20.6871   -9.4939 C   0  0  1  0  0  0  0  0  0  0  0  0
   28.9818  -20.0499   -8.4648 C   0  0  0  0  0  0  0  0  0  0  0  0
   28.4693  -20.1281   -7.0785 C   0  0  0  0  0  0  0  0  0  0  0  0
   27.7822  -19.0447   -6.5177 C   0  0  0  0  0  0  0  0  0  0  0  0
   27.2701  -19.0640   -5.2391 C   0  0  0  0  0  0  0  0  0  0  0  0
   27.4283  -20.1871   -4.4593 C   0  0  0  0  0  0  0  0  0  0  0  0
   28.0981  -21.2799   -4.9682 C   0  0  0  0  0  0  0  0  0  0  0  0
   28.6081  -21.2349   -6.2690 C   0  0  0  0  0  0  0  0  0  0  0  0
   26.7671  -20.0539   -9.4603 C   0  0  0  0  0  0  0  0  0  0  0  0
   26.5724  -18.8305   -9.6719 O   0  0  0  0  0  0  0  0  0  0  0  0
   24.6400  -20.0706  -11.7121 C   0  0  0  0  0  0  0  0  0  0  0  0
   23.6896  -20.6162  -10.6666 C   0  0  1  0  0  0  0  0  0  0  0  0
   23.6917  -22.0088  -10.8061 O   0  0  0  0  0  0  0  0  0  0  0  0
   24.2817  -20.3132   -9.3074 C   0  0  2  0  0  0  0  0  0  0  0  0
   25.6229  -20.8486   -9.1751 N   0  0  0  0  0  0  0  0  0  0  0  0
   23.3953  -20.7953   -8.2181 C   0  0  0  0  0  0  0  0  0  0  0  0
   23.8767  -21.6149   -7.2182 O   0  0  0  0  0  0  0  0  0  0  0  0
   22.1887  -20.4578   -8.1980 O   0  0  0  0  0  0  0  0  0  0  0  0
  2  1  1  0
  3  5  1  0
  3  2  1  0
  3  4  1  6
  5  6  2  0
  7  5  1  0
  8  7  1  0
  8  9  1  1
  9 10  1  0
 10 15  2  0
 11 10  1  0
 11 12  2  0
 12 13  1  0
 13 14  2  0
 15 14  1  0
 16  8  1  0
 17 16  2  0
 19 18  1  6
 19 21  1  0
 20 19  1  0
 21 23  1  0
 21 22  1  6
 22 16  1  0
 23 24  1  0
 25 23  2  0
M  END
$$$$
