SFT.pdb
     RDKit          3D

 25 25  0  0  1  0  0  0  0  0999 V2000
   22.0668  -21.4414  -14.9462 O   0  0  0  0  0  0  0  0  0  0  0  0
   21.4666  -22.1800  -13.9107 C   0  0  0  0  0  0  0  0  0  0  0  0
   21.3740  -21.2562  -12.7227 C   0  0  2  0  0  0  0  0  0  0  0  0
   20.3969  -20.2241  -13.0139 N   0  0  0  0  0  0  0  0  0  0  0  0
   22.6928  -20.6530  -12.4042 C   0  0  0  0  0  0  0  0  0  0  0  0
   22.9937  -19.4492  -12.6005 O   0  0  0  0  0  0  0  0  0  0  0  0
   23.6825  -21.4998  -11.8375 N   0  0  0  0  0  0  0  0  0  0  0  0
   24.9828  -21.0256  -11.4348 C   0  0  1  0  0  0  0  0  0  0  0  0
   25.5666  -21.8171  -10.3057 C   0  0  0  0  0  0  0  0  0  0  0  0
   26.7377  -21.1905   -9.6527 C   0  0  0  0  0  0  0  0  0  0  0  0
   26.5571  -20.2147   -8.6650 C   0  0  0  0  0  0  0  0  0  0  0  0
   27.6069  -19.6070   -8.0123 C   0  0  0  0  0  0  0  0  0  0  0  0
   28.8997  -19.9583   -8.3280 C   0  0  0  0  0  0  0  0  0  0  0  0
   29.1280  -20.9151   -9.2946 C   0  0  0  0  0  0  0  0  0  0  0  0
   28.0451  -21.5169   -9.9421 C   0  0  0  0  0  0  0  0  0  0  0  0
   25.8804  -21.1006  -12.6044 C   0  0  0  0  0  0  0  0  0  0  0  0
   26.1490  -22.1697  -13.2080 O   0  0  0  0  0  0  0  0  0  0  0  0
   25.4978  -19.0011  -15.8072 C   0  0  0  0  0  0  0  0  0  0  0  0
   26.8605  -18.7220  -15.2078 C   0  0  1  0  0  0  0  0  0  0  0  0
   26.7079  -17.6270  -14.3496 O   0  0  0  0  0  0  0  0  0  0  0  0
   27.2306  -19.9064  -14.3419 C   0  0  2  0  0  0  0  0  0  0  0  0
   26.4885  -19.9128  -13.0960 N   0  0  0  0  0  0  0  0  0  0  0  0
   28.6950  -19.9563  -14.1012 C   0  0  0  0  0  0  0  0  0  0  0  0
   29.5830  -20.1225  -15.1439 O   0  0  0  0  0  0  0  0  0  0  0  0
   29.1414  -19.8466  -12.9354 O   0  0  0  0  0  0  0  0  0  0  0  0
  2  1  1  0
  3  5  1  0
  3  2  1  0
  3  4  1  6
  5  6  2  0
  7  5  1  0
  8  7  1  0
  8  9  1  1
  9 10  1  0
 10 15  2  0
 11 10  1  0
 11 12  2  0
 12 13  1  0
 13 14  2  0
 15 14  1  0
 16  8  1  0
 17 16  2  0
 19 18  1  1
 19 21  1  0
 20 19  1  0
 21 23  1  0
 21 22  1  1
 22 16  1  0
 23 24  1  0
 25 23  2  0
M  END
$$$$
