SFT.pdb
     RDKit          3D

 25 25  0  0  1  0  0  0  0  0999 V2000
   21.1626  -21.7414  -15.0438 O   0  0  0  0  0  0  0  0  0  0  0  0
   20.8828  -21.8203  -13.6678 C   0  0  0  0  0  0  0  0  0  0  0  0
   20.9990  -20.4183  -13.1251 C   0  0  2  0  0  0  0  0  0  0  0  0
   20.4000  -19.5023  -14.0775 N   0  0  0  0  0  0  0  0  0  0  0  0
   22.4156  -20.0545  -12.8694 C   0  0  0  0  0  0  0  0  0  0  0  0
   23.0072  -19.0768  -13.3909 O   0  0  0  0  0  0  0  0  0  0  0  0
   23.1515  -20.8722  -11.9706 N   0  0  0  0  0  0  0  0  0  0  0  0
   24.5053  -20.5780  -11.5726 C   0  0  1  0  0  0  0  0  0  0  0  0
   24.9305  -21.3352  -10.3527 C   0  0  0  0  0  0  0  0  0  0  0  0
   26.1764  -20.8432   -9.7233 C   0  0  0  0  0  0  0  0  0  0  0  0
   27.4050  -21.4426  -10.0265 C   0  0  0  0  0  0  0  0  0  0  0  0
   28.5983  -21.0197   -9.4839 C   0  0  0  0  0  0  0  0  0  0  0  0
   28.6086  -19.9628   -8.6021 C   0  0  0  0  0  0  0  0  0  0  0  0
   27.4231  -19.3400   -8.2728 C   0  0  0  0  0  0  0  0  0  0  0  0
   26.2255  -19.7885   -8.8375 C   0  0  0  0  0  0  0  0  0  0  0  0
   25.3980  -20.9172  -12.6985 C   0  0  0  0  0  0  0  0  0  0  0  0
   25.3227  -21.9910  -13.3470 O   0  0  0  0  0  0  0  0  0  0  0  0
   28.4775  -19.2304  -16.1251 C   0  0  0  0  0  0  0  0  0  0  0  0
   27.5990  -18.9024  -14.9357 C   0  0  1  0  0  0  0  0  0  0  0  0
   26.4286  -18.3277  -15.4442 O   0  0  0  0  0  0  0  0  0  0  0  0
   27.1975  -20.2101  -14.2890 C   0  0  2  0  0  0  0  0  0  0  0  0
   26.4076  -19.9962  -13.0918 N   0  0  0  0  0  0  0  0  0  0  0  0
   28.3853  -21.0565  -14.0110 C   0  0  0  0  0  0  0  0  0  0  0  0
   29.0396  -21.7217  -15.0273 O   0  0  0  0  0  0  0  0  0  0  0  0
   28.8082  -21.1749  -12.8374 O   0  0  0  0  0  0  0  0  0  0  0  0
  2  1  1  0
  3  5  1  0
  3  2  1  0
  3  4  1  6
  5  6  2  0
  7  5  1  0
  8  7  1  0
  8  9  1  1
  9 10  1  0
 10 15  2  0
 11 10  1  0
 11 12  2  0
 12 13  1  0
 13 14  2  0
 15 14  1  0
 16  8  1  0
 17 16  2  0
 19 18  1  6
 19 21  1  0
 20 19  1  0
 21 23  1  0
 21 22  1  1
 22 16  1  0
 23 24  1  0
 25 23  2  0
M  END
$$$$
