SFT.pdb
     RDKit          3D

 25 25  0  0  1  0  0  0  0  0999 V2000
   18.2122  -10.9196  -17.5618 O   0  0  0  0  0  0  0  0  0  0  0  0
   18.8216   -9.9465  -16.7498 C   0  0  0  0  0  0  0  0  0  0  0  0
   20.2784  -10.3221  -16.6497 C   0  0  2  0  0  0  0  0  0  0  0  0
   20.3781  -11.6263  -16.0220 N   0  0  0  0  0  0  0  0  0  0  0  0
   21.0446   -9.3106  -15.8787 C   0  0  0  0  0  0  0  0  0  0  0  0
   20.8767   -9.0653  -14.6582 O   0  0  0  0  0  0  0  0  0  0  0  0
   22.0375   -8.5693  -16.5735 N   0  0  0  0  0  0  0  0  0  0  0  0
   22.8244   -7.5357  -15.9488 C   0  0  1  0  0  0  0  0  0  0  0  0
   24.2840   -7.6451  -16.2645 C   0  0  0  0  0  0  0  0  0  0  0  0
   24.9424   -8.8583  -15.7305 C   0  0  0  0  0  0  0  0  0  0  0  0
   24.2039   -9.8008  -15.0047 C   0  0  0  0  0  0  0  0  0  0  0  0
   24.7578  -10.9548  -14.4958 C   0  0  0  0  0  0  0  0  0  0  0  0
   26.0944  -11.2146  -14.6969 C   0  0  0  0  0  0  0  0  0  0  0  0
   26.8630  -10.3156  -15.4061 C   0  0  0  0  0  0  0  0  0  0  0  0
   26.2766   -9.1519  -15.9122 C   0  0  0  0  0  0  0  0  0  0  0  0
   22.3168   -6.2295  -16.4130 C   0  0  0  0  0  0  0  0  0  0  0  0
   22.4592   -5.8051  -17.5873 O   0  0  0  0  0  0  0  0  0  0  0  0
   18.8861   -5.0596  -16.4050 C   0  0  0  0  0  0  0  0  0  0  0  0
   19.6078   -3.9935  -15.6072 C   0  0  1  0  0  0  0  0  0  0  0  0
   19.4569   -4.3279  -14.2566 O   0  0  0  0  0  0  0  0  0  0  0  0
   21.0835   -4.1068  -15.9222 C   0  0  2  0  0  0  0  0  0  0  0  0
   21.6251   -5.3847  -15.5020 N   0  0  0  0  0  0  0  0  0  0  0  0
   21.8445   -2.9754  -15.3344 C   0  0  0  0  0  0  0  0  0  0  0  0
   21.5443   -1.6690  -15.6610 O   0  0  0  0  0  0  0  0  0  0  0  0
   22.7764   -3.2005  -14.5275 O   0  0  0  0  0  0  0  0  0  0  0  0
  2  1  1  0
  3  5  1  0
  3  2  1  0
  3  4  1  1
  5  6  2  0
  7  5  1  0
  8  7  1  0
  8  9  1  6
  9 10  1  0
 10 15  2  0
 11 10  1  0
 11 12  2  0
 12 13  1  0
 13 14  2  0
 15 14  1  0
 16  8  1  0
 17 16  2  0
 19 18  1  6
 19 21  1  0
 20 19  1  0
 21 23  1  0
 21 22  1  1
 22 16  1  0
 23 24  1  0
 25 23  2  0
M  END
$$$$
