SFT.pdb
     RDKit          3D

 25 25  0  0  1  0  0  0  0  0999 V2000
   23.7444   -9.0791  -22.2150 O   0  0  0  0  0  0  0  0  0  0  0  0
   23.1786   -9.1686  -20.9305 C   0  0  0  0  0  0  0  0  0  0  0  0
   24.2175   -9.8126  -20.0478 C   0  0  2  0  0  0  0  0  0  0  0  0
   24.3201  -11.2158  -20.4017 N   0  0  0  0  0  0  0  0  0  0  0  0
   23.8749   -9.6592  -18.6112 C   0  0  0  0  0  0  0  0  0  0  0  0
   23.1433  -10.4485  -17.9633 O   0  0  0  0  0  0  0  0  0  0  0  0
   24.4144   -8.5395  -17.9235 N   0  0  0  0  0  0  0  0  0  0  0  0
   24.2202   -8.3181  -16.5125 C   0  0  1  0  0  0  0  0  0  0  0  0
   25.4906   -8.4234  -15.7269 C   0  0  0  0  0  0  0  0  0  0  0  0
   26.1995   -9.7149  -15.8689 C   0  0  0  0  0  0  0  0  0  0  0  0
   27.3032   -9.8241  -16.7235 C   0  0  0  0  0  0  0  0  0  0  0  0
   28.0113  -10.9945  -16.8859 C   0  0  0  0  0  0  0  0  0  0  0  0
   27.6358  -12.1196  -16.1876 C   0  0  0  0  0  0  0  0  0  0  0  0
   26.5548  -12.0611  -15.3333 C   0  0  0  0  0  0  0  0  0  0  0  0
   25.8532  -10.8610  -15.1863 C   0  0  0  0  0  0  0  0  0  0  0  0
   23.6420   -6.9714  -16.3351 C   0  0  0  0  0  0  0  0  0  0  0  0
   24.0614   -5.9496  -16.9346 O   0  0  0  0  0  0  0  0  0  0  0  0
   20.1978   -6.0863  -16.9784 C   0  0  0  0  0  0  0  0  0  0  0  0
   20.3977   -5.6197  -15.5514 C   0  0  1  0  0  0  0  0  0  0  0  0
   19.9306   -6.6455  -14.7217 O   0  0  0  0  0  0  0  0  0  0  0  0
   21.8874   -5.5084  -15.3108 C   0  0  2  0  0  0  0  0  0  0  0  0
   22.5495   -6.7919  -15.4427 N   0  0  0  0  0  0  0  0  0  0  0  0
   22.1715   -4.8844  -13.9938 C   0  0  0  0  0  0  0  0  0  0  0  0
   21.8020   -3.5820  -13.7281 O   0  0  0  0  0  0  0  0  0  0  0  0
   22.7561   -5.5433  -13.1025 O   0  0  0  0  0  0  0  0  0  0  0  0
  2  1  1  0
  3  5  1  0
  3  2  1  0
  3  4  1  6
  5  6  2  0
  7  5  1  0
  8  7  1  0
  8  9  1  1
  9 10  1  0
 10 15  2  0
 11 10  1  0
 11 12  2  0
 12 13  1  0
 13 14  2  0
 15 14  1  0
 16  8  1  0
 17 16  2  0
 19 18  1  6
 19 21  1  0
 20 19  1  0
 21 23  1  0
 21 22  1  1
 22 16  1  0
 23 24  1  0
 25 23  2  0
M  END
$$$$
