SFT.pdb
     RDKit          3D

 25 25  0  0  1  0  0  0  0  0999 V2000
   26.5791  -19.5957  -14.4550 O   0  0  0  0  0  0  0  0  0  0  0  0
   27.8178  -19.2002  -13.9192 C   0  0  0  0  0  0  0  0  0  0  0  0
   28.4456  -20.4382  -13.3305 C   0  0  2  0  0  0  0  0  0  0  0  0
   28.3448  -21.5137  -14.2991 N   0  0  0  0  0  0  0  0  0  0  0  0
   27.7903  -20.8207  -12.0543 C   0  0  0  0  0  0  0  0  0  0  0  0
   27.1131  -21.8650  -11.8840 O   0  0  0  0  0  0  0  0  0  0  0  0
   27.9417  -19.9412  -10.9491 N   0  0  0  0  0  0  0  0  0  0  0  0
   27.3413  -20.1888   -9.6622 C   0  0  1  0  0  0  0  0  0  0  0  0
   27.9621  -19.3802   -8.5655 C   0  0  0  0  0  0  0  0  0  0  0  0
   27.6465  -19.8492   -7.1976 C   0  0  0  0  0  0  0  0  0  0  0  0
   26.9052  -19.0405   -6.3275 C   0  0  0  0  0  0  0  0  0  0  0  0
   26.5686  -19.4283   -5.0494 C   0  0  0  0  0  0  0  0  0  0  0  0
   26.9674  -20.6610   -4.5848 C   0  0  0  0  0  0  0  0  0  0  0  0
   27.6995  -21.4931   -5.4054 C   0  0  0  0  0  0  0  0  0  0  0  0
   28.0280  -21.0759   -6.6985 C   0  0  0  0  0  0  0  0  0  0  0  0
   25.9037  -19.8671   -9.7578 C   0  0  0  0  0  0  0  0  0  0  0  0
   25.4596  -18.6995   -9.8958 O   0  0  0  0  0  0  0  0  0  0  0  0
   23.5116  -22.8246  -11.3554 C   0  0  0  0  0  0  0  0  0  0  0  0
   23.3224  -21.3275  -11.4840 C   0  0  1  0  0  0  0  0  0  0  0  0
   21.9701  -21.1146  -11.7754 O   0  0  0  0  0  0  0  0  0  0  0  0
   23.5768  -20.7155  -10.1237 C   0  0  2  0  0  0  0  0  0  0  0  0
   24.9467  -20.9169   -9.6927 N   0  0  0  0  0  0  0  0  0  0  0  0
   22.6112  -21.2263   -9.1181 C   0  0  0  0  0  0  0  0  0  0  0  0
   21.2530  -21.0438   -9.2778 O   0  0  0  0  0  0  0  0  0  0  0  0
   23.0268  -21.8345   -8.1043 O   0  0  0  0  0  0  0  0  0  0  0  0
  2  1  1  0
  3  5  1  0
  3  2  1  0
  3  4  1  6
  5  6  2  0
  7  5  1  0
  8  7  1  0
  8  9  1  1
  9 10  1  0
 10 15  2  0
 11 10  1  0
 11 12  2  0
 12 13  1  0
 13 14  2  0
 15 14  1  0
 16  8  1  0
 17 16  2  0
 19 18  1  1
 19 21  1  0
 20 19  1  0
 21 23  1  0
 21 22  1  1
 22 16  1  0
 23 24  1  0
 25 23  2  0
M  END
$$$$
