SFT.pdb
     RDKit          3D

 25 25  0  0  1  0  0  0  0  0999 V2000
   27.1944  -19.1391  -15.1342 O   0  0  0  0  0  0  0  0  0  0  0  0
   27.8734  -18.8040  -13.9490 C   0  0  0  0  0  0  0  0  0  0  0  0
   28.2833  -20.1050  -13.3068 C   0  0  2  0  0  0  0  0  0  0  0  0
   28.9030  -20.9440  -14.3153 N   0  0  0  0  0  0  0  0  0  0  0  0
   27.1195  -20.7952  -12.6954 C   0  0  0  0  0  0  0  0  0  0  0  0
   26.7085  -21.9344  -13.0292 O   0  0  0  0  0  0  0  0  0  0  0  0
   26.4234  -20.1164  -11.6598 N   0  0  0  0  0  0  0  0  0  0  0  0
   25.2503  -20.6563  -11.0192 C   0  0  1  0  0  0  0  0  0  0  0  0
   24.9537  -20.0044   -9.7042 C   0  0  0  0  0  0  0  0  0  0  0  0
   26.0412  -20.1053   -8.7054 C   0  0  0  0  0  0  0  0  0  0  0  0
   26.5703  -21.3553   -8.3617 C   0  0  0  0  0  0  0  0  0  0  0  0
   27.5917  -21.5109   -7.4507 C   0  0  0  0  0  0  0  0  0  0  0  0
   28.1320  -20.4031   -6.8380 C   0  0  0  0  0  0  0  0  0  0  0  0
   27.6439  -19.1502   -7.1444 C   0  0  0  0  0  0  0  0  0  0  0  0
   26.6069  -19.0195   -8.0727 C   0  0  0  0  0  0  0  0  0  0  0  0
   24.1039  -20.4703  -11.9306 C   0  0  0  0  0  0  0  0  0  0  0  0
   23.7720  -19.3585  -12.4133 O   0  0  0  0  0  0  0  0  0  0  0  0
   21.9882  -23.9096  -13.4733 C   0  0  0  0  0  0  0  0  0  0  0  0
   22.3105  -22.6602  -14.2666 C   0  0  1  0  0  0  0  0  0  0  0  0
   21.2574  -22.4716  -15.1690 O   0  0  0  0  0  0  0  0  0  0  0  0
   22.2790  -21.4892  -13.3088 C   0  0  2  0  0  0  0  0  0  0  0  0
   23.3144  -21.5942  -12.2989 N   0  0  0  0  0  0  0  0  0  0  0  0
   20.9358  -21.3363  -12.6946 C   0  0  0  0  0  0  0  0  0  0  0  0
   20.7589  -21.4505  -11.3311 O   0  0  0  0  0  0  0  0  0  0  0  0
   19.9405  -21.0996  -13.4181 O   0  0  0  0  0  0  0  0  0  0  0  0
  2  1  1  0
  3  5  1  0
  3  2  1  0
  3  4  1  6
  5  6  2  0
  7  5  1  0
  8  7  1  0
  8  9  1  1
  9 10  1  0
 10 15  2  0
 11 10  1  0
 11 12  2  0
 12 13  1  0
 13 14  2  0
 15 14  1  0
 16  8  1  0
 17 16  2  0
 19 18  1  1
 19 21  1  0
 20 19  1  0
 21 23  1  0
 21 22  1  1
 22 16  1  0
 23 24  1  0
 25 23  2  0
M  END
$$$$
