SFT.pdb
     RDKit          3D

 25 25  0  0  1  0  0  0  0  0999 V2000
   21.8764  -21.2972  -10.5814 O   0  0  0  0  0  0  0  0  0  0  0  0
   22.3804  -22.1999   -9.6279 C   0  0  0  0  0  0  0  0  0  0  0  0
   22.8880  -21.3690   -8.4767 C   0  0  2  0  0  0  0  0  0  0  0  0
   21.8209  -20.4920   -8.0329 N   0  0  0  0  0  0  0  0  0  0  0  0
   24.0846  -20.5810   -8.8665 C   0  0  0  0  0  0  0  0  0  0  0  0
   24.0632  -19.3730   -9.2104 O   0  0  0  0  0  0  0  0  0  0  0  0
   25.3413  -21.2430   -8.8481 N   0  0  0  0  0  0  0  0  0  0  0  0
   26.5676  -20.6085   -9.2620 C   0  0  1  0  0  0  0  0  0  0  0  0
   27.7287  -20.9582   -8.3835 C   0  0  0  0  0  0  0  0  0  0  0  0
   27.7082  -20.3188   -7.0488 C   0  0  0  0  0  0  0  0  0  0  0  0
   27.2927  -18.9890   -6.9093 C   0  0  0  0  0  0  0  0  0  0  0  0
   27.2387  -18.3454   -5.6927 C   0  0  0  0  0  0  0  0  0  0  0  0
   27.6045  -19.0189   -4.5494 C   0  0  0  0  0  0  0  0  0  0  0  0
   28.0207  -20.3308   -4.6364 C   0  0  0  0  0  0  0  0  0  0  0  0
   28.0663  -20.9612   -5.8832 C   0  0  0  0  0  0  0  0  0  0  0  0
   26.8553  -21.0274  -10.6480 C   0  0  0  0  0  0  0  0  0  0  0  0
   27.4487  -22.0951  -10.9433 O   0  0  0  0  0  0  0  0  0  0  0  0
   24.7815  -22.1198  -13.2815 C   0  0  0  0  0  0  0  0  0  0  0  0
   25.3750  -20.8414  -13.8359 C   0  0  1  0  0  0  0  0  0  0  0  0
   24.5040  -19.8047  -13.4816 O   0  0  0  0  0  0  0  0  0  0  0  0
   26.6758  -20.5866  -13.1060 C   0  0  2  0  0  0  0  0  0  0  0  0
   26.4499  -20.1956  -11.7279 N   0  0  0  0  0  0  0  0  0  0  0  0
   27.5055  -19.5866  -13.8245 C   0  0  0  0  0  0  0  0  0  0  0  0
   27.9484  -19.8201  -15.1100 O   0  0  0  0  0  0  0  0  0  0  0  0
   27.8138  -18.5098  -13.2625 O   0  0  0  0  0  0  0  0  0  0  0  0
  2  1  1  0
  3  5  1  0
  3  2  1  0
  3  4  1  6
  5  6  2  0
  7  5  1  0
  8  7  1  0
  8  9  1  1
  9 10  1  0
 10 15  2  0
 11 10  1  0
 11 12  2  0
 12 13  1  0
 13 14  2  0
 15 14  1  0
 16  8  1  0
 17 16  2  0
 19 18  1  1
 19 21  1  0
 20 19  1  0
 21 23  1  0
 21 22  1  1
 22 16  1  0
 23 24  1  0
 25 23  2  0
M  END
$$$$
