SFT.pdb
     RDKit          3D

 25 25  0  0  1  0  0  0  0  0999 V2000
   19.0172  -10.8983  -20.3217 O   0  0  0  0  0  0  0  0  0  0  0  0
   18.7626   -9.9088  -19.3552 C   0  0  0  0  0  0  0  0  0  0  0  0
   20.0088   -9.8003  -18.5135 C   0  0  2  0  0  0  0  0  0  0  0  0
   20.3579  -11.1231  -18.0307 N   0  0  0  0  0  0  0  0  0  0  0  0
   19.8130   -8.8639  -17.3780 C   0  0  0  0  0  0  0  0  0  0  0  0
   19.0027   -9.0441  -16.4352 O   0  0  0  0  0  0  0  0  0  0  0  0
   20.5994   -7.6810  -17.3593 N   0  0  0  0  0  0  0  0  0  0  0  0
   20.4997   -6.6898  -16.3175 C   0  0  1  0  0  0  0  0  0  0  0  0
   21.7661   -6.5418  -15.5324 C   0  0  0  0  0  0  0  0  0  0  0  0
   22.0820   -7.6856  -14.6479 C   0  0  0  0  0  0  0  0  0  0  0  0
   21.3644   -7.8796  -13.4613 C   0  0  0  0  0  0  0  0  0  0  0  0
   21.6029   -8.9327  -12.6060 C   0  0  0  0  0  0  0  0  0  0  0  0
   22.5851   -9.8477  -12.9102 C   0  0  0  0  0  0  0  0  0  0  0  0
   23.3186   -9.6987  -14.0685 C   0  0  0  0  0  0  0  0  0  0  0  0
   23.0567   -8.6213  -14.9197 C   0  0  0  0  0  0  0  0  0  0  0  0
   20.1556   -5.3985  -16.9449 C   0  0  0  0  0  0  0  0  0  0  0  0
   20.8117   -4.8854  -17.8859 O   0  0  0  0  0  0  0  0  0  0  0  0
   16.9893   -4.6592  -18.5782 C   0  0  0  0  0  0  0  0  0  0  0  0
   17.1146   -3.5619  -17.5417 C   0  0  1  0  0  0  0  0  0  0  0  0
   16.4167   -3.9948  -16.4085 O   0  0  0  0  0  0  0  0  0  0  0  0
   18.5725   -3.4696  -17.1471 C   0  0  2  0  0  0  0  0  0  0  0  0
   19.0244   -4.6741  -16.4780 N   0  0  0  0  0  0  0  0  0  0  0  0
   18.8279   -2.2621  -16.3215 C   0  0  0  0  0  0  0  0  0  0  0  0
   18.6654   -0.9952  -16.8430 O   0  0  0  0  0  0  0  0  0  0  0  0
   19.1975   -2.3855  -15.1305 O   0  0  0  0  0  0  0  0  0  0  0  0
  2  1  1  0
  3  5  1  0
  3  2  1  0
  3  4  1  1
  5  6  2  0
  7  5  1  0
  8  7  1  0
  8  9  1  6
  9 10  1  0
 10 15  2  0
 11 10  1  0
 11 12  2  0
 12 13  1  0
 13 14  2  0
 15 14  1  0
 16  8  1  0
 17 16  2  0
 19 18  1  6
 19 21  1  0
 20 19  1  0
 21 23  1  0
 21 22  1  1
 22 16  1  0
 23 24  1  0
 25 23  2  0
M  END
$$$$
