SFT.pdb
     RDKit          3D

 25 25  0  0  1  0  0  0  0  0999 V2000
   21.5207  -21.3162  -10.8619 O   0  0  0  0  0  0  0  0  0  0  0  0
   22.2026  -22.2588  -10.0716 C   0  0  0  0  0  0  0  0  0  0  0  0
   22.9313  -21.4791   -9.0066 C   0  0  2  0  0  0  0  0  0  0  0  0
   21.9718  -20.6499   -8.3019 N   0  0  0  0  0  0  0  0  0  0  0  0
   24.0119  -20.6460   -9.5922 C   0  0  0  0  0  0  0  0  0  0  0  0
   23.8883  -19.4376   -9.9120 O   0  0  0  0  0  0  0  0  0  0  0  0
   25.2741  -21.2623   -9.8045 N   0  0  0  0  0  0  0  0  0  0  0  0
   26.4064  -20.5605  -10.3550 C   0  0  1  0  0  0  0  0  0  0  0  0
   27.6689  -20.7999   -9.5865 C   0  0  0  0  0  0  0  0  0  0  0  0
   27.6879  -20.2085   -8.2298 C   0  0  0  0  0  0  0  0  0  0  0  0
   28.3411  -20.8678   -7.1814 C   0  0  0  0  0  0  0  0  0  0  0  0
   28.4048  -20.3604   -5.9024 C   0  0  0  0  0  0  0  0  0  0  0  0
   27.8074  -19.1534   -5.6184 C   0  0  0  0  0  0  0  0  0  0  0  0
   27.1521  -18.4665   -6.6187 C   0  0  0  0  0  0  0  0  0  0  0  0
   27.1021  -19.0032   -7.9085 C   0  0  0  0  0  0  0  0  0  0  0  0
   26.5876  -21.0063  -11.7507 C   0  0  0  0  0  0  0  0  0  0  0  0
   27.1258  -22.0966  -12.0685 O   0  0  0  0  0  0  0  0  0  0  0  0
   24.0237  -21.6531  -14.2636 C   0  0  0  0  0  0  0  0  0  0  0  0
   24.8824  -20.5704  -14.8837 C   0  0  1  0  0  0  0  0  0  0  0  0
   24.2912  -19.3461  -14.5515 O   0  0  0  0  0  0  0  0  0  0  0  0
   26.2297  -20.6049  -14.1958 C   0  0  2  0  0  0  0  0  0  0  0  0
   26.1375  -20.1759  -12.8137 N   0  0  0  0  0  0  0  0  0  0  0  0
   27.2337  -19.8081  -14.9453 C   0  0  0  0  0  0  0  0  0  0  0  0
   27.6052  -20.1553  -16.2279 O   0  0  0  0  0  0  0  0  0  0  0  0
   27.7578  -18.8021  -14.4129 O   0  0  0  0  0  0  0  0  0  0  0  0
  2  1  1  0
  3  5  1  0
  3  2  1  0
  3  4  1  6
  5  6  2  0
  7  5  1  0
  8  7  1  0
  8  9  1  1
  9 10  1  0
 10 15  2  0
 11 10  1  0
 11 12  2  0
 12 13  1  0
 13 14  2  0
 15 14  1  0
 16  8  1  0
 17 16  2  0
 19 18  1  1
 19 21  1  0
 20 19  1  0
 21 23  1  0
 21 22  1  1
 22 16  1  0
 23 24  1  0
 25 23  2  0
M  END
$$$$
