SFT.pdb
     RDKit          3D

 25 25  0  0  1  0  0  0  0  0999 V2000
   29.5606  -21.1192  -12.9696 O   0  0  0  0  0  0  0  0  0  0  0  0
   30.4065  -20.3881  -12.1165 C   0  0  0  0  0  0  0  0  0  0  0  0
   30.5600  -21.2067  -10.8597 C   0  0  2  0  0  0  0  0  0  0  0  0
   31.0565  -22.5211  -11.2212 N   0  0  0  0  0  0  0  0  0  0  0  0
   29.2732  -21.3170  -10.1272 C   0  0  0  0  0  0  0  0  0  0  0  0
   28.6089  -22.3763  -10.0058 O   0  0  0  0  0  0  0  0  0  0  0  0
   28.7594  -20.1392   -9.5216 N   0  0  0  0  0  0  0  0  0  0  0  0
   27.5318  -20.1176   -8.7664 C   0  0  1  0  0  0  0  0  0  0  0  0
   27.5155  -19.0534   -7.7132 C   0  0  0  0  0  0  0  0  0  0  0  0
   27.6379  -19.5550   -6.3261 C   0  0  0  0  0  0  0  0  0  0  0  0
   28.7889  -19.2836   -5.5763 C   0  0  0  0  0  0  0  0  0  0  0  0
   28.9539  -19.7110   -4.2772 C   0  0  0  0  0  0  0  0  0  0  0  0
   27.9569  -20.4386   -3.6681 C   0  0  0  0  0  0  0  0  0  0  0  0
   26.8042  -20.7307   -4.3665 C   0  0  0  0  0  0  0  0  0  0  0  0
   26.6613  -20.2851   -5.6837 C   0  0  0  0  0  0  0  0  0  0  0  0
   26.4177  -19.8946   -9.7089 C   0  0  0  0  0  0  0  0  0  0  0  0
   26.2436  -18.8212  -10.3389 O   0  0  0  0  0  0  0  0  0  0  0  0
   25.9302  -21.1969  -12.7555 C   0  0  0  0  0  0  0  0  0  0  0  0
   24.6234  -21.6338  -12.1267 C   0  0  1  0  0  0  0  0  0  0  0  0
   24.8093  -22.9468  -11.6791 O   0  0  0  0  0  0  0  0  0  0  0  0
   24.4000  -20.7813  -10.8966 C   0  0  2  0  0  0  0  0  0  0  0  0
   25.4748  -20.9347   -9.9352 N   0  0  0  0  0  0  0  0  0  0  0  0
   23.0783  -21.0644  -10.2822 C   0  0  0  0  0  0  0  0  0  0  0  0
   21.9114  -20.9174  -11.0035 O   0  0  0  0  0  0  0  0  0  0  0  0
   23.0111  -21.4436   -9.0898 O   0  0  0  0  0  0  0  0  0  0  0  0
  2  1  1  0
  3  5  1  0
  3  2  1  0
  3  4  1  6
  5  6  2  0
  7  5  1  0
  8  7  1  0
  8  9  1  1
  9 10  1  0
 10 15  2  0
 11 10  1  0
 11 12  2  0
 12 13  1  0
 13 14  2  0
 15 14  1  0
 16  8  1  0
 17 16  2  0
 19 18  1  1
 19 21  1  0
 20 19  1  0
 21 23  1  0
 21 22  1  1
 22 16  1  0
 23 24  1  0
 25 23  2  0
M  END
$$$$
