SFT.pdb
     RDKit          3D

 25 25  0  0  1  0  0  0  0  0999 V2000
   25.6979  -19.4188  -18.9935 O   0  0  0  0  0  0  0  0  0  0  0  0
   26.3072  -18.2277  -18.5599 C   0  0  0  0  0  0  0  0  0  0  0  0
   27.5445  -18.6312  -17.7985 C   0  0  2  0  0  0  0  0  0  0  0  0
   28.4614  -19.2808  -18.7161 N   0  0  0  0  0  0  0  0  0  0  0  0
   27.2114  -19.5324  -16.6664 C   0  0  0  0  0  0  0  0  0  0  0  0
   27.4116  -20.7725  -16.6579 O   0  0  0  0  0  0  0  0  0  0  0  0
   26.6248  -18.9476  -15.5123 N   0  0  0  0  0  0  0  0  0  0  0  0
   26.2437  -19.7143  -14.3528 C   0  0  1  0  0  0  0  0  0  0  0  0
   26.5226  -19.0007  -13.0663 C   0  0  0  0  0  0  0  0  0  0  0  0
   26.1303  -19.7456  -11.8489 C   0  0  0  0  0  0  0  0  0  0  0  0
   26.9168  -20.8080  -11.3873 C   0  0  0  0  0  0  0  0  0  0  0  0
   26.6109  -21.5284  -10.2538 C   0  0  0  0  0  0  0  0  0  0  0  0
   25.4872  -21.2080   -9.5262 C   0  0  0  0  0  0  0  0  0  0  0  0
   24.6812  -20.1689   -9.9415 C   0  0  0  0  0  0  0  0  0  0  0  0
   25.0140  -19.4534  -11.0953 C   0  0  0  0  0  0  0  0  0  0  0  0
   24.7999  -20.0062  -14.4507 C   0  0  0  0  0  0  0  0  0  0  0  0
   23.9443  -19.1670  -14.8291 O   0  0  0  0  0  0  0  0  0  0  0  0
   21.1931  -23.3549  -14.3330 C   0  0  0  0  0  0  0  0  0  0  0  0
   22.6879  -23.1117  -14.3498 C   0  0  1  0  0  0  0  0  0  0  0  0
   23.1353  -23.4334  -15.6363 O   0  0  0  0  0  0  0  0  0  0  0  0
   22.9119  -21.6261  -14.1690 C   0  0  2  0  0  0  0  0  0  0  0  0
   24.3235  -21.3004  -14.1038 N   0  0  0  0  0  0  0  0  0  0  0  0
   22.1820  -21.1157  -12.9809 C   0  0  0  0  0  0  0  0  0  0  0  0
   20.8034  -21.1308  -12.9311 O   0  0  0  0  0  0  0  0  0  0  0  0
   22.8198  -20.6617  -12.0024 O   0  0  0  0  0  0  0  0  0  0  0  0
  2  1  1  0
  3  5  1  0
  3  2  1  0
  3  4  1  6
  5  6  2  0
  7  5  1  0
  8  7  1  0
  8  9  1  1
  9 10  1  0
 10 15  2  0
 11 10  1  0
 11 12  2  0
 12 13  1  0
 13 14  2  0
 15 14  1  0
 16  8  1  0
 17 16  2  0
 19 18  1  6
 19 21  1  0
 20 19  1  0
 21 23  1  0
 21 22  1  1
 22 16  1  0
 23 24  1  0
 25 23  2  0
M  END
$$$$
