SFT.pdb
     RDKit          3D

 25 25  0  0  1  0  0  0  0  0999 V2000
   26.5843  -19.9052  -14.5298 O   0  0  0  0  0  0  0  0  0  0  0  0
   27.9108  -19.7248  -14.0990 C   0  0  0  0  0  0  0  0  0  0  0  0
   28.3632  -21.0487  -13.5368 C   0  0  2  0  0  0  0  0  0  0  0  0
   27.9807  -22.0993  -14.4614 N   0  0  0  0  0  0  0  0  0  0  0  0
   27.7765  -21.2937  -12.1950 C   0  0  0  0  0  0  0  0  0  0  0  0
   26.9311  -22.1865  -11.9373 O   0  0  0  0  0  0  0  0  0  0  0  0
   28.2036  -20.4575  -11.1290 N   0  0  0  0  0  0  0  0  0  0  0  0
   27.7097  -20.5915   -9.7815 C   0  0  1  0  0  0  0  0  0  0  0  0
   28.5957  -19.9340   -8.7692 C   0  0  0  0  0  0  0  0  0  0  0  0
   28.1569  -20.0975   -7.3651 C   0  0  0  0  0  0  0  0  0  0  0  0
   27.2052  -19.2290   -6.8172 C   0  0  0  0  0  0  0  0  0  0  0  0
   26.7478  -19.3402   -5.5226 C   0  0  0  0  0  0  0  0  0  0  0  0
   27.2333  -20.3417   -4.7128 C   0  0  0  0  0  0  0  0  0  0  0  0
   28.1722  -21.2221   -5.2081 C   0  0  0  0  0  0  0  0  0  0  0  0
   28.6198  -21.0876   -6.5255 C   0  0  0  0  0  0  0  0  0  0  0  0
   26.3640  -19.9871   -9.7244 C   0  0  0  0  0  0  0  0  0  0  0  0
   26.1491  -18.7547   -9.8441 O   0  0  0  0  0  0  0  0  0  0  0  0
   24.0811  -20.2328  -12.0626 C   0  0  0  0  0  0  0  0  0  0  0  0
   23.2165  -20.7232  -10.9199 C   0  0  1  0  0  0  0  0  0  0  0  0
   23.2560  -22.1218  -10.9545 O   0  0  0  0  0  0  0  0  0  0  0  0
   23.8819  -20.3001   -9.6284 C   0  0  2  0  0  0  0  0  0  0  0  0
   25.2307  -20.8223   -9.5237 N   0  0  0  0  0  0  0  0  0  0  0  0
   23.0595  -20.6821   -8.4526 C   0  0  0  0  0  0  0  0  0  0  0  0
   21.7273  -20.3329   -8.3714 O   0  0  0  0  0  0  0  0  0  0  0  0
   23.5749  -21.3325   -7.5136 O   0  0  0  0  0  0  0  0  0  0  0  0
  2  1  1  0
  3  5  1  0
  3  2  1  0
  3  4  1  6
  5  6  2  0
  7  5  1  0
  8  7  1  0
  8  9  1  1
  9 10  1  0
 10 15  2  0
 11 10  1  0
 11 12  2  0
 12 13  1  0
 13 14  2  0
 15 14  1  0
 16  8  1  0
 17 16  2  0
 19 18  1  6
 19 21  1  0
 20 19  1  0
 21 23  1  0
 21 22  1  1
 22 16  1  0
 23 24  1  0
 25 23  2  0
M  END
$$$$
