SFT.pdb
     RDKit          3D

 25 25  0  0  1  0  0  0  0  0999 V2000
   27.6538  -19.3849  -14.7426 O   0  0  0  0  0  0  0  0  0  0  0  0
   28.4334  -19.0503  -13.6209 C   0  0  0  0  0  0  0  0  0  0  0  0
   28.6912  -20.3369  -12.8782 C   0  0  2  0  0  0  0  0  0  0  0  0
   29.3066  -21.2826  -13.7903 N   0  0  0  0  0  0  0  0  0  0  0  0
   27.4362  -20.8950  -12.3142 C   0  0  0  0  0  0  0  0  0  0  0  0
   26.9310  -21.9957  -12.6476 O   0  0  0  0  0  0  0  0  0  0  0  0
   26.7613  -20.1273  -11.3278 N   0  0  0  0  0  0  0  0  0  0  0  0
   25.5491  -20.5688  -10.6848 C   0  0  1  0  0  0  0  0  0  0  0  0
   25.3208  -19.9106   -9.3594 C   0  0  0  0  0  0  0  0  0  0  0  0
   26.4510  -20.0242   -8.4104 C   0  0  0  0  0  0  0  0  0  0  0  0
   26.7804  -18.9512   -7.5733 C   0  0  0  0  0  0  0  0  0  0  0  0
   27.8110  -19.0028   -6.6608 C   0  0  0  0  0  0  0  0  0  0  0  0
   28.5644  -20.1492   -6.5489 C   0  0  0  0  0  0  0  0  0  0  0  0
   28.2777  -21.2329   -7.3523 C   0  0  0  0  0  0  0  0  0  0  0  0
   27.2263  -21.1549   -8.2702 C   0  0  0  0  0  0  0  0  0  0  0  0
   24.4177  -20.2691  -11.5846 C   0  0  0  0  0  0  0  0  0  0  0  0
   24.1813  -19.1252  -12.0480 O   0  0  0  0  0  0  0  0  0  0  0  0
   23.6888  -22.0109  -14.7476 C   0  0  0  0  0  0  0  0  0  0  0  0
   22.3843  -22.1031  -13.9835 C   0  0  1  0  0  0  0  0  0  0  0  0
   22.3656  -23.3590  -13.3661 O   0  0  0  0  0  0  0  0  0  0  0  0
   22.4291  -21.0732  -12.8758 C   0  0  2  0  0  0  0  0  0  0  0  0
   23.5307  -21.3139  -11.9638 N   0  0  0  0  0  0  0  0  0  0  0  0
   21.1328  -21.0061  -12.1549 C   0  0  0  0  0  0  0  0  0  0  0  0
   19.9641  -20.6945  -12.8184 O   0  0  0  0  0  0  0  0  0  0  0  0
   21.0893  -21.2346  -10.9235 O   0  0  0  0  0  0  0  0  0  0  0  0
  2  1  1  0
  3  5  1  0
  3  2  1  0
  3  4  1  6
  5  6  2  0
  7  5  1  0
  8  7  1  0
  8  9  1  1
  9 10  1  0
 10 15  2  0
 11 10  1  0
 11 12  2  0
 12 13  1  0
 13 14  2  0
 15 14  1  0
 16  8  1  0
 17 16  2  0
 19 18  1  6
 19 21  1  0
 20 19  1  0
 21 23  1  0
 21 22  1  1
 22 16  1  0
 23 24  1  0
 25 23  2  0
M  END
$$$$
