ANY.pdb
     RDKit          3D

 26 26  0  0  1  0  0  0  0  0999 V2000
   29.8112  -10.8433  -23.6870 C   0  0  0  0  0  0  0  0  0  0  0  0
   30.5593  -10.5580  -22.3969 C   0  0  2  0  0  0  0  0  0  0  0  0
   30.9848  -11.8075  -21.8150 N   0  0  0  0  0  0  0  0  0  0  0  0
   29.6220   -9.8070  -21.5192 C   0  0  0  0  0  0  0  0  0  0  0  0
   29.1995   -8.7195  -21.9406 O   0  0  0  0  0  0  0  0  0  0  0  0
   25.8678  -12.1876  -19.5889 N   0  0  0  0  0  0  0  0  0  0  0  0
   26.3475  -10.8322  -19.6063 C   0  0  0  0  0  0  0  0  0  0  0  0
   25.8130  -10.0645  -20.4401 O   0  0  0  0  0  0  0  0  0  0  0  0
   27.4149  -10.4644  -18.6532 C   0  0  0  0  0  0  0  0  0  0  0  0
   28.3804   -9.5255  -19.3312 C   0  0  2  0  0  0  0  0  0  0  0  0
   29.2025  -10.2789  -20.2449 N   0  0  0  0  0  0  0  0  0  0  0  0
   29.1968   -8.7656  -18.3453 C   0  0  0  0  0  0  0  0  0  0  0  0
   28.5901   -8.0362  -17.5258 O   0  0  0  0  0  0  0  0  0  0  0  0
   35.0897  -12.9474  -19.1063 O   0  0  0  0  0  0  0  0  0  0  0  0
   34.3388  -11.9846  -18.4337 C   0  0  0  0  0  0  0  0  0  0  0  0
   34.9031  -10.7980  -18.0151 C   0  0  0  0  0  0  0  0  0  0  0  0
   34.2161   -9.8124  -17.3492 C   0  0  0  0  0  0  0  0  0  0  0  0
   32.8754   -9.9915  -17.0668 C   0  0  0  0  0  0  0  0  0  0  0  0
   32.0743   -8.9955  -16.3295 C   0  0  0  0  0  0  0  0  0  0  0  0
   31.3824   -8.0791  -17.2720 C   0  0  2  0  0  0  0  0  0  0  0  0
   30.6037   -8.8077  -18.2673 N   0  0  0  0  0  0  0  0  0  0  0  0
   32.3417   -7.2282  -17.9840 C   0  0  0  0  0  0  0  0  0  0  0  0
   33.1947   -6.3606  -17.3634 O   0  0  0  0  0  0  0  0  0  0  0  0
   32.2973  -11.1743  -17.4795 C   0  0  0  0  0  0  0  0  0  0  0  0
   33.0014  -12.1671  -18.1537 C   0  0  0  0  0  0  0  0  0  0  0  0
   32.3923   -7.2877  -19.2465 O   0  0  0  0  0  0  0  0  0  0  0  0
  2  3  1  0
  2  1  1  6
  4  2  1  0
  5  4  2  0
  6  7  1  0
  7  8  2  0
  9  7  1  0
 10  9  1  1
 10 11  1  0
 11  4  1  0
 12 10  1  0
 12 21  1  0
 13 12  2  0
 15 14  1  0
 16 15  2  0
 17 16  1  0
 18 17  2  0
 18 24  1  0
 19 18  1  0
 20 19  1  1
 20 21  1  0
 20 22  1  0
 22 26  2  0
 22 23  1  0
 24 25  2  0
 25 15  1  0
M  END
$$$$
