ANY.pdb
     RDKit          3D

 26 26  0  0  1  0  0  0  0  0999 V2000
   24.6920  -15.9419  -17.0743 C   0  0  0  0  0  0  0  0  0  0  0  0
   25.4088  -15.0531  -18.0753 C   0  0  2  0  0  0  0  0  0  0  0  0
   26.5450  -15.7657  -18.6063 N   0  0  0  0  0  0  0  0  0  0  0  0
   25.7981  -13.8175  -17.3441 C   0  0  0  0  0  0  0  0  0  0  0  0
   26.1203  -13.9418  -16.1527 O   0  0  0  0  0  0  0  0  0  0  0  0
   28.5497   -9.4739  -16.0873 N   0  0  0  0  0  0  0  0  0  0  0  0
   27.6399   -9.4033  -17.1986 C   0  0  0  0  0  0  0  0  0  0  0  0
   27.1896   -8.2674  -17.4764 O   0  0  0  0  0  0  0  0  0  0  0  0
   27.3175  -10.6581  -17.9089 C   0  0  0  0  0  0  0  0  0  0  0  0
   26.1304  -11.3099  -17.2458 C   0  0  2  0  0  0  0  0  0  0  0  0
   25.8141  -12.5294  -17.9467 N   0  0  0  0  0  0  0  0  0  0  0  0
   24.9625  -10.3896  -17.1754 C   0  0  0  0  0  0  0  0  0  0  0  0
   24.3614  -10.1289  -18.2442 O   0  0  0  0  0  0  0  0  0  0  0  0
   19.4311  -13.6521  -17.6945 O   0  0  0  0  0  0  0  0  0  0  0  0
   20.1210  -12.6167  -17.0659 C   0  0  0  0  0  0  0  0  0  0  0  0
   20.9715  -12.8595  -16.0078 C   0  0  0  0  0  0  0  0  0  0  0  0
   21.6777  -11.8828  -15.3490 C   0  0  0  0  0  0  0  0  0  0  0  0
   21.5491  -10.5661  -15.7477 C   0  0  0  0  0  0  0  0  0  0  0  0
   22.2488   -9.4554  -15.0736 C   0  0  0  0  0  0  0  0  0  0  0  0
   23.3226   -8.9092  -15.9429 C   0  0  2  0  0  0  0  0  0  0  0  0
   24.4841   -9.7903  -15.9926 N   0  0  0  0  0  0  0  0  0  0  0  0
   23.7721   -7.5962  -15.4682 C   0  0  0  0  0  0  0  0  0  0  0  0
   25.0571   -7.3219  -15.0954 O   0  0  0  0  0  0  0  0  0  0  0  0
   20.7013  -10.3080  -16.8050 C   0  0  0  0  0  0  0  0  0  0  0  0
   19.9899  -11.3042  -17.4665 C   0  0  0  0  0  0  0  0  0  0  0  0
   22.9322   -6.6536  -15.3911 O   0  0  0  0  0  0  0  0  0  0  0  0
  2  3  1  0
  2  1  1  1
  4  2  1  0
  5  4  2  0
  6  7  1  0
  7  8  2  0
  9  7  1  0
 10  9  1  6
 10 11  1  0
 11  4  1  0
 12 10  1  0
 12 21  1  0
 13 12  2  0
 15 14  1  0
 16 15  2  0
 17 16  1  0
 18 17  2  0
 18 24  1  0
 19 18  1  0
 20 19  1  1
 20 21  1  0
 20 22  1  0
 22 26  2  0
 22 23  1  0
 24 25  2  0
 25 15  1  0
M  END
$$$$
