ANY.pdb
     RDKit          3D

 26 26  0  0  1  0  0  0  0  0999 V2000
   19.9404  -11.4670  -16.2481 C   0  0  0  0  0  0  0  0  0  0  0  0
   20.9945  -10.4809  -16.7192 C   0  0  2  0  0  0  0  0  0  0  0  0
   22.2981  -11.0796  -16.5680 N   0  0  0  0  0  0  0  0  0  0  0  0
   20.8282   -9.2544  -15.8940 C   0  0  0  0  0  0  0  0  0  0  0  0
   20.4935   -9.4093  -14.7096 O   0  0  0  0  0  0  0  0  0  0  0  0
   21.7137   -5.5606  -12.5902 N   0  0  0  0  0  0  0  0  0  0  0  0
   22.4130   -5.6595  -13.8426 C   0  0  0  0  0  0  0  0  0  0  0  0
   23.0983   -4.6648  -14.1762 O   0  0  0  0  0  0  0  0  0  0  0  0
   22.2667   -6.9077  -14.6194 C   0  0  0  0  0  0  0  0  0  0  0  0
   21.1150   -6.7588  -15.5811 C   0  0  2  0  0  0  0  0  0  0  0  0
   21.0339   -7.9417  -16.4012 N   0  0  0  0  0  0  0  0  0  0  0  0
   21.2352   -5.5214  -16.3999 C   0  0  0  0  0  0  0  0  0  0  0  0
   22.2805   -5.3692  -17.0751 O   0  0  0  0  0  0  0  0  0  0  0  0
   14.0306   -4.1446  -16.6620 O   0  0  0  0  0  0  0  0  0  0  0  0
   15.3431   -3.9973  -17.1080 C   0  0  0  0  0  0  0  0  0  0  0  0
   15.9516   -2.7606  -17.1519 C   0  0  0  0  0  0  0  0  0  0  0  0
   17.2398   -2.5522  -17.5806 C   0  0  0  0  0  0  0  0  0  0  0  0
   17.9983   -3.6283  -18.0001 C   0  0  0  0  0  0  0  0  0  0  0  0
   19.3781   -3.4853  -18.5033 C   0  0  0  0  0  0  0  0  0  0  0  0
   20.3369   -3.3667  -17.3748 C   0  0  2  0  0  0  0  0  0  0  0  0
   20.2575   -4.5084  -16.4703 N   0  0  0  0  0  0  0  0  0  0  0  0
   20.0859   -2.1522  -16.5917 C   0  0  0  0  0  0  0  0  0  0  0  0
   20.2151   -0.8868  -17.0894 O   0  0  0  0  0  0  0  0  0  0  0  0
   17.4024   -4.8720  -17.9620 C   0  0  0  0  0  0  0  0  0  0  0  0
   16.0965   -5.0735  -17.5259 C   0  0  0  0  0  0  0  0  0  0  0  0
   19.7313   -2.2664  -15.3830 O   0  0  0  0  0  0  0  0  0  0  0  0
  2  3  1  0
  2  1  1  1
  4  2  1  0
  5  4  2  0
  6  7  1  0
  7  8  2  0
  9  7  1  0
 10  9  1  1
 10 11  1  0
 11  4  1  0
 12 10  1  0
 12 21  1  0
 13 12  2  0
 15 14  1  0
 16 15  2  0
 17 16  1  0
 18 17  2  0
 18 24  1  0
 19 18  1  0
 20 19  1  6
 20 21  1  0
 20 22  1  0
 22 26  2  0
 22 23  1  0
 24 25  2  0
 25 15  1  0
M  END
$$$$
