ANY.pdb
     RDKit          3D

 26 26  0  0  1  0  0  0  0  0999 V2000
   23.9698  -21.8894  -13.5262 C   0  0  0  0  0  0  0  0  0  0  0  0
   24.3817  -21.3046  -14.8655 C   0  0  2  0  0  0  0  0  0  0  0  0
   25.8217  -21.2874  -14.9471 N   0  0  0  0  0  0  0  0  0  0  0  0
   23.7875  -19.9426  -14.9355 C   0  0  0  0  0  0  0  0  0  0  0  0
   24.0883  -19.1462  -14.0333 O   0  0  0  0  0  0  0  0  0  0  0  0
   22.9208  -15.3479  -17.1909 N   0  0  0  0  0  0  0  0  0  0  0  0
   22.0728  -16.3814  -17.7204 C   0  0  0  0  0  0  0  0  0  0  0  0
   21.0124  -16.0026  -18.2702 O   0  0  0  0  0  0  0  0  0  0  0  0
   22.5171  -17.7829  -17.5737 C   0  0  0  0  0  0  0  0  0  0  0  0
   22.4050  -18.1874  -16.1255 C   0  0  2  0  0  0  0  0  0  0  0  0
   22.9081  -19.5300  -15.9742 N   0  0  0  0  0  0  0  0  0  0  0  0
   21.0107  -18.0557  -15.6213 C   0  0  0  0  0  0  0  0  0  0  0  0
   20.2377  -19.0290  -15.7855 O   0  0  0  0  0  0  0  0  0  0  0  0
   19.3196  -21.8371  -10.5165 O   0  0  0  0  0  0  0  0  0  0  0  0
   19.2925  -20.5733  -11.1043 C   0  0  0  0  0  0  0  0  0  0  0  0
   18.1026  -19.9677  -11.4495 C   0  0  0  0  0  0  0  0  0  0  0  0
   18.0117  -18.7263  -12.0302 C   0  0  0  0  0  0  0  0  0  0  0  0
   19.1660  -18.0154  -12.2974 C   0  0  0  0  0  0  0  0  0  0  0  0
   19.1560  -16.6902  -12.9464 C   0  0  0  0  0  0  0  0  0  0  0  0
   19.1474  -16.8318  -14.4252 C   0  0  2  0  0  0  0  0  0  0  0  0
   20.4971  -16.9146  -14.9722 N   0  0  0  0  0  0  0  0  0  0  0  0
   18.4710  -15.6969  -15.0622 C   0  0  0  0  0  0  0  0  0  0  0  0
   17.1245  -15.4785  -14.9930 O   0  0  0  0  0  0  0  0  0  0  0  0
   20.3642  -18.6091  -11.9576 C   0  0  0  0  0  0  0  0  0  0  0  0
   20.4465  -19.8674  -11.3694 C   0  0  0  0  0  0  0  0  0  0  0  0
   19.1604  -14.8649  -15.7198 O   0  0  0  0  0  0  0  0  0  0  0  0
  2  3  1  0
  2  1  1  1
  4  2  1  0
  5  4  2  0
  6  7  1  0
  7  8  2  0
  9  7  1  0
 10  9  1  6
 10 11  1  0
 11  4  1  0
 12 10  1  0
 12 21  1  0
 13 12  2  0
 15 14  1  0
 16 15  2  0
 17 16  1  0
 18 17  2  0
 18 24  1  0
 19 18  1  0
 20 19  1  1
 20 21  1  0
 20 22  1  0
 22 26  2  0
 22 23  1  0
 24 25  2  0
 25 15  1  0
M  END
$$$$
