ANY.pdb
     RDKit          3D

 26 26  0  0  1  0  0  0  0  0999 V2000
   22.3949  -16.2503  -17.2620 C   0  0  0  0  0  0  0  0  0  0  0  0
   22.8240  -15.0409  -18.0736 C   0  0  2  0  0  0  0  0  0  0  0  0
   23.8744  -15.4333  -18.9810 N   0  0  0  0  0  0  0  0  0  0  0  0
   23.2659  -14.0089  -17.0975 C   0  0  0  0  0  0  0  0  0  0  0  0
   23.0593  -14.2398  -15.8964 O   0  0  0  0  0  0  0  0  0  0  0  0
   26.4841  -10.6647  -14.5613 N   0  0  0  0  0  0  0  0  0  0  0  0
   26.0475  -10.2553  -15.8687 C   0  0  0  0  0  0  0  0  0  0  0  0
   26.0221   -9.0212  -16.0847 O   0  0  0  0  0  0  0  0  0  0  0  0
   25.6712  -11.3092  -16.8334 C   0  0  0  0  0  0  0  0  0  0  0  0
   24.2503  -11.7379  -16.5672 C   0  0  2  0  0  0  0  0  0  0  0  0
   23.9014  -12.7961  -17.4819 N   0  0  0  0  0  0  0  0  0  0  0  0
   23.3025  -10.5932  -16.6530 C   0  0  0  0  0  0  0  0  0  0  0  0
   23.0383  -10.1401  -17.7918 O   0  0  0  0  0  0  0  0  0  0  0  0
   17.8374  -12.6270  -19.0181 O   0  0  0  0  0  0  0  0  0  0  0  0
   18.4585  -11.8213  -18.0651 C   0  0  0  0  0  0  0  0  0  0  0  0
   18.2418  -10.4600  -18.0252 C   0  0  0  0  0  0  0  0  0  0  0  0
   18.8238   -9.6151  -17.1118 C   0  0  0  0  0  0  0  0  0  0  0  0
   19.6841  -10.1311  -16.1616 C   0  0  0  0  0  0  0  0  0  0  0  0
   20.3727   -9.2879  -15.1655 C   0  0  0  0  0  0  0  0  0  0  0  0
   21.7180   -8.8918  -15.6556 C   0  0  2  0  0  0  0  0  0  0  0  0
   22.6807   -9.9822  -15.5453 N   0  0  0  0  0  0  0  0  0  0  0  0
   22.2419   -7.7490  -14.9001 C   0  0  0  0  0  0  0  0  0  0  0  0
   21.6168   -6.5370  -14.8246 O   0  0  0  0  0  0  0  0  0  0  0  0
   19.9106  -11.4917  -16.1896 C   0  0  0  0  0  0  0  0  0  0  0  0
   19.3163  -12.3400  -17.1189 C   0  0  0  0  0  0  0  0  0  0  0  0
   23.3366   -7.8765  -14.2793 O   0  0  0  0  0  0  0  0  0  0  0  0
  2  3  1  0
  2  1  1  1
  4  2  1  0
  5  4  2  0
  6  7  1  0
  7  8  2  0
  9  7  1  0
 10  9  1  6
 10 11  1  0
 11  4  1  0
 12 10  1  0
 12 21  1  0
 13 12  2  0
 15 14  1  0
 16 15  2  0
 17 16  1  0
 18 17  2  0
 18 24  1  0
 19 18  1  0
 20 19  1  1
 20 21  1  0
 20 22  1  0
 22 26  2  0
 22 23  1  0
 24 25  2  0
 25 15  1  0
M  END
$$$$
