ANY.pdb
     RDKit          3D

 26 26  0  0  1  0  0  0  0  0999 V2000
   16.2153  -13.0179  -16.2774 C   0  0  0  0  0  0  0  0  0  0  0  0
   17.7304  -13.0603  -16.3683 C   0  0  2  0  0  0  0  0  0  0  0  0
   18.1981  -14.3127  -15.8267 N   0  0  0  0  0  0  0  0  0  0  0  0
   18.2347  -11.8841  -15.6099 C   0  0  0  0  0  0  0  0  0  0  0  0
   17.6653  -11.6118  -14.5420 O   0  0  0  0  0  0  0  0  0  0  0  0
   20.8142   -7.7750  -14.1660 N   0  0  0  0  0  0  0  0  0  0  0  0
   21.6212   -8.3059  -15.2312 C   0  0  0  0  0  0  0  0  0  0  0  0
   22.7018   -7.7132  -15.4576 O   0  0  0  0  0  0  0  0  0  0  0  0
   21.1153   -9.4883  -15.9584 C   0  0  0  0  0  0  0  0  0  0  0  0
   19.7921   -9.9033  -15.3664 C   0  0  2  0  0  0  0  0  0  0  0  0
   19.3200  -11.0794  -16.0538 N   0  0  0  0  0  0  0  0  0  0  0  0
   18.7967   -8.7973  -15.4084 C   0  0  0  0  0  0  0  0  0  0  0  0
   18.1679   -8.6201  -16.4784 O   0  0  0  0  0  0  0  0  0  0  0  0
   15.7217   -6.7808   -8.2183 O   0  0  0  0  0  0  0  0  0  0  0  0
   15.8413   -6.9469   -9.5972 C   0  0  0  0  0  0  0  0  0  0  0  0
   15.7875   -5.8701  -10.4570 C   0  0  0  0  0  0  0  0  0  0  0  0
   15.8991   -5.9699  -11.8224 C   0  0  0  0  0  0  0  0  0  0  0  0
   16.0771   -7.2125  -12.4001 C   0  0  0  0  0  0  0  0  0  0  0  0
   16.1752   -7.4084  -13.8593 C   0  0  0  0  0  0  0  0  0  0  0  0
   17.4772   -6.9058  -14.3683 C   0  0  2  0  0  0  0  0  0  0  0  0
   18.5105   -7.9348  -14.3307 N   0  0  0  0  0  0  0  0  0  0  0  0
   17.9492   -5.7631  -13.5792 C   0  0  0  0  0  0  0  0  0  0  0  0
   17.3059   -4.5595  -13.5249 O   0  0  0  0  0  0  0  0  0  0  0  0
   16.1326   -8.2992  -11.5520 C   0  0  0  0  0  0  0  0  0  0  0  0
   16.0187   -8.1883  -10.1696 C   0  0  0  0  0  0  0  0  0  0  0  0
   19.0138   -5.8825  -12.9067 O   0  0  0  0  0  0  0  0  0  0  0  0
  2  3  1  0
  2  1  1  1
  4  2  1  0
  5  4  2  0
  6  7  1  0
  7  8  2  0
  9  7  1  0
 10  9  1  6
 10 11  1  0
 11  4  1  0
 12 10  1  0
 12 21  1  0
 13 12  2  0
 15 14  1  0
 16 15  2  0
 17 16  1  0
 18 17  2  0
 18 24  1  0
 19 18  1  0
 20 19  1  1
 20 21  1  0
 20 22  1  0
 22 26  2  0
 22 23  1  0
 24 25  2  0
 25 15  1  0
M  END
$$$$
