ANY.pdb
     RDKit          3D

 26 26  0  0  1  0  0  0  0  0999 V2000
   26.5029  -18.9021  -19.5899 C   0  0  0  0  0  0  0  0  0  0  0  0
   25.1415  -19.1924  -18.9834 C   0  0  2  0  0  0  0  0  0  0  0  0
   24.3269  -19.8706  -19.9618 N   0  0  0  0  0  0  0  0  0  0  0  0
   24.5710  -17.8814  -18.5725 C   0  0  0  0  0  0  0  0  0  0  0  0
   25.1623  -17.2626  -17.6747 O   0  0  0  0  0  0  0  0  0  0  0  0
   24.9692  -14.9152  -21.4491 N   0  0  0  0  0  0  0  0  0  0  0  0
   24.3958  -14.7520  -20.1406 C   0  0  0  0  0  0  0  0  0  0  0  0
   25.1619  -14.3190  -19.2485 O   0  0  0  0  0  0  0  0  0  0  0  0
   22.9720  -15.1035  -19.9610 C   0  0  0  0  0  0  0  0  0  0  0  0
   22.8400  -16.0476  -18.7927 C   0  0  2  0  0  0  0  0  0  0  0  0
   23.4002  -17.3249  -19.1574 N   0  0  0  0  0  0  0  0  0  0  0  0
   21.4280  -16.1690  -18.3373 C   0  0  0  0  0  0  0  0  0  0  0  0
   20.7346  -15.1250  -18.3054 O   0  0  0  0  0  0  0  0  0  0  0  0
   20.5815  -23.1821  -20.1291 O   0  0  0  0  0  0  0  0  0  0  0  0
   20.0817  -21.9305  -19.7727 C   0  0  0  0  0  0  0  0  0  0  0  0
   20.4675  -20.7871  -20.4402 C   0  0  0  0  0  0  0  0  0  0  0  0
   20.0106  -19.5280  -20.1360 C   0  0  0  0  0  0  0  0  0  0  0  0
   19.1081  -19.3643  -19.1026 C   0  0  0  0  0  0  0  0  0  0  0  0
   18.5930  -18.0435  -18.6935 C   0  0  0  0  0  0  0  0  0  0  0  0
   19.4051  -17.4867  -17.5811 C   0  0  2  0  0  0  0  0  0  0  0  0
   20.8147  -17.3742  -17.9391 N   0  0  0  0  0  0  0  0  0  0  0  0
   19.3095  -18.3273  -16.3829 C   0  0  0  0  0  0  0  0  0  0  0  0
   20.3888  -18.8787  -15.7532 O   0  0  0  0  0  0  0  0  0  0  0  0
   18.7133  -20.4996  -18.4254 C   0  0  0  0  0  0  0  0  0  0  0  0
   19.1815  -21.7715  -18.7409 C   0  0  0  0  0  0  0  0  0  0  0  0
   18.1679  -18.5672  -15.8939 O   0  0  0  0  0  0  0  0  0  0  0  0
  2  3  1  0
  2  1  1  6
  4  2  1  0
  5  4  2  0
  6  7  1  0
  7  8  2  0
  9  7  1  0
 10  9  1  6
 10 11  1  0
 11  4  1  0
 12 10  1  0
 12 21  1  0
 13 12  2  0
 15 14  1  0
 16 15  2  0
 17 16  1  0
 18 17  2  0
 18 24  1  0
 19 18  1  0
 20 19  1  6
 20 21  1  0
 20 22  1  0
 22 26  2  0
 22 23  1  0
 24 25  2  0
 25 15  1  0
M  END
$$$$
