ANY.pdb
     RDKit          3D

 26 26  0  0  1  0  0  0  0  0999 V2000
   17.9152  -12.3434  -17.4063 C   0  0  0  0  0  0  0  0  0  0  0  0
   18.9740  -11.8728  -16.4249 C   0  0  2  0  0  0  0  0  0  0  0  0
   18.9818  -12.7557  -15.2841 N   0  0  0  0  0  0  0  0  0  0  0  0
   18.6260  -10.4724  -16.0633 C   0  0  0  0  0  0  0  0  0  0  0  0
   17.4981  -10.0679  -16.3842 O   0  0  0  0  0  0  0  0  0  0  0  0
   16.8961   -7.1967  -12.8327 N   0  0  0  0  0  0  0  0  0  0  0  0
   17.8555   -8.1767  -12.4006 C   0  0  0  0  0  0  0  0  0  0  0  0
   18.2700   -8.0667  -11.2231 O   0  0  0  0  0  0  0  0  0  0  0  0
   18.2658   -9.2157  -13.3676 C   0  0  0  0  0  0  0  0  0  0  0  0
   19.1016   -8.5806  -14.4500 C   0  0  2  0  0  0  0  0  0  0  0  0
   19.5179   -9.6011  -15.3793 N   0  0  0  0  0  0  0  0  0  0  0  0
   20.2603   -7.8344  -13.8873 C   0  0  0  0  0  0  0  0  0  0  0  0
   21.1395   -8.4933  -13.2835 O   0  0  0  0  0  0  0  0  0  0  0  0
   20.2701   -4.9647  -20.2091 O   0  0  0  0  0  0  0  0  0  0  0  0
   20.8207   -5.3015  -18.9735 C   0  0  0  0  0  0  0  0  0  0  0  0
   21.5833   -4.4021  -18.2586 C   0  0  0  0  0  0  0  0  0  0  0  0
   22.1514   -4.6749  -17.0381 C   0  0  0  0  0  0  0  0  0  0  0  0
   21.9653   -5.9185  -16.4653 C   0  0  0  0  0  0  0  0  0  0  0  0
   22.5661   -6.3007  -15.1728 C   0  0  0  0  0  0  0  0  0  0  0  0
   21.7455   -5.7924  -14.0436 C   0  0  2  0  0  0  0  0  0  0  0  0
   20.4395   -6.4396  -13.9848 N   0  0  0  0  0  0  0  0  0  0  0  0
   21.5279   -4.3463  -14.1557 C   0  0  0  0  0  0  0  0  0  0  0  0
   20.2970   -3.7717  -14.2988 O   0  0  0  0  0  0  0  0  0  0  0  0
   21.2046   -6.8289  -17.1694 C   0  0  0  0  0  0  0  0  0  0  0  0
   20.6328   -6.5434  -18.4055 C   0  0  0  0  0  0  0  0  0  0  0  0
   22.5283   -3.5730  -14.1226 O   0  0  0  0  0  0  0  0  0  0  0  0
  2  3  1  0
  2  1  1  6
  4  2  1  0
  5  4  2  0
  6  7  1  0
  7  8  2  0
  9  7  1  0
 10  9  1  1
 10 11  1  0
 11  4  1  0
 12 10  1  0
 12 21  1  0
 13 12  2  0
 15 14  1  0
 16 15  2  0
 17 16  1  0
 18 17  2  0
 18 24  1  0
 19 18  1  0
 20 19  1  6
 20 21  1  0
 20 22  1  0
 22 26  2  0
 22 23  1  0
 24 25  2  0
 25 15  1  0
M  END
$$$$
