ANY.pdb
     RDKit          3D

 26 26  0  0  1  0  0  0  0  0999 V2000
   27.5149  -17.5472  -16.8780 C   0  0  0  0  0  0  0  0  0  0  0  0
   27.8669  -18.8531  -16.1878 C   0  0  2  0  0  0  0  0  0  0  0  0
   27.9909  -19.8908  -17.1821 N   0  0  0  0  0  0  0  0  0  0  0  0
   26.7791  -19.1237  -15.2099 C   0  0  0  0  0  0  0  0  0  0  0  0
   25.9057  -18.2528  -15.0785 O   0  0  0  0  0  0  0  0  0  0  0  0
   22.4449  -21.5335  -13.4220 N   0  0  0  0  0  0  0  0  0  0  0  0
   23.7297  -22.1539  -13.2432 C   0  0  0  0  0  0  0  0  0  0  0  0
   23.8225  -22.9781  -12.3039 O   0  0  0  0  0  0  0  0  0  0  0  0
   24.8163  -21.7725  -14.1687 C   0  0  0  0  0  0  0  0  0  0  0  0
   25.6126  -20.6468  -13.5584 C   0  0  2  0  0  0  0  0  0  0  0  0
   26.7057  -20.3161  -14.4382 N   0  0  0  0  0  0  0  0  0  0  0  0
   26.0842  -20.9837  -12.1873 C   0  0  0  0  0  0  0  0  0  0  0  0
   26.9979  -21.8352  -12.0786 O   0  0  0  0  0  0  0  0  0  0  0  0
   28.8786  -20.4848   -3.9120 O   0  0  0  0  0  0  0  0  0  0  0  0
   28.4460  -20.2904   -5.2228 C   0  0  0  0  0  0  0  0  0  0  0  0
   28.8798  -21.1024   -6.2496 C   0  0  0  0  0  0  0  0  0  0  0  0
   28.4898  -20.9611   -7.5590 C   0  0  0  0  0  0  0  0  0  0  0  0
   27.6093  -19.9523   -7.9001 C   0  0  0  0  0  0  0  0  0  0  0  0
   27.1653  -19.7145   -9.2871 C   0  0  0  0  0  0  0  0  0  0  0  0
   26.1144  -20.6904   -9.6747 C   0  0  2  0  0  0  0  0  0  0  0  0
   25.5769  -20.4134  -11.0022 N   0  0  0  0  0  0  0  0  0  0  0  0
   24.9984  -20.6730   -8.7232 C   0  0  0  0  0  0  0  0  0  0  0  0
   24.9693  -21.4082   -7.5724 O   0  0  0  0  0  0  0  0  0  0  0  0
   27.1669  -19.1318   -6.8830 C   0  0  0  0  0  0  0  0  0  0  0  0
   27.5675  -19.2827   -5.5590 C   0  0  0  0  0  0  0  0  0  0  0  0
   23.9960  -19.9420   -8.9697 O   0  0  0  0  0  0  0  0  0  0  0  0
  2  3  1  0
  2  1  1  6
  4  2  1  0
  5  4  2  0
  6  7  1  0
  7  8  2  0
  9  7  1  0
 10  9  1  6
 10 11  1  0
 11  4  1  0
 12 10  1  0
 12 21  1  0
 13 12  2  0
 15 14  1  0
 16 15  2  0
 17 16  1  0
 18 17  2  0
 18 24  1  0
 19 18  1  0
 20 19  1  1
 20 21  1  0
 20 22  1  0
 22 26  2  0
 22 23  1  0
 24 25  2  0
 25 15  1  0
M  END
$$$$
