ANY.pdb
     RDKit          3D

 26 26  0  0  1  0  0  0  0  0999 V2000
   14.0469  -10.1631  -13.9673 C   0  0  0  0  0  0  0  0  0  0  0  0
   15.5342   -9.9414  -14.1776 C   0  0  2  0  0  0  0  0  0  0  0  0
   16.2588  -11.0545  -13.6148 N   0  0  0  0  0  0  0  0  0  0  0  0
   15.8684   -8.6492  -13.5206 C   0  0  0  0  0  0  0  0  0  0  0  0
   15.3619   -7.6228  -13.9987 O   0  0  0  0  0  0  0  0  0  0  0  0
   16.8685   -5.0294   -9.6193 N   0  0  0  0  0  0  0  0  0  0  0  0
   17.6202   -6.2549   -9.6441 C   0  0  0  0  0  0  0  0  0  0  0  0
   18.7552   -6.2212   -9.1139 O   0  0  0  0  0  0  0  0  0  0  0  0
   16.9998   -7.4336  -10.2835 C   0  0  0  0  0  0  0  0  0  0  0  0
   17.1236   -7.3056  -11.7807 C   0  0  2  0  0  0  0  0  0  0  0  0
   16.7270   -8.5500  -12.3912 N   0  0  0  0  0  0  0  0  0  0  0  0
   18.4959   -6.8982  -12.1889 C   0  0  0  0  0  0  0  0  0  0  0  0
   19.4481   -7.6413  -11.8531 O   0  0  0  0  0  0  0  0  0  0  0  0
   24.9112   -4.2276  -17.4744 O   0  0  0  0  0  0  0  0  0  0  0  0
   23.7920   -4.7287  -16.8115 C   0  0  0  0  0  0  0  0  0  0  0  0
   22.5139   -4.4049  -17.2156 C   0  0  0  0  0  0  0  0  0  0  0  0
   21.3739   -4.8664  -16.6039 C   0  0  0  0  0  0  0  0  0  0  0  0
   21.4817   -5.7087  -15.5138 C   0  0  0  0  0  0  0  0  0  0  0  0
   20.3077   -6.2234  -14.7828 C   0  0  0  0  0  0  0  0  0  0  0  0
   20.1085   -5.4714  -13.5172 C   0  0  2  0  0  0  0  0  0  0  0  0
   18.8014   -5.7362  -12.9263 N   0  0  0  0  0  0  0  0  0  0  0  0
   20.2200   -4.0255  -13.7367 C   0  0  0  0  0  0  0  0  0  0  0  0
   21.3828   -3.3229  -13.5957 O   0  0  0  0  0  0  0  0  0  0  0  0
   22.7544   -6.0411  -15.0980 C   0  0  0  0  0  0  0  0  0  0  0  0
   23.9038   -5.5687  -15.7242 C   0  0  0  0  0  0  0  0  0  0  0  0
   19.1878   -3.3769  -14.0739 O   0  0  0  0  0  0  0  0  0  0  0  0
  2  3  1  0
  2  1  1  1
  4  2  1  0
  5  4  2  0
  6  7  1  0
  7  8  2  0
  9  7  1  0
 10  9  1  1
 10 11  1  0
 11  4  1  0
 12 10  1  0
 12 21  1  0
 13 12  2  0
 15 14  1  0
 16 15  2  0
 17 16  1  0
 18 17  2  0
 18 24  1  0
 19 18  1  0
 20 19  1  6
 20 21  1  0
 20 22  1  0
 22 26  2  0
 22 23  1  0
 24 25  2  0
 25 15  1  0
M  END
$$$$
