PAI.pdb
     RDKit          3D

 21 21  0  0  1  0  0  0  0  0999 V2000
    8.5286  -15.3075   18.5606 N   0  0  0  0  0  0  0  0  0  0  0  0
    8.8635  -14.6565   17.2911 C   0  0  0  0  0  0  0  0  0  0  0  0
    7.8793  -13.4829   17.3246 C   0  0  0  0  0  0  0  0  0  0  0  0
    7.7864  -13.1333   18.8012 C   0  0  0  0  0  0  0  0  0  0  0  0
    8.5789  -14.1926   19.4794 C   0  0  1  0  0  0  0  0  0  0  0  0
    8.0908  -14.5707   20.8114 C   0  0  0  0  0  0  0  0  0  0  0  0
    8.0662  -13.6877   21.7078 O   0  0  0  0  0  0  0  0  0  0  0  0
    6.8498  -17.6666   22.5198 C   0  0  0  0  0  0  0  0  0  0  0  0
    7.0870  -16.1909   22.4720 C   0  0  2  0  0  0  0  0  0  0  0  0
    7.6410  -15.8595   21.1746 N   0  0  0  0  0  0  0  0  0  0  0  0
    7.9251  -15.6964   23.5836 C   0  0  0  0  0  0  0  0  0  0  0  0
    9.1596  -15.9001   23.5317 O   0  0  0  0  0  0  0  0  0  0  0  0
    5.8702  -11.8056   27.1497 C   0  0  0  0  0  0  0  0  0  0  0  0
    6.3451  -13.1430   26.6395 C   0  0  0  0  0  0  0  0  0  0  0  0
    7.8158  -13.0778   26.2031 C   0  0  2  0  0  0  0  0  0  0  0  0
    7.8178  -12.1822   24.9796 C   0  0  0  0  0  0  0  0  0  0  0  0
    8.2379  -14.4426   25.7560 C   0  0  2  0  0  0  0  0  0  0  0  0
    7.4223  -15.0031   24.7104 N   0  0  0  0  0  0  0  0  0  0  0  0
    8.3092  -15.3324   26.9441 C   0  0  0  0  0  0  0  0  0  0  0  0
    9.1678  -15.1299   28.0059 O   0  0  0  0  0  0  0  0  0  0  0  0
    7.5420  -16.3253   26.9801 O   0  0  0  0  0  0  0  0  0  0  0  0
  1  5  1  0
  2  1  1  0
  3  2  1  0
  3  4  1  0
  4  5  1  0
  5  6  1  1
  6 10  1  0
  7  6  2  0
  9  8  1  6
 10  9  1  0
 11 12  2  0
 11  9  1  0
 14 15  1  0
 14 13  1  0
 15 16  1  6
 17 18  1  6
 17 15  1  0
 18 11  1  0
 19 17  1  0
 20 19  1  0
 21 19  2  0
M  END
$$$$
