PAI.pdb
     RDKit          3D

 21 21  0  0  1  0  0  0  0  0999 V2000
    8.4000  -15.1210   18.7535 N   0  0  0  0  0  0  0  0  0  0  0  0
    8.7095  -14.3981   17.5169 C   0  0  0  0  0  0  0  0  0  0  0  0
    7.6481  -13.2951   17.5793 C   0  0  0  0  0  0  0  0  0  0  0  0
    7.5096  -13.0128   19.0667 C   0  0  0  0  0  0  0  0  0  0  0  0
    8.3613  -14.0435   19.7165 C   0  0  1  0  0  0  0  0  0  0  0  0
    7.8798  -14.5071   21.0235 C   0  0  0  0  0  0  0  0  0  0  0  0
    7.7178  -13.6534   21.9340 O   0  0  0  0  0  0  0  0  0  0  0  0
    6.8588  -17.7587   22.5864 C   0  0  0  0  0  0  0  0  0  0  0  0
    7.0572  -16.2772   22.6300 C   0  0  2  0  0  0  0  0  0  0  0  0
    7.5795  -15.8487   21.3480 N   0  0  0  0  0  0  0  0  0  0  0  0
    7.9017  -15.8325   23.7576 C   0  0  0  0  0  0  0  0  0  0  0  0
    9.1455  -15.9030   23.6309 O   0  0  0  0  0  0  0  0  0  0  0  0
    5.9695  -11.7517   26.6190 C   0  0  0  0  0  0  0  0  0  0  0  0
    6.9013  -12.6847   25.8870 C   0  0  0  0  0  0  0  0  0  0  0  0
    7.5148  -13.7168   26.8441 C   0  0  2  0  0  0  0  0  0  0  0  0
    8.5876  -12.9560   27.5989 C   0  0  0  0  0  0  0  0  0  0  0  0
    8.2037  -14.7668   26.0297 C   0  0  2  0  0  0  0  0  0  0  0  0
    7.3952  -15.3288   24.9794 N   0  0  0  0  0  0  0  0  0  0  0  0
    8.7305  -15.8113   26.9463 C   0  0  0  0  0  0  0  0  0  0  0  0
    8.2288  -17.0954   27.0178 O   0  0  0  0  0  0  0  0  0  0  0  0
    9.6876  -15.5035   27.6978 O   0  0  0  0  0  0  0  0  0  0  0  0
  1  5  1  0
  2  1  1  0
  3  2  1  0
  3  4  1  0
  4  5  1  0
  5  6  1  1
  6 10  1  0
  7  6  2  0
  9  8  1  6
 10  9  1  0
 11 12  2  0
 11  9  1  0
 14 15  1  0
 14 13  1  0
 15 16  1  1
 17 18  1  6
 17 15  1  0
 18 11  1  0
 19 17  1  0
 20 19  1  0
 21 19  2  0
M  END
$$$$
