PAI.pdb
     RDKit          3D

 21 21  0  0  1  0  0  0  0  0999 V2000
    9.3359  -17.6994   19.4897 N   0  0  0  0  0  0  0  0  0  0  0  0
    9.7714  -17.0927   18.2288 C   0  0  0  0  0  0  0  0  0  0  0  0
    9.9252  -15.6346   18.6728 C   0  0  0  0  0  0  0  0  0  0  0  0
   10.3975  -15.7451   20.1136 C   0  0  0  0  0  0  0  0  0  0  0  0
   10.3326  -17.2003   20.4102 C   0  0  1  0  0  0  0  0  0  0  0  0
    9.9956  -17.5322   21.8000 C   0  0  0  0  0  0  0  0  0  0  0  0
    8.9815  -16.9899   22.3112 O   0  0  0  0  0  0  0  0  0  0  0  0
   10.7099  -20.1684   24.2483 C   0  0  0  0  0  0  0  0  0  0  0  0
   10.3728  -18.7343   23.9917 C   0  0  2  0  0  0  0  0  0  0  0  0
   10.7244  -18.4210   22.6212 N   0  0  0  0  0  0  0  0  0  0  0  0
   10.9941  -17.8049   24.9574 C   0  0  0  0  0  0  0  0  0  0  0  0
   12.1173  -17.3253   24.6805 O   0  0  0  0  0  0  0  0  0  0  0  0
   10.0624  -13.0903   28.6026 C   0  0  0  0  0  0  0  0  0  0  0  0
   10.8407  -14.3588   28.3583 C   0  0  0  0  0  0  0  0  0  0  0  0
   10.1775  -15.2134   27.2686 C   0  0  2  0  0  0  0  0  0  0  0  0
    8.8311  -15.6028   27.8471 C   0  0  0  0  0  0  0  0  0  0  0  0
   10.9719  -16.4714   27.1046 C   0  0  2  0  0  0  0  0  0  0  0  0
   10.4006  -17.4181   26.1826 N   0  0  0  0  0  0  0  0  0  0  0  0
   11.2003  -17.0689   28.4460 C   0  0  0  0  0  0  0  0  0  0  0  0
   12.2175  -16.6836   29.2961 O   0  0  0  0  0  0  0  0  0  0  0  0
   10.4204  -17.9769   28.8242 O   0  0  0  0  0  0  0  0  0  0  0  0
  1  5  1  0
  2  1  1  0
  3  2  1  0
  3  4  1  0
  4  5  1  0
  5  6  1  1
  6 10  1  0
  7  6  2  0
  9  8  1  1
 10  9  1  0
 11 12  2  0
 11  9  1  0
 14 15  1  0
 14 13  1  0
 15 16  1  1
 17 18  1  6
 17 15  1  0
 18 11  1  0
 19 17  1  0
 20 19  1  0
 21 19  2  0
M  END
$$$$
