PAI.pdb
     RDKit          3D

 21 21  0  0  1  0  0  0  0  0999 V2000
    7.5212  -14.8509   18.0441 N   0  0  0  0  0  0  0  0  0  0  0  0
    8.0560  -13.9725   17.0000 C   0  0  0  0  0  0  0  0  0  0  0  0
    7.9964  -12.6256   17.7274 C   0  0  0  0  0  0  0  0  0  0  0  0
    8.2806  -12.9864   19.1767 C   0  0  0  0  0  0  0  0  0  0  0  0
    8.3284  -14.4722   19.1821 C   0  0  1  0  0  0  0  0  0  0  0  0
    7.8449  -15.1005   20.4176 C   0  0  0  0  0  0  0  0  0  0  0  0
    6.6017  -15.1830   20.5951 O   0  0  0  0  0  0  0  0  0  0  0  0
    8.4042  -17.6977   22.5949 C   0  0  0  0  0  0  0  0  0  0  0  0
    8.1705  -16.2220   22.6597 C   0  0  2  0  0  0  0  0  0  0  0  0
    8.6698  -15.6267   21.4365 N   0  0  0  0  0  0  0  0  0  0  0  0
    8.7437  -15.5910   23.8662 C   0  0  0  0  0  0  0  0  0  0  0  0
    9.9721  -15.3481   23.8818 O   0  0  0  0  0  0  0  0  0  0  0  0
    5.8522  -11.8584   26.4646 C   0  0  0  0  0  0  0  0  0  0  0  0
    6.9103  -12.7269   25.8315 C   0  0  0  0  0  0  0  0  0  0  0  0
    7.5401  -13.6725   26.8643 C   0  0  2  0  0  0  0  0  0  0  0  0
    8.3280  -12.7662   27.7901 C   0  0  0  0  0  0  0  0  0  0  0  0
    8.5244  -14.5539   26.1609 C   0  0  2  0  0  0  0  0  0  0  0  0
    7.9919  -15.2403   25.0129 N   0  0  0  0  0  0  0  0  0  0  0  0
    9.1126  -15.4951   27.1492 C   0  0  0  0  0  0  0  0  0  0  0  0
   10.2034  -15.1963   27.9406 O   0  0  0  0  0  0  0  0  0  0  0  0
    8.5834  -16.6271   27.2679 O   0  0  0  0  0  0  0  0  0  0  0  0
  1  5  1  0
  2  1  1  0
  3  2  1  0
  3  4  1  0
  4  5  1  0
  5  6  1  1
  6 10  1  0
  7  6  2  0
  9  8  1  6
 10  9  1  0
 11 12  2  0
 11  9  1  0
 14 15  1  0
 14 13  1  0
 15 16  1  1
 17 18  1  6
 17 15  1  0
 18 11  1  0
 19 17  1  0
 20 19  1  0
 21 19  2  0
M  END
$$$$
