PAI.pdb
     RDKit          3D

 21 21  0  0  1  0  0  0  0  0999 V2000
    7.8302  -15.1595   18.5390 N   0  0  0  0  0  0  0  0  0  0  0  0
    8.2990  -14.3434   17.4156 C   0  0  0  0  0  0  0  0  0  0  0  0
    7.7561  -12.9738   17.8354 C   0  0  0  0  0  0  0  0  0  0  0  0
    7.8532  -12.9977   19.3524 C   0  0  0  0  0  0  0  0  0  0  0  0
    8.2865  -14.3838   19.6703 C   0  0  1  0  0  0  0  0  0  0  0  0
    7.7656  -14.9183   20.9344 C   0  0  0  0  0  0  0  0  0  0  0  0
    6.8051  -14.3175   21.4826 O   0  0  0  0  0  0  0  0  0  0  0  0
    7.9055  -18.0329   22.9003 C   0  0  0  0  0  0  0  0  0  0  0  0
    7.7652  -16.5444   22.8700 C   0  0  2  0  0  0  0  0  0  0  0  0
    8.2593  -16.0653   21.5947 N   0  0  0  0  0  0  0  0  0  0  0  0
    8.4157  -15.8716   24.0131 C   0  0  0  0  0  0  0  0  0  0  0  0
    9.6555  -15.6996   23.9728 O   0  0  0  0  0  0  0  0  0  0  0  0
    5.9765  -11.6902   26.3023 C   0  0  0  0  0  0  0  0  0  0  0  0
    6.9750  -12.6830   25.7621 C   0  0  0  0  0  0  0  0  0  0  0  0
    7.4517  -13.6421   26.8623 C   0  0  2  0  0  0  0  0  0  0  0  0
    8.3211  -12.7918   27.7681 C   0  0  0  0  0  0  0  0  0  0  0  0
    8.3368  -14.6756   26.2385 C   0  0  2  0  0  0  0  0  0  0  0  0
    7.7266  -15.4056   25.1580 N   0  0  0  0  0  0  0  0  0  0  0  0
    8.8406  -15.5786   27.3059 C   0  0  0  0  0  0  0  0  0  0  0  0
    9.9633  -15.3189   28.0660 O   0  0  0  0  0  0  0  0  0  0  0  0
    8.2050  -16.6384   27.5259 O   0  0  0  0  0  0  0  0  0  0  0  0
  1  5  1  0
  2  1  1  0
  3  2  1  0
  3  4  1  0
  4  5  1  0
  5  6  1  1
  6 10  1  0
  7  6  2  0
  9  8  1  1
 10  9  1  0
 11 12  2  0
 11  9  1  0
 14 15  1  0
 14 13  1  0
 15 16  1  1
 17 18  1  6
 17 15  1  0
 18 11  1  0
 19 17  1  0
 20 19  1  0
 21 19  2  0
M  END
$$$$
