PAI.pdb
     RDKit          3D

 21 21  0  0  1  0  0  0  0  0999 V2000
    8.5462  -15.1068   18.5948 N   0  0  0  0  0  0  0  0  0  0  0  0
    8.8372  -14.3827   17.3544 C   0  0  0  0  0  0  0  0  0  0  0  0
    7.7720  -13.2842   17.4300 C   0  0  0  0  0  0  0  0  0  0  0  0
    7.6507  -13.0024   18.9190 C   0  0  0  0  0  0  0  0  0  0  0  0
    8.5148  -14.0294   19.5582 C   0  0  1  0  0  0  0  0  0  0  0  0
    8.0515  -14.4950   20.8711 C   0  0  0  0  0  0  0  0  0  0  0  0
    7.8742  -13.6389   21.7764 O   0  0  0  0  0  0  0  0  0  0  0  0
    7.1553  -17.7618   22.4774 C   0  0  0  0  0  0  0  0  0  0  0  0
    7.2520  -16.2696   22.4843 C   0  0  2  0  0  0  0  0  0  0  0  0
    7.7850  -15.8410   21.2066 N   0  0  0  0  0  0  0  0  0  0  0  0
    8.0284  -15.7384   23.6234 C   0  0  0  0  0  0  0  0  0  0  0  0
    9.2715  -15.6476   23.5030 O   0  0  0  0  0  0  0  0  0  0  0  0
    5.7403  -11.8923   26.7256 C   0  0  0  0  0  0  0  0  0  0  0  0
    6.6619  -12.7662   25.9122 C   0  0  0  0  0  0  0  0  0  0  0  0
    7.3577  -13.8104   26.7972 C   0  0  2  0  0  0  0  0  0  0  0  0
    8.3129  -13.0110   27.6621 C   0  0  0  0  0  0  0  0  0  0  0  0
    8.1868  -14.6966   25.9209 C   0  0  2  0  0  0  0  0  0  0  0  0
    7.4568  -15.3227   24.8495 N   0  0  0  0  0  0  0  0  0  0  0  0
    8.8855  -15.6922   26.7749 C   0  0  0  0  0  0  0  0  0  0  0  0
   10.1166  -15.4739   27.3601 O   0  0  0  0  0  0  0  0  0  0  0  0
    8.3194  -16.7949   26.9731 O   0  0  0  0  0  0  0  0  0  0  0  0
  1  5  1  0
  2  1  1  0
  3  2  1  0
  3  4  1  0
  4  5  1  0
  5  6  1  1
  6 10  1  0
  7  6  2  0
  9  8  1  6
 10  9  1  0
 11 12  2  0
 11  9  1  0
 14 15  1  0
 14 13  1  0
 15 16  1  1
 17 18  1  6
 17 15  1  0
 18 11  1  0
 19 17  1  0
 20 19  1  0
 21 19  2  0
M  END
$$$$
