PAI.pdb
     RDKit          3D

 21 21  0  0  1  0  0  0  0  0999 V2000
    8.4554  -15.2832   18.6897 N   0  0  0  0  0  0  0  0  0  0  0  0
    8.7706  -14.6494   17.4065 C   0  0  0  0  0  0  0  0  0  0  0  0
    7.7965  -13.4677   17.4457 C   0  0  0  0  0  0  0  0  0  0  0  0
    7.7350  -13.1006   18.9196 C   0  0  0  0  0  0  0  0  0  0  0  0
    8.5323  -14.1584   19.5945 C   0  0  1  0  0  0  0  0  0  0  0  0
    8.0674  -14.5174   20.9399 C   0  0  0  0  0  0  0  0  0  0  0  0
    8.0630  -13.6230   21.8253 O   0  0  0  0  0  0  0  0  0  0  0  0
    7.0275  -17.6151   22.7613 C   0  0  0  0  0  0  0  0  0  0  0  0
    7.1521  -16.1284   22.6597 C   0  0  2  0  0  0  0  0  0  0  0  0
    7.6190  -15.7995   21.3279 N   0  0  0  0  0  0  0  0  0  0  0  0
    8.0020  -15.5386   23.7144 C   0  0  0  0  0  0  0  0  0  0  0  0
    9.2452  -15.5958   23.5754 O   0  0  0  0  0  0  0  0  0  0  0  0
    5.6793  -11.9057   27.3632 C   0  0  0  0  0  0  0  0  0  0  0  0
    6.3248  -13.1765   26.8703 C   0  0  0  0  0  0  0  0  0  0  0  0
    7.7214  -12.9004   26.2952 C   0  0  2  0  0  0  0  0  0  0  0  0
    7.4724  -12.0557   25.0608 C   0  0  0  0  0  0  0  0  0  0  0  0
    8.3090  -14.1979   25.8351 C   0  0  2  0  0  0  0  0  0  0  0  0
    7.5013  -14.9093   24.8790 N   0  0  0  0  0  0  0  0  0  0  0  0
    8.6221  -15.0285   27.0271 C   0  0  0  0  0  0  0  0  0  0  0  0
    8.1021  -16.2887   27.2440 O   0  0  0  0  0  0  0  0  0  0  0  0
    9.4055  -14.5521   27.8844 O   0  0  0  0  0  0  0  0  0  0  0  0
  1  5  1  0
  2  1  1  0
  3  2  1  0
  3  4  1  0
  4  5  1  0
  5  6  1  1
  6 10  1  0
  7  6  2  0
  9  8  1  6
 10  9  1  0
 11 12  2  0
 11  9  1  0
 14 15  1  0
 14 13  1  0
 15 16  1  6
 17 18  1  6
 17 15  1  0
 18 11  1  0
 19 17  1  0
 20 19  1  0
 21 19  2  0
M  END
$$$$
