PAI.pdb
     RDKit          3D

 21 21  0  0  1  0  0  0  0  0999 V2000
    7.6030  -14.8664   18.3002 N   0  0  0  0  0  0  0  0  0  0  0  0
    7.9420  -14.0120   17.1589 C   0  0  0  0  0  0  0  0  0  0  0  0
    7.9098  -12.6376   17.8350 C   0  0  0  0  0  0  0  0  0  0  0  0
    8.4083  -12.9178   19.2436 C   0  0  0  0  0  0  0  0  0  0  0  0
    8.5365  -14.3978   19.2997 C   0  0  1  0  0  0  0  0  0  0  0  0
    8.2609  -14.9916   20.6137 C   0  0  0  0  0  0  0  0  0  0  0  0
    7.2259  -14.6225   21.2271 O   0  0  0  0  0  0  0  0  0  0  0  0
    9.5876  -17.7688   22.7188 C   0  0  0  0  0  0  0  0  0  0  0  0
    8.7896  -16.5140   22.5614 C   0  0  2  0  0  0  0  0  0  0  0  0
    9.0714  -15.9548   21.2545 N   0  0  0  0  0  0  0  0  0  0  0  0
    9.0109  -15.5391   23.6490 C   0  0  0  0  0  0  0  0  0  0  0  0
   10.0552  -14.8484   23.6230 O   0  0  0  0  0  0  0  0  0  0  0  0
    6.3302  -11.2800   26.9773 C   0  0  0  0  0  0  0  0  0  0  0  0
    7.3929  -12.3494   26.9340 C   0  0  0  0  0  0  0  0  0  0  0  0
    7.0880  -13.3881   25.8451 C   0  0  2  0  0  0  0  0  0  0  0  0
    5.9333  -14.2013   26.3974 C   0  0  0  0  0  0  0  0  0  0  0  0
    8.2628  -14.3080   25.7260 C   0  0  2  0  0  0  0  0  0  0  0  0
    8.1155  -15.3325   24.7254 N   0  0  0  0  0  0  0  0  0  0  0  0
    8.5600  -14.8772   27.0663 C   0  0  0  0  0  0  0  0  0  0  0  0
    8.4226  -16.2142   27.3813 O   0  0  0  0  0  0  0  0  0  0  0  0
    8.9590  -14.0927   27.9613 O   0  0  0  0  0  0  0  0  0  0  0  0
  1  5  1  0
  2  1  1  0
  3  2  1  0
  3  4  1  0
  4  5  1  0
  5  6  1  1
  6 10  1  0
  7  6  2  0
  9  8  1  1
 10  9  1  0
 11 12  2  0
 11  9  1  0
 14 15  1  0
 14 13  1  0
 15 16  1  1
 17 18  1  6
 17 15  1  0
 18 11  1  0
 19 17  1  0
 20 19  1  0
 21 19  2  0
M  END
$$$$
