PAI.pdb
     RDKit          3D

 21 21  0  0  1  0  0  0  0  0999 V2000
    6.7449  -18.9566   21.0965 N   0  0  0  0  0  0  0  0  0  0  0  0
    6.4647  -20.2641   20.4968 C   0  0  0  0  0  0  0  0  0  0  0  0
    6.5880  -19.9089   19.0117 C   0  0  0  0  0  0  0  0  0  0  0  0
    7.6747  -18.8461   18.9849 C   0  0  0  0  0  0  0  0  0  0  0  0
    7.9661  -18.5833   20.4188 C   0  0  1  0  0  0  0  0  0  0  0  0
    8.3512  -17.2006   20.7267 C   0  0  0  0  0  0  0  0  0  0  0  0
    9.5494  -16.8626   20.5427 O   0  0  0  0  0  0  0  0  0  0  0  0
    6.6720  -13.9610   21.0998 C   0  0  0  0  0  0  0  0  0  0  0  0
    7.8536  -14.8205   21.4183 C   0  0  2  0  0  0  0  0  0  0  0  0
    7.4774  -16.2057   21.2186 N   0  0  0  0  0  0  0  0  0  0  0  0
    8.4079  -14.5778   22.7660 C   0  0  0  0  0  0  0  0  0  0  0  0
    9.6400  -14.3815   22.8740 O   0  0  0  0  0  0  0  0  0  0  0  0
    5.5523  -11.6347   26.1885 C   0  0  0  0  0  0  0  0  0  0  0  0
    6.6992  -12.2708   25.4438 C   0  0  0  0  0  0  0  0  0  0  0  0
    7.1846  -13.5411   26.1566 C   0  0  2  0  0  0  0  0  0  0  0  0
    7.9662  -13.0387   27.3549 C   0  0  0  0  0  0  0  0  0  0  0  0
    8.1521  -14.2473   25.2589 C   0  0  2  0  0  0  0  0  0  0  0  0
    7.6340  -14.5520   23.9507 N   0  0  0  0  0  0  0  0  0  0  0  0
    8.6511  -15.4608   25.9567 C   0  0  0  0  0  0  0  0  0  0  0  0
    9.8305  -15.5056   26.6727 O   0  0  0  0  0  0  0  0  0  0  0  0
    7.9563  -16.5040   25.8884 O   0  0  0  0  0  0  0  0  0  0  0  0
  1  5  1  0
  2  1  1  0
  3  2  1  0
  3  4  1  0
  4  5  1  0
  5  6  1  6
  6 10  1  0
  7  6  2  0
  9  8  1  1
 10  9  1  0
 11 12  2  0
 11  9  1  0
 14 15  1  0
 14 13  1  0
 15 16  1  1
 17 18  1  6
 17 15  1  0
 18 11  1  0
 19 17  1  0
 20 19  1  0
 21 19  2  0
M  END
$$$$
