PAI.pdb
     RDKit          3D

 21 21  0  0  1  0  0  0  0  0999 V2000
    7.5727  -14.8875   17.9792 N   0  0  0  0  0  0  0  0  0  0  0  0
    8.0536  -13.9485   16.9620 C   0  0  0  0  0  0  0  0  0  0  0  0
    7.8850  -12.6265   17.7174 C   0  0  0  0  0  0  0  0  0  0  0  0
    8.1772  -12.9979   19.1624 C   0  0  0  0  0  0  0  0  0  0  0  0
    8.3353  -14.4759   19.1363 C   0  0  1  0  0  0  0  0  0  0  0  0
    7.8845  -15.1660   20.3511 C   0  0  0  0  0  0  0  0  0  0  0  0
    6.6530  -15.3868   20.4867 O   0  0  0  0  0  0  0  0  0  0  0  0
    8.5441  -17.7203   22.4916 C   0  0  0  0  0  0  0  0  0  0  0  0
    8.2583  -16.2565   22.6009 C   0  0  2  0  0  0  0  0  0  0  0  0
    8.7292  -15.6082   21.3934 N   0  0  0  0  0  0  0  0  0  0  0  0
    8.8156  -15.6409   23.8228 C   0  0  0  0  0  0  0  0  0  0  0  0
   10.0485  -15.4264   23.8695 O   0  0  0  0  0  0  0  0  0  0  0  0
    5.9457  -11.8425   26.2880 C   0  0  0  0  0  0  0  0  0  0  0  0
    7.0640  -12.6852   25.7279 C   0  0  0  0  0  0  0  0  0  0  0  0
    7.5866  -13.6780   26.7762 C   0  0  2  0  0  0  0  0  0  0  0  0
    8.3675  -12.8281   27.7597 C   0  0  0  0  0  0  0  0  0  0  0  0
    8.5620  -14.5986   26.1115 C   0  0  2  0  0  0  0  0  0  0  0  0
    8.0437  -15.2750   24.9512 N   0  0  0  0  0  0  0  0  0  0  0  0
    9.0841  -15.5518   27.1250 C   0  0  0  0  0  0  0  0  0  0  0  0
    8.7810  -16.8985   27.1418 O   0  0  0  0  0  0  0  0  0  0  0  0
    9.8449  -15.1018   28.0163 O   0  0  0  0  0  0  0  0  0  0  0  0
  1  5  1  0
  2  1  1  0
  3  2  1  0
  3  4  1  0
  4  5  1  0
  5  6  1  1
  6 10  1  0
  7  6  2  0
  9  8  1  6
 10  9  1  0
 11 12  2  0
 11  9  1  0
 14 15  1  0
 14 13  1  0
 15 16  1  1
 17 18  1  6
 17 15  1  0
 18 11  1  0
 19 17  1  0
 20 19  1  0
 21 19  2  0
M  END
$$$$
