PAI.pdb
     RDKit          3D

 21 21  0  0  1  0  0  0  0  0999 V2000
    8.8450  -15.1553   18.7239 N   0  0  0  0  0  0  0  0  0  0  0  0
    9.1209  -14.4316   17.4798 C   0  0  0  0  0  0  0  0  0  0  0  0
    7.9198  -13.4810   17.4516 C   0  0  0  0  0  0  0  0  0  0  0  0
    7.6654  -13.1790   18.9196 C   0  0  0  0  0  0  0  0  0  0  0  0
    8.6112  -14.0667   19.6459 C   0  0  1  0  0  0  0  0  0  0  0  0
    8.1267  -14.5547   20.9429 C   0  0  0  0  0  0  0  0  0  0  0  0
    7.7952  -13.7060   21.8110 O   0  0  0  0  0  0  0  0  0  0  0  0
    7.6547  -17.8656   22.6349 C   0  0  0  0  0  0  0  0  0  0  0  0
    7.5495  -16.3743   22.6002 C   0  0  2  0  0  0  0  0  0  0  0  0
    8.0001  -15.9151   21.3017 N   0  0  0  0  0  0  0  0  0  0  0  0
    8.2645  -15.7110   23.7098 C   0  0  0  0  0  0  0  0  0  0  0  0
    9.4994  -15.5354   23.5987 O   0  0  0  0  0  0  0  0  0  0  0  0
    5.5633  -11.9447   26.4694 C   0  0  0  0  0  0  0  0  0  0  0  0
    6.6353  -12.7282   25.7542 C   0  0  0  0  0  0  0  0  0  0  0  0
    7.4114  -13.6227   26.7314 C   0  0  2  0  0  0  0  0  0  0  0  0
    8.2991  -12.6697   27.5080 C   0  0  0  0  0  0  0  0  0  0  0  0
    8.3092  -14.5214   25.9396 C   0  0  2  0  0  0  0  0  0  0  0  0
    7.6426  -15.2579   24.8976 N   0  0  0  0  0  0  0  0  0  0  0  0
    9.0347  -15.4169   26.8778 C   0  0  0  0  0  0  0  0  0  0  0  0
    8.8259  -16.7791   26.9568 O   0  0  0  0  0  0  0  0  0  0  0  0
    9.8864  -14.9000   27.6415 O   0  0  0  0  0  0  0  0  0  0  0  0
  1  5  1  0
  2  1  1  0
  3  2  1  0
  3  4  1  0
  4  5  1  0
  5  6  1  1
  6 10  1  0
  7  6  2  0
  9  8  1  6
 10  9  1  0
 11 12  2  0
 11  9  1  0
 14 15  1  0
 14 13  1  0
 15 16  1  1
 17 18  1  6
 17 15  1  0
 18 11  1  0
 19 17  1  0
 20 19  1  0
 21 19  2  0
M  END
$$$$
