PAI.pdb
     RDKit          3D

 21 21  0  0  1  0  0  0  0  0999 V2000
    8.3392  -15.1465   18.6829 N   0  0  0  0  0  0  0  0  0  0  0  0
    8.5995  -14.4234   17.4351 C   0  0  0  0  0  0  0  0  0  0  0  0
    7.6001  -13.2715   17.5802 C   0  0  0  0  0  0  0  0  0  0  0  0
    7.5761  -13.0021   19.0762 C   0  0  0  0  0  0  0  0  0  0  0  0
    8.4182  -14.0810   19.6567 C   0  0  1  0  0  0  0  0  0  0  0  0
    8.0039  -14.5377   20.9889 C   0  0  0  0  0  0  0  0  0  0  0  0
    7.9682  -13.6938   21.9218 O   0  0  0  0  0  0  0  0  0  0  0  0
    6.9386  -17.7512   22.5973 C   0  0  0  0  0  0  0  0  0  0  0  0
    7.0996  -16.2644   22.5987 C   0  0  2  0  0  0  0  0  0  0  0  0
    7.6374  -15.8625   21.3144 N   0  0  0  0  0  0  0  0  0  0  0  0
    7.9098  -15.7643   23.7282 C   0  0  0  0  0  0  0  0  0  0  0  0
    9.1562  -15.8578   23.6513 O   0  0  0  0  0  0  0  0  0  0  0  0
    5.8578  -11.7019   26.7741 C   0  0  0  0  0  0  0  0  0  0  0  0
    6.7371  -12.6200   25.9626 C   0  0  0  0  0  0  0  0  0  0  0  0
    7.4041  -13.6773   26.8540 C   0  0  2  0  0  0  0  0  0  0  0  0
    8.4342  -12.9106   27.6605 C   0  0  0  0  0  0  0  0  0  0  0  0
    8.1488  -14.6346   25.9767 C   0  0  2  0  0  0  0  0  0  0  0  0
    7.3674  -15.1829   24.8990 N   0  0  0  0  0  0  0  0  0  0  0  0
    8.7450  -15.6965   26.8285 C   0  0  0  0  0  0  0  0  0  0  0  0
    9.9968  -15.6082   27.4038 O   0  0  0  0  0  0  0  0  0  0  0  0
    8.0672  -16.7328   27.0342 O   0  0  0  0  0  0  0  0  0  0  0  0
  1  5  1  0
  2  1  1  0
  3  2  1  0
  3  4  1  0
  4  5  1  0
  5  6  1  1
  6 10  1  0
  7  6  2  0
  9  8  1  6
 10  9  1  0
 11 12  2  0
 11  9  1  0
 14 15  1  0
 14 13  1  0
 15 16  1  1
 17 18  1  6
 17 15  1  0
 18 11  1  0
 19 17  1  0
 20 19  1  0
 21 19  2  0
M  END
$$$$
