PAI.pdb
     RDKit          3D

 21 21  0  0  1  0  0  0  0  0999 V2000
    6.3380  -19.2079   23.5428 N   0  0  0  0  0  0  0  0  0  0  0  0
    5.3090  -20.2446   23.4236 C   0  0  0  0  0  0  0  0  0  0  0  0
    4.4698  -19.6585   22.2838 C   0  0  0  0  0  0  0  0  0  0  0  0
    5.4941  -18.9557   21.4074 C   0  0  0  0  0  0  0  0  0  0  0  0
    6.7659  -19.0658   22.1693 C   0  0  1  0  0  0  0  0  0  0  0  0
    7.6830  -17.9312   22.0061 C   0  0  0  0  0  0  0  0  0  0  0  0
    8.9025  -18.1759   21.8139 O   0  0  0  0  0  0  0  0  0  0  0  0
    7.5724  -14.4288   21.0265 C   0  0  0  0  0  0  0  0  0  0  0  0
    8.2284  -15.4660   21.8810 C   0  0  2  0  0  0  0  0  0  0  0  0
    7.3054  -16.5707   22.0474 N   0  0  0  0  0  0  0  0  0  0  0  0
    8.7126  -14.9391   23.1734 C   0  0  0  0  0  0  0  0  0  0  0  0
    9.6773  -14.1406   23.1645 O   0  0  0  0  0  0  0  0  0  0  0  0
    5.6682  -12.3060   26.0417 C   0  0  0  0  0  0  0  0  0  0  0  0
    6.8234  -13.0338   25.4011 C   0  0  0  0  0  0  0  0  0  0  0  0
    7.5288  -13.9496   26.4117 C   0  0  2  0  0  0  0  0  0  0  0  0
    8.2389  -13.0047   27.3615 C   0  0  0  0  0  0  0  0  0  0  0  0
    8.5828  -14.7290   25.6890 C   0  0  2  0  0  0  0  0  0  0  0  0
    8.1552  -15.2789   24.4291 N   0  0  0  0  0  0  0  0  0  0  0  0
    9.1121  -15.7750   26.6023 C   0  0  0  0  0  0  0  0  0  0  0  0
   10.2051  -15.5949   27.4261 O   0  0  0  0  0  0  0  0  0  0  0  0
    8.5282  -16.8860   26.6225 O   0  0  0  0  0  0  0  0  0  0  0  0
  1  5  1  0
  2  1  1  0
  3  2  1  0
  3  4  1  0
  4  5  1  0
  5  6  1  1
  6 10  1  0
  7  6  2  0
  9  8  1  1
 10  9  1  0
 11 12  2  0
 11  9  1  0
 14 15  1  0
 14 13  1  0
 15 16  1  1
 17 18  1  6
 17 15  1  0
 18 11  1  0
 19 17  1  0
 20 19  1  0
 21 19  2  0
M  END
$$$$
