PAI.pdb
     RDKit          3D

 21 21  0  0  1  0  0  0  0  0999 V2000
    8.3829  -17.7194   18.4682 N   0  0  0  0  0  0  0  0  0  0  0  0
    9.4789  -18.0400   17.5496 C   0  0  0  0  0  0  0  0  0  0  0  0
   10.5093  -16.9944   17.9875 C   0  0  0  0  0  0  0  0  0  0  0  0
   10.2711  -16.8586   19.4829 C   0  0  0  0  0  0  0  0  0  0  0  0
    9.0694  -17.6951   19.7402 C   0  0  1  0  0  0  0  0  0  0  0  0
    8.1958  -17.2061   20.8139 C   0  0  0  0  0  0  0  0  0  0  0  0
    7.6090  -16.1052   20.6474 O   0  0  0  0  0  0  0  0  0  0  0  0
    6.6005  -18.5178   23.8918 C   0  0  0  0  0  0  0  0  0  0  0  0
    7.1110  -17.3619   23.0920 C   0  0  2  0  0  0  0  0  0  0  0  0
    7.9562  -17.8772   22.0336 N   0  0  0  0  0  0  0  0  0  0  0  0
    7.7957  -16.3404   23.9105 C   0  0  0  0  0  0  0  0  0  0  0  0
    9.0400  -16.4138   24.0317 O   0  0  0  0  0  0  0  0  0  0  0  0
    6.9274  -10.8684   26.8581 C   0  0  0  0  0  0  0  0  0  0  0  0
    7.7512  -12.0757   26.4861 C   0  0  0  0  0  0  0  0  0  0  0  0
    6.9074  -13.1071   25.7233 C   0  0  2  0  0  0  0  0  0  0  0  0
    5.9350  -13.6499   26.7524 C   0  0  0  0  0  0  0  0  0  0  0  0
    7.7985  -14.2378   25.3135 C   0  0  2  0  0  0  0  0  0  0  0  0
    7.1348  -15.2776   24.5712 N   0  0  0  0  0  0  0  0  0  0  0  0
    8.4835  -14.7666   26.5217 C   0  0  0  0  0  0  0  0  0  0  0  0
    8.1506  -15.9579   27.1346 O   0  0  0  0  0  0  0  0  0  0  0  0
    9.4188  -14.0869   27.0103 O   0  0  0  0  0  0  0  0  0  0  0  0
  1  5  1  0
  2  1  1  0
  3  2  1  0
  3  4  1  0
  4  5  1  0
  5  6  1  1
  6 10  1  0
  7  6  2  0
  9  8  1  1
 10  9  1  0
 11 12  2  0
 11  9  1  0
 14 15  1  0
 14 13  1  0
 15 16  1  1
 17 18  1  1
 17 15  1  0
 18 11  1  0
 19 17  1  0
 20 19  1  0
 21 19  2  0
M  END
$$$$
