PAI.pdb
     RDKit          3D

 21 21  0  0  1  0  0  0  0  0999 V2000
    8.4769  -15.1861   18.5625 N   0  0  0  0  0  0  0  0  0  0  0  0
    8.7867  -14.5328   17.2878 C   0  0  0  0  0  0  0  0  0  0  0  0
    7.7890  -13.3711   17.3334 C   0  0  0  0  0  0  0  0  0  0  0  0
    7.7120  -13.0207   18.8107 C   0  0  0  0  0  0  0  0  0  0  0  0
    8.5263  -14.0694   19.4793 C   0  0  1  0  0  0  0  0  0  0  0  0
    8.0611  -14.4516   20.8182 C   0  0  0  0  0  0  0  0  0  0  0  0
    8.0013  -13.5591   21.7036 O   0  0  0  0  0  0  0  0  0  0  0  0
    6.9277  -17.5734   22.5565 C   0  0  0  0  0  0  0  0  0  0  0  0
    7.1454  -16.0947   22.5070 C   0  0  2  0  0  0  0  0  0  0  0  0
    7.6702  -15.7542   21.1999 N   0  0  0  0  0  0  0  0  0  0  0  0
    7.9983  -15.5915   23.6033 C   0  0  0  0  0  0  0  0  0  0  0  0
    9.2286  -15.8188   23.5496 O   0  0  0  0  0  0  0  0  0  0  0  0
    5.8821  -12.0905   27.5878 C   0  0  0  0  0  0  0  0  0  0  0  0
    6.3979  -13.3143   26.8730 C   0  0  0  0  0  0  0  0  0  0  0  0
    7.8561  -13.1234   26.4318 C   0  0  2  0  0  0  0  0  0  0  0  0
    7.7957  -12.0776   25.3354 C   0  0  0  0  0  0  0  0  0  0  0  0
    8.3319  -14.3971   25.8058 C   0  0  2  0  0  0  0  0  0  0  0  0
    7.5142  -14.8650   24.7172 N   0  0  0  0  0  0  0  0  0  0  0  0
    8.4832  -15.4235   26.8698 C   0  0  0  0  0  0  0  0  0  0  0  0
    9.3882  -15.3272   27.9078 O   0  0  0  0  0  0  0  0  0  0  0  0
    7.7427  -16.4358   26.8177 O   0  0  0  0  0  0  0  0  0  0  0  0
  1  5  1  0
  2  1  1  0
  3  2  1  0
  3  4  1  0
  4  5  1  0
  5  6  1  1
  6 10  1  0
  7  6  2  0
  9  8  1  6
 10  9  1  0
 11 12  2  0
 11  9  1  0
 14 15  1  0
 14 13  1  0
 15 16  1  6
 17 18  1  6
 17 15  1  0
 18 11  1  0
 19 17  1  0
 20 19  1  0
 21 19  2  0
M  END
$$$$
