PWG.pdb
     RDKit          3D

 26 28  0  0  1  0  0  0  0  0999 V2000
    7.4347  -16.4508   21.3823 N   0  0  0  0  0  0  0  0  0  0  0  0
    6.5270  -16.1563   20.2866 C   0  0  0  0  0  0  0  0  0  0  0  0
    6.4970  -14.6400   20.1856 C   0  0  0  0  0  0  0  0  0  0  0  0
    7.5475  -14.1637   21.1617 C   0  0  0  0  0  0  0  0  0  0  0  0
    8.4305  -15.3883   21.3019 C   0  0  1  0  0  0  0  0  0  0  0  0
    9.3086  -15.3139   22.4740 C   0  0  0  0  0  0  0  0  0  0  0  0
   10.2135  -14.4203   22.4593 O   0  0  0  0  0  0  0  0  0  0  0  0
    9.2499  -16.1361   23.6211 N   0  0  0  0  0  0  0  0  0  0  0  0
   10.0532  -15.8391   24.8140 C   0  0  1  0  0  0  0  0  0  0  0  0
    9.2592  -15.7157   26.0374 C   0  0  0  0  0  0  0  0  0  0  0  0
    7.9434  -15.1006   26.0003 C   0  0  0  0  0  0  0  0  0  0  0  0
    6.7117  -15.7559   25.8647 C   0  0  0  0  0  0  0  0  0  0  0  0
    5.6961  -14.8871   25.9162 N   0  0  0  0  0  0  0  0  0  0  0  0
    6.2222  -13.6697   26.0819 C   0  0  0  0  0  0  0  0  0  0  0  0
    5.5912  -12.4479   26.1737 C   0  0  0  0  0  0  0  0  0  0  0  0
    6.3496  -11.3305   26.3174 C   0  0  0  0  0  0  0  0  0  0  0  0
    7.7168  -11.3700   26.3747 C   0  0  0  0  0  0  0  0  0  0  0  0
    8.3220  -12.6117   26.2807 C   0  0  0  0  0  0  0  0  0  0  0  0
    7.6093  -13.7881   26.1344 C   0  0  0  0  0  0  0  0  0  0  0  0
   11.2374  -16.6666   24.8578 C   0  0  0  0  0  0  0  0  0  0  0  0
   11.4268  -17.4740   25.7950 O   0  0  0  0  0  0  0  0  0  0  0  0
   12.2637  -16.6116   23.8462 N   0  0  0  0  0  0  0  0  0  0  0  0
   13.5835  -17.1113   23.9488 C   0  0  0  0  0  0  0  0  0  0  0  0
   13.7812  -18.5470   23.7349 C   0  0  0  0  0  0  0  0  0  0  0  0
   12.7331  -19.4361   23.8230 O   0  0  0  0  0  0  0  0  0  0  0  0
   14.9189  -18.9955   23.4630 O   0  0  0  0  0  0  0  0  0  0  0  0
  1  2  1  0
  2  3  1  0
  4  3  1  0
  5  6  1  1
  5  1  1  0
  5  4  1  0
  6  8  1  0
  7  6  2  0
  8  9  1  0
  9 10  1  1
 10 11  1  0
 11 19  1  0
 12 11  2  0
 12 13  1  0
 13 14  1  0
 14 15  1  0
 15 16  2  0
 17 16  1  0
 18 17  2  0
 19 14  2  0
 19 18  1  0
 20  9  1  0
 21 20  2  0
 22 20  1  0
 23 22  1  0
 24 23  1  0
 25 24  1  0
 26 24  2  0
M  END
$$$$
