PWG.pdb
     RDKit          3D

 26 28  0  0  1  0  0  0  0  0999 V2000
    7.4383  -16.4455   21.5719 N   0  0  0  0  0  0  0  0  0  0  0  0
    6.5726  -16.1288   20.4488 C   0  0  0  0  0  0  0  0  0  0  0  0
    6.8728  -14.6789   20.1058 C   0  0  0  0  0  0  0  0  0  0  0  0
    8.0423  -14.3043   20.9862 C   0  0  0  0  0  0  0  0  0  0  0  0
    8.6393  -15.6586   21.3157 C   0  0  1  0  0  0  0  0  0  0  0  0
    9.5606  -15.6018   22.4552 C   0  0  0  0  0  0  0  0  0  0  0  0
   10.6640  -14.9959   22.2734 O   0  0  0  0  0  0  0  0  0  0  0  0
    9.3451  -16.1527   23.7379 N   0  0  0  0  0  0  0  0  0  0  0  0
   10.3141  -15.9580   24.8240 C   0  0  1  0  0  0  0  0  0  0  0  0
    9.8313  -15.0746   25.8865 C   0  0  0  0  0  0  0  0  0  0  0  0
    8.4245  -14.7200   25.9644 C   0  0  0  0  0  0  0  0  0  0  0  0
    7.3299  -15.5849   25.8280 C   0  0  0  0  0  0  0  0  0  0  0  0
    6.1758  -14.9319   26.0028 N   0  0  0  0  0  0  0  0  0  0  0  0
    6.4759  -13.6535   26.2514 C   0  0  0  0  0  0  0  0  0  0  0  0
    5.6360  -12.5849   26.4799 C   0  0  0  0  0  0  0  0  0  0  0  0
    6.1812  -11.3585   26.6870 C   0  0  0  0  0  0  0  0  0  0  0  0
    7.5328  -11.1415   26.6778 C   0  0  0  0  0  0  0  0  0  0  0  0
    8.3510  -12.2343   26.4465 C   0  0  0  0  0  0  0  0  0  0  0  0
    7.8615  -13.5096   26.2295 C   0  0  0  0  0  0  0  0  0  0  0  0
   10.9149  -17.2143   25.2109 C   0  0  0  0  0  0  0  0  0  0  0  0
   11.9090  -17.2480   25.9704 O   0  0  0  0  0  0  0  0  0  0  0  0
   10.4216  -18.4884   24.7493 N   0  0  0  0  0  0  0  0  0  0  0  0
   11.1430  -19.4645   24.0223 C   0  0  0  0  0  0  0  0  0  0  0  0
   12.3937  -19.9550   24.6065 C   0  0  0  0  0  0  0  0  0  0  0  0
   13.6181  -19.5430   24.1291 O   0  0  0  0  0  0  0  0  0  0  0  0
   12.3709  -20.7646   25.5622 O   0  0  0  0  0  0  0  0  0  0  0  0
  1  2  1  0
  2  3  1  0
  4  3  1  0
  5  6  1  1
  5  1  1  0
  5  4  1  0
  6  8  1  0
  7  6  2  0
  8  9  1  0
  9 10  1  1
 10 11  1  0
 11 19  1  0
 12 11  2  0
 12 13  1  0
 13 14  1  0
 14 15  1  0
 15 16  2  0
 17 16  1  0
 18 17  2  0
 19 14  2  0
 19 18  1  0
 20  9  1  0
 21 20  2  0
 22 20  1  0
 23 22  1  0
 24 23  1  0
 25 24  1  0
 26 24  2  0
M  END
$$$$
