PWG.pdb
     RDKit          3D

 26 28  0  0  1  0  0  0  0  0999 V2000
    7.5667  -16.2098   21.1138 N   0  0  0  0  0  0  0  0  0  0  0  0
    6.8111  -15.8126   19.9381 C   0  0  0  0  0  0  0  0  0  0  0  0
    7.1653  -14.3529   19.7065 C   0  0  0  0  0  0  0  0  0  0  0  0
    8.2569  -14.0532   20.7074 C   0  0  0  0  0  0  0  0  0  0  0  0
    8.7989  -15.4364   21.0109 C   0  0  1  0  0  0  0  0  0  0  0  0
    9.6146  -15.4630   22.2293 C   0  0  0  0  0  0  0  0  0  0  0  0
   10.7549  -14.9027   22.1706 O   0  0  0  0  0  0  0  0  0  0  0  0
    9.2602  -16.0486   23.4649 N   0  0  0  0  0  0  0  0  0  0  0  0
   10.1645  -15.9963   24.6207 C   0  0  1  0  0  0  0  0  0  0  0  0
    9.7065  -15.0966   25.6806 C   0  0  0  0  0  0  0  0  0  0  0  0
    8.3141  -14.6869   25.7458 C   0  0  0  0  0  0  0  0  0  0  0  0
    7.1876  -15.5090   25.6038 C   0  0  0  0  0  0  0  0  0  0  0  0
    6.0586  -14.8107   25.7667 N   0  0  0  0  0  0  0  0  0  0  0  0
    6.4065  -13.5439   26.0129 C   0  0  0  0  0  0  0  0  0  0  0  0
    5.6072  -12.4425   26.2305 C   0  0  0  0  0  0  0  0  0  0  0  0
    6.1982  -11.2374   26.4375 C   0  0  0  0  0  0  0  0  0  0  0  0
    7.5574  -11.0735   26.4384 C   0  0  0  0  0  0  0  0  0  0  0  0
    8.3340  -12.1983   26.2179 C   0  0  0  0  0  0  0  0  0  0  0  0
    7.7967  -13.4544   26.0017 C   0  0  0  0  0  0  0  0  0  0  0  0
   10.5947  -17.3229   24.9999 C   0  0  0  0  0  0  0  0  0  0  0  0
   10.0522  -17.9311   25.9495 O   0  0  0  0  0  0  0  0  0  0  0  0
   11.6636  -18.0174   24.3253 N   0  0  0  0  0  0  0  0  0  0  0  0
   12.1976  -19.2837   24.6617 C   0  0  0  0  0  0  0  0  0  0  0  0
   13.3322  -19.3144   25.5880 C   0  0  0  0  0  0  0  0  0  0  0  0
   14.5660  -19.7835   25.1950 O   0  0  0  0  0  0  0  0  0  0  0  0
   13.1991  -18.9080   26.7654 O   0  0  0  0  0  0  0  0  0  0  0  0
  1  2  1  0
  2  3  1  0
  4  3  1  0
  5  6  1  1
  5  1  1  0
  5  4  1  0
  6  8  1  0
  7  6  2  0
  8  9  1  0
  9 10  1  1
 10 11  1  0
 11 19  1  0
 12 11  2  0
 12 13  1  0
 13 14  1  0
 14 15  1  0
 15 16  2  0
 17 16  1  0
 18 17  2  0
 19 14  2  0
 19 18  1  0
 20  9  1  0
 21 20  2  0
 22 20  1  0
 23 22  1  0
 24 23  1  0
 25 24  1  0
 26 24  2  0
M  END
$$$$
