PWG.pdb
     RDKit          3D

 26 28  0  0  1  0  0  0  0  0999 V2000
    7.4785  -16.3248   21.1956 N   0  0  0  0  0  0  0  0  0  0  0  0
    6.5290  -16.0245   20.1376 C   0  0  0  0  0  0  0  0  0  0  0  0
    6.4573  -14.5074   20.0802 C   0  0  0  0  0  0  0  0  0  0  0  0
    7.5260  -14.0303   21.0360 C   0  0  0  0  0  0  0  0  0  0  0  0
    8.4439  -15.2347   21.1140 C   0  0  1  0  0  0  0  0  0  0  0  0
    9.3568  -15.1692   22.2597 C   0  0  0  0  0  0  0  0  0  0  0  0
   10.4405  -14.5238   22.0959 O   0  0  0  0  0  0  0  0  0  0  0  0
    9.1531  -15.7513   23.5305 N   0  0  0  0  0  0  0  0  0  0  0  0
   10.1584  -15.6313   24.5943 C   0  0  1  0  0  0  0  0  0  0  0  0
    9.6445  -15.0116   25.8167 C   0  0  0  0  0  0  0  0  0  0  0  0
    8.2505  -14.6125   25.9080 C   0  0  0  0  0  0  0  0  0  0  0  0
    7.1273  -15.4366   25.7517 C   0  0  0  0  0  0  0  0  0  0  0  0
    5.9960  -14.7503   25.9471 N   0  0  0  0  0  0  0  0  0  0  0  0
    6.3391  -13.4897   26.2288 C   0  0  0  0  0  0  0  0  0  0  0  0
    5.5357  -12.4003   26.4881 C   0  0  0  0  0  0  0  0  0  0  0  0
    6.1219  -11.1987   26.7263 C   0  0  0  0  0  0  0  0  0  0  0  0
    7.4801  -11.0267   26.7191 C   0  0  0  0  0  0  0  0  0  0  0  0
    8.2608  -12.1395   26.4564 C   0  0  0  0  0  0  0  0  0  0  0  0
    7.7286  -13.3915   26.2069 C   0  0  0  0  0  0  0  0  0  0  0  0
   10.9200  -16.8526   24.7247 C   0  0  0  0  0  0  0  0  0  0  0  0
   10.4868  -17.8153   25.3967 O   0  0  0  0  0  0  0  0  0  0  0  0
   12.2097  -17.0360   24.1060 N   0  0  0  0  0  0  0  0  0  0  0  0
   13.4136  -16.3729   24.4416 C   0  0  0  0  0  0  0  0  0  0  0  0
   14.6475  -16.8535   23.8150 C   0  0  0  0  0  0  0  0  0  0  0  0
   15.8643  -16.2681   24.0859 O   0  0  0  0  0  0  0  0  0  0  0  0
   14.6171  -17.8172   23.0151 O   0  0  0  0  0  0  0  0  0  0  0  0
  1  2  1  0
  2  3  1  0
  4  3  1  0
  5  6  1  1
  5  1  1  0
  5  4  1  0
  6  8  1  0
  7  6  2  0
  8  9  1  0
  9 10  1  1
 10 11  1  0
 11 19  1  0
 12 11  2  0
 12 13  1  0
 13 14  1  0
 14 15  1  0
 15 16  2  0
 17 16  1  0
 18 17  2  0
 19 14  2  0
 19 18  1  0
 20  9  1  0
 21 20  2  0
 22 20  1  0
 23 22  1  0
 24 23  1  0
 25 24  1  0
 26 24  2  0
M  END
$$$$
