PWG.pdb
     RDKit          3D

 26 28  0  0  1  0  0  0  0  0999 V2000
    7.6139  -15.9641   20.8972 N   0  0  0  0  0  0  0  0  0  0  0  0
    6.8404  -15.4961   19.7598 C   0  0  0  0  0  0  0  0  0  0  0  0
    6.9046  -13.9790   19.8265 C   0  0  0  0  0  0  0  0  0  0  0  0
    7.8748  -13.6789   20.9455 C   0  0  0  0  0  0  0  0  0  0  0  0
    8.6699  -14.9671   21.0315 C   0  0  1  0  0  0  0  0  0  0  0  0
    9.4266  -15.0752   22.2829 C   0  0  0  0  0  0  0  0  0  0  0  0
   10.4006  -14.2721   22.4377 O   0  0  0  0  0  0  0  0  0  0  0  0
    9.1815  -15.9831   23.3370 N   0  0  0  0  0  0  0  0  0  0  0  0
    9.9917  -15.9663   24.5617 C   0  0  1  0  0  0  0  0  0  0  0  0
    9.1956  -15.8975   25.7880 C   0  0  0  0  0  0  0  0  0  0  0  0
    7.9386  -15.1691   25.8080 C   0  0  0  0  0  0  0  0  0  0  0  0
    6.6533  -15.7041   25.6446 C   0  0  0  0  0  0  0  0  0  0  0  0
    5.7182  -14.7556   25.7661 N   0  0  0  0  0  0  0  0  0  0  0  0
    6.3500  -13.6025   26.0056 C   0  0  0  0  0  0  0  0  0  0  0  0
    5.8293  -12.3393   26.1860 C   0  0  0  0  0  0  0  0  0  0  0  0
    6.6837  -11.3044   26.3941 C   0  0  0  0  0  0  0  0  0  0  0  0
    8.0425  -11.4665   26.4318 C   0  0  0  0  0  0  0  0  0  0  0  0
    8.5358  -12.7471   26.2482 C   0  0  0  0  0  0  0  0  0  0  0  0
    7.7218  -13.8444   26.0331 C   0  0  0  0  0  0  0  0  0  0  0  0
   11.0471  -16.9514   24.4958 C   0  0  0  0  0  0  0  0  0  0  0  0
   10.8246  -18.1548   24.7570 O   0  0  0  0  0  0  0  0  0  0  0  0
   12.4036  -16.6167   24.1383 N   0  0  0  0  0  0  0  0  0  0  0  0
   13.5076  -17.4996   24.0789 C   0  0  0  0  0  0  0  0  0  0  0  0
   14.7992  -16.9404   23.6722 C   0  0  0  0  0  0  0  0  0  0  0  0
   15.6654  -16.3933   24.5926 O   0  0  0  0  0  0  0  0  0  0  0  0
   15.1427  -16.9524   22.4676 O   0  0  0  0  0  0  0  0  0  0  0  0
  1  2  1  0
  2  3  1  0
  4  3  1  0
  5  6  1  1
  5  1  1  0
  5  4  1  0
  6  8  1  0
  7  6  2  0
  8  9  1  0
  9 10  1  1
 10 11  1  0
 11 19  1  0
 12 11  2  0
 12 13  1  0
 13 14  1  0
 14 15  1  0
 15 16  2  0
 17 16  1  0
 18 17  2  0
 19 14  2  0
 19 18  1  0
 20  9  1  0
 21 20  2  0
 22 20  1  0
 23 22  1  0
 24 23  1  0
 25 24  1  0
 26 24  2  0
M  END
$$$$
