PWG.pdb
     RDKit          3D

 26 28  0  0  1  0  0  0  0  0999 V2000
    7.4569  -15.4852   20.6933 N   0  0  0  0  0  0  0  0  0  0  0  0
    6.7702  -14.9605   19.5253 C   0  0  0  0  0  0  0  0  0  0  0  0
    7.0292  -13.4630   19.5453 C   0  0  0  0  0  0  0  0  0  0  0  0
    8.0106  -13.2524   20.6747 C   0  0  0  0  0  0  0  0  0  0  0  0
    8.6306  -14.6286   20.8185 C   0  0  1  0  0  0  0  0  0  0  0  0
    9.3452  -14.7905   22.0888 C   0  0  0  0  0  0  0  0  0  0  0  0
   10.4029  -14.1017   22.2458 O   0  0  0  0  0  0  0  0  0  0  0  0
    8.9759  -15.6356   23.1586 N   0  0  0  0  0  0  0  0  0  0  0  0
    9.8208  -15.7681   24.3524 C   0  0  1  0  0  0  0  0  0  0  0  0
    9.0607  -15.8416   25.6011 C   0  0  0  0  0  0  0  0  0  0  0  0
    7.7891  -15.1506   25.7287 C   0  0  0  0  0  0  0  0  0  0  0  0
    6.5152  -15.6794   25.4784 C   0  0  0  0  0  0  0  0  0  0  0  0
    5.5606  -14.7804   25.7420 N   0  0  0  0  0  0  0  0  0  0  0  0
    6.1684  -13.6662   26.1609 C   0  0  0  0  0  0  0  0  0  0  0  0
    5.6216  -12.4572   26.5333 C   0  0  0  0  0  0  0  0  0  0  0  0
    6.4542  -11.4503   26.9037 C   0  0  0  0  0  0  0  0  0  0  0  0
    7.8161  -11.5889   26.9216 C   0  0  0  0  0  0  0  0  0  0  0  0
    8.3358  -12.8151   26.5431 C   0  0  0  0  0  0  0  0  0  0  0  0
    7.5448  -13.8818   26.1562 C   0  0  0  0  0  0  0  0  0  0  0  0
   10.8658  -16.7435   24.1392 C   0  0  0  0  0  0  0  0  0  0  0  0
   10.5984  -17.9596   24.0136 O   0  0  0  0  0  0  0  0  0  0  0  0
   12.2612  -16.3866   24.0661 N   0  0  0  0  0  0  0  0  0  0  0  0
   13.3502  -17.2621   23.8439 C   0  0  0  0  0  0  0  0  0  0  0  0
   14.6763  -16.6625   23.6761 C   0  0  0  0  0  0  0  0  0  0  0  0
   14.9477  -15.8024   22.6353 O   0  0  0  0  0  0  0  0  0  0  0  0
   15.5954  -16.9226   24.4865 O   0  0  0  0  0  0  0  0  0  0  0  0
  1  2  1  0
  2  3  1  0
  4  3  1  0
  5  6  1  1
  5  1  1  0
  5  4  1  0
  6  8  1  0
  7  6  2  0
  8  9  1  0
  9 10  1  1
 10 11  1  0
 11 19  1  0
 12 11  2  0
 12 13  1  0
 13 14  1  0
 14 15  1  0
 15 16  2  0
 17 16  1  0
 18 17  2  0
 19 14  2  0
 19 18  1  0
 20  9  1  0
 21 20  2  0
 22 20  1  0
 23 22  1  0
 24 23  1  0
 25 24  1  0
 26 24  2  0
M  END
$$$$
