PWG.pdb
     RDKit          3D

 26 28  0  0  1  0  0  0  0  0999 V2000
    7.1574  -15.2996   20.3672 N   0  0  0  0  0  0  0  0  0  0  0  0
    6.8205  -15.7862   19.0403 C   0  0  0  0  0  0  0  0  0  0  0  0
    8.0673  -16.5007   18.5453 C   0  0  0  0  0  0  0  0  0  0  0  0
    9.0076  -16.5082   19.7281 C   0  0  0  0  0  0  0  0  0  0  0  0
    8.0552  -16.3216   20.8931 C   0  0  1  0  0  0  0  0  0  0  0  0
    8.7468  -15.9220   22.1229 C   0  0  0  0  0  0  0  0  0  0  0  0
    9.2834  -14.7689   22.1326 O   0  0  0  0  0  0  0  0  0  0  0  0
    8.8766  -16.6902   23.3011 N   0  0  0  0  0  0  0  0  0  0  0  0
    9.6916  -16.2231   24.4299 C   0  0  1  0  0  0  0  0  0  0  0  0
    8.9431  -16.1071   25.6825 C   0  0  0  0  0  0  0  0  0  0  0  0
    7.7228  -15.3207   25.7388 C   0  0  0  0  0  0  0  0  0  0  0  0
    6.4110  -15.7907   25.5858 C   0  0  0  0  0  0  0  0  0  0  0  0
    5.5241  -14.8020   25.7429 N   0  0  0  0  0  0  0  0  0  0  0  0
    6.2138  -13.6855   25.9959 C   0  0  0  0  0  0  0  0  0  0  0  0
    5.7567  -12.4033   26.2115 C   0  0  0  0  0  0  0  0  0  0  0  0
    6.6625  -11.4147   26.4268 C   0  0  0  0  0  0  0  0  0  0  0  0
    8.0125  -11.6416   26.4383 C   0  0  0  0  0  0  0  0  0  0  0  0
    8.4413  -12.9397   26.2196 C   0  0  0  0  0  0  0  0  0  0  0  0
    7.5728  -13.9925   25.9952 C   0  0  0  0  0  0  0  0  0  0  0  0
   10.9649  -16.9060   24.4646 C   0  0  0  0  0  0  0  0  0  0  0  0
   11.1251  -17.9392   25.1523 O   0  0  0  0  0  0  0  0  0  0  0  0
   12.1159  -16.4456   23.7278 N   0  0  0  0  0  0  0  0  0  0  0  0
   13.4069  -17.0245   23.7225 C   0  0  0  0  0  0  0  0  0  0  0  0
   14.4518  -16.3393   22.9577 C   0  0  0  0  0  0  0  0  0  0  0  0
   15.7792  -16.6815   23.0913 O   0  0  0  0  0  0  0  0  0  0  0  0
   14.1527  -15.4220   22.1587 O   0  0  0  0  0  0  0  0  0  0  0  0
  1  2  1  0
  2  3  1  0
  4  3  1  0
  5  6  1  1
  5  1  1  0
  5  4  1  0
  6  8  1  0
  7  6  2  0
  8  9  1  0
  9 10  1  1
 10 11  1  0
 11 19  1  0
 12 11  2  0
 12 13  1  0
 13 14  1  0
 14 15  1  0
 15 16  2  0
 17 16  1  0
 18 17  2  0
 19 14  2  0
 19 18  1  0
 20  9  1  0
 21 20  2  0
 22 20  1  0
 23 22  1  0
 24 23  1  0
 25 24  1  0
 26 24  2  0
M  END
$$$$
