PWG.pdb
     RDKit          3D

 26 28  0  0  1  0  0  0  0  0999 V2000
    7.4953  -15.4529   20.9319 N   0  0  0  0  0  0  0  0  0  0  0  0
    6.7626  -14.8813   19.8151 C   0  0  0  0  0  0  0  0  0  0  0  0
    7.1587  -13.4143   19.7827 C   0  0  0  0  0  0  0  0  0  0  0  0
    8.2480  -13.2818   20.8214 C   0  0  0  0  0  0  0  0  0  0  0  0
    8.7491  -14.7078   20.9409 C   0  0  1  0  0  0  0  0  0  0  0  0
    9.5516  -14.9196   22.1499 C   0  0  0  0  0  0  0  0  0  0  0  0
   10.6899  -14.3537   22.1914 O   0  0  0  0  0  0  0  0  0  0  0  0
    9.1864  -15.6898   23.2763 N   0  0  0  0  0  0  0  0  0  0  0  0
   10.0131  -15.7053   24.4899 C   0  0  1  0  0  0  0  0  0  0  0  0
    9.2346  -15.6476   25.7280 C   0  0  0  0  0  0  0  0  0  0  0  0
    7.9171  -15.0353   25.7395 C   0  0  0  0  0  0  0  0  0  0  0  0
    6.6888  -15.6777   25.5309 C   0  0  0  0  0  0  0  0  0  0  0  0
    5.6698  -14.8207   25.6576 N   0  0  0  0  0  0  0  0  0  0  0  0
    6.1902  -13.6237   25.9446 C   0  0  0  0  0  0  0  0  0  0  0  0
    5.5543  -12.4181   26.1487 C   0  0  0  0  0  0  0  0  0  0  0  0
    6.3076  -11.3178   26.4061 C   0  0  0  0  0  0  0  0  0  0  0  0
    7.6744  -11.3589   26.4708 C   0  0  0  0  0  0  0  0  0  0  0  0
    8.2846  -12.5841   26.2623 C   0  0  0  0  0  0  0  0  0  0  0  0
    7.5773  -13.7428   25.9971 C   0  0  0  0  0  0  0  0  0  0  0  0
   11.0542  -16.7030   24.3924 C   0  0  0  0  0  0  0  0  0  0  0  0
   11.8491  -16.9016   25.3383 O   0  0  0  0  0  0  0  0  0  0  0  0
   11.2465  -17.5157   23.2166 N   0  0  0  0  0  0  0  0  0  0  0  0
   12.2390  -18.5051   23.0223 C   0  0  0  0  0  0  0  0  0  0  0  0
   13.6292  -18.0558   22.9144 C   0  0  0  0  0  0  0  0  0  0  0  0
   14.4713  -18.0618   24.0042 O   0  0  0  0  0  0  0  0  0  0  0  0
   14.0817  -17.6564   21.8167 O   0  0  0  0  0  0  0  0  0  0  0  0
  1  2  1  0
  2  3  1  0
  4  3  1  0
  5  6  1  1
  5  1  1  0
  5  4  1  0
  6  8  1  0
  7  6  2  0
  8  9  1  0
  9 10  1  1
 10 11  1  0
 11 19  1  0
 12 11  2  0
 12 13  1  0
 13 14  1  0
 14 15  1  0
 15 16  2  0
 17 16  1  0
 18 17  2  0
 19 14  2  0
 19 18  1  0
 20  9  1  0
 21 20  2  0
 22 20  1  0
 23 22  1  0
 24 23  1  0
 25 24  1  0
 26 24  2  0
M  END
$$$$
