PWG.pdb
     RDKit          3D

 26 28  0  0  1  0  0  0  0  0999 V2000
    7.5849  -15.7508   20.8255 N   0  0  0  0  0  0  0  0  0  0  0  0
    6.8719  -15.1942   19.6885 C   0  0  0  0  0  0  0  0  0  0  0  0
    6.9468  -13.6865   19.8655 C   0  0  0  0  0  0  0  0  0  0  0  0
    7.8641  -13.4781   21.0481 C   0  0  0  0  0  0  0  0  0  0  0  0
    8.6422  -14.7791   21.0804 C   0  0  1  0  0  0  0  0  0  0  0  0
    9.3361  -14.9845   22.3559 C   0  0  0  0  0  0  0  0  0  0  0  0
   10.2518  -14.1533   22.6532 O   0  0  0  0  0  0  0  0  0  0  0  0
    9.0889  -16.0146   23.2903 N   0  0  0  0  0  0  0  0  0  0  0  0
    9.7792  -16.0505   24.5860 C   0  0  1  0  0  0  0  0  0  0  0  0
    8.8700  -16.1244   25.7306 C   0  0  0  0  0  0  0  0  0  0  0  0
    7.6882  -15.2810   25.7857 C   0  0  0  0  0  0  0  0  0  0  0  0
    6.3612  -15.6765   25.5675 C   0  0  0  0  0  0  0  0  0  0  0  0
    5.5187  -14.6528   25.7438 N   0  0  0  0  0  0  0  0  0  0  0  0
    6.2529  -13.5857   26.0733 C   0  0  0  0  0  0  0  0  0  0  0  0
    5.8516  -12.2937   26.3363 C   0  0  0  0  0  0  0  0  0  0  0  0
    6.7966  -11.3633   26.6289 C   0  0  0  0  0  0  0  0  0  0  0  0
    8.1327  -11.6582   26.6730 C   0  0  0  0  0  0  0  0  0  0  0  0
    8.5050  -12.9646   26.4052 C   0  0  0  0  0  0  0  0  0  0  0  0
    7.5944  -13.9605   26.1017 C   0  0  0  0  0  0  0  0  0  0  0  0
   10.8963  -16.9669   24.5503 C   0  0  0  0  0  0  0  0  0  0  0  0
   11.5039  -17.2856   25.5968 O   0  0  0  0  0  0  0  0  0  0  0  0
   11.3801  -17.5578   23.3269 N   0  0  0  0  0  0  0  0  0  0  0  0
   12.3840  -18.5469   23.2017 C   0  0  0  0  0  0  0  0  0  0  0  0
   12.7069  -19.0152   21.8517 C   0  0  0  0  0  0  0  0  0  0  0  0
   14.0033  -19.0249   21.3870 O   0  0  0  0  0  0  0  0  0  0  0  0
   11.7998  -19.4216   21.0892 O   0  0  0  0  0  0  0  0  0  0  0  0
  1  2  1  0
  2  3  1  0
  4  3  1  0
  5  6  1  1
  5  1  1  0
  5  4  1  0
  6  8  1  0
  7  6  2  0
  8  9  1  0
  9 10  1  1
 10 11  1  0
 11 19  1  0
 12 11  2  0
 12 13  1  0
 13 14  1  0
 14 15  1  0
 15 16  2  0
 17 16  1  0
 18 17  2  0
 19 14  2  0
 19 18  1  0
 20  9  1  0
 21 20  2  0
 22 20  1  0
 23 22  1  0
 24 23  1  0
 25 24  1  0
 26 24  2  0
M  END
$$$$
