PWG.pdb
     RDKit          3D

 26 28  0  0  1  0  0  0  0  0999 V2000
    7.6238  -16.1515   21.0900 N   0  0  0  0  0  0  0  0  0  0  0  0
    6.8567  -15.7209   19.9337 C   0  0  0  0  0  0  0  0  0  0  0  0
    6.9636  -14.2048   19.9218 C   0  0  0  0  0  0  0  0  0  0  0  0
    7.9486  -13.8751   21.0192 C   0  0  0  0  0  0  0  0  0  0  0  0
    8.7080  -15.1791   21.1677 C   0  0  1  0  0  0  0  0  0  0  0  0
    9.4690  -15.2440   22.4195 C   0  0  0  0  0  0  0  0  0  0  0  0
   10.4752  -14.4728   22.5219 O   0  0  0  0  0  0  0  0  0  0  0  0
    9.1960  -16.0782   23.5263 N   0  0  0  0  0  0  0  0  0  0  0  0
    9.9785  -15.9816   24.7652 C   0  0  1  0  0  0  0  0  0  0  0  0
    9.1542  -15.9034   25.9722 C   0  0  0  0  0  0  0  0  0  0  0  0
    7.8737  -15.2174   25.9442 C   0  0  0  0  0  0  0  0  0  0  0  0
    6.6148  -15.7940   25.7260 C   0  0  0  0  0  0  0  0  0  0  0  0
    5.6442  -14.8779   25.8135 N   0  0  0  0  0  0  0  0  0  0  0  0
    6.2267  -13.7058   26.0837 C   0  0  0  0  0  0  0  0  0  0  0  0
    5.6570  -12.4618   26.2482 C   0  0  0  0  0  0  0  0  0  0  0  0
    6.4669  -11.4001   26.4956 C   0  0  0  0  0  0  0  0  0  0  0  0
    7.8278  -11.5170   26.5880 C   0  0  0  0  0  0  0  0  0  0  0  0
    8.3708  -12.7794   26.4190 C   0  0  0  0  0  0  0  0  0  0  0  0
    7.6036  -13.9020   26.1660 C   0  0  0  0  0  0  0  0  0  0  0  0
   11.0764  -16.9215   24.7568 C   0  0  0  0  0  0  0  0  0  0  0  0
   11.8314  -17.0416   25.7475 O   0  0  0  0  0  0  0  0  0  0  0  0
   11.3731  -17.7623   23.6233 N   0  0  0  0  0  0  0  0  0  0  0  0
   12.4081  -18.7222   23.5270 C   0  0  0  0  0  0  0  0  0  0  0  0
   13.7365  -18.2466   23.1328 C   0  0  0  0  0  0  0  0  0  0  0  0
   14.2393  -18.4864   21.8732 O   0  0  0  0  0  0  0  0  0  0  0  0
   14.4448  -17.6046   23.9424 O   0  0  0  0  0  0  0  0  0  0  0  0
  1  2  1  0
  2  3  1  0
  4  3  1  0
  5  6  1  1
  5  1  1  0
  5  4  1  0
  6  8  1  0
  7  6  2  0
  8  9  1  0
  9 10  1  1
 10 11  1  0
 11 19  1  0
 12 11  2  0
 12 13  1  0
 13 14  1  0
 14 15  1  0
 15 16  2  0
 17 16  1  0
 18 17  2  0
 19 14  2  0
 19 18  1  0
 20  9  1  0
 21 20  2  0
 22 20  1  0
 23 22  1  0
 24 23  1  0
 25 24  1  0
 26 24  2  0
M  END
$$$$
