PWG.pdb
     RDKit          3D

 26 28  0  0  1  0  0  0  0  0999 V2000
    7.5913  -15.6934   20.9818 N   0  0  0  0  0  0  0  0  0  0  0  0
    6.8848  -15.1012   19.8588 C   0  0  0  0  0  0  0  0  0  0  0  0
    7.1226  -13.6047   19.9779 C   0  0  0  0  0  0  0  0  0  0  0  0
    8.1129  -13.4564   21.1095 C   0  0  0  0  0  0  0  0  0  0  0  0
    8.7540  -14.8298   21.1536 C   0  0  1  0  0  0  0  0  0  0  0  0
    9.4843  -15.0666   22.4030 C   0  0  0  0  0  0  0  0  0  0  0  0
   10.5183  -14.3551   22.6089 O   0  0  0  0  0  0  0  0  0  0  0  0
    9.1538  -16.0069   23.4039 N   0  0  0  0  0  0  0  0  0  0  0  0
    9.8666  -16.0365   24.6875 C   0  0  1  0  0  0  0  0  0  0  0  0
    8.9770  -16.0410   25.8499 C   0  0  0  0  0  0  0  0  0  0  0  0
    7.7813  -15.2157   25.8631 C   0  0  0  0  0  0  0  0  0  0  0  0
    6.4590  -15.6472   25.6891 C   0  0  0  0  0  0  0  0  0  0  0  0
    5.6008  -14.6281   25.8067 N   0  0  0  0  0  0  0  0  0  0  0  0
    6.3199  -13.5290   26.0538 C   0  0  0  0  0  0  0  0  0  0  0  0
    5.8992  -12.2291   26.2340 C   0  0  0  0  0  0  0  0  0  0  0  0
    6.8310  -11.2652   26.4509 C   0  0  0  0  0  0  0  0  0  0  0  0
    8.1725  -11.5341   26.4977 C   0  0  0  0  0  0  0  0  0  0  0  0
    8.5645  -12.8493   26.3140 C   0  0  0  0  0  0  0  0  0  0  0  0
    7.6681  -13.8785   26.0902 C   0  0  0  0  0  0  0  0  0  0  0  0
   10.9437  -16.9997   24.6575 C   0  0  0  0  0  0  0  0  0  0  0  0
   11.6478  -17.2129   25.6699 O   0  0  0  0  0  0  0  0  0  0  0  0
   11.2767  -17.7593   23.4777 N   0  0  0  0  0  0  0  0  0  0  0  0
   12.2002  -18.8275   23.3892 C   0  0  0  0  0  0  0  0  0  0  0  0
   13.6052  -18.4883   23.1503 C   0  0  0  0  0  0  0  0  0  0  0  0
   14.6026  -18.9321   23.9899 O   0  0  0  0  0  0  0  0  0  0  0  0
   13.9274  -17.7831   22.1664 O   0  0  0  0  0  0  0  0  0  0  0  0
  1  2  1  0
  2  3  1  0
  4  3  1  0
  5  6  1  1
  5  1  1  0
  5  4  1  0
  6  8  1  0
  7  6  2  0
  8  9  1  0
  9 10  1  1
 10 11  1  0
 11 19  1  0
 12 11  2  0
 12 13  1  0
 13 14  1  0
 14 15  1  0
 15 16  2  0
 17 16  1  0
 18 17  2  0
 19 14  2  0
 19 18  1  0
 20  9  1  0
 21 20  2  0
 22 20  1  0
 23 22  1  0
 24 23  1  0
 25 24  1  0
 26 24  2  0
M  END
$$$$
