PWG.pdb
     RDKit          3D

 26 28  0  0  1  0  0  0  0  0999 V2000
    7.3788  -16.1198   21.2281 N   0  0  0  0  0  0  0  0  0  0  0  0
    6.5204  -15.7110   20.1295 C   0  0  0  0  0  0  0  0  0  0  0  0
    6.6486  -14.1981   20.0603 C   0  0  0  0  0  0  0  0  0  0  0  0
    7.7303  -13.8528   21.0573 C   0  0  0  0  0  0  0  0  0  0  0  0
    8.4801  -15.1649   21.1807 C   0  0  1  0  0  0  0  0  0  0  0  0
    9.3462  -15.2053   22.3633 C   0  0  0  0  0  0  0  0  0  0  0  0
   10.3652  -14.4441   22.3566 O   0  0  0  0  0  0  0  0  0  0  0  0
    9.1620  -16.0057   23.5126 N   0  0  0  0  0  0  0  0  0  0  0  0
   10.0542  -15.8903   24.6732 C   0  0  1  0  0  0  0  0  0  0  0  0
    9.3438  -15.7997   25.9497 C   0  0  0  0  0  0  0  0  0  0  0  0
    8.0335  -15.1758   26.0185 C   0  0  0  0  0  0  0  0  0  0  0  0
    6.7915  -15.8081   25.8682 C   0  0  0  0  0  0  0  0  0  0  0  0
    5.7867  -14.9418   26.0377 N   0  0  0  0  0  0  0  0  0  0  0  0
    6.3299  -13.7484   26.2963 C   0  0  0  0  0  0  0  0  0  0  0  0
    5.7143  -12.5366   26.5245 C   0  0  0  0  0  0  0  0  0  0  0  0
    6.4880  -11.4421   26.7433 C   0  0  0  0  0  0  0  0  0  0  0  0
    7.8559  -11.4950   26.7462 C   0  0  0  0  0  0  0  0  0  0  0  0
    8.4455  -12.7262   26.5149 C   0  0  0  0  0  0  0  0  0  0  0  0
    7.7169  -13.8795   26.2864 C   0  0  0  0  0  0  0  0  0  0  0  0
   11.1514  -16.8259   24.5757 C   0  0  0  0  0  0  0  0  0  0  0  0
   10.9803  -18.0468   24.7907 O   0  0  0  0  0  0  0  0  0  0  0  0
   12.4933  -16.4201   24.2374 N   0  0  0  0  0  0  0  0  0  0  0  0
   13.6490  -17.2362   24.2262 C   0  0  0  0  0  0  0  0  0  0  0  0
   14.8842  -16.6517   23.6981 C   0  0  0  0  0  0  0  0  0  0  0  0
   15.3751  -15.4580   24.1785 O   0  0  0  0  0  0  0  0  0  0  0  0
   15.5234  -17.2350   22.7923 O   0  0  0  0  0  0  0  0  0  0  0  0
  1  2  1  0
  2  3  1  0
  4  3  1  0
  5  6  1  1
  5  1  1  0
  5  4  1  0
  6  8  1  0
  7  6  2  0
  8  9  1  0
  9 10  1  1
 10 11  1  0
 11 19  1  0
 12 11  2  0
 12 13  1  0
 13 14  1  0
 14 15  1  0
 15 16  2  0
 17 16  1  0
 18 17  2  0
 19 14  2  0
 19 18  1  0
 20  9  1  0
 21 20  2  0
 22 20  1  0
 23 22  1  0
 24 23  1  0
 25 24  1  0
 26 24  2  0
M  END
$$$$
