PWG.pdb
     RDKit          3D

 26 28  0  0  1  0  0  0  0  0999 V2000
    7.3829  -16.1066   21.4379 N   0  0  0  0  0  0  0  0  0  0  0  0
    6.5401  -15.6307   20.3543 C   0  0  0  0  0  0  0  0  0  0  0  0
    6.7677  -14.1290   20.2974 C   0  0  0  0  0  0  0  0  0  0  0  0
    7.8821  -13.8662   21.2834 C   0  0  0  0  0  0  0  0  0  0  0  0
    8.5446  -15.2264   21.3851 C   0  0  1  0  0  0  0  0  0  0  0  0
    9.4206  -15.3361   22.5560 C   0  0  0  0  0  0  0  0  0  0  0  0
   10.5074  -14.6762   22.5253 O   0  0  0  0  0  0  0  0  0  0  0  0
    9.1779  -16.1019   23.7178 N   0  0  0  0  0  0  0  0  0  0  0  0
   10.0908  -16.0539   24.8671 C   0  0  1  0  0  0  0  0  0  0  0  0
    9.4415  -15.6411   26.1123 C   0  0  0  0  0  0  0  0  0  0  0  0
    8.1097  -15.0609   26.0889 C   0  0  0  0  0  0  0  0  0  0  0  0
    6.9010  -15.7368   25.8721 C   0  0  0  0  0  0  0  0  0  0  0  0
    5.8597  -14.9025   25.9642 N   0  0  0  0  0  0  0  0  0  0  0  0
    6.3462  -13.6878   26.2363 C   0  0  0  0  0  0  0  0  0  0  0  0
    5.6781  -12.4943   26.4056 C   0  0  0  0  0  0  0  0  0  0  0  0
    6.4002  -11.3713   26.6540 C   0  0  0  0  0  0  0  0  0  0  0  0
    7.7663  -11.3779   26.7430 C   0  0  0  0  0  0  0  0  0  0  0  0
    8.4092  -12.5918   26.5693 C   0  0  0  0  0  0  0  0  0  0  0  0
    7.7346  -13.7722   26.3150 C   0  0  0  0  0  0  0  0  0  0  0  0
   10.9376  -17.2246   24.9027 C   0  0  0  0  0  0  0  0  0  0  0  0
   10.6939  -18.1746   25.6800 O   0  0  0  0  0  0  0  0  0  0  0  0
   12.1026  -17.3689   24.0650 N   0  0  0  0  0  0  0  0  0  0  0  0
   12.9823  -18.4760   24.0188 C   0  0  0  0  0  0  0  0  0  0  0  0
   13.9791  -18.5030   22.9455 C   0  0  0  0  0  0  0  0  0  0  0  0
   13.6189  -18.3268   21.6280 O   0  0  0  0  0  0  0  0  0  0  0  0
   15.1896  -18.6865   23.2106 O   0  0  0  0  0  0  0  0  0  0  0  0
  1  2  1  0
  2  3  1  0
  4  3  1  0
  5  6  1  1
  5  1  1  0
  5  4  1  0
  6  8  1  0
  7  6  2  0
  8  9  1  0
  9 10  1  1
 10 11  1  0
 11 19  1  0
 12 11  2  0
 12 13  1  0
 13 14  1  0
 14 15  1  0
 15 16  2  0
 17 16  1  0
 18 17  2  0
 19 14  2  0
 19 18  1  0
 20  9  1  0
 21 20  2  0
 22 20  1  0
 23 22  1  0
 24 23  1  0
 25 24  1  0
 26 24  2  0
M  END
$$$$
