PWG.pdb
     RDKit          3D

 26 28  0  0  1  0  0  0  0  0999 V2000
    7.3052  -15.5768   20.6858 N   0  0  0  0  0  0  0  0  0  0  0  0
    6.5935  -15.0618   19.5284 C   0  0  0  0  0  0  0  0  0  0  0  0
    7.0215  -13.6085   19.4069 C   0  0  0  0  0  0  0  0  0  0  0  0
    8.1054  -13.4334   20.4450 C   0  0  0  0  0  0  0  0  0  0  0  0
    8.5746  -14.8593   20.6589 C   0  0  1  0  0  0  0  0  0  0  0  0
    9.3630  -15.0108   21.8861 C   0  0  0  0  0  0  0  0  0  0  0  0
   10.4785  -14.4014   21.9323 O   0  0  0  0  0  0  0  0  0  0  0  0
    9.0072  -15.7664   23.0252 N   0  0  0  0  0  0  0  0  0  0  0  0
    9.8421  -15.7637   24.2333 C   0  0  1  0  0  0  0  0  0  0  0  0
    9.0739  -15.8682   25.4748 C   0  0  0  0  0  0  0  0  0  0  0  0
    7.8144  -15.1589   25.6211 C   0  0  0  0  0  0  0  0  0  0  0  0
    6.5271  -15.6839   25.4413 C   0  0  0  0  0  0  0  0  0  0  0  0
    5.5916  -14.7645   25.7027 N   0  0  0  0  0  0  0  0  0  0  0  0
    6.2250  -13.6405   26.0514 C   0  0  0  0  0  0  0  0  0  0  0  0
    5.7038  -12.4113   26.3932 C   0  0  0  0  0  0  0  0  0  0  0  0
    6.5591  -11.3989   26.6895 C   0  0  0  0  0  0  0  0  0  0  0  0
    7.9193  -11.5512   26.6619 C   0  0  0  0  0  0  0  0  0  0  0  0
    8.4130  -12.7976   26.3158 C   0  0  0  0  0  0  0  0  0  0  0  0
    7.5982  -13.8708   26.0040 C   0  0  0  0  0  0  0  0  0  0  0  0
   10.9862  -16.6320   24.0718 C   0  0  0  0  0  0  0  0  0  0  0  0
   10.8733  -17.7557   23.5327 O   0  0  0  0  0  0  0  0  0  0  0  0
   12.3082  -16.2697   24.5200 N   0  0  0  0  0  0  0  0  0  0  0  0
   13.5135  -16.9608   24.2528 C   0  0  0  0  0  0  0  0  0  0  0  0
   13.8241  -18.1251   25.0861 C   0  0  0  0  0  0  0  0  0  0  0  0
   12.9007  -18.6434   25.9667 O   0  0  0  0  0  0  0  0  0  0  0  0
   14.9463  -18.6767   25.0096 O   0  0  0  0  0  0  0  0  0  0  0  0
  1  2  1  0
  2  3  1  0
  4  3  1  0
  5  6  1  1
  5  1  1  0
  5  4  1  0
  6  8  1  0
  7  6  2  0
  8  9  1  0
  9 10  1  1
 10 11  1  0
 11 19  1  0
 12 11  2  0
 12 13  1  0
 13 14  1  0
 14 15  1  0
 15 16  2  0
 17 16  1  0
 18 17  2  0
 19 14  2  0
 19 18  1  0
 20  9  1  0
 21 20  2  0
 22 20  1  0
 23 22  1  0
 24 23  1  0
 25 24  1  0
 26 24  2  0
M  END
$$$$
