PWG.pdb
     RDKit          3D

 26 28  0  0  1  0  0  0  0  0999 V2000
    7.6894  -15.8379   20.8686 N   0  0  0  0  0  0  0  0  0  0  0  0
    6.9464  -15.3198   19.7326 C   0  0  0  0  0  0  0  0  0  0  0  0
    7.0584  -13.8075   19.8345 C   0  0  0  0  0  0  0  0  0  0  0  0
    8.0228  -13.5640   20.9720 C   0  0  0  0  0  0  0  0  0  0  0  0
    8.7750  -14.8789   21.0386 C   0  0  1  0  0  0  0  0  0  0  0  0
    9.5111  -15.0393   22.2966 C   0  0  0  0  0  0  0  0  0  0  0  0
   10.4349  -14.1978   22.5342 O   0  0  0  0  0  0  0  0  0  0  0  0
    9.2967  -16.0361   23.2742 N   0  0  0  0  0  0  0  0  0  0  0  0
    9.9088  -15.9425   24.6058 C   0  0  1  0  0  0  0  0  0  0  0  0
    8.9552  -16.1234   25.7013 C   0  0  0  0  0  0  0  0  0  0  0  0
    7.7801  -15.2748   25.8000 C   0  0  0  0  0  0  0  0  0  0  0  0
    6.4468  -15.6566   25.5960 C   0  0  0  0  0  0  0  0  0  0  0  0
    5.6142  -14.6329   25.8143 N   0  0  0  0  0  0  0  0  0  0  0  0
    6.3611  -13.5791   26.1578 C   0  0  0  0  0  0  0  0  0  0  0  0
    5.9729  -12.2921   26.4616 C   0  0  0  0  0  0  0  0  0  0  0  0
    6.9290  -11.3752   26.7609 C   0  0  0  0  0  0  0  0  0  0  0  0
    8.2638  -11.6791   26.7728 C   0  0  0  0  0  0  0  0  0  0  0  0
    8.6228  -12.9802   26.4644 C   0  0  0  0  0  0  0  0  0  0  0  0
    7.7005  -13.9624   26.1518 C   0  0  0  0  0  0  0  0  0  0  0  0
   11.1469  -16.6864   24.6580 C   0  0  0  0  0  0  0  0  0  0  0  0
   11.8234  -16.7415   25.7094 O   0  0  0  0  0  0  0  0  0  0  0  0
   11.6781  -17.3954   23.5200 N   0  0  0  0  0  0  0  0  0  0  0  0
   12.8666  -18.1619   23.4774 C   0  0  0  0  0  0  0  0  0  0  0  0
   13.1472  -18.9059   22.2470 C   0  0  0  0  0  0  0  0  0  0  0  0
   12.8905  -18.3641   21.0071 O   0  0  0  0  0  0  0  0  0  0  0  0
   13.6329  -20.0594   22.3019 O   0  0  0  0  0  0  0  0  0  0  0  0
  1  2  1  0
  2  3  1  0
  4  3  1  0
  5  6  1  1
  5  1  1  0
  5  4  1  0
  6  8  1  0
  7  6  2  0
  8  9  1  0
  9 10  1  1
 10 11  1  0
 11 19  1  0
 12 11  2  0
 12 13  1  0
 13 14  1  0
 14 15  1  0
 15 16  2  0
 17 16  1  0
 18 17  2  0
 19 14  2  0
 19 18  1  0
 20  9  1  0
 21 20  2  0
 22 20  1  0
 23 22  1  0
 24 23  1  0
 25 24  1  0
 26 24  2  0
M  END
$$$$
