AWS.pdb
     RDKit          3D

 26 27  0  0  1  0  0  0  0  0999 V2000
    7.4282  -16.8023   20.0339 C   0  0  0  0  0  0  0  0  0  0  0  0
    7.1455  -15.5591   20.8115 C   0  0  2  0  0  0  0  0  0  0  0  0
    7.1264  -14.3970   19.9520 N   0  0  0  0  0  0  0  0  0  0  0  0
    8.2713  -15.3558   21.7991 C   0  0  0  0  0  0  0  0  0  0  0  0
    9.2041  -14.5807   21.4934 O   0  0  0  0  0  0  0  0  0  0  0  0
    8.2861  -16.0140   23.0371 N   0  0  0  0  0  0  0  0  0  0  0  0
    9.3106  -15.7173   24.0167 C   0  0  1  0  0  0  0  0  0  0  0  0
    8.6975  -15.9121   25.3600 C   0  0  0  0  0  0  0  0  0  0  0  0
    7.5232  -15.0569   25.6339 C   0  0  0  0  0  0  0  0  0  0  0  0
    6.1711  -15.4118   25.6451 C   0  0  0  0  0  0  0  0  0  0  0  0
    5.4168  -14.3568   25.9151 N   0  0  0  0  0  0  0  0  0  0  0  0
    6.2188  -13.2845   26.0902 C   0  0  0  0  0  0  0  0  0  0  0  0
    5.9587  -11.9596   26.3857 C   0  0  0  0  0  0  0  0  0  0  0  0
    6.9885  -11.0445   26.5132 C   0  0  0  0  0  0  0  0  0  0  0  0
    8.3002  -11.4439   26.3456 C   0  0  0  0  0  0  0  0  0  0  0  0
    8.5410  -12.7627   26.0524 C   0  0  0  0  0  0  0  0  0  0  0  0
    7.5224  -13.6891   25.9220 C   0  0  0  0  0  0  0  0  0  0  0  0
   10.5094  -16.5039   23.7232 C   0  0  0  0  0  0  0  0  0  0  0  0
   10.3933  -17.7683   23.5250 O   0  0  0  0  0  0  0  0  0  0  0  0
   14.3978  -15.2022   22.7469 O   0  0  0  0  0  0  0  0  0  0  0  0
   13.9198  -16.4964   22.4523 C   0  0  0  0  0  0  0  0  0  0  0  0
   12.9396  -16.9314   23.5427 C   0  0  2  0  0  0  0  0  0  0  0  0
   11.8327  -16.0217   23.6248 N   0  0  0  0  0  0  0  0  0  0  0  0
   13.6808  -17.0727   24.8242 C   0  0  0  0  0  0  0  0  0  0  0  0
   13.2705  -16.3712   25.7918 O   0  0  0  0  0  0  0  0  0  0  0  0
   14.7534  -17.8864   25.0396 O   0  0  0  0  0  0  0  0  0  0  0  0
  2  1  1  6
  2  3  1  0
  4  2  1  0
  4  5  2  0
  6  4  1  0
  7  6  1  0
  7  8  1  1
  9  8  1  0
  9 17  1  0
 10 11  1  0
 10  9  2  0
 11 12  1  0
 12 13  1  0
 12 17  2  0
 13 14  2  0
 14 15  1  0
 16 15  2  0
 17 16  1  0
 18  7  1  0
 18 23  1  0
 19 18  2  0
 21 20  1  0
 22 21  1  6
 22 23  1  0
 22 24  1  0
 24 25  2  0
 24 26  1  0
M  END
$$$$
