AWS.pdb
     RDKit          3D

 26 27  0  0  1  0  0  0  0  0999 V2000
    8.0284  -16.8260   20.1401 C   0  0  0  0  0  0  0  0  0  0  0  0
    7.3866  -15.8380   21.0577 C   0  0  2  0  0  0  0  0  0  0  0  0
    7.0374  -14.6227   20.3571 N   0  0  0  0  0  0  0  0  0  0  0  0
    8.3936  -15.4585   22.1189 C   0  0  0  0  0  0  0  0  0  0  0  0
    9.1540  -14.4890   21.9043 O   0  0  0  0  0  0  0  0  0  0  0  0
    8.4874  -16.1673   23.3251 N   0  0  0  0  0  0  0  0  0  0  0  0
    9.4455  -15.7745   24.3376 C   0  0  1  0  0  0  0  0  0  0  0  0
    8.7689  -15.9198   25.6564 C   0  0  0  0  0  0  0  0  0  0  0  0
    7.5779  -15.0631   25.8385 C   0  0  0  0  0  0  0  0  0  0  0  0
    6.2296  -15.4321   25.8250 C   0  0  0  0  0  0  0  0  0  0  0  0
    5.4567  -14.3714   26.0054 N   0  0  0  0  0  0  0  0  0  0  0  0
    6.2421  -13.2815   26.1428 C   0  0  0  0  0  0  0  0  0  0  0  0
    5.9597  -11.9444   26.3492 C   0  0  0  0  0  0  0  0  0  0  0  0
    6.9759  -11.0117   26.4564 C   0  0  0  0  0  0  0  0  0  0  0  0
    8.2963  -11.4055   26.3577 C   0  0  0  0  0  0  0  0  0  0  0  0
    8.5593  -12.7367   26.1526 C   0  0  0  0  0  0  0  0  0  0  0  0
    7.5545  -13.6807   26.0436 C   0  0  0  0  0  0  0  0  0  0  0  0
   10.6877  -16.5257   24.1520 C   0  0  0  0  0  0  0  0  0  0  0  0
   10.6516  -17.8099   24.1856 O   0  0  0  0  0  0  0  0  0  0  0  0
   14.6153  -14.9745   23.8921 O   0  0  0  0  0  0  0  0  0  0  0  0
   14.2820  -16.1250   23.1468 C   0  0  0  0  0  0  0  0  0  0  0  0
   13.1195  -16.8475   23.8291 C   0  0  2  0  0  0  0  0  0  0  0  0
   11.9742  -15.9885   23.9290 N   0  0  0  0  0  0  0  0  0  0  0  0
   13.5829  -17.3647   25.1441 C   0  0  0  0  0  0  0  0  0  0  0  0
   12.8937  -17.0382   26.1518 O   0  0  0  0  0  0  0  0  0  0  0  0
   14.6763  -18.1525   25.3509 O   0  0  0  0  0  0  0  0  0  0  0  0
  2  1  1  6
  2  3  1  0
  4  2  1  0
  4  5  2  0
  6  4  1  0
  7  6  1  0
  7  8  1  1
  9  8  1  0
  9 17  1  0
 10 11  1  0
 10  9  2  0
 11 12  1  0
 12 13  1  0
 12 17  2  0
 13 14  2  0
 14 15  1  0
 16 15  2  0
 17 16  1  0
 18  7  1  0
 18 23  1  0
 19 18  2  0
 21 20  1  0
 22 21  1  1
 22 23  1  0
 22 24  1  0
 24 25  2  0
 24 26  1  0
M  END
$$$$
