AWS.pdb
     RDKit          3D

 26 27  0  0  1  0  0  0  0  0999 V2000
    6.7798  -17.9114   20.0389 C   0  0  0  0  0  0  0  0  0  0  0  0
    7.3642  -16.5786   19.7041 C   0  0  2  0  0  0  0  0  0  0  0  0
    7.9073  -16.5665   18.3645 N   0  0  0  0  0  0  0  0  0  0  0  0
    8.5168  -16.3201   20.6470 C   0  0  0  0  0  0  0  0  0  0  0  0
    9.6802  -16.5474   20.2479 O   0  0  0  0  0  0  0  0  0  0  0  0
    8.3050  -15.8356   21.9456 N   0  0  0  0  0  0  0  0  0  0  0  0
    9.4242  -15.4439   22.7771 C   0  0  1  0  0  0  0  0  0  0  0  0
    9.0638  -14.1434   23.4073 C   0  0  0  0  0  0  0  0  0  0  0  0
    7.9539  -14.2143   24.3812 C   0  0  0  0  0  0  0  0  0  0  0  0
    7.1714  -15.3187   24.7308 C   0  0  0  0  0  0  0  0  0  0  0  0
    6.2609  -14.9760   25.6300 N   0  0  0  0  0  0  0  0  0  0  0  0
    6.3992  -13.6616   25.9072 C   0  0  0  0  0  0  0  0  0  0  0  0
    5.7218  -12.8081   26.7575 C   0  0  0  0  0  0  0  0  0  0  0  0
    6.0741  -11.4736   26.8537 C   0  0  0  0  0  0  0  0  0  0  0  0
    7.1145  -10.9713   26.0965 C   0  0  0  0  0  0  0  0  0  0  0  0
    7.7765  -11.8320   25.2573 C   0  0  0  0  0  0  0  0  0  0  0  0
    7.4361  -13.1682   25.1503 C   0  0  0  0  0  0  0  0  0  0  0  0
    9.7650  -16.5399   23.6851 C   0  0  0  0  0  0  0  0  0  0  0  0
    8.8322  -17.3216   24.0979 O   0  0  0  0  0  0  0  0  0  0  0  0
   13.5301  -17.8933   24.3284 O   0  0  0  0  0  0  0  0  0  0  0  0
   12.4772  -18.7878   24.6141 C   0  0  0  0  0  0  0  0  0  0  0  0
   11.2419  -17.9923   25.0382 C   0  0  2  0  0  0  0  0  0  0  0  0
   11.0481  -16.8574   24.1815 N   0  0  0  0  0  0  0  0  0  0  0  0
   11.3760  -17.6289   26.4740 C   0  0  0  0  0  0  0  0  0  0  0  0
   11.3037  -16.3983   26.7522 O   0  0  0  0  0  0  0  0  0  0  0  0
   11.5684  -18.5023   27.5031 O   0  0  0  0  0  0  0  0  0  0  0  0
  2  1  1  1
  2  3  1  0
  4  2  1  0
  4  5  2  0
  6  4  1  0
  7  6  1  0
  7  8  1  1
  9  8  1  0
  9 17  1  0
 10 11  1  0
 10  9  2  0
 11 12  1  0
 12 13  1  0
 12 17  2  0
 13 14  2  0
 14 15  1  0
 16 15  2  0
 17 16  1  0
 18  7  1  0
 18 23  1  0
 19 18  2  0
 21 20  1  0
 22 21  1  6
 22 23  1  0
 22 24  1  0
 24 25  2  0
 24 26  1  0
M  END
$$$$
