AWS.pdb
     RDKit          3D

 26 27  0  0  1  0  0  0  0  0999 V2000
    7.6809  -16.6853   19.8191 C   0  0  0  0  0  0  0  0  0  0  0  0
    7.3083  -15.5227   20.6790 C   0  0  2  0  0  0  0  0  0  0  0  0
    7.2405  -14.3017   19.9081 N   0  0  0  0  0  0  0  0  0  0  0  0
    8.3977  -15.3312   21.7089 C   0  0  0  0  0  0  0  0  0  0  0  0
    9.3040  -14.5014   21.4755 O   0  0  0  0  0  0  0  0  0  0  0  0
    8.4080  -16.0598   22.9069 N   0  0  0  0  0  0  0  0  0  0  0  0
    9.4248  -15.8152   23.9088 C   0  0  1  0  0  0  0  0  0  0  0  0
    8.8141  -16.1222   25.2321 C   0  0  0  0  0  0  0  0  0  0  0  0
    7.6605  -15.2712   25.5935 C   0  0  0  0  0  0  0  0  0  0  0  0
    6.3058  -15.6134   25.6371 C   0  0  0  0  0  0  0  0  0  0  0  0
    5.5741  -14.5666   25.9891 N   0  0  0  0  0  0  0  0  0  0  0  0
    6.3942  -13.5125   26.1888 C   0  0  0  0  0  0  0  0  0  0  0  0
    6.1604  -12.2023   26.5617 C   0  0  0  0  0  0  0  0  0  0  0  0
    7.2046  -11.3048   26.6974 C   0  0  0  0  0  0  0  0  0  0  0  0
    8.5045  -11.7075   26.4604 C   0  0  0  0  0  0  0  0  0  0  0  0
    8.7193  -13.0116   26.0910 C   0  0  0  0  0  0  0  0  0  0  0  0
    7.6860  -13.9202   25.9514 C   0  0  0  0  0  0  0  0  0  0  0  0
   10.6403  -16.5524   23.5612 C   0  0  0  0  0  0  0  0  0  0  0  0
   10.5443  -17.7858   23.2133 O   0  0  0  0  0  0  0  0  0  0  0  0
   14.6167  -15.1062   23.5784 O   0  0  0  0  0  0  0  0  0  0  0  0
   14.2436  -16.1475   22.7029 C   0  0  0  0  0  0  0  0  0  0  0  0
   13.0738  -16.9221   23.3115 C   0  0  2  0  0  0  0  0  0  0  0  0
   11.9603  -16.0514   23.5592 N   0  0  0  0  0  0  0  0  0  0  0  0
   13.5500  -17.6289   24.5302 C   0  0  0  0  0  0  0  0  0  0  0  0
   12.9319  -17.3784   25.6036 O   0  0  0  0  0  0  0  0  0  0  0  0
   14.5855  -18.5141   24.5855 O   0  0  0  0  0  0  0  0  0  0  0  0
  2  1  1  6
  2  3  1  0
  4  2  1  0
  4  5  2  0
  6  4  1  0
  7  6  1  0
  7  8  1  1
  9  8  1  0
  9 17  1  0
 10 11  1  0
 10  9  2  0
 11 12  1  0
 12 13  1  0
 12 17  2  0
 13 14  2  0
 14 15  1  0
 16 15  2  0
 17 16  1  0
 18  7  1  0
 18 23  1  0
 19 18  2  0
 21 20  1  0
 22 21  1  1
 22 23  1  0
 22 24  1  0
 24 25  2  0
 24 26  1  0
M  END
$$$$
