AWS.pdb
     RDKit          3D

 26 27  0  0  1  0  0  0  0  0999 V2000
    7.9901  -15.9964   19.5495 C   0  0  0  0  0  0  0  0  0  0  0  0
    7.4817  -14.9474   20.4828 C   0  0  2  0  0  0  0  0  0  0  0  0
    7.4544  -13.6495   19.8470 N   0  0  0  0  0  0  0  0  0  0  0  0
    8.4425  -14.8462   21.6451 C   0  0  0  0  0  0  0  0  0  0  0  0
    9.3511  -13.9879   21.5987 O   0  0  0  0  0  0  0  0  0  0  0  0
    8.3325  -15.6887   22.7605 N   0  0  0  0  0  0  0  0  0  0  0  0
    9.3267  -15.6508   23.8129 C   0  0  1  0  0  0  0  0  0  0  0  0
    8.6377  -16.0350   25.0762 C   0  0  0  0  0  0  0  0  0  0  0  0
    7.4924  -15.1750   25.4425 C   0  0  0  0  0  0  0  0  0  0  0  0
    6.1320  -15.4963   25.4578 C   0  0  0  0  0  0  0  0  0  0  0  0
    5.4117  -14.4471   25.8258 N   0  0  0  0  0  0  0  0  0  0  0  0
    6.2452  -13.4118   26.0642 C   0  0  0  0  0  0  0  0  0  0  0  0
    6.0265  -12.1078   26.4670 C   0  0  0  0  0  0  0  0  0  0  0  0
    7.0826  -11.2310   26.6406 C   0  0  0  0  0  0  0  0  0  0  0  0
    8.3794  -11.6484   26.4123 C   0  0  0  0  0  0  0  0  0  0  0  0
    8.5791  -12.9460   26.0128 C   0  0  0  0  0  0  0  0  0  0  0  0
    7.5339  -13.8341   25.8351 C   0  0  0  0  0  0  0  0  0  0  0  0
   10.4812  -16.4616   23.4234 C   0  0  0  0  0  0  0  0  0  0  0  0
   10.2963  -17.6850   23.0762 O   0  0  0  0  0  0  0  0  0  0  0  0
   14.4105  -15.1674   23.4460 O   0  0  0  0  0  0  0  0  0  0  0  0
   14.1449  -16.3032   22.6524 C   0  0  0  0  0  0  0  0  0  0  0  0
   12.8837  -16.9957   23.1706 C   0  0  2  0  0  0  0  0  0  0  0  0
   11.8293  -16.0446   23.3786 N   0  0  0  0  0  0  0  0  0  0  0  0
   13.2294  -17.7671   24.3940 C   0  0  0  0  0  0  0  0  0  0  0  0
   14.2022  -18.5680   24.2982 O   0  0  0  0  0  0  0  0  0  0  0  0
   12.5918  -17.6835   25.5964 O   0  0  0  0  0  0  0  0  0  0  0  0
  2  1  1  6
  2  3  1  0
  4  2  1  0
  4  5  2  0
  6  4  1  0
  7  6  1  0
  7  8  1  1
  9  8  1  0
  9 17  1  0
 10 11  1  0
 10  9  2  0
 11 12  1  0
 12 13  1  0
 12 17  2  0
 13 14  2  0
 14 15  1  0
 16 15  2  0
 17 16  1  0
 18  7  1  0
 18 23  1  0
 19 18  2  0
 21 20  1  0
 22 21  1  1
 22 23  1  0
 22 24  1  0
 24 25  2  0
 24 26  1  0
M  END
$$$$
