AWS.pdb
     RDKit          3D

 26 27  0  0  1  0  0  0  0  0999 V2000
    7.6588  -16.0488   19.7656 C   0  0  0  0  0  0  0  0  0  0  0  0
    7.2527  -14.9415   20.6815 C   0  0  2  0  0  0  0  0  0  0  0  0
    7.2621  -13.6673   19.9989 N   0  0  0  0  0  0  0  0  0  0  0  0
    8.2738  -14.8515   21.7921 C   0  0  0  0  0  0  0  0  0  0  0  0
    9.2313  -14.0572   21.6631 O   0  0  0  0  0  0  0  0  0  0  0  0
    8.1657  -15.6345   22.9503 N   0  0  0  0  0  0  0  0  0  0  0  0
    9.2035  -15.6032   23.9599 C   0  0  1  0  0  0  0  0  0  0  0  0
    8.5575  -15.9420   25.2584 C   0  0  0  0  0  0  0  0  0  0  0  0
    7.4221  -15.0714   25.6304 C   0  0  0  0  0  0  0  0  0  0  0  0
    6.0584  -15.3785   25.6472 C   0  0  0  0  0  0  0  0  0  0  0  0
    5.3499  -14.3232   26.0207 N   0  0  0  0  0  0  0  0  0  0  0  0
    6.1948  -13.2976   26.2613 C   0  0  0  0  0  0  0  0  0  0  0  0
    5.9906  -11.9929   26.6695 C   0  0  0  0  0  0  0  0  0  0  0  0
    7.0562  -11.1279   26.8443 C   0  0  0  0  0  0  0  0  0  0  0  0
    8.3481  -11.5581   26.6117 C   0  0  0  0  0  0  0  0  0  0  0  0
    8.5333  -12.8562   26.2069 C   0  0  0  0  0  0  0  0  0  0  0  0
    7.4785  -13.7325   26.0280 C   0  0  0  0  0  0  0  0  0  0  0  0
   10.3183  -16.4538   23.5409 C   0  0  0  0  0  0  0  0  0  0  0  0
   10.0690  -17.6262   23.0775 O   0  0  0  0  0  0  0  0  0  0  0  0
   14.2969  -15.4017   22.9958 O   0  0  0  0  0  0  0  0  0  0  0  0
   13.8123  -16.6231   22.4821 C   0  0  0  0  0  0  0  0  0  0  0  0
   12.6905  -17.1390   23.3843 C   0  0  2  0  0  0  0  0  0  0  0  0
   11.6914  -16.1282   23.5834 N   0  0  0  0  0  0  0  0  0  0  0  0
   13.2864  -17.6346   24.6535 C   0  0  0  0  0  0  0  0  0  0  0  0
   12.8078  -17.1608   25.7227 O   0  0  0  0  0  0  0  0  0  0  0  0
   14.2943  -18.5468   24.7585 O   0  0  0  0  0  0  0  0  0  0  0  0
  2  1  1  6
  2  3  1  0
  4  2  1  0
  4  5  2  0
  6  4  1  0
  7  6  1  0
  7  8  1  1
  9  8  1  0
  9 17  1  0
 10 11  1  0
 10  9  2  0
 11 12  1  0
 12 13  1  0
 12 17  2  0
 13 14  2  0
 14 15  1  0
 16 15  2  0
 17 16  1  0
 18  7  1  0
 18 23  1  0
 19 18  2  0
 21 20  1  0
 22 21  1  6
 22 23  1  0
 22 24  1  0
 24 25  2  0
 24 26  1  0
M  END
$$$$
