AWS.pdb
     RDKit          3D

 26 27  0  0  1  0  0  0  0  0999 V2000
    7.2380  -13.6975   20.2809 C   0  0  0  0  0  0  0  0  0  0  0  0
    7.7490  -15.0883   20.4667 C   0  0  2  0  0  0  0  0  0  0  0  0
    6.6806  -15.9959   20.8196 N   0  0  0  0  0  0  0  0  0  0  0  0
    8.7196  -15.0819   21.6252 C   0  0  0  0  0  0  0  0  0  0  0  0
    9.7183  -14.3313   21.5662 O   0  0  0  0  0  0  0  0  0  0  0  0
    8.5204  -15.8938   22.7509 N   0  0  0  0  0  0  0  0  0  0  0  0
    9.4135  -15.8086   23.8878 C   0  0  1  0  0  0  0  0  0  0  0  0
    8.6362  -16.2350   25.0845 C   0  0  0  0  0  0  0  0  0  0  0  0
    7.5219  -15.3354   25.4512 C   0  0  0  0  0  0  0  0  0  0  0  0
    6.1475  -15.5852   25.3980 C   0  0  0  0  0  0  0  0  0  0  0  0
    5.4668  -14.5193   25.7925 N   0  0  0  0  0  0  0  0  0  0  0  0
    6.3412  -13.5423   26.1159 C   0  0  0  0  0  0  0  0  0  0  0  0
    6.1724  -12.2504   26.5773 C   0  0  0  0  0  0  0  0  0  0  0  0
    7.2635  -11.4401   26.8362 C   0  0  0  0  0  0  0  0  0  0  0  0
    8.5458  -11.9131   26.6359 C   0  0  0  0  0  0  0  0  0  0  0  0
    8.6957  -13.1978   26.1774 C   0  0  0  0  0  0  0  0  0  0  0  0
    7.6151  -14.0198   25.9143 C   0  0  0  0  0  0  0  0  0  0  0  0
   10.6396  -16.5552   23.6025 C   0  0  0  0  0  0  0  0  0  0  0  0
   10.5505  -17.7245   23.0771 O   0  0  0  0  0  0  0  0  0  0  0  0
   15.2321  -16.9148   22.3892 O   0  0  0  0  0  0  0  0  0  0  0  0
   14.1664  -16.0830   22.7925 C   0  0  0  0  0  0  0  0  0  0  0  0
   13.0787  -16.9384   23.4436 C   0  0  2  0  0  0  0  0  0  0  0  0
   11.9636  -16.1277   23.8423 N   0  0  0  0  0  0  0  0  0  0  0  0
   13.6804  -17.7042   24.5674 C   0  0  0  0  0  0  0  0  0  0  0  0
   13.2289  -17.4580   25.7216 O   0  0  0  0  0  0  0  0  0  0  0  0
   14.6671  -18.6388   24.4576 O   0  0  0  0  0  0  0  0  0  0  0  0
  2  1  1  1
  2  3  1  0
  4  2  1  0
  4  5  2  0
  6  4  1  0
  7  6  1  0
  7  8  1  1
  9  8  1  0
  9 17  1  0
 10 11  1  0
 10  9  2  0
 11 12  1  0
 12 13  1  0
 12 17  2  0
 13 14  2  0
 14 15  1  0
 16 15  2  0
 17 16  1  0
 18  7  1  0
 18 23  1  0
 19 18  2  0
 21 20  1  0
 22 21  1  1
 22 23  1  0
 22 24  1  0
 24 25  2  0
 24 26  1  0
M  END
$$$$
