AWS.pdb
     RDKit          3D

 26 27  0  0  1  0  0  0  0  0999 V2000
    7.2186  -19.9251   21.5332 C   0  0  0  0  0  0  0  0  0  0  0  0
    6.4890  -18.7183   22.0245 C   0  0  2  0  0  0  0  0  0  0  0  0
    5.6084  -18.1887   21.0078 N   0  0  0  0  0  0  0  0  0  0  0  0
    7.5075  -17.6431   22.3259 C   0  0  0  0  0  0  0  0  0  0  0  0
    7.8427  -16.8612   21.4090 O   0  0  0  0  0  0  0  0  0  0  0  0
    8.0753  -17.5101   23.6010 N   0  0  0  0  0  0  0  0  0  0  0  0
    8.9967  -16.4303   23.8879 C   0  0  1  0  0  0  0  0  0  0  0  0
    8.8780  -16.1320   25.3423 C   0  0  0  0  0  0  0  0  0  0  0  0
    7.6798  -15.3518   25.7180 C   0  0  0  0  0  0  0  0  0  0  0  0
    6.3821  -15.8115   25.9604 C   0  0  0  0  0  0  0  0  0  0  0  0
    5.5786  -14.7996   26.2531 N   0  0  0  0  0  0  0  0  0  0  0  0
    6.2938  -13.6547   26.2178 C   0  0  0  0  0  0  0  0  0  0  0  0
    5.9558  -12.3329   26.4396 C   0  0  0  0  0  0  0  0  0  0  0  0
    6.9035  -11.3301   26.3362 C   0  0  0  0  0  0  0  0  0  0  0  0
    8.2095  -11.6370   26.0074 C   0  0  0  0  0  0  0  0  0  0  0  0
    8.5283  -12.9541   25.7904 C   0  0  0  0  0  0  0  0  0  0  0  0
    7.5924  -13.9674   25.8901 C   0  0  0  0  0  0  0  0  0  0  0  0
   10.3299  -16.7828   23.3980 C   0  0  0  0  0  0  0  0  0  0  0  0
   10.7946  -17.9559   23.6419 O   0  0  0  0  0  0  0  0  0  0  0  0
   14.4187  -15.9463   20.9045 O   0  0  0  0  0  0  0  0  0  0  0  0
   13.1372  -15.4688   21.2510 C   0  0  0  0  0  0  0  0  0  0  0  0
   12.4895  -16.4380   22.2410 C   0  0  2  0  0  0  0  0  0  0  0  0
   11.2030  -15.9570   22.6569 N   0  0  0  0  0  0  0  0  0  0  0  0
   13.4270  -16.6636   23.3731 C   0  0  0  0  0  0  0  0  0  0  0  0
   13.0326  -16.2887   24.5136 O   0  0  0  0  0  0  0  0  0  0  0  0
   14.6620  -17.2345   23.2843 O   0  0  0  0  0  0  0  0  0  0  0  0
  2  1  1  6
  2  3  1  0
  4  2  1  0
  4  5  2  0
  6  4  1  0
  7  6  1  0
  7  8  1  1
  9  8  1  0
  9 17  1  0
 10 11  1  0
 10  9  2  0
 11 12  1  0
 12 13  1  0
 12 17  2  0
 13 14  2  0
 14 15  1  0
 16 15  2  0
 17 16  1  0
 18  7  1  0
 18 23  1  0
 19 18  2  0
 21 20  1  0
 22 21  1  6
 22 23  1  0
 22 24  1  0
 24 25  2  0
 24 26  1  0
M  END
$$$$
