AWS.pdb
     RDKit          3D

 26 27  0  0  1  0  0  0  0  0999 V2000
    6.8706  -14.5957   20.4810 C   0  0  0  0  0  0  0  0  0  0  0  0
    7.7851  -15.7413   20.7661 C   0  0  2  0  0  0  0  0  0  0  0  0
    7.0446  -16.9127   21.1772 N   0  0  0  0  0  0  0  0  0  0  0  0
    8.6749  -15.3557   21.9254 C   0  0  0  0  0  0  0  0  0  0  0  0
    9.4157  -14.3551   21.8054 O   0  0  0  0  0  0  0  0  0  0  0  0
    8.6826  -16.0926   23.1182 N   0  0  0  0  0  0  0  0  0  0  0  0
    9.5904  -15.7462   24.1921 C   0  0  1  0  0  0  0  0  0  0  0  0
    8.8933  -16.0617   25.4698 C   0  0  0  0  0  0  0  0  0  0  0  0
    7.6477  -15.2994   25.6998 C   0  0  0  0  0  0  0  0  0  0  0  0
    6.3252  -15.7409   25.5983 C   0  0  0  0  0  0  0  0  0  0  0  0
    5.4845  -14.7520   25.8635 N   0  0  0  0  0  0  0  0  0  0  0  0
    6.1981  -13.6407   26.1452 C   0  0  0  0  0  0  0  0  0  0  0  0
    5.8292  -12.3524   26.4835 C   0  0  0  0  0  0  0  0  0  0  0  0
    6.7835  -11.3805   26.7266 C   0  0  0  0  0  0  0  0  0  0  0  0
    8.1276  -11.6853   26.6338 C   0  0  0  0  0  0  0  0  0  0  0  0
    8.4767  -12.9690   26.2968 C   0  0  0  0  0  0  0  0  0  0  0  0
    7.5346  -13.9512   26.0511 C   0  0  0  0  0  0  0  0  0  0  0  0
   10.8808  -16.4001   23.9707 C   0  0  0  0  0  0  0  0  0  0  0  0
   10.9281  -17.6828   23.9086 O   0  0  0  0  0  0  0  0  0  0  0  0
   15.5524  -16.4722   22.7072 O   0  0  0  0  0  0  0  0  0  0  0  0
   14.4249  -15.6687   22.9780 C   0  0  0  0  0  0  0  0  0  0  0  0
   13.3200  -16.5381   23.5799 C   0  0  2  0  0  0  0  0  0  0  0  0
   12.1319  -15.7662   23.8080 N   0  0  0  0  0  0  0  0  0  0  0  0
   13.8415  -17.1918   24.8097 C   0  0  0  0  0  0  0  0  0  0  0  0
   13.2742  -16.8819   25.8955 O   0  0  0  0  0  0  0  0  0  0  0  0
   14.8686  -18.0869   24.8627 O   0  0  0  0  0  0  0  0  0  0  0  0
  2  1  1  1
  2  3  1  0
  4  2  1  0
  4  5  2  0
  6  4  1  0
  7  6  1  0
  7  8  1  1
  9  8  1  0
  9 17  1  0
 10 11  1  0
 10  9  2  0
 11 12  1  0
 12 13  1  0
 12 17  2  0
 13 14  2  0
 14 15  1  0
 16 15  2  0
 17 16  1  0
 18  7  1  0
 18 23  1  0
 19 18  2  0
 21 20  1  0
 22 21  1  1
 22 23  1  0
 22 24  1  0
 24 25  2  0
 24 26  1  0
M  END
$$$$
