AWS.pdb
     RDKit          3D

 26 27  0  0  1  0  0  0  0  0999 V2000
    7.8808  -17.1112   20.0335 C   0  0  0  0  0  0  0  0  0  0  0  0
    7.3063  -15.9606   20.7926 C   0  0  2  0  0  0  0  0  0  0  0  0
    7.0869  -14.8216   19.9300 N   0  0  0  0  0  0  0  0  0  0  0  0
    8.3147  -15.5340   21.8344 C   0  0  0  0  0  0  0  0  0  0  0  0
    9.0847  -14.5846   21.5698 O   0  0  0  0  0  0  0  0  0  0  0  0
    8.3993  -16.1777   23.0772 N   0  0  0  0  0  0  0  0  0  0  0  0
    9.4264  -15.8087   24.0292 C   0  0  1  0  0  0  0  0  0  0  0  0
    8.8462  -15.9933   25.3885 C   0  0  0  0  0  0  0  0  0  0  0  0
    7.6417  -15.1813   25.6625 C   0  0  0  0  0  0  0  0  0  0  0  0
    6.3023  -15.5816   25.6589 C   0  0  0  0  0  0  0  0  0  0  0  0
    5.5108  -14.5556   25.9346 N   0  0  0  0  0  0  0  0  0  0  0  0
    6.2749  -13.4590   26.1279 C   0  0  0  0  0  0  0  0  0  0  0  0
    5.9680  -12.1470   26.4361 C   0  0  0  0  0  0  0  0  0  0  0  0
    6.9654  -11.1993   26.5819 C   0  0  0  0  0  0  0  0  0  0  0  0
    8.2910  -11.5525   26.4204 C   0  0  0  0  0  0  0  0  0  0  0  0
    8.5784  -12.8591   26.1145 C   0  0  0  0  0  0  0  0  0  0  0  0
    7.5926  -13.8177   25.9657 C   0  0  0  0  0  0  0  0  0  0  0  0
   10.6540  -16.5491   23.7346 C   0  0  0  0  0  0  0  0  0  0  0  0
   10.5844  -17.8151   23.5252 O   0  0  0  0  0  0  0  0  0  0  0  0
   14.6041  -15.0257   23.3714 O   0  0  0  0  0  0  0  0  0  0  0  0
   14.1912  -16.1789   22.6716 C   0  0  0  0  0  0  0  0  0  0  0  0
   13.0908  -16.8833   23.4666 C   0  0  2  0  0  0  0  0  0  0  0  0
   11.9595  -16.0187   23.6464 N   0  0  0  0  0  0  0  0  0  0  0  0
   13.6650  -17.3743   24.7474 C   0  0  0  0  0  0  0  0  0  0  0  0
   13.1101  -16.9650   25.8064 O   0  0  0  0  0  0  0  0  0  0  0  0
   14.7277  -18.2192   24.8731 O   0  0  0  0  0  0  0  0  0  0  0  0
  2  1  1  6
  2  3  1  0
  4  2  1  0
  4  5  2  0
  6  4  1  0
  7  6  1  0
  7  8  1  1
  9  8  1  0
  9 17  1  0
 10 11  1  0
 10  9  2  0
 11 12  1  0
 12 13  1  0
 12 17  2  0
 13 14  2  0
 14 15  1  0
 16 15  2  0
 17 16  1  0
 18  7  1  0
 18 23  1  0
 19 18  2  0
 21 20  1  0
 22 21  1  1
 22 23  1  0
 22 24  1  0
 24 25  2  0
 24 26  1  0
M  END
$$$$
