AWS.pdb
     RDKit          3D

 26 27  0  0  1  0  0  0  0  0999 V2000
    7.9492  -19.7161   21.4015 C   0  0  0  0  0  0  0  0  0  0  0  0
    7.1731  -18.4994   21.7855 C   0  0  2  0  0  0  0  0  0  0  0  0
    6.5286  -17.9052   20.6362 N   0  0  0  0  0  0  0  0  0  0  0  0
    8.1433  -17.4731   22.3236 C   0  0  0  0  0  0  0  0  0  0  0  0
    8.6589  -16.6595   21.5258 O   0  0  0  0  0  0  0  0  0  0  0  0
    8.4702  -17.4194   23.6861 N   0  0  0  0  0  0  0  0  0  0  0  0
    9.4649  -16.4838   24.1685 C   0  0  1  0  0  0  0  0  0  0  0  0
    9.1131  -16.1642   25.5799 C   0  0  0  0  0  0  0  0  0  0  0  0
    7.8701  -15.3813   25.7456 C   0  0  0  0  0  0  0  0  0  0  0  0
    6.5520  -15.8429   25.8072 C   0  0  0  0  0  0  0  0  0  0  0  0
    5.7110  -14.8281   25.9418 N   0  0  0  0  0  0  0  0  0  0  0  0
    6.4202  -13.6794   25.9744 C   0  0  0  0  0  0  0  0  0  0  0  0
    6.0492  -12.3537   26.0977 C   0  0  0  0  0  0  0  0  0  0  0  0
    6.9988  -11.3475   26.1025 C   0  0  0  0  0  0  0  0  0  0  0  0
    8.3402  -11.6548   25.9831 C   0  0  0  0  0  0  0  0  0  0  0  0
    8.6915  -12.9759   25.8614 C   0  0  0  0  0  0  0  0  0  0  0  0
    7.7540  -13.9927   25.8551 C   0  0  0  0  0  0  0  0  0  0  0  0
   10.8026  -17.0293   23.9339 C   0  0  0  0  0  0  0  0  0  0  0  0
   11.0765  -18.2128   24.3529 O   0  0  0  0  0  0  0  0  0  0  0  0
   14.0133  -15.0761   22.0618 O   0  0  0  0  0  0  0  0  0  0  0  0
   13.9252  -16.4802   21.9566 C   0  0  0  0  0  0  0  0  0  0  0  0
   13.1516  -17.0274   23.1570 C   0  0  2  0  0  0  0  0  0  0  0  0
   11.8726  -16.3871   23.2735 N   0  0  0  0  0  0  0  0  0  0  0  0
   13.9934  -16.8849   24.3746 C   0  0  0  0  0  0  0  0  0  0  0  0
   15.1574  -17.3731   24.3143 O   0  0  0  0  0  0  0  0  0  0  0  0
   13.6186  -16.2785   25.5369 O   0  0  0  0  0  0  0  0  0  0  0  0
  2  1  1  6
  2  3  1  0
  4  2  1  0
  4  5  2  0
  6  4  1  0
  7  6  1  0
  7  8  1  1
  9  8  1  0
  9 17  1  0
 10 11  1  0
 10  9  2  0
 11 12  1  0
 12 13  1  0
 12 17  2  0
 13 14  2  0
 14 15  1  0
 16 15  2  0
 17 16  1  0
 18  7  1  0
 18 23  1  0
 19 18  2  0
 21 20  1  0
 22 21  1  6
 22 23  1  0
 22 24  1  0
 24 25  2  0
 24 26  1  0
M  END
$$$$
