AWS.pdb
     RDKit          3D

 26 27  0  0  1  0  0  0  0  0999 V2000
    6.8429  -19.9630   21.5511 C   0  0  0  0  0  0  0  0  0  0  0  0
    6.2670  -18.8444   22.3555 C   0  0  2  0  0  0  0  0  0  0  0  0
    5.1853  -18.1949   21.6499 N   0  0  0  0  0  0  0  0  0  0  0  0
    7.3460  -17.8054   22.5563 C   0  0  0  0  0  0  0  0  0  0  0  0
    7.6835  -17.0959   21.5831 O   0  0  0  0  0  0  0  0  0  0  0  0
    7.9666  -17.6265   23.8008 N   0  0  0  0  0  0  0  0  0  0  0  0
    8.9535  -16.5833   23.9884 C   0  0  1  0  0  0  0  0  0  0  0  0
    8.8827  -16.1694   25.4174 C   0  0  0  0  0  0  0  0  0  0  0  0
    7.6940  -15.3644   25.7702 C   0  0  0  0  0  0  0  0  0  0  0  0
    6.3886  -15.8002   26.0150 C   0  0  0  0  0  0  0  0  0  0  0  0
    5.5984  -14.7709   26.2821 N   0  0  0  0  0  0  0  0  0  0  0  0
    6.3302  -13.6374   26.2268 C   0  0  0  0  0  0  0  0  0  0  0  0
    6.0103  -12.3065   26.4191 C   0  0  0  0  0  0  0  0  0  0  0  0
    6.9729  -11.3199   26.2999 C   0  0  0  0  0  0  0  0  0  0  0  0
    8.2761  -11.6523   25.9848 C   0  0  0  0  0  0  0  0  0  0  0  0
    8.5768  -12.9781   25.7970 C   0  0  0  0  0  0  0  0  0  0  0  0
    7.6258  -13.9755   25.9128 C   0  0  0  0  0  0  0  0  0  0  0  0
   10.2540  -17.0486   23.5046 C   0  0  0  0  0  0  0  0  0  0  0  0
   10.6369  -18.2410   23.7925 O   0  0  0  0  0  0  0  0  0  0  0  0
   12.7479  -15.0264   20.8721 O   0  0  0  0  0  0  0  0  0  0  0  0
   12.8359  -16.4328   20.9398 C   0  0  0  0  0  0  0  0  0  0  0  0
   12.4317  -16.8957   22.3403 C   0  0  2  0  0  0  0  0  0  0  0  0
   11.1763  -16.3167   22.7254 N   0  0  0  0  0  0  0  0  0  0  0  0
   13.5371  -16.5845   23.2850 C   0  0  0  0  0  0  0  0  0  0  0  0
   14.6951  -16.9513   22.9367 O   0  0  0  0  0  0  0  0  0  0  0  0
   13.4070  -15.9442   24.4817 O   0  0  0  0  0  0  0  0  0  0  0  0
  2  1  1  6
  2  3  1  0
  4  2  1  0
  4  5  2  0
  6  4  1  0
  7  6  1  0
  7  8  1  1
  9  8  1  0
  9 17  1  0
 10 11  1  0
 10  9  2  0
 11 12  1  0
 12 13  1  0
 12 17  2  0
 13 14  2  0
 14 15  1  0
 16 15  2  0
 17 16  1  0
 18  7  1  0
 18 23  1  0
 19 18  2  0
 21 20  1  0
 22 21  1  6
 22 23  1  0
 22 24  1  0
 24 25  2  0
 24 26  1  0
M  END
$$$$
