AWS.pdb
     RDKit          3D

 26 27  0  0  1  0  0  0  0  0999 V2000
   10.4916  -18.4494   19.3082 C   0  0  0  0  0  0  0  0  0  0  0  0
   10.1070  -17.0129   19.1719 C   0  0  2  0  0  0  0  0  0  0  0  0
   11.1015  -16.2729   18.4283 N   0  0  0  0  0  0  0  0  0  0  0  0
   10.0533  -16.4070   20.5554 C   0  0  0  0  0  0  0  0  0  0  0  0
   11.0996  -15.9203   21.0377 O   0  0  0  0  0  0  0  0  0  0  0  0
    8.8637  -16.3822   21.2974 N   0  0  0  0  0  0  0  0  0  0  0  0
    8.8340  -15.7971   22.6218 C   0  0  1  0  0  0  0  0  0  0  0  0
    7.4298  -15.3715   22.8779 C   0  0  0  0  0  0  0  0  0  0  0  0
    7.1438  -14.9923   24.2778 C   0  0  0  0  0  0  0  0  0  0  0  0
    6.6590  -15.7939   25.3155 C   0  0  0  0  0  0  0  0  0  0  0  0
    6.5149  -15.0817   26.4232 N   0  0  0  0  0  0  0  0  0  0  0  0
    6.8896  -13.8089   26.1715 C   0  0  0  0  0  0  0  0  0  0  0  0
    6.9369  -12.6741   26.9592 C   0  0  0  0  0  0  0  0  0  0  0  0
    7.3714  -11.4671   26.4411 C   0  0  0  0  0  0  0  0  0  0  0  0
    7.7666  -11.3776   25.1204 C   0  0  0  0  0  0  0  0  0  0  0  0
    7.7133  -12.5135   24.3522 C   0  0  0  0  0  0  0  0  0  0  0  0
    7.2816  -13.7271   24.8558 C   0  0  0  0  0  0  0  0  0  0  0  0
    9.4207  -16.7326   23.5823 C   0  0  0  0  0  0  0  0  0  0  0  0
    9.0800  -17.9708   23.5355 O   0  0  0  0  0  0  0  0  0  0  0  0
   12.9447  -16.2942   25.5359 O   0  0  0  0  0  0  0  0  0  0  0  0
   12.3673  -17.5710   25.3727 C   0  0  0  0  0  0  0  0  0  0  0  0
   10.8458  -17.4519   25.4725 C   0  0  2  0  0  0  0  0  0  0  0  0
   10.3564  -16.4276   24.5946 N   0  0  0  0  0  0  0  0  0  0  0  0
   10.4751  -17.2328   26.8959 C   0  0  0  0  0  0  0  0  0  0  0  0
    9.7768  -16.2094   27.1444 O   0  0  0  0  0  0  0  0  0  0  0  0
   10.8217  -18.0345   27.9428 O   0  0  0  0  0  0  0  0  0  0  0  0
  2  1  1  1
  2  3  1  0
  4  2  1  0
  4  5  2  0
  6  4  1  0
  7  6  1  0
  7  8  1  1
  9  8  1  0
  9 17  1  0
 10 11  1  0
 10  9  2  0
 11 12  1  0
 12 13  1  0
 12 17  2  0
 13 14  2  0
 14 15  1  0
 16 15  2  0
 17 16  1  0
 18  7  1  0
 18 23  1  0
 19 18  2  0
 21 20  1  0
 22 21  1  1
 22 23  1  0
 22 24  1  0
 24 25  2  0
 24 26  1  0
M  END
$$$$
