AWS.pdb
     RDKit          3D

 26 27  0  0  1  0  0  0  0  0999 V2000
    8.1689  -18.7487   20.8148 C   0  0  0  0  0  0  0  0  0  0  0  0
    7.5924  -17.4267   21.2021 C   0  0  2  0  0  0  0  0  0  0  0  0
    7.3116  -16.6167   20.0383 N   0  0  0  0  0  0  0  0  0  0  0  0
    8.6266  -16.6827   22.0151 C   0  0  0  0  0  0  0  0  0  0  0  0
    9.3572  -15.8484   21.4366 O   0  0  0  0  0  0  0  0  0  0  0  0
    8.7779  -16.9099   23.3905 N   0  0  0  0  0  0  0  0  0  0  0  0
    9.7667  -16.1769   24.1536 C   0  0  1  0  0  0  0  0  0  0  0  0
    9.2606  -16.0904   25.5517 C   0  0  0  0  0  0  0  0  0  0  0  0
    7.9719  -15.3814   25.7004 C   0  0  0  0  0  0  0  0  0  0  0  0
    6.6785  -15.9107   25.6723 C   0  0  0  0  0  0  0  0  0  0  0  0
    5.7802  -14.9487   25.8224 N   0  0  0  0  0  0  0  0  0  0  0  0
    6.4259  -13.7699   25.9533 C   0  0  0  0  0  0  0  0  0  0  0  0
    5.9806  -12.4737   26.1322 C   0  0  0  0  0  0  0  0  0  0  0  0
    6.8749  -11.4235   26.2392 C   0  0  0  0  0  0  0  0  0  0  0  0
    8.2347  -11.6562   26.1678 C   0  0  0  0  0  0  0  0  0  0  0  0
    8.6599  -12.9488   25.9898 C   0  0  0  0  0  0  0  0  0  0  0  0
    7.7784  -14.0089   25.8814 C   0  0  0  0  0  0  0  0  0  0  0  0
   11.0811  -16.7935   23.9695 C   0  0  0  0  0  0  0  0  0  0  0  0
   11.1907  -18.0703   24.0656 O   0  0  0  0  0  0  0  0  0  0  0  0
   14.3624  -15.1908   22.0264 O   0  0  0  0  0  0  0  0  0  0  0  0
   14.1365  -16.5780   22.1494 C   0  0  0  0  0  0  0  0  0  0  0  0
   13.5121  -16.8672   23.5151 C   0  0  2  0  0  0  0  0  0  0  0  0
   12.2935  -16.1284   23.6849 N   0  0  0  0  0  0  0  0  0  0  0  0
   14.5208  -16.5881   24.5716 C   0  0  0  0  0  0  0  0  0  0  0  0
   14.1840  -15.7629   25.4673 O   0  0  0  0  0  0  0  0  0  0  0  0
   15.7642  -17.1417   24.6533 O   0  0  0  0  0  0  0  0  0  0  0  0
  2  1  1  6
  2  3  1  0
  4  2  1  0
  4  5  2  0
  6  4  1  0
  7  6  1  0
  7  8  1  1
  9  8  1  0
  9 17  1  0
 10 11  1  0
 10  9  2  0
 11 12  1  0
 12 13  1  0
 12 17  2  0
 13 14  2  0
 14 15  1  0
 16 15  2  0
 17 16  1  0
 18  7  1  0
 18 23  1  0
 19 18  2  0
 21 20  1  0
 22 21  1  6
 22 23  1  0
 22 24  1  0
 24 25  2  0
 24 26  1  0
M  END
$$$$
