PIQ.pdb
     RDKit          3D

 25 25  0  0  1  0  0  0  0  0999 V2000
   27.1766  -19.2646  -15.0041 N   0  0  0  0  0  0  0  0  0  0  0  0
   28.3644  -19.0776  -15.8584 C   0  0  0  0  0  0  0  0  0  0  0  0
   29.3273  -20.0606  -15.2219 C   0  0  0  0  0  0  0  0  0  0  0  0
   28.4578  -21.2144  -14.7657 C   0  0  0  0  0  0  0  0  0  0  0  0
   27.0716  -20.7272  -15.0778 C   0  0  1  0  0  0  0  0  0  0  0  0
   26.1296  -21.1775  -14.0506 C   0  0  0  0  0  0  0  0  0  0  0  0
   25.7866  -22.4111  -14.0533 O   0  0  0  0  0  0  0  0  0  0  0  0
   26.6733  -20.8182   -8.7842 C   0  0  0  0  0  0  0  0  0  0  0  0
   26.2423  -21.2541  -10.1440 C   0  0  0  0  0  0  0  0  0  0  0  0
   24.9980  -20.6625  -10.6776 C   0  0  2  0  0  0  0  0  0  0  0  0
   23.8413  -21.2595   -9.8501 C   0  0  0  0  0  0  0  0  0  0  0  0
   24.6473  -20.8700  -12.0944 C   0  0  2  0  0  0  0  0  0  0  0  0
   25.5720  -20.3222  -13.0477 N   0  0  0  0  0  0  0  0  0  0  0  0
   23.2908  -20.3620  -12.4587 C   0  0  0  0  0  0  0  0  0  0  0  0
   23.0116  -19.1361  -12.4683 O   0  0  0  0  0  0  0  0  0  0  0  0
   20.0932  -22.6741  -17.2140 N   0  0  0  0  0  0  0  0  0  0  0  0
   19.1435  -21.7575  -16.6179 C   0  0  0  0  0  0  0  0  0  0  0  0
   18.1088  -21.5716  -17.2624 O   0  0  0  0  0  0  0  0  0  0  0  0
   19.4470  -21.1370  -15.3598 C   0  0  0  0  0  0  0  0  0  0  0  0
   20.6619  -21.4494  -14.6066 C   0  0  0  0  0  0  0  0  0  0  0  0
   20.9295  -20.7513  -13.3182 C   0  0  2  0  0  0  0  0  0  0  0  0
   22.2451  -21.2467  -12.8139 N   0  0  0  0  0  0  0  0  0  0  0  0
   19.9191  -20.9439  -12.2606 C   0  0  0  0  0  0  0  0  0  0  0  0
   18.8561  -20.0951  -12.0366 O   0  0  0  0  0  0  0  0  0  0  0  0
   20.0436  -21.9587  -11.5133 O   0  0  0  0  0  0  0  0  0  0  0  0
  1  5  1  0
  2  1  1  0
  2  3  1  0
  3  4  1  0
  4  5  1  0
  5  6  1  1
  6  7  2  0
  9 10  1  0
  9  8  1  0
 10 12  1  0
 10 11  1  1
 12 13  1  6
 12 14  1  0
 13  6  1  0
 14 15  2  0
 14 22  1  0
 16 17  1  0
 17 19  1  0
 18 17  2  0
 19 20  1  0
 21 20  1  6
 21 23  1  0
 22 21  1  0
 23 25  2  0
 23 24  1  0
M  END
$$$$
