PIQ.pdb
     RDKit          3D

 25 25  0  0  1  0  0  0  0  0999 V2000
   27.8197  -19.4810  -14.8121 N   0  0  0  0  0  0  0  0  0  0  0  0
   29.0149  -19.4761  -15.6766 C   0  0  0  0  0  0  0  0  0  0  0  0
   29.6473  -20.7990  -15.2910 C   0  0  0  0  0  0  0  0  0  0  0  0
   28.4777  -21.7226  -15.0179 C   0  0  0  0  0  0  0  0  0  0  0  0
   27.2945  -20.8078  -15.1577 C   0  0  1  0  0  0  0  0  0  0  0  0
   26.2572  -21.1640  -14.1870 C   0  0  0  0  0  0  0  0  0  0  0  0
   25.5368  -22.1936  -14.4324 O   0  0  0  0  0  0  0  0  0  0  0  0
   26.9503  -20.6687   -8.8013 C   0  0  0  0  0  0  0  0  0  0  0  0
   26.3996  -21.3115  -10.0294 C   0  0  0  0  0  0  0  0  0  0  0  0
   25.2285  -20.6672  -10.6591 C   0  0  2  0  0  0  0  0  0  0  0  0
   23.9867  -21.1901   -9.9085 C   0  0  0  0  0  0  0  0  0  0  0  0
   24.9690  -20.8815  -12.0944 C   0  0  2  0  0  0  0  0  0  0  0  0
   26.0026  -20.4308  -12.9846 N   0  0  0  0  0  0  0  0  0  0  0  0
   23.6878  -20.2788  -12.5703 C   0  0  0  0  0  0  0  0  0  0  0  0
   23.5113  -19.0355  -12.6322 O   0  0  0  0  0  0  0  0  0  0  0  0
   20.5106  -22.1678  -17.5084 N   0  0  0  0  0  0  0  0  0  0  0  0
   19.5405  -21.3237  -16.8424 C   0  0  0  0  0  0  0  0  0  0  0  0
   18.4978  -21.1177  -17.4677 O   0  0  0  0  0  0  0  0  0  0  0  0
   19.8343  -20.7908  -15.5424 C   0  0  0  0  0  0  0  0  0  0  0  0
   21.0611  -21.1259  -14.8189 C   0  0  0  0  0  0  0  0  0  0  0  0
   21.3291  -20.4996  -13.4942 C   0  0  2  0  0  0  0  0  0  0  0  0
   22.6011  -21.0881  -12.9782 N   0  0  0  0  0  0  0  0  0  0  0  0
   20.2800  -20.6814  -12.4730 C   0  0  0  0  0  0  0  0  0  0  0  0
   19.2319  -19.8090  -12.2708 O   0  0  0  0  0  0  0  0  0  0  0  0
   20.3544  -21.7096  -11.7375 O   0  0  0  0  0  0  0  0  0  0  0  0
  1  5  1  0
  2  1  1  0
  2  3  1  0
  3  4  1  0
  4  5  1  0
  5  6  1  1
  6  7  2  0
  9 10  1  0
  9  8  1  0
 10 12  1  0
 10 11  1  1
 12 13  1  6
 12 14  1  0
 13  6  1  0
 14 15  2  0
 14 22  1  0
 16 17  1  0
 17 19  1  0
 18 17  2  0
 19 20  1  0
 21 20  1  6
 21 23  1  0
 22 21  1  0
 23 25  2  0
 23 24  1  0
M  END
$$$$
