PIQ.pdb
     RDKit          3D

 25 25  0  0  1  0  0  0  0  0999 V2000
   23.0132  -13.4293  -19.9842 N   0  0  0  0  0  0  0  0  0  0  0  0
   22.5685  -14.5584  -20.8227 C   0  0  0  0  0  0  0  0  0  0  0  0
   22.4973  -15.6659  -19.7897 C   0  0  0  0  0  0  0  0  0  0  0  0
   22.0423  -14.9805  -18.5175 C   0  0  0  0  0  0  0  0  0  0  0  0
   22.0124  -13.5322  -18.9149 C   0  0  1  0  0  0  0  0  0  0  0  0
   22.4390  -12.6879  -17.7967 C   0  0  0  0  0  0  0  0  0  0  0  0
   21.7147  -12.6828  -16.7409 O   0  0  0  0  0  0  0  0  0  0  0  0
   27.6439  -11.8150  -15.8962 C   0  0  0  0  0  0  0  0  0  0  0  0
   26.1849  -12.0489  -16.0998 C   0  0  0  0  0  0  0  0  0  0  0  0
   25.3466  -10.8658  -16.3834 C   0  0  2  0  0  0  0  0  0  0  0  0
   25.4252   -9.9656  -15.1334 C   0  0  0  0  0  0  0  0  0  0  0  0
   23.9133  -11.0476  -16.6766 C   0  0  2  0  0  0  0  0  0  0  0  0
   23.6138  -11.8707  -17.8153 N   0  0  0  0  0  0  0  0  0  0  0  0
   23.1688   -9.7651  -16.8556 C   0  0  0  0  0  0  0  0  0  0  0  0
   23.3678   -9.0027  -17.8353 O   0  0  0  0  0  0  0  0  0  0  0  0
   16.8438   -6.3343  -16.9456 N   0  0  0  0  0  0  0  0  0  0  0  0
   17.7846   -7.4352  -16.9519 C   0  0  0  0  0  0  0  0  0  0  0  0
   17.4533   -8.4128  -17.6266 O   0  0  0  0  0  0  0  0  0  0  0  0
   19.0028   -7.3344  -16.1997 C   0  0  0  0  0  0  0  0  0  0  0  0
   20.0005   -8.4045  -16.1801 C   0  0  0  0  0  0  0  0  0  0  0  0
   21.4468   -8.0611  -16.0830 C   0  0  2  0  0  0  0  0  0  0  0  0
   22.1940   -9.3439  -15.9203 N   0  0  0  0  0  0  0  0  0  0  0  0
   21.8203   -7.1574  -14.9783 C   0  0  0  0  0  0  0  0  0  0  0  0
   21.7319   -5.7827  -15.0342 O   0  0  0  0  0  0  0  0  0  0  0  0
   22.2498   -7.6874  -13.9114 O   0  0  0  0  0  0  0  0  0  0  0  0
  1  5  1  0
  2  1  1  0
  2  3  1  0
  3  4  1  0
  4  5  1  0
  5  6  1  1
  6  7  2  0
  9 10  1  0
  9  8  1  0
 10 12  1  0
 10 11  1  1
 12 13  1  6
 12 14  1  0
 13  6  1  0
 14 15  2  0
 14 22  1  0
 16 17  1  0
 17 19  1  0
 18 17  2  0
 19 20  1  0
 21 20  1  1
 21 23  1  0
 22 21  1  0
 23 25  2  0
 23 24  1  0
M  END
$$$$
