PIQ.pdb
     RDKit          3D

 25 25  0  0  1  0  0  0  0  0999 V2000
   28.1216  -21.5188  -15.8376 N   0  0  0  0  0  0  0  0  0  0  0  0
   28.8660  -20.7619  -16.8617 C   0  0  0  0  0  0  0  0  0  0  0  0
   27.8184  -19.7493  -17.2810 C   0  0  0  0  0  0  0  0  0  0  0  0
   27.0480  -19.4412  -16.0133 C   0  0  0  0  0  0  0  0  0  0  0  0
   27.6510  -20.3935  -15.0204 C   0  0  1  0  0  0  0  0  0  0  0  0
   26.6250  -20.8861  -14.0986 C   0  0  0  0  0  0  0  0  0  0  0  0
   26.0375  -21.9858  -14.3899 O   0  0  0  0  0  0  0  0  0  0  0  0
   26.6391  -20.4460   -8.5208 C   0  0  0  0  0  0  0  0  0  0  0  0
   26.4128  -21.0133   -9.8815 C   0  0  0  0  0  0  0  0  0  0  0  0
   25.2680  -20.4826  -10.6502 C   0  0  2  0  0  0  0  0  0  0  0  0
   23.9985  -21.0844  -10.0137 C   0  0  0  0  0  0  0  0  0  0  0  0
   25.1785  -20.7549  -12.0964 C   0  0  2  0  0  0  0  0  0  0  0  0
   26.2417  -20.2121  -12.8956 N   0  0  0  0  0  0  0  0  0  0  0  0
   23.8942  -20.3075  -12.7141 C   0  0  0  0  0  0  0  0  0  0  0  0
   23.5890  -19.0930  -12.8268 O   0  0  0  0  0  0  0  0  0  0  0  0
   17.8060  -21.0423  -15.4385 N   0  0  0  0  0  0  0  0  0  0  0  0
   18.8645  -22.0194  -15.2902 C   0  0  0  0  0  0  0  0  0  0  0  0
   18.5355  -23.0818  -14.7575 O   0  0  0  0  0  0  0  0  0  0  0  0
   20.1883  -21.7099  -15.7505 C   0  0  0  0  0  0  0  0  0  0  0  0
   21.3683  -21.8653  -14.8996 C   0  0  0  0  0  0  0  0  0  0  0  0
   21.7046  -20.8070  -13.9066 C   0  0  2  0  0  0  0  0  0  0  0  0
   22.9508  -21.2401  -13.2065 N   0  0  0  0  0  0  0  0  0  0  0  0
   20.6709  -20.5249  -12.8926 C   0  0  0  0  0  0  0  0  0  0  0  0
   19.6813  -19.5755  -13.0339 O   0  0  0  0  0  0  0  0  0  0  0  0
   20.7015  -21.2043  -11.8243 O   0  0  0  0  0  0  0  0  0  0  0  0
  1  5  1  0
  2  1  1  0
  2  3  1  0
  3  4  1  0
  4  5  1  0
  5  6  1  1
  6  7  2  0
  9 10  1  0
  9  8  1  0
 10 12  1  0
 10 11  1  1
 12 13  1  6
 12 14  1  0
 13  6  1  0
 14 15  2  0
 14 22  1  0
 16 17  1  0
 17 19  1  0
 18 17  2  0
 19 20  1  0
 21 20  1  6
 21 23  1  0
 22 21  1  0
 23 25  2  0
 23 24  1  0
M  END
$$$$
