PIQ.pdb
     RDKit          3D

 25 25  0  0  1  0  0  0  0  0999 V2000
   27.0461  -18.6772  -14.7184 N   0  0  0  0  0  0  0  0  0  0  0  0
   28.1905  -18.2759  -15.5581 C   0  0  0  0  0  0  0  0  0  0  0  0
   29.2566  -19.2302  -15.0568 C   0  0  0  0  0  0  0  0  0  0  0  0
   28.5108  -20.5087  -14.7329 C   0  0  0  0  0  0  0  0  0  0  0  0
   27.0778  -20.1238  -14.9670 C   0  0  1  0  0  0  0  0  0  0  0  0
   26.2071  -20.7821  -13.9905 C   0  0  0  0  0  0  0  0  0  0  0  0
   26.0040  -22.0394  -14.1222 O   0  0  0  0  0  0  0  0  0  0  0  0
   26.7507  -20.6170   -8.7467 C   0  0  0  0  0  0  0  0  0  0  0  0
   26.2923  -21.1891  -10.0456 C   0  0  0  0  0  0  0  0  0  0  0  0
   25.0052  -20.6987  -10.5804 C   0  0  2  0  0  0  0  0  0  0  0  0
   23.8993  -21.4701   -9.8314 C   0  0  0  0  0  0  0  0  0  0  0  0
   24.7155  -20.8460  -12.0183 C   0  0  2  0  0  0  0  0  0  0  0  0
   25.5719  -20.1044  -12.9016 N   0  0  0  0  0  0  0  0  0  0  0  0
   23.3081  -20.5066  -12.3860 C   0  0  0  0  0  0  0  0  0  0  0  0
   22.8339  -19.3516  -12.2378 O   0  0  0  0  0  0  0  0  0  0  0  0
   20.3508  -19.9689  -16.7613 N   0  0  0  0  0  0  0  0  0  0  0  0
   19.2559  -20.7983  -16.3028 C   0  0  0  0  0  0  0  0  0  0  0  0
   18.1686  -20.5904  -16.8463 O   0  0  0  0  0  0  0  0  0  0  0  0
   19.4853  -21.7774  -15.2787 C   0  0  0  0  0  0  0  0  0  0  0  0
   20.7766  -21.9167  -14.6052 C   0  0  0  0  0  0  0  0  0  0  0  0
   21.0476  -21.1384  -13.3643 C   0  0  2  0  0  0  0  0  0  0  0  0
   22.4333  -21.4800  -12.9241 N   0  0  0  0  0  0  0  0  0  0  0  0
   20.1249  -21.3806  -12.2390 C   0  0  0  0  0  0  0  0  0  0  0  0
   19.0373  -20.5878  -11.9405 O   0  0  0  0  0  0  0  0  0  0  0  0
   20.3540  -22.3855  -11.5032 O   0  0  0  0  0  0  0  0  0  0  0  0
  1  5  1  0
  2  1  1  0
  2  3  1  0
  3  4  1  0
  4  5  1  0
  5  6  1  1
  6  7  2  0
  9 10  1  0
  9  8  1  0
 10 12  1  0
 10 11  1  1
 12 13  1  6
 12 14  1  0
 13  6  1  0
 14 15  2  0
 14 22  1  0
 16 17  1  0
 17 19  1  0
 18 17  2  0
 19 20  1  0
 21 20  1  6
 21 23  1  0
 22 21  1  0
 23 25  2  0
 23 24  1  0
M  END
$$$$
