PIQ.pdb
     RDKit          3D

 25 25  0  0  1  0  0  0  0  0999 V2000
   22.6126  -11.8466  -17.8676 N   0  0  0  0  0  0  0  0  0  0  0  0
   23.0284  -12.8250  -18.8903 C   0  0  0  0  0  0  0  0  0  0  0  0
   21.7079  -13.0795  -19.5904 C   0  0  0  0  0  0  0  0  0  0  0  0
   20.9878  -11.7469  -19.5559 C   0  0  0  0  0  0  0  0  0  0  0  0
   21.9129  -10.8925  -18.7369 C   0  0  1  0  0  0  0  0  0  0  0  0
   21.1452   -9.9730  -17.8941 C   0  0  0  0  0  0  0  0  0  0  0  0
   20.5016   -9.0286  -18.4715 O   0  0  0  0  0  0  0  0  0  0  0  0
   17.3742  -11.3837  -14.3525 C   0  0  0  0  0  0  0  0  0  0  0  0
   18.1857  -10.6189  -15.3431 C   0  0  0  0  0  0  0  0  0  0  0  0
   19.2748   -9.7735  -14.8118 C   0  0  2  0  0  0  0  0  0  0  0  0
   18.5969   -8.6160  -14.0504 C   0  0  0  0  0  0  0  0  0  0  0  0
   20.2318   -9.1537  -15.7464 C   0  0  2  0  0  0  0  0  0  0  0  0
   21.0730  -10.0678  -16.4679 N   0  0  0  0  0  0  0  0  0  0  0  0
   21.1288   -8.1448  -15.1072 C   0  0  0  0  0  0  0  0  0  0  0  0
   22.0793   -8.4721  -14.3522 O   0  0  0  0  0  0  0  0  0  0  0  0
   21.3617   -1.9435  -16.9459 N   0  0  0  0  0  0  0  0  0  0  0  0
   22.2083   -2.0161  -15.7733 C   0  0  0  0  0  0  0  0  0  0  0  0
   22.7050   -0.9473  -15.4101 O   0  0  0  0  0  0  0  0  0  0  0  0
   22.4181   -3.2788  -15.1240 C   0  0  0  0  0  0  0  0  0  0  0  0
   21.7268   -4.4982  -15.5435 C   0  0  0  0  0  0  0  0  0  0  0  0
   21.8693   -5.7409  -14.7346 C   0  0  2  0  0  0  0  0  0  0  0  0
   20.9484   -6.7581  -15.3242 N   0  0  0  0  0  0  0  0  0  0  0  0
   21.5654   -5.6105  -13.2968 C   0  0  0  0  0  0  0  0  0  0  0  0
   20.3061   -5.7464  -12.7525 O   0  0  0  0  0  0  0  0  0  0  0  0
   22.5309   -5.3569  -12.5176 O   0  0  0  0  0  0  0  0  0  0  0  0
  1  5  1  0
  2  1  1  0
  2  3  1  0
  3  4  1  0
  4  5  1  0
  5  6  1  1
  6  7  2  0
  9 10  1  0
  9  8  1  0
 10 12  1  0
 10 11  1  6
 12 13  1  1
 12 14  1  0
 13  6  1  0
 14 15  2  0
 14 22  1  0
 16 17  1  0
 17 19  1  0
 18 17  2  0
 19 20  1  0
 21 20  1  6
 21 23  1  0
 22 21  1  0
 23 25  2  0
 23 24  1  0
M  END
$$$$
