PIQ.pdb
     RDKit          3D

 25 25  0  0  1  0  0  0  0  0999 V2000
   27.5110  -19.3986  -15.1756 N   0  0  0  0  0  0  0  0  0  0  0  0
   28.7080  -19.3649  -16.0370 C   0  0  0  0  0  0  0  0  0  0  0  0
   29.4728  -20.5607  -15.5041 C   0  0  0  0  0  0  0  0  0  0  0  0
   28.4047  -21.5664  -15.1255 C   0  0  0  0  0  0  0  0  0  0  0  0
   27.1329  -20.8044  -15.3668 C   0  0  1  0  0  0  0  0  0  0  0  0
   26.1290  -21.1563  -14.3600 C   0  0  0  0  0  0  0  0  0  0  0  0
   25.5569  -22.2975  -14.4593 O   0  0  0  0  0  0  0  0  0  0  0  0
   26.9348  -20.5310   -9.0765 C   0  0  0  0  0  0  0  0  0  0  0  0
   26.3931  -21.1296  -10.3306 C   0  0  0  0  0  0  0  0  0  0  0  0
   25.1698  -20.5212  -10.8932 C   0  0  2  0  0  0  0  0  0  0  0  0
   23.9932  -21.0398  -10.0412 C   0  0  0  0  0  0  0  0  0  0  0  0
   24.8126  -20.7817  -12.2996 C   0  0  2  0  0  0  0  0  0  0  0  0
   25.7511  -20.3019  -13.2757 N   0  0  0  0  0  0  0  0  0  0  0  0
   23.4700  -20.2538  -12.6867 C   0  0  0  0  0  0  0  0  0  0  0  0
   23.2061  -19.0245  -12.6909 O   0  0  0  0  0  0  0  0  0  0  0  0
   19.9966  -22.9044  -17.1962 N   0  0  0  0  0  0  0  0  0  0  0  0
   19.0776  -21.9548  -16.6038 C   0  0  0  0  0  0  0  0  0  0  0  0
   17.9833  -21.8551  -17.1635 O   0  0  0  0  0  0  0  0  0  0  0  0
   19.4752  -21.2081  -15.4444 C   0  0  0  0  0  0  0  0  0  0  0  0
   20.7497  -21.4397  -14.7642 C   0  0  0  0  0  0  0  0  0  0  0  0
   21.1177  -20.6059  -13.5859 C   0  0  2  0  0  0  0  0  0  0  0  0
   22.4210  -21.1223  -13.0709 N   0  0  0  0  0  0  0  0  0  0  0  0
   20.1456  -20.5963  -12.4763 C   0  0  0  0  0  0  0  0  0  0  0  0
   19.1429  -19.6617  -12.3287 O   0  0  0  0  0  0  0  0  0  0  0  0
   20.2455  -21.5106  -11.6057 O   0  0  0  0  0  0  0  0  0  0  0  0
  1  5  1  0
  2  1  1  0
  2  3  1  0
  3  4  1  0
  4  5  1  0
  5  6  1  1
  6  7  2  0
  9 10  1  0
  9  8  1  0
 10 12  1  0
 10 11  1  1
 12 13  1  6
 12 14  1  0
 13  6  1  0
 14 15  2  0
 14 22  1  0
 16 17  1  0
 17 19  1  0
 18 17  2  0
 19 20  1  0
 21 20  1  6
 21 23  1  0
 22 21  1  0
 23 25  2  0
 23 24  1  0
M  END
$$$$
