PIQ.pdb
     RDKit          3D

 25 25  0  0  1  0  0  0  0  0999 V2000
   22.5586  -20.5397  -15.5869 N   0  0  0  0  0  0  0  0  0  0  0  0
   22.1490  -21.6753  -16.4346 C   0  0  0  0  0  0  0  0  0  0  0  0
   21.0735  -21.0223  -17.2804 C   0  0  0  0  0  0  0  0  0  0  0  0
   21.5520  -19.5994  -17.4849 C   0  0  0  0  0  0  0  0  0  0  0  0
   22.7922  -19.5430  -16.6393 C   0  0  1  0  0  0  0  0  0  0  0  0
   22.9216  -18.2261  -16.0114 C   0  0  0  0  0  0  0  0  0  0  0  0
   22.2079  -17.9845  -14.9762 O   0  0  0  0  0  0  0  0  0  0  0  0
   27.5102  -15.9678  -15.6478 C   0  0  0  0  0  0  0  0  0  0  0  0
   26.1730  -15.9316  -14.9882 C   0  0  0  0  0  0  0  0  0  0  0  0
   25.0832  -15.2458  -15.7128 C   0  0  2  0  0  0  0  0  0  0  0  0
   24.8256  -13.9228  -14.9629 C   0  0  0  0  0  0  0  0  0  0  0  0
   23.7740  -15.9099  -15.8485 C   0  0  2  0  0  0  0  0  0  0  0  0
   23.7958  -17.1971  -16.4859 N   0  0  0  0  0  0  0  0  0  0  0  0
   22.7528  -15.0855  -16.5616 C   0  0  0  0  0  0  0  0  0  0  0  0
   22.8657  -14.7762  -17.7750 O   0  0  0  0  0  0  0  0  0  0  0  0
   16.0316  -14.6980  -16.8454 N   0  0  0  0  0  0  0  0  0  0  0  0
   17.2580  -14.0433  -17.2511 C   0  0  0  0  0  0  0  0  0  0  0  0
   17.5383  -14.1360  -18.4484 O   0  0  0  0  0  0  0  0  0  0  0  0
   18.0516  -13.3513  -16.2757 C   0  0  0  0  0  0  0  0  0  0  0  0
   19.3103  -13.8940  -15.7641 C   0  0  0  0  0  0  0  0  0  0  0  0
   20.5320  -13.8480  -16.6152 C   0  0  2  0  0  0  0  0  0  0  0  0
   21.5978  -14.6090  -15.8972 N   0  0  0  0  0  0  0  0  0  0  0  0
   21.0471  -12.5015  -16.9283 C   0  0  0  0  0  0  0  0  0  0  0  0
   21.7206  -11.6986  -16.0326 O   0  0  0  0  0  0  0  0  0  0  0  0
   20.8537  -12.0613  -18.0999 O   0  0  0  0  0  0  0  0  0  0  0  0
  1  5  1  0
  2  1  1  0
  2  3  1  0
  3  4  1  0
  4  5  1  0
  5  6  1  1
  6  7  2  0
  9 10  1  0
  9  8  1  0
 10 12  1  0
 10 11  1  1
 12 13  1  6
 12 14  1  0
 13  6  1  0
 14 15  2  0
 14 22  1  0
 16 17  1  0
 17 19  1  0
 18 17  2  0
 19 20  1  0
 21 20  1  1
 21 23  1  0
 22 21  1  0
 23 25  2  0
 23 24  1  0
M  END
$$$$
