PIQ.pdb
     RDKit          3D

 25 25  0  0  1  0  0  0  0  0999 V2000
   27.7130  -19.0652  -14.8277 N   0  0  0  0  0  0  0  0  0  0  0  0
   28.8806  -18.8707  -15.7079 C   0  0  0  0  0  0  0  0  0  0  0  0
   29.8168  -19.9373  -15.1746 C   0  0  0  0  0  0  0  0  0  0  0  0
   28.9099  -21.0812  -14.7690 C   0  0  0  0  0  0  0  0  0  0  0  0
   27.5384  -20.5130  -14.9983 C   0  0  1  0  0  0  0  0  0  0  0  0
   26.6097  -20.9929  -13.9724 C   0  0  0  0  0  0  0  0  0  0  0  0
   26.2615  -22.2244  -14.0100 O   0  0  0  0  0  0  0  0  0  0  0  0
   27.0562  -20.1517   -8.6738 C   0  0  0  0  0  0  0  0  0  0  0  0
   26.6333  -20.8660   -9.9130 C   0  0  0  0  0  0  0  0  0  0  0  0
   25.4005  -20.3924  -10.5756 C   0  0  2  0  0  0  0  0  0  0  0  0
   24.2209  -20.9756   -9.7709 C   0  0  0  0  0  0  0  0  0  0  0  0
   25.1564  -20.7431  -11.9865 C   0  0  2  0  0  0  0  0  0  0  0  0
   26.0703  -20.1684  -12.9344 N   0  0  0  0  0  0  0  0  0  0  0  0
   23.7764  -20.4183  -12.4568 C   0  0  0  0  0  0  0  0  0  0  0  0
   23.3759  -19.2353  -12.6015 O   0  0  0  0  0  0  0  0  0  0  0  0
   18.7791  -23.7778  -12.9551 N   0  0  0  0  0  0  0  0  0  0  0  0
   18.5924  -22.9591  -14.1349 C   0  0  0  0  0  0  0  0  0  0  0  0
   17.4379  -22.9025  -14.5645 O   0  0  0  0  0  0  0  0  0  0  0  0
   19.7174  -22.2862  -14.7194 C   0  0  0  0  0  0  0  0  0  0  0  0
   21.0422  -22.2936  -14.0984 C   0  0  0  0  0  0  0  0  0  0  0  0
   21.4770  -21.1291  -13.2774 C   0  0  2  0  0  0  0  0  0  0  0  0
   22.8452  -21.4383  -12.7646 N   0  0  0  0  0  0  0  0  0  0  0  0
   20.6117  -20.7916  -12.1312 C   0  0  0  0  0  0  0  0  0  0  0  0
   19.5990  -19.8570  -12.1699 O   0  0  0  0  0  0  0  0  0  0  0  0
   20.8194  -21.4055  -11.0433 O   0  0  0  0  0  0  0  0  0  0  0  0
  1  5  1  0
  2  1  1  0
  2  3  1  0
  3  4  1  0
  4  5  1  0
  5  6  1  1
  6  7  2  0
  9 10  1  0
  9  8  1  0
 10 12  1  0
 10 11  1  1
 12 13  1  6
 12 14  1  0
 13  6  1  0
 14 15  2  0
 14 22  1  0
 16 17  1  0
 17 19  1  0
 18 17  2  0
 19 20  1  0
 21 20  1  1
 21 23  1  0
 22 21  1  0
 23 25  2  0
 23 24  1  0
M  END
$$$$
