PIQ.pdb
     RDKit          3D

 25 25  0  0  1  0  0  0  0  0999 V2000
   19.4524  -11.0390  -16.1233 N   0  0  0  0  0  0  0  0  0  0  0  0
   20.7402  -11.4676  -16.7008 C   0  0  0  0  0  0  0  0  0  0  0  0
   21.7126  -10.8010  -15.7476 C   0  0  0  0  0  0  0  0  0  0  0  0
   21.0287  -10.8537  -14.3967 C   0  0  0  0  0  0  0  0  0  0  0  0
   19.6848  -11.4366  -14.7292 C   0  0  1  0  0  0  0  0  0  0  0  0
   18.6455  -10.8305  -13.8939 C   0  0  0  0  0  0  0  0  0  0  0  0
   18.0396   -9.7981  -14.3483 O   0  0  0  0  0  0  0  0  0  0  0  0
   14.7844  -13.4756  -10.9247 C   0  0  0  0  0  0  0  0  0  0  0  0
   15.5118  -12.4872  -11.7725 C   0  0  0  0  0  0  0  0  0  0  0  0
   16.3460  -11.4869  -11.0750 C   0  0  2  0  0  0  0  0  0  0  0  0
   15.3722  -10.5381  -10.3467 C   0  0  0  0  0  0  0  0  0  0  0  0
   17.2555  -10.6304  -11.8576 C   0  0  2  0  0  0  0  0  0  0  0  0
   18.2691  -11.3229  -12.6039 N   0  0  0  0  0  0  0  0  0  0  0  0
   17.9475   -9.5866  -11.0436 C   0  0  0  0  0  0  0  0  0  0  0  0
   18.7645   -9.8758  -10.1328 O   0  0  0  0  0  0  0  0  0  0  0  0
   21.3571   -5.6757  -13.7809 N   0  0  0  0  0  0  0  0  0  0  0  0
   21.3643   -5.1075  -12.4490 C   0  0  0  0  0  0  0  0  0  0  0  0
   22.1764   -4.1981  -12.2641 O   0  0  0  0  0  0  0  0  0  0  0  0
   20.4632   -5.6152  -11.4538 C   0  0  0  0  0  0  0  0  0  0  0  0
   19.4954   -6.6739  -11.7424 C   0  0  0  0  0  0  0  0  0  0  0  0
   18.5868   -7.1548  -10.6643 C   0  0  2  0  0  0  0  0  0  0  0  0
   17.7132   -8.2083  -11.2622 N   0  0  0  0  0  0  0  0  0  0  0  0
   17.7271   -6.1295  -10.0430 C   0  0  0  0  0  0  0  0  0  0  0  0
   18.0972   -5.3527   -8.9660 O   0  0  0  0  0  0  0  0  0  0  0  0
   16.5740   -5.9578  -10.5378 O   0  0  0  0  0  0  0  0  0  0  0  0
  1  5  1  0
  2  1  1  0
  2  3  1  0
  3  4  1  0
  4  5  1  0
  5  6  1  1
  6  7  2  0
  9 10  1  0
  9  8  1  0
 10 12  1  0
 10 11  1  6
 12 13  1  1
 12 14  1  0
 13  6  1  0
 14 15  2  0
 14 22  1  0
 16 17  1  0
 17 19  1  0
 18 17  2  0
 19 20  1  0
 21 20  1  6
 21 23  1  0
 22 21  1  0
 23 25  2  0
 23 24  1  0
M  END
$$$$
