PIQ.pdb
     RDKit          3D

 25 25  0  0  1  0  0  0  0  0999 V2000
   28.1549  -20.8770  -15.6320 N   0  0  0  0  0  0  0  0  0  0  0  0
   28.9688  -19.9524  -16.4435 C   0  0  0  0  0  0  0  0  0  0  0  0
   28.0144  -18.7824  -16.5805 C   0  0  0  0  0  0  0  0  0  0  0  0
   27.2633  -18.7391  -15.2654 C   0  0  0  0  0  0  0  0  0  0  0  0
   27.7755  -19.9577  -14.5520 C   0  0  1  0  0  0  0  0  0  0  0  0
   26.7042  -20.5780  -13.7691 C   0  0  0  0  0  0  0  0  0  0  0  0
   26.1568  -21.6362  -14.2378 O   0  0  0  0  0  0  0  0  0  0  0  0
   26.5192  -20.5300   -8.2129 C   0  0  0  0  0  0  0  0  0  0  0  0
   26.3280  -21.1104   -9.5736 C   0  0  0  0  0  0  0  0  0  0  0  0
   25.1779  -20.6183  -10.3598 C   0  0  2  0  0  0  0  0  0  0  0  0
   23.9404  -21.3841   -9.8486 C   0  0  0  0  0  0  0  0  0  0  0  0
   25.1854  -20.7699  -11.8262 C   0  0  2  0  0  0  0  0  0  0  0  0
   26.2349  -20.0718  -12.5154 N   0  0  0  0  0  0  0  0  0  0  0  0
   23.8991  -20.3800  -12.4776 C   0  0  0  0  0  0  0  0  0  0  0  0
   23.5055  -19.1870  -12.5291 O   0  0  0  0  0  0  0  0  0  0  0  0
   21.9312  -20.7454  -17.8030 N   0  0  0  0  0  0  0  0  0  0  0  0
   20.6490  -21.1367  -17.2553 C   0  0  0  0  0  0  0  0  0  0  0  0
   19.6843  -20.9980  -18.0108 O   0  0  0  0  0  0  0  0  0  0  0  0
   20.5725  -21.6424  -15.9142 C   0  0  0  0  0  0  0  0  0  0  0  0
   21.7473  -21.7418  -15.0477 C   0  0  0  0  0  0  0  0  0  0  0  0
   21.7934  -20.9645  -13.7777 C   0  0  2  0  0  0  0  0  0  0  0  0
   23.0541  -21.3459  -13.0737 N   0  0  0  0  0  0  0  0  0  0  0  0
   20.6604  -21.1713  -12.8558 C   0  0  0  0  0  0  0  0  0  0  0  0
   19.4901  -20.4432  -12.8862 O   0  0  0  0  0  0  0  0  0  0  0  0
   20.7785  -22.0797  -11.9815 O   0  0  0  0  0  0  0  0  0  0  0  0
  1  5  1  0
  2  1  1  0
  2  3  1  0
  3  4  1  0
  4  5  1  0
  5  6  1  1
  6  7  2  0
  9 10  1  0
  9  8  1  0
 10 12  1  0
 10 11  1  1
 12 13  1  6
 12 14  1  0
 13  6  1  0
 14 15  2  0
 14 22  1  0
 16 17  1  0
 17 19  1  0
 18 17  2  0
 19 20  1  0
 21 20  1  6
 21 23  1  0
 22 21  1  0
 23 25  2  0
 23 24  1  0
M  END
$$$$
