PIQ.pdb
     RDKit          3D

 25 25  0  0  1  0  0  0  0  0999 V2000
   27.3043  -19.0888  -14.9385 N   0  0  0  0  0  0  0  0  0  0  0  0
   28.5264  -18.9203  -15.7471 C   0  0  0  0  0  0  0  0  0  0  0  0
   29.4318  -19.9556  -15.1090 C   0  0  0  0  0  0  0  0  0  0  0  0
   28.5071  -21.0899  -14.7167 C   0  0  0  0  0  0  0  0  0  0  0  0
   27.1504  -20.5439  -15.0596 C   0  0  1  0  0  0  0  0  0  0  0  0
   26.1587  -20.9893  -14.0780 C   0  0  0  0  0  0  0  0  0  0  0  0
   25.6840  -22.1720  -14.2019 O   0  0  0  0  0  0  0  0  0  0  0  0
   26.6907  -20.4261   -8.7743 C   0  0  0  0  0  0  0  0  0  0  0  0
   26.2287  -21.0400  -10.0528 C   0  0  0  0  0  0  0  0  0  0  0  0
   24.9924  -20.4966  -10.6523 C   0  0  2  0  0  0  0  0  0  0  0  0
   23.8177  -21.1289   -9.8782 C   0  0  0  0  0  0  0  0  0  0  0  0
   24.7204  -20.7258  -12.0830 C   0  0  2  0  0  0  0  0  0  0  0  0
   25.6907  -20.1825  -12.9925 N   0  0  0  0  0  0  0  0  0  0  0  0
   23.3814  -20.2345  -12.5266 C   0  0  0  0  0  0  0  0  0  0  0  0
   23.1457  -19.0167  -12.7319 O   0  0  0  0  0  0  0  0  0  0  0  0
   20.4277  -22.2620  -17.0230 N   0  0  0  0  0  0  0  0  0  0  0  0
   20.0326  -20.8706  -16.9527 C   0  0  0  0  0  0  0  0  0  0  0  0
   19.2468  -20.4970  -17.8266 O   0  0  0  0  0  0  0  0  0  0  0  0
   20.5582  -20.0333  -15.9122 C   0  0  0  0  0  0  0  0  0  0  0  0
   21.5220  -20.5231  -14.9263 C   0  0  0  0  0  0  0  0  0  0  0  0
   21.0915  -20.7296  -13.5153 C   0  0  2  0  0  0  0  0  0  0  0  0
   22.3038  -21.1269  -12.7387 N   0  0  0  0  0  0  0  0  0  0  0  0
   20.0451  -21.7480  -13.3048 C   0  0  0  0  0  0  0  0  0  0  0  0
   18.6941  -21.4772  -13.2593 O   0  0  0  0  0  0  0  0  0  0  0  0
   20.4211  -22.9483  -13.1569 O   0  0  0  0  0  0  0  0  0  0  0  0
  1  5  1  0
  2  1  1  0
  2  3  1  0
  3  4  1  0
  4  5  1  0
  5  6  1  1
  6  7  2  0
  9 10  1  0
  9  8  1  0
 10 12  1  0
 10 11  1  1
 12 13  1  6
 12 14  1  0
 13  6  1  0
 14 15  2  0
 14 22  1  0
 16 17  1  0
 17 19  1  0
 18 17  2  0
 19 20  1  0
 21 20  1  6
 21 23  1  0
 22 21  1  0
 23 25  2  0
 23 24  1  0
M  END
$$$$
