PIQ.pdb
     RDKit          3D

 25 25  0  0  1  0  0  0  0  0999 V2000
   20.6362  -12.9985  -16.3548 N   0  0  0  0  0  0  0  0  0  0  0  0
   21.2642  -14.3025  -16.6398 C   0  0  0  0  0  0  0  0  0  0  0  0
   20.4697  -14.7387  -17.8551 C   0  0  0  0  0  0  0  0  0  0  0  0
   20.1800  -13.4568  -18.6091 C   0  0  0  0  0  0  0  0  0  0  0  0
   20.7326  -12.4024  -17.6931 C   0  0  1  0  0  0  0  0  0  0  0  0
   19.8916  -11.2039  -17.7294 C   0  0  0  0  0  0  0  0  0  0  0  0
   19.9300  -10.4780  -18.7834 O   0  0  0  0  0  0  0  0  0  0  0  0
   14.8461  -11.3212  -17.3736 C   0  0  0  0  0  0  0  0  0  0  0  0
   16.0506  -10.5363  -17.7707 C   0  0  0  0  0  0  0  0  0  0  0  0
   16.7724   -9.8218  -16.6976 C   0  0  2  0  0  0  0  0  0  0  0  0
   16.1414   -8.4172  -16.6077 C   0  0  0  0  0  0  0  0  0  0  0  0
   18.2278   -9.6182  -16.8153 C   0  0  2  0  0  0  0  0  0  0  0  0
   19.0325  -10.7979  -16.6591 N   0  0  0  0  0  0  0  0  0  0  0  0
   18.7692   -8.5913  -15.8754 C   0  0  0  0  0  0  0  0  0  0  0  0
   18.9690   -8.8325  -14.6577 O   0  0  0  0  0  0  0  0  0  0  0  0
   23.4554   -5.6146  -15.2812 N   0  0  0  0  0  0  0  0  0  0  0  0
   22.6982   -4.3927  -15.1062 C   0  0  0  0  0  0  0  0  0  0  0  0
   23.3130   -3.4564  -14.5903 O   0  0  0  0  0  0  0  0  0  0  0  0
   21.3260   -4.3399  -15.5236 C   0  0  0  0  0  0  0  0  0  0  0  0
   20.6568   -5.4769  -16.1562 C   0  0  0  0  0  0  0  0  0  0  0  0
   19.6405   -6.2520  -15.3911 C   0  0  2  0  0  0  0  0  0  0  0  0
   19.0858   -7.2846  -16.3166 N   0  0  0  0  0  0  0  0  0  0  0  0
   18.5199   -5.4699  -14.8352 C   0  0  0  0  0  0  0  0  0  0  0  0
   18.4251   -5.0748  -13.5179 O   0  0  0  0  0  0  0  0  0  0  0  0
   17.5872   -5.1437  -15.6274 O   0  0  0  0  0  0  0  0  0  0  0  0
  1  5  1  0
  2  1  1  0
  2  3  1  0
  3  4  1  0
  4  5  1  0
  5  6  1  1
  6  7  2  0
  9 10  1  0
  9  8  1  0
 10 12  1  0
 10 11  1  6
 12 13  1  1
 12 14  1  0
 13  6  1  0
 14 15  2  0
 14 22  1  0
 16 17  1  0
 17 19  1  0
 18 17  2  0
 19 20  1  0
 21 20  1  6
 21 23  1  0
 22 21  1  0
 23 25  2  0
 23 24  1  0
M  END
$$$$
