YGL.pdb
     RDKit          3D

 25 25  0  0  1  0  0  0  0  0999 V2000
   19.7956  -21.3660   -8.7611 O   0  0  0  0  0  0  0  0  0  0  0  0
   21.1095  -21.4522   -9.1915 C   0  0  0  0  0  0  0  0  0  0  0  0
   22.1381  -21.5237   -8.2707 C   0  0  0  0  0  0  0  0  0  0  0  0
   23.4359  -21.6087   -8.7141 C   0  0  0  0  0  0  0  0  0  0  0  0
   23.7573  -21.6258  -10.0557 C   0  0  0  0  0  0  0  0  0  0  0  0
   25.1638  -21.7180  -10.5252 C   0  0  0  0  0  0  0  0  0  0  0  0
   25.7869  -20.3440  -10.5082 C   0  0  2  0  0  0  0  0  0  0  0  0
   24.9885  -19.4882  -11.3655 N   0  0  0  0  0  0  0  0  0  0  0  0
   27.1683  -20.3561  -11.0501 C   0  0  0  0  0  0  0  0  0  0  0  0
   28.0229  -21.1007  -10.5217 O   0  0  0  0  0  0  0  0  0  0  0  0
   22.7186  -21.5536  -10.9595 C   0  0  0  0  0  0  0  0  0  0  0  0
   21.4325  -21.4694  -10.5224 C   0  0  0  0  0  0  0  0  0  0  0  0
   27.5977  -19.5609  -12.1547 N   0  0  0  0  0  0  0  0  0  0  0  0
   28.3888  -20.0616  -13.2336 C   0  0  0  0  0  0  0  0  0  0  0  0
   27.7138  -19.8345  -14.5646 C   0  0  0  0  0  0  0  0  0  0  0  0
   26.4676  -19.6611  -14.6047 O   0  0  0  0  0  0  0  0  0  0  0  0
   30.0989  -16.7121  -18.3133 C   0  0  0  0  0  0  0  0  0  0  0  0
   29.0933  -17.4242  -17.4889 C   0  0  1  0  0  0  0  0  0  0  0  0
   27.9353  -16.4551  -17.2236 C   0  0  0  0  0  0  0  0  0  0  0  0
   28.6350  -18.7534  -17.8917 C   0  0  0  0  0  0  0  0  0  0  0  0
   27.7520  -19.5756  -17.0480 C   0  0  2  0  0  0  0  0  0  0  0  0
   28.4535  -19.8125  -15.7678 N   0  0  0  0  0  0  0  0  0  0  0  0
   27.2322  -20.8310  -17.5734 C   0  0  0  0  0  0  0  0  0  0  0  0
   26.3089  -20.7583  -18.6446 O   0  0  0  0  0  0  0  0  0  0  0  0
   27.4895  -21.9906  -17.2065 O   0  0  0  0  0  0  0  0  0  0  0  0
  2  3  2  0
  2  1  1  0
  4  3  1  0
  5  4  2  0
  6  7  1  0
  6  5  1  0
  7  8  1  6
  9 10  2  0
  9  7  1  0
 11  5  1  0
 11 12  2  0
 12  2  1  0
 13  9  1  0
 14 13  1  0
 15 22  1  0
 15 14  1  0
 16 15  2  0
 18 19  1  6
 18 17  1  0
 20 18  1  0
 21 20  1  6
 21 22  1  0
 23 21  1  0
 24 23  1  0
 25 23  2  0
M  END
$$$$
