YGL.pdb
     RDKit          3D

 25 25  0  0  1  0  0  0  0  0999 V2000
   20.0696  -21.3121  -16.3296 O   0  0  0  0  0  0  0  0  0  0  0  0
   21.0549  -21.1428  -15.3707 C   0  0  0  0  0  0  0  0  0  0  0  0
   21.9257  -20.0723  -15.4519 C   0  0  0  0  0  0  0  0  0  0  0  0
   22.8974  -19.9187  -14.4926 C   0  0  0  0  0  0  0  0  0  0  0  0
   23.0406  -20.7993  -13.4403 C   0  0  0  0  0  0  0  0  0  0  0  0
   24.0946  -20.6247  -12.4079 C   0  0  0  0  0  0  0  0  0  0  0  0
   25.4435  -20.9186  -13.0168 C   0  0  2  0  0  0  0  0  0  0  0  0
   25.4937  -22.3384  -13.3106 N   0  0  0  0  0  0  0  0  0  0  0  0
   26.5521  -20.6167  -12.0778 C   0  0  0  0  0  0  0  0  0  0  0  0
   26.6545  -19.4623  -11.6080 O   0  0  0  0  0  0  0  0  0  0  0  0
   22.1633  -21.8610  -13.3755 C   0  0  0  0  0  0  0  0  0  0  0  0
   21.2001  -22.0149  -14.3246 C   0  0  0  0  0  0  0  0  0  0  0  0
   27.5291  -21.5718  -11.6654 N   0  0  0  0  0  0  0  0  0  0  0  0
   28.5458  -21.3012  -10.6991 C   0  0  0  0  0  0  0  0  0  0  0  0
   28.0313  -21.4819   -9.2915 C   0  0  0  0  0  0  0  0  0  0  0  0
   27.5170  -22.5810   -8.9570 O   0  0  0  0  0  0  0  0  0  0  0  0
   30.1021  -18.4535   -5.1807 C   0  0  0  0  0  0  0  0  0  0  0  0
   29.5038  -19.5867   -5.9260 C   0  0  1  0  0  0  0  0  0  0  0  0
   30.1001  -20.8827   -5.3642 C   0  0  0  0  0  0  0  0  0  0  0  0
   28.0526  -19.6598   -6.0928 C   0  0  0  0  0  0  0  0  0  0  0  0
   27.4108  -20.5785   -7.0476 C   0  0  2  0  0  0  0  0  0  0  0  0
   28.1155  -20.4407   -8.3405 N   0  0  0  0  0  0  0  0  0  0  0  0
   25.9706  -20.5004   -7.2521 C   0  0  0  0  0  0  0  0  0  0  0  0
   25.1373  -21.0376   -6.2410 O   0  0  0  0  0  0  0  0  0  0  0  0
   25.3493  -20.0162   -8.2139 O   0  0  0  0  0  0  0  0  0  0  0  0
  2  3  2  0
  2  1  1  0
  4  3  1  0
  5  4  2  0
  6  7  1  0
  6  5  1  0
  7  8  1  1
  9 10  2  0
  9  7  1  0
 11  5  1  0
 11 12  2  0
 12  2  1  0
 13  9  1  0
 14 13  1  0
 15 22  1  0
 15 14  1  0
 16 15  2  0
 18 19  1  1
 18 17  1  0
 20 18  1  0
 21 20  1  1
 21 22  1  0
 23 21  1  0
 24 23  1  0
 25 23  2  0
M  END
$$$$
