YGL.pdb
     RDKit          3D

 25 25  0  0  1  0  0  0  0  0999 V2000
   20.4675  -14.8975  -21.4940 O   0  0  0  0  0  0  0  0  0  0  0  0
   19.8631  -13.9403  -20.6954 C   0  0  0  0  0  0  0  0  0  0  0  0
   18.6007  -14.1643  -20.1786 C   0  0  0  0  0  0  0  0  0  0  0  0
   18.0152  -13.2048  -19.3883 C   0  0  0  0  0  0  0  0  0  0  0  0
   18.6431  -12.0140  -19.0865 C   0  0  0  0  0  0  0  0  0  0  0  0
   18.0018  -10.9827  -18.2309 C   0  0  0  0  0  0  0  0  0  0  0  0
   18.5295  -11.1036  -16.8226 C   0  0  2  0  0  0  0  0  0  0  0  0
   18.1620  -12.4163  -16.3262 N   0  0  0  0  0  0  0  0  0  0  0  0
   17.9234  -10.0970  -15.9162 C   0  0  0  0  0  0  0  0  0  0  0  0
   17.0372  -10.4583  -15.1111 O   0  0  0  0  0  0  0  0  0  0  0  0
   19.9016  -11.8080  -19.6106 C   0  0  0  0  0  0  0  0  0  0  0  0
   20.4834  -12.7571  -20.3937 C   0  0  0  0  0  0  0  0  0  0  0  0
   18.2891   -8.7176  -15.8993 N   0  0  0  0  0  0  0  0  0  0  0  0
   17.7688   -7.7695  -14.9660 C   0  0  0  0  0  0  0  0  0  0  0  0
   18.2996   -6.3822  -15.2347 C   0  0  0  0  0  0  0  0  0  0  0  0
   19.4702   -6.2424  -15.6759 O   0  0  0  0  0  0  0  0  0  0  0  0
   19.2086   -3.0231  -19.0414 C   0  0  0  0  0  0  0  0  0  0  0  0
   18.8671   -2.8585  -17.6082 C   0  0  1  0  0  0  0  0  0  0  0  0
   18.0157   -1.5907  -17.4730 C   0  0  0  0  0  0  0  0  0  0  0  0
   18.3187   -3.9885  -16.8588 C   0  0  0  0  0  0  0  0  0  0  0  0
   18.0076   -3.9092  -15.4219 C   0  0  2  0  0  0  0  0  0  0  0  0
   17.5079   -5.2359  -15.0007 N   0  0  0  0  0  0  0  0  0  0  0  0
   17.1136   -2.8630  -14.9439 C   0  0  0  0  0  0  0  0  0  0  0  0
   17.6745   -1.5860  -14.6995 O   0  0  0  0  0  0  0  0  0  0  0  0
   15.8940   -2.9314  -14.7128 O   0  0  0  0  0  0  0  0  0  0  0  0
  2  3  2  0
  2  1  1  0
  4  3  1  0
  5  4  2  0
  6  7  1  0
  6  5  1  0
  7  8  1  1
  9 10  2  0
  9  7  1  0
 11  5  1  0
 11 12  2  0
 12  2  1  0
 13  9  1  0
 14 13  1  0
 15 22  1  0
 15 14  1  0
 16 15  2  0
 18 19  1  6
 18 17  1  0
 20 18  1  0
 21 20  1  6
 21 22  1  0
 23 21  1  0
 24 23  1  0
 25 23  2  0
M  END
$$$$
