YGL.pdb
     RDKit          3D

 25 25  0  0  1  0  0  0  0  0999 V2000
   19.6052  -20.4404  -15.9699 O   0  0  0  0  0  0  0  0  0  0  0  0
   20.6480  -20.5472  -15.0641 C   0  0  0  0  0  0  0  0  0  0  0  0
   21.5129  -21.6238  -15.1256 C   0  0  0  0  0  0  0  0  0  0  0  0
   22.5422  -21.7150  -14.2199 C   0  0  0  0  0  0  0  0  0  0  0  0
   22.7494  -20.7651  -13.2409 C   0  0  0  0  0  0  0  0  0  0  0  0
   23.8653  -20.8725  -12.2660 C   0  0  0  0  0  0  0  0  0  0  0  0
   25.0487  -20.0856  -12.7730 C   0  0  2  0  0  0  0  0  0  0  0  0
   25.5385  -20.7480  -13.9671 N   0  0  0  0  0  0  0  0  0  0  0  0
   26.1588  -20.0598  -11.7886 C   0  0  0  0  0  0  0  0  0  0  0  0
   25.9182  -19.7225  -10.6086 O   0  0  0  0  0  0  0  0  0  0  0  0
   21.8770  -19.6985  -13.1948 C   0  0  0  0  0  0  0  0  0  0  0  0
   20.8568  -19.6063  -14.0910 C   0  0  0  0  0  0  0  0  0  0  0  0
   27.5090  -20.4002  -12.1015 N   0  0  0  0  0  0  0  0  0  0  0  0
   28.1422  -21.6083  -11.6770 C   0  0  0  0  0  0  0  0  0  0  0  0
   28.1933  -21.7049  -10.1714 C   0  0  0  0  0  0  0  0  0  0  0  0
   28.4652  -22.8088   -9.6311 O   0  0  0  0  0  0  0  0  0  0  0  0
   29.2235  -21.0093   -4.9358 C   0  0  0  0  0  0  0  0  0  0  0  0
   28.6119  -19.8941   -5.6975 C   0  0  1  0  0  0  0  0  0  0  0  0
   29.1874  -18.5828   -5.1498 C   0  0  0  0  0  0  0  0  0  0  0  0
   28.5974  -19.9363   -7.1594 C   0  0  0  0  0  0  0  0  0  0  0  0
   27.6538  -20.7742   -7.9178 C   0  0  2  0  0  0  0  0  0  0  0  0
   27.9417  -20.5796   -9.3553 N   0  0  0  0  0  0  0  0  0  0  0  0
   26.2245  -20.6385   -7.6711 C   0  0  0  0  0  0  0  0  0  0  0  0
   25.7143  -21.1865   -6.4692 O   0  0  0  0  0  0  0  0  0  0  0  0
   25.3630  -20.0953   -8.3840 O   0  0  0  0  0  0  0  0  0  0  0  0
  2  3  2  0
  2  1  1  0
  4  3  1  0
  5  4  2  0
  6  7  1  0
  6  5  1  0
  7  8  1  6
  9 10  2  0
  9  7  1  0
 11  5  1  0
 11 12  2  0
 12  2  1  0
 13  9  1  0
 14 13  1  0
 15 22  1  0
 15 14  1  0
 16 15  2  0
 18 19  1  6
 18 17  1  0
 20 18  1  0
 21 20  1  1
 21 22  1  0
 23 21  1  0
 24 23  1  0
 25 23  2  0
M  END
$$$$
