YGL.pdb
     RDKit          3D

 25 25  0  0  1  0  0  0  0  0999 V2000
   17.7994  -19.4297  -14.9674 O   0  0  0  0  0  0  0  0  0  0  0  0
   19.0048  -19.8990  -14.4715 C   0  0  0  0  0  0  0  0  0  0  0  0
   19.0752  -20.4126  -13.1901 C   0  0  0  0  0  0  0  0  0  0  0  0
   20.2784  -20.8740  -12.7132 C   0  0  0  0  0  0  0  0  0  0  0  0
   21.4316  -20.8452  -13.4700 C   0  0  0  0  0  0  0  0  0  0  0  0
   22.7280  -21.3465  -12.9455 C   0  0  0  0  0  0  0  0  0  0  0  0
   23.1276  -20.5318  -11.7401 C   0  0  2  0  0  0  0  0  0  0  0  0
   23.2920  -19.1570  -12.1732 N   0  0  0  0  0  0  0  0  0  0  0  0
   24.4239  -20.9803  -11.1740 C   0  0  0  0  0  0  0  0  0  0  0  0
   24.5475  -22.1680  -10.8025 O   0  0  0  0  0  0  0  0  0  0  0  0
   21.3425  -20.3295  -14.7456 C   0  0  0  0  0  0  0  0  0  0  0  0
   20.1517  -19.8719  -15.2198 C   0  0  0  0  0  0  0  0  0  0  0  0
   25.5621  -20.1331  -11.0211 N   0  0  0  0  0  0  0  0  0  0  0  0
   26.8166  -20.5749  -10.4998 C   0  0  0  0  0  0  0  0  0  0  0  0
   26.8625  -20.4541   -8.9958 C   0  0  0  0  0  0  0  0  0  0  0  0
   25.7920  -20.2843   -8.3557 O   0  0  0  0  0  0  0  0  0  0  0  0
   29.1260  -21.1769   -3.8732 C   0  0  0  0  0  0  0  0  0  0  0  0
   29.8416  -20.4438   -4.9447 C   0  0  1  0  0  0  0  0  0  0  0  0
   31.3455  -20.6469   -4.7262 C   0  0  0  0  0  0  0  0  0  0  0  0
   29.4446  -20.6290   -6.3402 C   0  0  0  0  0  0  0  0  0  0  0  0
   28.0959  -20.2993   -6.8299 C   0  0  2  0  0  0  0  0  0  0  0  0
   28.0846  -20.5279   -8.2910 N   0  0  0  0  0  0  0  0  0  0  0  0
   27.5269  -18.9937   -6.5234 C   0  0  0  0  0  0  0  0  0  0  0  0
   26.8319  -18.8557   -5.2974 O   0  0  0  0  0  0  0  0  0  0  0  0
   27.5643  -17.9531   -7.2025 O   0  0  0  0  0  0  0  0  0  0  0  0
  2  3  2  0
  2  1  1  0
  4  3  1  0
  5  4  2  0
  6  7  1  0
  6  5  1  0
  7  8  1  6
  9 10  2  0
  9  7  1  0
 11  5  1  0
 11 12  2  0
 12  2  1  0
 13  9  1  0
 14 13  1  0
 15 22  1  0
 15 14  1  0
 16 15  2  0
 18 19  1  6
 18 17  1  0
 20 18  1  0
 21 20  1  6
 21 22  1  0
 23 21  1  0
 24 23  1  0
 25 23  2  0
M  END
$$$$
