YGL.pdb
     RDKit          3D

 25 25  0  0  1  0  0  0  0  0999 V2000
   19.6526  -23.4030  -18.2957 O   0  0  0  0  0  0  0  0  0  0  0  0
   20.6669  -22.7368  -17.6274 C   0  0  0  0  0  0  0  0  0  0  0  0
   21.6760  -23.4508  -17.0088 C   0  0  0  0  0  0  0  0  0  0  0  0
   22.6747  -22.7749  -16.3501 C   0  0  0  0  0  0  0  0  0  0  0  0
   22.7113  -21.3975  -16.2806 C   0  0  0  0  0  0  0  0  0  0  0  0
   23.7955  -20.6757  -15.5660 C   0  0  0  0  0  0  0  0  0  0  0  0
   23.7230  -20.9970  -14.0935 C   0  0  2  0  0  0  0  0  0  0  0  0
   22.4470  -20.5142  -13.6002 N   0  0  0  0  0  0  0  0  0  0  0  0
   24.7892  -20.3092  -13.3239 C   0  0  0  0  0  0  0  0  0  0  0  0
   25.2277  -19.2134  -13.7372 O   0  0  0  0  0  0  0  0  0  0  0  0
   21.6967  -20.7021  -16.9034 C   0  0  0  0  0  0  0  0  0  0  0  0
   20.7065  -21.3696  -17.5563 C   0  0  0  0  0  0  0  0  0  0  0  0
   25.3603  -20.8221  -12.1207 N   0  0  0  0  0  0  0  0  0  0  0  0
   26.4041  -20.1695  -11.3960 C   0  0  0  0  0  0  0  0  0  0  0  0
   26.6959  -20.8746  -10.0936 C   0  0  0  0  0  0  0  0  0  0  0  0
   26.8149  -22.1277  -10.0816 O   0  0  0  0  0  0  0  0  0  0  0  0
   28.5297  -18.4528   -5.3781 C   0  0  0  0  0  0  0  0  0  0  0  0
   28.1574  -19.4936   -6.3660 C   0  0  1  0  0  0  0  0  0  0  0  0
   29.0761  -20.7004   -6.1425 C   0  0  0  0  0  0  0  0  0  0  0  0
   26.7542  -19.8749   -6.5239 C   0  0  0  0  0  0  0  0  0  0  0  0
   26.2831  -20.7172   -7.6358 C   0  0  2  0  0  0  0  0  0  0  0  0
   26.8384  -20.1554   -8.8861 N   0  0  0  0  0  0  0  0  0  0  0  0
   24.8550  -20.9615   -7.7880 C   0  0  0  0  0  0  0  0  0  0  0  0
   24.2562  -21.9002   -6.9132 O   0  0  0  0  0  0  0  0  0  0  0  0
   24.0632  -20.4502   -8.5986 O   0  0  0  0  0  0  0  0  0  0  0  0
  2  3  2  0
  2  1  1  0
  4  3  1  0
  5  4  2  0
  6  7  1  0
  6  5  1  0
  7  8  1  1
  9 10  2  0
  9  7  1  0
 11  5  1  0
 11 12  2  0
 12  2  1  0
 13  9  1  0
 14 13  1  0
 15 22  1  0
 15 14  1  0
 16 15  2  0
 18 19  1  1
 18 17  1  0
 20 18  1  0
 21 20  1  1
 21 22  1  0
 23 21  1  0
 24 23  1  0
 25 23  2  0
M  END
$$$$
