YGL.pdb
     RDKit          3D

 25 25  0  0  1  0  0  0  0  0999 V2000
   18.0609  -19.9390  -13.9023 O   0  0  0  0  0  0  0  0  0  0  0  0
   19.3451  -20.4356  -13.7500 C   0  0  0  0  0  0  0  0  0  0  0  0
   19.7413  -21.5611  -14.4481 C   0  0  0  0  0  0  0  0  0  0  0  0
   21.0186  -22.0409  -14.2858 C   0  0  0  0  0  0  0  0  0  0  0  0
   21.9316  -21.4382  -13.4452 C   0  0  0  0  0  0  0  0  0  0  0  0
   23.3106  -21.9645  -13.2765 C   0  0  0  0  0  0  0  0  0  0  0  0
   24.3037  -20.8878  -13.6384 C   0  0  2  0  0  0  0  0  0  0  0  0
   24.3248  -20.7771  -15.0848 N   0  0  0  0  0  0  0  0  0  0  0  0
   25.6779  -21.2313  -13.1961 C   0  0  0  0  0  0  0  0  0  0  0  0
   26.2690  -22.1917  -13.7366 O   0  0  0  0  0  0  0  0  0  0  0  0
   21.5189  -20.3169  -12.7572 C   0  0  0  0  0  0  0  0  0  0  0  0
   20.2542  -19.8400  -12.9165 C   0  0  0  0  0  0  0  0  0  0  0  0
   26.3858  -20.5272  -12.1764 N   0  0  0  0  0  0  0  0  0  0  0  0
   27.5753  -21.0153  -11.5538 C   0  0  0  0  0  0  0  0  0  0  0  0
   27.3520  -21.3067  -10.0896 C   0  0  0  0  0  0  0  0  0  0  0  0
   26.5814  -22.2445   -9.7558 O   0  0  0  0  0  0  0  0  0  0  0  0
   29.2066  -21.0972   -4.6056 C   0  0  0  0  0  0  0  0  0  0  0  0
   28.5527  -20.0175   -5.3830 C   0  0  1  0  0  0  0  0  0  0  0  0
   29.0029  -18.6767   -4.7912 C   0  0  0  0  0  0  0  0  0  0  0  0
   28.6127  -20.0373   -6.8442 C   0  0  0  0  0  0  0  0  0  0  0  0
   27.6400  -20.7758   -7.6665 C   0  0  2  0  0  0  0  0  0  0  0  0
   27.9914  -20.5470   -9.0848 N   0  0  0  0  0  0  0  0  0  0  0  0
   26.2159  -20.5479   -7.4609 C   0  0  0  0  0  0  0  0  0  0  0  0
   25.5100  -21.4918   -6.6761 O   0  0  0  0  0  0  0  0  0  0  0  0
   25.5103  -19.6174   -7.8874 O   0  0  0  0  0  0  0  0  0  0  0  0
  2  3  2  0
  2  1  1  0
  4  3  1  0
  5  4  2  0
  6  7  1  0
  6  5  1  0
  7  8  1  6
  9 10  2  0
  9  7  1  0
 11  5  1  0
 11 12  2  0
 12  2  1  0
 13  9  1  0
 14 13  1  0
 15 22  1  0
 15 14  1  0
 16 15  2  0
 18 19  1  1
 18 17  1  0
 20 18  1  0
 21 20  1  1
 21 22  1  0
 23 21  1  0
 24 23  1  0
 25 23  2  0
M  END
$$$$
