YGL.pdb
     RDKit          3D

 25 25  0  0  1  0  0  0  0  0999 V2000
   23.0097   -9.2487  -26.0953 O   0  0  0  0  0  0  0  0  0  0  0  0
   22.9259   -8.9816  -24.7386 C   0  0  0  0  0  0  0  0  0  0  0  0
   22.5926   -7.7137  -24.3002 C   0  0  0  0  0  0  0  0  0  0  0  0
   22.5137   -7.4652  -22.9511 C   0  0  0  0  0  0  0  0  0  0  0  0
   22.7564   -8.4406  -22.0061 C   0  0  0  0  0  0  0  0  0  0  0  0
   22.6686   -8.1621  -20.5495 C   0  0  0  0  0  0  0  0  0  0  0  0
   21.4712   -8.8785  -19.9755 C   0  0  2  0  0  0  0  0  0  0  0  0
   20.2890   -8.3586  -20.6365 N   0  0  0  0  0  0  0  0  0  0  0  0
   21.3187   -8.6243  -18.5215 C   0  0  0  0  0  0  0  0  0  0  0  0
   20.3940   -7.8803  -18.1273 O   0  0  0  0  0  0  0  0  0  0  0  0
   23.0875   -9.6991  -22.4617 C   0  0  0  0  0  0  0  0  0  0  0  0
   23.1662   -9.9473  -23.7975 C   0  0  0  0  0  0  0  0  0  0  0  0
   22.1714   -9.1812  -17.5217 N   0  0  0  0  0  0  0  0  0  0  0  0
   21.9885   -8.9790  -16.1195 C   0  0  0  0  0  0  0  0  0  0  0  0
   22.2604   -7.5465  -15.7284 C   0  0  0  0  0  0  0  0  0  0  0  0
   23.1081   -6.8785  -16.3764 O   0  0  0  0  0  0  0  0  0  0  0  0
   21.9789   -2.5128  -15.5228 C   0  0  0  0  0  0  0  0  0  0  0  0
   20.8317   -3.2462  -14.9363 C   0  0  1  0  0  0  0  0  0  0  0  0
   19.5457   -2.6298  -15.4991 C   0  0  0  0  0  0  0  0  0  0  0  0
   20.8150   -4.7084  -14.9639 C   0  0  0  0  0  0  0  0  0  0  0  0
   21.8576   -5.5243  -14.3198 C   0  0  2  0  0  0  0  0  0  0  0  0
   21.5817   -6.9397  -14.6483 N   0  0  0  0  0  0  0  0  0  0  0  0
   22.0923   -5.3794  -12.8893 C   0  0  0  0  0  0  0  0  0  0  0  0
   22.7674   -4.2137  -12.4531 O   0  0  0  0  0  0  0  0  0  0  0  0
   21.7763   -6.1538  -11.9696 O   0  0  0  0  0  0  0  0  0  0  0  0
  2  3  2  0
  2  1  1  0
  4  3  1  0
  5  4  2  0
  6  7  1  0
  6  5  1  0
  7  8  1  6
  9 10  2  0
  9  7  1  0
 11  5  1  0
 11 12  2  0
 12  2  1  0
 13  9  1  0
 14 13  1  0
 15 22  1  0
 15 14  1  0
 16 15  2  0
 18 19  1  6
 18 17  1  0
 20 18  1  0
 21 20  1  1
 21 22  1  0
 23 21  1  0
 24 23  1  0
 25 23  2  0
M  END
$$$$
