YGL.pdb
     RDKit          3D

 25 25  0  0  1  0  0  0  0  0999 V2000
   19.0245  -18.7235  -15.1134 O   0  0  0  0  0  0  0  0  0  0  0  0
   20.0802  -19.2185  -14.3653 C   0  0  0  0  0  0  0  0  0  0  0  0
   19.9455  -20.4110  -13.6793 C   0  0  0  0  0  0  0  0  0  0  0  0
   21.0021  -20.8883  -12.9419 C   0  0  0  0  0  0  0  0  0  0  0  0
   22.2050  -20.2180  -12.8576 C   0  0  0  0  0  0  0  0  0  0  0  0
   23.3418  -20.7423  -12.0575 C   0  0  0  0  0  0  0  0  0  0  0  0
   24.5178  -20.9966  -12.9680 C   0  0  2  0  0  0  0  0  0  0  0  0
   24.1690  -22.1035  -13.8384 N   0  0  0  0  0  0  0  0  0  0  0  0
   25.7306  -21.3898  -12.2087 C   0  0  0  0  0  0  0  0  0  0  0  0
   25.9618  -22.6038  -12.0173 O   0  0  0  0  0  0  0  0  0  0  0  0
   22.3212  -19.0304  -13.5482 C   0  0  0  0  0  0  0  0  0  0  0  0
   21.2758  -18.5559  -14.2793 C   0  0  0  0  0  0  0  0  0  0  0  0
   26.6702  -20.4598  -11.6710 N   0  0  0  0  0  0  0  0  0  0  0  0
   27.8050  -20.8390  -10.8904 C   0  0  0  0  0  0  0  0  0  0  0  0
   27.4976  -20.7964   -9.4131 C   0  0  0  0  0  0  0  0  0  0  0  0
   26.2985  -20.8013   -9.0302 O   0  0  0  0  0  0  0  0  0  0  0  0
   30.7189  -21.1349   -4.0701 C   0  0  0  0  0  0  0  0  0  0  0  0
   29.4663  -20.7962   -4.7872 C   0  0  1  0  0  0  0  0  0  0  0  0
   28.9639  -19.4541   -4.2425 C   0  0  0  0  0  0  0  0  0  0  0  0
   29.4261  -20.8624   -6.2478 C   0  0  0  0  0  0  0  0  0  0  0  0
   28.1825  -20.6804   -7.0145 C   0  0  2  0  0  0  0  0  0  0  0  0
   28.5302  -20.7512   -8.4502 N   0  0  0  0  0  0  0  0  0  0  0  0
   27.3528  -19.5108   -6.7578 C   0  0  0  0  0  0  0  0  0  0  0  0
   27.6710  -18.3190   -7.4531 O   0  0  0  0  0  0  0  0  0  0  0  0
   26.3776  -19.4048   -5.9941 O   0  0  0  0  0  0  0  0  0  0  0  0
  2  3  2  0
  2  1  1  0
  4  3  1  0
  5  4  2  0
  6  7  1  0
  6  5  1  0
  7  8  1  6
  9 10  2  0
  9  7  1  0
 11  5  1  0
 11 12  2  0
 12  2  1  0
 13  9  1  0
 14 13  1  0
 15 22  1  0
 15 14  1  0
 16 15  2  0
 18 19  1  6
 18 17  1  0
 20 18  1  0
 21 20  1  1
 21 22  1  0
 23 21  1  0
 24 23  1  0
 25 23  2  0
M  END
$$$$
