YGL.pdb
     RDKit          3D

 25 25  0  0  1  0  0  0  0  0999 V2000
   22.3232  -16.7372  -20.1129 O   0  0  0  0  0  0  0  0  0  0  0  0
   22.0143  -15.5555  -19.4593 C   0  0  0  0  0  0  0  0  0  0  0  0
   22.8381  -14.4534  -19.5916 C   0  0  0  0  0  0  0  0  0  0  0  0
   22.5174  -13.2888  -18.9367 C   0  0  0  0  0  0  0  0  0  0  0  0
   21.3942  -13.1738  -18.1438 C   0  0  0  0  0  0  0  0  0  0  0  0
   21.0560  -11.9101  -17.4396 C   0  0  0  0  0  0  0  0  0  0  0  0
   20.3245  -10.9912  -18.3868 C   0  0  2  0  0  0  0  0  0  0  0  0
   21.3029  -10.4310  -19.2997 N   0  0  0  0  0  0  0  0  0  0  0  0
   19.6797   -9.8608  -17.6736 C   0  0  0  0  0  0  0  0  0  0  0  0
   18.7511  -10.0982  -16.8705 O   0  0  0  0  0  0  0  0  0  0  0  0
   20.5843  -14.2831  -18.0235 C   0  0  0  0  0  0  0  0  0  0  0  0
   20.9001  -15.4376  -18.6714 C   0  0  0  0  0  0  0  0  0  0  0  0
   20.0536   -8.4941  -17.8444 N   0  0  0  0  0  0  0  0  0  0  0  0
   19.3862   -7.4029  -17.2083 C   0  0  0  0  0  0  0  0  0  0  0  0
   19.9642   -7.1234  -15.8421 C   0  0  0  0  0  0  0  0  0  0  0  0
   19.2333   -7.2449  -14.8244 O   0  0  0  0  0  0  0  0  0  0  0  0
   23.4312  -10.2217  -13.7928 C   0  0  0  0  0  0  0  0  0  0  0  0
   22.4236   -9.1366  -13.8647 C   0  0  1  0  0  0  0  0  0  0  0  0
   21.5772   -9.1992  -12.5879 C   0  0  0  0  0  0  0  0  0  0  0  0
   22.8455   -7.7758  -14.1952 C   0  0  0  0  0  0  0  0  0  0  0  0
   21.8925   -6.6609  -14.3243 C   0  0  2  0  0  0  0  0  0  0  0  0
   21.3108   -6.7276  -15.6824 N   0  0  0  0  0  0  0  0  0  0  0  0
   22.3408   -5.3047  -14.0380 C   0  0  0  0  0  0  0  0  0  0  0  0
   22.2320   -4.3481  -15.0764 O   0  0  0  0  0  0  0  0  0  0  0  0
   22.8189   -4.8528  -12.9832 O   0  0  0  0  0  0  0  0  0  0  0  0
  2  3  2  0
  2  1  1  0
  4  3  1  0
  5  4  2  0
  6  7  1  0
  6  5  1  0
  7  8  1  6
  9 10  2  0
  9  7  1  0
 11  5  1  0
 11 12  2  0
 12  2  1  0
 13  9  1  0
 14 13  1  0
 15 22  1  0
 15 14  1  0
 16 15  2  0
 18 19  1  1
 18 17  1  0
 20 18  1  0
 21 20  1  6
 21 22  1  0
 23 21  1  0
 24 23  1  0
 25 23  2  0
M  END
$$$$
