SKI.pdb
     RDKit          3D

 24 23  0  0  1  0  0  0  0  0999 V2000
   29.6381  -21.6337  -14.3702 O   0  0  0  0  0  0  0  0  0  0  0  0
   28.8027  -21.9599  -15.4174 C   0  0  0  0  0  0  0  0  0  0  0  0
   27.8063  -20.8651  -15.7297 C   0  0  2  0  0  0  0  0  0  0  0  0
   28.4730  -19.7665  -16.3993 N   0  0  0  0  0  0  0  0  0  0  0  0
   27.0653  -20.4089  -14.5333 C   0  0  0  0  0  0  0  0  0  0  0  0
   27.3463  -19.2828  -14.0618 O   0  0  0  0  0  0  0  0  0  0  0  0
   26.0678  -21.2221  -13.9391 N   0  0  0  0  0  0  0  0  0  0  0  0
   25.2147  -20.7593  -12.8643 C   0  0  1  0  0  0  0  0  0  0  0  0
   23.7927  -21.1670  -13.1828 C   0  0  0  0  0  0  0  0  0  0  0  0
   22.8239  -20.6199  -12.1502 C   0  0  0  0  0  0  0  0  0  0  0  0
   21.4196  -21.0934  -12.3980 C   0  0  0  0  0  0  0  0  0  0  0  0
   20.5398  -20.4068  -11.3462 C   0  0  0  0  0  0  0  0  0  0  0  0
   19.4183  -19.7549  -12.0005 N   0  0  0  0  0  0  0  0  0  0  0  0
   25.6043  -21.3497  -11.5451 C   0  0  0  0  0  0  0  0  0  0  0  0
   25.9657  -22.5348  -11.4288 O   0  0  0  0  0  0  0  0  0  0  0  0
   28.6817  -19.7912   -6.6297 C   0  0  0  0  0  0  0  0  0  0  0  0
   27.5092  -20.5862   -7.1469 C   0  0  0  0  0  0  0  0  0  0  0  0
   27.0971  -20.0956   -8.5285 C   0  0  2  0  0  0  0  0  0  0  0  0
   26.6200  -18.6510   -8.2992 C   0  0  0  0  0  0  0  0  0  0  0  0
   25.9194  -20.8535   -9.0916 C   0  0  2  0  0  0  0  0  0  0  0  0
   25.5423  -20.4961  -10.4346 N   0  0  0  0  0  0  0  0  0  0  0  0
   24.8214  -20.9846   -8.1503 C   0  0  0  0  0  0  0  0  0  0  0  0
   23.6816  -20.4858   -8.2765 O   0  0  0  0  0  0  0  0  0  0  0  0
   25.0305  -21.7367   -6.9791 O   0  0  0  0  0  0  0  0  0  0  0  0
  2  1  1  0
  3  2  1  0
  3  4  1  1
  5  6  2  0
  5  3  1  0
  7  5  1  0
  8  7  1  0
  9 10  1  0
  8  9  1  6
 10 11  1  0
 12 11  1  0
 13 12  1  0
 14 21  1  0
 14  8  1  0
 15 14  2  0
 17 16  1  0
 18 17  1  0
 18 19  1  1
 20 18  1  0
 20 21  1  6
 22 20  1  0
 23 22  2  0
 24 22  1  0
M  END
$$$$
