SKI.pdb
     RDKit          3D

 24 23  0  0  1  0  0  0  0  0999 V2000
   17.7074  -15.6641  -14.2001 O   0  0  0  0  0  0  0  0  0  0  0  0
   18.1845  -14.4293  -14.5855 C   0  0  0  0  0  0  0  0  0  0  0  0
   17.4797  -13.8897  -15.8107 C   0  0  2  0  0  0  0  0  0  0  0  0
   17.8554  -14.6626  -16.9774 N   0  0  0  0  0  0  0  0  0  0  0  0
   17.7136  -12.4430  -16.0133 C   0  0  0  0  0  0  0  0  0  0  0  0
   18.6933  -12.0984  -16.7138 O   0  0  0  0  0  0  0  0  0  0  0  0
   16.8546  -11.4769  -15.4319 N   0  0  0  0  0  0  0  0  0  0  0  0
   17.1030  -10.0527  -15.5168 C   0  0  1  0  0  0  0  0  0  0  0  0
   15.8415   -9.3288  -15.0994 C   0  0  0  0  0  0  0  0  0  0  0  0
   16.0075   -7.8254  -15.2268 C   0  0  0  0  0  0  0  0  0  0  0  0
   14.7440   -7.0934  -14.8727 C   0  0  0  0  0  0  0  0  0  0  0  0
   15.0368   -5.6018  -15.0763 C   0  0  0  0  0  0  0  0  0  0  0  0
   13.9177   -4.8152  -14.5868 N   0  0  0  0  0  0  0  0  0  0  0  0
   18.2255   -9.6248  -14.6236 C   0  0  0  0  0  0  0  0  0  0  0  0
   18.2518   -9.9025  -13.4109 O   0  0  0  0  0  0  0  0  0  0  0  0
   23.7920  -10.4549  -13.8952 C   0  0  0  0  0  0  0  0  0  0  0  0
   22.8301   -9.2934  -13.9002 C   0  0  0  0  0  0  0  0  0  0  0  0
   21.5638   -9.6500  -14.6672 C   0  0  2  0  0  0  0  0  0  0  0  0
   22.0134   -9.7383  -16.1358 C   0  0  0  0  0  0  0  0  0  0  0  0
   20.5154   -8.5659  -14.6025 C   0  0  2  0  0  0  0  0  0  0  0  0
   19.2569   -8.8886  -15.2236 N   0  0  0  0  0  0  0  0  0  0  0  0
   21.0391   -7.2459  -14.9055 C   0  0  0  0  0  0  0  0  0  0  0  0
   22.0357   -6.7104  -14.3726 O   0  0  0  0  0  0  0  0  0  0  0  0
   20.3850   -6.4754  -15.8850 O   0  0  0  0  0  0  0  0  0  0  0  0
  2  1  1  0
  3  2  1  0
  3  4  1  6
  5  6  2  0
  5  3  1  0
  7  5  1  0
  8  7  1  0
  9 10  1  0
  8  9  1  1
 10 11  1  0
 12 11  1  0
 13 12  1  0
 14 21  1  0
 14  8  1  0
 15 14  2  0
 17 16  1  0
 18 17  1  0
 18 19  1  6
 20 18  1  0
 20 21  1  6
 22 20  1  0
 23 22  2  0
 24 22  1  0
M  END
$$$$
