SKI.pdb
     RDKit          3D

 24 23  0  0  1  0  0  0  0  0999 V2000
   24.8132  -23.4223  -13.6641 O   0  0  0  0  0  0  0  0  0  0  0  0
   26.0130  -22.7721  -13.8609 C   0  0  0  0  0  0  0  0  0  0  0  0
   26.0838  -21.4481  -13.1324 C   0  0  2  0  0  0  0  0  0  0  0  0
   26.0998  -21.6721  -11.7009 N   0  0  0  0  0  0  0  0  0  0  0  0
   25.0030  -20.5193  -13.5295 C   0  0  0  0  0  0  0  0  0  0  0  0
   24.1439  -20.2151  -12.6700 O   0  0  0  0  0  0  0  0  0  0  0  0
   24.9422  -19.9899  -14.8431 N   0  0  0  0  0  0  0  0  0  0  0  0
   23.8968  -19.0873  -15.2785 C   0  0  1  0  0  0  0  0  0  0  0  0
   24.3404  -18.4424  -16.5735 C   0  0  0  0  0  0  0  0  0  0  0  0
   23.3741  -17.3520  -16.9991 C   0  0  0  0  0  0  0  0  0  0  0  0
   23.7310  -16.7852  -18.3441 C   0  0  0  0  0  0  0  0  0  0  0  0
   24.8929  -15.8122  -18.1088 C   0  0  0  0  0  0  0  0  0  0  0  0
   25.2093  -15.1236  -19.3484 N   0  0  0  0  0  0  0  0  0  0  0  0
   22.6011  -19.8000  -15.5109 C   0  0  0  0  0  0  0  0  0  0  0  0
   22.5457  -20.9134  -16.0640 O   0  0  0  0  0  0  0  0  0  0  0  0
   17.6184  -20.7898  -12.3272 C   0  0  0  0  0  0  0  0  0  0  0  0
   18.1408  -20.5573  -13.7227 C   0  0  0  0  0  0  0  0  0  0  0  0
   19.5397  -19.9571  -13.6778 C   0  0  2  0  0  0  0  0  0  0  0  0
   19.3444  -18.5688  -13.0442 C   0  0  0  0  0  0  0  0  0  0  0  0
   20.1215  -19.7254  -15.0512 C   0  0  2  0  0  0  0  0  0  0  0  0
   21.4404  -19.1476  -15.0718 N   0  0  0  0  0  0  0  0  0  0  0  0
   19.1721  -19.1434  -15.9832 C   0  0  0  0  0  0  0  0  0  0  0  0
   18.0567  -19.6190  -16.2892 O   0  0  0  0  0  0  0  0  0  0  0  0
   19.5118  -17.9327  -16.6155 O   0  0  0  0  0  0  0  0  0  0  0  0
  2  1  1  0
  3  2  1  0
  3  4  1  1
  5  6  2  0
  5  3  1  0
  7  5  1  0
  8  7  1  0
  9 10  1  0
  8  9  1  6
 10 11  1  0
 12 11  1  0
 13 12  1  0
 14 21  1  0
 14  8  1  0
 15 14  2  0
 17 16  1  0
 18 17  1  0
 18 19  1  6
 20 18  1  0
 20 21  1  1
 22 20  1  0
 23 22  2  0
 24 22  1  0
M  END
$$$$
