SKI.pdb
     RDKit          3D

 24 23  0  0  1  0  0  0  0  0999 V2000
   36.2268   -9.3875  -17.5911 O   0  0  0  0  0  0  0  0  0  0  0  0
   36.2543  -10.7156  -17.2217 C   0  0  0  0  0  0  0  0  0  0  0  0
   36.0115  -11.6490  -18.3873 C   0  0  2  0  0  0  0  0  0  0  0  0
   36.9985  -11.4145  -19.4219 N   0  0  0  0  0  0  0  0  0  0  0  0
   34.6324  -11.5573  -18.9148 C   0  0  0  0  0  0  0  0  0  0  0  0
   34.4330  -10.8312  -19.9160 O   0  0  0  0  0  0  0  0  0  0  0  0
   33.5695  -12.2700  -18.3052 N   0  0  0  0  0  0  0  0  0  0  0  0
   32.1868  -12.1129  -18.7062 C   0  0  1  0  0  0  0  0  0  0  0  0
   31.4327  -13.3587  -18.2951 C   0  0  0  0  0  0  0  0  0  0  0  0
   30.0105  -13.3356  -18.8251 C   0  0  0  0  0  0  0  0  0  0  0  0
   29.2764  -14.6072  -18.5062 C   0  0  0  0  0  0  0  0  0  0  0  0
   27.9407  -14.5352  -19.2564 C   0  0  0  0  0  0  0  0  0  0  0  0
   27.1982  -15.7662  -19.0469 N   0  0  0  0  0  0  0  0  0  0  0  0
   31.5470  -10.9237  -18.0603 C   0  0  0  0  0  0  0  0  0  0  0  0
   31.7741  -10.6078  -16.8783 O   0  0  0  0  0  0  0  0  0  0  0  0
   30.2545   -5.2325  -19.3491 C   0  0  0  0  0  0  0  0  0  0  0  0
   29.6903   -6.4724  -18.7020 C   0  0  0  0  0  0  0  0  0  0  0  0
   30.4822   -7.7035  -19.1224 C   0  0  2  0  0  0  0  0  0  0  0  0
   30.1777   -7.8653  -20.6218 C   0  0  0  0  0  0  0  0  0  0  0  0
   30.0035   -8.9659  -18.4474 C   0  0  2  0  0  0  0  0  0  0  0  0
   30.6704  -10.1744  -18.8577 N   0  0  0  0  0  0  0  0  0  0  0  0
   28.5567   -9.0526  -18.3578 C   0  0  0  0  0  0  0  0  0  0  0  0
   27.8101   -8.2642  -17.7374 O   0  0  0  0  0  0  0  0  0  0  0  0
   27.9078  -10.1114  -19.0205 O   0  0  0  0  0  0  0  0  0  0  0  0
  2  1  1  0
  3  2  1  0
  3  4  1  6
  5  6  2  0
  5  3  1  0
  7  5  1  0
  8  7  1  0
  9 10  1  0
  8  9  1  1
 10 11  1  0
 12 11  1  0
 13 12  1  0
 14 21  1  0
 14  8  1  0
 15 14  2  0
 17 16  1  0
 18 17  1  0
 18 19  1  6
 20 18  1  0
 20 21  1  6
 22 20  1  0
 23 22  2  0
 24 22  1  0
M  END
$$$$
