SKI.pdb
     RDKit          3D

 24 23  0  0  1  0  0  0  0  0999 V2000
   26.4945  -12.2765  -15.5844 O   0  0  0  0  0  0  0  0  0  0  0  0
   25.6043  -11.2307  -15.7064 C   0  0  0  0  0  0  0  0  0  0  0  0
   24.6214  -11.4322  -16.8387 C   0  0  2  0  0  0  0  0  0  0  0  0
   25.3277  -11.4811  -18.1031 N   0  0  0  0  0  0  0  0  0  0  0  0
   23.5471  -10.4152  -16.8502 C   0  0  0  0  0  0  0  0  0  0  0  0
   23.7328   -9.3714  -17.5175 O   0  0  0  0  0  0  0  0  0  0  0  0
   22.3443  -10.6167  -16.1278 N   0  0  0  0  0  0  0  0  0  0  0  0
   21.2509   -9.6672  -16.1424 C   0  0  1  0  0  0  0  0  0  0  0  0
   20.0256  -10.3510  -15.5762 C   0  0  0  0  0  0  0  0  0  0  0  0
   19.4188  -11.3077  -16.5864 C   0  0  0  0  0  0  0  0  0  0  0  0
   18.2649  -12.0742  -16.0045 C   0  0  0  0  0  0  0  0  0  0  0  0
   17.7499  -12.9930  -17.1192 C   0  0  0  0  0  0  0  0  0  0  0  0
   16.6053  -13.7473  -16.6380 N   0  0  0  0  0  0  0  0  0  0  0  0
   21.5515   -8.4528  -15.3205 C   0  0  0  0  0  0  0  0  0  0  0  0
   22.0028   -8.5292  -14.1633 O   0  0  0  0  0  0  0  0  0  0  0  0
   24.0642   -3.0691  -16.0778 C   0  0  0  0  0  0  0  0  0  0  0  0
   22.9170   -3.7768  -15.4014 C   0  0  0  0  0  0  0  0  0  0  0  0
   22.6917   -5.1481  -16.0241 C   0  0  2  0  0  0  0  0  0  0  0  0
   22.1892   -4.8486  -17.4470 C   0  0  0  0  0  0  0  0  0  0  0  0
   21.5985   -5.9303  -15.3373 C   0  0  2  0  0  0  0  0  0  0  0  0
   21.2981   -7.2117  -15.9216 N   0  0  0  0  0  0  0  0  0  0  0  0
   20.4456   -5.1179  -14.9914 C   0  0  0  0  0  0  0  0  0  0  0  0
   20.4356   -4.1611  -14.1863 O   0  0  0  0  0  0  0  0  0  0  0  0
   19.2125   -5.4115  -15.6033 O   0  0  0  0  0  0  0  0  0  0  0  0
  2  1  1  0
  3  2  1  0
  3  4  1  6
  5  6  2  0
  5  3  1  0
  7  5  1  0
  8  7  1  0
  9 10  1  0
  8  9  1  1
 10 11  1  0
 12 11  1  0
 13 12  1  0
 14 21  1  0
 14  8  1  0
 15 14  2  0
 17 16  1  0
 18 17  1  0
 18 19  1  6
 20 18  1  0
 20 21  1  6
 22 20  1  0
 23 22  2  0
 24 22  1  0
M  END
$$$$
