SKI.pdb
     RDKit          3D

 24 23  0  0  1  0  0  0  0  0999 V2000
   14.7662   -9.3641   -9.5597 O   0  0  0  0  0  0  0  0  0  0  0  0
   15.7335   -9.2907  -10.5394 C   0  0  0  0  0  0  0  0  0  0  0  0
   15.2650   -9.8540  -11.8631 C   0  0  2  0  0  0  0  0  0  0  0  0
   14.9388  -11.2580  -11.7148 N   0  0  0  0  0  0  0  0  0  0  0  0
   16.2373   -9.6298  -12.9554 C   0  0  0  0  0  0  0  0  0  0  0  0
   17.0169  -10.5652  -13.2496 O   0  0  0  0  0  0  0  0  0  0  0  0
   16.2845   -8.3937  -13.6475 N   0  0  0  0  0  0  0  0  0  0  0  0
   17.1596   -8.1590  -14.7773 C   0  0  1  0  0  0  0  0  0  0  0  0
   16.5782   -7.0275  -15.5965 C   0  0  0  0  0  0  0  0  0  0  0  0
   17.3867   -6.7973  -16.8603 C   0  0  0  0  0  0  0  0  0  0  0  0
   16.8013   -5.7005  -17.7041 C   0  0  0  0  0  0  0  0  0  0  0  0
   17.6877   -5.5942  -18.9511 C   0  0  0  0  0  0  0  0  0  0  0  0
   17.2168   -4.5067  -19.7915 N   0  0  0  0  0  0  0  0  0  0  0  0
   18.5434   -7.7844  -14.3467 C   0  0  0  0  0  0  0  0  0  0  0  0
   18.7567   -7.0322  -13.3785 O   0  0  0  0  0  0  0  0  0  0  0  0
   23.7938  -10.8561  -14.2035 C   0  0  0  0  0  0  0  0  0  0  0  0
   23.1389   -9.4976  -14.2148 C   0  0  0  0  0  0  0  0  0  0  0  0
   21.7213   -9.5910  -14.7634 C   0  0  2  0  0  0  0  0  0  0  0  0
   21.9046   -9.9461  -16.2491 C   0  0  0  0  0  0  0  0  0  0  0  0
   20.9901   -8.2711  -14.7234 C   0  0  2  0  0  0  0  0  0  0  0  0
   19.5994   -8.3262  -15.0930 N   0  0  0  0  0  0  0  0  0  0  0  0
   21.7478   -7.1802  -15.3104 C   0  0  0  0  0  0  0  0  0  0  0  0
   22.8889   -6.8062  -14.9611 O   0  0  0  0  0  0  0  0  0  0  0  0
   21.1694   -6.4594  -16.3721 O   0  0  0  0  0  0  0  0  0  0  0  0
  2  1  1  0
  3  2  1  0
  3  4  1  1
  5  6  2  0
  5  3  1  0
  7  5  1  0
  8  7  1  0
  9 10  1  0
  8  9  1  6
 10 11  1  0
 12 11  1  0
 13 12  1  0
 14 21  1  0
 14  8  1  0
 15 14  2  0
 17 16  1  0
 18 17  1  0
 18 19  1  6
 20 18  1  0
 20 21  1  6
 22 20  1  0
 23 22  2  0
 24 22  1  0
M  END
$$$$
