SKI.pdb
     RDKit          3D

 24 23  0  0  1  0  0  0  0  0999 V2000
   27.7689  -17.6475  -16.9824 O   0  0  0  0  0  0  0  0  0  0  0  0
   27.0831  -17.6955  -15.7873 C   0  0  0  0  0  0  0  0  0  0  0  0
   27.7511  -18.5928  -14.7687 C   0  0  2  0  0  0  0  0  0  0  0  0
   28.4085  -19.6968  -15.4385 N   0  0  0  0  0  0  0  0  0  0  0  0
   26.8167  -19.0644  -13.7231 C   0  0  0  0  0  0  0  0  0  0  0  0
   26.0958  -18.2139  -13.1519 O   0  0  0  0  0  0  0  0  0  0  0  0
   26.7401  -20.4373  -13.3788 N   0  0  0  0  0  0  0  0  0  0  0  0
   25.8864  -20.9351  -12.3202 C   0  0  1  0  0  0  0  0  0  0  0  0
   25.4514  -22.3375  -12.6860 C   0  0  0  0  0  0  0  0  0  0  0  0
   24.4177  -22.3157  -13.7972 C   0  0  0  0  0  0  0  0  0  0  0  0
   23.8782  -23.6886  -14.0831 C   0  0  0  0  0  0  0  0  0  0  0  0
   22.8343  -23.5204  -15.1940 C   0  0  0  0  0  0  0  0  0  0  0  0
   22.1839  -24.7946  -15.4474 N   0  0  0  0  0  0  0  0  0  0  0  0
   26.5936  -20.9755  -11.0015 C   0  0  0  0  0  0  0  0  0  0  0  0
   27.7607  -21.3918  -10.8864 O   0  0  0  0  0  0  0  0  0  0  0  0
   28.5066  -19.1052   -5.9084 C   0  0  0  0  0  0  0  0  0  0  0  0
   27.5326  -20.1158   -6.4602 C   0  0  0  0  0  0  0  0  0  0  0  0
   27.1093  -19.7356   -7.8729 C   0  0  2  0  0  0  0  0  0  0  0  0
   26.2533  -18.4701   -7.6925 C   0  0  0  0  0  0  0  0  0  0  0  0
   26.2176  -20.7704   -8.5152 C   0  0  2  0  0  0  0  0  0  0  0  0
   25.8721  -20.5175   -9.8900 N   0  0  0  0  0  0  0  0  0  0  0  0
   25.1176  -21.1851   -7.6627 C   0  0  0  0  0  0  0  0  0  0  0  0
   25.2111  -21.5655   -6.4751 O   0  0  0  0  0  0  0  0  0  0  0  0
   23.8149  -21.1672   -8.1955 O   0  0  0  0  0  0  0  0  0  0  0  0
  2  1  1  0
  3  2  1  0
  3  4  1  6
  5  6  2  0
  5  3  1  0
  7  5  1  0
  8  7  1  0
  9 10  1  0
  8  9  1  6
 10 11  1  0
 12 11  1  0
 13 12  1  0
 14 21  1  0
 14  8  1  0
 15 14  2  0
 17 16  1  0
 18 17  1  0
 18 19  1  1
 20 18  1  0
 20 21  1  6
 22 20  1  0
 23 22  2  0
 24 22  1  0
M  END
$$$$
