SKI.pdb
     RDKit          3D

 24 23  0  0  1  0  0  0  0  0999 V2000
   29.7527  -22.1062  -16.0860 O   0  0  0  0  0  0  0  0  0  0  0  0
   29.0665  -21.5148  -15.0466 C   0  0  0  0  0  0  0  0  0  0  0  0
   27.7045  -21.0050  -15.4638 C   0  0  2  0  0  0  0  0  0  0  0  0
   27.8497  -19.9842  -16.4819 N   0  0  0  0  0  0  0  0  0  0  0  0
   26.8986  -20.5266  -14.3192 C   0  0  0  0  0  0  0  0  0  0  0  0
   27.1471  -19.3877  -13.8604 O   0  0  0  0  0  0  0  0  0  0  0  0
   25.8762  -21.3332  -13.7592 N   0  0  0  0  0  0  0  0  0  0  0  0
   25.0345  -20.8888  -12.6678 C   0  0  1  0  0  0  0  0  0  0  0  0
   23.6265  -21.3773  -12.9297 C   0  0  0  0  0  0  0  0  0  0  0  0
   22.7485  -20.2559  -13.4545 C   0  0  0  0  0  0  0  0  0  0  0  0
   21.3398  -20.7185  -13.6975 C   0  0  0  0  0  0  0  0  0  0  0  0
   20.5771  -19.5091  -14.2523 C   0  0  0  0  0  0  0  0  0  0  0  0
   19.1764  -19.8545  -14.4242 N   0  0  0  0  0  0  0  0  0  0  0  0
   25.4962  -21.4254  -11.3489 C   0  0  0  0  0  0  0  0  0  0  0  0
   25.8630  -22.6057  -11.2039 O   0  0  0  0  0  0  0  0  0  0  0  0
   28.4134  -19.7571   -6.3087 C   0  0  0  0  0  0  0  0  0  0  0  0
   27.2746  -20.5645   -6.8793 C   0  0  0  0  0  0  0  0  0  0  0  0
   26.9192  -20.0758   -8.2772 C   0  0  2  0  0  0  0  0  0  0  0  0
   26.3819  -18.6501   -8.0632 C   0  0  0  0  0  0  0  0  0  0  0  0
   25.7992  -20.8678   -8.9070 C   0  0  2  0  0  0  0  0  0  0  0  0
   25.4962  -20.5266  -10.2728 N   0  0  0  0  0  0  0  0  0  0  0  0
   24.6492  -21.0245   -8.0343 C   0  0  0  0  0  0  0  0  0  0  0  0
   23.5076  -20.5534   -8.2311 O   0  0  0  0  0  0  0  0  0  0  0  0
   24.8043  -21.7703   -6.8508 O   0  0  0  0  0  0  0  0  0  0  0  0
  2  1  1  0
  3  2  1  0
  3  4  1  6
  5  6  2  0
  5  3  1  0
  7  5  1  0
  8  7  1  0
  9 10  1  0
  8  9  1  6
 10 11  1  0
 12 11  1  0
 13 12  1  0
 14 21  1  0
 14  8  1  0
 15 14  2  0
 17 16  1  0
 18 17  1  0
 18 19  1  1
 20 18  1  0
 20 21  1  6
 22 20  1  0
 23 22  2  0
 24 22  1  0
M  END
$$$$
