SKI.pdb
     RDKit          3D

 24 23  0  0  1  0  0  0  0  0999 V2000
   29.3703  -22.9046  -15.8359 O   0  0  0  0  0  0  0  0  0  0  0  0
   28.6423  -22.7585  -16.9976 C   0  0  0  0  0  0  0  0  0  0  0  0
   28.3108  -21.3135  -17.2988 C   0  0  2  0  0  0  0  0  0  0  0  0
   29.5304  -20.5609  -17.5127 N   0  0  0  0  0  0  0  0  0  0  0  0
   27.4599  -20.6941  -16.2591 C   0  0  0  0  0  0  0  0  0  0  0  0
   27.8808  -19.6572  -15.6959 O   0  0  0  0  0  0  0  0  0  0  0  0
   26.2065  -21.2574  -15.9114 N   0  0  0  0  0  0  0  0  0  0  0  0
   25.3058  -20.6419  -14.9589 C   0  0  1  0  0  0  0  0  0  0  0  0
   23.8986  -20.7478  -15.5050 C   0  0  0  0  0  0  0  0  0  0  0  0
   22.9005  -20.0842  -14.5736 C   0  0  0  0  0  0  0  0  0  0  0  0
   21.4943  -20.2002  -15.0901 C   0  0  0  0  0  0  0  0  0  0  0  0
   20.6113  -19.4015  -14.1234 C   0  0  0  0  0  0  0  0  0  0  0  0
   19.2168  -19.5488  -14.5037 N   0  0  0  0  0  0  0  0  0  0  0  0
   25.3588  -21.3131  -13.6220 C   0  0  0  0  0  0  0  0  0  0  0  0
   25.3666  -22.5516  -13.5008 O   0  0  0  0  0  0  0  0  0  0  0  0
   27.7369  -20.2264   -8.1075 C   0  0  0  0  0  0  0  0  0  0  0  0
   26.6926  -20.9452   -8.9243 C   0  0  0  0  0  0  0  0  0  0  0  0
   26.6214  -20.3666  -10.3312 C   0  0  2  0  0  0  0  0  0  0  0  0
   26.3344  -18.8700  -10.1196 C   0  0  0  0  0  0  0  0  0  0  0  0
   25.4668  -20.9170  -11.1327 C   0  0  2  0  0  0  0  0  0  0  0  0
   25.3996  -20.4725  -12.5007 N   0  0  0  0  0  0  0  0  0  0  0  0
   24.2081  -20.8975  -10.4089 C   0  0  0  0  0  0  0  0  0  0  0  0
   23.2043  -20.2102  -10.6985 O   0  0  0  0  0  0  0  0  0  0  0  0
   24.0771  -21.7178   -9.2726 O   0  0  0  0  0  0  0  0  0  0  0  0
  2  1  1  0
  3  2  1  0
  3  4  1  1
  5  6  2  0
  5  3  1  0
  7  5  1  0
  8  7  1  0
  9 10  1  0
  8  9  1  6
 10 11  1  0
 12 11  1  0
 13 12  1  0
 14 21  1  0
 14  8  1  0
 15 14  2  0
 17 16  1  0
 18 17  1  0
 18 19  1  1
 20 18  1  0
 20 21  1  6
 22 20  1  0
 23 22  2  0
 24 22  1  0
M  END
$$$$
