SKI.pdb
     RDKit          3D

 24 23  0  0  1  0  0  0  0  0999 V2000
   19.8386  -18.4944  -12.9659 O   0  0  0  0  0  0  0  0  0  0  0  0
   19.5816  -18.9264  -14.2497 C   0  0  0  0  0  0  0  0  0  0  0  0
   19.4962  -20.4335  -14.3504 C   0  0  2  0  0  0  0  0  0  0  0  0
   18.3431  -20.9132  -13.6156 N   0  0  0  0  0  0  0  0  0  0  0  0
   20.7405  -21.1063  -13.9175 C   0  0  0  0  0  0  0  0  0  0  0  0
   20.8424  -21.4355  -12.7131 O   0  0  0  0  0  0  0  0  0  0  0  0
   21.7854  -21.3702  -14.8383 N   0  0  0  0  0  0  0  0  0  0  0  0
   23.0255  -22.0129  -14.4560 C   0  0  1  0  0  0  0  0  0  0  0  0
   23.6613  -22.5891  -15.7024 C   0  0  0  0  0  0  0  0  0  0  0  0
   24.8822  -23.4222  -15.3571 C   0  0  0  0  0  0  0  0  0  0  0  0
   25.5524  -23.9650  -16.5875 C   0  0  0  0  0  0  0  0  0  0  0  0
   26.7196  -24.8309  -16.0978 C   0  0  0  0  0  0  0  0  0  0  0  0
   27.3915  -25.4313  -17.2374 N   0  0  0  0  0  0  0  0  0  0  0  0
   23.9834  -21.0524  -13.8230 C   0  0  0  0  0  0  0  0  0  0  0  0
   24.0404  -19.8548  -14.1565 O   0  0  0  0  0  0  0  0  0  0  0  0
   26.2542  -19.9351   -8.3485 C   0  0  0  0  0  0  0  0  0  0  0  0
   26.5644  -19.9469   -9.8243 C   0  0  0  0  0  0  0  0  0  0  0  0
   25.6000  -20.8621  -10.5669 C   0  0  2  0  0  0  0  0  0  0  0  0
   26.0014  -22.2819  -10.1311 C   0  0  0  0  0  0  0  0  0  0  0  0
   25.7761  -20.8059  -12.0651 C   0  0  2  0  0  0  0  0  0  0  0  0
   24.8223  -21.5704  -12.8262 N   0  0  0  0  0  0  0  0  0  0  0  0
   27.1599  -20.9430  -12.4832 C   0  0  0  0  0  0  0  0  0  0  0  0
   28.1091  -20.2063  -12.1364 O   0  0  0  0  0  0  0  0  0  0  0  0
   27.4930  -21.9930  -13.3594 O   0  0  0  0  0  0  0  0  0  0  0  0
  2  1  1  0
  3  2  1  0
  3  4  1  1
  5  6  2  0
  5  3  1  0
  7  5  1  0
  8  7  1  0
  9 10  1  0
  8  9  1  6
 10 11  1  0
 12 11  1  0
 13 12  1  0
 14 21  1  0
 14  8  1  0
 15 14  2  0
 17 16  1  0
 18 17  1  0
 18 19  1  1
 20 18  1  0
 20 21  1  6
 22 20  1  0
 23 22  2  0
 24 22  1  0
M  END
$$$$
