SKI.pdb
     RDKit          3D

 24 23  0  0  1  0  0  0  0  0999 V2000
   28.1540  -20.8209  -17.3005 O   0  0  0  0  0  0  0  0  0  0  0  0
   27.2963  -20.3150  -18.2541 C   0  0  0  0  0  0  0  0  0  0  0  0
   26.7528  -18.9525  -17.8839 C   0  0  2  0  0  0  0  0  0  0  0  0
   27.8030  -17.9587  -17.9805 N   0  0  0  0  0  0  0  0  0  0  0  0
   26.1055  -18.9379  -16.5537 C   0  0  0  0  0  0  0  0  0  0  0  0
   26.7447  -18.4480  -15.5942 O   0  0  0  0  0  0  0  0  0  0  0  0
   24.8014  -19.4627  -16.3714 N   0  0  0  0  0  0  0  0  0  0  0  0
   24.1643  -19.5502  -15.0738 C   0  0  1  0  0  0  0  0  0  0  0  0
   22.7450  -20.0335  -15.2775 C   0  0  0  0  0  0  0  0  0  0  0  0
   21.9867  -20.0691  -13.9631 C   0  0  0  0  0  0  0  0  0  0  0  0
   20.5969  -20.6132  -14.1363 C   0  0  0  0  0  0  0  0  0  0  0  0
   19.9344  -20.5553  -12.7543 C   0  0  0  0  0  0  0  0  0  0  0  0
   18.5747  -21.0590  -12.8451 N   0  0  0  0  0  0  0  0  0  0  0  0
   24.8747  -20.5026  -14.1632 C   0  0  0  0  0  0  0  0  0  0  0  0
   25.1180  -21.6782  -14.4911 O   0  0  0  0  0  0  0  0  0  0  0  0
   29.6218  -20.1768  -12.6626 C   0  0  0  0  0  0  0  0  0  0  0  0
   28.2019  -20.6212  -12.9091 C   0  0  0  0  0  0  0  0  0  0  0  0
   27.3610  -20.4496  -11.6511 C   0  0  2  0  0  0  0  0  0  0  0  0
   27.8981  -21.5142  -10.6790 C   0  0  0  0  0  0  0  0  0  0  0  0
   25.9023  -20.7675  -11.8743 C   0  0  2  0  0  0  0  0  0  0  0  0
   25.2571  -20.0031  -12.9102 N   0  0  0  0  0  0  0  0  0  0  0  0
   25.1510  -20.9006  -10.6388 C   0  0  0  0  0  0  0  0  0  0  0  0
   24.2340  -20.1439  -10.2510 O   0  0  0  0  0  0  0  0  0  0  0  0
   25.4618  -21.9707   -9.7789 O   0  0  0  0  0  0  0  0  0  0  0  0
  2  1  1  0
  3  2  1  0
  3  4  1  1
  5  6  2  0
  5  3  1  0
  7  5  1  0
  8  7  1  0
  9 10  1  0
  8  9  1  6
 10 11  1  0
 12 11  1  0
 13 12  1  0
 14 21  1  0
 14  8  1  0
 15 14  2  0
 17 16  1  0
 18 17  1  0
 18 19  1  1
 20 18  1  0
 20 21  1  6
 22 20  1  0
 23 22  2  0
 24 22  1  0
M  END
$$$$
