SKI.pdb
     RDKit          3D

 24 23  0  0  1  0  0  0  0  0999 V2000
   15.9269  -14.9257  -14.3512 O   0  0  0  0  0  0  0  0  0  0  0  0
   16.6881  -13.7888  -14.5212 C   0  0  0  0  0  0  0  0  0  0  0  0
   16.7274  -13.3245  -15.9606 C   0  0  2  0  0  0  0  0  0  0  0  0
   17.3452  -14.3391  -16.7903 N   0  0  0  0  0  0  0  0  0  0  0  0
   17.3881  -12.0103  -16.1189 C   0  0  0  0  0  0  0  0  0  0  0  0
   18.5468  -11.9883  -16.5945 O   0  0  0  0  0  0  0  0  0  0  0  0
   16.7291  -10.8127  -15.7436 N   0  0  0  0  0  0  0  0  0  0  0  0
   17.3353   -9.5051  -15.8852 C   0  0  1  0  0  0  0  0  0  0  0  0
   16.2695   -8.4617  -15.6300 C   0  0  0  0  0  0  0  0  0  0  0  0
   15.2270   -8.4653  -16.7331 C   0  0  0  0  0  0  0  0  0  0  0  0
   14.0665   -7.5688  -16.4058 C   0  0  0  0  0  0  0  0  0  0  0  0
   13.0759   -7.7016  -17.5691 C   0  0  0  0  0  0  0  0  0  0  0  0
   11.8811   -6.9266  -17.2814 N   0  0  0  0  0  0  0  0  0  0  0  0
   18.4573   -9.2990  -14.9161 C   0  0  0  0  0  0  0  0  0  0  0  0
   18.3761   -9.6438  -13.7232 O   0  0  0  0  0  0  0  0  0  0  0  0
   23.8595  -10.8123  -13.9049 C   0  0  0  0  0  0  0  0  0  0  0  0
   23.0224   -9.5579  -13.8923 C   0  0  0  0  0  0  0  0  0  0  0  0
   21.7839   -9.7318  -14.7614 C   0  0  2  0  0  0  0  0  0  0  0  0
   22.3264   -9.7914  -16.1998 C   0  0  0  0  0  0  0  0  0  0  0  0
   20.8549   -8.5436  -14.7007 C   0  0  2  0  0  0  0  0  0  0  0  0
   19.6166   -8.6929  -15.4205 N   0  0  0  0  0  0  0  0  0  0  0  0
   21.5362   -7.2753  -14.8900 C   0  0  0  0  0  0  0  0  0  0  0  0
   22.5198   -6.8645  -14.2360 O   0  0  0  0  0  0  0  0  0  0  0  0
   21.0682   -6.4080  -15.8950 O   0  0  0  0  0  0  0  0  0  0  0  0
  2  1  1  0
  3  2  1  0
  3  4  1  6
  5  6  2  0
  5  3  1  0
  7  5  1  0
  8  7  1  0
  9 10  1  0
  8  9  1  1
 10 11  1  0
 12 11  1  0
 13 12  1  0
 14 21  1  0
 14  8  1  0
 15 14  2  0
 17 16  1  0
 18 17  1  0
 18 19  1  6
 20 18  1  0
 20 21  1  6
 22 20  1  0
 23 22  2  0
 24 22  1  0
M  END
$$$$
