PNG.pdb
     RDKit          3D

 20 20  0  0  1  0  0  0  0  0999 V2000
   27.3102  -10.5362  -16.5190 N   0  0  0  0  0  0  0  0  0  0  0  0
   28.2844  -11.2613  -15.7265 C   0  0  0  0  0  0  0  0  0  0  0  0
   27.3800  -12.3500  -15.1325 C   0  0  0  0  0  0  0  0  0  0  0  0
   26.7133  -12.8247  -16.4315 C   0  0  0  0  0  0  0  0  0  0  0  0
   26.4011  -11.5146  -17.0864 C   0  0  1  0  0  0  0  0  0  0  0  0
   24.9949  -11.1050  -16.9562 C   0  0  0  0  0  0  0  0  0  0  0  0
   24.0384  -11.8115  -17.3849 O   0  0  0  0  0  0  0  0  0  0  0  0
   20.4646   -8.7951  -15.8569 N   0  0  0  0  0  0  0  0  0  0  0  0
   21.2362   -9.3713  -14.8078 C   0  0  0  0  0  0  0  0  0  0  0  0
   20.6629   -9.4914  -13.7079 O   0  0  0  0  0  0  0  0  0  0  0  0
   22.6217   -9.8051  -14.9841 C   0  0  0  0  0  0  0  0  0  0  0  0
   23.2469   -9.4225  -16.2824 C   0  0  2  0  0  0  0  0  0  0  0  0
   24.6452   -9.8866  -16.3349 N   0  0  0  0  0  0  0  0  0  0  0  0
   23.2450   -7.9670  -16.5666 C   0  0  0  0  0  0  0  0  0  0  0  0
   22.2228   -7.2777  -16.7703 O   0  0  0  0  0  0  0  0  0  0  0  0
   24.4788   -7.2155  -16.6292 N   0  0  0  0  0  0  0  0  0  0  0  0
   24.4685   -5.7876  -16.9019 C   0  0  0  0  0  0  0  0  0  0  0  0
   24.1114   -5.0473  -15.6905 C   0  0  0  0  0  0  0  0  0  0  0  0
   23.7140   -5.6508  -14.6532 O   0  0  0  0  0  0  0  0  0  0  0  0
   24.2060   -3.6719  -15.6693 O   0  0  0  0  0  0  0  0  0  0  0  0
  2  1  1  0
  3  2  1  0
  4  3  1  0
  4  5  1  0
  5  1  1  0
  6 13  1  0
  5  6  1  1
  7  6  2  0
  8  9  1  0
  9 10  2  0
 11  9  1  0
 12 11  1  1
 12 13  1  0
 12 14  1  0
 14 16  1  0
 15 14  2  0
 16 17  1  0
 18 17  1  0
 18 20  1  0
 19 18  2  0
M  END
$$$$
