PNG.pdb
     RDKit          3D

 20 20  0  0  1  0  0  0  0  0999 V2000
   37.8740   -4.8842   -8.3785 N   0  0  0  0  0  0  0  0  0  0  0  0
   38.2341   -6.2559   -8.6815 C   0  0  0  0  0  0  0  0  0  0  0  0
   38.1277   -6.8700   -7.2788 C   0  0  0  0  0  0  0  0  0  0  0  0
   36.7338   -6.3450   -6.9064 C   0  0  0  0  0  0  0  0  0  0  0  0
   36.8316   -4.9243   -7.3698 C   0  0  1  0  0  0  0  0  0  0  0  0
   37.0724   -3.9606   -6.2857 C   0  0  0  0  0  0  0  0  0  0  0  0
   36.3338   -3.8896   -5.2624 O   0  0  0  0  0  0  0  0  0  0  0  0
   39.5788   -1.7801   -2.0881 N   0  0  0  0  0  0  0  0  0  0  0  0
   39.5092   -2.7215   -3.1543 C   0  0  0  0  0  0  0  0  0  0  0  0
   39.3119   -3.9074   -2.8265 O   0  0  0  0  0  0  0  0  0  0  0  0
   39.6571   -2.3451   -4.5598 C   0  0  0  0  0  0  0  0  0  0  0  0
   38.3823   -2.0604   -5.2788 C   0  0  2  0  0  0  0  0  0  0  0  0
   38.1576   -3.0592   -6.3396 N   0  0  0  0  0  0  0  0  0  0  0  0
   38.3090   -0.7171   -5.9027 C   0  0  0  0  0  0  0  0  0  0  0  0
   39.0076   -0.3348   -6.8656 O   0  0  0  0  0  0  0  0  0  0  0  0
   37.3840    0.2832   -5.4182 N   0  0  0  0  0  0  0  0  0  0  0  0
   37.3366    1.6068   -6.0174 C   0  0  0  0  0  0  0  0  0  0  0  0
   36.3236    2.4251   -5.3487 C   0  0  0  0  0  0  0  0  0  0  0  0
   36.1313    3.6275   -5.6882 O   0  0  0  0  0  0  0  0  0  0  0  0
   35.5625    1.8870   -4.3327 O   0  0  0  0  0  0  0  0  0  0  0  0
  2  1  1  0
  3  2  1  0
  4  3  1  0
  4  5  1  0
  5  1  1  0
  6 13  1  0
  5  6  1  1
  7  6  2  0
  8  9  1  0
  9 10  2  0
 11  9  1  0
 12 11  1  6
 12 13  1  0
 12 14  1  0
 14 16  1  0
 15 14  2  0
 16 17  1  0
 18 17  1  0
 18 20  1  0
 19 18  2  0
M  END
$$$$
