PNG.pdb
     RDKit          3D

 20 20  0  0  1  0  0  0  0  0999 V2000
   21.3980   -9.8627  -19.1345 N   0  0  0  0  0  0  0  0  0  0  0  0
   21.8735  -10.9371  -19.9846 C   0  0  0  0  0  0  0  0  0  0  0  0
   20.7723  -11.9763  -19.7330 C   0  0  0  0  0  0  0  0  0  0  0  0
   19.5519  -11.0782  -19.9805 C   0  0  0  0  0  0  0  0  0  0  0  0
   19.9503   -9.8440  -19.2315 C   0  0  1  0  0  0  0  0  0  0  0  0
   19.3085   -9.7143  -17.9150 C   0  0  0  0  0  0  0  0  0  0  0  0
   18.0548   -9.6351  -17.7745 O   0  0  0  0  0  0  0  0  0  0  0  0
   16.9924  -11.0003  -15.4206 N   0  0  0  0  0  0  0  0  0  0  0  0
   18.1320  -11.5048  -14.7315 C   0  0  0  0  0  0  0  0  0  0  0  0
   17.9879  -12.6063  -14.1667 O   0  0  0  0  0  0  0  0  0  0  0  0
   19.4080  -10.7925  -14.6745 C   0  0  0  0  0  0  0  0  0  0  0  0
   19.4455   -9.4963  -15.4102 C   0  0  2  0  0  0  0  0  0  0  0  0
   20.0761   -9.6741  -16.7309 N   0  0  0  0  0  0  0  0  0  0  0  0
   20.1673   -8.4064  -14.7100 C   0  0  0  0  0  0  0  0  0  0  0  0
   19.9084   -8.0003  -13.5570 O   0  0  0  0  0  0  0  0  0  0  0  0
   21.2666   -7.7110  -15.3415 N   0  0  0  0  0  0  0  0  0  0  0  0
   21.9489   -6.6224  -14.6614 C   0  0  0  0  0  0  0  0  0  0  0  0
   21.2673   -5.3554  -14.9317 C   0  0  0  0  0  0  0  0  0  0  0  0
   20.2041   -5.3220  -15.6149 O   0  0  0  0  0  0  0  0  0  0  0  0
   21.7833   -4.1755  -14.4393 O   0  0  0  0  0  0  0  0  0  0  0  0
  2  1  1  0
  3  2  1  0
  4  3  1  0
  4  5  1  0
  5  1  1  0
  6 13  1  0
  5  6  1  1
  7  6  2  0
  8  9  1  0
  9 10  2  0
 11  9  1  0
 12 11  1  1
 12 13  1  0
 12 14  1  0
 14 16  1  0
 15 14  2  0
 16 17  1  0
 18 17  1  0
 18 20  1  0
 19 18  2  0
M  END
$$$$
