PNG.pdb
     RDKit          3D

 20 20  0  0  1  0  0  0  0  0999 V2000
   26.0898  -10.0563  -15.9448 N   0  0  0  0  0  0  0  0  0  0  0  0
   27.0083  -10.9957  -15.3308 C   0  0  0  0  0  0  0  0  0  0  0  0
   26.0908  -12.2210  -15.2160 C   0  0  0  0  0  0  0  0  0  0  0  0
   25.5717  -12.2518  -16.6605 C   0  0  0  0  0  0  0  0  0  0  0  0
   25.2768  -10.8013  -16.8879 C   0  0  1  0  0  0  0  0  0  0  0  0
   23.8505  -10.4605  -16.7799 C   0  0  0  0  0  0  0  0  0  0  0  0
   22.9670  -10.9924  -17.5107 O   0  0  0  0  0  0  0  0  0  0  0  0
   22.1034  -11.7737  -13.3100 N   0  0  0  0  0  0  0  0  0  0  0  0
   21.3827  -11.0991  -14.3364 C   0  0  0  0  0  0  0  0  0  0  0  0
   20.7399  -11.8227  -15.1213 O   0  0  0  0  0  0  0  0  0  0  0  0
   21.3801   -9.6440  -14.4830 C   0  0  0  0  0  0  0  0  0  0  0  0
   21.9754   -9.1321  -15.7504 C   0  0  2  0  0  0  0  0  0  0  0  0
   23.3975   -9.5107  -15.8388 N   0  0  0  0  0  0  0  0  0  0  0  0
   21.8894   -7.6622  -15.9267 C   0  0  0  0  0  0  0  0  0  0  0  0
   20.8264   -7.0073  -15.9778 O   0  0  0  0  0  0  0  0  0  0  0  0
   23.0810   -6.8534  -16.0564 N   0  0  0  0  0  0  0  0  0  0  0  0
   22.9883   -5.4158  -16.2509 C   0  0  0  0  0  0  0  0  0  0  0  0
   22.8845   -4.7393  -14.9568 C   0  0  0  0  0  0  0  0  0  0  0  0
   22.9686   -3.4808  -14.8725 O   0  0  0  0  0  0  0  0  0  0  0  0
   22.6924   -5.4755  -13.8069 O   0  0  0  0  0  0  0  0  0  0  0  0
  2  1  1  0
  3  2  1  0
  4  3  1  0
  4  5  1  0
  5  1  1  0
  6 13  1  0
  5  6  1  1
  7  6  2  0
  8  9  1  0
  9 10  2  0
 11  9  1  0
 12 11  1  1
 12 13  1  0
 12 14  1  0
 14 16  1  0
 15 14  2  0
 16 17  1  0
 18 17  1  0
 18 20  1  0
 19 18  2  0
M  END
$$$$
