PNG.pdb
     RDKit          3D

 20 20  0  0  1  0  0  0  0  0999 V2000
   21.7754  -11.5619  -16.9390 N   0  0  0  0  0  0  0  0  0  0  0  0
   21.4317  -12.8639  -17.4771 C   0  0  0  0  0  0  0  0  0  0  0  0
   20.0418  -12.5518  -18.0488 C   0  0  0  0  0  0  0  0  0  0  0  0
   20.4029  -11.2917  -18.8481 C   0  0  0  0  0  0  0  0  0  0  0  0
   21.2628  -10.5650  -17.8604 C   0  0  1  0  0  0  0  0  0  0  0  0
   20.5723   -9.4697  -17.1636 C   0  0  0  0  0  0  0  0  0  0  0  0
   19.9993   -8.5263  -17.7795 O   0  0  0  0  0  0  0  0  0  0  0  0
   17.1075  -10.8244  -14.8481 N   0  0  0  0  0  0  0  0  0  0  0  0
   17.5678   -9.4863  -15.0074 C   0  0  0  0  0  0  0  0  0  0  0  0
   16.9667   -8.7969  -15.8538 O   0  0  0  0  0  0  0  0  0  0  0  0
   18.6783   -8.9289  -14.2360 C   0  0  0  0  0  0  0  0  0  0  0  0
   19.7894   -8.3535  -15.0466 C   0  0  2  0  0  0  0  0  0  0  0  0
   20.5160   -9.4237  -15.7538 N   0  0  0  0  0  0  0  0  0  0  0  0
   20.7826   -7.5718  -14.2710 C   0  0  0  0  0  0  0  0  0  0  0  0
   21.5963   -8.0553  -13.4552 O   0  0  0  0  0  0  0  0  0  0  0  0
   20.8806   -6.1362  -14.4132 N   0  0  0  0  0  0  0  0  0  0  0  0
   21.9314   -5.3907  -13.7400 C   0  0  0  0  0  0  0  0  0  0  0  0
   21.7785   -3.9587  -14.0021 C   0  0  0  0  0  0  0  0  0  0  0  0
   20.8718   -3.5320  -14.7727 O   0  0  0  0  0  0  0  0  0  0  0  0
   22.6300   -3.0532  -13.4053 O   0  0  0  0  0  0  0  0  0  0  0  0
  2  1  1  0
  3  2  1  0
  4  3  1  0
  4  5  1  0
  5  1  1  0
  6 13  1  0
  5  6  1  1
  7  6  2  0
  8  9  1  0
  9 10  2  0
 11  9  1  0
 12 11  1  1
 12 13  1  0
 12 14  1  0
 14 16  1  0
 15 14  2  0
 16 17  1  0
 18 17  1  0
 18 20  1  0
 19 18  2  0
M  END
$$$$
