PNG.pdb
     RDKit          3D

 20 20  0  0  1  0  0  0  0  0999 V2000
   17.0831  -10.3462  -12.9944 N   0  0  0  0  0  0  0  0  0  0  0  0
   17.3966  -11.7521  -12.8266 C   0  0  0  0  0  0  0  0  0  0  0  0
   16.1167  -12.2230  -12.1220 C   0  0  0  0  0  0  0  0  0  0  0  0
   15.0895  -11.6181  -13.0896 C   0  0  0  0  0  0  0  0  0  0  0  0
   15.6681  -10.2533  -13.3022 C   0  0  1  0  0  0  0  0  0  0  0  0
   15.0008   -9.1972  -12.5267 C   0  0  0  0  0  0  0  0  0  0  0  0
   13.7630   -8.9604  -12.6251 O   0  0  0  0  0  0  0  0  0  0  0  0
   14.9281   -5.8675   -7.4634 N   0  0  0  0  0  0  0  0  0  0  0  0
   14.6828   -6.8663   -8.4484 C   0  0  0  0  0  0  0  0  0  0  0  0
   13.5870   -7.4546   -8.3714 O   0  0  0  0  0  0  0  0  0  0  0  0
   15.6432   -7.2013   -9.4993 C   0  0  0  0  0  0  0  0  0  0  0  0
   15.0729   -7.2994  -10.8734 C   0  0  2  0  0  0  0  0  0  0  0  0
   15.7239   -8.3898  -11.6222 N   0  0  0  0  0  0  0  0  0  0  0  0
   15.1920   -6.0633  -11.6840 C   0  0  0  0  0  0  0  0  0  0  0  0
   14.3550   -5.1357  -11.7038 O   0  0  0  0  0  0  0  0  0  0  0  0
   16.3339   -5.8388  -12.5422 N   0  0  0  0  0  0  0  0  0  0  0  0
   16.4732   -4.5987  -13.2879 C   0  0  0  0  0  0  0  0  0  0  0  0
   17.1397   -3.5891  -12.4637 C   0  0  0  0  0  0  0  0  0  0  0  0
   17.4626   -3.8366  -11.2668 O   0  0  0  0  0  0  0  0  0  0  0  0
   17.4242   -2.3468  -12.9900 O   0  0  0  0  0  0  0  0  0  0  0  0
  2  1  1  0
  3  2  1  0
  4  3  1  0
  4  5  1  0
  5  1  1  0
  6 13  1  0
  5  6  1  1
  7  6  2  0
  8  9  1  0
  9 10  2  0
 11  9  1  0
 12 11  1  1
 12 13  1  0
 12 14  1  0
 14 16  1  0
 15 14  2  0
 16 17  1  0
 18 17  1  0
 18 20  1  0
 19 18  2  0
M  END
$$$$
