PNG.pdb
     RDKit          3D

 20 20  0  0  1  0  0  0  0  0999 V2000
   17.1079  -10.7361  -15.2308 N   0  0  0  0  0  0  0  0  0  0  0  0
   16.3951  -11.9043  -15.7105 C   0  0  0  0  0  0  0  0  0  0  0  0
   17.4215  -12.4414  -16.7176 C   0  0  0  0  0  0  0  0  0  0  0  0
   18.6592  -12.4271  -15.8094 C   0  0  0  0  0  0  0  0  0  0  0  0
   18.5126  -11.0908  -15.1495 C   0  0  1  0  0  0  0  0  0  0  0  0
   19.3807  -10.0488  -15.7173 C   0  0  0  0  0  0  0  0  0  0  0  0
   20.6401  -10.1532  -15.7443 O   0  0  0  0  0  0  0  0  0  0  0  0
   18.4240   -8.8723  -20.1544 N   0  0  0  0  0  0  0  0  0  0  0  0
   19.4172   -8.5782  -19.1771 C   0  0  0  0  0  0  0  0  0  0  0  0
   20.4222   -9.3151  -19.1779 O   0  0  0  0  0  0  0  0  0  0  0  0
   19.2902   -7.4819  -18.2175 C   0  0  0  0  0  0  0  0  0  0  0  0
   19.7005   -7.8086  -16.8218 C   0  0  2  0  0  0  0  0  0  0  0  0
   18.8375   -8.8679  -16.2682 N   0  0  0  0  0  0  0  0  0  0  0  0
   19.6661   -6.6628  -15.8810 C   0  0  0  0  0  0  0  0  0  0  0  0
   18.6355   -6.0398  -15.5474 O   0  0  0  0  0  0  0  0  0  0  0  0
   20.8747   -6.1686  -15.2596 N   0  0  0  0  0  0  0  0  0  0  0  0
   20.8350   -5.0360  -14.3493 C   0  0  0  0  0  0  0  0  0  0  0  0
   22.1894   -4.6981  -13.9084 C   0  0  0  0  0  0  0  0  0  0  0  0
   23.1709   -5.4413  -14.1954 O   0  0  0  0  0  0  0  0  0  0  0  0
   22.4094   -3.5555  -13.1688 O   0  0  0  0  0  0  0  0  0  0  0  0
  2  1  1  0
  3  2  1  0
  4  3  1  0
  4  5  1  0
  5  1  1  0
  6 13  1  0
  5  6  1  6
  7  6  2  0
  8  9  1  0
  9 10  2  0
 11  9  1  0
 12 11  1  6
 12 13  1  0
 12 14  1  0
 14 16  1  0
 15 14  2  0
 16 17  1  0
 18 17  1  0
 18 20  1  0
 19 18  2  0
M  END
$$$$
