PNG.pdb
     RDKit          3D

 20 20  0  0  1  0  0  0  0  0999 V2000
   21.6141  -11.2959  -16.4260 N   0  0  0  0  0  0  0  0  0  0  0  0
   21.5636  -12.2489  -17.5179 C   0  0  0  0  0  0  0  0  0  0  0  0
   23.0008  -12.1226  -18.0418 C   0  0  0  0  0  0  0  0  0  0  0  0
   23.7437  -12.2890  -16.7086 C   0  0  0  0  0  0  0  0  0  0  0  0
   22.9255  -11.4087  -15.8151 C   0  0  1  0  0  0  0  0  0  0  0  0
   23.5319  -10.0940  -15.5585 C   0  0  0  0  0  0  0  0  0  0  0  0
   24.6517   -9.9615  -14.9871 O   0  0  0  0  0  0  0  0  0  0  0  0
   24.7596   -5.0158  -15.4798 N   0  0  0  0  0  0  0  0  0  0  0  0
   24.7730   -5.7316  -16.7108 C   0  0  0  0  0  0  0  0  0  0  0  0
   25.3565   -5.1761  -17.6616 O   0  0  0  0  0  0  0  0  0  0  0  0
   24.1468   -7.0428  -16.8766 C   0  0  0  0  0  0  0  0  0  0  0  0
   23.4650   -7.5790  -15.6639 C   0  0  2  0  0  0  0  0  0  0  0  0
   22.8812   -8.9029  -15.9469 N   0  0  0  0  0  0  0  0  0  0  0  0
   22.3847   -6.7164  -15.1273 C   0  0  0  0  0  0  0  0  0  0  0  0
   21.2302   -6.6367  -15.5987 O   0  0  0  0  0  0  0  0  0  0  0  0
   22.6043   -5.8737  -13.9729 N   0  0  0  0  0  0  0  0  0  0  0  0
   21.5294   -5.0601  -13.4291 C   0  0  0  0  0  0  0  0  0  0  0  0
   21.3384   -3.8646  -14.2520 C   0  0  0  0  0  0  0  0  0  0  0  0
   22.0857   -2.8543  -14.1141 O   0  0  0  0  0  0  0  0  0  0  0  0
   20.3323   -3.8287  -15.1940 O   0  0  0  0  0  0  0  0  0  0  0  0
  2  1  1  0
  3  2  1  0
  4  3  1  0
  4  5  1  0
  5  1  1  0
  6 13  1  0
  5  6  1  6
  7  6  2  0
  8  9  1  0
  9 10  2  0
 11  9  1  0
 12 11  1  6
 12 13  1  0
 12 14  1  0
 14 16  1  0
 15 14  2  0
 16 17  1  0
 18 17  1  0
 18 20  1  0
 19 18  2  0
M  END
$$$$
