PNG.pdb
     RDKit          3D

 20 20  0  0  1  0  0  0  0  0999 V2000
   21.9412  -21.0729  -13.0233 N   0  0  0  0  0  0  0  0  0  0  0  0
   22.7246  -21.0233  -14.2427 C   0  0  0  0  0  0  0  0  0  0  0  0
   21.6677  -21.4933  -15.2517 C   0  0  0  0  0  0  0  0  0  0  0  0
   20.5310  -20.5432  -14.8487 C   0  0  0  0  0  0  0  0  0  0  0  0
   20.5976  -20.6370  -13.3555 C   0  0  1  0  0  0  0  0  0  0  0  0
   19.5708  -21.5105  -12.7683 C   0  0  0  0  0  0  0  0  0  0  0  0
   18.3334  -21.3071  -12.9269 O   0  0  0  0  0  0  0  0  0  0  0  0
   18.2993  -23.8947  -14.2726 N   0  0  0  0  0  0  0  0  0  0  0  0
   18.7820  -25.0015  -13.5176 C   0  0  0  0  0  0  0  0  0  0  0  0
   18.9319  -26.0685  -14.1436 O   0  0  0  0  0  0  0  0  0  0  0  0
   19.0913  -24.9178  -12.0906 C   0  0  0  0  0  0  0  0  0  0  0  0
   18.9101  -23.5701  -11.4792 C   0  0  2  0  0  0  0  0  0  0  0  0
   19.9273  -22.6337  -11.9910 N   0  0  0  0  0  0  0  0  0  0  0  0
   18.9812  -23.5464   -9.9982 C   0  0  0  0  0  0  0  0  0  0  0  0
   20.0318  -23.4242   -9.3328 O   0  0  0  0  0  0  0  0  0  0  0  0
   17.7882  -23.6678   -9.1900 N   0  0  0  0  0  0  0  0  0  0  0  0
   17.8495  -23.5236   -7.7448 C   0  0  0  0  0  0  0  0  0  0  0  0
   18.3876  -24.7436   -7.1406 C   0  0  0  0  0  0  0  0  0  0  0  0
   18.4195  -24.8877   -5.8851 O   0  0  0  0  0  0  0  0  0  0  0  0
   18.8692  -25.7564   -7.9426 O   0  0  0  0  0  0  0  0  0  0  0  0
  2  1  1  0
  3  2  1  0
  4  3  1  0
  4  5  1  0
  5  1  1  0
  6 13  1  0
  5  6  1  6
  7  6  2  0
  8  9  1  0
  9 10  2  0
 11  9  1  0
 12 11  1  6
 12 13  1  0
 12 14  1  0
 14 16  1  0
 15 14  2  0
 16 17  1  0
 18 17  1  0
 18 20  1  0
 19 18  2  0
M  END
$$$$
