PNG.pdb
     RDKit          3D

 20 20  0  0  1  0  0  0  0  0999 V2000
   26.7562  -18.6463  -14.8778 N   0  0  0  0  0  0  0  0  0  0  0  0
   28.1237  -18.2195  -14.6523 C   0  0  0  0  0  0  0  0  0  0  0  0
   28.6499  -19.4310  -13.8703 C   0  0  0  0  0  0  0  0  0  0  0  0
   28.1765  -20.5385  -14.8222 C   0  0  0  0  0  0  0  0  0  0  0  0
   26.7858  -20.0752  -15.1287 C   0  0  1  0  0  0  0  0  0  0  0  0
   25.7421  -20.7908  -14.3799 C   0  0  0  0  0  0  0  0  0  0  0  0
   25.5734  -22.0400  -14.4737 O   0  0  0  0  0  0  0  0  0  0  0  0
   26.0319  -20.4268   -9.8286 N   0  0  0  0  0  0  0  0  0  0  0  0
   25.2431  -21.1473  -10.7703 C   0  0  0  0  0  0  0  0  0  0  0  0
   25.6888  -22.2558  -11.1245 O   0  0  0  0  0  0  0  0  0  0  0  0
   23.9807  -20.6391  -11.3059 C   0  0  0  0  0  0  0  0  0  0  0  0
   23.8008  -20.8075  -12.7763 C   0  0  2  0  0  0  0  0  0  0  0  0
   24.8701  -20.1039  -13.5078 N   0  0  0  0  0  0  0  0  0  0  0  0
   22.5017  -20.3224  -13.3018 C   0  0  0  0  0  0  0  0  0  0  0  0
   22.2280  -19.1277  -13.5452 O   0  0  0  0  0  0  0  0  0  0  0  0
   21.4183  -21.2387  -13.5802 N   0  0  0  0  0  0  0  0  0  0  0  0
   20.1144  -20.7471  -13.9942 C   0  0  0  0  0  0  0  0  0  0  0  0
   20.0418  -20.6842  -15.4549 C   0  0  0  0  0  0  0  0  0  0  0  0
   20.9345  -20.0912  -16.1252 O   0  0  0  0  0  0  0  0  0  0  0  0
   18.9891  -21.2766  -16.1196 O   0  0  0  0  0  0  0  0  0  0  0  0
  2  1  1  0
  3  2  1  0
  4  3  1  0
  4  5  1  0
  5  1  1  0
  6 13  1  0
  5  6  1  1
  7  6  2  0
  8  9  1  0
  9 10  2  0
 11  9  1  0
 12 11  1  1
 12 13  1  0
 12 14  1  0
 14 16  1  0
 15 14  2  0
 16 17  1  0
 18 17  1  0
 18 20  1  0
 19 18  2  0
M  END
$$$$
