PNG.pdb
     RDKit          3D

 20 20  0  0  1  0  0  0  0  0999 V2000
   26.5371  -19.3658  -16.2172 N   0  0  0  0  0  0  0  0  0  0  0  0
   27.2938  -18.1916  -16.6064 C   0  0  0  0  0  0  0  0  0  0  0  0
   28.1310  -17.9873  -15.3362 C   0  0  0  0  0  0  0  0  0  0  0  0
   28.6659  -19.4183  -15.1845 C   0  0  0  0  0  0  0  0  0  0  0  0
   27.4250  -20.2151  -15.4452 C   0  0  1  0  0  0  0  0  0  0  0  0
   26.7806  -20.7278  -14.2270 C   0  0  0  0  0  0  0  0  0  0  0  0
   27.3748  -21.4908  -13.4131 O   0  0  0  0  0  0  0  0  0  0  0  0
   26.0674  -21.8752  -10.2799 N   0  0  0  0  0  0  0  0  0  0  0  0
   25.7210  -20.4961  -10.3581 C   0  0  0  0  0  0  0  0  0  0  0  0
   25.9626  -19.8119   -9.3450 O   0  0  0  0  0  0  0  0  0  0  0  0
   25.1163  -19.8929  -11.5453 C   0  0  0  0  0  0  0  0  0  0  0  0
   24.8157  -20.8406  -12.6563 C   0  0  2  0  0  0  0  0  0  0  0  0
   25.4497  -20.3832  -13.9063 N   0  0  0  0  0  0  0  0  0  0  0  0
   23.3716  -21.0373  -12.9301 C   0  0  0  0  0  0  0  0  0  0  0  0
   22.5233  -21.3916  -12.0838 O   0  0  0  0  0  0  0  0  0  0  0  0
   22.8248  -20.8228  -14.2514 N   0  0  0  0  0  0  0  0  0  0  0  0
   21.4234  -21.0899  -14.5303 C   0  0  0  0  0  0  0  0  0  0  0  0
   20.6981  -19.8311  -14.7101 C   0  0  0  0  0  0  0  0  0  0  0  0
   21.2242  -18.7265  -14.3922 O   0  0  0  0  0  0  0  0  0  0  0  0
   19.4223  -19.8384  -15.2329 O   0  0  0  0  0  0  0  0  0  0  0  0
  2  1  1  0
  3  2  1  0
  4  3  1  0
  4  5  1  0
  5  1  1  0
  6 13  1  0
  5  6  1  1
  7  6  2  0
  8  9  1  0
  9 10  2  0
 11  9  1  0
 12 11  1  1
 12 13  1  0
 12 14  1  0
 14 16  1  0
 15 14  2  0
 16 17  1  0
 18 17  1  0
 18 20  1  0
 19 18  2  0
M  END
$$$$
