PNG.pdb
     RDKit          3D

 20 20  0  0  1  0  0  0  0  0999 V2000
   25.4767   -9.6477  -15.8952 N   0  0  0  0  0  0  0  0  0  0  0  0
   26.1789  -10.8490  -15.4867 C   0  0  0  0  0  0  0  0  0  0  0  0
   24.9822  -11.7530  -15.1601 C   0  0  0  0  0  0  0  0  0  0  0  0
   24.1838  -11.5492  -16.4555 C   0  0  0  0  0  0  0  0  0  0  0  0
   24.2969  -10.0660  -16.6291 C   0  0  1  0  0  0  0  0  0  0  0  0
   23.0958   -9.3256  -16.2153 C   0  0  0  0  0  0  0  0  0  0  0  0
   21.9864   -9.4427  -16.8098 O   0  0  0  0  0  0  0  0  0  0  0  0
   19.3743   -8.9308  -14.9083 N   0  0  0  0  0  0  0  0  0  0  0  0
   20.0192   -8.8041  -13.6450 C   0  0  0  0  0  0  0  0  0  0  0  0
   19.3911   -9.2430  -12.6623 O   0  0  0  0  0  0  0  0  0  0  0  0
   21.3406   -8.1987  -13.4827 C   0  0  0  0  0  0  0  0  0  0  0  0
   21.9453   -7.6493  -14.7298 C   0  0  2  0  0  0  0  0  0  0  0  0
   23.1284   -8.4390  -15.1173 N   0  0  0  0  0  0  0  0  0  0  0  0
   22.3612   -6.2285  -14.6437 C   0  0  0  0  0  0  0  0  0  0  0  0
   21.6740   -5.3091  -14.1498 O   0  0  0  0  0  0  0  0  0  0  0  0
   23.6452   -5.7931  -15.1466 N   0  0  0  0  0  0  0  0  0  0  0  0
   24.0500   -4.4003  -15.0497 C   0  0  0  0  0  0  0  0  0  0  0  0
   23.7156   -3.6927  -16.2868 C   0  0  0  0  0  0  0  0  0  0  0  0
   23.0983   -4.2763  -17.2230 O   0  0  0  0  0  0  0  0  0  0  0  0
   24.0743   -2.3708  -16.4441 O   0  0  0  0  0  0  0  0  0  0  0  0
  2  1  1  0
  3  2  1  0
  4  3  1  0
  4  5  1  0
  5  1  1  0
  6 13  1  0
  5  6  1  1
  7  6  2  0
  8  9  1  0
  9 10  2  0
 11  9  1  0
 12 11  1  1
 12 13  1  0
 12 14  1  0
 14 16  1  0
 15 14  2  0
 16 17  1  0
 18 17  1  0
 18 20  1  0
 19 18  2  0
M  END
$$$$
