VMV.pdb
     RDKit          3D

 23 22  0  0  1  0  0  0  0  0999 V2000
    7.2879  -13.0055   20.1288 C   0  0  0  0  0  0  0  0  0  0  0  0
    8.4941  -13.7935   19.7412 C   0  0  2  0  0  0  0  0  0  0  0  0
    8.2814  -14.4602   18.3795 C   0  0  0  0  0  0  0  0  0  0  0  0
    8.8222  -14.9076   20.7117 C   0  0  2  0  0  0  0  0  0  0  0  0
    7.9063  -16.0184   20.5687 N   0  0  0  0  0  0  0  0  0  0  0  0
    8.8218  -14.4753   22.1160 C   0  0  0  0  0  0  0  0  0  0  0  0
    9.5585  -13.5340   22.5199 O   0  0  0  0  0  0  0  0  0  0  0  0
    5.2826  -11.6651   25.7196 C   0  0  0  0  0  0  0  0  0  0  0  0
    6.6565  -12.6965   26.3111 S   0  0  0  0  0  0  0  0  0  0  0  0
    6.2182  -14.4489   26.3001 C   0  0  0  0  0  0  0  0  0  0  0  0
    6.4336  -14.9893   24.8897 C   0  0  0  0  0  0  0  0  0  0  0  0
    7.8595  -14.6638   24.4390 C   0  0  2  0  0  0  0  0  0  0  0  0
    7.9882  -15.1026   23.0801 N   0  0  0  0  0  0  0  0  0  0  0  0
    8.8563  -15.3489   25.2823 C   0  0  0  0  0  0  0  0  0  0  0  0
    9.4246  -16.3989   24.8698 O   0  0  0  0  0  0  0  0  0  0  0  0
   11.8290  -15.4785   29.2883 C   0  0  0  0  0  0  0  0  0  0  0  0
   10.6547  -14.8567   28.5760 C   0  0  1  0  0  0  0  0  0  0  0  0
   11.0015  -13.4368   28.1931 C   0  0  0  0  0  0  0  0  0  0  0  0
   10.2671  -15.5925   27.3334 C   0  0  2  0  0  0  0  0  0  0  0  0
    9.2346  -14.8906   26.5748 N   0  0  0  0  0  0  0  0  0  0  0  0
    9.7627  -16.9314   27.6738 C   0  0  0  0  0  0  0  0  0  0  0  0
    8.5656  -17.1178   28.0071 O   0  0  0  0  0  0  0  0  0  0  0  0
   10.5872  -18.0448   27.6414 O   0  0  0  0  0  0  0  0  0  0  0  0
  2  1  1  1
  2  3  1  0
  4  2  1  0
  4  6  1  0
  4  5  1  1
  6  7  2  0
  8  9  1  0
 10  9  1  0
 11 10  1  0
 12 11  1  1
 13  6  1  0
 13 12  1  0
 14 12  1  0
 14 20  1  0
 15 14  2  0
 17 16  1  6
 18 17  1  0
 19 21  1  0
 19 20  1  1
 19 17  1  0
 21 23  1  0
 22 21  2  0
M  END
$$$$
