VMV.pdb
     RDKit          3D

 23 22  0  0  1  0  0  0  0  0999 V2000
    8.6332  -13.7049   18.0470 C   0  0  0  0  0  0  0  0  0  0  0  0
    7.8281  -13.9632   19.2763 C   0  0  2  0  0  0  0  0  0  0  0  0
    8.3007  -13.0650   20.4226 C   0  0  0  0  0  0  0  0  0  0  0  0
    7.9388  -15.3863   19.7799 C   0  0  2  0  0  0  0  0  0  0  0  0
    7.4125  -16.3290   18.8168 N   0  0  0  0  0  0  0  0  0  0  0  0
    7.2640  -15.6023   21.0670 C   0  0  0  0  0  0  0  0  0  0  0  0
    6.0086  -15.5391   21.1761 O   0  0  0  0  0  0  0  0  0  0  0  0
    7.7112  -20.1625   25.6587 C   0  0  0  0  0  0  0  0  0  0  0  0
    7.1728  -20.1858   23.9236 S   0  0  0  0  0  0  0  0  0  0  0  0
    6.7803  -18.5246   23.3322 C   0  0  0  0  0  0  0  0  0  0  0  0
    7.7723  -17.5463   23.9540 C   0  0  0  0  0  0  0  0  0  0  0  0
    7.4061  -16.1220   23.5304 C   0  0  2  0  0  0  0  0  0  0  0  0
    8.0012  -15.8925   22.2462 N   0  0  0  0  0  0  0  0  0  0  0  0
    7.9086  -15.1302   24.4989 C   0  0  0  0  0  0  0  0  0  0  0  0
    9.1155  -14.7594   24.4614 O   0  0  0  0  0  0  0  0  0  0  0  0
    7.1121  -11.6084   27.9287 C   0  0  0  0  0  0  0  0  0  0  0  0
    6.5694  -12.6955   27.0363 C   0  0  1  0  0  0  0  0  0  0  0  0
    5.7249  -12.0708   25.9502 C   0  0  0  0  0  0  0  0  0  0  0  0
    7.6421  -13.5069   26.3832 C   0  0  2  0  0  0  0  0  0  0  0  0
    7.0968  -14.5420   25.5082 N   0  0  0  0  0  0  0  0  0  0  0  0
    8.4786  -14.1562   27.4038 C   0  0  0  0  0  0  0  0  0  0  0  0
    8.2752  -15.3429   27.7630 O   0  0  0  0  0  0  0  0  0  0  0  0
    9.5274  -13.4856   28.0130 O   0  0  0  0  0  0  0  0  0  0  0  0
  2  1  1  6
  2  3  1  0
  4  2  1  0
  4  6  1  0
  4  5  1  6
  6  7  2  0
  8  9  1  0
 10  9  1  0
 11 10  1  0
 12 11  1  1
 13  6  1  0
 13 12  1  0
 14 12  1  0
 14 20  1  0
 15 14  2  0
 17 16  1  6
 18 17  1  0
 19 21  1  0
 19 20  1  6
 19 17  1  0
 21 23  1  0
 22 21  2  0
M  END
$$$$
