VMV.pdb
     RDKit          3D

 23 22  0  0  1  0  0  0  0  0999 V2000
    7.6716  -13.5391   20.1371 C   0  0  0  0  0  0  0  0  0  0  0  0
    8.4083  -14.7808   19.7609 C   0  0  2  0  0  0  0  0  0  0  0  0
    7.7136  -15.4796   18.5891 C   0  0  0  0  0  0  0  0  0  0  0  0
    8.4810  -15.7990   20.8785 C   0  0  2  0  0  0  0  0  0  0  0  0
    7.1769  -16.3513   21.1744 N   0  0  0  0  0  0  0  0  0  0  0  0
    9.0570  -15.2618   22.1188 C   0  0  0  0  0  0  0  0  0  0  0  0
   10.2692  -14.9199   22.1930 O   0  0  0  0  0  0  0  0  0  0  0  0
    5.2054  -12.4778   26.7421 C   0  0  0  0  0  0  0  0  0  0  0  0
    6.8865  -11.8058   26.8953 S   0  0  0  0  0  0  0  0  0  0  0  0
    8.1285  -13.0101   26.3756 C   0  0  0  0  0  0  0  0  0  0  0  0
    7.6224  -13.7101   25.1179 C   0  0  0  0  0  0  0  0  0  0  0  0
    8.7550  -14.5463   24.5178 C   0  0  2  0  0  0  0  0  0  0  0  0
    8.2687  -15.1049   23.2901 N   0  0  0  0  0  0  0  0  0  0  0  0
    9.1633  -15.6282   25.4325 C   0  0  0  0  0  0  0  0  0  0  0  0
    8.4228  -16.6390   25.5928 O   0  0  0  0  0  0  0  0  0  0  0  0
   13.0683  -16.8308   25.9090 C   0  0  0  0  0  0  0  0  0  0  0  0
   12.2644  -16.8103   27.1842 C   0  0  1  0  0  0  0  0  0  0  0  0
   12.6370  -15.5852   27.9863 C   0  0  0  0  0  0  0  0  0  0  0  0
   10.7886  -16.7795   26.9456 C   0  0  2  0  0  0  0  0  0  0  0  0
   10.3781  -15.6099   26.1726 N   0  0  0  0  0  0  0  0  0  0  0  0
   10.0683  -16.7640   28.2277 C   0  0  0  0  0  0  0  0  0  0  0  0
    9.4894  -15.7294   28.6441 O   0  0  0  0  0  0  0  0  0  0  0  0
    9.9977  -17.8908   29.0314 O   0  0  0  0  0  0  0  0  0  0  0  0
  2  1  1  1
  2  3  1  0
  4  2  1  0
  4  6  1  0
  4  5  1  1
  6  7  2  0
  8  9  1  0
 10  9  1  0
 11 10  1  0
 12 11  1  1
 13  6  1  0
 13 12  1  0
 14 12  1  0
 14 20  1  0
 15 14  2  0
 17 16  1  6
 18 17  1  0
 19 21  1  0
 19 20  1  6
 19 17  1  0
 21 23  1  0
 22 21  2  0
M  END
$$$$
