VMV.pdb
     RDKit          3D

 23 22  0  0  1  0  0  0  0  0999 V2000
    7.8475  -18.9746   20.6265 C   0  0  0  0  0  0  0  0  0  0  0  0
    6.6913  -18.0318   20.6430 C   0  0  2  0  0  0  0  0  0  0  0  0
    5.7101  -18.3703   19.5175 C   0  0  0  0  0  0  0  0  0  0  0  0
    7.0906  -16.5865   20.4366 C   0  0  2  0  0  0  0  0  0  0  0  0
    7.7585  -16.4001   19.1668 N   0  0  0  0  0  0  0  0  0  0  0  0
    7.9542  -16.0631   21.5038 C   0  0  0  0  0  0  0  0  0  0  0  0
    9.2055  -15.9822   21.3641 O   0  0  0  0  0  0  0  0  0  0  0  0
    6.1136  -11.4329   25.8963 C   0  0  0  0  0  0  0  0  0  0  0  0
    6.9145  -12.7235   26.8934 S   0  0  0  0  0  0  0  0  0  0  0  0
    8.0372  -13.7268   25.8953 C   0  0  0  0  0  0  0  0  0  0  0  0
    7.2392  -14.3490   24.7534 C   0  0  0  0  0  0  0  0  0  0  0  0
    8.1958  -15.0929   23.8187 C   0  0  2  0  0  0  0  0  0  0  0  0
    7.4127  -15.6248   22.7419 N   0  0  0  0  0  0  0  0  0  0  0  0
    8.8873  -16.1884   24.5228 C   0  0  0  0  0  0  0  0  0  0  0  0
    8.2225  -17.1133   25.0688 O   0  0  0  0  0  0  0  0  0  0  0  0
   12.3500  -17.7963   23.1368 C   0  0  0  0  0  0  0  0  0  0  0  0
   12.3077  -17.6925   24.6402 C   0  0  1  0  0  0  0  0  0  0  0  0
   13.1654  -16.5295   25.0818 C   0  0  0  0  0  0  0  0  0  0  0  0
   10.9269  -17.4818   25.1739 C   0  0  2  0  0  0  0  0  0  0  0  0
   10.3029  -16.2770   24.6323 N   0  0  0  0  0  0  0  0  0  0  0  0
   10.9624  -17.3665   26.6396 C   0  0  0  0  0  0  0  0  0  0  0  0
   11.2159  -18.3562   27.3710 O   0  0  0  0  0  0  0  0  0  0  0  0
   10.7173  -16.1602   27.2764 O   0  0  0  0  0  0  0  0  0  0  0  0
  2  1  1  6
  2  3  1  0
  4  2  1  0
  4  6  1  0
  4  5  1  6
  6  7  2  0
  8  9  1  0
 10  9  1  0
 11 10  1  0
 12 11  1  1
 13  6  1  0
 13 12  1  0
 14 12  1  0
 14 20  1  0
 15 14  2  0
 17 16  1  6
 18 17  1  0
 19 21  1  0
 19 20  1  6
 19 17  1  0
 21 23  1  0
 22 21  2  0
M  END
$$$$
