VMV.pdb
     RDKit          3D

 23 22  0  0  1  0  0  0  0  0999 V2000
    9.0481  -13.3355   18.8181 C   0  0  0  0  0  0  0  0  0  0  0  0
    7.6905  -13.5447   19.4005 C   0  0  2  0  0  0  0  0  0  0  0  0
    7.3325  -12.3957   20.3469 C   0  0  0  0  0  0  0  0  0  0  0  0
    7.5744  -14.8157   20.2143 C   0  0  2  0  0  0  0  0  0  0  0  0
    6.1990  -15.0913   20.5685 N   0  0  0  0  0  0  0  0  0  0  0  0
    8.3816  -14.7966   21.4418 C   0  0  0  0  0  0  0  0  0  0  0  0
    9.6423  -14.8314   21.4068 O   0  0  0  0  0  0  0  0  0  0  0  0
    5.5990  -12.2187   26.5120 C   0  0  0  0  0  0  0  0  0  0  0  0
    7.2517  -12.4363   27.2350 S   0  0  0  0  0  0  0  0  0  0  0  0
    8.2830  -13.5103   26.2123 C   0  0  0  0  0  0  0  0  0  0  0  0
    7.5682  -13.7405   24.8842 C   0  0  0  0  0  0  0  0  0  0  0  0
    8.4902  -14.5227   23.9461 C   0  0  2  0  0  0  0  0  0  0  0  0
    7.7723  -14.7379   22.7238 N   0  0  0  0  0  0  0  0  0  0  0  0
    8.8765  -15.8186   24.5340 C   0  0  0  0  0  0  0  0  0  0  0  0
    8.0192  -16.7365   24.6694 O   0  0  0  0  0  0  0  0  0  0  0  0
   12.2853  -19.2722   25.3392 C   0  0  0  0  0  0  0  0  0  0  0  0
   11.8882  -17.8906   24.8852 C   0  0  1  0  0  0  0  0  0  0  0  0
   11.8505  -17.8561   23.3750 C   0  0  0  0  0  0  0  0  0  0  0  0
   10.5467  -17.4699   25.3942 C   0  0  2  0  0  0  0  0  0  0  0  0
   10.1962  -16.1153   24.9743 N   0  0  0  0  0  0  0  0  0  0  0  0
   10.5239  -17.5202   26.8638 C   0  0  0  0  0  0  0  0  0  0  0  0
   10.6639  -16.4833   27.5595 O   0  0  0  0  0  0  0  0  0  0  0  0
   10.3469  -18.7147   27.5440 O   0  0  0  0  0  0  0  0  0  0  0  0
  2  1  1  1
  2  3  1  0
  4  2  1  0
  4  6  1  0
  4  5  1  1
  6  7  2  0
  8  9  1  0
 10  9  1  0
 11 10  1  0
 12 11  1  1
 13  6  1  0
 13 12  1  0
 14 12  1  0
 14 20  1  0
 15 14  2  0
 17 16  1  6
 18 17  1  0
 19 21  1  0
 19 20  1  1
 19 17  1  0
 21 23  1  0
 22 21  2  0
M  END
$$$$
