VMV.pdb
     RDKit          3D

 23 22  0  0  1  0  0  0  0  0999 V2000
   11.6224  -18.5977   22.1470 C   0  0  0  0  0  0  0  0  0  0  0  0
   10.2419  -18.4919   21.5912 C   0  0  2  0  0  0  0  0  0  0  0  0
   10.0744  -19.4323   20.3946 C   0  0  0  0  0  0  0  0  0  0  0  0
    9.8994  -17.1049   21.0911 C   0  0  2  0  0  0  0  0  0  0  0  0
   10.8227  -16.6714   20.0650 N   0  0  0  0  0  0  0  0  0  0  0  0
    9.8703  -16.0929   22.1559 C   0  0  0  0  0  0  0  0  0  0  0  0
   10.8687  -15.3624   22.4035 O   0  0  0  0  0  0  0  0  0  0  0  0
    5.6254  -11.9175   27.0557 C   0  0  0  0  0  0  0  0  0  0  0  0
    5.4774  -12.9977   25.6023 S   0  0  0  0  0  0  0  0  0  0  0  0
    7.0670  -13.2051   24.7697 C   0  0  0  0  0  0  0  0  0  0  0  0
    7.1737  -14.6497   24.2906 C   0  0  0  0  0  0  0  0  0  0  0  0
    8.6475  -14.9986   24.0704 C   0  0  2  0  0  0  0  0  0  0  0  0
    8.7114  -15.8952   22.9534 N   0  0  0  0  0  0  0  0  0  0  0  0
    9.2284  -15.6428   25.2627 C   0  0  0  0  0  0  0  0  0  0  0  0
    9.4798  -16.8808   25.2580 O   0  0  0  0  0  0  0  0  0  0  0  0
   11.2949  -15.3374   29.8058 C   0  0  0  0  0  0  0  0  0  0  0  0
   10.4439  -14.7138   28.7290 C   0  0  1  0  0  0  0  0  0  0  0  0
   11.1025  -13.4408   28.2507 C   0  0  0  0  0  0  0  0  0  0  0  0
   10.2464  -15.6083   27.5472 C   0  0  2  0  0  0  0  0  0  0  0  0
    9.5358  -14.9392   26.4602 N   0  0  0  0  0  0  0  0  0  0  0  0
    9.4797  -16.8011   27.9372 C   0  0  0  0  0  0  0  0  0  0  0  0
    8.2232  -16.8079   27.9257 O   0  0  0  0  0  0  0  0  0  0  0  0
   10.1113  -17.9691   28.3343 O   0  0  0  0  0  0  0  0  0  0  0  0
  2  1  1  6
  2  3  1  0
  4  2  1  0
  4  6  1  0
  4  5  1  6
  6  7  2  0
  8  9  1  0
 10  9  1  0
 11 10  1  0
 12 11  1  1
 13  6  1  0
 13 12  1  0
 14 12  1  0
 14 20  1  0
 15 14  2  0
 17 16  1  1
 18 17  1  0
 19 21  1  0
 19 20  1  6
 19 17  1  0
 21 23  1  0
 22 21  2  0
M  END
$$$$
