VMV.pdb
     RDKit          3D

 23 22  0  0  1  0  0  0  0  0999 V2000
    9.6170  -18.9695   22.5256 C   0  0  0  0  0  0  0  0  0  0  0  0
   10.2690  -18.1723   21.4461 C   0  0  2  0  0  0  0  0  0  0  0  0
   11.7363  -17.9046   21.7920 C   0  0  0  0  0  0  0  0  0  0  0  0
    9.6307  -16.8170   21.2300 C   0  0  2  0  0  0  0  0  0  0  0  0
   10.2419  -16.1170   20.1211 N   0  0  0  0  0  0  0  0  0  0  0  0
    9.6824  -15.9533   22.4175 C   0  0  0  0  0  0  0  0  0  0  0  0
   10.6473  -15.1670   22.6238 O   0  0  0  0  0  0  0  0  0  0  0  0
    6.4314  -11.7532   26.3404 C   0  0  0  0  0  0  0  0  0  0  0  0
    5.4902  -12.8519   25.2412 S   0  0  0  0  0  0  0  0  0  0  0  0
    6.5847  -13.8023   24.1633 C   0  0  0  0  0  0  0  0  0  0  0  0
    7.1717  -14.9559   24.9712 C   0  0  0  0  0  0  0  0  0  0  0  0
    8.6343  -15.1583   24.5687 C   0  0  2  0  0  0  0  0  0  0  0  0
    8.6432  -15.9687   23.3860 N   0  0  0  0  0  0  0  0  0  0  0  0
    9.3957  -15.8276   25.6393 C   0  0  0  0  0  0  0  0  0  0  0  0
    9.6811  -17.0546   25.5454 O   0  0  0  0  0  0  0  0  0  0  0  0
   11.5584  -13.6069   28.5399 C   0  0  0  0  0  0  0  0  0  0  0  0
   11.0798  -14.9831   28.9267 C   0  0  1  0  0  0  0  0  0  0  0  0
    9.8433  -14.8555   29.7857 C   0  0  0  0  0  0  0  0  0  0  0  0
   10.7415  -15.8383   27.7478 C   0  0  2  0  0  0  0  0  0  0  0  0
    9.8468  -15.1610   26.8123 N   0  0  0  0  0  0  0  0  0  0  0  0
   10.0925  -17.0808   28.1927 C   0  0  0  0  0  0  0  0  0  0  0  0
    8.8502  -17.2438   28.0987 O   0  0  0  0  0  0  0  0  0  0  0  0
   10.8246  -18.1252   28.7350 O   0  0  0  0  0  0  0  0  0  0  0  0
  2  1  1  1
  2  3  1  0
  4  2  1  0
  4  6  1  0
  4  5  1  6
  6  7  2  0
  8  9  1  0
 10  9  1  0
 11 10  1  0
 12 11  1  1
 13  6  1  0
 13 12  1  0
 14 12  1  0
 14 20  1  0
 15 14  2  0
 17 16  1  6
 18 17  1  0
 19 21  1  0
 19 20  1  6
 19 17  1  0
 21 23  1  0
 22 21  2  0
M  END
$$$$
