VMV.pdb
     RDKit          3D

 23 22  0  0  1  0  0  0  0  0999 V2000
    6.9371  -13.0355   20.1521 C   0  0  0  0  0  0  0  0  0  0  0  0
    8.2888  -13.5092   19.7341 C   0  0  2  0  0  0  0  0  0  0  0  0
    8.5758  -13.0962   18.2880 C   0  0  0  0  0  0  0  0  0  0  0  0
    8.4404  -15.0144   19.7827 C   0  0  2  0  0  0  0  0  0  0  0  0
    7.6003  -15.6611   18.7982 N   0  0  0  0  0  0  0  0  0  0  0  0
    8.1440  -15.5869   21.1030 C   0  0  0  0  0  0  0  0  0  0  0  0
    7.0008  -16.0378   21.3886 O   0  0  0  0  0  0  0  0  0  0  0  0
   12.2538  -18.8684   24.5351 C   0  0  0  0  0  0  0  0  0  0  0  0
   10.9734  -19.6231   23.4901 S   0  0  0  0  0  0  0  0  0  0  0  0
    9.6659  -18.4420   23.0920 C   0  0  0  0  0  0  0  0  0  0  0  0
    9.9737  -17.1270   23.8018 C   0  0  0  0  0  0  0  0  0  0  0  0
    8.8899  -16.1034   23.4557 C   0  0  2  0  0  0  0  0  0  0  0  0
    9.1374  -15.6561   22.1162 N   0  0  0  0  0  0  0  0  0  0  0  0
    8.9236  -14.9556   24.3806 C   0  0  0  0  0  0  0  0  0  0  0  0
    9.8721  -14.1231   24.3269 O   0  0  0  0  0  0  0  0  0  0  0  0
    6.8423  -11.7313   27.4602 C   0  0  0  0  0  0  0  0  0  0  0  0
    6.7501  -12.8650   26.4707 C   0  0  1  0  0  0  0  0  0  0  0  0
    6.3107  -12.3204   25.1314 C   0  0  0  0  0  0  0  0  0  0  0  0
    8.0482  -13.5817   26.2787 C   0  0  2  0  0  0  0  0  0  0  0  0
    7.9244  -14.7140   25.3639 N   0  0  0  0  0  0  0  0  0  0  0  0
    8.5471  -14.0807   27.5691 C   0  0  0  0  0  0  0  0  0  0  0  0
    8.8777  -13.2969   28.4938 O   0  0  0  0  0  0  0  0  0  0  0  0
    8.6738  -15.4379   27.8196 O   0  0  0  0  0  0  0  0  0  0  0  0
  2  1  1  6
  2  3  1  0
  4  2  1  0
  4  6  1  0
  4  5  1  6
  6  7  2  0
  8  9  1  0
 10  9  1  0
 11 10  1  0
 12 11  1  1
 13  6  1  0
 13 12  1  0
 14 12  1  0
 14 20  1  0
 15 14  2  0
 17 16  1  1
 18 17  1  0
 19 21  1  0
 19 20  1  6
 19 17  1  0
 21 23  1  0
 22 21  2  0
M  END
$$$$
