VMV.pdb
     RDKit          3D

 23 22  0  0  1  0  0  0  0  0999 V2000
    7.8618  -18.4325   22.0794 C   0  0  0  0  0  0  0  0  0  0  0  0
    8.7465  -17.9737   20.9690 C   0  0  2  0  0  0  0  0  0  0  0  0
   10.1685  -18.5065   21.1642 C   0  0  0  0  0  0  0  0  0  0  0  0
    8.8671  -16.4676   20.8791 C   0  0  2  0  0  0  0  0  0  0  0  0
    9.7402  -16.0722   19.7953 N   0  0  0  0  0  0  0  0  0  0  0  0
    9.3480  -15.8470   22.1210 C   0  0  0  0  0  0  0  0  0  0  0  0
   10.5776  -15.7816   22.3964 O   0  0  0  0  0  0  0  0  0  0  0  0
    5.1899  -12.8048   26.6290 C   0  0  0  0  0  0  0  0  0  0  0  0
    6.7762  -11.9276   26.5047 S   0  0  0  0  0  0  0  0  0  0  0  0
    8.1129  -13.0455   26.0286 C   0  0  0  0  0  0  0  0  0  0  0  0
    7.7089  -13.7565   24.7405 C   0  0  0  0  0  0  0  0  0  0  0  0
    8.8446  -14.6830   24.3005 C   0  0  2  0  0  0  0  0  0  0  0  0
    8.4439  -15.2929   23.0663 N   0  0  0  0  0  0  0  0  0  0  0  0
    9.1072  -15.7243   25.3108 C   0  0  0  0  0  0  0  0  0  0  0  0
    8.2482  -16.6226   25.5365 O   0  0  0  0  0  0  0  0  0  0  0  0
   11.9830  -18.1430   25.3413 C   0  0  0  0  0  0  0  0  0  0  0  0
   11.8642  -17.5667   26.7293 C   0  0  1  0  0  0  0  0  0  0  0  0
   12.9493  -16.5351   26.9331 C   0  0  0  0  0  0  0  0  0  0  0  0
   10.5444  -16.9100   26.9797 C   0  0  2  0  0  0  0  0  0  0  0  0
   10.3051  -15.7879   26.0754 N   0  0  0  0  0  0  0  0  0  0  0  0
   10.4801  -16.4128   28.3623 C   0  0  0  0  0  0  0  0  0  0  0  0
   10.3802  -15.1863   28.6160 O   0  0  0  0  0  0  0  0  0  0  0  0
   10.5270  -17.2772   29.4447 O   0  0  0  0  0  0  0  0  0  0  0  0
  2  1  1  1
  2  3  1  0
  4  2  1  0
  4  6  1  0
  4  5  1  6
  6  7  2  0
  8  9  1  0
 10  9  1  0
 11 10  1  0
 12 11  1  1
 13  6  1  0
 13 12  1  0
 14 12  1  0
 14 20  1  0
 15 14  2  0
 17 16  1  6
 18 17  1  0
 19 21  1  0
 19 20  1  6
 19 17  1  0
 21 23  1  0
 22 21  2  0
M  END
$$$$
