VMV.pdb
     RDKit          3D

 23 22  0  0  1  0  0  0  0  0999 V2000
    6.7724  -17.2832   18.7715 C   0  0  0  0  0  0  0  0  0  0  0  0
    7.5028  -17.0274   20.0471 C   0  0  2  0  0  0  0  0  0  0  0  0
    6.7118  -17.5807   21.2355 C   0  0  0  0  0  0  0  0  0  0  0  0
    7.7207  -15.5567   20.3311 C   0  0  2  0  0  0  0  0  0  0  0  0
    8.4769  -14.9218   19.2736 N   0  0  0  0  0  0  0  0  0  0  0  0
    8.3980  -15.3051   21.6104 C   0  0  0  0  0  0  0  0  0  0  0  0
    9.6428  -15.4624   21.7436 O   0  0  0  0  0  0  0  0  0  0  0  0
    6.1653  -11.0302   25.9361 C   0  0  0  0  0  0  0  0  0  0  0  0
    6.7721  -12.3173   27.0658 S   0  0  0  0  0  0  0  0  0  0  0  0
    7.8568  -13.4844   26.2147 C   0  0  0  0  0  0  0  0  0  0  0  0
    7.2940  -13.7331   24.8185 C   0  0  0  0  0  0  0  0  0  0  0  0
    8.2739  -14.6045   24.0295 C   0  0  2  0  0  0  0  0  0  0  0  0
    7.6755  -14.8724   22.7544 N   0  0  0  0  0  0  0  0  0  0  0  0
    8.5458  -15.8728   24.7307 C   0  0  0  0  0  0  0  0  0  0  0  0
    7.6194  -16.7132   24.9074 O   0  0  0  0  0  0  0  0  0  0  0  0
   10.7692  -18.5499   23.6274 C   0  0  0  0  0  0  0  0  0  0  0  0
   11.1119  -18.3103   25.0759 C   0  0  1  0  0  0  0  0  0  0  0  0
   12.3983  -17.5219   25.1578 C   0  0  0  0  0  0  0  0  0  0  0  0
   10.0533  -17.5517   25.8103 C   0  0  2  0  0  0  0  0  0  0  0  0
    9.8264  -16.2262   25.2394 N   0  0  0  0  0  0  0  0  0  0  0  0
   10.4331  -17.3895   27.2218 C   0  0  0  0  0  0  0  0  0  0  0  0
   10.7452  -16.2677   27.6940 O   0  0  0  0  0  0  0  0  0  0  0  0
   10.4630  -18.4683   28.0913 O   0  0  0  0  0  0  0  0  0  0  0  0
  2  1  1  6
  2  3  1  0
  4  2  1  0
  4  6  1  0
  4  5  1  6
  6  7  2  0
  8  9  1  0
 10  9  1  0
 11 10  1  0
 12 11  1  1
 13  6  1  0
 13 12  1  0
 14 12  1  0
 14 20  1  0
 15 14  2  0
 17 16  1  6
 18 17  1  0
 19 21  1  0
 19 20  1  6
 19 17  1  0
 21 23  1  0
 22 21  2  0
M  END
$$$$
