VMV.pdb
     RDKit          3D

 23 22  0  0  1  0  0  0  0  0999 V2000
   11.0432  -18.5229   22.0811 C   0  0  0  0  0  0  0  0  0  0  0  0
    9.6910  -18.2560   21.5098 C   0  0  2  0  0  0  0  0  0  0  0  0
    9.4673  -19.0985   20.2511 C   0  0  0  0  0  0  0  0  0  0  0  0
    9.4864  -16.8144   21.0965 C   0  0  2  0  0  0  0  0  0  0  0  0
   10.4663  -16.4030   20.1148 N   0  0  0  0  0  0  0  0  0  0  0  0
    9.5273  -15.8740   22.2248 C   0  0  0  0  0  0  0  0  0  0  0  0
   10.5688  -15.2190   22.5043 O   0  0  0  0  0  0  0  0  0  0  0  0
    5.1596  -11.1157   25.3437 C   0  0  0  0  0  0  0  0  0  0  0  0
    5.2244  -12.8546   25.8663 S   0  0  0  0  0  0  0  0  0  0  0  0
    6.8952  -13.5256   25.7205 C   0  0  0  0  0  0  0  0  0  0  0  0
    6.9387  -14.4466   24.5048 C   0  0  0  0  0  0  0  0  0  0  0  0
    8.3908  -14.8401   24.2242 C   0  0  2  0  0  0  0  0  0  0  0  0
    8.3906  -15.6634   23.0504 N   0  0  0  0  0  0  0  0  0  0  0  0
    8.9717  -15.5842   25.3569 C   0  0  0  0  0  0  0  0  0  0  0  0
    9.1254  -16.8359   25.2838 O   0  0  0  0  0  0  0  0  0  0  0  0
   11.3642  -15.6088   29.7482 C   0  0  0  0  0  0  0  0  0  0  0  0
   10.4075  -14.9317   28.8001 C   0  0  1  0  0  0  0  0  0  0  0  0
   10.9604  -13.5779   28.4197 C   0  0  0  0  0  0  0  0  0  0  0  0
   10.1781  -15.7104   27.5444 C   0  0  2  0  0  0  0  0  0  0  0  0
    9.3854  -14.9655   26.5692 N   0  0  0  0  0  0  0  0  0  0  0  0
    9.4773  -16.9671   27.8485 C   0  0  0  0  0  0  0  0  0  0  0  0
    8.2226  -17.0314   27.8709 O   0  0  0  0  0  0  0  0  0  0  0  0
   10.1719  -18.1344   28.1235 O   0  0  0  0  0  0  0  0  0  0  0  0
  2  1  1  6
  2  3  1  0
  4  2  1  0
  4  6  1  0
  4  5  1  6
  6  7  2  0
  8  9  1  0
 10  9  1  0
 11 10  1  0
 12 11  1  1
 13  6  1  0
 13 12  1  0
 14 12  1  0
 14 20  1  0
 15 14  2  0
 17 16  1  1
 18 17  1  0
 19 21  1  0
 19 20  1  6
 19 17  1  0
 21 23  1  0
 22 21  2  0
M  END
$$$$
