VMV.pdb
     RDKit          3D

 23 22  0  0  1  0  0  0  0  0999 V2000
   10.5321  -18.4367   21.8631 C   0  0  0  0  0  0  0  0  0  0  0  0
    9.2104  -17.9423   21.3787 C   0  0  2  0  0  0  0  0  0  0  0  0
    8.8655  -18.5758   20.0282 C   0  0  0  0  0  0  0  0  0  0  0  0
    9.1694  -16.4441   21.1666 C   0  0  2  0  0  0  0  0  0  0  0  0
   10.1747  -16.0183   20.2172 N   0  0  0  0  0  0  0  0  0  0  0  0
    9.3385  -15.6757   22.4074 C   0  0  0  0  0  0  0  0  0  0  0  0
   10.4707  -15.2661   22.7843 O   0  0  0  0  0  0  0  0  0  0  0  0
    5.0999  -11.0109   25.4104 C   0  0  0  0  0  0  0  0  0  0  0  0
    5.3253  -12.5587   26.3348 S   0  0  0  0  0  0  0  0  0  0  0  0
    6.9650  -13.2626   26.0533 C   0  0  0  0  0  0  0  0  0  0  0  0
    6.9080  -14.1263   24.7969 C   0  0  0  0  0  0  0  0  0  0  0  0
    8.3206  -14.6010   24.4488 C   0  0  2  0  0  0  0  0  0  0  0  0
    8.2288  -15.3615   23.2368 N   0  0  0  0  0  0  0  0  0  0  0  0
    8.8831  -15.4390   25.5237 C   0  0  0  0  0  0  0  0  0  0  0  0
    8.9056  -16.6964   25.4041 O   0  0  0  0  0  0  0  0  0  0  0  0
   11.7692  -15.7641   29.5952 C   0  0  0  0  0  0  0  0  0  0  0  0
   10.8828  -14.9360   28.7000 C   0  0  1  0  0  0  0  0  0  0  0  0
   11.6806  -13.7796   28.1438 C   0  0  0  0  0  0  0  0  0  0  0  0
   10.3235  -15.7114   27.5504 C   0  0  2  0  0  0  0  0  0  0  0  0
    9.4214  -14.9082   26.7287 N   0  0  0  0  0  0  0  0  0  0  0  0
    9.5829  -16.8831   28.0421 C   0  0  0  0  0  0  0  0  0  0  0  0
   10.1670  -17.9592   28.3242 O   0  0  0  0  0  0  0  0  0  0  0  0
    8.2082  -16.8495   28.2150 O   0  0  0  0  0  0  0  0  0  0  0  0
  2  1  1  6
  2  3  1  0
  4  2  1  0
  4  6  1  0
  4  5  1  6
  6  7  2  0
  8  9  1  0
 10  9  1  0
 11 10  1  0
 12 11  1  1
 13  6  1  0
 13 12  1  0
 14 12  1  0
 14 20  1  0
 15 14  2  0
 17 16  1  6
 18 17  1  0
 19 21  1  0
 19 20  1  1
 19 17  1  0
 21 23  1  0
 22 21  2  0
M  END
$$$$
