SKH.pdb
     RDKit          3D

 26 26  0  0  1  0  0  0  0  0999 V2000
   13.3476  -20.2596   18.2831 O   0  0  0  0  0  0  0  0  0  0  0  0
   11.9753  -20.1486   18.0957 C   0  0  0  0  0  0  0  0  0  0  0  0
   11.5460  -18.6968   17.8984 C   0  0  2  0  0  0  0  0  0  0  0  0
   12.3809  -18.0832   16.9084 N   0  0  0  0  0  0  0  0  0  0  0  0
   11.6092  -17.9379   19.1722 C   0  0  0  0  0  0  0  0  0  0  0  0
   12.6629  -17.3194   19.4688 O   0  0  0  0  0  0  0  0  0  0  0  0
   10.5257  -17.8767   20.0802 N   0  0  0  0  0  0  0  0  0  0  0  0
   10.5921  -17.1801   21.3468 C   0  0  1  0  0  0  0  0  0  0  0  0
    9.2234  -17.2176   21.9604 C   0  0  0  0  0  0  0  0  0  0  0  0
    9.0964  -16.4360   23.2195 C   0  0  0  0  0  0  0  0  0  0  0  0
    7.7004  -16.4866   23.8049 C   0  0  0  0  0  0  0  0  0  0  0  0
    7.6174  -15.6167   25.0478 C   0  0  0  0  0  0  0  0  0  0  0  0
    6.3427  -15.8107   25.6981 N   0  0  0  0  0  0  0  0  0  0  0  0
   11.6360  -17.7763   22.1694 C   0  0  0  0  0  0  0  0  0  0  0  0
   12.4505  -18.6631   21.7472 O   0  0  0  0  0  0  0  0  0  0  0  0
   11.7858  -17.3728   23.5222 N   0  0  0  0  0  0  0  0  0  0  0  0
   12.9800  -17.7728   24.2708 C   0  0  1  0  0  0  0  0  0  0  0  0
   14.1636  -17.1354   23.5743 C   0  0  0  0  0  0  0  0  0  0  0  0
   14.9222  -18.0505   22.7198 C   0  0  0  0  0  0  0  0  0  0  0  0
   14.6236  -19.3848   22.5219 C   0  0  0  0  0  0  0  0  0  0  0  0
   15.5660  -19.8465   21.6732 N   0  0  0  0  0  0  0  0  0  0  0  0
   16.3981  -18.8357   21.3711 C   0  0  0  0  0  0  0  0  0  0  0  0
   16.0233  -17.7302   21.9993 N   0  0  0  0  0  0  0  0  0  0  0  0
   12.9375  -17.2349   25.6525 C   0  0  0  0  0  0  0  0  0  0  0  0
   11.9186  -16.4391   26.1361 O   0  0  0  0  0  0  0  0  0  0  0  0
   13.8848  -17.5219   26.4239 O   0  0  0  0  0  0  0  0  0  0  0  0
  1  2  1  0
  3  2  1  0
  3  4  1  6
  5  3  1  0
  6  5  2  0
  7  5  1  0
  8  7  1  0
  8  9  1  1
 10 11  1  0
 10  9  1  0
 11 12  1  0
 13 12  1  0
 14 16  1  0
 14  8  1  0
 15 14  2  0
 17 18  1  6
 17 16  1  0
 19 18  1  0
 19 23  1  0
 20 21  1  0
 20 19  2  0
 21 22  1  0
 22 23  2  0
 24 17  1  0
 25 24  1  0
 26 24  2  0
M  END
$$$$
