SKH.pdb
     RDKit          3D

 26 26  0  0  1  0  0  0  0  0999 V2000
   10.9160  -13.0272   18.1788 O   0  0  0  0  0  0  0  0  0  0  0  0
   10.1919  -13.2502   19.3434 C   0  0  0  0  0  0  0  0  0  0  0  0
    8.8493  -13.9179   19.0567 C   0  0  2  0  0  0  0  0  0  0  0  0
    7.9953  -12.9954   18.3687 N   0  0  0  0  0  0  0  0  0  0  0  0
    8.2031  -14.3885   20.3071 C   0  0  0  0  0  0  0  0  0  0  0  0
    7.6098  -13.5597   21.0433 O   0  0  0  0  0  0  0  0  0  0  0  0
    8.2233  -15.7432   20.7151 N   0  0  0  0  0  0  0  0  0  0  0  0
    7.5339  -16.2264   21.8921 C   0  0  1  0  0  0  0  0  0  0  0  0
    7.1942  -17.6696   21.6616 C   0  0  0  0  0  0  0  0  0  0  0  0
    8.3691  -18.5818   21.6638 C   0  0  0  0  0  0  0  0  0  0  0  0
    8.0232  -19.9873   21.2175 C   0  0  0  0  0  0  0  0  0  0  0  0
    9.2383  -20.8919   21.3334 C   0  0  0  0  0  0  0  0  0  0  0  0
    8.9329  -22.1953   20.7919 N   0  0  0  0  0  0  0  0  0  0  0  0
    8.3600  -15.9836   23.0669 C   0  0  0  0  0  0  0  0  0  0  0  0
    9.6251  -15.8232   23.0223 O   0  0  0  0  0  0  0  0  0  0  0  0
    7.7587  -15.9150   24.3511 N   0  0  0  0  0  0  0  0  0  0  0  0
    8.5922  -15.6675   25.5303 C   0  0  1  0  0  0  0  0  0  0  0  0
    7.7036  -15.0001   26.5585 C   0  0  0  0  0  0  0  0  0  0  0  0
    7.4207  -13.5902   26.2838 C   0  0  0  0  0  0  0  0  0  0  0  0
    8.0648  -12.8207   25.3342 C   0  0  0  0  0  0  0  0  0  0  0  0
    7.5011  -11.5970   25.4143 N   0  0  0  0  0  0  0  0  0  0  0  0
    6.5575  -11.6253   26.3704 C   0  0  0  0  0  0  0  0  0  0  0  0
    6.4918  -12.8325   26.9140 N   0  0  0  0  0  0  0  0  0  0  0  0
    9.0642  -16.9457   26.1166 C   0  0  0  0  0  0  0  0  0  0  0  0
    9.9519  -17.0260   27.1705 O   0  0  0  0  0  0  0  0  0  0  0  0
    8.6293  -18.0143   25.6229 O   0  0  0  0  0  0  0  0  0  0  0  0
  1  2  1  0
  3  2  1  0
  3  4  1  1
  5  3  1  0
  6  5  2  0
  7  5  1  0
  8  7  1  0
  8  9  1  6
 10 11  1  0
 10  9  1  0
 11 12  1  0
 13 12  1  0
 14 16  1  0
 14  8  1  0
 15 14  2  0
 17 18  1  1
 17 16  1  0
 19 18  1  0
 19 23  1  0
 20 21  1  0
 20 19  2  0
 21 22  1  0
 22 23  2  0
 24 17  1  0
 25 24  1  0
 26 24  2  0
M  END
$$$$
