SKH.pdb
     RDKit          3D

 26 26  0  0  1  0  0  0  0  0999 V2000
   11.0691  -13.1308   19.4325 O   0  0  0  0  0  0  0  0  0  0  0  0
   10.6194  -13.8218   18.3142 C   0  0  0  0  0  0  0  0  0  0  0  0
    9.1198  -14.0993   18.3848 C   0  0  2  0  0  0  0  0  0  0  0  0
    8.4011  -12.8636   18.2844 N   0  0  0  0  0  0  0  0  0  0  0  0
    8.7608  -14.8071   19.6389 C   0  0  0  0  0  0  0  0  0  0  0  0
    7.9837  -14.2533   20.4577 O   0  0  0  0  0  0  0  0  0  0  0  0
    9.2582  -16.0920   19.9609 N   0  0  0  0  0  0  0  0  0  0  0  0
    8.7803  -16.8675   21.0853 C   0  0  1  0  0  0  0  0  0  0  0  0
    9.3208  -18.2598   20.9418 C   0  0  0  0  0  0  0  0  0  0  0  0
    8.9878  -19.1645   22.0746 C   0  0  0  0  0  0  0  0  0  0  0  0
    9.5939  -20.5443   21.9231 C   0  0  0  0  0  0  0  0  0  0  0  0
    9.1038  -21.4606   23.0314 C   0  0  0  0  0  0  0  0  0  0  0  0
    9.6325  -22.7904   22.8382 N   0  0  0  0  0  0  0  0  0  0  0  0
    9.1576  -16.2010   22.3242 C   0  0  0  0  0  0  0  0  0  0  0  0
   10.2697  -15.5990   22.4943 O   0  0  0  0  0  0  0  0  0  0  0  0
    8.2631  -16.2004   23.4265 N   0  0  0  0  0  0  0  0  0  0  0  0
    8.3963  -15.1793   24.4687 C   0  0  1  0  0  0  0  0  0  0  0  0
    7.0260  -14.5618   24.6502 C   0  0  0  0  0  0  0  0  0  0  0  0
    6.9624  -13.5358   25.6926 C   0  0  0  0  0  0  0  0  0  0  0  0
    8.0389  -13.0884   26.4341 C   0  0  0  0  0  0  0  0  0  0  0  0
    7.5410  -12.1530   27.2701 N   0  0  0  0  0  0  0  0  0  0  0  0
    6.2214  -12.0398   27.0441 C   0  0  0  0  0  0  0  0  0  0  0  0
    5.8474  -12.8749   26.0850 N   0  0  0  0  0  0  0  0  0  0  0  0
    8.7782  -15.7968   25.7622 C   0  0  0  0  0  0  0  0  0  0  0  0
    9.2902  -15.0881   26.8303 O   0  0  0  0  0  0  0  0  0  0  0  0
    8.6256  -17.0359   25.8892 O   0  0  0  0  0  0  0  0  0  0  0  0
  1  2  1  0
  3  2  1  0
  3  4  1  1
  5  3  1  0
  6  5  2  0
  7  5  1  0
  8  7  1  0
  8  9  1  1
 10 11  1  0
 10  9  1  0
 11 12  1  0
 13 12  1  0
 14 16  1  0
 14  8  1  0
 15 14  2  0
 17 18  1  1
 17 16  1  0
 19 18  1  0
 19 23  1  0
 20 21  1  0
 20 19  2  0
 21 22  1  0
 22 23  2  0
 24 17  1  0
 25 24  1  0
 26 24  2  0
M  END
$$$$
