SKH.pdb
     RDKit          3D

 26 26  0  0  1  0  0  0  0  0999 V2000
    9.7618  -12.1073   18.8134 O   0  0  0  0  0  0  0  0  0  0  0  0
    9.1797  -12.8334   19.8451 C   0  0  0  0  0  0  0  0  0  0  0  0
    8.2928  -13.9579   19.3162 C   0  0  2  0  0  0  0  0  0  0  0  0
    7.1303  -13.3958   18.6946 N   0  0  0  0  0  0  0  0  0  0  0  0
    7.9001  -14.8908   20.4016 C   0  0  0  0  0  0  0  0  0  0  0  0
    6.9140  -14.6091   21.1290 O   0  0  0  0  0  0  0  0  0  0  0  0
    8.5918  -16.0979   20.6597 N   0  0  0  0  0  0  0  0  0  0  0  0
    8.2583  -16.9833   21.7546 C   0  0  1  0  0  0  0  0  0  0  0  0
    8.8529  -18.3272   21.4518 C   0  0  0  0  0  0  0  0  0  0  0  0
    8.5900  -19.3598   22.4897 C   0  0  0  0  0  0  0  0  0  0  0  0
    9.2146  -20.6993   22.1581 C   0  0  0  0  0  0  0  0  0  0  0  0
    8.8461  -21.7289   23.2127 C   0  0  0  0  0  0  0  0  0  0  0  0
    9.4958  -22.9849   22.9201 N   0  0  0  0  0  0  0  0  0  0  0  0
    8.7134  -16.3930   23.0061 C   0  0  0  0  0  0  0  0  0  0  0  0
    9.7775  -15.6975   23.1155 O   0  0  0  0  0  0  0  0  0  0  0  0
    7.9560  -16.5809   24.1920 N   0  0  0  0  0  0  0  0  0  0  0  0
    8.4158  -15.9846   25.4488 C   0  0  1  0  0  0  0  0  0  0  0  0
    7.1785  -15.5238   26.1897 C   0  0  0  0  0  0  0  0  0  0  0  0
    6.9047  -14.0907   26.0692 C   0  0  0  0  0  0  0  0  0  0  0  0
    7.7308  -13.1731   25.4494 C   0  0  0  0  0  0  0  0  0  0  0  0
    7.1045  -11.9832   25.5654 N   0  0  0  0  0  0  0  0  0  0  0  0
    5.9502  -12.1730   26.2265 C   0  0  0  0  0  0  0  0  0  0  0  0
    5.8085  -13.4523   26.5434 N   0  0  0  0  0  0  0  0  0  0  0  0
    9.0865  -17.0003   26.2967 C   0  0  0  0  0  0  0  0  0  0  0  0
    9.2369  -18.3241   25.9359 O   0  0  0  0  0  0  0  0  0  0  0  0
    9.5425  -16.6309   27.4059 O   0  0  0  0  0  0  0  0  0  0  0  0
  1  2  1  0
  3  2  1  0
  3  4  1  1
  5  3  1  0
  6  5  2  0
  7  5  1  0
  8  7  1  0
  8  9  1  6
 10 11  1  0
 10  9  1  0
 11 12  1  0
 13 12  1  0
 14 16  1  0
 14  8  1  0
 15 14  2  0
 17 18  1  1
 17 16  1  0
 19 18  1  0
 19 23  1  0
 20 21  1  0
 20 19  2  0
 21 22  1  0
 22 23  2  0
 24 17  1  0
 25 24  1  0
 26 24  2  0
M  END
$$$$
