SKH.pdb
     RDKit          3D

 26 26  0  0  1  0  0  0  0  0999 V2000
   10.5129  -14.1783   16.9758 O   0  0  0  0  0  0  0  0  0  0  0  0
    9.2586  -14.6852   16.6593 C   0  0  0  0  0  0  0  0  0  0  0  0
    8.1982  -14.2417   17.6642 C   0  0  2  0  0  0  0  0  0  0  0  0
    8.1916  -12.8112   17.7500 N   0  0  0  0  0  0  0  0  0  0  0  0
    8.4383  -14.8399   19.0009 C   0  0  0  0  0  0  0  0  0  0  0  0
    8.8234  -14.1039   19.9448 O   0  0  0  0  0  0  0  0  0  0  0  0
    8.2519  -16.2171   19.2669 N   0  0  0  0  0  0  0  0  0  0  0  0
    8.5619  -16.8267   20.5422 C   0  0  1  0  0  0  0  0  0  0  0  0
    7.8772  -18.1609   20.5885 C   0  0  0  0  0  0  0  0  0  0  0  0
    6.4367  -18.1218   20.2197 C   0  0  0  0  0  0  0  0  0  0  0  0
    5.7766  -19.4837   20.2815 C   0  0  0  0  0  0  0  0  0  0  0  0
    4.3050  -19.3737   19.9202 C   0  0  0  0  0  0  0  0  0  0  0  0
    3.6859  -20.6768   19.9828 N   0  0  0  0  0  0  0  0  0  0  0  0
   10.0078  -16.8872   20.7073 C   0  0  0  0  0  0  0  0  0  0  0  0
   10.8111  -17.2550   19.7868 O   0  0  0  0  0  0  0  0  0  0  0  0
   10.5925  -16.5237   21.9489 N   0  0  0  0  0  0  0  0  0  0  0  0
   12.0416  -16.6410   22.1305 C   0  0  1  0  0  0  0  0  0  0  0  0
   12.6001  -15.2343   22.0913 C   0  0  0  0  0  0  0  0  0  0  0  0
   12.8045  -14.7063   20.7412 C   0  0  0  0  0  0  0  0  0  0  0  0
   11.9679  -13.8114   20.1026 C   0  0  0  0  0  0  0  0  0  0  0  0
   12.5232  -13.5949   18.8917 N   0  0  0  0  0  0  0  0  0  0  0  0
   13.6464  -14.3269   18.8019 C   0  0  0  0  0  0  0  0  0  0  0  0
   13.8369  -15.0129   19.9200 N   0  0  0  0  0  0  0  0  0  0  0  0
   12.3588  -17.2059   23.4649 C   0  0  0  0  0  0  0  0  0  0  0  0
   11.4038  -17.5516   24.3996 O   0  0  0  0  0  0  0  0  0  0  0  0
   13.5669  -17.3778   23.7578 O   0  0  0  0  0  0  0  0  0  0  0  0
  1  2  1  0
  3  2  1  0
  3  4  1  1
  5  3  1  0
  6  5  2  0
  7  5  1  0
  8  7  1  0
  8  9  1  6
 10 11  1  0
 10  9  1  0
 11 12  1  0
 13 12  1  0
 14 16  1  0
 14  8  1  0
 15 14  2  0
 17 18  1  1
 17 16  1  0
 19 18  1  0
 19 23  1  0
 20 21  1  0
 20 19  2  0
 21 22  1  0
 22 23  2  0
 24 17  1  0
 25 24  1  0
 26 24  2  0
M  END
$$$$
