SKH.pdb
     RDKit          3D

 26 26  0  0  1  0  0  0  0  0999 V2000
    6.8810  -23.2992   19.9261 O   0  0  0  0  0  0  0  0  0  0  0  0
    5.6287  -23.0986   19.3588 C   0  0  0  0  0  0  0  0  0  0  0  0
    5.4606  -21.6699   18.8474 C   0  0  2  0  0  0  0  0  0  0  0  0
    6.3662  -21.4433   17.7600 N   0  0  0  0  0  0  0  0  0  0  0  0
    5.6908  -20.6796   19.9284 C   0  0  0  0  0  0  0  0  0  0  0  0
    6.8211  -20.1401   20.0389 O   0  0  0  0  0  0  0  0  0  0  0  0
    4.6854  -20.3089   20.8525 N   0  0  0  0  0  0  0  0  0  0  0  0
    4.9169  -19.3960   21.9511 C   0  0  1  0  0  0  0  0  0  0  0  0
    3.5791  -18.9441   22.4584 C   0  0  0  0  0  0  0  0  0  0  0  0
    2.4409  -19.7981   22.0253 C   0  0  0  0  0  0  0  0  0  0  0  0
    1.1008  -19.2791   22.5038 C   0  0  0  0  0  0  0  0  0  0  0  0
   -0.0224  -20.1609   21.9850 C   0  0  0  0  0  0  0  0  0  0  0  0
   -1.2975  -19.6287   22.4048 N   0  0  0  0  0  0  0  0  0  0  0  0
    5.7498  -20.0492   22.9518 C   0  0  0  0  0  0  0  0  0  0  0  0
    5.5189  -21.2162   23.4132 O   0  0  0  0  0  0  0  0  0  0  0  0
    6.8914  -19.3802   23.4661 N   0  0  0  0  0  0  0  0  0  0  0  0
    7.7313  -20.0431   24.4669 C   0  0  1  0  0  0  0  0  0  0  0  0
    9.1502  -19.5747   24.2229 C   0  0  0  0  0  0  0  0  0  0  0  0
    9.8128  -20.2280   23.0927 C   0  0  0  0  0  0  0  0  0  0  0  0
    9.2985  -21.2916   22.3765 C   0  0  0  0  0  0  0  0  0  0  0  0
   10.2225  -21.5769   21.4350 N   0  0  0  0  0  0  0  0  0  0  0  0
   11.2505  -20.7232   21.5757 C   0  0  0  0  0  0  0  0  0  0  0  0
   11.0209  -19.8912   22.5817 N   0  0  0  0  0  0  0  0  0  0  0  0
    7.3532  -19.6147   25.8358 C   0  0  0  0  0  0  0  0  0  0  0  0
    7.7840  -20.2465   26.9849 O   0  0  0  0  0  0  0  0  0  0  0  0
    6.5974  -18.6197   25.9520 O   0  0  0  0  0  0  0  0  0  0  0  0
  1  2  1  0
  3  2  1  0
  3  4  1  6
  5  3  1  0
  6  5  2  0
  7  5  1  0
  8  7  1  0
  8  9  1  1
 10 11  1  0
 10  9  1  0
 11 12  1  0
 13 12  1  0
 14 16  1  0
 14  8  1  0
 15 14  2  0
 17 18  1  6
 17 16  1  0
 19 18  1  0
 19 23  1  0
 20 21  1  0
 20 19  2  0
 21 22  1  0
 22 23  2  0
 24 17  1  0
 25 24  1  0
 26 24  2  0
M  END
$$$$
