SKH.pdb
     RDKit          3D

 26 26  0  0  1  0  0  0  0  0999 V2000
   13.7904  -17.6119   14.2684 O   0  0  0  0  0  0  0  0  0  0  0  0
   13.3217  -17.4324   15.5639 C   0  0  0  0  0  0  0  0  0  0  0  0
   11.8370  -17.7681   15.6809 C   0  0  2  0  0  0  0  0  0  0  0  0
   11.0901  -16.9491   14.7726 N   0  0  0  0  0  0  0  0  0  0  0  0
   11.3492  -17.5794   17.0698 C   0  0  0  0  0  0  0  0  0  0  0  0
   11.0204  -16.4289   17.4560 O   0  0  0  0  0  0  0  0  0  0  0  0
   11.2351  -18.6467   17.9917 N   0  0  0  0  0  0  0  0  0  0  0  0
   10.8244  -18.4647   19.3673 C   0  0  1  0  0  0  0  0  0  0  0  0
   10.1335  -19.7218   19.8072 C   0  0  0  0  0  0  0  0  0  0  0  0
    8.7425  -19.8643   19.3001 C   0  0  0  0  0  0  0  0  0  0  0  0
    8.0525  -21.1095   19.8174 C   0  0  0  0  0  0  0  0  0  0  0  0
    6.6224  -21.1706   19.3081 C   0  0  0  0  0  0  0  0  0  0  0  0
    5.9372  -22.2936   19.9037 N   0  0  0  0  0  0  0  0  0  0  0  0
   11.9839  -18.1032   20.1715 C   0  0  0  0  0  0  0  0  0  0  0  0
   13.1174  -18.6819   20.0802 O   0  0  0  0  0  0  0  0  0  0  0  0
   11.8848  -17.0524   21.1209 N   0  0  0  0  0  0  0  0  0  0  0  0
   13.0446  -16.7101   21.9481 C   0  0  1  0  0  0  0  0  0  0  0  0
   13.2297  -15.2114   21.8384 C   0  0  0  0  0  0  0  0  0  0  0  0
   13.7543  -14.7636   20.5471 C   0  0  0  0  0  0  0  0  0  0  0  0
   14.1055  -15.5944   19.5006 C   0  0  0  0  0  0  0  0  0  0  0  0
   14.5350  -14.7774   18.5159 N   0  0  0  0  0  0  0  0  0  0  0  0
   14.4473  -13.5081   18.9480 C   0  0  0  0  0  0  0  0  0  0  0  0
   13.9731  -13.4770   20.1855 N   0  0  0  0  0  0  0  0  0  0  0  0
   12.7814  -17.0201   23.3745 C   0  0  0  0  0  0  0  0  0  0  0  0
   13.7396  -16.9498   24.3655 O   0  0  0  0  0  0  0  0  0  0  0  0
   11.6186  -17.3663   23.6954 O   0  0  0  0  0  0  0  0  0  0  0  0
  1  2  1  0
  3  2  1  0
  3  4  1  6
  5  3  1  0
  6  5  2  0
  7  5  1  0
  8  7  1  0
  8  9  1  1
 10 11  1  0
 10  9  1  0
 11 12  1  0
 13 12  1  0
 14 16  1  0
 14  8  1  0
 15 14  2  0
 17 18  1  1
 17 16  1  0
 19 18  1  0
 19 23  1  0
 20 21  1  0
 20 19  2  0
 21 22  1  0
 22 23  2  0
 24 17  1  0
 25 24  1  0
 26 24  2  0
M  END
$$$$
