SKH.pdb
     RDKit          3D

 26 26  0  0  1  0  0  0  0  0999 V2000
   10.7768  -19.0352   15.5750 O   0  0  0  0  0  0  0  0  0  0  0  0
    9.8333  -18.3808   16.3573 C   0  0  0  0  0  0  0  0  0  0  0  0
   10.0794  -18.6042   17.8474 C   0  0  2  0  0  0  0  0  0  0  0  0
    9.9526  -19.9997   18.1475 N   0  0  0  0  0  0  0  0  0  0  0  0
    9.1386  -17.8087   18.6747 C   0  0  0  0  0  0  0  0  0  0  0  0
    9.0890  -16.5614   18.5236 O   0  0  0  0  0  0  0  0  0  0  0  0
    8.2837  -18.3950   19.6377 N   0  0  0  0  0  0  0  0  0  0  0  0
    7.4085  -17.6238   20.4942 C   0  0  1  0  0  0  0  0  0  0  0  0
    6.1464  -18.4123   20.6854 C   0  0  0  0  0  0  0  0  0  0  0  0
    5.3964  -18.6794   19.4290 C   0  0  0  0  0  0  0  0  0  0  0  0
    4.1817  -19.5582   19.6446 C   0  0  0  0  0  0  0  0  0  0  0  0
    3.4097  -19.7193   18.3461 C   0  0  0  0  0  0  0  0  0  0  0  0
    2.2756  -20.5886   18.5543 N   0  0  0  0  0  0  0  0  0  0  0  0
    8.1081  -17.3004   21.7302 C   0  0  0  0  0  0  0  0  0  0  0  0
    7.5187  -17.0680   22.8377 O   0  0  0  0  0  0  0  0  0  0  0  0
    9.5260  -17.2307   21.7415 N   0  0  0  0  0  0  0  0  0  0  0  0
   10.2254  -16.8790   22.9800 C   0  0  1  0  0  0  0  0  0  0  0  0
   10.1209  -18.0809   23.8948 C   0  0  0  0  0  0  0  0  0  0  0  0
   10.6749  -19.3139   23.3326 C   0  0  0  0  0  0  0  0  0  0  0  0
   11.4140  -19.3946   22.1682 C   0  0  0  0  0  0  0  0  0  0  0  0
   11.7208  -20.7008   22.0219 N   0  0  0  0  0  0  0  0  0  0  0  0
   11.1904  -21.3801   23.0527 C   0  0  0  0  0  0  0  0  0  0  0  0
   10.5477  -20.5528   23.8647 N   0  0  0  0  0  0  0  0  0  0  0  0
   11.6669  -16.6449   22.7200 C   0  0  0  0  0  0  0  0  0  0  0  0
   12.2455  -16.7292   21.4697 O   0  0  0  0  0  0  0  0  0  0  0  0
   12.4000  -16.3537   23.6959 O   0  0  0  0  0  0  0  0  0  0  0  0
  1  2  1  0
  3  2  1  0
  3  4  1  6
  5  3  1  0
  6  5  2  0
  7  5  1  0
  8  7  1  0
  8  9  1  1
 10 11  1  0
 10  9  1  0
 11 12  1  0
 13 12  1  0
 14 16  1  0
 14  8  1  0
 15 14  2  0
 17 18  1  1
 17 16  1  0
 19 18  1  0
 19 23  1  0
 20 21  1  0
 20 19  2  0
 21 22  1  0
 22 23  2  0
 24 17  1  0
 25 24  1  0
 26 24  2  0
M  END
$$$$
