SKH.pdb
     RDKit          3D

 26 26  0  0  1  0  0  0  0  0999 V2000
   11.5190  -16.9122   16.4751 O   0  0  0  0  0  0  0  0  0  0  0  0
   12.3613  -17.8106   17.1183 C   0  0  0  0  0  0  0  0  0  0  0  0
   11.7108  -18.4038   18.3656 C   0  0  2  0  0  0  0  0  0  0  0  0
   10.4472  -18.9819   18.0151 N   0  0  0  0  0  0  0  0  0  0  0  0
   11.5355  -17.3770   19.4226 C   0  0  0  0  0  0  0  0  0  0  0  0
   12.5428  -16.7633   19.8582 O   0  0  0  0  0  0  0  0  0  0  0  0
   10.2721  -17.0516   19.9705 N   0  0  0  0  0  0  0  0  0  0  0  0
   10.0886  -16.0495   20.9981 C   0  0  1  0  0  0  0  0  0  0  0  0
    8.7391  -15.4269   20.7924 C   0  0  0  0  0  0  0  0  0  0  0  0
    8.6398  -14.5691   19.5814 C   0  0  0  0  0  0  0  0  0  0  0  0
    7.2631  -13.9639   19.4005 C   0  0  0  0  0  0  0  0  0  0  0  0
    7.2261  -13.1009   18.1507 C   0  0  0  0  0  0  0  0  0  0  0  0
    5.8893  -12.5958   17.9429 N   0  0  0  0  0  0  0  0  0  0  0  0
   10.2747  -16.6625   22.3063 C   0  0  0  0  0  0  0  0  0  0  0  0
    9.8563  -17.8297   22.6075 O   0  0  0  0  0  0  0  0  0  0  0  0
   10.9554  -15.9512   23.3290 N   0  0  0  0  0  0  0  0  0  0  0  0
   11.1498  -16.5747   24.6405 C   0  0  1  0  0  0  0  0  0  0  0  0
   12.5102  -16.1312   25.1355 C   0  0  0  0  0  0  0  0  0  0  0  0
   13.6361  -16.7590   24.4415 C   0  0  0  0  0  0  0  0  0  0  0  0
   13.5267  -17.7377   23.4726 C   0  0  0  0  0  0  0  0  0  0  0  0
   14.7923  -18.0291   23.1054 N   0  0  0  0  0  0  0  0  0  0  0  0
   15.6304  -17.2603   23.8210 C   0  0  0  0  0  0  0  0  0  0  0  0
   14.9455  -16.4776   24.6428 N   0  0  0  0  0  0  0  0  0  0  0  0
   10.1431  -16.0798   25.6110 C   0  0  0  0  0  0  0  0  0  0  0  0
    9.9590  -16.6179   26.8686 O   0  0  0  0  0  0  0  0  0  0  0  0
    9.4181  -15.1157   25.2649 O   0  0  0  0  0  0  0  0  0  0  0  0
  1  2  1  0
  3  2  1  0
  3  4  1  6
  5  3  1  0
  6  5  2  0
  7  5  1  0
  8  7  1  0
  8  9  1  1
 10 11  1  0
 10  9  1  0
 11 12  1  0
 13 12  1  0
 14 16  1  0
 14  8  1  0
 15 14  2  0
 17 18  1  1
 17 16  1  0
 19 18  1  0
 19 23  1  0
 20 21  1  0
 20 19  2  0
 21 22  1  0
 22 23  2  0
 24 17  1  0
 25 24  1  0
 26 24  2  0
M  END
$$$$
