SKH.pdb
     RDKit          3D

 26 26  0  0  1  0  0  0  0  0999 V2000
   12.9115  -17.8711   15.1016 O   0  0  0  0  0  0  0  0  0  0  0  0
   11.5283  -17.8241   14.9799 C   0  0  0  0  0  0  0  0  0  0  0  0
   10.9999  -16.3945   15.0701 C   0  0  2  0  0  0  0  0  0  0  0  0
   11.5231  -15.6234   13.9814 N   0  0  0  0  0  0  0  0  0  0  0  0
   11.3571  -15.7684   16.3674 C   0  0  0  0  0  0  0  0  0  0  0  0
   12.3344  -14.9792   16.4218 O   0  0  0  0  0  0  0  0  0  0  0  0
   10.6406  -16.0208   17.5611 N   0  0  0  0  0  0  0  0  0  0  0  0
   10.9427  -15.3716   18.8186 C   0  0  1  0  0  0  0  0  0  0  0  0
    9.7744  -15.5864   19.7352 C   0  0  0  0  0  0  0  0  0  0  0  0
    9.9193  -14.9470   21.0704 C   0  0  0  0  0  0  0  0  0  0  0  0
    8.7004  -15.1374   21.9491 C   0  0  0  0  0  0  0  0  0  0  0  0
    8.8981  -14.4399   23.2842 C   0  0  0  0  0  0  0  0  0  0  0  0
    7.8089  -14.7664   24.1743 N   0  0  0  0  0  0  0  0  0  0  0  0
   12.2088  -15.8790   19.3298 C   0  0  0  0  0  0  0  0  0  0  0  0
   12.5447  -17.1095   19.2946 O   0  0  0  0  0  0  0  0  0  0  0  0
   13.1471  -14.9835   19.9067 N   0  0  0  0  0  0  0  0  0  0  0  0
   14.3916  -15.5049   20.4777 C   0  0  1  0  0  0  0  0  0  0  0  0
   15.4199  -14.3998   20.3616 C   0  0  0  0  0  0  0  0  0  0  0  0
   15.9880  -14.2461   19.0211 C   0  0  0  0  0  0  0  0  0  0  0  0
   16.0086  -15.2278   18.0492 C   0  0  0  0  0  0  0  0  0  0  0  0
   16.6171  -14.6698   16.9815 N   0  0  0  0  0  0  0  0  0  0  0  0
   16.9499  -13.4061   17.2940 C   0  0  0  0  0  0  0  0  0  0  0  0
   16.5750  -13.1269   18.5344 N   0  0  0  0  0  0  0  0  0  0  0  0
   14.2223  -15.8018   21.9212 C   0  0  0  0  0  0  0  0  0  0  0  0
   15.2142  -16.3394   22.7163 O   0  0  0  0  0  0  0  0  0  0  0  0
   13.1112  -15.5483   22.4466 O   0  0  0  0  0  0  0  0  0  0  0  0
  1  2  1  0
  3  2  1  0
  3  4  1  6
  5  3  1  0
  6  5  2  0
  7  5  1  0
  8  7  1  0
  8  9  1  1
 10 11  1  0
 10  9  1  0
 11 12  1  0
 13 12  1  0
 14 16  1  0
 14  8  1  0
 15 14  2  0
 17 18  1  1
 17 16  1  0
 19 18  1  0
 19 23  1  0
 20 21  1  0
 20 19  2  0
 21 22  1  0
 22 23  2  0
 24 17  1  0
 25 24  1  0
 26 24  2  0
M  END
$$$$
