WWM.pdb
     RDKit          3D

 37 40  0  0  1  0  0  0  0  0999 V2000
    7.6032  -21.5791   22.7190 N   0  0  0  0  0  0  0  0  0  0  0  0
    7.8989  -20.5089   23.6324 C   0  0  1  0  0  0  0  0  0  0  0  0
    9.0227  -20.7958   24.5878 C   0  0  0  0  0  0  0  0  0  0  0  0
    8.5966  -20.4601   25.9580 C   0  0  0  0  0  0  0  0  0  0  0  0
    7.4659  -20.8962   26.6099 C   0  0  0  0  0  0  0  0  0  0  0  0
    7.4589  -20.3940   27.8525 N   0  0  0  0  0  0  0  0  0  0  0  0
    8.5617  -19.6448   28.0091 C   0  0  0  0  0  0  0  0  0  0  0  0
    8.9907  -18.9241   29.0961 C   0  0  0  0  0  0  0  0  0  0  0  0
   10.1679  -18.2200   28.9977 C   0  0  0  0  0  0  0  0  0  0  0  0
   10.9024  -18.2342   27.8379 C   0  0  0  0  0  0  0  0  0  0  0  0
   10.4848  -18.9533   26.7382 C   0  0  0  0  0  0  0  0  0  0  0  0
    9.2925  -19.6658   26.8429 C   0  0  0  0  0  0  0  0  0  0  0  0
    8.2259  -19.2390   22.8811 C   0  0  0  0  0  0  0  0  0  0  0  0
    9.1401  -19.2667   22.0342 O   0  0  0  0  0  0  0  0  0  0  0  0
    7.5296  -18.0288   23.1076 N   0  0  0  0  0  0  0  0  0  0  0  0
    8.0178  -16.7197   22.6168 C   0  0  1  0  0  0  0  0  0  0  0  0
    6.8760  -15.8035   22.6802 C   0  0  0  0  0  0  0  0  0  0  0  0
    6.4063  -15.2991   23.9587 C   0  0  0  0  0  0  0  0  0  0  0  0
    5.6615  -15.8910   24.9503 C   0  0  0  0  0  0  0  0  0  0  0  0
    5.5072  -14.9861   25.9248 N   0  0  0  0  0  0  0  0  0  0  0  0
    6.1156  -13.8312   25.6180 C   0  0  0  0  0  0  0  0  0  0  0  0
    6.2812  -12.6066   26.2536 C   0  0  0  0  0  0  0  0  0  0  0  0
    6.9918  -11.5668   25.7001 C   0  0  0  0  0  0  0  0  0  0  0  0
    7.5676  -11.7440   24.4565 C   0  0  0  0  0  0  0  0  0  0  0  0
    7.4063  -12.9559   23.8217 C   0  0  0  0  0  0  0  0  0  0  0  0
    6.6837  -14.0079   24.3899 C   0  0  0  0  0  0  0  0  0  0  0  0
    9.2862  -16.3548   23.2084 C   0  0  0  0  0  0  0  0  0  0  0  0
    9.9887  -15.4944   22.5667 O   0  0  0  0  0  0  0  0  0  0  0  0
   10.7013  -14.1738   29.9743 C   0  0  0  0  0  0  0  0  0  0  0  0
   10.5449  -13.5180   28.3024 S   0  0  0  0  0  0  0  0  0  0  0  0
   11.3043  -14.6625   27.0688 C   0  0  0  0  0  0  0  0  0  0  0  0
   10.2442  -15.1628   26.1292 C   0  0  0  0  0  0  0  0  0  0  0  0
   10.8999  -16.0236   25.0577 C   0  0  2  0  0  0  0  0  0  0  0  0
    9.8345  -16.8253   24.4044 N   0  0  0  0  0  0  0  0  0  0  0  0
   11.8290  -16.9731   25.6749 C   0  0  0  0  0  0  0  0  0  0  0  0
   11.5790  -18.3612   25.6642 O   0  0  0  0  0  0  0  0  0  0  0  0
   12.8922  -16.6448   26.2500 O   0  0  0  0  0  0  0  0  0  0  0  0
  2  1  1  6
  3  2  1  0
  4  5  2  0
  4  3  1  0
  6  5  1  0
  7 12  2  0
  7  6  1  0
  8  7  1  0
  9 10  1  0
  9  8  2  0
 10 11  2  0
 11 12  1  0
 12  4  1  0
 13  2  1  0
 14 13  2  0
 15 13  1  0
 16 17  1  1
 16 15  1  0
 18 17  1  0
 19 18  2  0
 20 21  1  0
 20 19  1  0
 21 26  2  0
 22 23  2  0
 22 21  1  0
 23 24  1  0
 24 25  2  0
 26 25  1  0
 26 18  1  0
 27 16  1  0
 28 27  2  0
 30 31  1  0
 30 29  1  0
 33 32  1  1
 32 31  1  0
 33 34  1  0
 34 27  1  0
 35 36  1  0
 35 33  1  0
 37 35  2  0
M  END
$$$$
