WWM.pdb
     RDKit          3D

 37 40  0  0  1  0  0  0  0  0999 V2000
   12.2535  -14.6223   20.2094 N   0  0  0  0  0  0  0  0  0  0  0  0
   10.9046  -15.0794   20.4052 C   0  0  1  0  0  0  0  0  0  0  0  0
   10.5647  -16.3512   19.6807 C   0  0  0  0  0  0  0  0  0  0  0  0
    9.6448  -16.0494   18.5696 C   0  0  0  0  0  0  0  0  0  0  0  0
    9.0726  -16.9440   17.6945 C   0  0  0  0  0  0  0  0  0  0  0  0
    8.2705  -16.2772   16.8528 N   0  0  0  0  0  0  0  0  0  0  0  0
    8.3181  -14.9739   17.1709 C   0  0  0  0  0  0  0  0  0  0  0  0
    7.6806  -13.9025   16.5961 C   0  0  0  0  0  0  0  0  0  0  0  0
    7.9089  -12.6467   17.1082 C   0  0  0  0  0  0  0  0  0  0  0  0
    8.7566  -12.4634   18.1725 C   0  0  0  0  0  0  0  0  0  0  0  0
    9.4037  -13.5295   18.7604 C   0  0  0  0  0  0  0  0  0  0  0  0
    9.1685  -14.7995   18.2390 C   0  0  0  0  0  0  0  0  0  0  0  0
   10.6147  -15.2774   21.8751 C   0  0  0  0  0  0  0  0  0  0  0  0
   11.5750  -15.3670   22.6647 O   0  0  0  0  0  0  0  0  0  0  0  0
    9.2955  -15.3621   22.3784 N   0  0  0  0  0  0  0  0  0  0  0  0
    8.9813  -15.2665   23.8224 C   0  0  1  0  0  0  0  0  0  0  0  0
    7.5660  -14.8982   23.9131 C   0  0  0  0  0  0  0  0  0  0  0  0
    6.9191  -14.7714   25.2074 C   0  0  0  0  0  0  0  0  0  0  0  0
    6.1044  -15.6315   25.9037 C   0  0  0  0  0  0  0  0  0  0  0  0
    5.7795  -15.0274   27.0534 N   0  0  0  0  0  0  0  0  0  0  0  0
    6.3430  -13.8139   27.1423 C   0  0  0  0  0  0  0  0  0  0  0  0
    6.3537  -12.8008   28.0934 C   0  0  0  0  0  0  0  0  0  0  0  0
    7.0546  -11.6285   27.9294 C   0  0  0  0  0  0  0  0  0  0  0  0
    7.7812  -11.4463   26.7682 C   0  0  0  0  0  0  0  0  0  0  0  0
    7.7738  -12.4473   25.8217 C   0  0  0  0  0  0  0  0  0  0  0  0
    7.0601  -13.6357   25.9950 C   0  0  0  0  0  0  0  0  0  0  0  0
    9.4961  -16.3941   24.5677 C   0  0  0  0  0  0  0  0  0  0  0  0
    9.3514  -16.3502   25.8416 O   0  0  0  0  0  0  0  0  0  0  0  0
   15.0061  -19.3918   22.0106 C   0  0  0  0  0  0  0  0  0  0  0  0
   13.5487  -20.1755   22.7258 S   0  0  0  0  0  0  0  0  0  0  0  0
   12.5253  -18.9494   23.6521 C   0  0  0  0  0  0  0  0  0  0  0  0
   11.3275  -19.6386   24.2413 C   0  0  0  0  0  0  0  0  0  0  0  0
   10.4962  -18.6171   25.0058 C   0  0  2  0  0  0  0  0  0  0  0  0
   10.1278  -17.5327   24.0608 N   0  0  0  0  0  0  0  0  0  0  0  0
   11.3023  -18.0039   26.0640 C   0  0  0  0  0  0  0  0  0  0  0  0
   11.6783  -18.7261   27.2158 O   0  0  0  0  0  0  0  0  0  0  0  0
   11.7131  -16.8209   26.0400 O   0  0  0  0  0  0  0  0  0  0  0  0
  2  1  1  1
  3  2  1  0
  4  5  2  0
  4  3  1  0
  6  5  1  0
  7 12  2  0
  7  6  1  0
  8  7  1  0
  9 10  1  0
  9  8  2  0
 10 11  2  0
 11 12  1  0
 12  4  1  0
 13  2  1  0
 14 13  2  0
 15 13  1  0
 16 17  1  6
 16 15  1  0
 18 17  1  0
 19 18  2  0
 20 21  1  0
 20 19  1  0
 21 26  2  0
 22 23  2  0
 22 21  1  0
 23 24  1  0
 24 25  2  0
 26 25  1  0
 26 18  1  0
 27 16  1  0
 28 27  2  0
 30 31  1  0
 30 29  1  0
 33 32  1  6
 32 31  1  0
 33 34  1  0
 34 27  1  0
 35 36  1  0
 35 33  1  0
 37 35  2  0
M  END
$$$$
