WWM.pdb
     RDKit          3D

 37 40  0  0  1  0  0  0  0  0999 V2000
    8.9803  -18.0129   21.6466 N   0  0  0  0  0  0  0  0  0  0  0  0
    8.7436  -16.5960   21.7049 C   0  0  1  0  0  0  0  0  0  0  0  0
    7.3410  -16.1823   21.3596 C   0  0  0  0  0  0  0  0  0  0  0  0
    7.3505  -15.4384   20.0875 C   0  0  0  0  0  0  0  0  0  0  0  0
    7.0008  -15.9102   18.8430 C   0  0  0  0  0  0  0  0  0  0  0  0
    7.1115  -14.9143   17.9529 N   0  0  0  0  0  0  0  0  0  0  0  0
    7.5255  -13.8147   18.6022 C   0  0  0  0  0  0  0  0  0  0  0  0
    7.7902  -12.5555   18.1233 C   0  0  0  0  0  0  0  0  0  0  0  0
    8.2197  -11.5914   19.0049 C   0  0  0  0  0  0  0  0  0  0  0  0
    8.3822  -11.8777   20.3377 C   0  0  0  0  0  0  0  0  0  0  0  0
    8.1201  -13.1372   20.8335 C   0  0  0  0  0  0  0  0  0  0  0  0
    7.6843  -14.1101   19.9371 C   0  0  0  0  0  0  0  0  0  0  0  0
    9.0753  -16.0541   23.0762 C   0  0  0  0  0  0  0  0  0  0  0  0
    9.1466  -14.8188   23.2271 O   0  0  0  0  0  0  0  0  0  0  0  0
    9.3043  -16.9006   24.1860 N   0  0  0  0  0  0  0  0  0  0  0  0
    9.8779  -16.4124   25.4610 C   0  0  1  0  0  0  0  0  0  0  0  0
    8.7511  -16.2433   26.3823 C   0  0  0  0  0  0  0  0  0  0  0  0
    7.5238  -15.6073   25.9361 C   0  0  0  0  0  0  0  0  0  0  0  0
    6.3487  -16.1357   25.4583 C   0  0  0  0  0  0  0  0  0  0  0  0
    5.5319  -15.1095   25.1903 N   0  0  0  0  0  0  0  0  0  0  0  0
    6.1164  -13.9355   25.4704 C   0  0  0  0  0  0  0  0  0  0  0  0
    5.7305  -12.6024   25.4007 C   0  0  0  0  0  0  0  0  0  0  0  0
    6.5504  -11.5657   25.7822 C   0  0  0  0  0  0  0  0  0  0  0  0
    7.8149  -11.8591   26.2558 C   0  0  0  0  0  0  0  0  0  0  0  0
    8.2028  -13.1791   26.3267 C   0  0  0  0  0  0  0  0  0  0  0  0
    7.3647  -14.2271   25.9380 C   0  0  0  0  0  0  0  0  0  0  0  0
   11.0446  -17.1692   25.8586 C   0  0  0  0  0  0  0  0  0  0  0  0
   12.1750  -16.5718   25.7544 O   0  0  0  0  0  0  0  0  0  0  0  0
   10.3997  -14.1662   28.9580 C   0  0  0  0  0  0  0  0  0  0  0  0
   11.1448  -15.4606   29.9675 S   0  0  0  0  0  0  0  0  0  0  0  0
   12.0647  -16.6704   28.9193 C   0  0  0  0  0  0  0  0  0  0  0  0
   11.2204  -17.8947   28.7073 C   0  0  0  0  0  0  0  0  0  0  0  0
   11.8414  -18.7378   27.6016 C   0  0  2  0  0  0  0  0  0  0  0  0
   11.0844  -18.4760   26.3514 N   0  0  0  0  0  0  0  0  0  0  0  0
   11.6819  -20.1617   27.9056 C   0  0  0  0  0  0  0  0  0  0  0  0
   12.4263  -20.7845   28.9291 O   0  0  0  0  0  0  0  0  0  0  0  0
   10.8965  -20.9271   27.3003 O   0  0  0  0  0  0  0  0  0  0  0  0
  2  1  1  1
  3  2  1  0
  4  5  2  0
  4  3  1  0
  6  5  1  0
  7 12  2  0
  7  6  1  0
  8  7  1  0
  9 10  1  0
  9  8  2  0
 10 11  2  0
 11 12  1  0
 12  4  1  0
 13  2  1  0
 14 13  2  0
 15 13  1  0
 16 17  1  1
 16 15  1  0
 18 17  1  0
 19 18  2  0
 20 21  1  0
 20 19  1  0
 21 26  2  0
 22 23  2  0
 22 21  1  0
 23 24  1  0
 24 25  2  0
 26 25  1  0
 26 18  1  0
 27 16  1  0
 28 27  2  0
 30 31  1  0
 30 29  1  0
 33 32  1  1
 32 31  1  0
 33 34  1  0
 34 27  1  0
 35 36  1  0
 35 33  1  0
 37 35  2  0
M  END
$$$$
