WWM.pdb
     RDKit          3D

 37 40  0  0  1  0  0  0  0  0999 V2000
    6.4557  -18.8370   24.3432 N   0  0  0  0  0  0  0  0  0  0  0  0
    7.2251  -17.6629   24.0327 C   0  0  1  0  0  0  0  0  0  0  0  0
    7.6681  -16.8715   25.2308 C   0  0  0  0  0  0  0  0  0  0  0  0
    6.7021  -15.7880   25.4848 C   0  0  0  0  0  0  0  0  0  0  0  0
    5.5178  -15.8729   26.1803 C   0  0  0  0  0  0  0  0  0  0  0  0
    4.9469  -14.6609   26.2178 N   0  0  0  0  0  0  0  0  0  0  0  0
    5.7414  -13.8019   25.5597 C   0  0  0  0  0  0  0  0  0  0  0  0
    5.5816  -12.4594   25.3212 C   0  0  0  0  0  0  0  0  0  0  0  0
    6.5480  -11.7979   24.6001 C   0  0  0  0  0  0  0  0  0  0  0  0
    7.6518  -12.4627   24.1262 C   0  0  0  0  0  0  0  0  0  0  0  0
    7.8264  -13.8105   24.3579 C   0  0  0  0  0  0  0  0  0  0  0  0
    6.8456  -14.4759   25.0896 C   0  0  0  0  0  0  0  0  0  0  0  0
    8.4485  -18.0236   23.2221 C   0  0  0  0  0  0  0  0  0  0  0  0
    9.0836  -19.0517   23.5279 O   0  0  0  0  0  0  0  0  0  0  0  0
    8.8906  -17.2359   22.1336 N   0  0  0  0  0  0  0  0  0  0  0  0
   10.3139  -17.1474   21.7347 C   0  0  1  0  0  0  0  0  0  0  0  0
   10.3589  -16.2771   20.5568 C   0  0  0  0  0  0  0  0  0  0  0  0
    9.1424  -15.6766   20.0376 C   0  0  0  0  0  0  0  0  0  0  0  0
    8.2258  -16.1302   19.1198 C   0  0  0  0  0  0  0  0  0  0  0  0
    7.2843  -15.1862   18.9992 N   0  0  0  0  0  0  0  0  0  0  0  0
    7.5411  -14.1374   19.7944 C   0  0  0  0  0  0  0  0  0  0  0  0
    6.9075  -12.9315   20.0686 C   0  0  0  0  0  0  0  0  0  0  0  0
    7.3976  -12.0179   20.9728 C   0  0  0  0  0  0  0  0  0  0  0  0
    8.5725  -12.3085   21.6396 C   0  0  0  0  0  0  0  0  0  0  0  0
    9.2051  -13.5026   21.3713 C   0  0  0  0  0  0  0  0  0  0  0  0
    8.7014  -14.4261   20.4521 C   0  0  0  0  0  0  0  0  0  0  0  0
   11.1819  -16.8995   22.8648 C   0  0  0  0  0  0  0  0  0  0  0  0
   12.4434  -16.9385   22.6348 O   0  0  0  0  0  0  0  0  0  0  0  0
   10.1931  -13.8873   28.7380 C   0  0  0  0  0  0  0  0  0  0  0  0
   11.4777  -15.1055   29.0780 S   0  0  0  0  0  0  0  0  0  0  0  0
   12.2669  -15.6890   27.5144 C   0  0  0  0  0  0  0  0  0  0  0  0
   11.2128  -15.8816   26.4615 C   0  0  0  0  0  0  0  0  0  0  0  0
   11.8740  -16.3909   25.1877 C   0  0  2  0  0  0  0  0  0  0  0  0
   10.8066  -16.6142   24.1801 N   0  0  0  0  0  0  0  0  0  0  0  0
   12.5052  -17.6895   25.4339 C   0  0  0  0  0  0  0  0  0  0  0  0
   13.8937  -17.8037   25.6546 O   0  0  0  0  0  0  0  0  0  0  0  0
   11.8866  -18.7781   25.4666 O   0  0  0  0  0  0  0  0  0  0  0  0
  2  1  1  1
  3  2  1  0
  4  5  2  0
  4  3  1  0
  6  5  1  0
  7 12  2  0
  7  6  1  0
  8  7  1  0
  9 10  1  0
  9  8  2  0
 10 11  2  0
 11 12  1  0
 12  4  1  0
 13  2  1  0
 14 13  2  0
 15 13  1  0
 16 17  1  6
 16 15  1  0
 18 17  1  0
 19 18  2  0
 20 21  1  0
 20 19  1  0
 21 26  2  0
 22 23  2  0
 22 21  1  0
 23 24  1  0
 24 25  2  0
 26 25  1  0
 26 18  1  0
 27 16  1  0
 28 27  2  0
 30 31  1  0
 30 29  1  0
 33 32  1  1
 32 31  1  0
 33 34  1  0
 34 27  1  0
 35 36  1  0
 35 33  1  0
 37 35  2  0
M  END
$$$$
