WWM.pdb
     RDKit          3D

 37 40  0  0  1  0  0  0  0  0999 V2000
    8.9707  -17.4591   20.1993 N   0  0  0  0  0  0  0  0  0  0  0  0
    8.1238  -16.4777   20.8211 C   0  0  1  0  0  0  0  0  0  0  0  0
    6.8023  -16.2695   20.1368 C   0  0  0  0  0  0  0  0  0  0  0  0
    6.9718  -15.3135   19.0281 C   0  0  0  0  0  0  0  0  0  0  0  0
    6.4010  -15.3771   17.7777 C   0  0  0  0  0  0  0  0  0  0  0  0
    6.7755  -14.3004   17.0728 N   0  0  0  0  0  0  0  0  0  0  0  0
    7.5749  -13.5491   17.8465 C   0  0  0  0  0  0  0  0  0  0  0  0
    8.2098  -12.3639   17.5688 C   0  0  0  0  0  0  0  0  0  0  0  0
    8.9947  -11.7922   18.5427 C   0  0  0  0  0  0  0  0  0  0  0  0
    9.1433  -12.3910   19.7692 C   0  0  0  0  0  0  0  0  0  0  0  0
    8.5119  -13.5809   20.0629 C   0  0  0  0  0  0  0  0  0  0  0  0
    7.7172  -14.1556   19.0738 C   0  0  0  0  0  0  0  0  0  0  0  0
    7.8601  -16.8363   22.2654 C   0  0  0  0  0  0  0  0  0  0  0  0
    6.6782  -16.9130   22.6537 O   0  0  0  0  0  0  0  0  0  0  0  0
    8.9071  -17.0871   23.1829 N   0  0  0  0  0  0  0  0  0  0  0  0
    9.1626  -16.2274   24.3613 C   0  0  1  0  0  0  0  0  0  0  0  0
    7.8711  -16.0501   25.0303 C   0  0  0  0  0  0  0  0  0  0  0  0
    7.7861  -15.3298   26.2887 C   0  0  0  0  0  0  0  0  0  0  0  0
    7.9084  -15.7562   27.5893 C   0  0  0  0  0  0  0  0  0  0  0  0
    7.7457  -14.6849   28.3754 N   0  0  0  0  0  0  0  0  0  0  0  0
    7.5233  -13.5784   27.6512 C   0  0  0  0  0  0  0  0  0  0  0  0
    7.3118  -12.2365   27.9436 C   0  0  0  0  0  0  0  0  0  0  0  0
    7.1233  -11.2803   26.9727 C   0  0  0  0  0  0  0  0  0  0  0  0
    7.1442  -11.6677   25.6465 C   0  0  0  0  0  0  0  0  0  0  0  0
    7.3531  -12.9969   25.3509 C   0  0  0  0  0  0  0  0  0  0  0  0
    7.5443  -13.9627   26.3420 C   0  0  0  0  0  0  0  0  0  0  0  0
   10.3238  -16.6581   25.1082 C   0  0  0  0  0  0  0  0  0  0  0  0
   10.7607  -15.8476   26.0014 O   0  0  0  0  0  0  0  0  0  0  0  0
   14.2768  -15.7613   20.6007 C   0  0  0  0  0  0  0  0  0  0  0  0
   14.6293  -15.2941   22.3058 S   0  0  0  0  0  0  0  0  0  0  0  0
   14.2510  -16.6812   23.4639 C   0  0  0  0  0  0  0  0  0  0  0  0
   12.7817  -16.6873   23.7768 C   0  0  0  0  0  0  0  0  0  0  0  0
   12.4926  -17.8051   24.7697 C   0  0  2  0  0  0  0  0  0  0  0  0
   11.0233  -17.8605   24.9760 N   0  0  0  0  0  0  0  0  0  0  0  0
   13.0931  -17.4914   26.0684 C   0  0  0  0  0  0  0  0  0  0  0  0
   14.4901  -17.5232   26.2609 O   0  0  0  0  0  0  0  0  0  0  0  0
   12.4386  -17.1796   27.0898 O   0  0  0  0  0  0  0  0  0  0  0  0
  2  1  1  6
  3  2  1  0
  4  5  2  0
  4  3  1  0
  6  5  1  0
  7 12  2  0
  7  6  1  0
  8  7  1  0
  9 10  1  0
  9  8  2  0
 10 11  2  0
 11 12  1  0
 12  4  1  0
 13  2  1  0
 14 13  2  0
 15 13  1  0
 16 17  1  1
 16 15  1  0
 18 17  1  0
 19 18  2  0
 20 21  1  0
 20 19  1  0
 21 26  2  0
 22 23  2  0
 22 21  1  0
 23 24  1  0
 24 25  2  0
 26 25  1  0
 26 18  1  0
 27 16  1  0
 28 27  2  0
 30 31  1  0
 30 29  1  0
 33 32  1  6
 32 31  1  0
 33 34  1  0
 34 27  1  0
 35 36  1  0
 35 33  1  0
 37 35  2  0
M  END
$$$$
