WWM.pdb
     RDKit          3D

 37 40  0  0  1  0  0  0  0  0999 V2000
   11.8703  -17.6229   19.9776 N   0  0  0  0  0  0  0  0  0  0  0  0
   10.6490  -17.0092   20.4233 C   0  0  1  0  0  0  0  0  0  0  0  0
    9.4030  -17.7754   20.0791 C   0  0  0  0  0  0  0  0  0  0  0  0
    8.2360  -16.8813   20.1814 C   0  0  0  0  0  0  0  0  0  0  0  0
    6.9318  -17.2385   20.4363 C   0  0  0  0  0  0  0  0  0  0  0  0
    6.1785  -16.1310   20.4843 N   0  0  0  0  0  0  0  0  0  0  0  0
    6.9738  -15.0721   20.2646 C   0  0  0  0  0  0  0  0  0  0  0  0
    6.6662  -13.7353   20.2082 C   0  0  0  0  0  0  0  0  0  0  0  0
    7.6753  -12.8364   19.9530 C   0  0  0  0  0  0  0  0  0  0  0  0
    8.9656  -13.2628   19.7576 C   0  0  0  0  0  0  0  0  0  0  0  0
    9.2901  -14.6016   19.8115 C   0  0  0  0  0  0  0  0  0  0  0  0
    8.2650  -15.5081   20.0714 C   0  0  0  0  0  0  0  0  0  0  0  0
   10.6748  -16.7900   21.9184 C   0  0  0  0  0  0  0  0  0  0  0  0
   11.6552  -17.2081   22.5648 O   0  0  0  0  0  0  0  0  0  0  0  0
    9.6276  -16.1283   22.6014 N   0  0  0  0  0  0  0  0  0  0  0  0
    9.7355  -15.7057   24.0165 C   0  0  1  0  0  0  0  0  0  0  0  0
    8.6138  -14.7954   24.2619 C   0  0  0  0  0  0  0  0  0  0  0  0
    8.3406  -14.3075   25.6024 C   0  0  0  0  0  0  0  0  0  0  0  0
    8.6139  -14.8442   26.8375 C   0  0  0  0  0  0  0  0  0  0  0  0
    8.1502  -13.9864   27.7547 N   0  0  0  0  0  0  0  0  0  0  0  0
    7.5872  -12.9143   27.1785 C   0  0  0  0  0  0  0  0  0  0  0  0
    6.9844  -11.7509   27.6412 C   0  0  0  0  0  0  0  0  0  0  0  0
    6.4942  -10.7778   26.8014 C   0  0  0  0  0  0  0  0  0  0  0  0
    6.6038  -10.9621   25.4363 C   0  0  0  0  0  0  0  0  0  0  0  0
    7.2002  -12.1139   24.9721 C   0  0  0  0  0  0  0  0  0  0  0  0
    7.6964  -13.0980   25.8307 C   0  0  0  0  0  0  0  0  0  0  0  0
    9.9820  -16.8229   24.9014 C   0  0  0  0  0  0  0  0  0  0  0  0
   10.0886  -16.5492   26.1501 O   0  0  0  0  0  0  0  0  0  0  0  0
   12.4460  -20.4988   21.1171 C   0  0  0  0  0  0  0  0  0  0  0  0
   11.1780  -20.8784   22.3409 S   0  0  0  0  0  0  0  0  0  0  0  0
   11.7261  -20.3906   24.0350 C   0  0  0  0  0  0  0  0  0  0  0  0
   10.5740  -20.5163   24.9909 C   0  0  0  0  0  0  0  0  0  0  0  0
   10.3209  -19.1623   25.6404 C   0  0  2  0  0  0  0  0  0  0  0  0
   10.1105  -18.1706   24.5556 N   0  0  0  0  0  0  0  0  0  0  0  0
   11.5065  -18.7329   26.3856 C   0  0  0  0  0  0  0  0  0  0  0  0
   11.9395  -19.4186   27.5397 O   0  0  0  0  0  0  0  0  0  0  0  0
   12.2157  -17.7487   26.0738 O   0  0  0  0  0  0  0  0  0  0  0  0
  2  1  1  1
  3  2  1  0
  4  5  2  0
  4  3  1  0
  6  5  1  0
  7 12  2  0
  7  6  1  0
  8  7  1  0
  9 10  1  0
  9  8  2  0
 10 11  2  0
 11 12  1  0
 12  4  1  0
 13  2  1  0
 14 13  2  0
 15 13  1  0
 16 17  1  1
 16 15  1  0
 18 17  1  0
 19 18  2  0
 20 21  1  0
 20 19  1  0
 21 26  2  0
 22 23  2  0
 22 21  1  0
 23 24  1  0
 24 25  2  0
 26 25  1  0
 26 18  1  0
 27 16  1  0
 28 27  2  0
 30 31  1  0
 30 29  1  0
 33 32  1  6
 32 31  1  0
 33 34  1  0
 34 27  1  0
 35 36  1  0
 35 33  1  0
 37 35  2  0
M  END
$$$$
