WWM.pdb
     RDKit          3D

 37 40  0  0  1  0  0  0  0  0999 V2000
   10.3808  -17.5861   18.8833 N   0  0  0  0  0  0  0  0  0  0  0  0
   10.2660  -18.0449   20.2410 C   0  0  1  0  0  0  0  0  0  0  0  0
   11.4228  -18.8760   20.7194 C   0  0  0  0  0  0  0  0  0  0  0  0
   11.4087  -20.1770   20.0272 C   0  0  0  0  0  0  0  0  0  0  0  0
   11.7622  -20.4307   18.7218 C   0  0  0  0  0  0  0  0  0  0  0  0
   11.6450  -21.7450   18.4866 N   0  0  0  0  0  0  0  0  0  0  0  0
   11.2231  -22.3377   19.6148 C   0  0  0  0  0  0  0  0  0  0  0  0
   10.9499  -23.6592   19.8671 C   0  0  0  0  0  0  0  0  0  0  0  0
   10.5132  -24.0146   21.1219 C   0  0  0  0  0  0  0  0  0  0  0  0
   10.3521  -23.0702   22.1053 C   0  0  0  0  0  0  0  0  0  0  0  0
   10.6227  -21.7395   21.8672 C   0  0  0  0  0  0  0  0  0  0  0  0
   11.0657  -21.3845   20.5952 C   0  0  0  0  0  0  0  0  0  0  0  0
   10.0945  -16.8790   21.1872 C   0  0  0  0  0  0  0  0  0  0  0  0
   10.9152  -15.9424   21.1330 O   0  0  0  0  0  0  0  0  0  0  0  0
    9.0373  -16.8186   22.1250 N   0  0  0  0  0  0  0  0  0  0  0  0
    8.8382  -15.6671   23.0346 C   0  0  1  0  0  0  0  0  0  0  0  0
    7.3946  -15.5690   23.2659 C   0  0  0  0  0  0  0  0  0  0  0  0
    6.8834  -15.0352   24.5162 C   0  0  0  0  0  0  0  0  0  0  0  0
    6.3992  -15.6602   25.6402 C   0  0  0  0  0  0  0  0  0  0  0  0
    6.0583  -14.7026   26.5113 N   0  0  0  0  0  0  0  0  0  0  0  0
    6.2968  -13.4815   26.0111 C   0  0  0  0  0  0  0  0  0  0  0  0
    6.1509  -12.1808   26.4778 C   0  0  0  0  0  0  0  0  0  0  0  0
    6.5040  -11.0765   25.7372 C   0  0  0  0  0  0  0  0  0  0  0  0
    7.0269  -11.2651   24.4721 C   0  0  0  0  0  0  0  0  0  0  0  0
    7.1733  -12.5526   24.0042 C   0  0  0  0  0  0  0  0  0  0  0  0
    6.8130  -13.6696   24.7620 C   0  0  0  0  0  0  0  0  0  0  0  0
    9.7609  -15.6867   24.1482 C   0  0  0  0  0  0  0  0  0  0  0  0
    9.7360  -14.6684   24.9279 O   0  0  0  0  0  0  0  0  0  0  0  0
    9.7617  -13.1152   29.5452 C   0  0  0  0  0  0  0  0  0  0  0  0
    9.8278  -14.8213   28.9666 S   0  0  0  0  0  0  0  0  0  0  0  0
   10.8166  -14.9555   27.4133 C   0  0  0  0  0  0  0  0  0  0  0  0
   10.7358  -16.3602   26.8867 C   0  0  0  0  0  0  0  0  0  0  0  0
   11.5872  -16.4659   25.6285 C   0  0  2  0  0  0  0  0  0  0  0  0
   10.6738  -16.6912   24.4798 N   0  0  0  0  0  0  0  0  0  0  0  0
   12.4634  -17.6367   25.7116 C   0  0  0  0  0  0  0  0  0  0  0  0
   12.2867  -18.7507   24.8646 O   0  0  0  0  0  0  0  0  0  0  0  0
   13.4149  -17.7480   26.5186 O   0  0  0  0  0  0  0  0  0  0  0  0
  2  1  1  6
  3  2  1  0
  4  5  2  0
  4  3  1  0
  6  5  1  0
  7 12  2  0
  7  6  1  0
  8  7  1  0
  9 10  1  0
  9  8  2  0
 10 11  2  0
 11 12  1  0
 12  4  1  0
 13  2  1  0
 14 13  2  0
 15 13  1  0
 16 17  1  1
 16 15  1  0
 18 17  1  0
 19 18  2  0
 20 21  1  0
 20 19  1  0
 21 26  2  0
 22 23  2  0
 22 21  1  0
 23 24  1  0
 24 25  2  0
 26 25  1  0
 26 18  1  0
 27 16  1  0
 28 27  2  0
 30 31  1  0
 30 29  1  0
 33 32  1  1
 32 31  1  0
 33 34  1  0
 34 27  1  0
 35 36  1  0
 35 33  1  0
 37 35  2  0
M  END
$$$$
