WWM.pdb
     RDKit          3D

 37 40  0  0  1  0  0  0  0  0999 V2000
    7.4240  -19.3956   20.9051 N   0  0  0  0  0  0  0  0  0  0  0  0
    7.6151  -17.9749   21.0143 C   0  0  1  0  0  0  0  0  0  0  0  0
    6.7129  -17.1539   20.1370 C   0  0  0  0  0  0  0  0  0  0  0  0
    7.4936  -16.0734   19.5088 C   0  0  0  0  0  0  0  0  0  0  0  0
    8.1872  -16.1276   18.3216 C   0  0  0  0  0  0  0  0  0  0  0  0
    8.7345  -14.9279   18.0818 N   0  0  0  0  0  0  0  0  0  0  0  0
    8.4059  -14.1069   19.0918 C   0  0  0  0  0  0  0  0  0  0  0  0
    8.7348  -12.7904   19.3002 C   0  0  0  0  0  0  0  0  0  0  0  0
    8.2756  -12.1678   20.4372 C   0  0  0  0  0  0  0  0  0  0  0  0
    7.5038  -12.8452   21.3485 C   0  0  0  0  0  0  0  0  0  0  0  0
    7.1651  -14.1673   21.1530 C   0  0  0  0  0  0  0  0  0  0  0  0
    7.6315  -14.7933   19.9994 C   0  0  0  0  0  0  0  0  0  0  0  0
    7.4326  -17.5187   22.4435 C   0  0  0  0  0  0  0  0  0  0  0  0
    6.2807  -17.2598   22.8435 O   0  0  0  0  0  0  0  0  0  0  0  0
    8.5218  -17.3788   23.3350 N   0  0  0  0  0  0  0  0  0  0  0  0
    9.5048  -16.2760   23.2320 C   0  0  1  0  0  0  0  0  0  0  0  0
    8.7331  -15.0309   23.2679 C   0  0  0  0  0  0  0  0  0  0  0  0
    7.7271  -14.8170   24.2936 C   0  0  0  0  0  0  0  0  0  0  0  0
    6.8613  -15.6866   24.9119 C   0  0  0  0  0  0  0  0  0  0  0  0
    6.1419  -14.9748   25.7883 N   0  0  0  0  0  0  0  0  0  0  0  0
    6.4962  -13.6815   25.7728 C   0  0  0  0  0  0  0  0  0  0  0  0
    6.1008  -12.5443   26.4666 C   0  0  0  0  0  0  0  0  0  0  0  0
    6.6641  -11.3068   26.2569 C   0  0  0  0  0  0  0  0  0  0  0  0
    7.6678  -11.1853   25.3149 C   0  0  0  0  0  0  0  0  0  0  0  0
    8.0634  -12.3095   24.6239 C   0  0  0  0  0  0  0  0  0  0  0  0
    7.4872  -13.5634   24.8423 C   0  0  0  0  0  0  0  0  0  0  0  0
   10.6325  -16.4671   24.1173 C   0  0  0  0  0  0  0  0  0  0  0  0
   11.6371  -15.6899   23.9376 O   0  0  0  0  0  0  0  0  0  0  0  0
    9.7034  -14.2533   29.9153 C   0  0  0  0  0  0  0  0  0  0  0  0
   11.0496  -14.3898   28.7240 S   0  0  0  0  0  0  0  0  0  0  0  0
   10.9442  -15.9759   27.7851 C   0  0  0  0  0  0  0  0  0  0  0  0
   11.9871  -15.9893   26.7038 C   0  0  0  0  0  0  0  0  0  0  0  0
   11.9639  -17.3456   26.0118 C   0  0  2  0  0  0  0  0  0  0  0  0
   10.7536  -17.3967   25.1533 N   0  0  0  0  0  0  0  0  0  0  0  0
   11.8271  -18.4140   27.0045 C   0  0  0  0  0  0  0  0  0  0  0  0
   12.8481  -18.6866   27.9388 O   0  0  0  0  0  0  0  0  0  0  0  0
   10.8238  -19.1569   27.1054 O   0  0  0  0  0  0  0  0  0  0  0  0
  2  1  1  1
  3  2  1  0
  4  5  2  0
  4  3  1  0
  6  5  1  0
  7 12  2  0
  7  6  1  0
  8  7  1  0
  9 10  1  0
  9  8  2  0
 10 11  2  0
 11 12  1  0
 12  4  1  0
 13  2  1  0
 14 13  2  0
 15 13  1  0
 16 17  1  1
 16 15  1  0
 18 17  1  0
 19 18  2  0
 20 21  1  0
 20 19  1  0
 21 26  2  0
 22 23  2  0
 22 21  1  0
 23 24  1  0
 24 25  2  0
 26 25  1  0
 26 18  1  0
 27 16  1  0
 28 27  2  0
 30 31  1  0
 30 29  1  0
 33 32  1  1
 32 31  1  0
 33 34  1  0
 34 27  1  0
 35 36  1  0
 35 33  1  0
 37 35  2  0
M  END
$$$$
