WWM.pdb
     RDKit          3D

 37 40  0  0  1  0  0  0  0  0999 V2000
    6.4503  -18.9277   25.2887 N   0  0  0  0  0  0  0  0  0  0  0  0
    7.0589  -17.7443   24.7445 C   0  0  1  0  0  0  0  0  0  0  0  0
    7.5789  -16.7799   25.7728 C   0  0  0  0  0  0  0  0  0  0  0  0
    6.6767  -15.6173   25.8521 C   0  0  0  0  0  0  0  0  0  0  0  0
    5.3201  -15.6288   26.0822 C   0  0  0  0  0  0  0  0  0  0  0  0
    4.8733  -14.3656   26.1150 N   0  0  0  0  0  0  0  0  0  0  0  0
    5.9163  -13.5457   25.9099 C   0  0  0  0  0  0  0  0  0  0  0  0
    5.9608  -12.1750   25.8467 C   0  0  0  0  0  0  0  0  0  0  0  0
    7.1702  -11.5645   25.6102 C   0  0  0  0  0  0  0  0  0  0  0  0
    8.3125  -12.3067   25.4398 C   0  0  0  0  0  0  0  0  0  0  0  0
    8.2838  -13.6838   25.5009 C   0  0  0  0  0  0  0  0  0  0  0  0
    7.0569  -14.2975   25.7417 C   0  0  0  0  0  0  0  0  0  0  0  0
    8.1941  -18.1057   23.8145 C   0  0  0  0  0  0  0  0  0  0  0  0
    8.8469  -19.1419   24.0463 O   0  0  0  0  0  0  0  0  0  0  0  0
    8.5347  -17.3095   22.6960 N   0  0  0  0  0  0  0  0  0  0  0  0
    9.7694  -17.5231   21.9069 C   0  0  1  0  0  0  0  0  0  0  0  0
    9.5132  -16.9586   20.5792 C   0  0  0  0  0  0  0  0  0  0  0  0
    9.8098  -15.5640   20.3018 C   0  0  0  0  0  0  0  0  0  0  0  0
   10.9362  -14.9574   19.8002 C   0  0  0  0  0  0  0  0  0  0  0  0
   10.6859  -13.6437   19.7392 N   0  0  0  0  0  0  0  0  0  0  0  0
    9.4498  -13.3624   20.1763 C   0  0  0  0  0  0  0  0  0  0  0  0
    8.6923  -12.2050   20.3093 C   0  0  0  0  0  0  0  0  0  0  0  0
    7.4012  -12.2067   20.7842 C   0  0  0  0  0  0  0  0  0  0  0  0
    6.8288  -13.4110   21.1467 C   0  0  0  0  0  0  0  0  0  0  0  0
    7.5754  -14.5616   21.0173 C   0  0  0  0  0  0  0  0  0  0  0  0
    8.8860  -14.5526   20.5337 C   0  0  0  0  0  0  0  0  0  0  0  0
   10.9579  -17.1553   22.6446 C   0  0  0  0  0  0  0  0  0  0  0  0
   12.0777  -17.3165   22.0399 O   0  0  0  0  0  0  0  0  0  0  0  0
   11.8494  -13.9158   28.3099 C   0  0  0  0  0  0  0  0  0  0  0  0
   10.6078  -13.6075   27.0399 S   0  0  0  0  0  0  0  0  0  0  0  0
   11.0074  -14.5234   25.4875 C   0  0  0  0  0  0  0  0  0  0  0  0
   12.1610  -15.4530   25.7359 C   0  0  0  0  0  0  0  0  0  0  0  0
   12.3667  -16.3253   24.5047 C   0  0  2  0  0  0  0  0  0  0  0  0
   11.0292  -16.6363   23.9400 N   0  0  0  0  0  0  0  0  0  0  0  0
   12.9738  -17.6017   24.8889 C   0  0  0  0  0  0  0  0  0  0  0  0
   14.3049  -17.6752   25.3499 O   0  0  0  0  0  0  0  0  0  0  0  0
   12.3829  -18.7051   24.8409 O   0  0  0  0  0  0  0  0  0  0  0  0
  2  1  1  1
  3  2  1  0
  4  5  2  0
  4  3  1  0
  6  5  1  0
  7 12  2  0
  7  6  1  0
  8  7  1  0
  9 10  1  0
  9  8  2  0
 10 11  2  0
 11 12  1  0
 12  4  1  0
 13  2  1  0
 14 13  2  0
 15 13  1  0
 16 17  1  6
 16 15  1  0
 18 17  1  0
 19 18  2  0
 20 21  1  0
 20 19  1  0
 21 26  2  0
 22 23  2  0
 22 21  1  0
 23 24  1  0
 24 25  2  0
 26 25  1  0
 26 18  1  0
 27 16  1  0
 28 27  2  0
 30 31  1  0
 30 29  1  0
 33 32  1  1
 32 31  1  0
 33 34  1  0
 34 27  1  0
 35 36  1  0
 35 33  1  0
 37 35  2  0
M  END
$$$$
