WWM.pdb
     RDKit          3D

 37 40  0  0  1  0  0  0  0  0999 V2000
    9.5910  -16.5519   18.3653 N   0  0  0  0  0  0  0  0  0  0  0  0
    9.5120  -17.3615   19.5508 C   0  0  1  0  0  0  0  0  0  0  0  0
   10.5344  -18.4601   19.6263 C   0  0  0  0  0  0  0  0  0  0  0  0
   10.2064  -19.5012   18.6362 C   0  0  0  0  0  0  0  0  0  0  0  0
   10.3677  -19.4342   17.2713 C   0  0  0  0  0  0  0  0  0  0  0  0
    9.9845  -20.5989   16.7299 N   0  0  0  0  0  0  0  0  0  0  0  0
    9.5805  -21.4098   17.7205 C   0  0  0  0  0  0  0  0  0  0  0  0
    9.0947  -22.6928   17.6665 C   0  0  0  0  0  0  0  0  0  0  0  0
    8.7337  -23.3113   18.8406 C   0  0  0  0  0  0  0  0  0  0  0  0
    8.8548  -22.6628   20.0446 C   0  0  0  0  0  0  0  0  0  0  0  0
    9.3413  -21.3747   20.1149 C   0  0  0  0  0  0  0  0  0  0  0  0
    9.7066  -20.7527   18.9233 C   0  0  0  0  0  0  0  0  0  0  0  0
    9.6389  -16.5077   20.7914 C   0  0  0  0  0  0  0  0  0  0  0  0
   10.5948  -15.7116   20.8712 O   0  0  0  0  0  0  0  0  0  0  0  0
    8.7113  -16.5833   21.8565 N   0  0  0  0  0  0  0  0  0  0  0  0
    8.9060  -15.8716   23.1404 C   0  0  1  0  0  0  0  0  0  0  0  0
    7.5668  -15.5530   23.6426 C   0  0  0  0  0  0  0  0  0  0  0  0
    7.3615  -15.2394   25.0459 C   0  0  0  0  0  0  0  0  0  0  0  0
    7.2377  -16.0497   26.1489 C   0  0  0  0  0  0  0  0  0  0  0  0
    7.0646  -15.2521   27.2101 N   0  0  0  0  0  0  0  0  0  0  0  0
    7.0697  -13.9593   26.8539 C   0  0  0  0  0  0  0  0  0  0  0  0
    6.9521  -12.7514   27.5307 C   0  0  0  0  0  0  0  0  0  0  0  0
    7.0134  -11.5310   26.8986 C   0  0  0  0  0  0  0  0  0  0  0  0
    7.1997  -11.5011   25.5297 C   0  0  0  0  0  0  0  0  0  0  0  0
    7.3165  -12.6957   24.8537 C   0  0  0  0  0  0  0  0  0  0  0  0
    7.2538  -13.9316   25.5021 C   0  0  0  0  0  0  0  0  0  0  0  0
    9.8706  -16.5346   23.9900 C   0  0  0  0  0  0  0  0  0  0  0  0
    9.7328  -17.8024   24.1285 O   0  0  0  0  0  0  0  0  0  0  0  0
   15.8363  -16.0461   21.7443 C   0  0  0  0  0  0  0  0  0  0  0  0
   15.3240  -15.7890   23.4535 S   0  0  0  0  0  0  0  0  0  0  0  0
   13.6692  -16.5443   23.7693 C   0  0  0  0  0  0  0  0  0  0  0  0
   13.2848  -16.3285   25.2054 C   0  0  0  0  0  0  0  0  0  0  0  0
   11.8683  -16.8445   25.4206 C   0  0  2  0  0  0  0  0  0  0  0  0
   10.9429  -15.9556   24.6736 N   0  0  0  0  0  0  0  0  0  0  0  0
   11.5062  -16.7429   26.8363 C   0  0  0  0  0  0  0  0  0  0  0  0
   10.7206  -15.6763   27.3210 O   0  0  0  0  0  0  0  0  0  0  0  0
   11.8537  -17.5675   27.7127 O   0  0  0  0  0  0  0  0  0  0  0  0
  2  1  1  6
  3  2  1  0
  4  5  2  0
  4  3  1  0
  6  5  1  0
  7 12  2  0
  7  6  1  0
  8  7  1  0
  9 10  1  0
  9  8  2  0
 10 11  2  0
 11 12  1  0
 12  4  1  0
 13  2  1  0
 14 13  2  0
 15 13  1  0
 16 17  1  1
 16 15  1  0
 18 17  1  0
 19 18  2  0
 20 21  1  0
 20 19  1  0
 21 26  2  0
 22 23  2  0
 22 21  1  0
 23 24  1  0
 24 25  2  0
 26 25  1  0
 26 18  1  0
 27 16  1  0
 28 27  2  0
 30 31  1  0
 30 29  1  0
 33 32  1  1
 32 31  1  0
 33 34  1  0
 34 27  1  0
 35 36  1  0
 35 33  1  0
 37 35  2  0
M  END
$$$$
