WWM.pdb
     RDKit          3D

 37 40  0  0  1  0  0  0  0  0999 V2000
    7.0148  -19.5154   24.6466 N   0  0  0  0  0  0  0  0  0  0  0  0
    7.3590  -18.1243   24.5310 C   0  0  1  0  0  0  0  0  0  0  0  0
    7.6816  -17.4502   25.8346 C   0  0  0  0  0  0  0  0  0  0  0  0
    7.0036  -16.1429   25.8893 C   0  0  0  0  0  0  0  0  0  0  0  0
    5.6480  -15.9069   25.9081 C   0  0  0  0  0  0  0  0  0  0  0  0
    5.4372  -14.5862   25.9962 N   0  0  0  0  0  0  0  0  0  0  0  0
    6.6303  -13.9720   26.0335 C   0  0  0  0  0  0  0  0  0  0  0  0
    6.9311  -12.6348   26.1125 C   0  0  0  0  0  0  0  0  0  0  0  0
    8.2530  -12.2556   26.1237 C   0  0  0  0  0  0  0  0  0  0  0  0
    9.2550  -13.1919   26.0572 C   0  0  0  0  0  0  0  0  0  0  0  0
    8.9686  -14.5382   25.9779 C   0  0  0  0  0  0  0  0  0  0  0  0
    7.6284  -14.9174   25.9679 C   0  0  0  0  0  0  0  0  0  0  0  0
    8.5323  -17.9391   23.5966 C   0  0  0  0  0  0  0  0  0  0  0  0
    9.4634  -18.7669   23.6386 O   0  0  0  0  0  0  0  0  0  0  0  0
    8.6045  -16.8631   22.6814 N   0  0  0  0  0  0  0  0  0  0  0  0
    9.8617  -16.1320   22.4021 C   0  0  1  0  0  0  0  0  0  0  0  0
    9.4780  -14.7484   22.1096 C   0  0  0  0  0  0  0  0  0  0  0  0
    8.2641  -14.4623   21.3650 C   0  0  0  0  0  0  0  0  0  0  0  0
    6.9610  -14.8476   21.5696 C   0  0  0  0  0  0  0  0  0  0  0  0
    6.2281  -14.3060   20.5889 N   0  0  0  0  0  0  0  0  0  0  0  0
    6.9895  -13.5848   19.7532 C   0  0  0  0  0  0  0  0  0  0  0  0
    6.7525  -12.8219   18.6161 C   0  0  0  0  0  0  0  0  0  0  0  0
    7.7484  -12.1511   17.9447 C   0  0  0  0  0  0  0  0  0  0  0  0
    9.0434  -12.2379   18.4188 C   0  0  0  0  0  0  0  0  0  0  0  0
    9.2841  -12.9932   19.5455 C   0  0  0  0  0  0  0  0  0  0  0  0
    8.2678  -13.6715   20.2227 C   0  0  0  0  0  0  0  0  0  0  0  0
   10.8875  -16.4187   23.3805 C   0  0  0  0  0  0  0  0  0  0  0  0
   12.0984  -16.1976   23.0194 O   0  0  0  0  0  0  0  0  0  0  0  0
   10.1071  -15.1119   29.9746 C   0  0  0  0  0  0  0  0  0  0  0  0
   11.5943  -14.4908   29.1670 S   0  0  0  0  0  0  0  0  0  0  0  0
   12.2068  -15.6847   27.8991 C   0  0  0  0  0  0  0  0  0  0  0  0
   11.1965  -15.8054   26.7939 C   0  0  0  0  0  0  0  0  0  0  0  0
   11.7859  -16.6555   25.6763 C   0  0  2  0  0  0  0  0  0  0  0  0
   10.7134  -16.9025   24.6797 N   0  0  0  0  0  0  0  0  0  0  0  0
   12.1904  -17.9626   26.1991 C   0  0  0  0  0  0  0  0  0  0  0  0
   13.4985  -18.1934   26.6737 O   0  0  0  0  0  0  0  0  0  0  0  0
   11.4341  -18.9587   26.2660 O   0  0  0  0  0  0  0  0  0  0  0  0
  2  1  1  1
  3  2  1  0
  4  5  2  0
  4  3  1  0
  6  5  1  0
  7 12  2  0
  7  6  1  0
  8  7  1  0
  9 10  1  0
  9  8  2  0
 10 11  2  0
 11 12  1  0
 12  4  1  0
 13  2  1  0
 14 13  2  0
 15 13  1  0
 16 17  1  1
 16 15  1  0
 18 17  1  0
 19 18  2  0
 20 21  1  0
 20 19  1  0
 21 26  2  0
 22 23  2  0
 22 21  1  0
 23 24  1  0
 24 25  2  0
 26 25  1  0
 26 18  1  0
 27 16  1  0
 28 27  2  0
 30 31  1  0
 30 29  1  0
 33 32  1  1
 32 31  1  0
 33 34  1  0
 34 27  1  0
 35 36  1  0
 35 33  1  0
 37 35  2  0
M  END
$$$$
