WWM.pdb
     RDKit          3D

 37 40  0  0  1  0  0  0  0  0999 V2000
    6.9980  -20.7252   26.5334 N   0  0  0  0  0  0  0  0  0  0  0  0
    7.1806  -19.3856   26.0443 C   0  0  1  0  0  0  0  0  0  0  0  0
    8.5665  -18.8358   26.2314 C   0  0  0  0  0  0  0  0  0  0  0  0
    8.7687  -18.4942   27.6507 C   0  0  0  0  0  0  0  0  0  0  0  0
    8.5521  -19.3038   28.7421 C   0  0  0  0  0  0  0  0  0  0  0  0
    8.8882  -18.6349   29.8539 N   0  0  0  0  0  0  0  0  0  0  0  0
    9.3150  -17.4134   29.4963 C   0  0  0  0  0  0  0  0  0  0  0  0
    9.7548  -16.3708   30.2738 C   0  0  0  0  0  0  0  0  0  0  0  0
   10.1312  -15.2008   29.6567 C   0  0  0  0  0  0  0  0  0  0  0  0
   10.0700  -15.0734   28.2911 C   0  0  0  0  0  0  0  0  0  0  0  0
    9.6309  -16.1115   27.4971 C   0  0  0  0  0  0  0  0  0  0  0  0
    9.2517  -17.2948   28.1265 C   0  0  0  0  0  0  0  0  0  0  0  0
    6.8288  -19.2990   24.5770 C   0  0  0  0  0  0  0  0  0  0  0  0
    6.9671  -20.3166   23.8704 O   0  0  0  0  0  0  0  0  0  0  0  0
    6.3495  -18.1067   23.9860 N   0  0  0  0  0  0  0  0  0  0  0  0
    6.9793  -17.4940   22.7940 C   0  0  1  0  0  0  0  0  0  0  0  0
    6.1352  -16.3560   22.4205 C   0  0  0  0  0  0  0  0  0  0  0  0
    6.4065  -15.6043   21.2076 C   0  0  0  0  0  0  0  0  0  0  0  0
    6.2582  -15.9347   19.8820 C   0  0  0  0  0  0  0  0  0  0  0  0
    6.6532  -14.8771   19.1626 N   0  0  0  0  0  0  0  0  0  0  0  0
    7.0522  -13.8709   19.9542 C   0  0  0  0  0  0  0  0  0  0  0  0
    7.5266  -12.5818   19.7440 C   0  0  0  0  0  0  0  0  0  0  0  0
    7.8538  -11.7286   20.7724 C   0  0  0  0  0  0  0  0  0  0  0  0
    7.7060  -12.1696   22.0735 C   0  0  0  0  0  0  0  0  0  0  0  0
    7.2364  -13.4470   22.2876 C   0  0  0  0  0  0  0  0  0  0  0  0
    6.9056  -14.3081   21.2385 C   0  0  0  0  0  0  0  0  0  0  0  0
    8.4068  -17.3276   22.9571 C   0  0  0  0  0  0  0  0  0  0  0  0
    9.1401  -17.6893   21.9686 O   0  0  0  0  0  0  0  0  0  0  0  0
   11.2274  -13.3675   28.4335 C   0  0  0  0  0  0  0  0  0  0  0  0
   10.4373  -13.3733   26.8132 S   0  0  0  0  0  0  0  0  0  0  0  0
   11.0373  -14.7876   25.7893 C   0  0  0  0  0  0  0  0  0  0  0  0
   10.3455  -14.7710   24.4560 C   0  0  0  0  0  0  0  0  0  0  0  0
   10.4037  -16.1677   23.8517 C   0  0  2  0  0  0  0  0  0  0  0  0
    9.0824  -16.8104   24.0654 N   0  0  0  0  0  0  0  0  0  0  0  0
   11.3928  -16.9817   24.5621 C   0  0  0  0  0  0  0  0  0  0  0  0
   12.7771  -16.7569   24.4113 O   0  0  0  0  0  0  0  0  0  0  0  0
   11.1044  -17.9206   25.3394 O   0  0  0  0  0  0  0  0  0  0  0  0
  2  1  1  6
  3  2  1  0
  4  5  2  0
  4  3  1  0
  6  5  1  0
  7 12  2  0
  7  6  1  0
  8  7  1  0
  9 10  1  0
  9  8  2  0
 10 11  2  0
 11 12  1  0
 12  4  1  0
 13  2  1  0
 14 13  2  0
 15 13  1  0
 16 17  1  1
 16 15  1  0
 18 17  1  0
 19 18  2  0
 20 21  1  0
 20 19  1  0
 21 26  2  0
 22 23  2  0
 22 21  1  0
 23 24  1  0
 24 25  2  0
 26 25  1  0
 26 18  1  0
 27 16  1  0
 28 27  2  0
 30 31  1  0
 30 29  1  0
 33 32  1  1
 32 31  1  0
 33 34  1  0
 34 27  1  0
 35 36  1  0
 35 33  1  0
 37 35  2  0
M  END
$$$$
