PGK.pdb
     RDKit          3D

 21 21  0  0  1  0  0  0  0  0999 V2000
    7.2206  -14.5706   20.3762 N   0  0  0  0  0  0  0  0  0  0  0  0
    7.4165  -13.1746   20.6166 C   0  0  0  0  0  0  0  0  0  0  0  0
    8.3753  -12.6550   19.5728 C   0  0  0  0  0  0  0  0  0  0  0  0
    8.2563  -13.7335   18.4986 C   0  0  0  0  0  0  0  0  0  0  0  0
    8.1393  -14.9767   19.3336 C   0  0  1  0  0  0  0  0  0  0  0  0
    9.4273  -15.3463   19.9901 C   0  0  0  0  0  0  0  0  0  0  0  0
   10.4332  -15.7378   19.3235 O   0  0  0  0  0  0  0  0  0  0  0  0
    9.6017  -15.2811   21.4000 N   0  0  0  0  0  0  0  0  0  0  0  0
   10.6820  -15.9315   22.0688 C   0  0  0  0  0  0  0  0  0  0  0  0
   10.6155  -15.7958   23.5465 C   0  0  0  0  0  0  0  0  0  0  0  0
   11.6098  -15.3185   24.1442 O   0  0  0  0  0  0  0  0  0  0  0  0
    9.4544  -16.1977   24.2559 N   0  0  0  0  0  0  0  0  0  0  0  0
    9.3463  -16.0509   25.7082 C   0  0  1  0  0  0  0  0  0  0  0  0
    8.0014  -15.4388   26.0137 C   0  0  0  0  0  0  0  0  0  0  0  0
    8.0370  -13.9483   26.0712 C   0  0  0  0  0  0  0  0  0  0  0  0
    6.6402  -13.4482   26.4088 C   0  0  0  0  0  0  0  0  0  0  0  0
    6.7014  -11.9261   26.4584 C   0  0  0  0  0  0  0  0  0  0  0  0
    5.4477  -11.3353   26.8139 N   0  0  0  0  0  0  0  0  0  0  0  0
    9.3906  -17.3766   26.3737 C   0  0  0  0  0  0  0  0  0  0  0  0
    9.1895  -18.4533   25.7673 O   0  0  0  0  0  0  0  0  0  0  0  0
    9.6667  -17.4238   27.7251 O   0  0  0  0  0  0  0  0  0  0  0  0
  1  2  1  0
  1  5  1  0
  2  3  1  0
  3  4  1  0
  5  4  1  0
  5  6  1  1
  6  7  2  0
  8  6  1  0
  9  8  1  0
  9 10  1  0
 10 12  1  0
 11 10  2  0
 12 13  1  0
 13 19  1  0
 13 14  1  6
 14 15  1  0
 16 17  1  0
 16 15  1  0
 18 17  1  0
 19 20  2  0
 19 21  1  0
M  END
$$$$
