PGK.pdb
     RDKit          3D

 21 21  0  0  1  0  0  0  0  0999 V2000
    7.8969  -14.7551   18.2728 N   0  0  0  0  0  0  0  0  0  0  0  0
    7.0054  -13.8924   18.9842 C   0  0  0  0  0  0  0  0  0  0  0  0
    7.8323  -12.8201   19.6512 C   0  0  0  0  0  0  0  0  0  0  0  0
    9.1192  -12.8864   18.8323 C   0  0  0  0  0  0  0  0  0  0  0  0
    9.2518  -14.3647   18.6014 C   0  0  1  0  0  0  0  0  0  0  0  0
    9.6434  -15.1024   19.8380 C   0  0  0  0  0  0  0  0  0  0  0  0
   10.7720  -14.9334   20.3923 O   0  0  0  0  0  0  0  0  0  0  0  0
    8.7748  -16.0369   20.4662 N   0  0  0  0  0  0  0  0  0  0  0  0
    9.1664  -16.7982   21.6085 C   0  0  0  0  0  0  0  0  0  0  0  0
    9.4064  -15.9593   22.8105 C   0  0  0  0  0  0  0  0  0  0  0  0
   10.5886  -15.6454   23.0888 O   0  0  0  0  0  0  0  0  0  0  0  0
    8.3218  -15.5283   23.6173 N   0  0  0  0  0  0  0  0  0  0  0  0
    8.5258  -14.7104   24.8140 C   0  0  1  0  0  0  0  0  0  0  0  0
    7.2543  -13.9398   25.0712 C   0  0  0  0  0  0  0  0  0  0  0  0
    7.3524  -13.0256   26.2462 C   0  0  0  0  0  0  0  0  0  0  0  0
    6.0238  -12.3004   26.4014 C   0  0  0  0  0  0  0  0  0  0  0  0
    6.1609  -11.3473   27.5829 C   0  0  0  0  0  0  0  0  0  0  0  0
    4.9599  -10.6140   27.8419 N   0  0  0  0  0  0  0  0  0  0  0  0
    8.7709  -15.5684   25.9997 C   0  0  0  0  0  0  0  0  0  0  0  0
    8.3750  -16.7535   26.0799 O   0  0  0  0  0  0  0  0  0  0  0  0
    9.4683  -15.0339   27.0639 O   0  0  0  0  0  0  0  0  0  0  0  0
  1  2  1  0
  1  5  1  0
  2  3  1  0
  3  4  1  0
  5  4  1  0
  5  6  1  1
  6  7  2  0
  8  6  1  0
  9  8  1  0
  9 10  1  0
 10 12  1  0
 11 10  2  0
 12 13  1  0
 13 19  1  0
 13 14  1  1
 14 15  1  0
 16 17  1  0
 16 15  1  0
 18 17  1  0
 19 20  2  0
 19 21  1  0
M  END
$$$$
