PGK.pdb
     RDKit          3D

 21 21  0  0  1  0  0  0  0  0999 V2000
    7.2809  -14.9287   20.2083 N   0  0  0  0  0  0  0  0  0  0  0  0
    7.0590  -13.5493   20.5134 C   0  0  0  0  0  0  0  0  0  0  0  0
    8.0034  -12.7302   19.6674 C   0  0  0  0  0  0  0  0  0  0  0  0
    8.3505  -13.7256   18.5629 C   0  0  0  0  0  0  0  0  0  0  0  0
    8.4316  -15.0124   19.3337 C   0  0  1  0  0  0  0  0  0  0  0  0
    9.6465  -15.0847   20.1970 C   0  0  0  0  0  0  0  0  0  0  0  0
   10.8176  -14.9909   19.7183 O   0  0  0  0  0  0  0  0  0  0  0  0
    9.5619  -15.2628   21.6054 N   0  0  0  0  0  0  0  0  0  0  0  0
   10.6837  -15.6545   22.3964 C   0  0  0  0  0  0  0  0  0  0  0  0
   10.3417  -15.8583   23.8275 C   0  0  0  0  0  0  0  0  0  0  0  0
   11.2472  -16.2445   24.6050 O   0  0  0  0  0  0  0  0  0  0  0  0
    9.0234  -15.6204   24.2947 N   0  0  0  0  0  0  0  0  0  0  0  0
    8.5945  -16.0207   25.6357 C   0  0  1  0  0  0  0  0  0  0  0  0
    7.3016  -15.3056   25.9419 C   0  0  0  0  0  0  0  0  0  0  0  0
    7.4982  -13.8714   26.3033 C   0  0  0  0  0  0  0  0  0  0  0  0
    6.1324  -13.2477   26.5496 C   0  0  0  0  0  0  0  0  0  0  0  0
    6.3629  -11.8067   26.9896 C   0  0  0  0  0  0  0  0  0  0  0  0
    5.1429  -11.1151   27.2732 N   0  0  0  0  0  0  0  0  0  0  0  0
    8.3166  -17.4776   25.6840 C   0  0  0  0  0  0  0  0  0  0  0  0
    8.1329  -18.1731   24.6592 O   0  0  0  0  0  0  0  0  0  0  0  0
    8.2581  -18.0943   26.9172 O   0  0  0  0  0  0  0  0  0  0  0  0
  1  2  1  0
  1  5  1  0
  2  3  1  0
  3  4  1  0
  5  4  1  0
  5  6  1  1
  6  7  2  0
  8  6  1  0
  9  8  1  0
  9 10  1  0
 10 12  1  0
 11 10  2  0
 12 13  1  0
 13 19  1  0
 13 14  1  6
 14 15  1  0
 16 17  1  0
 16 15  1  0
 18 17  1  0
 19 20  2  0
 19 21  1  0
M  END
$$$$
