PGK.pdb
     RDKit          3D

 21 21  0  0  1  0  0  0  0  0999 V2000
    7.3357  -15.1506   20.1757 N   0  0  0  0  0  0  0  0  0  0  0  0
    6.8444  -13.9190   20.7112 C   0  0  0  0  0  0  0  0  0  0  0  0
    7.6538  -12.7963   20.1086 C   0  0  0  0  0  0  0  0  0  0  0  0
    8.2308  -13.4788   18.8707 C   0  0  0  0  0  0  0  0  0  0  0  0
    8.5191  -14.8566   19.3949 C   0  0  1  0  0  0  0  0  0  0  0  0
    9.6865  -14.8809   20.3240 C   0  0  0  0  0  0  0  0  0  0  0  0
   10.8476  -14.5290   19.9534 O   0  0  0  0  0  0  0  0  0  0  0  0
    9.5651  -15.2997   21.6776 N   0  0  0  0  0  0  0  0  0  0  0  0
   10.6942  -15.6685   22.4693 C   0  0  0  0  0  0  0  0  0  0  0  0
   10.3440  -15.9451   23.8860 C   0  0  0  0  0  0  0  0  0  0  0  0
   11.2677  -16.2556   24.6760 O   0  0  0  0  0  0  0  0  0  0  0  0
    8.9981  -15.8584   24.3262 N   0  0  0  0  0  0  0  0  0  0  0  0
    8.6134  -16.1720   25.7033 C   0  0  1  0  0  0  0  0  0  0  0  0
    7.3755  -15.3743   26.0321 C   0  0  0  0  0  0  0  0  0  0  0  0
    7.6305  -13.9065   26.1136 C   0  0  0  0  0  0  0  0  0  0  0  0
    6.3097  -13.2056   26.3954 C   0  0  0  0  0  0  0  0  0  0  0  0
    6.5909  -11.7085   26.4470 C   0  0  0  0  0  0  0  0  0  0  0  0
    5.4081  -10.9325   26.6616 N   0  0  0  0  0  0  0  0  0  0  0  0
    8.2628  -17.6078   25.8355 C   0  0  0  0  0  0  0  0  0  0  0  0
    8.0747  -18.3593   24.8519 O   0  0  0  0  0  0  0  0  0  0  0  0
    8.1383  -18.1392   27.1031 O   0  0  0  0  0  0  0  0  0  0  0  0
  1  2  1  0
  1  5  1  0
  2  3  1  0
  3  4  1  0
  5  4  1  0
  5  6  1  1
  6  7  2  0
  8  6  1  0
  9  8  1  0
  9 10  1  0
 10 12  1  0
 11 10  2  0
 12 13  1  0
 13 19  1  0
 13 14  1  6
 14 15  1  0
 16 17  1  0
 16 15  1  0
 18 17  1  0
 19 20  2  0
 19 21  1  0
M  END
$$$$
