PGK.pdb
     RDKit          3D

 21 21  0  0  1  0  0  0  0  0999 V2000
    7.7356  -15.1448   18.1189 N   0  0  0  0  0  0  0  0  0  0  0  0
    6.9253  -14.0835   17.6067 C   0  0  0  0  0  0  0  0  0  0  0  0
    7.6343  -12.7814   17.8903 C   0  0  0  0  0  0  0  0  0  0  0  0
    9.0651  -13.2656   18.1125 C   0  0  0  0  0  0  0  0  0  0  0  0
    8.8346  -14.5526   18.8521 C   0  0  1  0  0  0  0  0  0  0  0  0
    8.3708  -14.3304   20.2528 C   0  0  0  0  0  0  0  0  0  0  0  0
    9.0845  -13.7242   21.1087 O   0  0  0  0  0  0  0  0  0  0  0  0
    7.1030  -14.7851   20.7091 N   0  0  0  0  0  0  0  0  0  0  0  0
    6.6800  -14.6403   22.0647 C   0  0  0  0  0  0  0  0  0  0  0  0
    7.5407  -15.3798   23.0232 C   0  0  0  0  0  0  0  0  0  0  0  0
    8.1147  -16.4213   22.6241 O   0  0  0  0  0  0  0  0  0  0  0  0
    7.7041  -14.9139   24.3533 N   0  0  0  0  0  0  0  0  0  0  0  0
    8.5117  -15.6416   25.3336 C   0  0  1  0  0  0  0  0  0  0  0  0
    8.6357  -14.7782   26.5648 C   0  0  0  0  0  0  0  0  0  0  0  0
    9.4810  -15.3949   27.6284 C   0  0  0  0  0  0  0  0  0  0  0  0
    9.5917  -14.4105   28.7834 C   0  0  0  0  0  0  0  0  0  0  0  0
   10.5156  -15.0321   29.8241 C   0  0  0  0  0  0  0  0  0  0  0  0
   10.6817  -14.2036   30.9788 N   0  0  0  0  0  0  0  0  0  0  0  0
    7.8353  -16.8982   25.7405 C   0  0  0  0  0  0  0  0  0  0  0  0
    6.5941  -17.0545   25.6888 O   0  0  0  0  0  0  0  0  0  0  0  0
    8.6119  -17.9436   26.1973 O   0  0  0  0  0  0  0  0  0  0  0  0
  1  2  1  0
  1  5  1  0
  2  3  1  0
  3  4  1  0
  5  4  1  0
  5  6  1  1
  6  7  2  0
  8  6  1  0
  9  8  1  0
  9 10  1  0
 10 12  1  0
 11 10  2  0
 12 13  1  0
 13 19  1  0
 13 14  1  1
 14 15  1  0
 16 17  1  0
 16 15  1  0
 18 17  1  0
 19 20  2  0
 19 21  1  0
M  END
$$$$
