PGK.pdb
     RDKit          3D

 21 21  0  0  1  0  0  0  0  0999 V2000
    8.3779  -16.2828   20.7024 N   0  0  0  0  0  0  0  0  0  0  0  0
    7.5588  -17.3885   21.0917 C   0  0  0  0  0  0  0  0  0  0  0  0
    6.3987  -16.8465   21.8911 C   0  0  0  0  0  0  0  0  0  0  0  0
    6.3981  -15.3828   21.4567 C   0  0  0  0  0  0  0  0  0  0  0  0
    7.8699  -15.0979   21.3611 C   0  0  1  0  0  0  0  0  0  0  0  0
    8.5231  -15.0145   22.7001 C   0  0  0  0  0  0  0  0  0  0  0  0
    7.9691  -14.4346   23.6830 O   0  0  0  0  0  0  0  0  0  0  0  0
    9.8035  -15.5799   22.9516 N   0  0  0  0  0  0  0  0  0  0  0  0
   10.5907  -15.2184   24.0862 C   0  0  0  0  0  0  0  0  0  0  0  0
   10.2132  -15.9625   25.3151 C   0  0  0  0  0  0  0  0  0  0  0  0
   10.8550  -15.7337   26.3684 O   0  0  0  0  0  0  0  0  0  0  0  0
    9.1535  -16.9056   25.2900 N   0  0  0  0  0  0  0  0  0  0  0  0
    8.8642  -17.7738   26.4324 C   0  0  1  0  0  0  0  0  0  0  0  0
    7.8244  -18.7781   26.0000 C   0  0  0  0  0  0  0  0  0  0  0  0
    7.4720  -19.7535   27.0726 C   0  0  0  0  0  0  0  0  0  0  0  0
    6.4716  -20.7494   26.5049 C   0  0  0  0  0  0  0  0  0  0  0  0
    6.0749  -21.6909   27.6360 C   0  0  0  0  0  0  0  0  0  0  0  0
    5.2617  -22.7795   27.1877 N   0  0  0  0  0  0  0  0  0  0  0  0
   10.0742  -18.5340   26.8326 C   0  0  0  0  0  0  0  0  0  0  0  0
   10.9303  -18.9378   26.0131 O   0  0  0  0  0  0  0  0  0  0  0  0
   10.2640  -18.8084   28.1717 O   0  0  0  0  0  0  0  0  0  0  0  0
  1  2  1  0
  1  5  1  0
  2  3  1  0
  3  4  1  0
  5  4  1  0
  5  6  1  1
  6  7  2  0
  8  6  1  0
  9  8  1  0
  9 10  1  0
 10 12  1  0
 11 10  2  0
 12 13  1  0
 13 19  1  0
 13 14  1  6
 14 15  1  0
 16 17  1  0
 16 15  1  0
 18 17  1  0
 19 20  2  0
 19 21  1  0
M  END
$$$$
