PGK.pdb
     RDKit          3D

 21 21  0  0  1  0  0  0  0  0999 V2000
    8.9173  -14.4267   18.1261 N   0  0  0  0  0  0  0  0  0  0  0  0
    7.5769  -14.1945   17.6852 C   0  0  0  0  0  0  0  0  0  0  0  0
    7.0351  -13.0127   18.4523 C   0  0  0  0  0  0  0  0  0  0  0  0
    8.3265  -12.3512   18.9277 C   0  0  0  0  0  0  0  0  0  0  0  0
    9.1763  -13.5480   19.2473 C   0  0  1  0  0  0  0  0  0  0  0  0
    8.7266  -14.2535   20.4829 C   0  0  0  0  0  0  0  0  0  0  0  0
    8.6114  -13.6537   21.5948 O   0  0  0  0  0  0  0  0  0  0  0  0
    8.4015  -15.6379   20.4854 N   0  0  0  0  0  0  0  0  0  0  0  0
    8.0214  -16.3330   21.6729 C   0  0  0  0  0  0  0  0  0  0  0  0
    9.0698  -16.3011   22.7246 C   0  0  0  0  0  0  0  0  0  0  0  0
   10.2500  -16.5690   22.3945 O   0  0  0  0  0  0  0  0  0  0  0  0
    8.7371  -15.9753   24.0647 N   0  0  0  0  0  0  0  0  0  0  0  0
    9.7435  -15.9523   25.1274 C   0  0  1  0  0  0  0  0  0  0  0  0
    9.0474  -15.5955   26.4177 C   0  0  0  0  0  0  0  0  0  0  0  0
    9.9463  -15.6680   27.6063 C   0  0  0  0  0  0  0  0  0  0  0  0
    9.6375  -14.4862   28.5135 C   0  0  0  0  0  0  0  0  0  0  0  0
   10.5775  -14.5732   29.7101 C   0  0  0  0  0  0  0  0  0  0  0  0
   10.4581  -13.4495   30.5878 N   0  0  0  0  0  0  0  0  0  0  0  0
   10.3470  -17.2961   25.3069 C   0  0  0  0  0  0  0  0  0  0  0  0
    9.6919  -18.3586   25.2089 O   0  0  0  0  0  0  0  0  0  0  0  0
   11.6940  -17.3775   25.5956 O   0  0  0  0  0  0  0  0  0  0  0  0
  1  2  1  0
  1  5  1  0
  2  3  1  0
  3  4  1  0
  5  4  1  0
  5  6  1  1
  6  7  2  0
  8  6  1  0
  9  8  1  0
  9 10  1  0
 10 12  1  0
 11 10  2  0
 12 13  1  0
 13 19  1  0
 13 14  1  1
 14 15  1  0
 16 17  1  0
 16 15  1  0
 18 17  1  0
 19 20  2  0
 19 21  1  0
M  END
$$$$
