PGK.pdb
     RDKit          3D

 21 21  0  0  1  0  0  0  0  0999 V2000
    8.2318  -14.7328   18.6477 N   0  0  0  0  0  0  0  0  0  0  0  0
    6.9705  -14.0618   18.7105 C   0  0  0  0  0  0  0  0  0  0  0  0
    7.0765  -12.9729   19.7505 C   0  0  0  0  0  0  0  0  0  0  0  0
    8.5905  -12.7989   19.8436 C   0  0  0  0  0  0  0  0  0  0  0  0
    9.0639  -14.2187   19.7151 C   0  0  1  0  0  0  0  0  0  0  0  0
    8.7781  -15.0281   20.9357 C   0  0  0  0  0  0  0  0  0  0  0  0
    7.7534  -14.8210   21.6545 O   0  0  0  0  0  0  0  0  0  0  0  0
    9.6371  -16.0776   21.3635 N   0  0  0  0  0  0  0  0  0  0  0  0
   10.8439  -15.8330   22.0856 C   0  0  0  0  0  0  0  0  0  0  0  0
   10.6380  -15.7704   23.5553 C   0  0  0  0  0  0  0  0  0  0  0  0
   11.6502  -15.7295   24.2953 O   0  0  0  0  0  0  0  0  0  0  0  0
    9.3280  -15.7577   24.1000 N   0  0  0  0  0  0  0  0  0  0  0  0
    9.0911  -15.7802   25.5443 C   0  0  1  0  0  0  0  0  0  0  0  0
    7.7681  -15.1042   25.8078 C   0  0  0  0  0  0  0  0  0  0  0  0
    7.8869  -13.6241   25.9540 C   0  0  0  0  0  0  0  0  0  0  0  0
    6.5270  -13.0715   26.3545 C   0  0  0  0  0  0  0  0  0  0  0  0
    6.6691  -11.5591   26.4791 C   0  0  0  0  0  0  0  0  0  0  0  0
    5.4455  -10.9194   26.8544 N   0  0  0  0  0  0  0  0  0  0  0  0
    8.9804  -17.1762   26.0355 C   0  0  0  0  0  0  0  0  0  0  0  0
    8.7497  -18.1497   25.2829 O   0  0  0  0  0  0  0  0  0  0  0  0
    9.1394  -17.4114   27.3860 O   0  0  0  0  0  0  0  0  0  0  0  0
  1  2  1  0
  1  5  1  0
  2  3  1  0
  3  4  1  0
  5  4  1  0
  5  6  1  1
  6  7  2  0
  8  6  1  0
  9  8  1  0
  9 10  1  0
 10 12  1  0
 11 10  2  0
 12 13  1  0
 13 19  1  0
 13 14  1  6
 14 15  1  0
 16 17  1  0
 16 15  1  0
 18 17  1  0
 19 20  2  0
 19 21  1  0
M  END
$$$$
