PGK.pdb
     RDKit          3D

 21 21  0  0  1  0  0  0  0  0999 V2000
    7.8613  -15.1339   19.6830 N   0  0  0  0  0  0  0  0  0  0  0  0
    6.7667  -14.8871   20.5696 C   0  0  0  0  0  0  0  0  0  0  0  0
    7.0039  -13.5550   21.2387 C   0  0  0  0  0  0  0  0  0  0  0  0
    8.0022  -12.9144   20.2773 C   0  0  0  0  0  0  0  0  0  0  0  0
    8.8476  -14.0950   19.8926 C   0  0  1  0  0  0  0  0  0  0  0  0
    9.7412  -14.5422   21.0008 C   0  0  0  0  0  0  0  0  0  0  0  0
   10.6583  -13.7992   21.4659 O   0  0  0  0  0  0  0  0  0  0  0  0
    9.6165  -15.8262   21.5993 N   0  0  0  0  0  0  0  0  0  0  0  0
   10.6926  -16.4540   22.2960 C   0  0  0  0  0  0  0  0  0  0  0  0
   10.6697  -16.1903   23.7576 C   0  0  0  0  0  0  0  0  0  0  0  0
   11.7589  -16.2010   24.3798 O   0  0  0  0  0  0  0  0  0  0  0  0
    9.4442  -15.9339   24.4249 N   0  0  0  0  0  0  0  0  0  0  0  0
    9.3712  -15.7918   25.8799 C   0  0  1  0  0  0  0  0  0  0  0  0
    8.0597  -15.1255   26.2156 C   0  0  0  0  0  0  0  0  0  0  0  0
    8.0282  -13.6794   25.8498 C   0  0  0  0  0  0  0  0  0  0  0  0
    6.6718  -13.1146   26.2450 C   0  0  0  0  0  0  0  0  0  0  0  0
    6.6920  -11.6226   25.9342 C   0  0  0  0  0  0  0  0  0  0  0  0
    5.4929  -10.9579   26.3436 N   0  0  0  0  0  0  0  0  0  0  0  0
    9.3728  -17.1223   26.5372 C   0  0  0  0  0  0  0  0  0  0  0  0
    9.1414  -18.1886   25.9233 O   0  0  0  0  0  0  0  0  0  0  0  0
    9.6422  -17.1862   27.8892 O   0  0  0  0  0  0  0  0  0  0  0  0
  1  2  1  0
  1  5  1  0
  2  3  1  0
  3  4  1  0
  5  4  1  0
  5  6  1  1
  6  7  2  0
  8  6  1  0
  9  8  1  0
  9 10  1  0
 10 12  1  0
 11 10  2  0
 12 13  1  0
 13 19  1  0
 13 14  1  6
 14 15  1  0
 16 17  1  0
 16 15  1  0
 18 17  1  0
 19 20  2  0
 19 21  1  0
M  END
$$$$
