PGK.pdb
     RDKit          3D

 21 21  0  0  1  0  0  0  0  0999 V2000
    7.2779  -15.2896   20.4692 N   0  0  0  0  0  0  0  0  0  0  0  0
    6.6320  -14.0555   20.7930 C   0  0  0  0  0  0  0  0  0  0  0  0
    7.4392  -12.9360   20.1818 C   0  0  0  0  0  0  0  0  0  0  0  0
    8.2315  -13.6899   19.1163 C   0  0  0  0  0  0  0  0  0  0  0  0
    8.5367  -14.9784   19.8254 C   0  0  1  0  0  0  0  0  0  0  0  0
    9.5596  -14.8105   20.8988 C   0  0  0  0  0  0  0  0  0  0  0  0
   10.6862  -14.2717   20.6750 O   0  0  0  0  0  0  0  0  0  0  0  0
    9.3310  -15.2443   22.2337 N   0  0  0  0  0  0  0  0  0  0  0  0
   10.3183  -15.1240   23.2576 C   0  0  0  0  0  0  0  0  0  0  0  0
    9.8928  -15.7258   24.5473 C   0  0  0  0  0  0  0  0  0  0  0  0
   10.6356  -15.5742   25.5467 O   0  0  0  0  0  0  0  0  0  0  0  0
    8.6771  -16.4515   24.6380 N   0  0  0  0  0  0  0  0  0  0  0  0
    8.4428  -17.4382   25.6936 C   0  0  1  0  0  0  0  0  0  0  0  0
    7.4698  -18.4624   25.1634 C   0  0  0  0  0  0  0  0  0  0  0  0
    7.1730  -19.5485   26.1423 C   0  0  0  0  0  0  0  0  0  0  0  0
    6.2260  -20.5410   25.4843 C   0  0  0  0  0  0  0  0  0  0  0  0
    5.8278  -21.5614   26.5443 C   0  0  0  0  0  0  0  0  0  0  0  0
    5.0112  -22.6122   26.0187 N   0  0  0  0  0  0  0  0  0  0  0  0
    9.6985  -18.1535   26.0306 C   0  0  0  0  0  0  0  0  0  0  0  0
   10.5300  -18.5185   25.1687 O   0  0  0  0  0  0  0  0  0  0  0  0
    9.9615  -18.4289   27.3571 O   0  0  0  0  0  0  0  0  0  0  0  0
  1  2  1  0
  1  5  1  0
  2  3  1  0
  3  4  1  0
  5  4  1  0
  5  6  1  1
  6  7  2  0
  8  6  1  0
  9  8  1  0
  9 10  1  0
 10 12  1  0
 11 10  2  0
 12 13  1  0
 13 19  1  0
 13 14  1  6
 14 15  1  0
 16 17  1  0
 16 15  1  0
 18 17  1  0
 19 20  2  0
 19 21  1  0
M  END
$$$$
