PGK.pdb
     RDKit          3D

 21 21  0  0  1  0  0  0  0  0999 V2000
    7.2902  -14.8649   20.7234 N   0  0  0  0  0  0  0  0  0  0  0  0
    7.2083  -13.4634   20.9954 C   0  0  0  0  0  0  0  0  0  0  0  0
    8.0464  -12.7424   19.9677 C   0  0  0  0  0  0  0  0  0  0  0  0
    8.1413  -13.7987   18.8693 C   0  0  0  0  0  0  0  0  0  0  0  0
    8.2707  -15.0592   19.6760 C   0  0  1  0  0  0  0  0  0  0  0  0
    9.6063  -15.1836   20.3297 C   0  0  0  0  0  0  0  0  0  0  0  0
   10.6822  -15.2198   19.6584 O   0  0  0  0  0  0  0  0  0  0  0  0
    9.7502  -15.2687   21.7419 N   0  0  0  0  0  0  0  0  0  0  0  0
   10.9357  -15.7663   22.3622 C   0  0  0  0  0  0  0  0  0  0  0  0
   10.8534  -15.7780   23.8452 C   0  0  0  0  0  0  0  0  0  0  0  0
   11.8749  -16.1091   24.4938 O   0  0  0  0  0  0  0  0  0  0  0  0
    9.6478  -15.4227   24.5033 N   0  0  0  0  0  0  0  0  0  0  0  0
    9.4958  -15.5393   25.9545 C   0  0  1  0  0  0  0  0  0  0  0  0
    8.1643  -14.9377   26.3312 C   0  0  0  0  0  0  0  0  0  0  0  0
    8.0264  -13.5130   25.9099 C   0  0  0  0  0  0  0  0  0  0  0  0
    6.6684  -13.0059   26.3723 C   0  0  0  0  0  0  0  0  0  0  0  0
    6.5371  -11.5625   25.9007 C   0  0  0  0  0  0  0  0  0  0  0  0
    5.3431  -10.9336   26.3764 N   0  0  0  0  0  0  0  0  0  0  0  0
    9.4696  -16.9649   26.3658 C   0  0  0  0  0  0  0  0  0  0  0  0
    9.2521  -17.9035   25.5662 O   0  0  0  0  0  0  0  0  0  0  0  0
    9.6957  -17.2696   27.6927 O   0  0  0  0  0  0  0  0  0  0  0  0
  1  2  1  0
  1  5  1  0
  2  3  1  0
  3  4  1  0
  5  4  1  0
  5  6  1  1
  6  7  2  0
  8  6  1  0
  9  8  1  0
  9 10  1  0
 10 12  1  0
 11 10  2  0
 12 13  1  0
 13 19  1  0
 13 14  1  6
 14 15  1  0
 16 17  1  0
 16 15  1  0
 18 17  1  0
 19 20  2  0
 19 21  1  0
M  END
$$$$
