PGK.pdb
     RDKit          3D

 21 21  0  0  1  0  0  0  0  0999 V2000
    8.0538  -14.7976   18.9869 N   0  0  0  0  0  0  0  0  0  0  0  0
    7.0121  -14.3551   19.8610 C   0  0  0  0  0  0  0  0  0  0  0  0
    7.4884  -13.0998   20.5508 C   0  0  0  0  0  0  0  0  0  0  0  0
    8.6063  -12.6522   19.6121 C   0  0  0  0  0  0  0  0  0  0  0  0
    9.2168  -13.9686   19.2240 C   0  0  1  0  0  0  0  0  0  0  0  0
    9.9902  -14.5897   20.3388 C   0  0  0  0  0  0  0  0  0  0  0  0
   10.9522  -13.9880   20.9060 O   0  0  0  0  0  0  0  0  0  0  0  0
    9.6937  -15.8912   20.8295 N   0  0  0  0  0  0  0  0  0  0  0  0
   10.5456  -16.5758   21.7477 C   0  0  0  0  0  0  0  0  0  0  0  0
   10.2512  -16.2489   23.1664 C   0  0  0  0  0  0  0  0  0  0  0  0
   11.1214  -16.5154   24.0299 O   0  0  0  0  0  0  0  0  0  0  0  0
    9.0162  -15.6511   23.5273 N   0  0  0  0  0  0  0  0  0  0  0  0
    8.6827  -15.3460   24.9196 C   0  0  1  0  0  0  0  0  0  0  0  0
    7.3907  -14.5665   24.9268 C   0  0  0  0  0  0  0  0  0  0  0  0
    7.3584  -13.4982   25.9678 C   0  0  0  0  0  0  0  0  0  0  0  0
    6.0399  -12.7489   25.8448 C   0  0  0  0  0  0  0  0  0  0  0  0
    6.0108  -11.6952   26.9456 C   0  0  0  0  0  0  0  0  0  0  0  0
    4.8603  -10.8481   26.8677 N   0  0  0  0  0  0  0  0  0  0  0  0
    8.4510  -16.5939   25.6885 C   0  0  0  0  0  0  0  0  0  0  0  0
    8.6483  -16.6840   26.9216 O   0  0  0  0  0  0  0  0  0  0  0  0
    7.9966  -17.7074   25.0115 O   0  0  0  0  0  0  0  0  0  0  0  0
  1  2  1  0
  1  5  1  0
  2  3  1  0
  3  4  1  0
  5  4  1  0
  5  6  1  1
  6  7  2  0
  8  6  1  0
  9  8  1  0
  9 10  1  0
 10 12  1  0
 11 10  2  0
 12 13  1  0
 13 19  1  0
 13 14  1  6
 14 15  1  0
 16 17  1  0
 16 15  1  0
 18 17  1  0
 19 20  2  0
 19 21  1  0
M  END
$$$$
