RQG.pdb
     RDKit          3D

 25 24  0  0  1  0  0  0  0  0999 V2000
   29.4115  -21.7200  -15.8463 N   0  0  0  0  0  0  0  0  0  0  0  0
   28.8287  -21.5034  -17.1455 C   0  0  0  0  0  0  0  0  0  0  0  0
   28.8213  -22.4536  -18.0466 N   0  0  0  0  0  0  0  0  0  0  0  0
   28.2488  -20.2712  -17.5005 N   0  0  0  0  0  0  0  0  0  0  0  0
   28.0615  -19.2109  -16.4898 C   0  0  0  0  0  0  0  0  0  0  0  0
   27.4169  -19.8874  -15.3164 C   0  0  0  0  0  0  0  0  0  0  0  0
   26.0310  -19.4471  -15.0505 C   0  0  0  0  0  0  0  0  0  0  0  0
   25.0184  -20.5441  -14.9534 C   0  0  2  0  0  0  0  0  0  0  0  0
   24.5517  -21.0322  -16.2206 N   0  0  0  0  0  0  0  0  0  0  0  0
   23.8401  -19.9728  -14.2226 C   0  0  0  0  0  0  0  0  0  0  0  0
   23.9717  -19.4910  -13.0772 O   0  0  0  0  0  0  0  0  0  0  0  0
   28.4365  -22.2612  -18.9801 N   0  0  0  0  0  0  0  0  0  0  0  0
   20.0610  -15.8926  -15.9427 C   0  0  0  0  0  0  0  0  0  0  0  0
   20.5382  -16.9501  -16.7707 O   0  0  0  0  0  0  0  0  0  0  0  0
   20.5450  -16.7517  -18.0081 C   0  0  0  0  0  0  0  0  0  0  0  0
   20.9975  -18.2151  -16.1674 C   0  0  0  0  0  0  0  0  0  0  0  0
   20.9244  -18.2331  -14.6742 C   0  0  1  0  0  0  0  0  0  0  0  0
   21.3866  -19.4729  -13.9957 N   0  0  0  0  0  0  0  0  0  0  0  0
   22.5464  -19.9512  -14.7825 C   0  0  0  0  0  0  0  0  0  0  0  0
   20.4366  -20.5842  -13.9570 O   0  0  0  0  0  0  0  0  0  0  0  0
   20.7608  -21.7233  -14.4306 N   0  0  0  0  0  0  0  0  0  0  0  0
   19.1155  -20.5419  -13.4189 C   0  0  0  0  0  0  0  0  0  0  0  0
   18.7946  -21.0942  -12.1204 C   0  0  0  0  0  0  0  0  0  0  0  0
   18.2040  -22.4337  -12.3106 O   0  0  0  0  0  0  0  0  0  0  0  0
   18.2435  -22.9678  -13.4424 O   0  0  0  0  0  0  0  0  0  0  0  0
  1  2  1  0
  2  3  2  0
  4  5  1  0
  4  2  1  0
  6  5  1  0
  6  7  1  0
  8  7  1  0
  8  9  1  6
 10  8  1  0
 11 10  2  0
 13 14  2  0
 13 12  1  0
 15 13  1  0
 16 15  1  0
 17 16  1  1
 17 18  1  0
 18 10  1  0
 19 21  1  0
 19 17  1  0
 20 19  2  0
 22 21  1  0
 23 22  1  0
 24 23  2  0
 25 23  1  0
M  END
$$$$
