RQG.pdb
     RDKit          3D

 25 24  0  0  1  0  0  0  0  0999 V2000
   29.5798  -24.4350  -17.3276 N   0  0  0  0  0  0  0  0  0  0  0  0
   30.1542  -23.2231  -17.8530 C   0  0  0  0  0  0  0  0  0  0  0  0
   31.3030  -23.2404  -18.4815 N   0  0  0  0  0  0  0  0  0  0  0  0
   29.5125  -21.9786  -17.7129 N   0  0  0  0  0  0  0  0  0  0  0  0
   28.5643  -21.7433  -16.6056 C   0  0  0  0  0  0  0  0  0  0  0  0
   27.2016  -21.9596  -17.1943 C   0  0  0  0  0  0  0  0  0  0  0  0
   26.0992  -21.8831  -16.2124 C   0  0  0  0  0  0  0  0  0  0  0  0
   26.1017  -22.9493  -15.1630 C   0  0  2  0  0  0  0  0  0  0  0  0
   25.9988  -24.2860  -15.6774 N   0  0  0  0  0  0  0  0  0  0  0  0
   24.9017  -22.6995  -14.2988 C   0  0  0  0  0  0  0  0  0  0  0  0
   23.8760  -23.4042  -14.4118 O   0  0  0  0  0  0  0  0  0  0  0  0
   31.7095  -22.3571  -18.8148 N   0  0  0  0  0  0  0  0  0  0  0  0
   25.0004  -19.9987   -8.7307 C   0  0  0  0  0  0  0  0  0  0  0  0
   25.9275  -20.7364   -9.5230 O   0  0  0  0  0  0  0  0  0  0  0  0
   27.0752  -20.9103   -9.0506 C   0  0  0  0  0  0  0  0  0  0  0  0
   25.5245  -21.2600  -10.8416 C   0  0  0  0  0  0  0  0  0  0  0  0
   24.1166  -20.9269  -11.2186 C   0  0  2  0  0  0  0  0  0  0  0  0
   23.6462  -21.4088  -12.5443 N   0  0  0  0  0  0  0  0  0  0  0  0
   24.8719  -21.6739  -13.3319 C   0  0  0  0  0  0  0  0  0  0  0  0
   22.8532  -20.4666  -13.3332 O   0  0  0  0  0  0  0  0  0  0  0  0
   23.4251  -19.6745  -14.1532 N   0  0  0  0  0  0  0  0  0  0  0  0
   21.4338  -20.3230  -13.2927 C   0  0  0  0  0  0  0  0  0  0  0  0
   20.7357  -19.3409  -14.0940 C   0  0  0  0  0  0  0  0  0  0  0  0
   20.1207  -20.0251  -15.2485 O   0  0  0  0  0  0  0  0  0  0  0  0
   18.8734  -20.1039  -15.3233 O   0  0  0  0  0  0  0  0  0  0  0  0
  1  2  1  0
  2  3  2  0
  4  5  1  0
  4  2  1  0
  6  5  1  0
  6  7  1  0
  8  7  1  0
  8  9  1  6
 10  8  1  0
 11 10  2  0
 13 14  2  0
 13 12  1  0
 15 13  1  0
 16 15  1  0
 17 16  1  1
 17 18  1  0
 18 10  1  0
 19 21  1  0
 19 17  1  0
 20 19  2  0
 22 21  1  0
 23 22  1  0
 24 23  2  0
 25 23  1  0
M  END
$$$$
