RQG.pdb
     RDKit          3D

 25 24  0  0  1  0  0  0  0  0999 V2000
   25.8504  -19.5413  -18.8423 N   0  0  0  0  0  0  0  0  0  0  0  0
   26.6272  -18.6950  -19.7112 C   0  0  0  0  0  0  0  0  0  0  0  0
   26.6006  -18.8592  -21.0102 N   0  0  0  0  0  0  0  0  0  0  0  0
   27.4428  -17.6654  -19.2062 N   0  0  0  0  0  0  0  0  0  0  0  0
   28.1207  -17.8158  -17.9029 C   0  0  0  0  0  0  0  0  0  0  0  0
   27.1034  -18.4388  -16.9935 C   0  0  0  0  0  0  0  0  0  0  0  0
   27.5891  -18.6817  -15.6185 C   0  0  0  0  0  0  0  0  0  0  0  0
   27.8641  -20.1129  -15.2804 C   0  0  2  0  0  0  0  0  0  0  0  0
   28.0711  -20.9609  -16.4206 N   0  0  0  0  0  0  0  0  0  0  0  0
   26.6558  -20.6178  -14.5498 C   0  0  0  0  0  0  0  0  0  0  0  0
   25.7557  -21.2371  -15.1562 O   0  0  0  0  0  0  0  0  0  0  0  0
   27.1622  -18.2407  -21.6088 N   0  0  0  0  0  0  0  0  0  0  0  0
   26.1319  -20.8513   -8.3009 C   0  0  0  0  0  0  0  0  0  0  0  0
   24.8250  -21.2667   -8.6897 O   0  0  0  0  0  0  0  0  0  0  0  0
   24.0357  -21.6065   -7.7775 C   0  0  0  0  0  0  0  0  0  0  0  0
   24.4463  -21.2869  -10.1150 C   0  0  0  0  0  0  0  0  0  0  0  0
   25.5509  -20.8841  -11.0386 C   0  0  1  0  0  0  0  0  0  0  0  0
   25.2326  -20.8546  -12.4908 N   0  0  0  0  0  0  0  0  0  0  0  0
   26.4781  -20.4220  -13.1649 C   0  0  0  0  0  0  0  0  0  0  0  0
   24.1964  -19.9110  -12.9089 O   0  0  0  0  0  0  0  0  0  0  0  0
   24.5074  -18.7171  -13.2324 N   0  0  0  0  0  0  0  0  0  0  0  0
   22.7993  -20.1857  -13.0053 C   0  0  0  0  0  0  0  0  0  0  0  0
   22.1707  -20.5521  -14.2562 C   0  0  0  0  0  0  0  0  0  0  0  0
   20.7171  -20.6808  -14.0337 O   0  0  0  0  0  0  0  0  0  0  0  0
   20.2883  -21.5827  -13.2785 O   0  0  0  0  0  0  0  0  0  0  0  0
  1  2  1  0
  2  3  2  0
  4  5  1  0
  4  2  1  0
  6  5  1  0
  6  7  1  0
  8  7  1  0
  8  9  1  6
 10  8  1  0
 11 10  2  0
 13 14  2  0
 13 12  1  0
 15 13  1  0
 16 15  1  0
 17 16  1  6
 17 18  1  0
 18 10  1  0
 19 21  1  0
 19 17  1  0
 20 19  2  0
 22 21  1  0
 23 22  1  0
 24 23  2  0
 25 23  1  0
M  END
$$$$
