RQG.pdb
     RDKit          3D

 25 24  0  0  1  0  0  0  0  0999 V2000
   20.9795  -24.3859  -18.6058 N   0  0  0  0  0  0  0  0  0  0  0  0
   20.1808  -23.1938  -18.7305 C   0  0  0  0  0  0  0  0  0  0  0  0
   19.3624  -23.0349  -19.7404 N   0  0  0  0  0  0  0  0  0  0  0  0
   20.2463  -22.1564  -17.7819 N   0  0  0  0  0  0  0  0  0  0  0  0
   21.1088  -22.2827  -16.5898 C   0  0  0  0  0  0  0  0  0  0  0  0
   20.1751  -22.2463  -15.4163 C   0  0  0  0  0  0  0  0  0  0  0  0
   20.8470  -22.3653  -14.1048 C   0  0  0  0  0  0  0  0  0  0  0  0
   21.1001  -23.7646  -13.6400 C   0  0  2  0  0  0  0  0  0  0  0  0
   21.4262  -24.6872  -14.6909 N   0  0  0  0  0  0  0  0  0  0  0  0
   19.8301  -24.2363  -12.9969 C   0  0  0  0  0  0  0  0  0  0  0  0
   18.9842  -24.8816  -13.6523 O   0  0  0  0  0  0  0  0  0  0  0  0
   18.8664  -22.1417  -19.8525 N   0  0  0  0  0  0  0  0  0  0  0  0
   19.3922  -25.7842   -7.0989 C   0  0  0  0  0  0  0  0  0  0  0  0
   18.0073  -25.8265   -7.4337 O   0  0  0  0  0  0  0  0  0  0  0  0
   17.2214  -26.2787   -6.5686 C   0  0  0  0  0  0  0  0  0  0  0  0
   17.5481  -25.3521   -8.7525 C   0  0  0  0  0  0  0  0  0  0  0  0
   18.6456  -24.8240   -9.6195 C   0  0  1  0  0  0  0  0  0  0  0  0
   18.2907  -24.5004  -11.0268 N   0  0  0  0  0  0  0  0  0  0  0  0
   19.5323  -23.9792  -11.6431 C   0  0  0  0  0  0  0  0  0  0  0  0
   17.2768  -23.4639  -11.2185 O   0  0  0  0  0  0  0  0  0  0  0  0
   17.5780  -22.2341  -11.0643 N   0  0  0  0  0  0  0  0  0  0  0  0
   15.9132  -23.6791  -11.5806 C   0  0  0  0  0  0  0  0  0  0  0  0
   14.9350  -22.6128  -11.5670 C   0  0  0  0  0  0  0  0  0  0  0  0
   15.0061  -21.8912  -12.8528 O   0  0  0  0  0  0  0  0  0  0  0  0
   15.6776  -22.3744  -13.7926 O   0  0  0  0  0  0  0  0  0  0  0  0
  1  2  1  0
  2  3  2  0
  4  5  1  0
  4  2  1  0
  6  5  1  0
  6  7  1  0
  8  7  1  0
  8  9  1  6
 10  8  1  0
 11 10  2  0
 13 14  2  0
 13 12  1  0
 15 13  1  0
 16 15  1  0
 17 16  1  6
 17 18  1  0
 18 10  1  0
 19 21  1  0
 19 17  1  0
 20 19  2  0
 22 21  1  0
 23 22  1  0
 24 23  2  0
 25 23  1  0
M  END
$$$$
