RQG.pdb
     RDKit          3D

 25 24  0  0  1  0  0  0  0  0999 V2000
   26.7658  -19.5173  -18.3719 N   0  0  0  0  0  0  0  0  0  0  0  0
   26.5007  -18.6971  -19.5258 C   0  0  0  0  0  0  0  0  0  0  0  0
   27.0162  -18.9912  -20.6931 N   0  0  0  0  0  0  0  0  0  0  0  0
   25.6851  -17.5529  -19.4490 N   0  0  0  0  0  0  0  0  0  0  0  0
   25.0098  -17.1959  -18.1851 C   0  0  0  0  0  0  0  0  0  0  0  0
   23.8267  -18.1133  -18.0919 C   0  0  0  0  0  0  0  0  0  0  0  0
   22.9389  -17.8408  -16.9417 C   0  0  0  0  0  0  0  0  0  0  0  0
   21.7676  -18.7613  -16.8051 C   0  0  2  0  0  0  0  0  0  0  0  0
   20.5477  -18.2541  -17.3677 N   0  0  0  0  0  0  0  0  0  0  0  0
   21.5462  -18.9538  -15.3344 C   0  0  0  0  0  0  0  0  0  0  0  0
   20.9629  -18.0806  -14.6571 O   0  0  0  0  0  0  0  0  0  0  0  0
   26.8895  -18.3413  -21.4793 N   0  0  0  0  0  0  0  0  0  0  0  0
   18.7757  -23.3237  -12.8125 C   0  0  0  0  0  0  0  0  0  0  0  0
   19.2176  -22.6858  -11.6169 O   0  0  0  0  0  0  0  0  0  0  0  0
   18.7022  -23.0656  -10.5396 C   0  0  0  0  0  0  0  0  0  0  0  0
   20.2401  -21.6245  -11.6767 C   0  0  0  0  0  0  0  0  0  0  0  0
   20.6889  -21.2964  -13.0646 C   0  0  2  0  0  0  0  0  0  0  0  0
   21.7511  -20.2645  -13.1988 N   0  0  0  0  0  0  0  0  0  0  0  0
   21.9781  -20.1106  -14.6540 C   0  0  0  0  0  0  0  0  0  0  0  0
   23.0524  -20.5934  -12.6179 O   0  0  0  0  0  0  0  0  0  0  0  0
   23.7733  -21.5101  -13.1344 N   0  0  0  0  0  0  0  0  0  0  0  0
   23.6448  -19.9720  -11.4779 C   0  0  0  0  0  0  0  0  0  0  0  0
   24.9153  -20.4056  -10.9374 C   0  0  0  0  0  0  0  0  0  0  0  0
   24.7087  -20.8490   -9.5447 O   0  0  0  0  0  0  0  0  0  0  0  0
   23.5658  -20.7742   -9.0389 O   0  0  0  0  0  0  0  0  0  0  0  0
  1  2  1  0
  2  3  2  0
  4  5  1  0
  4  2  1  0
  6  5  1  0
  6  7  1  0
  8  7  1  0
  8  9  1  1
 10  8  1  0
 11 10  2  0
 13 14  2  0
 13 12  1  0
 15 13  1  0
 16 15  1  0
 17 16  1  6
 17 18  1  0
 18 10  1  0
 19 21  1  0
 19 17  1  0
 20 19  2  0
 22 21  1  0
 23 22  1  0
 24 23  2  0
 25 23  1  0
M  END
$$$$
