RQG.pdb
     RDKit          3D

 25 24  0  0  1  0  0  0  0  0999 V2000
   25.9694  -25.2607  -19.6787 N   0  0  0  0  0  0  0  0  0  0  0  0
   25.7216  -26.0127  -18.4755 C   0  0  0  0  0  0  0  0  0  0  0  0
   26.2319  -27.2075  -18.3119 N   0  0  0  0  0  0  0  0  0  0  0  0
   24.9257  -25.5013  -17.4338 N   0  0  0  0  0  0  0  0  0  0  0  0
   24.9750  -24.0668  -17.0862 C   0  0  0  0  0  0  0  0  0  0  0  0
   25.9022  -23.9727  -15.9108 C   0  0  0  0  0  0  0  0  0  0  0  0
   25.8845  -22.6607  -15.2298 C   0  0  0  0  0  0  0  0  0  0  0  0
   26.2547  -21.4906  -16.0852 C   0  0  2  0  0  0  0  0  0  0  0  0
   27.6482  -21.1466  -16.0461 N   0  0  0  0  0  0  0  0  0  0  0  0
   25.4805  -20.3179  -15.5614 C   0  0  0  0  0  0  0  0  0  0  0  0
   25.9021  -19.6585  -14.5873 O   0  0  0  0  0  0  0  0  0  0  0  0
   26.0167  -27.7357  -17.4567 N   0  0  0  0  0  0  0  0  0  0  0  0
   24.9831  -16.8068  -18.7145 C   0  0  0  0  0  0  0  0  0  0  0  0
   24.6789  -15.9635  -17.6063 O   0  0  0  0  0  0  0  0  0  0  0  0
   25.2379  -14.8425  -17.5678 C   0  0  0  0  0  0  0  0  0  0  0  0
   23.7421  -16.4193  -16.5624 C   0  0  0  0  0  0  0  0  0  0  0  0
   23.2910  -17.8346  -16.7325 C   0  0  2  0  0  0  0  0  0  0  0  0
   23.5141  -18.7515  -15.5834 N   0  0  0  0  0  0  0  0  0  0  0  0
   24.2585  -19.9079  -16.1326 C   0  0  0  0  0  0  0  0  0  0  0  0
   22.3161  -19.3035  -14.9516 O   0  0  0  0  0  0  0  0  0  0  0  0
   21.7395  -20.3258  -15.4508 N   0  0  0  0  0  0  0  0  0  0  0  0
   21.6822  -18.8058  -13.7738 C   0  0  0  0  0  0  0  0  0  0  0  0
   20.5155  -19.4410  -13.1999 C   0  0  0  0  0  0  0  0  0  0  0  0
   19.3275  -19.0351  -13.9765 O   0  0  0  0  0  0  0  0  0  0  0  0
   19.4697  -18.2913  -14.9736 O   0  0  0  0  0  0  0  0  0  0  0  0
  1  2  1  0
  2  3  2  0
  4  5  1  0
  4  2  1  0
  6  5  1  0
  6  7  1  0
  8  7  1  0
  8  9  1  1
 10  8  1  0
 11 10  2  0
 13 14  2  0
 13 12  1  0
 15 13  1  0
 16 15  1  0
 17 16  1  1
 17 18  1  0
 18 10  1  0
 19 21  1  0
 19 17  1  0
 20 19  2  0
 22 21  1  0
 23 22  1  0
 24 23  2  0
 25 23  1  0
M  END
$$$$
