RQG.pdb
     RDKit          3D

 25 24  0  0  1  0  0  0  0  0999 V2000
   33.3730  -23.2974  -12.9035 N   0  0  0  0  0  0  0  0  0  0  0  0
   33.6058  -24.1094  -14.0701 C   0  0  0  0  0  0  0  0  0  0  0  0
   34.5943  -24.9676  -14.1062 N   0  0  0  0  0  0  0  0  0  0  0  0
   32.7895  -24.0150  -15.2125 N   0  0  0  0  0  0  0  0  0  0  0  0
   31.7433  -22.9768  -15.3038 C   0  0  0  0  0  0  0  0  0  0  0  0
   30.6074  -23.4799  -14.4631 C   0  0  0  0  0  0  0  0  0  0  0  0
   29.2814  -23.3653  -15.1065 C   0  0  0  0  0  0  0  0  0  0  0  0
   28.7902  -21.9678  -15.3157 C   0  0  2  0  0  0  0  0  0  0  0  0
   29.5032  -20.9717  -14.5664 N   0  0  0  0  0  0  0  0  0  0  0  0
   27.3617  -21.9455  -14.8600 C   0  0  0  0  0  0  0  0  0  0  0  0
   26.5224  -22.7295  -15.3523 O   0  0  0  0  0  0  0  0  0  0  0  0
   34.7320  -25.5441  -14.9459 N   0  0  0  0  0  0  0  0  0  0  0  0
   25.9164  -20.6205   -9.0929 C   0  0  0  0  0  0  0  0  0  0  0  0
   24.6036  -20.8206   -9.6108 O   0  0  0  0  0  0  0  0  0  0  0  0
   23.6607  -20.8575   -8.7860 C   0  0  0  0  0  0  0  0  0  0  0  0
   24.3945  -20.9760  -11.0625 C   0  0  0  0  0  0  0  0  0  0  0  0
   25.6602  -20.9713  -11.8583 C   0  0  1  0  0  0  0  0  0  0  0  0
   25.5288  -21.1639  -13.3269 N   0  0  0  0  0  0  0  0  0  0  0  0
   26.9022  -21.0535  -13.8696 C   0  0  0  0  0  0  0  0  0  0  0  0
   24.7289  -20.1705  -14.0427 O   0  0  0  0  0  0  0  0  0  0  0  0
   25.1402  -18.9675  -14.1455 N   0  0  0  0  0  0  0  0  0  0  0  0
   23.4721  -20.4030  -14.6776 C   0  0  0  0  0  0  0  0  0  0  0  0
   22.7150  -19.3385  -15.3003 C   0  0  0  0  0  0  0  0  0  0  0  0
   21.4801  -19.1200  -14.5215 O   0  0  0  0  0  0  0  0  0  0  0  0
   21.2918  -19.7751  -13.4712 O   0  0  0  0  0  0  0  0  0  0  0  0
  1  2  1  0
  2  3  2  0
  4  5  1  0
  4  2  1  0
  6  5  1  0
  6  7  1  0
  8  7  1  0
  8  9  1  1
 10  8  1  0
 11 10  2  0
 13 14  2  0
 13 12  1  0
 15 13  1  0
 16 15  1  0
 17 16  1  1
 17 18  1  0
 18 10  1  0
 19 21  1  0
 19 17  1  0
 20 19  2  0
 22 21  1  0
 23 22  1  0
 24 23  2  0
 25 23  1  0
M  END
$$$$
