RQG.pdb
     RDKit          3D

 25 24  0  0  1  0  0  0  0  0999 V2000
   18.9337  -24.5575   -6.3767 N   0  0  0  0  0  0  0  0  0  0  0  0
   18.3313  -24.0982   -7.6017 C   0  0  0  0  0  0  0  0  0  0  0  0
   17.0915  -24.4001   -7.8963 N   0  0  0  0  0  0  0  0  0  0  0  0
   19.0433  -23.3138   -8.5281 N   0  0  0  0  0  0  0  0  0  0  0  0
   20.5196  -23.3396   -8.5555 C   0  0  0  0  0  0  0  0  0  0  0  0
   20.9550  -22.2316   -7.6428 C   0  0  0  0  0  0  0  0  0  0  0  0
   21.6575  -21.1252   -8.3268 C   0  0  0  0  0  0  0  0  0  0  0  0
   23.1136  -21.3532   -8.5835 C   0  0  2  0  0  0  0  0  0  0  0  0
   23.9816  -20.8435   -7.5594 N   0  0  0  0  0  0  0  0  0  0  0  0
   23.4395  -20.6329   -9.8578 C   0  0  0  0  0  0  0  0  0  0  0  0
   23.7477  -19.4220   -9.8457 O   0  0  0  0  0  0  0  0  0  0  0  0
   16.7103  -24.1311   -8.8121 N   0  0  0  0  0  0  0  0  0  0  0  0
   26.3469  -23.0229  -14.6250 C   0  0  0  0  0  0  0  0  0  0  0  0
   25.8282  -21.8615  -15.2681 O   0  0  0  0  0  0  0  0  0  0  0  0
   26.1516  -21.6751  -16.4644 C   0  0  0  0  0  0  0  0  0  0  0  0
   24.9502  -20.9344  -14.5299 C   0  0  0  0  0  0  0  0  0  0  0  0
   24.6167  -21.3921  -13.1462 C   0  0  1  0  0  0  0  0  0  0  0  0
   23.7032  -20.5249  -12.3557 N   0  0  0  0  0  0  0  0  0  0  0  0
   23.4148  -21.2758  -11.1123 C   0  0  0  0  0  0  0  0  0  0  0  0
   22.4051  -20.2282  -12.9606 O   0  0  0  0  0  0  0  0  0  0  0  0
   21.4108  -21.0014  -12.7595 N   0  0  0  0  0  0  0  0  0  0  0  0
   22.1026  -19.1104  -13.7946 C   0  0  0  0  0  0  0  0  0  0  0  0
   20.7463  -18.7755  -14.1721 C   0  0  0  0  0  0  0  0  0  0  0  0
   20.3832  -19.5587  -15.3696 O   0  0  0  0  0  0  0  0  0  0  0  0
   21.2717  -20.1947  -15.9809 O   0  0  0  0  0  0  0  0  0  0  0  0
  1  2  1  0
  2  3  2  0
  4  5  1  0
  4  2  1  0
  6  5  1  0
  6  7  1  0
  8  7  1  0
  8  9  1  1
 10  8  1  0
 11 10  2  0
 13 14  2  0
 13 12  1  0
 15 13  1  0
 16 15  1  0
 17 16  1  1
 17 18  1  0
 18 10  1  0
 19 21  1  0
 19 17  1  0
 20 19  2  0
 22 21  1  0
 23 22  1  0
 24 23  2  0
 25 23  1  0
M  END
$$$$
