RQG.pdb
     RDKit          3D

 25 24  0  0  1  0  0  0  0  0999 V2000
   17.9061  -14.6705  -14.7955 N   0  0  0  0  0  0  0  0  0  0  0  0
   16.6186  -14.3119  -15.3325 C   0  0  0  0  0  0  0  0  0  0  0  0
   15.6449  -15.1859  -15.3862 N   0  0  0  0  0  0  0  0  0  0  0  0
   16.3542  -13.0187  -15.8204 N   0  0  0  0  0  0  0  0  0  0  0  0
   17.3472  -11.9377  -15.6582 C   0  0  0  0  0  0  0  0  0  0  0  0
   18.3711  -12.1725  -16.7290 C   0  0  0  0  0  0  0  0  0  0  0  0
   19.4475  -11.1600  -16.7692 C   0  0  0  0  0  0  0  0  0  0  0  0
   19.6875  -10.5337  -18.1065 C   0  0  2  0  0  0  0  0  0  0  0  0
   20.1012  -11.4563  -19.1261 N   0  0  0  0  0  0  0  0  0  0  0  0
   20.7918   -9.5368  -17.9181 C   0  0  0  0  0  0  0  0  0  0  0  0
   21.9724   -9.8304  -18.2035 O   0  0  0  0  0  0  0  0  0  0  0  0
   14.7301  -14.9004  -15.7577 N   0  0  0  0  0  0  0  0  0  0  0  0
   19.2576   -6.6396  -20.1574 C   0  0  0  0  0  0  0  0  0  0  0  0
   19.1794   -5.5664  -19.2226 O   0  0  0  0  0  0  0  0  0  0  0  0
   18.1577   -4.8419  -19.2650 C   0  0  0  0  0  0  0  0  0  0  0  0
   20.2721   -5.3417  -18.2579 C   0  0  0  0  0  0  0  0  0  0  0  0
   21.4237   -6.2812  -18.4210 C   0  0  1  0  0  0  0  0  0  0  0  0
   21.6565   -7.2531  -17.3200 N   0  0  0  0  0  0  0  0  0  0  0  0
   20.5566   -8.2398  -17.4179 C   0  0  0  0  0  0  0  0  0  0  0  0
   21.6017   -6.7182  -15.9599 O   0  0  0  0  0  0  0  0  0  0  0  0
   20.4773   -6.4614  -15.4154 N   0  0  0  0  0  0  0  0  0  0  0  0
   22.7222   -6.4364  -15.1221 C   0  0  0  0  0  0  0  0  0  0  0  0
   22.5682   -5.9729  -13.7599 C   0  0  0  0  0  0  0  0  0  0  0  0
   22.1302   -4.5635  -13.7880 O   0  0  0  0  0  0  0  0  0  0  0  0
   21.9041   -4.0119  -14.8891 O   0  0  0  0  0  0  0  0  0  0  0  0
  1  2  1  0
  2  3  2  0
  4  5  1  0
  4  2  1  0
  6  5  1  0
  6  7  1  0
  8  7  1  0
  8  9  1  6
 10  8  1  0
 11 10  2  0
 13 14  2  0
 13 12  1  0
 15 13  1  0
 16 15  1  0
 17 16  1  6
 17 18  1  0
 18 10  1  0
 19 21  1  0
 19 17  1  0
 20 19  2  0
 22 21  1  0
 23 22  1  0
 24 23  2  0
 25 23  1  0
M  END
$$$$
