RQG.pdb
     RDKit          3D

 25 24  0  0  1  0  0  0  0  0999 V2000
   25.4129  -16.4578  -18.8405 N   0  0  0  0  0  0  0  0  0  0  0  0
   24.5995  -16.0528  -17.7230 C   0  0  0  0  0  0  0  0  0  0  0  0
   23.3052  -15.9016  -17.8526 N   0  0  0  0  0  0  0  0  0  0  0  0
   25.1559  -15.8020  -16.4549 N   0  0  0  0  0  0  0  0  0  0  0  0
   26.6123  -15.9158  -16.2385 C   0  0  0  0  0  0  0  0  0  0  0  0
   26.8885  -17.3874  -16.1479 C   0  0  0  0  0  0  0  0  0  0  0  0
   27.4277  -17.8226  -14.8420 C   0  0  0  0  0  0  0  0  0  0  0  0
   27.7906  -19.2710  -14.7500 C   0  0  2  0  0  0  0  0  0  0  0  0
   28.4752  -19.7837  -15.9034 N   0  0  0  0  0  0  0  0  0  0  0  0
   26.5018  -20.0252  -14.6119 C   0  0  0  0  0  0  0  0  0  0  0  0
   26.0270  -20.6600  -15.5778 O   0  0  0  0  0  0  0  0  0  0  0  0
   22.7520  -15.5761  -17.0498 N   0  0  0  0  0  0  0  0  0  0  0  0
   26.0685  -21.6135   -8.8223 C   0  0  0  0  0  0  0  0  0  0  0  0
   24.8924  -21.1188   -9.4576 O   0  0  0  0  0  0  0  0  0  0  0  0
   23.8132  -21.2236   -8.8290 C   0  0  0  0  0  0  0  0  0  0  0  0
   24.9729  -20.5147  -10.8006 C   0  0  0  0  0  0  0  0  0  0  0  0
   24.5850  -21.4449  -11.9050 C   0  0  1  0  0  0  0  0  0  0  0  0
   24.5476  -20.8758  -13.2782 N   0  0  0  0  0  0  0  0  0  0  0  0
   25.7737  -20.0551  -13.4049 C   0  0  0  0  0  0  0  0  0  0  0  0
   23.4291  -19.9832  -13.5805 O   0  0  0  0  0  0  0  0  0  0  0  0
   23.4700  -18.7589  -13.2253 N   0  0  0  0  0  0  0  0  0  0  0  0
   22.2305  -20.3412  -14.2675 C   0  0  0  0  0  0  0  0  0  0  0  0
   21.1621  -19.3927  -14.4979 C   0  0  0  0  0  0  0  0  0  0  0  0
   20.0010  -19.7807  -13.6731 O   0  0  0  0  0  0  0  0  0  0  0  0
   20.0885  -20.7754  -12.9177 O   0  0  0  0  0  0  0  0  0  0  0  0
  1  2  1  0
  2  3  2  0
  4  5  1  0
  4  2  1  0
  6  5  1  0
  6  7  1  0
  8  7  1  0
  8  9  1  6
 10  8  1  0
 11 10  2  0
 13 14  2  0
 13 12  1  0
 15 13  1  0
 16 15  1  0
 17 16  1  6
 17 18  1  0
 18 10  1  0
 19 21  1  0
 19 17  1  0
 20 19  2  0
 22 21  1  0
 23 22  1  0
 24 23  2  0
 25 23  1  0
M  END
$$$$
