RQG.pdb
     RDKit          3D

 25 24  0  0  1  0  0  0  0  0999 V2000
   20.1119  -23.8144   -8.1448 N   0  0  0  0  0  0  0  0  0  0  0  0
   19.3795  -23.1708   -9.2049 C   0  0  0  0  0  0  0  0  0  0  0  0
   18.0962  -23.3809   -9.3600 N   0  0  0  0  0  0  0  0  0  0  0  0
   20.0061  -22.2976  -10.1134 N   0  0  0  0  0  0  0  0  0  0  0  0
   21.4724  -22.3213  -10.2875 C   0  0  0  0  0  0  0  0  0  0  0  0
   21.9784  -21.1015   -9.5760 C   0  0  0  0  0  0  0  0  0  0  0  0
   22.8690  -20.2503  -10.3932 C   0  0  0  0  0  0  0  0  0  0  0  0
   24.0170  -20.9597  -11.0388 C   0  0  2  0  0  0  0  0  0  0  0  0
   25.2458  -20.8921  -10.2988 N   0  0  0  0  0  0  0  0  0  0  0  0
   24.2433  -20.2890  -12.3608 C   0  0  0  0  0  0  0  0  0  0  0  0
   24.9528  -19.2637  -12.4433 O   0  0  0  0  0  0  0  0  0  0  0  0
   17.6134  -22.9786  -10.1734 N   0  0  0  0  0  0  0  0  0  0  0  0
   27.7816  -21.1784  -16.2114 C   0  0  0  0  0  0  0  0  0  0  0  0
   27.3405  -21.7356  -14.9759 O   0  0  0  0  0  0  0  0  0  0  0  0
   28.1276  -22.5085  -14.3813 C   0  0  0  0  0  0  0  0  0  0  0  0
   26.0064  -21.3989  -14.4445 C   0  0  0  0  0  0  0  0  0  0  0  0
   25.2812  -20.3653  -15.2453 C   0  0  1  0  0  0  0  0  0  0  0  0
   23.8834  -20.0621  -14.8387 N   0  0  0  0  0  0  0  0  0  0  0  0
   23.6760  -20.7740  -13.5569 C   0  0  0  0  0  0  0  0  0  0  0  0
   22.8298  -20.5309  -15.7381 O   0  0  0  0  0  0  0  0  0  0  0  0
   22.9785  -21.6163  -16.3913 N   0  0  0  0  0  0  0  0  0  0  0  0
   21.5831  -19.8808  -15.9827 C   0  0  0  0  0  0  0  0  0  0  0  0
   21.0830  -18.8266  -15.1267 C   0  0  0  0  0  0  0  0  0  0  0  0
   19.8012  -19.2641  -14.5395 O   0  0  0  0  0  0  0  0  0  0  0  0
   19.7695  -20.2977  -13.8336 O   0  0  0  0  0  0  0  0  0  0  0  0
  1  2  1  0
  2  3  2  0
  4  5  1  0
  4  2  1  0
  6  5  1  0
  6  7  1  0
  8  7  1  0
  8  9  1  1
 10  8  1  0
 11 10  2  0
 13 14  2  0
 13 12  1  0
 15 13  1  0
 16 15  1  0
 17 16  1  1
 17 18  1  0
 18 10  1  0
 19 21  1  0
 19 17  1  0
 20 19  2  0
 22 21  1  0
 23 22  1  0
 24 23  2  0
 25 23  1  0
M  END
$$$$
