MLS.pdb
     RDKit          3D

 23 22  0  0  1  0  0  0  0  0999 V2000
    2.8437  -19.4329   22.3041 C   0  0  0  0  0  0  0  0  0  0  0  0
    3.6891  -20.9666   22.7895 S   0  0  0  0  0  0  0  0  0  0  0  0
    5.2543  -20.5007   23.5670 C   0  0  0  0  0  0  0  0  0  0  0  0
    5.5274  -19.0586   23.2096 C   0  0  0  0  0  0  0  0  0  0  0  0
    6.7891  -18.6392   23.9293 C   0  0  2  0  0  0  0  0  0  0  0  0
    6.5143  -18.6294   25.3474 N   0  0  0  0  0  0  0  0  0  0  0  0
    7.1039  -17.2530   23.4294 C   0  0  0  0  0  0  0  0  0  0  0  0
    7.3173  -17.0611   22.2055 O   0  0  0  0  0  0  0  0  0  0  0  0
    8.3142  -12.9358   26.4193 C   0  0  0  0  0  0  0  0  0  0  0  0
    7.1558  -13.8854   26.1602 C   0  0  1  0  0  0  0  0  0  0  0  0
    5.9187  -13.4468   26.9049 C   0  0  0  0  0  0  0  0  0  0  0  0
    6.8417  -13.8772   24.6863 C   0  0  0  0  0  0  0  0  0  0  0  0
    7.6720  -14.9244   24.0075 C   0  0  2  0  0  0  0  0  0  0  0  0
    7.1431  -16.2177   24.3867 N   0  0  0  0  0  0  0  0  0  0  0  0
    9.1029  -14.8452   24.4413 C   0  0  0  0  0  0  0  0  0  0  0  0
    9.7413  -13.7755   24.3281 O   0  0  0  0  0  0  0  0  0  0  0  0
   10.5576  -18.0549   26.1799 O   0  0  0  0  0  0  0  0  0  0  0  0
   11.3835  -16.9395   26.3888 C   0  0  0  0  0  0  0  0  0  0  0  0
   11.1396  -15.9813   25.2496 C   0  0  2  0  0  0  0  0  0  0  0  0
    9.7085  -15.9952   24.9759 N   0  0  0  0  0  0  0  0  0  0  0  0
   11.8432  -16.4753   24.0329 C   0  0  0  0  0  0  0  0  0  0  0  0
   11.1153  -16.9794   22.9525 O   0  0  0  0  0  0  0  0  0  0  0  0
   13.0877  -16.4546   23.9416 O   0  0  0  0  0  0  0  0  0  0  0  0
  1  2  1  0
  3  2  1  0
  4  3  1  0
  5  4  1  0
  5  6  1  1
  7  8  2  0
  7  5  1  0
 10  9  1  6
 10 11  1  0
 12 10  1  0
 13 12  1  1
 13 14  1  0
 14  7  1  0
 15 20  1  0
 15 13  1  0
 16 15  2  0
 19 18  1  1
 18 17  1  0
 19 20  1  0
 19 21  1  0
 21 22  1  0
 23 21  2  0
M  END
$$$$
