MLS.pdb
     RDKit          3D

 23 22  0  0  1  0  0  0  0  0999 V2000
    8.1711  -11.4886   20.2274 C   0  0  0  0  0  0  0  0  0  0  0  0
    7.9865  -12.6837   18.8711 S   0  0  0  0  0  0  0  0  0  0  0  0
    7.8031  -14.3229   19.6134 C   0  0  0  0  0  0  0  0  0  0  0  0
    8.2184  -14.2145   21.0617 C   0  0  0  0  0  0  0  0  0  0  0  0
    8.1829  -15.6052   21.6538 C   0  0  2  0  0  0  0  0  0  0  0  0
    6.8320  -16.1049   21.5444 N   0  0  0  0  0  0  0  0  0  0  0  0
    8.5858  -15.4460   23.0970 C   0  0  0  0  0  0  0  0  0  0  0  0
    9.7975  -15.2968   23.3971 O   0  0  0  0  0  0  0  0  0  0  0  0
    5.7137  -12.3397   26.0888 C   0  0  0  0  0  0  0  0  0  0  0  0
    6.8858  -13.1379   25.5414 C   0  0  1  0  0  0  0  0  0  0  0  0
    8.2002  -12.5097   25.9351 C   0  0  0  0  0  0  0  0  0  0  0  0
    6.8397  -14.5280   26.1217 C   0  0  0  0  0  0  0  0  0  0  0  0
    7.8948  -15.3642   25.4624 C   0  0  2  0  0  0  0  0  0  0  0  0
    7.5549  -15.4735   24.0594 N   0  0  0  0  0  0  0  0  0  0  0  0
    7.9428  -16.7392   26.0531 C   0  0  0  0  0  0  0  0  0  0  0  0
    6.8853  -17.3579   26.3051 O   0  0  0  0  0  0  0  0  0  0  0  0
   10.8882  -19.0501   25.3428 O   0  0  0  0  0  0  0  0  0  0  0  0
    9.7514  -19.6066   25.9492 C   0  0  0  0  0  0  0  0  0  0  0  0
    9.2580  -18.6144   26.9726 C   0  0  2  0  0  0  0  0  0  0  0  0
    9.1974  -17.3149   26.3163 N   0  0  0  0  0  0  0  0  0  0  0  0
   10.2470  -18.5209   28.0829 C   0  0  0  0  0  0  0  0  0  0  0  0
   10.5029  -19.6280   28.8953 O   0  0  0  0  0  0  0  0  0  0  0  0
   10.8694  -17.4652   28.3190 O   0  0  0  0  0  0  0  0  0  0  0  0
  1  2  1  0
  3  2  1  0
  4  3  1  0
  5  4  1  0
  5  6  1  1
  7  8  2  0
  7  5  1  0
 10  9  1  1
 10 11  1  0
 12 10  1  0
 13 12  1  1
 13 14  1  0
 14  7  1  0
 15 20  1  0
 15 13  1  0
 16 15  2  0
 19 18  1  6
 18 17  1  0
 19 20  1  0
 19 21  1  0
 21 22  1  0
 23 21  2  0
M  END
$$$$
