MLS.pdb
     RDKit          3D

 23 22  0  0  1  0  0  0  0  0999 V2000
    8.1790  -11.6849   27.0078 C   0  0  0  0  0  0  0  0  0  0  0  0
    6.4483  -12.1619   27.2896 S   0  0  0  0  0  0  0  0  0  0  0  0
    6.3418  -13.9570   27.0956 C   0  0  0  0  0  0  0  0  0  0  0  0
    6.4590  -14.2622   25.6208 C   0  0  0  0  0  0  0  0  0  0  0  0
    7.2801  -15.5236   25.4777 C   0  0  2  0  0  0  0  0  0  0  0  0
    8.5608  -15.2989   26.1070 N   0  0  0  0  0  0  0  0  0  0  0  0
    7.4367  -15.7440   23.9953 C   0  0  0  0  0  0  0  0  0  0  0  0
    6.4877  -16.2306   23.3299 O   0  0  0  0  0  0  0  0  0  0  0  0
    8.2286  -12.0893   20.8710 C   0  0  0  0  0  0  0  0  0  0  0  0
    7.9054  -13.4899   21.3656 C   0  0  1  0  0  0  0  0  0  0  0  0
    6.8986  -14.1635   20.4657 C   0  0  0  0  0  0  0  0  0  0  0  0
    9.1680  -14.3126   21.3528 C   0  0  0  0  0  0  0  0  0  0  0  0
    8.8940  -15.6319   22.0097 C   0  0  2  0  0  0  0  0  0  0  0  0
    8.6723  -15.3829   23.4185 N   0  0  0  0  0  0  0  0  0  0  0  0
   10.0592  -16.5609   21.8641 C   0  0  0  0  0  0  0  0  0  0  0  0
   11.1253  -16.3419   22.4807 O   0  0  0  0  0  0  0  0  0  0  0  0
    9.5245  -20.2269   21.4328 O   0  0  0  0  0  0  0  0  0  0  0  0
   10.5220  -19.9278   20.4918 C   0  0  0  0  0  0  0  0  0  0  0  0
   11.0689  -18.5648   20.8360 C   0  0  2  0  0  0  0  0  0  0  0  0
    9.9273  -17.6788   21.0228 N   0  0  0  0  0  0  0  0  0  0  0  0
   11.8646  -18.0501   19.6865 C   0  0  0  0  0  0  0  0  0  0  0  0
   11.4879  -16.8711   19.0390 O   0  0  0  0  0  0  0  0  0  0  0  0
   12.8787  -18.6475   19.2716 O   0  0  0  0  0  0  0  0  0  0  0  0
  1  2  1  0
  3  2  1  0
  4  3  1  0
  5  4  1  0
  5  6  1  1
  7  8  2  0
  7  5  1  0
 10  9  1  6
 10 11  1  0
 12 10  1  0
 13 12  1  6
 13 14  1  0
 14  7  1  0
 15 20  1  0
 15 13  1  0
 16 15  2  0
 19 18  1  6
 18 17  1  0
 19 20  1  0
 19 21  1  0
 21 22  1  0
 23 21  2  0
M  END
$$$$
