MLS.pdb
     RDKit          3D

 23 22  0  0  1  0  0  0  0  0999 V2000
    5.3608  -20.5252   25.4606 C   0  0  0  0  0  0  0  0  0  0  0  0
    6.9219  -20.6089   24.5343 S   0  0  0  0  0  0  0  0  0  0  0  0
    6.5671  -20.1251   22.8281 C   0  0  0  0  0  0  0  0  0  0  0  0
    7.1483  -18.7468   22.6167 C   0  0  0  0  0  0  0  0  0  0  0  0
    6.3864  -17.7875   23.5028 C   0  0  2  0  0  0  0  0  0  0  0  0
    5.1409  -17.4638   22.8467 N   0  0  0  0  0  0  0  0  0  0  0  0
    7.2620  -16.5682   23.6336 C   0  0  0  0  0  0  0  0  0  0  0  0
    8.0471  -16.2569   22.7024 O   0  0  0  0  0  0  0  0  0  0  0  0
    5.5500  -12.3253   26.5542 C   0  0  0  0  0  0  0  0  0  0  0  0
    6.2478  -13.1407   25.4777 C   0  0  1  0  0  0  0  0  0  0  0  0
    6.7363  -12.2547   24.3580 C   0  0  0  0  0  0  0  0  0  0  0  0
    7.4437  -13.8263   26.0869 C   0  0  0  0  0  0  0  0  0  0  0  0
    8.0646  -14.7231   25.0587 C   0  0  2  0  0  0  0  0  0  0  0  0
    7.1509  -15.8216   24.8253 N   0  0  0  0  0  0  0  0  0  0  0  0
    9.3687  -15.2779   25.5416 C   0  0  0  0  0  0  0  0  0  0  0  0
   10.3482  -14.5229   25.7291 O   0  0  0  0  0  0  0  0  0  0  0  0
    9.4163  -18.2690   27.8218 O   0  0  0  0  0  0  0  0  0  0  0  0
   10.4493  -18.5187   26.9051 C   0  0  0  0  0  0  0  0  0  0  0  0
   10.7439  -17.2200   26.1968 C   0  0  2  0  0  0  0  0  0  0  0  0
    9.4657  -16.6599   25.7779 N   0  0  0  0  0  0  0  0  0  0  0  0
   11.5449  -17.4991   24.9720 C   0  0  0  0  0  0  0  0  0  0  0  0
   12.7822  -18.1400   25.0687 O   0  0  0  0  0  0  0  0  0  0  0  0
   11.1414  -17.1736   23.8367 O   0  0  0  0  0  0  0  0  0  0  0  0
  1  2  1  0
  3  2  1  0
  4  3  1  0
  5  4  1  0
  5  6  1  6
  7  8  2  0
  7  5  1  0
 10  9  1  1
 10 11  1  0
 12 10  1  0
 13 12  1  1
 13 14  1  0
 14  7  1  0
 15 20  1  0
 15 13  1  0
 16 15  2  0
 19 18  1  6
 18 17  1  0
 19 20  1  0
 19 21  1  0
 21 22  1  0
 23 21  2  0
M  END
$$$$
