MLS.pdb
     RDKit          3D

 23 22  0  0  1  0  0  0  0  0999 V2000
    8.1803  -11.4739   19.8446 C   0  0  0  0  0  0  0  0  0  0  0  0
    7.7629  -12.8771   18.7680 S   0  0  0  0  0  0  0  0  0  0  0  0
    7.6374  -14.3462   19.8155 C   0  0  0  0  0  0  0  0  0  0  0  0
    8.5136  -14.1180   21.0248 C   0  0  0  0  0  0  0  0  0  0  0  0
    8.6015  -15.4247   21.7801 C   0  0  2  0  0  0  0  0  0  0  0  0
    7.2846  -16.0176   21.8054 N   0  0  0  0  0  0  0  0  0  0  0  0
    9.0595  -15.0642   23.1696 C   0  0  0  0  0  0  0  0  0  0  0  0
   10.2130  -14.5974   23.3484 O   0  0  0  0  0  0  0  0  0  0  0  0
    5.8831  -12.5506   26.5519 C   0  0  0  0  0  0  0  0  0  0  0  0
    7.1203  -13.0815   25.8461 C   0  0  1  0  0  0  0  0  0  0  0  0
    8.3276  -12.2304   26.1553 C   0  0  0  0  0  0  0  0  0  0  0  0
    7.3963  -14.4797   26.3360 C   0  0  0  0  0  0  0  0  0  0  0  0
    8.5700  -15.0337   25.5859 C   0  0  2  0  0  0  0  0  0  0  0  0
    8.1454  -15.2751   24.2231 N   0  0  0  0  0  0  0  0  0  0  0  0
    9.0305  -16.3279   26.1815 C   0  0  0  0  0  0  0  0  0  0  0  0
    9.0216  -16.4938   27.4213 O   0  0  0  0  0  0  0  0  0  0  0  0
   10.2368  -19.2867   23.6626 O   0  0  0  0  0  0  0  0  0  0  0  0
    9.6534  -19.6839   24.8758 C   0  0  0  0  0  0  0  0  0  0  0  0
    9.9419  -18.6028   25.8873 C   0  0  2  0  0  0  0  0  0  0  0  0
    9.4707  -17.3465   25.3191 N   0  0  0  0  0  0  0  0  0  0  0  0
   11.4148  -18.4930   26.0826 C   0  0  0  0  0  0  0  0  0  0  0  0
   12.1234  -19.5249   26.7024 O   0  0  0  0  0  0  0  0  0  0  0  0
   12.0531  -17.4897   25.7039 O   0  0  0  0  0  0  0  0  0  0  0  0
  1  2  1  0
  3  2  1  0
  4  3  1  0
  5  4  1  0
  5  6  1  1
  7  8  2  0
  7  5  1  0
 10  9  1  1
 10 11  1  0
 12 10  1  0
 13 12  1  1
 13 14  1  0
 14  7  1  0
 15 20  1  0
 15 13  1  0
 16 15  2  0
 19 18  1  6
 18 17  1  0
 19 20  1  0
 19 21  1  0
 21 22  1  0
 23 21  2  0
M  END
$$$$
