MLS.pdb
     RDKit          3D

 23 22  0  0  1  0  0  0  0  0999 V2000
    9.5178  -13.7358   29.6728 C   0  0  0  0  0  0  0  0  0  0  0  0
   10.6788  -15.0879   30.0282 S   0  0  0  0  0  0  0  0  0  0  0  0
   10.0772  -16.5601   29.1667 C   0  0  0  0  0  0  0  0  0  0  0  0
    9.4691  -16.1054   27.8608 C   0  0  0  0  0  0  0  0  0  0  0  0
    8.8231  -17.3089   27.2125 C   0  0  2  0  0  0  0  0  0  0  0  0
    9.8445  -18.3093   27.0061 N   0  0  0  0  0  0  0  0  0  0  0  0
    8.2718  -16.8192   25.8984 C   0  0  0  0  0  0  0  0  0  0  0  0
    7.7418  -17.6317   25.0988 O   0  0  0  0  0  0  0  0  0  0  0  0
    7.3509  -11.6446   26.3201 C   0  0  0  0  0  0  0  0  0  0  0  0
    7.2007  -13.1328   26.0491 C   0  0  1  0  0  0  0  0  0  0  0  0
    5.7634  -13.5682   26.1969 C   0  0  0  0  0  0  0  0  0  0  0  0
    7.6311  -13.4141   24.6324 C   0  0  0  0  0  0  0  0  0  0  0  0
    7.7475  -14.8969   24.4462 C   0  0  2  0  0  0  0  0  0  0  0  0
    8.3828  -15.4391   25.6287 N   0  0  0  0  0  0  0  0  0  0  0  0
    8.5907  -15.2278   23.2540 C   0  0  0  0  0  0  0  0  0  0  0  0
    8.2258  -14.8900   22.1062 O   0  0  0  0  0  0  0  0  0  0  0  0
   12.3020  -16.4873   23.9423 O   0  0  0  0  0  0  0  0  0  0  0  0
   12.0586  -15.8831   22.6991 C   0  0  0  0  0  0  0  0  0  0  0  0
   10.6420  -16.2207   22.3061 C   0  0  2  0  0  0  0  0  0  0  0  0
    9.7955  -15.9231   23.4541 N   0  0  0  0  0  0  0  0  0  0  0  0
   10.5433  -17.6815   22.0309 C   0  0  0  0  0  0  0  0  0  0  0  0
   11.2917  -18.2580   21.0019 O   0  0  0  0  0  0  0  0  0  0  0  0
    9.7992  -18.4259   22.7014 O   0  0  0  0  0  0  0  0  0  0  0  0
  1  2  1  0
  3  2  1  0
  4  3  1  0
  5  4  1  0
  5  6  1  6
  7  8  2  0
  7  5  1  0
 10  9  1  6
 10 11  1  0
 12 10  1  0
 13 12  1  1
 13 14  1  0
 14  7  1  0
 15 20  1  0
 15 13  1  0
 16 15  2  0
 19 18  1  1
 18 17  1  0
 19 20  1  0
 19 21  1  0
 21 22  1  0
 23 21  2  0
M  END
$$$$
