MLS.pdb
     RDKit          3D

 23 22  0  0  1  0  0  0  0  0999 V2000
    6.0567  -11.3966   26.2858 C   0  0  0  0  0  0  0  0  0  0  0  0
    7.0110  -12.4175   27.4476 S   0  0  0  0  0  0  0  0  0  0  0  0
    6.5362  -14.1408   27.1720 C   0  0  0  0  0  0  0  0  0  0  0  0
    7.5060  -14.7247   26.1717 C   0  0  0  0  0  0  0  0  0  0  0  0
    6.7285  -15.6557   25.2692 C   0  0  2  0  0  0  0  0  0  0  0  0
    6.3698  -16.8268   26.0350 N   0  0  0  0  0  0  0  0  0  0  0  0
    7.6649  -16.0110   24.1435 C   0  0  0  0  0  0  0  0  0  0  0  0
    8.0769  -17.1923   24.0196 O   0  0  0  0  0  0  0  0  0  0  0  0
    7.8767  -12.0752   20.4029 C   0  0  0  0  0  0  0  0  0  0  0  0
    7.7057  -13.4562   21.0147 C   0  0  1  0  0  0  0  0  0  0  0  0
    7.0395  -14.4002   20.0439 C   0  0  0  0  0  0  0  0  0  0  0  0
    9.0666  -14.0116   21.3475 C   0  0  0  0  0  0  0  0  0  0  0  0
    8.8954  -15.2735   22.1382 C   0  0  2  0  0  0  0  0  0  0  0  0
    8.0389  -14.9720   23.2658 N   0  0  0  0  0  0  0  0  0  0  0  0
   10.2100  -15.7714   22.6537 C   0  0  0  0  0  0  0  0  0  0  0  0
   10.7940  -15.1726   23.5837 O   0  0  0  0  0  0  0  0  0  0  0  0
   11.1581  -19.4036   21.7280 O   0  0  0  0  0  0  0  0  0  0  0  0
   11.9315  -18.8821   22.7768 C   0  0  0  0  0  0  0  0  0  0  0  0
   12.0631  -17.3980   22.5420 C   0  0  2  0  0  0  0  0  0  0  0  0
   10.7692  -16.9215   22.0708 N   0  0  0  0  0  0  0  0  0  0  0  0
   13.0604  -17.1580   21.4615 C   0  0  0  0  0  0  0  0  0  0  0  0
   14.3997  -17.5087   21.6468 O   0  0  0  0  0  0  0  0  0  0  0  0
   12.7353  -16.6433   20.3721 O   0  0  0  0  0  0  0  0  0  0  0  0
  1  2  1  0
  3  2  1  0
  4  3  1  0
  5  4  1  0
  5  6  1  1
  7  8  2  0
  7  5  1  0
 10  9  1  6
 10 11  1  0
 12 10  1  0
 13 12  1  1
 13 14  1  0
 14  7  1  0
 15 20  1  0
 15 13  1  0
 16 15  2  0
 19 18  1  6
 18 17  1  0
 19 20  1  0
 19 21  1  0
 21 22  1  0
 23 21  2  0
M  END
$$$$
