MLS.pdb
     RDKit          3D

 23 22  0  0  1  0  0  0  0  0999 V2000
    7.8453  -11.4833   19.9575 C   0  0  0  0  0  0  0  0  0  0  0  0
    7.7648  -12.8912   18.8112 S   0  0  0  0  0  0  0  0  0  0  0  0
    7.7652  -14.4016   19.8061 C   0  0  0  0  0  0  0  0  0  0  0  0
    8.4637  -14.0876   21.1082 C   0  0  0  0  0  0  0  0  0  0  0  0
    8.6519  -15.3899   21.8529 C   0  0  2  0  0  0  0  0  0  0  0  0
    7.3868  -16.0869   21.8643 N   0  0  0  0  0  0  0  0  0  0  0  0
    9.0711  -15.0063   23.2485 C   0  0  0  0  0  0  0  0  0  0  0  0
   10.1873  -14.4607   23.4405 O   0  0  0  0  0  0  0  0  0  0  0  0
    5.6206  -12.8168   26.5107 C   0  0  0  0  0  0  0  0  0  0  0  0
    6.9102  -13.2427   25.8278 C   0  0  1  0  0  0  0  0  0  0  0  0
    8.0076  -12.2343   26.0650 C   0  0  0  0  0  0  0  0  0  0  0  0
    7.3538  -14.5613   26.4074 C   0  0  0  0  0  0  0  0  0  0  0  0
    8.5639  -15.0366   25.6612 C   0  0  2  0  0  0  0  0  0  0  0  0
    8.1649  -15.2873   24.2923 N   0  0  0  0  0  0  0  0  0  0  0  0
    9.0956  -16.3080   26.2466 C   0  0  0  0  0  0  0  0  0  0  0  0
    9.3679  -16.3793   27.4654 O   0  0  0  0  0  0  0  0  0  0  0  0
   10.1535  -19.3016   23.7134 O   0  0  0  0  0  0  0  0  0  0  0  0
    9.6091  -19.7306   24.9339 C   0  0  0  0  0  0  0  0  0  0  0  0
    9.8545  -18.6370   25.9433 C   0  0  2  0  0  0  0  0  0  0  0  0
    9.2805  -17.4134   25.3988 N   0  0  0  0  0  0  0  0  0  0  0  0
   11.3218  -18.4270   26.0934 C   0  0  0  0  0  0  0  0  0  0  0  0
   11.9107  -17.2329   25.6707 O   0  0  0  0  0  0  0  0  0  0  0  0
   12.0608  -19.2989   26.5944 O   0  0  0  0  0  0  0  0  0  0  0  0
  1  2  1  0
  3  2  1  0
  4  3  1  0
  5  4  1  0
  5  6  1  1
  7  8  2  0
  7  5  1  0
 10  9  1  1
 10 11  1  0
 12 10  1  0
 13 12  1  1
 13 14  1  0
 14  7  1  0
 15 20  1  0
 15 13  1  0
 16 15  2  0
 19 18  1  6
 18 17  1  0
 19 20  1  0
 19 21  1  0
 21 22  1  0
 23 21  2  0
M  END
$$$$
