MLS.pdb
     RDKit          3D

 23 22  0  0  1  0  0  0  0  0999 V2000
    7.0526  -20.7303   23.8101 C   0  0  0  0  0  0  0  0  0  0  0  0
    5.3902  -20.3474   23.1842 S   0  0  0  0  0  0  0  0  0  0  0  0
    5.4393  -18.6726   22.5029 C   0  0  0  0  0  0  0  0  0  0  0  0
    6.5862  -17.9463   23.1655 C   0  0  0  0  0  0  0  0  0  0  0  0
    6.5651  -16.5152   22.6781 C   0  0  2  0  0  0  0  0  0  0  0  0
    6.9040  -16.5147   21.2739 N   0  0  0  0  0  0  0  0  0  0  0  0
    7.6102  -15.7918   23.4874 C   0  0  0  0  0  0  0  0  0  0  0  0
    8.8086  -15.7921   23.1077 O   0  0  0  0  0  0  0  0  0  0  0  0
    5.7744  -11.8983   26.7013 C   0  0  0  0  0  0  0  0  0  0  0  0
    6.6452  -12.6928   25.7416 C   0  0  1  0  0  0  0  0  0  0  0  0
    7.6093  -11.7905   25.0111 C   0  0  0  0  0  0  0  0  0  0  0  0
    7.4487  -13.6942   26.5308 C   0  0  0  0  0  0  0  0  0  0  0  0
    8.1615  -14.6043   25.5766 C   0  0  2  0  0  0  0  0  0  0  0  0
    7.1765  -15.1357   24.6583 N   0  0  0  0  0  0  0  0  0  0  0  0
    8.8091  -15.7450   26.2987 C   0  0  0  0  0  0  0  0  0  0  0  0
    8.1173  -16.6852   26.7481 O   0  0  0  0  0  0  0  0  0  0  0  0
   11.9279  -17.4059   25.1795 O   0  0  0  0  0  0  0  0  0  0  0  0
   12.1796  -17.0728   26.5195 C   0  0  0  0  0  0  0  0  0  0  0  0
   10.8454  -16.8273   27.1788 C   0  0  2  0  0  0  0  0  0  0  0  0
   10.2053  -15.7342   26.4586 N   0  0  0  0  0  0  0  0  0  0  0  0
   11.0658  -16.3829   28.5836 C   0  0  0  0  0  0  0  0  0  0  0  0
   11.7449  -17.2053   29.4856 O   0  0  0  0  0  0  0  0  0  0  0  0
   10.6564  -15.2774   28.9931 O   0  0  0  0  0  0  0  0  0  0  0  0
  1  2  1  0
  3  2  1  0
  4  3  1  0
  5  4  1  0
  5  6  1  6
  7  8  2  0
  7  5  1  0
 10  9  1  1
 10 11  1  0
 12 10  1  0
 13 12  1  1
 13 14  1  0
 14  7  1  0
 15 20  1  0
 15 13  1  0
 16 15  2  0
 19 18  1  6
 18 17  1  0
 19 20  1  0
 19 21  1  0
 21 22  1  0
 23 21  2  0
M  END
$$$$
