MLS.pdb
     RDKit          3D

 23 22  0  0  1  0  0  0  0  0999 V2000
    7.5377  -11.4369   25.9058 C   0  0  0  0  0  0  0  0  0  0  0  0
    6.5405  -12.1865   27.2272 S   0  0  0  0  0  0  0  0  0  0  0  0
    6.8335  -13.9708   27.1824 C   0  0  0  0  0  0  0  0  0  0  0  0
    6.5441  -14.4433   25.7770 C   0  0  0  0  0  0  0  0  0  0  0  0
    7.4059  -15.6577   25.5154 C   0  0  2  0  0  0  0  0  0  0  0  0
    8.7447  -15.3643   25.9715 N   0  0  0  0  0  0  0  0  0  0  0  0
    7.3761  -15.8669   24.0235 C   0  0  0  0  0  0  0  0  0  0  0  0
    6.3658  -16.3839   23.4827 O   0  0  0  0  0  0  0  0  0  0  0  0
    8.1820  -12.1684   20.7757 C   0  0  0  0  0  0  0  0  0  0  0  0
    7.7880  -13.5073   21.3780 C   0  0  1  0  0  0  0  0  0  0  0  0
    6.5518  -14.0588   20.7111 C   0  0  0  0  0  0  0  0  0  0  0  0
    8.9126  -14.4869   21.1611 C   0  0  0  0  0  0  0  0  0  0  0  0
    8.5907  -15.7621   21.8803 C   0  0  2  0  0  0  0  0  0  0  0  0
    8.5132  -15.4608   23.2943 N   0  0  0  0  0  0  0  0  0  0  0  0
    9.6595  -16.7885   21.6662 C   0  0  0  0  0  0  0  0  0  0  0  0
    9.9566  -17.1624   20.5100 O   0  0  0  0  0  0  0  0  0  0  0  0
   12.7018  -16.9949   23.8566 O   0  0  0  0  0  0  0  0  0  0  0  0
   12.6600  -17.7592   22.6802 C   0  0  0  0  0  0  0  0  0  0  0  0
   11.2908  -18.3871   22.6018 C   0  0  2  0  0  0  0  0  0  0  0  0
   10.3174  -17.3191   22.7889 N   0  0  0  0  0  0  0  0  0  0  0  0
   11.1293  -19.3552   23.7226 C   0  0  0  0  0  0  0  0  0  0  0  0
   11.9165  -20.5077   23.7787 O   0  0  0  0  0  0  0  0  0  0  0  0
   10.2972  -19.1698   24.6341 O   0  0  0  0  0  0  0  0  0  0  0  0
  1  2  1  0
  3  2  1  0
  4  3  1  0
  5  4  1  0
  5  6  1  6
  7  8  2  0
  7  5  1  0
 10  9  1  6
 10 11  1  0
 12 10  1  0
 13 12  1  6
 13 14  1  0
 14  7  1  0
 15 20  1  0
 15 13  1  0
 16 15  2  0
 19 18  1  1
 18 17  1  0
 19 20  1  0
 19 21  1  0
 21 22  1  0
 23 21  2  0
M  END
$$$$
