MLS.pdb
     RDKit          3D

 23 22  0  0  1  0  0  0  0  0999 V2000
    8.8547  -11.4035   19.6320 C   0  0  0  0  0  0  0  0  0  0  0  0
    7.4736  -12.3884   18.9803 S   0  0  0  0  0  0  0  0  0  0  0  0
    7.6326  -14.0591   19.6547 C   0  0  0  0  0  0  0  0  0  0  0  0
    8.0200  -13.9268   21.1089 C   0  0  0  0  0  0  0  0  0  0  0  0
    8.2078  -15.3214   21.6617 C   0  0  2  0  0  0  0  0  0  0  0  0
    6.9198  -15.9752   21.6766 N   0  0  0  0  0  0  0  0  0  0  0  0
    8.7384  -15.1392   23.0602 C   0  0  0  0  0  0  0  0  0  0  0  0
    9.9484  -14.8486   23.2390 O   0  0  0  0  0  0  0  0  0  0  0  0
    5.6697  -12.6247   26.4024 C   0  0  0  0  0  0  0  0  0  0  0  0
    6.8769  -13.2047   25.6834 C   0  0  1  0  0  0  0  0  0  0  0  0
    8.0835  -12.3128   25.8441 C   0  0  0  0  0  0  0  0  0  0  0  0
    7.2034  -14.5462   26.2875 C   0  0  0  0  0  0  0  0  0  0  0  0
    8.2960  -15.1864   25.4853 C   0  0  2  0  0  0  0  0  0  0  0  0
    7.8252  -15.3089   24.1218 N   0  0  0  0  0  0  0  0  0  0  0  0
    8.6197  -16.5525   26.0058 C   0  0  0  0  0  0  0  0  0  0  0  0
    7.8131  -17.1558   26.7474 O   0  0  0  0  0  0  0  0  0  0  0  0
   11.1813  -18.7255   24.0991 O   0  0  0  0  0  0  0  0  0  0  0  0
   10.4043  -19.3840   25.0648 C   0  0  0  0  0  0  0  0  0  0  0  0
   10.2121  -18.4268   26.2146 C   0  0  2  0  0  0  0  0  0  0  0  0
    9.8449  -17.1377   25.6432 N   0  0  0  0  0  0  0  0  0  0  0  0
   11.5055  -18.2569   26.9341 C   0  0  0  0  0  0  0  0  0  0  0  0
   12.0866  -19.3352   27.6054 O   0  0  0  0  0  0  0  0  0  0  0  0
   12.1024  -17.1612   26.9594 O   0  0  0  0  0  0  0  0  0  0  0  0
  1  2  1  0
  3  2  1  0
  4  3  1  0
  5  4  1  0
  5  6  1  1
  7  8  2  0
  7  5  1  0
 10  9  1  1
 10 11  1  0
 12 10  1  0
 13 12  1  1
 13 14  1  0
 14  7  1  0
 15 20  1  0
 15 13  1  0
 16 15  2  0
 19 18  1  6
 18 17  1  0
 19 20  1  0
 19 21  1  0
 21 22  1  0
 23 21  2  0
M  END
$$$$
