MLS.pdb
     RDKit          3D

 23 22  0  0  1  0  0  0  0  0999 V2000
    7.6783  -19.8563   21.3124 C   0  0  0  0  0  0  0  0  0  0  0  0
    7.0950  -19.0486   19.7926 S   0  0  0  0  0  0  0  0  0  0  0  0
    7.4369  -17.2798   19.9525 C   0  0  0  0  0  0  0  0  0  0  0  0
    7.9183  -17.0360   21.3635 C   0  0  0  0  0  0  0  0  0  0  0  0
    8.1591  -15.5512   21.5154 C   0  0  2  0  0  0  0  0  0  0  0  0
    9.2262  -15.1757   20.6171 N   0  0  0  0  0  0  0  0  0  0  0  0
    8.5644  -15.3472   22.9523 C   0  0  0  0  0  0  0  0  0  0  0  0
    9.7429  -15.5951   23.3128 O   0  0  0  0  0  0  0  0  0  0  0  0
    5.8805  -11.6695   25.9316 C   0  0  0  0  0  0  0  0  0  0  0  0
    7.0211  -12.5265   25.4071 C   0  0  1  0  0  0  0  0  0  0  0  0
    8.3514  -12.0296   25.9177 C   0  0  0  0  0  0  0  0  0  0  0  0
    6.8311  -13.9394   25.8957 C   0  0  0  0  0  0  0  0  0  0  0  0
    7.8646  -14.8169   25.2563 C   0  0  2  0  0  0  0  0  0  0  0  0
    7.5737  -14.8767   23.8393 N   0  0  0  0  0  0  0  0  0  0  0  0
    7.8162  -16.2052   25.8151 C   0  0  0  0  0  0  0  0  0  0  0  0
    6.8811  -16.9785   25.5113 O   0  0  0  0  0  0  0  0  0  0  0  0
   11.0064  -18.8721   25.5147 O   0  0  0  0  0  0  0  0  0  0  0  0
    9.6841  -18.4231   25.3735 C   0  0  0  0  0  0  0  0  0  0  0  0
    9.1957  -18.0285   26.7450 C   0  0  2  0  0  0  0  0  0  0  0  0
    8.8409  -16.6166   26.6845 N   0  0  0  0  0  0  0  0  0  0  0  0
   10.3078  -18.1795   27.7248 C   0  0  0  0  0  0  0  0  0  0  0  0
   10.8775  -17.0540   28.3247 O   0  0  0  0  0  0  0  0  0  0  0  0
   10.7591  -19.3005   28.0364 O   0  0  0  0  0  0  0  0  0  0  0  0
  1  2  1  0
  3  2  1  0
  4  3  1  0
  5  4  1  0
  5  6  1  6
  7  8  2  0
  7  5  1  0
 10  9  1  1
 10 11  1  0
 12 10  1  0
 13 12  1  1
 13 14  1  0
 14  7  1  0
 15 20  1  0
 15 13  1  0
 16 15  2  0
 19 18  1  6
 18 17  1  0
 19 20  1  0
 19 21  1  0
 21 22  1  0
 23 21  2  0
M  END
$$$$
