MLS.pdb
     RDKit          3D

 23 22  0  0  1  0  0  0  0  0999 V2000
    7.7023  -11.5453   26.6407 C   0  0  0  0  0  0  0  0  0  0  0  0
    6.7442  -12.5804   27.7865 S   0  0  0  0  0  0  0  0  0  0  0  0
    5.9716  -13.8948   26.8136 C   0  0  0  0  0  0  0  0  0  0  0  0
    7.0228  -14.4458   25.8790 C   0  0  0  0  0  0  0  0  0  0  0  0
    6.3576  -15.4809   25.0004 C   0  0  2  0  0  0  0  0  0  0  0  0
    5.9573  -16.5886   25.8366 N   0  0  0  0  0  0  0  0  0  0  0  0
    7.4049  -15.9058   24.0039 C   0  0  0  0  0  0  0  0  0  0  0  0
    7.8326  -17.0879   24.0091 O   0  0  0  0  0  0  0  0  0  0  0  0
    7.8075  -12.2574   20.0791 C   0  0  0  0  0  0  0  0  0  0  0  0
    7.6352  -13.6170   20.7367 C   0  0  1  0  0  0  0  0  0  0  0  0
    7.0401  -14.6137   19.7725 C   0  0  0  0  0  0  0  0  0  0  0  0
    8.9889  -14.1267   21.1597 C   0  0  0  0  0  0  0  0  0  0  0  0
    8.8018  -15.3092   22.0617 C   0  0  2  0  0  0  0  0  0  0  0  0
    7.8613  -14.9288   23.0945 N   0  0  0  0  0  0  0  0  0  0  0  0
   10.0923  -15.7046   22.7099 C   0  0  0  0  0  0  0  0  0  0  0  0
   10.5833  -15.0051   23.6233 O   0  0  0  0  0  0  0  0  0  0  0  0
   11.3735  -19.3163   21.9912 O   0  0  0  0  0  0  0  0  0  0  0  0
   12.0116  -18.7168   23.0882 C   0  0  0  0  0  0  0  0  0  0  0  0
   12.0291  -17.2293   22.8388 C   0  0  2  0  0  0  0  0  0  0  0  0
   10.7355  -16.8741   22.2699 N   0  0  0  0  0  0  0  0  0  0  0  0
   13.0764  -16.9128   21.8276 C   0  0  0  0  0  0  0  0  0  0  0  0
   12.7277  -16.3172   20.6132 O   0  0  0  0  0  0  0  0  0  0  0  0
   14.2814  -17.1663   22.0306 O   0  0  0  0  0  0  0  0  0  0  0  0
  1  2  1  0
  3  2  1  0
  4  3  1  0
  5  4  1  0
  5  6  1  1
  7  8  2  0
  7  5  1  0
 10  9  1  6
 10 11  1  0
 12 10  1  0
 13 12  1  6
 13 14  1  0
 14  7  1  0
 15 20  1  0
 15 13  1  0
 16 15  2  0
 19 18  1  6
 18 17  1  0
 19 20  1  0
 19 21  1  0
 21 22  1  0
 23 21  2  0
M  END
$$$$
