MLS.pdb
     RDKit          3D

 23 22  0  0  1  0  0  0  0  0999 V2000
    7.1013  -12.3763   17.7179 C   0  0  0  0  0  0  0  0  0  0  0  0
    8.2080  -12.3482   19.1590 S   0  0  0  0  0  0  0  0  0  0  0  0
    7.9429  -13.8839   20.0768 C   0  0  0  0  0  0  0  0  0  0  0  0
    8.8486  -13.8527   21.2855 C   0  0  0  0  0  0  0  0  0  0  0  0
    8.7346  -15.1917   21.9783 C   0  0  2  0  0  0  0  0  0  0  0  0
    7.3518  -15.6063   21.9280 N   0  0  0  0  0  0  0  0  0  0  0  0
    9.1778  -14.9565   23.3991 C   0  0  0  0  0  0  0  0  0  0  0  0
   10.3545  -14.5823   23.6352 O   0  0  0  0  0  0  0  0  0  0  0  0
    5.8605  -12.5463   26.7256 C   0  0  0  0  0  0  0  0  0  0  0  0
    7.1228  -13.0503   26.0451 C   0  0  1  0  0  0  0  0  0  0  0  0
    8.3081  -12.1825   26.3907 C   0  0  0  0  0  0  0  0  0  0  0  0
    7.4101  -14.4484   26.5290 C   0  0  0  0  0  0  0  0  0  0  0  0
    8.6061  -14.9787   25.7974 C   0  0  2  0  0  0  0  0  0  0  0  0
    8.2236  -15.1744   24.4148 N   0  0  0  0  0  0  0  0  0  0  0  0
    9.0478  -16.2925   26.3636 C   0  0  0  0  0  0  0  0  0  0  0  0
    9.2112  -16.4286   27.5963 O   0  0  0  0  0  0  0  0  0  0  0  0
   10.1463  -19.2002   23.7873 O   0  0  0  0  0  0  0  0  0  0  0  0
    9.4888  -19.6754   24.9327 C   0  0  0  0  0  0  0  0  0  0  0  0
    9.6890  -18.6514   26.0219 C   0  0  2  0  0  0  0  0  0  0  0  0
    9.2733  -17.3635   25.4820 N   0  0  0  0  0  0  0  0  0  0  0  0
   11.1389  -18.5627   26.3526 C   0  0  0  0  0  0  0  0  0  0  0  0
   11.7883  -19.6331   26.9721 O   0  0  0  0  0  0  0  0  0  0  0  0
   11.8099  -17.5437   26.0901 O   0  0  0  0  0  0  0  0  0  0  0  0
  1  2  1  0
  3  2  1  0
  4  3  1  0
  5  4  1  0
  5  6  1  1
  7  8  2  0
  7  5  1  0
 10  9  1  1
 10 11  1  0
 12 10  1  0
 13 12  1  1
 13 14  1  0
 14  7  1  0
 15 20  1  0
 15 13  1  0
 16 15  2  0
 19 18  1  6
 18 17  1  0
 19 20  1  0
 19 21  1  0
 21 22  1  0
 23 21  2  0
M  END
$$$$
