VGP.pdb
     RDKit          3D

 19 19  0  0  1  0  0  0  0  0999 V2000
   25.3911  -14.8897  -16.9249 C   0  0  0  0  0  0  0  0  0  0  0  0
   24.1911  -15.6668  -17.3515 C   0  0  1  0  0  0  0  0  0  0  0  0
   23.7872  -15.3792  -18.7510 C   0  0  0  0  0  0  0  0  0  0  0  0
   24.3103  -17.1493  -17.0200 C   0  0  2  0  0  0  0  0  0  0  0  0
   23.0494  -17.8176  -17.3736 N   0  0  0  0  0  0  0  0  0  0  0  0
   24.5122  -17.4068  -15.5822 C   0  0  0  0  0  0  0  0  0  0  0  0
   23.6428  -17.0841  -14.7173 O   0  0  0  0  0  0  0  0  0  0  0  0
   25.6993  -18.0400  -15.0478 N   0  0  0  0  0  0  0  0  0  0  0  0
   25.8165  -18.3017  -13.6525 C   0  0  0  0  0  0  0  0  0  0  0  0
   25.1639  -19.4329  -13.0550 C   0  0  0  0  0  0  0  0  0  0  0  0
   24.2295  -19.9424  -13.8349 O   0  0  0  0  0  0  0  0  0  0  0  0
   25.3533  -20.0699  -11.8048 N   0  0  0  0  0  0  0  0  0  0  0  0
   26.3847  -19.8428  -10.8471 C   0  0  0  0  0  0  0  0  0  0  0  0
   26.3089  -21.0310   -9.8506 C   0  0  0  0  0  0  0  0  0  0  0  0
   24.8465  -21.3792   -9.9119 C   0  0  0  0  0  0  0  0  0  0  0  0
   24.4954  -21.1360  -11.3476 C   0  0  1  0  0  0  0  0  0  0  0  0
   23.0475  -20.7723  -11.4376 C   0  0  0  0  0  0  0  0  0  0  0  0
   22.7232  -19.5758  -11.4905 O   0  0  0  0  0  0  0  0  0  0  0  0
   22.1010  -21.7553  -11.4605 O   0  0  0  0  0  0  0  0  0  0  0  0
  2  1  1  6
  3  2  1  0
  4  2  1  0
  4  5  1  1
  6  7  2  0
  6  4  1  0
  8  6  1  0
  9 10  1  0
  9  8  1  0
 10 12  1  0
 11 10  2  0
 12 16  1  0
 13 12  1  0
 13 14  1  0
 14 15  1  0
 16 15  1  0
 16 17  1  1
 17 19  1  0
 18 17  2  0
M  END
$$$$
