VGP.pdb
     RDKit          3D

 19 19  0  0  1  0  0  0  0  0999 V2000
   20.0097  -15.1268  -20.4151 C   0  0  0  0  0  0  0  0  0  0  0  0
   18.9733  -14.0545  -20.4562 C   0  0  1  0  0  0  0  0  0  0  0  0
   17.8141  -14.4075  -21.3143 C   0  0  0  0  0  0  0  0  0  0  0  0
   18.6010  -13.5519  -19.0667 C   0  0  2  0  0  0  0  0  0  0  0  0
   17.6229  -12.4626  -19.2022 N   0  0  0  0  0  0  0  0  0  0  0  0
   19.7438  -12.9769  -18.3334 C   0  0  0  0  0  0  0  0  0  0  0  0
   20.6181  -13.7090  -17.7787 O   0  0  0  0  0  0  0  0  0  0  0  0
   19.9595  -11.5527  -18.1894 N   0  0  0  0  0  0  0  0  0  0  0  0
   21.0929  -11.0583  -17.4822 C   0  0  0  0  0  0  0  0  0  0  0  0
   20.9429  -10.3900  -16.2199 C   0  0  0  0  0  0  0  0  0  0  0  0
   19.7246   -9.9145  -16.0458 O   0  0  0  0  0  0  0  0  0  0  0  0
   21.8607  -10.1649  -15.1655 N   0  0  0  0  0  0  0  0  0  0  0  0
   23.1571  -10.7312  -14.9893 C   0  0  0  0  0  0  0  0  0  0  0  0
   23.5631  -10.4165  -13.5241 C   0  0  0  0  0  0  0  0  0  0  0  0
   22.8217   -9.1306  -13.2784 C   0  0  0  0  0  0  0  0  0  0  0  0
   21.5456   -9.3190  -14.0399 C   0  0  1  0  0  0  0  0  0  0  0  0
   21.0338   -7.9801  -14.4668 C   0  0  0  0  0  0  0  0  0  0  0  0
   21.3912   -7.5124  -15.5590 O   0  0  0  0  0  0  0  0  0  0  0  0
   20.1823   -7.2886  -13.6546 O   0  0  0  0  0  0  0  0  0  0  0  0
  2  1  1  1
  3  2  1  0
  4  2  1  0
  4  5  1  6
  6  7  2  0
  6  4  1  0
  8  6  1  0
  9 10  1  0
  9  8  1  0
 10 12  1  0
 11 10  2  0
 12 16  1  0
 13 12  1  0
 13 14  1  0
 14 15  1  0
 16 15  1  0
 16 17  1  6
 17 19  1  0
 18 17  2  0
M  END
$$$$
