VGP.pdb
     RDKit          3D

 19 19  0  0  1  0  0  0  0  0999 V2000
   25.1199  -20.2582  -12.8752 C   0  0  0  0  0  0  0  0  0  0  0  0
   24.0505  -20.2115  -11.8360 C   0  0  1  0  0  0  0  0  0  0  0  0
   22.7090  -20.5490  -12.3754 C   0  0  0  0  0  0  0  0  0  0  0  0
   24.4336  -20.9727  -10.5728 C   0  0  2  0  0  0  0  0  0  0  0  0
   23.3937  -20.7584   -9.5558 N   0  0  0  0  0  0  0  0  0  0  0  0
   25.6912  -20.4960   -9.9682 C   0  0  0  0  0  0  0  0  0  0  0  0
   26.8235  -20.8300  -10.4311 O   0  0  0  0  0  0  0  0  0  0  0  0
   25.7367  -19.6206   -8.8161 N   0  0  0  0  0  0  0  0  0  0  0  0
   26.9845  -19.2199   -8.2581 C   0  0  0  0  0  0  0  0  0  0  0  0
   27.5337  -19.8937   -7.1149 C   0  0  0  0  0  0  0  0  0  0  0  0
   27.1103  -21.1393   -7.0158 O   0  0  0  0  0  0  0  0  0  0  0  0
   28.4267  -19.4528   -6.1085 N   0  0  0  0  0  0  0  0  0  0  0  0
   29.1336  -18.2168   -6.0370 C   0  0  0  0  0  0  0  0  0  0  0  0
   30.2089  -18.4051   -4.9330 C   0  0  0  0  0  0  0  0  0  0  0  0
   29.5390  -19.4059   -4.0313 C   0  0  0  0  0  0  0  0  0  0  0  0
   28.7927  -20.2845   -4.9877 C   0  0  1  0  0  0  0  0  0  0  0  0
   27.5963  -20.8516   -4.2922 C   0  0  0  0  0  0  0  0  0  0  0  0
   26.4937  -20.2998   -4.4312 O   0  0  0  0  0  0  0  0  0  0  0  0
   27.7279  -21.9655   -3.5148 O   0  0  0  0  0  0  0  0  0  0  0  0
  2  1  1  6
  3  2  1  0
  4  2  1  0
  4  5  1  1
  6  7  2  0
  6  4  1  0
  8  6  1  0
  9 10  1  0
  9  8  1  0
 10 12  1  0
 11 10  2  0
 12 16  1  0
 13 12  1  0
 13 14  1  0
 14 15  1  0
 16 15  1  0
 16 17  1  1
 17 19  1  0
 18 17  2  0
M  END
$$$$
