VGP.pdb
     RDKit          3D

 19 19  0  0  1  0  0  0  0  0999 V2000
   24.6059  -19.8856  -13.9445 C   0  0  0  0  0  0  0  0  0  0  0  0
   23.1431  -20.1788  -13.9413 C   0  0  1  0  0  0  0  0  0  0  0  0
   22.6232  -20.5267  -15.2878 C   0  0  0  0  0  0  0  0  0  0  0  0
   22.7480  -21.1546  -12.8397 C   0  0  2  0  0  0  0  0  0  0  0  0
   21.2822  -21.2630  -12.8050 N   0  0  0  0  0  0  0  0  0  0  0  0
   23.1495  -20.7031  -11.4946 C   0  0  0  0  0  0  0  0  0  0  0  0
   22.6693  -19.6524  -10.9716 O   0  0  0  0  0  0  0  0  0  0  0  0
   24.1084  -21.4109  -10.6727 N   0  0  0  0  0  0  0  0  0  0  0  0
   24.6410  -20.8082   -9.4970 C   0  0  0  0  0  0  0  0  0  0  0  0
   26.0365  -20.4829   -9.4002 C   0  0  0  0  0  0  0  0  0  0  0  0
   26.6402  -20.5097  -10.5731 O   0  0  0  0  0  0  0  0  0  0  0  0
   26.8445  -20.1494   -8.2864 N   0  0  0  0  0  0  0  0  0  0  0  0
   26.4359  -19.9058   -6.9425 C   0  0  0  0  0  0  0  0  0  0  0  0
   27.6572  -19.2556   -6.2379 C   0  0  0  0  0  0  0  0  0  0  0  0
   28.8014  -19.8602   -7.0053 C   0  0  0  0  0  0  0  0  0  0  0  0
   28.2687  -19.9497   -8.4024 C   0  0  1  0  0  0  0  0  0  0  0  0
   28.9417  -21.0850   -9.1059 C   0  0  0  0  0  0  0  0  0  0  0  0
   30.0343  -20.8939   -9.6620 O   0  0  0  0  0  0  0  0  0  0  0  0
   28.3504  -22.3149   -9.1293 O   0  0  0  0  0  0  0  0  0  0  0  0
  2  1  1  6
  3  2  1  0
  4  2  1  0
  4  5  1  1
  6  7  2  0
  6  4  1  0
  8  6  1  0
  9 10  1  0
  9  8  1  0
 10 12  1  0
 11 10  2  0
 12 16  1  0
 13 12  1  0
 13 14  1  0
 14 15  1  0
 16 15  1  0
 16 17  1  1
 17 19  1  0
 18 17  2  0
M  END
$$$$
