VGP.pdb
     RDKit          3D

 19 19  0  0  1  0  0  0  0  0999 V2000
   23.4527  -18.7753  -18.3548 C   0  0  0  0  0  0  0  0  0  0  0  0
   23.6709  -18.3822  -16.9323 C   0  0  1  0  0  0  0  0  0  0  0  0
   22.9115  -17.1654  -16.5488 C   0  0  0  0  0  0  0  0  0  0  0  0
   23.5106  -19.5556  -15.9735 C   0  0  2  0  0  0  0  0  0  0  0  0
   22.1021  -19.9772  -15.9707 N   0  0  0  0  0  0  0  0  0  0  0  0
   23.8291  -19.2093  -14.5760 C   0  0  0  0  0  0  0  0  0  0  0  0
   23.1018  -18.4196  -13.9011 O   0  0  0  0  0  0  0  0  0  0  0  0
   24.9787  -19.7343  -13.8700 N   0  0  0  0  0  0  0  0  0  0  0  0
   25.2108  -19.3934  -12.5065 C   0  0  0  0  0  0  0  0  0  0  0  0
   24.8565  -20.2970  -11.4479 C   0  0  0  0  0  0  0  0  0  0  0  0
   24.0409  -21.2509  -11.8547 O   0  0  0  0  0  0  0  0  0  0  0  0
   25.2277  -20.3295  -10.0819 N   0  0  0  0  0  0  0  0  0  0  0  0
   26.1918  -19.5216   -9.4110 C   0  0  0  0  0  0  0  0  0  0  0  0
   26.4377  -20.2043   -8.0384 C   0  0  0  0  0  0  0  0  0  0  0  0
   25.1072  -20.8610   -7.7891 C   0  0  0  0  0  0  0  0  0  0  0  0
   24.6734  -21.2886   -9.1575 C   0  0  1  0  0  0  0  0  0  0  0  0
   23.1789  -21.3185   -9.2049 C   0  0  0  0  0  0  0  0  0  0  0  0
   22.5668  -20.3599   -9.7010 O   0  0  0  0  0  0  0  0  0  0  0  0
   22.5055  -22.3949   -8.7043 O   0  0  0  0  0  0  0  0  0  0  0  0
  2  1  1  6
  3  2  1  0
  4  2  1  0
  4  5  1  1
  6  7  2  0
  6  4  1  0
  8  6  1  0
  9 10  1  0
  9  8  1  0
 10 12  1  0
 11 10  2  0
 12 16  1  0
 13 12  1  0
 13 14  1  0
 14 15  1  0
 16 15  1  0
 16 17  1  1
 17 19  1  0
 18 17  2  0
M  END
$$$$
