VGP.pdb
     RDKit          3D

 19 19  0  0  1  0  0  0  0  0999 V2000
   26.5652  -21.2998  -12.5792 C   0  0  0  0  0  0  0  0  0  0  0  0
   25.1737  -20.8647  -12.2632 C   0  0  1  0  0  0  0  0  0  0  0  0
   24.1607  -21.4852  -13.1539 C   0  0  0  0  0  0  0  0  0  0  0  0
   24.8557  -20.9674  -10.7765 C   0  0  2  0  0  0  0  0  0  0  0  0
   23.5287  -20.3829  -10.5335 N   0  0  0  0  0  0  0  0  0  0  0  0
   25.7918  -20.2048   -9.9300 C   0  0  0  0  0  0  0  0  0  0  0  0
   25.6069  -18.9782   -9.6670 O   0  0  0  0  0  0  0  0  0  0  0  0
   26.9791  -20.7840   -9.3379 N   0  0  0  0  0  0  0  0  0  0  0  0
   27.8003  -20.0182   -8.4614 C   0  0  0  0  0  0  0  0  0  0  0  0
   27.6986  -20.1649   -7.0364 C   0  0  0  0  0  0  0  0  0  0  0  0
   26.5027  -20.5746   -6.6585 O   0  0  0  0  0  0  0  0  0  0  0  0
   28.6424  -19.9478   -6.0036 N   0  0  0  0  0  0  0  0  0  0  0  0
   30.0294  -19.6418   -6.1270 C   0  0  0  0  0  0  0  0  0  0  0  0
   30.6386  -19.8516   -4.7144 C   0  0  0  0  0  0  0  0  0  0  0  0
   29.4611  -19.5381   -3.8319 C   0  0  0  0  0  0  0  0  0  0  0  0
   28.2976  -20.0741   -4.6083 C   0  0  1  0  0  0  0  0  0  0  0  0
   27.0759  -19.2866   -4.2561 C   0  0  0  0  0  0  0  0  0  0  0  0
   26.8101  -18.2575   -4.8964 O   0  0  0  0  0  0  0  0  0  0  0  0
   26.2686  -19.7054   -3.2385 O   0  0  0  0  0  0  0  0  0  0  0  0
  2  1  1  1
  3  2  1  0
  4  2  1  0
  4  5  1  6
  6  7  2  0
  6  4  1  0
  8  6  1  0
  9 10  1  0
  9  8  1  0
 10 12  1  0
 11 10  2  0
 12 16  1  0
 13 12  1  0
 13 14  1  0
 14 15  1  0
 16 15  1  0
 16 17  1  6
 17 19  1  0
 18 17  2  0
M  END
$$$$
