VGP.pdb
     RDKit          3D

 19 19  0  0  1  0  0  0  0  0999 V2000
   19.8579  -21.4993  -18.5559 C   0  0  0  0  0  0  0  0  0  0  0  0
   20.9644  -21.4493  -17.5565 C   0  0  1  0  0  0  0  0  0  0  0  0
   21.3799  -22.7964  -17.0904 C   0  0  0  0  0  0  0  0  0  0  0  0
   22.1128  -20.5537  -18.0047 C   0  0  2  0  0  0  0  0  0  0  0  0
   22.7186  -21.1284  -19.2147 N   0  0  0  0  0  0  0  0  0  0  0  0
   23.2007  -20.4670  -17.0130 C   0  0  0  0  0  0  0  0  0  0  0  0
   24.2284  -21.2066  -17.0825 O   0  0  0  0  0  0  0  0  0  0  0  0
   23.1864  -19.5449  -15.8970 N   0  0  0  0  0  0  0  0  0  0  0  0
   24.2626  -19.5181  -14.9642 C   0  0  0  0  0  0  0  0  0  0  0  0
   24.2271  -20.3168  -13.7712 C   0  0  0  0  0  0  0  0  0  0  0  0
   23.0581  -20.9027  -13.5946 O   0  0  0  0  0  0  0  0  0  0  0  0
   25.2107  -20.5695  -12.7846 N   0  0  0  0  0  0  0  0  0  0  0  0
   26.6063  -20.2834  -12.8377 C   0  0  0  0  0  0  0  0  0  0  0  0
   27.2468  -21.0701  -11.6623 C   0  0  0  0  0  0  0  0  0  0  0  0
   26.1125  -21.1070  -10.6746 C   0  0  0  0  0  0  0  0  0  0  0  0
   24.9021  -21.2429  -11.5465 C   0  0  1  0  0  0  0  0  0  0  0  0
   23.7303  -20.6297  -10.8481 C   0  0  0  0  0  0  0  0  0  0  0  0
   23.4342  -19.4475  -11.0808 O   0  0  0  0  0  0  0  0  0  0  0  0
   23.0013  -21.3728   -9.9655 O   0  0  0  0  0  0  0  0  0  0  0  0
  2  1  1  6
  3  2  1  0
  4  2  1  0
  4  5  1  6
  6  7  2  0
  6  4  1  0
  8  6  1  0
  9 10  1  0
  9  8  1  0
 10 12  1  0
 11 10  2  0
 12 16  1  0
 13 12  1  0
 13 14  1  0
 14 15  1  0
 16 15  1  0
 16 17  1  1
 17 19  1  0
 18 17  2  0
M  END
$$$$
