VGP.pdb
     RDKit          3D

 19 19  0  0  1  0  0  0  0  0999 V2000
   27.2840  -30.1394  -19.7528 C   0  0  0  0  0  0  0  0  0  0  0  0
   28.6847  -30.6222  -19.5780 C   0  0  1  0  0  0  0  0  0  0  0  0
   29.6403  -29.9620  -20.5029 C   0  0  0  0  0  0  0  0  0  0  0  0
   29.1199  -30.6278  -18.1178 C   0  0  2  0  0  0  0  0  0  0  0  0
   28.1442  -31.3998  -17.3346 N   0  0  0  0  0  0  0  0  0  0  0  0
   29.1440  -29.2820  -17.5155 C   0  0  0  0  0  0  0  0  0  0  0  0
   28.1889  -28.8533  -16.7999 O   0  0  0  0  0  0  0  0  0  0  0  0
   30.2422  -28.3546  -17.6873 N   0  0  0  0  0  0  0  0  0  0  0  0
   30.2407  -27.0964  -17.0195 C   0  0  0  0  0  0  0  0  0  0  0  0
   29.6222  -25.9446  -17.6140 C   0  0  0  0  0  0  0  0  0  0  0  0
   29.1638  -26.1912  -18.8263 O   0  0  0  0  0  0  0  0  0  0  0  0
   29.4310  -24.6290  -17.1267 N   0  0  0  0  0  0  0  0  0  0  0  0
   29.6501  -24.1374  -15.8066 C   0  0  0  0  0  0  0  0  0  0  0  0
   28.9624  -22.7465  -15.7511 C   0  0  0  0  0  0  0  0  0  0  0  0
   29.0763  -22.2998  -17.1832 C   0  0  0  0  0  0  0  0  0  0  0  0
   28.9029  -23.5720  -17.9547 C   0  0  1  0  0  0  0  0  0  0  0  0
   29.6346  -23.4546  -19.2538 C   0  0  0  0  0  0  0  0  0  0  0  0
   29.1128  -22.8317  -20.1915 O   0  0  0  0  0  0  0  0  0  0  0  0
   30.8637  -24.0309  -19.3949 O   0  0  0  0  0  0  0  0  0  0  0  0
  2  1  1  1
  3  2  1  0
  4  2  1  0
  4  5  1  1
  6  7  2  0
  6  4  1  0
  8  6  1  0
  9 10  1  0
  9  8  1  0
 10 12  1  0
 11 10  2  0
 12 16  1  0
 13 12  1  0
 13 14  1  0
 14 15  1  0
 16 15  1  0
 16 17  1  6
 17 19  1  0
 18 17  2  0
M  END
$$$$
