VGP.pdb
     RDKit          3D

 19 19  0  0  1  0  0  0  0  0999 V2000
   18.0237  -12.4671  -17.2278 C   0  0  0  0  0  0  0  0  0  0  0  0
   18.7619  -13.0411  -18.3903 C   0  0  1  0  0  0  0  0  0  0  0  0
   19.3458  -11.9990  -19.2723 C   0  0  0  0  0  0  0  0  0  0  0  0
   19.7360  -14.1374  -17.9769 C   0  0  2  0  0  0  0  0  0  0  0  0
   19.0065  -15.1544  -17.2054 N   0  0  0  0  0  0  0  0  0  0  0  0
   20.8097  -13.6536  -17.0895 C   0  0  0  0  0  0  0  0  0  0  0  0
   20.7484  -13.7911  -15.8304 O   0  0  0  0  0  0  0  0  0  0  0  0
   22.0036  -12.9937  -17.5742 N   0  0  0  0  0  0  0  0  0  0  0  0
   22.9930  -12.5233  -16.6638 C   0  0  0  0  0  0  0  0  0  0  0  0
   24.1614  -11.8328  -17.1336 C   0  0  0  0  0  0  0  0  0  0  0  0
   24.2725  -11.8719  -18.4477 O   0  0  0  0  0  0  0  0  0  0  0  0
   25.1815  -11.1395  -16.4383 N   0  0  0  0  0  0  0  0  0  0  0  0
   25.2609  -10.8550  -15.0436 C   0  0  0  0  0  0  0  0  0  0  0  0
   26.3837   -9.7938  -14.8893 C   0  0  0  0  0  0  0  0  0  0  0  0
   27.2772  -10.1334  -16.0511 C   0  0  0  0  0  0  0  0  0  0  0  0
   26.3111  -10.5517  -17.1167 C   0  0  1  0  0  0  0  0  0  0  0  0
   26.9879  -11.5232  -18.0304 C   0  0  0  0  0  0  0  0  0  0  0  0
   26.9496  -12.7349  -17.7658 O   0  0  0  0  0  0  0  0  0  0  0  0
   27.6383  -11.0700  -19.1413 O   0  0  0  0  0  0  0  0  0  0  0  0
  2  1  1  1
  3  2  1  0
  4  2  1  0
  4  5  1  1
  6  7  2  0
  6  4  1  0
  8  6  1  0
  9 10  1  0
  9  8  1  0
 10 12  1  0
 11 10  2  0
 12 16  1  0
 13 12  1  0
 13 14  1  0
 14 15  1  0
 16 15  1  0
 16 17  1  6
 17 19  1  0
 18 17  2  0
M  END
$$$$
