VGP.pdb
     RDKit          3D

 19 19  0  0  1  0  0  0  0  0999 V2000
   25.4381  -16.6384  -15.6419 C   0  0  0  0  0  0  0  0  0  0  0  0
   25.0749  -17.8797  -16.3855 C   0  0  1  0  0  0  0  0  0  0  0  0
   26.1035  -18.2761  -17.3802 C   0  0  0  0  0  0  0  0  0  0  0  0
   24.6263  -19.0028  -15.4585 C   0  0  2  0  0  0  0  0  0  0  0  0
   23.4230  -18.5682  -14.7341 N   0  0  0  0  0  0  0  0  0  0  0  0
   25.6226  -19.3311  -14.4221 C   0  0  0  0  0  0  0  0  0  0  0  0
   26.5759  -20.1374  -14.6436 O   0  0  0  0  0  0  0  0  0  0  0  0
   25.5962  -18.7684  -13.0885 N   0  0  0  0  0  0  0  0  0  0  0  0
   26.5787  -19.1378  -12.1255 C   0  0  0  0  0  0  0  0  0  0  0  0
   26.2548  -20.0208  -11.0402 C   0  0  0  0  0  0  0  0  0  0  0  0
   25.5593  -21.0693  -11.4372 O   0  0  0  0  0  0  0  0  0  0  0  0
   26.5504  -19.9512   -9.6572 N   0  0  0  0  0  0  0  0  0  0  0  0
   27.4098  -19.0340   -8.9845 C   0  0  0  0  0  0  0  0  0  0  0  0
   27.6308  -19.6215   -7.5644 C   0  0  0  0  0  0  0  0  0  0  0  0
   26.3435  -20.3694   -7.3471 C   0  0  0  0  0  0  0  0  0  0  0  0
   26.0215  -20.9020   -8.7096 C   0  0  1  0  0  0  0  0  0  0  0  0
   24.5388  -21.0548   -8.8322 C   0  0  0  0  0  0  0  0  0  0  0  0
   23.8797  -20.1639   -9.3902 O   0  0  0  0  0  0  0  0  0  0  0  0
   23.9276  -22.1677   -8.3316 O   0  0  0  0  0  0  0  0  0  0  0  0
  2  1  1  1
  3  2  1  0
  4  2  1  0
  4  5  1  1
  6  7  2  0
  6  4  1  0
  8  6  1  0
  9 10  1  0
  9  8  1  0
 10 12  1  0
 11 10  2  0
 12 16  1  0
 13 12  1  0
 13 14  1  0
 14 15  1  0
 16 15  1  0
 16 17  1  1
 17 19  1  0
 18 17  2  0
M  END
$$$$
