VGP.pdb
     RDKit          3D

 19 19  0  0  1  0  0  0  0  0999 V2000
   19.3753  -12.4007  -19.5144 C   0  0  0  0  0  0  0  0  0  0  0  0
   18.6128  -12.5866  -18.2456 C   0  0  1  0  0  0  0  0  0  0  0  0
   18.0285  -13.9457  -18.1196 C   0  0  0  0  0  0  0  0  0  0  0  0
   19.3938  -12.1186  -17.0238 C   0  0  2  0  0  0  0  0  0  0  0  0
   18.5164  -12.1841  -15.8459 N   0  0  0  0  0  0  0  0  0  0  0  0
   19.8331  -10.7143  -17.1202 C   0  0  0  0  0  0  0  0  0  0  0  0
   19.0034   -9.7562  -17.1603 O   0  0  0  0  0  0  0  0  0  0  0  0
   21.2248  -10.3195  -17.1748 N   0  0  0  0  0  0  0  0  0  0  0  0
   21.5849   -8.9575  -17.3853 C   0  0  0  0  0  0  0  0  0  0  0  0
   21.6177   -8.0243  -16.2942 C   0  0  0  0  0  0  0  0  0  0  0  0
   20.8018   -8.3677  -15.3159 O   0  0  0  0  0  0  0  0  0  0  0  0
   22.3590   -6.8331  -16.1036 N   0  0  0  0  0  0  0  0  0  0  0  0
   23.3565   -6.2703  -16.9525 C   0  0  0  0  0  0  0  0  0  0  0  0
   24.0671   -5.1783  -16.1079 C   0  0  0  0  0  0  0  0  0  0  0  0
   22.9602   -4.7480  -15.1842 C   0  0  0  0  0  0  0  0  0  0  0  0
   22.2199   -6.0227  -14.9180 C   0  0  1  0  0  0  0  0  0  0  0  0
   20.7902   -5.6998  -14.6205 C   0  0  0  0  0  0  0  0  0  0  0  0
   19.9883   -5.5697  -15.5583 O   0  0  0  0  0  0  0  0  0  0  0  0
   20.3831   -5.5519  -13.3263 O   0  0  0  0  0  0  0  0  0  0  0  0
  2  1  1  6
  3  2  1  0
  4  2  1  0
  4  5  1  1
  6  7  2  0
  6  4  1  0
  8  6  1  0
  9 10  1  0
  9  8  1  0
 10 12  1  0
 11 10  2  0
 12 16  1  0
 13 12  1  0
 13 14  1  0
 14 15  1  0
 16 15  1  0
 16 17  1  6
 17 19  1  0
 18 17  2  0
M  END
$$$$
