VGP.pdb
     RDKit          3D

 19 19  0  0  1  0  0  0  0  0999 V2000
   17.1343  -10.5528  -19.9271 C   0  0  0  0  0  0  0  0  0  0  0  0
   17.5239  -10.3319  -18.5041 C   0  0  1  0  0  0  0  0  0  0  0  0
   16.4804  -10.7768  -17.5462 C   0  0  0  0  0  0  0  0  0  0  0  0
   18.9244  -10.8483  -18.1977 C   0  0  2  0  0  0  0  0  0  0  0  0
   18.9314  -12.3119  -18.3359 N   0  0  0  0  0  0  0  0  0  0  0  0
   19.3532  -10.5733  -16.8139 C   0  0  0  0  0  0  0  0  0  0  0  0
   19.6130  -11.5076  -15.9969 O   0  0  0  0  0  0  0  0  0  0  0  0
   19.5117   -9.2360  -16.2825 N   0  0  0  0  0  0  0  0  0  0  0  0
   20.0021   -9.0339  -14.9605 C   0  0  0  0  0  0  0  0  0  0  0  0
   20.1319   -7.7122  -14.4141 C   0  0  0  0  0  0  0  0  0  0  0  0
   20.1536   -6.7825  -15.3500 O   0  0  0  0  0  0  0  0  0  0  0  0
   20.2378   -7.2586  -13.0770 N   0  0  0  0  0  0  0  0  0  0  0  0
   20.0645   -8.0069  -11.8760 C   0  0  0  0  0  0  0  0  0  0  0  0
   19.9514   -6.9600  -10.7351 C   0  0  0  0  0  0  0  0  0  0  0  0
   20.7818   -5.8311  -11.2824 C   0  0  0  0  0  0  0  0  0  0  0  0
   20.4977   -5.8770  -12.7524 C   0  0  1  0  0  0  0  0  0  0  0  0
   21.6803   -5.3371  -13.4917 C   0  0  0  0  0  0  0  0  0  0  0  0
   22.5878   -6.1105  -13.8351 O   0  0  0  0  0  0  0  0  0  0  0  0
   21.7500   -4.0050  -13.7803 O   0  0  0  0  0  0  0  0  0  0  0  0
  2  1  1  6
  3  2  1  0
  4  2  1  0
  4  5  1  1
  6  7  2  0
  6  4  1  0
  8  6  1  0
  9 10  1  0
  9  8  1  0
 10 12  1  0
 11 10  2  0
 12 16  1  0
 13 12  1  0
 13 14  1  0
 14 15  1  0
 16 15  1  0
 16 17  1  6
 17 19  1  0
 18 17  2  0
M  END
$$$$
