VGP.pdb
     RDKit          3D

 19 19  0  0  1  0  0  0  0  0999 V2000
   21.0461  -20.5529  -15.2857 C   0  0  0  0  0  0  0  0  0  0  0  0
   22.2232  -20.6971  -14.3805 C   0  0  1  0  0  0  0  0  0  0  0  0
   22.7300  -22.0910  -14.3135 C   0  0  0  0  0  0  0  0  0  0  0  0
   23.2947  -19.6472  -14.6481 C   0  0  2  0  0  0  0  0  0  0  0  0
   23.8518  -19.8691  -15.9904 N   0  0  0  0  0  0  0  0  0  0  0  0
   24.4367  -19.7356  -13.7194 C   0  0  0  0  0  0  0  0  0  0  0  0
   25.5271  -20.2906  -14.0526 O   0  0  0  0  0  0  0  0  0  0  0  0
   24.4086  -19.2037  -12.3733 N   0  0  0  0  0  0  0  0  0  0  0  0
   25.5233  -19.3733  -11.5027 C   0  0  0  0  0  0  0  0  0  0  0  0
   25.4185  -20.1734  -10.3147 C   0  0  0  0  0  0  0  0  0  0  0  0
   24.6003  -21.1967  -10.4698 O   0  0  0  0  0  0  0  0  0  0  0  0
   26.0303  -20.0466   -9.0442 N   0  0  0  0  0  0  0  0  0  0  0  0
   27.0087  -19.0970   -8.6278 C   0  0  0  0  0  0  0  0  0  0  0  0
   27.5677  -19.6257   -7.2792 C   0  0  0  0  0  0  0  0  0  0  0  0
   26.3804  -20.3737   -6.7366 C   0  0  0  0  0  0  0  0  0  0  0  0
   25.7553  -20.9626   -7.9639 C   0  0  1  0  0  0  0  0  0  0  0  0
   24.2882  -21.1310   -7.7273 C   0  0  0  0  0  0  0  0  0  0  0  0
   23.4971  -20.2978   -8.1957 O   0  0  0  0  0  0  0  0  0  0  0  0
   23.8355  -22.1947   -7.0019 O   0  0  0  0  0  0  0  0  0  0  0  0
  2  1  1  6
  3  2  1  0
  4  2  1  0
  4  5  1  6
  6  7  2  0
  6  4  1  0
  8  6  1  0
  9 10  1  0
  9  8  1  0
 10 12  1  0
 11 10  2  0
 12 16  1  0
 13 12  1  0
 13 14  1  0
 14 15  1  0
 16 15  1  0
 16 17  1  1
 17 19  1  0
 18 17  2  0
M  END
$$$$
