SSK.pdb
     RDKit          3D

 22 21  0  0  1  0  0  0  0  0999 V2000
    8.4356  -15.3970   15.2639 O   0  0  0  0  0  0  0  0  0  0  0  0
    8.2606  -15.5373   16.6217 C   0  0  0  0  0  0  0  0  0  0  0  0
    7.7300  -14.2987   17.2941 C   0  0  2  0  0  0  0  0  0  0  0  0
    7.9902  -13.1745   16.4526 N   0  0  0  0  0  0  0  0  0  0  0  0
    8.1860  -14.1304   18.6802 C   0  0  0  0  0  0  0  0  0  0  0  0
    9.2272  -13.4664   18.9192 O   0  0  0  0  0  0  0  0  0  0  0  0
    6.2781  -15.8763   22.0122 O   0  0  0  0  0  0  0  0  0  0  0  0
    6.9675  -14.6743   22.2062 C   0  0  0  0  0  0  0  0  0  0  0  0
    8.0233  -14.5836   21.1540 C   0  0  2  0  0  0  0  0  0  0  0  0
    7.5125  -14.6831   19.8130 N   0  0  0  0  0  0  0  0  0  0  0  0
    9.0570  -15.6163   21.4365 C   0  0  0  0  0  0  0  0  0  0  0  0
    9.0215  -16.6369   20.7535 O   0  0  0  0  0  0  0  0  0  0  0  0
   10.0241  -15.4315   22.4348 N   0  0  0  0  0  0  0  0  0  0  0  0
   11.0334  -16.3491   22.8341 C   0  0  1  0  0  0  0  0  0  0  0  0
   12.4236  -15.8677   22.6797 C   0  0  0  0  0  0  0  0  0  0  0  0
   13.5190  -16.8200   22.9887 C   0  0  0  0  0  0  0  0  0  0  0  0
   14.8980  -16.2223   22.8372 C   0  0  0  0  0  0  0  0  0  0  0  0
   15.9288  -17.2892   23.1776 C   0  0  0  0  0  0  0  0  0  0  0  0
   17.2692  -16.8609   22.8863 N   0  0  0  0  0  0  0  0  0  0  0  0
   10.7241  -16.9661   24.1613 C   0  0  0  0  0  0  0  0  0  0  0  0
    9.7545  -16.4670   25.0277 O   0  0  0  0  0  0  0  0  0  0  0  0
   11.3409  -17.9714   24.5419 O   0  0  0  0  0  0  0  0  0  0  0  0
  1  2  1  0
  2  3  1  0
  3  4  1  6
  5 10  1  0
  5  3  1  0
  6  5  2  0
  9  8  1  1
  8  7  1  0
  9 11  1  0
  9 10  1  0
 11 13  1  0
 12 11  2  0
 13 14  1  0
 14 20  1  0
 14 15  1  1
 16 15  1  0
 17 16  1  0
 18 17  1  0
 19 18  1  0
 20 21  1  0
 22 20  2  0
M  END
$$$$
