SSK.pdb
     RDKit          3D

 22 21  0  0  1  0  0  0  0  0999 V2000
    5.0486  -20.2499   20.3597 O   0  0  0  0  0  0  0  0  0  0  0  0
    5.2581  -20.2786   18.9999 C   0  0  0  0  0  0  0  0  0  0  0  0
    6.0188  -21.4907   18.5308 C   0  0  2  0  0  0  0  0  0  0  0  0
    5.1607  -22.6294   18.6140 N   0  0  0  0  0  0  0  0  0  0  0  0
    7.3204  -21.6695   19.1875 C   0  0  0  0  0  0  0  0  0  0  0  0
    7.4286  -22.4682   20.1530 O   0  0  0  0  0  0  0  0  0  0  0  0
   10.8122  -19.8451   17.8132 O   0  0  0  0  0  0  0  0  0  0  0  0
   10.9316  -21.1031   18.4138 C   0  0  0  0  0  0  0  0  0  0  0  0
    9.7991  -21.2546   19.3753 C   0  0  2  0  0  0  0  0  0  0  0  0
    8.5105  -20.9809   18.7978 N   0  0  0  0  0  0  0  0  0  0  0  0
   10.0733  -20.3986   20.5616 C   0  0  0  0  0  0  0  0  0  0  0  0
    9.5643  -19.2804   20.5672 O   0  0  0  0  0  0  0  0  0  0  0  0
   10.8743  -20.8486   21.6207 N   0  0  0  0  0  0  0  0  0  0  0  0
   11.2141  -20.1375   22.8036 C   0  0  1  0  0  0  0  0  0  0  0  0
   11.4546  -20.9754   23.9987 C   0  0  0  0  0  0  0  0  0  0  0  0
   10.3719  -21.8985   24.4201 C   0  0  0  0  0  0  0  0  0  0  0  0
   10.7509  -22.7796   25.5872 C   0  0  0  0  0  0  0  0  0  0  0  0
    9.6582  -23.8207   25.7837 C   0  0  0  0  0  0  0  0  0  0  0  0
   10.0069  -24.7906   26.7850 N   0  0  0  0  0  0  0  0  0  0  0  0
   12.2582  -19.0987   22.5420 C   0  0  0  0  0  0  0  0  0  0  0  0
   12.9369  -18.9867   21.3309 O   0  0  0  0  0  0  0  0  0  0  0  0
   12.5603  -18.2810   23.4228 O   0  0  0  0  0  0  0  0  0  0  0  0
  1  2  1  0
  2  3  1  0
  3  4  1  1
  5 10  1  0
  5  3  1  0
  6  5  2  0
  9  8  1  6
  8  7  1  0
  9 11  1  0
  9 10  1  0
 11 13  1  0
 12 11  2  0
 13 14  1  0
 14 20  1  0
 14 15  1  1
 16 15  1  0
 17 16  1  0
 18 17  1  0
 19 18  1  0
 20 21  1  0
 22 20  2  0
M  END
$$$$
