SSK.pdb
     RDKit          3D

 22 21  0  0  1  0  0  0  0  0999 V2000
   12.5902  -20.7553   15.5952 O   0  0  0  0  0  0  0  0  0  0  0  0
   11.7205  -19.7073   15.7931 C   0  0  0  0  0  0  0  0  0  0  0  0
   12.4010  -18.4225   16.1853 C   0  0  2  0  0  0  0  0  0  0  0  0
   13.1670  -17.9534   15.0750 N   0  0  0  0  0  0  0  0  0  0  0  0
   13.1548  -18.5064   17.4432 C   0  0  0  0  0  0  0  0  0  0  0  0
   12.5623  -18.8218   18.5069 O   0  0  0  0  0  0  0  0  0  0  0  0
   17.1120  -17.2711   17.8442 O   0  0  0  0  0  0  0  0  0  0  0  0
   16.7683  -18.3944   18.6043 C   0  0  0  0  0  0  0  0  0  0  0  0
   15.2857  -18.3829   18.7831 C   0  0  2  0  0  0  0  0  0  0  0  0
   14.5562  -18.2479   17.5508 N   0  0  0  0  0  0  0  0  0  0  0  0
   14.9391  -17.3132   19.7581 C   0  0  0  0  0  0  0  0  0  0  0  0
   14.7543  -16.1873   19.3025 O   0  0  0  0  0  0  0  0  0  0  0  0
   14.8294  -17.5796   21.1303 N   0  0  0  0  0  0  0  0  0  0  0  0
   14.4392  -16.6732   22.1532 C   0  0  1  0  0  0  0  0  0  0  0  0
   13.1194  -16.9400   22.7657 C   0  0  0  0  0  0  0  0  0  0  0  0
   12.6413  -15.9964   23.8065 C   0  0  0  0  0  0  0  0  0  0  0  0
   11.3484  -16.4243   24.4602 C   0  0  0  0  0  0  0  0  0  0  0  0
   10.9699  -15.3890   25.5097 C   0  0  0  0  0  0  0  0  0  0  0  0
    9.7804  -15.7548   26.2281 N   0  0  0  0  0  0  0  0  0  0  0  0
   15.5482  -16.4302   23.1273 C   0  0  0  0  0  0  0  0  0  0  0  0
   15.7000  -15.2367   23.8289 O   0  0  0  0  0  0  0  0  0  0  0  0
   16.3919  -17.3113   23.3460 O   0  0  0  0  0  0  0  0  0  0  0  0
  1  2  1  0
  2  3  1  0
  3  4  1  6
  5 10  1  0
  5  3  1  0
  6  5  2  0
  9  8  1  6
  8  7  1  0
  9 11  1  0
  9 10  1  0
 11 13  1  0
 12 11  2  0
 13 14  1  0
 14 20  1  0
 14 15  1  1
 16 15  1  0
 17 16  1  0
 18 17  1  0
 19 18  1  0
 20 21  1  0
 22 20  2  0
M  END
$$$$
