SSK.pdb
     RDKit          3D

 22 21  0  0  1  0  0  0  0  0999 V2000
    6.9940  -15.8932   19.7694 O   0  0  0  0  0  0  0  0  0  0  0  0
    8.2915  -16.2217   20.0897 C   0  0  0  0  0  0  0  0  0  0  0  0
    9.1240  -16.6250   18.9014 C   0  0  2  0  0  0  0  0  0  0  0  0
    8.5254  -17.7690   18.2909 N   0  0  0  0  0  0  0  0  0  0  0  0
   10.5536  -16.7819   19.2001 C   0  0  0  0  0  0  0  0  0  0  0  0
   11.0299  -17.9305   19.3898 O   0  0  0  0  0  0  0  0  0  0  0  0
   13.2848  -13.8016   18.5094 O   0  0  0  0  0  0  0  0  0  0  0  0
   13.7403  -15.1240   18.5466 C   0  0  0  0  0  0  0  0  0  0  0  0
   12.8823  -15.8708   19.5142 C   0  0  2  0  0  0  0  0  0  0  0  0
   11.4722  -15.6912   19.2940 N   0  0  0  0  0  0  0  0  0  0  0  0
   13.2862  -15.4853   20.8938 C   0  0  0  0  0  0  0  0  0  0  0  0
   12.9455  -14.3696   21.2793 O   0  0  0  0  0  0  0  0  0  0  0  0
   14.0203  -16.3551   21.7126 N   0  0  0  0  0  0  0  0  0  0  0  0
   14.5217  -16.0904   23.0159 C   0  0  1  0  0  0  0  0  0  0  0  0
   14.3809  -17.1987   23.9855 C   0  0  0  0  0  0  0  0  0  0  0  0
   13.0200  -17.4954   24.4973 C   0  0  0  0  0  0  0  0  0  0  0  0
   12.9600  -18.7245   25.3735 C   0  0  0  0  0  0  0  0  0  0  0  0
   11.5562  -18.8408   25.9502 C   0  0  0  0  0  0  0  0  0  0  0  0
   11.4385  -19.9346   26.8746 N   0  0  0  0  0  0  0  0  0  0  0  0
   15.8793  -15.4640   22.9680 C   0  0  0  0  0  0  0  0  0  0  0  0
   16.4015  -14.6935   24.0040 O   0  0  0  0  0  0  0  0  0  0  0  0
   16.6029  -15.6166   21.9734 O   0  0  0  0  0  0  0  0  0  0  0  0
  1  2  1  0
  2  3  1  0
  3  4  1  1
  5 10  1  0
  5  3  1  0
  6  5  2  0
  9  8  1  6
  8  7  1  0
  9 11  1  0
  9 10  1  0
 11 13  1  0
 12 11  2  0
 13 14  1  0
 14 20  1  0
 14 15  1  1
 16 15  1  0
 17 16  1  0
 18 17  1  0
 19 18  1  0
 20 21  1  0
 22 20  2  0
M  END
$$$$
