SSK.pdb
     RDKit          3D

 22 21  0  0  1  0  0  0  0  0999 V2000
    9.8859  -14.9119   16.3890 O   0  0  0  0  0  0  0  0  0  0  0  0
    9.7743  -14.5255   17.7051 C   0  0  0  0  0  0  0  0  0  0  0  0
    8.3769  -14.1289   18.1024 C   0  0  2  0  0  0  0  0  0  0  0  0
    8.0828  -12.8545   17.5287 N   0  0  0  0  0  0  0  0  0  0  0  0
    8.1208  -14.2118   19.5464 C   0  0  0  0  0  0  0  0  0  0  0  0
    8.3612  -13.2199   20.2814 O   0  0  0  0  0  0  0  0  0  0  0  0
    6.6160  -17.6383   21.7327 O   0  0  0  0  0  0  0  0  0  0  0  0
    6.0923  -16.3481   21.8695 C   0  0  0  0  0  0  0  0  0  0  0  0
    7.1914  -15.3805   21.5765 C   0  0  2  0  0  0  0  0  0  0  0  0
    7.6024  -15.3731   20.1981 N   0  0  0  0  0  0  0  0  0  0  0  0
    8.3258  -15.6666   22.4965 C   0  0  0  0  0  0  0  0  0  0  0  0
    9.2912  -16.2572   22.0184 O   0  0  0  0  0  0  0  0  0  0  0  0
    8.2923  -15.2800   23.8439 N   0  0  0  0  0  0  0  0  0  0  0  0
    9.2985  -15.4939   24.8246 C   0  0  1  0  0  0  0  0  0  0  0  0
    9.0529  -14.8508   26.1340 C   0  0  0  0  0  0  0  0  0  0  0  0
   10.0496  -15.0791   27.2095 C   0  0  0  0  0  0  0  0  0  0  0  0
    9.7098  -14.3799   28.5047 C   0  0  0  0  0  0  0  0  0  0  0  0
   10.8395  -14.6197   29.4960 C   0  0  0  0  0  0  0  0  0  0  0  0
   10.6588  -13.8790   30.7141 N   0  0  0  0  0  0  0  0  0  0  0  0
    9.7031  -16.9323   24.8952 C   0  0  0  0  0  0  0  0  0  0  0  0
    8.7927  -17.9849   24.8392 O   0  0  0  0  0  0  0  0  0  0  0  0
   10.8981  -17.2403   25.0096 O   0  0  0  0  0  0  0  0  0  0  0  0
  1  2  1  0
  2  3  1  0
  3  4  1  1
  5 10  1  0
  5  3  1  0
  6  5  2  0
  9  8  1  6
  8  7  1  0
  9 11  1  0
  9 10  1  0
 11 13  1  0
 12 11  2  0
 13 14  1  0
 14 20  1  0
 14 15  1  1
 16 15  1  0
 17 16  1  0
 18 17  1  0
 19 18  1  0
 20 21  1  0
 22 20  2  0
M  END
$$$$
