SSK.pdb
     RDKit          3D

 22 21  0  0  1  0  0  0  0  0999 V2000
    8.8358  -19.4949   19.2934 O   0  0  0  0  0  0  0  0  0  0  0  0
    8.4657  -18.2406   18.8647 C   0  0  0  0  0  0  0  0  0  0  0  0
    9.6032  -17.2544   18.8270 C   0  0  2  0  0  0  0  0  0  0  0  0
   10.4072  -17.5275   17.6787 N   0  0  0  0  0  0  0  0  0  0  0  0
   10.3592  -17.1671   20.0833 C   0  0  0  0  0  0  0  0  0  0  0  0
   11.5576  -17.5473   20.1190 O   0  0  0  0  0  0  0  0  0  0  0  0
    8.6080  -16.1388   23.7065 O   0  0  0  0  0  0  0  0  0  0  0  0
    9.9412  -15.7352   23.5742 C   0  0  0  0  0  0  0  0  0  0  0  0
   10.5721  -16.5944   22.5283 C   0  0  2  0  0  0  0  0  0  0  0  0
    9.8162  -16.6663   21.3066 N   0  0  0  0  0  0  0  0  0  0  0  0
   10.8187  -17.9405   23.1131 C   0  0  0  0  0  0  0  0  0  0  0  0
   10.0571  -18.8414   22.7701 O   0  0  0  0  0  0  0  0  0  0  0  0
   11.8704  -18.1676   24.0122 N   0  0  0  0  0  0  0  0  0  0  0  0
   12.1785  -19.3807   24.6857 C   0  0  1  0  0  0  0  0  0  0  0  0
   13.2931  -20.1613   24.1055 C   0  0  0  0  0  0  0  0  0  0  0  0
   13.6343  -21.4544   24.7485 C   0  0  0  0  0  0  0  0  0  0  0  0
   14.7407  -22.2044   24.0447 C   0  0  0  0  0  0  0  0  0  0  0  0
   15.0098  -23.4961   24.8034 C   0  0  0  0  0  0  0  0  0  0  0  0
   15.9856  -24.3193   24.1438 N   0  0  0  0  0  0  0  0  0  0  0  0
   12.2497  -19.1863   26.1672 C   0  0  0  0  0  0  0  0  0  0  0  0
   12.6020  -17.9775   26.7624 O   0  0  0  0  0  0  0  0  0  0  0  0
   11.9893  -20.1249   26.9336 O   0  0  0  0  0  0  0  0  0  0  0  0
  1  2  1  0
  2  3  1  0
  3  4  1  6
  5 10  1  0
  5  3  1  0
  6  5  2  0
  9  8  1  1
  8  7  1  0
  9 11  1  0
  9 10  1  0
 11 13  1  0
 12 11  2  0
 13 14  1  0
 14 20  1  0
 14 15  1  6
 16 15  1  0
 17 16  1  0
 18 17  1  0
 19 18  1  0
 20 21  1  0
 22 20  2  0
M  END
$$$$
