SSK.pdb
     RDKit          3D

 22 21  0  0  1  0  0  0  0  0999 V2000
    9.3272  -20.1109   17.8818 O   0  0  0  0  0  0  0  0  0  0  0  0
    8.7053  -19.2304   18.7373 C   0  0  0  0  0  0  0  0  0  0  0  0
    8.7267  -17.8034   18.2567 C   0  0  2  0  0  0  0  0  0  0  0  0
    9.4189  -17.7516   17.0086 N   0  0  0  0  0  0  0  0  0  0  0  0
    9.2163  -16.8445   19.2559 C   0  0  0  0  0  0  0  0  0  0  0  0
   10.4309  -16.5176   19.2655 O   0  0  0  0  0  0  0  0  0  0  0  0
    6.9410  -15.6719   22.5484 O   0  0  0  0  0  0  0  0  0  0  0  0
    7.8587  -14.7151   22.1012 C   0  0  0  0  0  0  0  0  0  0  0  0
    8.9112  -15.4291   21.3187 C   0  0  2  0  0  0  0  0  0  0  0  0
    8.3882  -16.2365   20.2493 N   0  0  0  0  0  0  0  0  0  0  0  0
    9.7409  -16.2238   22.2648 C   0  0  0  0  0  0  0  0  0  0  0  0
    9.4411  -17.4070   22.4052 O   0  0  0  0  0  0  0  0  0  0  0  0
   10.8128  -15.6480   22.9615 N   0  0  0  0  0  0  0  0  0  0  0  0
   11.7190  -16.3034   23.8387 C   0  0  1  0  0  0  0  0  0  0  0  0
   13.0986  -15.7697   23.8378 C   0  0  0  0  0  0  0  0  0  0  0  0
   14.2140  -16.7481   23.8658 C   0  0  0  0  0  0  0  0  0  0  0  0
   15.5805  -16.1062   23.8146 C   0  0  0  0  0  0  0  0  0  0  0  0
   16.6328  -17.2058   23.8105 C   0  0  0  0  0  0  0  0  0  0  0  0
   17.9472  -16.6977   23.5293 N   0  0  0  0  0  0  0  0  0  0  0  0
   11.1232  -16.5072   25.1956 C   0  0  0  0  0  0  0  0  0  0  0  0
    9.9529  -15.8809   25.6173 O   0  0  0  0  0  0  0  0  0  0  0  0
   11.6705  -17.2632   26.0111 O   0  0  0  0  0  0  0  0  0  0  0  0
  1  2  1  0
  2  3  1  0
  3  4  1  6
  5 10  1  0
  5  3  1  0
  6  5  2  0
  9  8  1  1
  8  7  1  0
  9 11  1  0
  9 10  1  0
 11 13  1  0
 12 11  2  0
 13 14  1  0
 14 20  1  0
 14 15  1  1
 16 15  1  0
 17 16  1  0
 18 17  1  0
 19 18  1  0
 20 21  1  0
 22 20  2  0
M  END
$$$$
