SSK.pdb
     RDKit          3D

 22 21  0  0  1  0  0  0  0  0999 V2000
   14.0776  -18.8813   20.4003 O   0  0  0  0  0  0  0  0  0  0  0  0
   13.4856  -18.5320   19.2081 C   0  0  0  0  0  0  0  0  0  0  0  0
   13.3117  -17.0466   19.0316 C   0  0  2  0  0  0  0  0  0  0  0  0
   14.6007  -16.4500   18.8822 N   0  0  0  0  0  0  0  0  0  0  0  0
   12.4737  -16.4175   20.0609 C   0  0  0  0  0  0  0  0  0  0  0  0
   12.9459  -15.4942   20.7727 O   0  0  0  0  0  0  0  0  0  0  0  0
    8.7082  -17.8618   21.1712 O   0  0  0  0  0  0  0  0  0  0  0  0
    8.8671  -16.4737   21.2467 C   0  0  0  0  0  0  0  0  0  0  0  0
   10.3288  -16.1916   21.3647 C   0  0  2  0  0  0  0  0  0  0  0  0
   11.1185  -16.7889   20.3213 N   0  0  0  0  0  0  0  0  0  0  0  0
   10.7802  -16.6137   22.7186 C   0  0  0  0  0  0  0  0  0  0  0  0
   11.4854  -17.6179   22.7793 O   0  0  0  0  0  0  0  0  0  0  0  0
   10.4168  -15.8984   23.8685 N   0  0  0  0  0  0  0  0  0  0  0  0
   10.7335  -16.2195   25.2164 C   0  0  1  0  0  0  0  0  0  0  0  0
   10.3153  -15.2173   26.2209 C   0  0  0  0  0  0  0  0  0  0  0  0
   10.6662  -15.4779   27.6390 C   0  0  0  0  0  0  0  0  0  0  0  0
   10.2075  -14.3914   28.5830 C   0  0  0  0  0  0  0  0  0  0  0  0
   10.6474  -14.7570   29.9934 C   0  0  0  0  0  0  0  0  0  0  0  0
   10.2696  -13.7586   30.9554 N   0  0  0  0  0  0  0  0  0  0  0  0
   10.3699  -17.6324   25.5469 C   0  0  0  0  0  0  0  0  0  0  0  0
   11.1862  -18.4751   26.2973 O   0  0  0  0  0  0  0  0  0  0  0  0
    9.2976  -18.1106   25.1501 O   0  0  0  0  0  0  0  0  0  0  0  0
  1  2  1  0
  2  3  1  0
  3  4  1  1
  5 10  1  0
  5  3  1  0
  6  5  2  0
  9  8  1  6
  8  7  1  0
  9 11  1  0
  9 10  1  0
 11 13  1  0
 12 11  2  0
 13 14  1  0
 14 20  1  0
 14 15  1  1
 16 15  1  0
 17 16  1  0
 18 17  1  0
 19 18  1  0
 20 21  1  0
 22 20  2  0
M  END
$$$$
