SSK.pdb
     RDKit          3D

 22 21  0  0  1  0  0  0  0  0999 V2000
    6.8986  -19.6017   19.5482 O   0  0  0  0  0  0  0  0  0  0  0  0
    6.1130  -18.5678   19.0926 C   0  0  0  0  0  0  0  0  0  0  0  0
    6.8931  -17.4591   18.4368 C   0  0  2  0  0  0  0  0  0  0  0  0
    7.4442  -17.9493   17.2139 N   0  0  0  0  0  0  0  0  0  0  0  0
    7.8722  -16.8142   19.3216 C   0  0  0  0  0  0  0  0  0  0  0  0
    9.0986  -17.0520   19.1751 O   0  0  0  0  0  0  0  0  0  0  0  0
    6.8041  -14.6419   22.7146 O   0  0  0  0  0  0  0  0  0  0  0  0
    7.9567  -14.1865   22.0651 C   0  0  0  0  0  0  0  0  0  0  0  0
    8.4942  -15.3177   21.2517 C   0  0  2  0  0  0  0  0  0  0  0  0
    7.5230  -15.9078   20.3698 N   0  0  0  0  0  0  0  0  0  0  0  0
    9.0902  -16.3192   22.1773 C   0  0  0  0  0  0  0  0  0  0  0  0
    8.4414  -17.3430   22.3778 O   0  0  0  0  0  0  0  0  0  0  0  0
   10.3327  -16.1027   22.7900 N   0  0  0  0  0  0  0  0  0  0  0  0
   11.0441  -17.0006   23.6314 C   0  0  1  0  0  0  0  0  0  0  0  0
   12.3323  -17.4878   23.0915 C   0  0  0  0  0  0  0  0  0  0  0  0
   13.0396  -18.5476   23.8523 C   0  0  0  0  0  0  0  0  0  0  0  0
   14.3272  -18.9982   23.2036 C   0  0  0  0  0  0  0  0  0  0  0  0
   14.9401  -20.0999   24.0563 C   0  0  0  0  0  0  0  0  0  0  0  0
   16.2148  -20.5306   23.5519 N   0  0  0  0  0  0  0  0  0  0  0  0
   11.0985  -16.5081   25.0428 C   0  0  0  0  0  0  0  0  0  0  0  0
   11.1415  -15.1571   25.3787 O   0  0  0  0  0  0  0  0  0  0  0  0
   11.1073  -17.3127   25.9854 O   0  0  0  0  0  0  0  0  0  0  0  0
  1  2  1  0
  2  3  1  0
  3  4  1  6
  5 10  1  0
  5  3  1  0
  6  5  2  0
  9  8  1  1
  8  7  1  0
  9 11  1  0
  9 10  1  0
 11 13  1  0
 12 11  2  0
 13 14  1  0
 14 20  1  0
 14 15  1  6
 16 15  1  0
 17 16  1  0
 18 17  1  0
 19 18  1  0
 20 21  1  0
 22 20  2  0
M  END
$$$$
