SSK.pdb
     RDKit          3D

 22 21  0  0  1  0  0  0  0  0999 V2000
   10.1411  -14.2477   16.7483 O   0  0  0  0  0  0  0  0  0  0  0  0
    9.9326  -14.1063   18.1012 C   0  0  0  0  0  0  0  0  0  0  0  0
    8.4911  -13.8743   18.4699 C   0  0  2  0  0  0  0  0  0  0  0  0
    8.0929  -12.5950   17.9754 N   0  0  0  0  0  0  0  0  0  0  0  0
    8.1976  -14.0865   19.8934 C   0  0  0  0  0  0  0  0  0  0  0  0
    8.3969  -13.1576   20.7177 O   0  0  0  0  0  0  0  0  0  0  0  0
    6.9073  -17.7482   21.5355 O   0  0  0  0  0  0  0  0  0  0  0  0
    6.3310  -16.5754   22.0354 C   0  0  0  0  0  0  0  0  0  0  0  0
    7.2988  -15.4619   21.8045 C   0  0  2  0  0  0  0  0  0  0  0  0
    7.6862  -15.3094   20.4276 N   0  0  0  0  0  0  0  0  0  0  0  0
    8.4726  -15.6682   22.6959 C   0  0  0  0  0  0  0  0  0  0  0  0
    9.5127  -16.0474   22.1632 O   0  0  0  0  0  0  0  0  0  0  0  0
    8.3932  -15.4402   24.0771 N   0  0  0  0  0  0  0  0  0  0  0  0
    9.4292  -15.6040   25.0362 C   0  0  1  0  0  0  0  0  0  0  0  0
    9.1572  -15.0198   26.3677 C   0  0  0  0  0  0  0  0  0  0  0  0
   10.2055  -15.1631   27.4083 C   0  0  0  0  0  0  0  0  0  0  0  0
    9.8606  -14.4785   28.7099 C   0  0  0  0  0  0  0  0  0  0  0  0
   11.0278  -14.6492   29.6716 C   0  0  0  0  0  0  0  0  0  0  0  0
   10.7789  -14.0267   30.9427 N   0  0  0  0  0  0  0  0  0  0  0  0
    9.9439  -17.0084   25.0576 C   0  0  0  0  0  0  0  0  0  0  0  0
   11.2995  -17.3238   25.1107 O   0  0  0  0  0  0  0  0  0  0  0  0
    9.1548  -17.9635   25.0277 O   0  0  0  0  0  0  0  0  0  0  0  0
  1  2  1  0
  2  3  1  0
  3  4  1  1
  5 10  1  0
  5  3  1  0
  6  5  2  0
  9  8  1  6
  8  7  1  0
  9 11  1  0
  9 10  1  0
 11 13  1  0
 12 11  2  0
 13 14  1  0
 14 20  1  0
 14 15  1  1
 16 15  1  0
 17 16  1  0
 18 17  1  0
 19 18  1  0
 20 21  1  0
 22 20  2  0
M  END
$$$$
