SSK.pdb
     RDKit          3D

 22 21  0  0  1  0  0  0  0  0999 V2000
    7.0909  -16.9597   20.3127 O   0  0  0  0  0  0  0  0  0  0  0  0
    6.4900  -15.7857   19.9198 C   0  0  0  0  0  0  0  0  0  0  0  0
    7.3385  -14.5640   20.1546 C   0  0  2  0  0  0  0  0  0  0  0  0
    8.2491  -14.4232   19.0634 N   0  0  0  0  0  0  0  0  0  0  0  0
    7.9752  -14.5249   21.4778 C   0  0  0  0  0  0  0  0  0  0  0  0
    9.1791  -14.8671   21.6021 O   0  0  0  0  0  0  0  0  0  0  0  0
    7.8458  -13.5239   26.2147 O   0  0  0  0  0  0  0  0  0  0  0  0
    7.0551  -13.6327   25.0656 C   0  0  0  0  0  0  0  0  0  0  0  0
    7.9177  -14.1723   23.9725 C   0  0  2  0  0  0  0  0  0  0  0  0
    7.3063  -14.1139   22.6718 N   0  0  0  0  0  0  0  0  0  0  0  0
    8.3255  -15.5564   24.3369 C   0  0  0  0  0  0  0  0  0  0  0  0
    7.5166  -16.4515   24.1044 O   0  0  0  0  0  0  0  0  0  0  0  0
    9.5734  -15.8241   24.9175 N   0  0  0  0  0  0  0  0  0  0  0  0
   10.0737  -17.0871   25.3354 C   0  0  1  0  0  0  0  0  0  0  0  0
   11.3333  -17.5146   24.6880 C   0  0  0  0  0  0  0  0  0  0  0  0
   11.8832  -18.8408   25.0632 C   0  0  0  0  0  0  0  0  0  0  0  0
   13.2112  -19.1489   24.4124 C   0  0  0  0  0  0  0  0  0  0  0  0
   13.6827  -20.5132   24.8950 C   0  0  0  0  0  0  0  0  0  0  0  0
   14.9950  -20.8373   24.4074 N   0  0  0  0  0  0  0  0  0  0  0  0
   10.0533  -17.2231   26.8249 C   0  0  0  0  0  0  0  0  0  0  0  0
    9.9800  -18.4509   27.4783 O   0  0  0  0  0  0  0  0  0  0  0  0
   10.1022  -16.2156   27.5450 O   0  0  0  0  0  0  0  0  0  0  0  0
  1  2  1  0
  2  3  1  0
  3  4  1  6
  5 10  1  0
  5  3  1  0
  6  5  2  0
  9  8  1  1
  8  7  1  0
  9 11  1  0
  9 10  1  0
 11 13  1  0
 12 11  2  0
 13 14  1  0
 14 20  1  0
 14 15  1  1
 16 15  1  0
 17 16  1  0
 18 17  1  0
 19 18  1  0
 20 21  1  0
 22 20  2  0
M  END
$$$$
