SSK.pdb
     RDKit          3D

 22 21  0  0  1  0  0  0  0  0999 V2000
    6.8194  -19.3330   19.4383 O   0  0  0  0  0  0  0  0  0  0  0  0
    6.0645  -18.4370   18.7164 C   0  0  0  0  0  0  0  0  0  0  0  0
    6.8540  -17.2681   18.1889 C   0  0  2  0  0  0  0  0  0  0  0  0
    7.5185  -17.6689   16.9899 N   0  0  0  0  0  0  0  0  0  0  0  0
    7.7354  -16.6450   19.1852 C   0  0  0  0  0  0  0  0  0  0  0  0
    8.9730  -16.8671   19.1504 O   0  0  0  0  0  0  0  0  0  0  0  0
    6.3903  -14.6296   22.6005 O   0  0  0  0  0  0  0  0  0  0  0  0
    7.5097  -14.0719   21.9731 C   0  0  0  0  0  0  0  0  0  0  0  0
    8.1599  -15.1484   21.1679 C   0  0  2  0  0  0  0  0  0  0  0  0
    7.2758  -15.7778   20.2238 N   0  0  0  0  0  0  0  0  0  0  0  0
    8.7692  -16.1315   22.1045 C   0  0  0  0  0  0  0  0  0  0  0  0
    8.1381  -17.1654   22.3100 O   0  0  0  0  0  0  0  0  0  0  0  0
   10.0043  -15.8877   22.7218 N   0  0  0  0  0  0  0  0  0  0  0  0
   10.6986  -16.7409   23.6219 C   0  0  1  0  0  0  0  0  0  0  0  0
   12.1421  -16.9109   23.3468 C   0  0  0  0  0  0  0  0  0  0  0  0
   12.7552  -18.2211   23.6778 C   0  0  0  0  0  0  0  0  0  0  0  0
   14.2300  -18.2944   23.3592 C   0  0  0  0  0  0  0  0  0  0  0  0
   14.7106  -19.7163   23.6119 C   0  0  0  0  0  0  0  0  0  0  0  0
   16.1230  -19.8591   23.3895 N   0  0  0  0  0  0  0  0  0  0  0  0
   10.3608  -16.4321   25.0461 C   0  0  0  0  0  0  0  0  0  0  0  0
   10.1522  -17.4143   26.0112 O   0  0  0  0  0  0  0  0  0  0  0  0
   10.2528  -15.2560   25.4217 O   0  0  0  0  0  0  0  0  0  0  0  0
  1  2  1  0
  2  3  1  0
  3  4  1  6
  5 10  1  0
  5  3  1  0
  6  5  2  0
  9  8  1  1
  8  7  1  0
  9 11  1  0
  9 10  1  0
 11 13  1  0
 12 11  2  0
 13 14  1  0
 14 20  1  0
 14 15  1  1
 16 15  1  0
 17 16  1  0
 18 17  1  0
 19 18  1  0
 20 21  1  0
 22 20  2  0
M  END
$$$$
