SSK.pdb
     RDKit          3D

 22 21  0  0  1  0  0  0  0  0999 V2000
    7.9042  -18.9406   18.9983 O   0  0  0  0  0  0  0  0  0  0  0  0
    7.0971  -17.9101   18.5733 C   0  0  0  0  0  0  0  0  0  0  0  0
    7.8383  -16.6216   18.3320 C   0  0  2  0  0  0  0  0  0  0  0  0
    8.6651  -16.7790   17.1781 N   0  0  0  0  0  0  0  0  0  0  0  0
    8.5458  -16.1099   19.5132 C   0  0  0  0  0  0  0  0  0  0  0  0
    9.7915  -16.2562   19.6075 O   0  0  0  0  0  0  0  0  0  0  0  0
    6.6210  -15.2032   23.0739 O   0  0  0  0  0  0  0  0  0  0  0  0
    7.7153  -14.3747   22.8023 C   0  0  0  0  0  0  0  0  0  0  0  0
    8.5832  -15.0816   21.8138 C   0  0  2  0  0  0  0  0  0  0  0  0
    7.9026  -15.4368   20.5974 N   0  0  0  0  0  0  0  0  0  0  0  0
    9.1874  -16.2660   22.4826 C   0  0  0  0  0  0  0  0  0  0  0  0
    9.1889  -17.3188   21.8494 O   0  0  0  0  0  0  0  0  0  0  0  0
    9.7284  -16.1821   23.7734 N   0  0  0  0  0  0  0  0  0  0  0  0
   10.8080  -16.9393   24.3037 C   0  0  1  0  0  0  0  0  0  0  0  0
   12.0370  -16.9517   23.4803 C   0  0  0  0  0  0  0  0  0  0  0  0
   13.1961  -17.7273   23.9872 C   0  0  0  0  0  0  0  0  0  0  0  0
   14.4146  -17.6405   23.0986 C   0  0  0  0  0  0  0  0  0  0  0  0
   15.5509  -18.4094   23.7576 C   0  0  0  0  0  0  0  0  0  0  0  0
   16.6965  -18.5266   22.8981 N   0  0  0  0  0  0  0  0  0  0  0  0
   11.0250  -16.6491   25.7550 C   0  0  0  0  0  0  0  0  0  0  0  0
   11.2580  -17.6404   26.7051 O   0  0  0  0  0  0  0  0  0  0  0  0
   11.0030  -15.4810   26.1686 O   0  0  0  0  0  0  0  0  0  0  0  0
  1  2  1  0
  2  3  1  0
  3  4  1  6
  5 10  1  0
  5  3  1  0
  6  5  2  0
  9  8  1  1
  8  7  1  0
  9 11  1  0
  9 10  1  0
 11 13  1  0
 12 11  2  0
 13 14  1  0
 14 20  1  0
 14 15  1  6
 16 15  1  0
 17 16  1  0
 18 17  1  0
 19 18  1  0
 20 21  1  0
 22 20  2  0
M  END
$$$$
