IYH.pdb
     RDKit          3D

 31 32  0  0  1  0  0  0  0  0999 V2000
    7.5834  -13.7611   20.9444 C   0  0  0  0  0  0  0  0  0  0  0  0
    8.2483  -14.4777   19.7770 C   0  0  0  0  0  0  0  0  0  0  0  0
    8.7281  -13.4973   18.7267 C   0  0  2  0  0  0  0  0  0  0  0  0
    7.5168  -12.7934   18.1766 C   0  0  0  0  0  0  0  0  0  0  0  0
    9.4720  -14.2898   17.6808 C   0  0  2  0  0  0  0  0  0  0  0  0
    8.5766  -15.3194   17.2016 N   0  0  0  0  0  0  0  0  0  0  0  0
   10.6877  -14.9384   18.2145 C   0  0  0  0  0  0  0  0  0  0  0  0
   10.7233  -16.1956   18.4174 O   0  0  0  0  0  0  0  0  0  0  0  0
   19.4098  -15.6045   19.9753 O   0  0  0  0  0  0  0  0  0  0  0  0
   18.1343  -15.1442   19.6829 C   0  0  0  0  0  0  0  0  0  0  0  0
   17.3805  -14.4341   20.5935 C   0  0  0  0  0  0  0  0  0  0  0  0
   16.1248  -13.9732   20.3249 C   0  0  0  0  0  0  0  0  0  0  0  0
   15.5405  -14.2025   19.1020 C   0  0  0  0  0  0  0  0  0  0  0  0
   14.1954  -13.7427   18.7319 C   0  0  0  0  0  0  0  0  0  0  0  0
   13.1068  -14.7141   18.9511 C   0  0  2  0  0  0  0  0  0  0  0  0
   11.8182  -14.1479   18.4999 N   0  0  0  0  0  0  0  0  0  0  0  0
   12.8916  -15.2858   20.2566 C   0  0  0  0  0  0  0  0  0  0  0  0
   11.9186  -14.8246   20.9616 O   0  0  0  0  0  0  0  0  0  0  0  0
   16.3048  -14.9235   18.1765 C   0  0  0  0  0  0  0  0  0  0  0  0
   17.5728  -15.3852   18.4570 C   0  0  0  0  0  0  0  0  0  0  0  0
   13.6115  -16.3218   20.9057 N   0  0  0  0  0  0  0  0  0  0  0  0
   13.1407  -16.9327   22.1493 C   0  0  1  0  0  0  0  0  0  0  0  0
   11.7739  -17.5461   21.9398 C   0  0  0  0  0  0  0  0  0  0  0  0
   11.2358  -18.2639   23.1049 C   0  0  0  0  0  0  0  0  0  0  0  0
   11.8974  -18.4422   24.2989 C   0  0  0  0  0  0  0  0  0  0  0  0
   11.0977  -19.1679   25.1192 N   0  0  0  0  0  0  0  0  0  0  0  0
    9.9570  -19.4445   24.4647 C   0  0  0  0  0  0  0  0  0  0  0  0
   10.0543  -18.8932   23.2514 N   0  0  0  0  0  0  0  0  0  0  0  0
   14.0802  -17.9783   22.5784 C   0  0  0  0  0  0  0  0  0  0  0  0
   15.2629  -18.2053   21.8688 O   0  0  0  0  0  0  0  0  0  0  0  0
   13.8453  -18.6856   23.5790 O   0  0  0  0  0  0  0  0  0  0  0  0
  2  3  1  0
  2  1  1  0
  3  4  1  6
  5  3  1  0
  5  6  1  1
  7  5  1  0
  7  8  2  0
  9 10  1  0
 10 11  2  0
 10 20  1  0
 11 12  1  0
 12 13  2  0
 13 14  1  0
 15 14  1  1
 15 16  1  0
 16  7  1  0
 17 15  1  0
 18 17  2  0
 19 13  1  0
 20 19  2  0
 21 17  1  0
 22 21  1  0
 22 29  1  0
 22 23  1  6
 24 23  1  0
 24 25  2  0
 26 25  1  0
 27 26  1  0
 28 27  2  0
 28 24  1  0
 29 31  2  0
 29 30  1  0
M  END
$$$$
