IYH.pdb
     RDKit          3D

 31 32  0  0  1  0  0  0  0  0999 V2000
    7.4291  -12.5301   18.3344 C   0  0  0  0  0  0  0  0  0  0  0  0
    7.4038  -13.7942   19.1827 C   0  0  0  0  0  0  0  0  0  0  0  0
    8.0070  -13.5546   20.5513 C   0  0  2  0  0  0  0  0  0  0  0  0
    9.4345  -13.1232   20.3482 C   0  0  0  0  0  0  0  0  0  0  0  0
    7.8877  -14.8437   21.3254 C   0  0  2  0  0  0  0  0  0  0  0  0
    6.5007  -15.2501   21.2759 N   0  0  0  0  0  0  0  0  0  0  0  0
    8.2818  -14.6967   22.7420 C   0  0  0  0  0  0  0  0  0  0  0  0
    8.1883  -13.5726   23.3340 O   0  0  0  0  0  0  0  0  0  0  0  0
    5.7879  -10.8566   27.1527 O   0  0  0  0  0  0  0  0  0  0  0  0
    6.4052  -12.0547   26.8244 C   0  0  0  0  0  0  0  0  0  0  0  0
    7.7670  -12.1530   26.6308 C   0  0  0  0  0  0  0  0  0  0  0  0
    8.3924  -13.3216   26.3075 C   0  0  0  0  0  0  0  0  0  0  0  0
    7.6732  -14.4833   26.1566 C   0  0  0  0  0  0  0  0  0  0  0  0
    8.2670  -15.7813   25.8098 C   0  0  0  0  0  0  0  0  0  0  0  0
    9.3411  -15.7414   24.7990 C   0  0  2  0  0  0  0  0  0  0  0  0
    8.7666  -15.8205   23.4395 N   0  0  0  0  0  0  0  0  0  0  0  0
   10.4340  -16.6792   24.8591 C   0  0  0  0  0  0  0  0  0  0  0  0
   10.9018  -16.9832   26.0190 O   0  0  0  0  0  0  0  0  0  0  0  0
    6.2904  -14.3848   26.3529 C   0  0  0  0  0  0  0  0  0  0  0  0
    5.6674  -13.1995   26.6793 C   0  0  0  0  0  0  0  0  0  0  0  0
   11.0942  -17.3480   23.7963 N   0  0  0  0  0  0  0  0  0  0  0  0
   12.1606  -18.3212   24.0350 C   0  0  1  0  0  0  0  0  0  0  0  0
   11.8577  -19.6109   23.3045 C   0  0  0  0  0  0  0  0  0  0  0  0
   10.5024  -20.1382   23.5221 C   0  0  0  0  0  0  0  0  0  0  0  0
    9.9674  -20.4632   24.7482 C   0  0  0  0  0  0  0  0  0  0  0  0
    8.7119  -20.9352   24.5481 N   0  0  0  0  0  0  0  0  0  0  0  0
    8.4544  -20.9115   23.2293 C   0  0  0  0  0  0  0  0  0  0  0  0
    9.5428  -20.4287   22.6231 N   0  0  0  0  0  0  0  0  0  0  0  0
   13.4425  -17.7839   23.5576 C   0  0  0  0  0  0  0  0  0  0  0  0
   14.0669  -16.7310   24.2326 O   0  0  0  0  0  0  0  0  0  0  0  0
   14.0001  -18.2502   22.5435 O   0  0  0  0  0  0  0  0  0  0  0  0
  2  3  1  0
  2  1  1  0
  3  4  1  6
  5  3  1  0
  5  6  1  1
  7  5  1  0
  7  8  2  0
  9 10  1  0
 10 11  2  0
 10 20  1  0
 11 12  1  0
 12 13  2  0
 13 14  1  0
 15 14  1  1
 15 16  1  0
 16  7  1  0
 17 15  1  0
 18 17  2  0
 19 13  1  0
 20 19  2  0
 21 17  1  0
 22 21  1  0
 22 29  1  0
 22 23  1  6
 24 23  1  0
 24 25  2  0
 26 25  1  0
 27 26  1  0
 28 27  2  0
 28 24  1  0
 29 31  2  0
 29 30  1  0
M  END
$$$$
