IYH.pdb
     RDKit          3D

 31 32  0  0  1  0  0  0  0  0999 V2000
    7.8046  -17.6853   16.5555 C   0  0  0  0  0  0  0  0  0  0  0  0
    7.4124  -16.3230   17.1110 C   0  0  0  0  0  0  0  0  0  0  0  0
    8.0249  -16.0845   18.4757 C   0  0  2  0  0  0  0  0  0  0  0  0
    7.6425  -17.2458   19.3534 C   0  0  0  0  0  0  0  0  0  0  0  0
    7.4932  -14.7665   18.9813 C   0  0  2  0  0  0  0  0  0  0  0  0
    7.8491  -13.7563   18.0096 N   0  0  0  0  0  0  0  0  0  0  0  0
    8.0684  -14.3828   20.2872 C   0  0  0  0  0  0  0  0  0  0  0  0
    9.3101  -14.1230   20.4044 O   0  0  0  0  0  0  0  0  0  0  0  0
    7.8467  -12.9700   29.1205 O   0  0  0  0  0  0  0  0  0  0  0  0
    7.5581  -13.0675   27.7671 C   0  0  0  0  0  0  0  0  0  0  0  0
    6.4758  -13.7791   27.2941 C   0  0  0  0  0  0  0  0  0  0  0  0
    6.1754  -13.8868   25.9676 C   0  0  0  0  0  0  0  0  0  0  0  0
    6.9596  -13.2742   25.0193 C   0  0  0  0  0  0  0  0  0  0  0  0
    6.7078  -13.3402   23.5736 C   0  0  0  0  0  0  0  0  0  0  0  0
    7.7244  -14.0582   22.7814 C   0  0  2  0  0  0  0  0  0  0  0  0
    7.2246  -14.3056   21.4126 N   0  0  0  0  0  0  0  0  0  0  0  0
    8.2853  -15.2950   23.2644 C   0  0  0  0  0  0  0  0  0  0  0  0
    7.5186  -16.3281   23.3027 O   0  0  0  0  0  0  0  0  0  0  0  0
    8.0589  -12.5514   25.4983 C   0  0  0  0  0  0  0  0  0  0  0  0
    8.3544  -12.4483   26.8406 C   0  0  0  0  0  0  0  0  0  0  0  0
    9.6041  -15.5595   23.7157 N   0  0  0  0  0  0  0  0  0  0  0  0
    9.9654  -16.8231   24.3593 C   0  0  1  0  0  0  0  0  0  0  0  0
   11.4078  -17.1645   24.0565 C   0  0  0  0  0  0  0  0  0  0  0  0
   11.6579  -17.6153   22.6793 C   0  0  0  0  0  0  0  0  0  0  0  0
   10.6874  -17.8134   21.7233 C   0  0  0  0  0  0  0  0  0  0  0  0
   11.2942  -18.2484   20.5911 N   0  0  0  0  0  0  0  0  0  0  0  0
   12.6161  -18.3254   20.8204 C   0  0  0  0  0  0  0  0  0  0  0  0
   12.8208  -17.9407   22.0835 N   0  0  0  0  0  0  0  0  0  0  0  0
    9.7896  -16.7103   25.8140 C   0  0  0  0  0  0  0  0  0  0  0  0
   10.1908  -15.5547   26.4905 O   0  0  0  0  0  0  0  0  0  0  0  0
    9.2829  -17.6383   26.4766 O   0  0  0  0  0  0  0  0  0  0  0  0
  2  3  1  0
  2  1  1  0
  3  4  1  1
  5  3  1  0
  5  6  1  6
  7  5  1  0
  7  8  2  0
  9 10  1  0
 10 11  2  0
 10 20  1  0
 11 12  1  0
 12 13  2  0
 13 14  1  0
 15 14  1  1
 15 16  1  0
 16  7  1  0
 17 15  1  0
 18 17  2  0
 19 13  1  0
 20 19  2  0
 21 17  1  0
 22 21  1  0
 22 29  1  0
 22 23  1  1
 24 23  1  0
 24 25  2  0
 26 25  1  0
 27 26  1  0
 28 27  2  0
 28 24  1  0
 29 31  2  0
 29 30  1  0
M  END
$$$$
