IYH.pdb
     RDKit          3D

 31 32  0  0  1  0  0  0  0  0999 V2000
    8.2451  -11.9646   20.0190 C   0  0  0  0  0  0  0  0  0  0  0  0
    7.6004  -13.1569   20.7127 C   0  0  0  0  0  0  0  0  0  0  0  0
    8.2538  -14.4587   20.2973 C   0  0  2  0  0  0  0  0  0  0  0  0
    8.0207  -14.6320   18.8205 C   0  0  0  0  0  0  0  0  0  0  0  0
    7.6302  -15.5564   21.1228 C   0  0  2  0  0  0  0  0  0  0  0  0
    6.2234  -15.6003   20.7904 N   0  0  0  0  0  0  0  0  0  0  0  0
    7.7604  -15.3212   22.5758 C   0  0  0  0  0  0  0  0  0  0  0  0
    7.1836  -14.3311   23.1327 O   0  0  0  0  0  0  0  0  0  0  0  0
    6.1282  -10.6527   27.0571 O   0  0  0  0  0  0  0  0  0  0  0  0
    6.4083  -11.9511   26.6569 C   0  0  0  0  0  0  0  0  0  0  0  0
    5.4269  -12.8146   26.2177 C   0  0  0  0  0  0  0  0  0  0  0  0
    5.6822  -14.0945   25.8202 C   0  0  0  0  0  0  0  0  0  0  0  0
    6.9631  -14.5926   25.8408 C   0  0  0  0  0  0  0  0  0  0  0  0
    7.3239  -15.9563   25.4311 C   0  0  0  0  0  0  0  0  0  0  0  0
    8.6572  -16.1060   24.8174 C   0  0  2  0  0  0  0  0  0  0  0  0
    8.5348  -16.2091   23.3481 N   0  0  0  0  0  0  0  0  0  0  0  0
    9.5450  -17.1561   25.2496 C   0  0  0  0  0  0  0  0  0  0  0  0
    9.6942  -17.3337   26.5156 O   0  0  0  0  0  0  0  0  0  0  0  0
    7.9606  -13.7169   26.2866 C   0  0  0  0  0  0  0  0  0  0  0  0
    7.6929  -12.4253   26.6862 C   0  0  0  0  0  0  0  0  0  0  0  0
   10.3038  -18.0615   24.4639 N   0  0  0  0  0  0  0  0  0  0  0  0
   11.7611  -18.1458   24.5669 C   0  0  1  0  0  0  0  0  0  0  0  0
   12.4015  -17.0199   23.7853 C   0  0  0  0  0  0  0  0  0  0  0  0
   12.1988  -17.0872   22.3304 C   0  0  0  0  0  0  0  0  0  0  0  0
   11.5178  -18.0861   21.6720 C   0  0  0  0  0  0  0  0  0  0  0  0
   11.5597  -17.8189   20.3430 N   0  0  0  0  0  0  0  0  0  0  0  0
   12.2493  -16.6801   20.1602 C   0  0  0  0  0  0  0  0  0  0  0  0
   12.6285  -16.2501   21.3672 N   0  0  0  0  0  0  0  0  0  0  0  0
   12.1681  -18.0499   25.9758 C   0  0  0  0  0  0  0  0  0  0  0  0
   11.6692  -18.9497   26.9221 O   0  0  0  0  0  0  0  0  0  0  0  0
   12.9622  -17.1673   26.3594 O   0  0  0  0  0  0  0  0  0  0  0  0
  2  3  1  0
  2  1  1  0
  3  4  1  6
  5  3  1  0
  5  6  1  6
  7  5  1  0
  7  8  2  0
  9 10  1  0
 10 11  2  0
 10 20  1  0
 11 12  1  0
 12 13  2  0
 13 14  1  0
 15 14  1  1
 15 16  1  0
 16  7  1  0
 17 15  1  0
 18 17  2  0
 19 13  1  0
 20 19  2  0
 21 17  1  0
 22 21  1  0
 22 29  1  0
 22 23  1  6
 24 23  1  0
 24 25  2  0
 26 25  1  0
 27 26  1  0
 28 27  2  0
 28 24  1  0
 29 31  2  0
 29 30  1  0
M  END
$$$$
