IYH.pdb
     RDKit          3D

 31 32  0  0  1  0  0  0  0  0999 V2000
    5.9492  -23.8454   25.6125 C   0  0  0  0  0  0  0  0  0  0  0  0
    5.2725  -22.9010   24.6285 C   0  0  0  0  0  0  0  0  0  0  0  0
    6.1835  -21.7521   24.2482 C   0  0  2  0  0  0  0  0  0  0  0  0
    6.6016  -21.0649   25.5203 C   0  0  0  0  0  0  0  0  0  0  0  0
    5.4051  -20.8506   23.3225 C   0  0  2  0  0  0  0  0  0  0  0  0
    4.8622  -21.6792   22.2689 N   0  0  0  0  0  0  0  0  0  0  0  0
    6.2456  -19.8025   22.7072 C   0  0  0  0  0  0  0  0  0  0  0  0
    7.0462  -20.0803   21.7559 O   0  0  0  0  0  0  0  0  0  0  0  0
    8.7643  -11.7867   19.9664 O   0  0  0  0  0  0  0  0  0  0  0  0
    8.1221  -12.8658   20.5559 C   0  0  0  0  0  0  0  0  0  0  0  0
    7.5583  -13.8825   19.8142 C   0  0  0  0  0  0  0  0  0  0  0  0
    6.9227  -14.9515   20.3751 C   0  0  0  0  0  0  0  0  0  0  0  0
    6.8137  -15.0649   21.7406 C   0  0  0  0  0  0  0  0  0  0  0  0
    6.1465  -16.1807   22.4245 C   0  0  0  0  0  0  0  0  0  0  0  0
    6.9817  -17.3733   22.6631 C   0  0  2  0  0  0  0  0  0  0  0  0
    6.1539  -18.4807   23.1856 N   0  0  0  0  0  0  0  0  0  0  0  0
    8.1567  -17.2862   23.4933 C   0  0  0  0  0  0  0  0  0  0  0  0
    8.1439  -17.9082   24.6200 O   0  0  0  0  0  0  0  0  0  0  0  0
    7.3856  -14.0332   22.4949 C   0  0  0  0  0  0  0  0  0  0  0  0
    8.0258  -12.9570   21.9192 C   0  0  0  0  0  0  0  0  0  0  0  0
    9.3732  -16.5989   23.2470 N   0  0  0  0  0  0  0  0  0  0  0  0
   10.6771  -17.2251   23.4683 C   0  0  1  0  0  0  0  0  0  0  0  0
   10.8010  -18.4751   22.6251 C   0  0  0  0  0  0  0  0  0  0  0  0
   10.5998  -19.7343   23.3574 C   0  0  0  0  0  0  0  0  0  0  0  0
   10.3714  -19.8342   24.7112 C   0  0  0  0  0  0  0  0  0  0  0  0
   10.2589  -21.1492   25.0234 N   0  0  0  0  0  0  0  0  0  0  0  0
   10.4118  -21.8675   23.8979 C   0  0  0  0  0  0  0  0  0  0  0  0
   10.6166  -21.0012   22.9014 N   0  0  0  0  0  0  0  0  0  0  0  0
   11.7490  -16.2876   23.1048 C   0  0  0  0  0  0  0  0  0  0  0  0
   12.9843  -16.3335   23.7574 O   0  0  0  0  0  0  0  0  0  0  0  0
   11.5827  -15.4321   22.2119 O   0  0  0  0  0  0  0  0  0  0  0  0
  2  3  1  0
  2  1  1  0
  3  4  1  1
  5  3  1  0
  5  6  1  6
  7  5  1  0
  7  8  2  0
  9 10  1  0
 10 11  2  0
 10 20  1  0
 11 12  1  0
 12 13  2  0
 13 14  1  0
 15 14  1  1
 15 16  1  0
 16  7  1  0
 17 15  1  0
 18 17  2  0
 19 13  1  0
 20 19  2  0
 21 17  1  0
 22 21  1  0
 22 29  1  0
 22 23  1  6
 24 23  1  0
 24 25  2  0
 26 25  1  0
 27 26  1  0
 28 27  2  0
 28 24  1  0
 29 31  2  0
 29 30  1  0
M  END
$$$$
