IYH.pdb
     RDKit          3D

 31 32  0  0  1  0  0  0  0  0999 V2000
    9.3977  -20.5827   18.7738 C   0  0  0  0  0  0  0  0  0  0  0  0
    9.2694  -19.0684   18.6808 C   0  0  0  0  0  0  0  0  0  0  0  0
    9.4604  -18.4127   20.0327 C   0  0  2  0  0  0  0  0  0  0  0  0
    8.4815  -19.0445   20.9854 C   0  0  0  0  0  0  0  0  0  0  0  0
    9.2299  -16.9332   19.8497 C   0  0  2  0  0  0  0  0  0  0  0  0
   10.1698  -16.4701   18.8529 N   0  0  0  0  0  0  0  0  0  0  0  0
    9.4488  -16.1639   21.0921 C   0  0  0  0  0  0  0  0  0  0  0  0
   10.6263  -15.8843   21.4899 O   0  0  0  0  0  0  0  0  0  0  0  0
    6.7131  -11.5395   28.2878 O   0  0  0  0  0  0  0  0  0  0  0  0
    6.8498  -12.1561   27.0527 C   0  0  0  0  0  0  0  0  0  0  0  0
    7.6332  -11.6279   26.0482 C   0  0  0  0  0  0  0  0  0  0  0  0
    7.7802  -12.2190   24.8274 C   0  0  0  0  0  0  0  0  0  0  0  0
    7.1367  -13.3986   24.5376 C   0  0  0  0  0  0  0  0  0  0  0  0
    7.2402  -14.0995   23.2508 C   0  0  0  0  0  0  0  0  0  0  0  0
    8.4494  -14.9252   23.0700 C   0  0  2  0  0  0  0  0  0  0  0  0
    8.3341  -15.7379   21.8408 N   0  0  0  0  0  0  0  0  0  0  0  0
    8.8989  -15.8003   24.1234 C   0  0  0  0  0  0  0  0  0  0  0  0
    8.2041  -16.8566   24.3646 O   0  0  0  0  0  0  0  0  0  0  0  0
    6.3410  -13.9360   25.5567 C   0  0  0  0  0  0  0  0  0  0  0  0
    6.1985  -13.3314   26.7871 C   0  0  0  0  0  0  0  0  0  0  0  0
   10.0357  -15.6740   24.9628 N   0  0  0  0  0  0  0  0  0  0  0  0
   10.3309  -16.6414   26.0204 C   0  0  1  0  0  0  0  0  0  0  0  0
   11.7433  -17.1613   25.8672 C   0  0  0  0  0  0  0  0  0  0  0  0
   11.9147  -18.1791   24.8198 C   0  0  0  0  0  0  0  0  0  0  0  0
   10.8979  -18.7097   24.0585 C   0  0  0  0  0  0  0  0  0  0  0  0
   11.4358  -19.6299   23.2200 N   0  0  0  0  0  0  0  0  0  0  0  0
   12.7601  -19.6838   23.4417 C   0  0  0  0  0  0  0  0  0  0  0  0
   13.0347  -18.8037   24.4089 N   0  0  0  0  0  0  0  0  0  0  0  0
   10.1905  -16.0010   27.3358 C   0  0  0  0  0  0  0  0  0  0  0  0
   10.1940  -16.7691   28.5037 O   0  0  0  0  0  0  0  0  0  0  0  0
   10.0637  -14.7643   27.4410 O   0  0  0  0  0  0  0  0  0  0  0  0
  2  3  1  0
  2  1  1  0
  3  4  1  1
  5  3  1  0
  5  6  1  6
  7  5  1  0
  7  8  2  0
  9 10  1  0
 10 11  2  0
 10 20  1  0
 11 12  1  0
 12 13  2  0
 13 14  1  0
 15 14  1  1
 15 16  1  0
 16  7  1  0
 17 15  1  0
 18 17  2  0
 19 13  1  0
 20 19  2  0
 21 17  1  0
 22 21  1  0
 22 29  1  0
 22 23  1  6
 24 23  1  0
 24 25  2  0
 26 25  1  0
 27 26  1  0
 28 27  2  0
 28 24  1  0
 29 31  2  0
 29 30  1  0
M  END
$$$$
