IYH.pdb
     RDKit          3D

 31 32  0  0  1  0  0  0  0  0999 V2000
    6.6759  -16.8486   17.5298 C   0  0  0  0  0  0  0  0  0  0  0  0
    6.7549  -15.5011   18.2343 C   0  0  0  0  0  0  0  0  0  0  0  0
    7.5987  -15.5814   19.4896 C   0  0  2  0  0  0  0  0  0  0  0  0
    7.1143  -16.7627   20.2866 C   0  0  0  0  0  0  0  0  0  0  0  0
    7.4373  -14.2729   20.2224 C   0  0  2  0  0  0  0  0  0  0  0  0
    7.8353  -13.2187   19.3160 N   0  0  0  0  0  0  0  0  0  0  0  0
    8.2788  -14.1904   21.4343 C   0  0  0  0  0  0  0  0  0  0  0  0
    9.5395  -14.0298   21.3459 O   0  0  0  0  0  0  0  0  0  0  0  0
    9.7072  -14.2764   30.2964 O   0  0  0  0  0  0  0  0  0  0  0  0
    9.2163  -14.1155   29.0089 C   0  0  0  0  0  0  0  0  0  0  0  0
    9.7187  -13.1681   28.1420 C   0  0  0  0  0  0  0  0  0  0  0  0
    9.2495  -12.9945   26.8727 C   0  0  0  0  0  0  0  0  0  0  0  0
    8.2282  -13.7773   26.3896 C   0  0  0  0  0  0  0  0  0  0  0  0
    7.6648  -13.6560   25.0384 C   0  0  0  0  0  0  0  0  0  0  0  0
    8.4349  -14.3132   23.9652 C   0  0  2  0  0  0  0  0  0  0  0  0
    7.6700  -14.2915   22.7006 N   0  0  0  0  0  0  0  0  0  0  0  0
    8.9347  -15.6535   24.1423 C   0  0  0  0  0  0  0  0  0  0  0  0
    8.1132  -16.6290   23.9689 O   0  0  0  0  0  0  0  0  0  0  0  0
    7.7171  -14.7397   27.2689 C   0  0  0  0  0  0  0  0  0  0  0  0
    8.1977  -14.9077   28.5497 C   0  0  0  0  0  0  0  0  0  0  0  0
   10.2440  -16.0784   24.4860 N   0  0  0  0  0  0  0  0  0  0  0  0
   10.5706  -17.4883   24.7028 C   0  0  1  0  0  0  0  0  0  0  0  0
   11.8353  -17.8478   23.9545 C   0  0  0  0  0  0  0  0  0  0  0  0
   11.6735  -17.9787   22.4988 C   0  0  0  0  0  0  0  0  0  0  0  0
   10.4677  -17.9865   21.8346 C   0  0  0  0  0  0  0  0  0  0  0  0
   10.7171  -18.1469   20.5112 N   0  0  0  0  0  0  0  0  0  0  0  0
   12.0465  -18.2390   20.3376 C   0  0  0  0  0  0  0  0  0  0  0  0
   12.6104  -18.1360   21.5446 N   0  0  0  0  0  0  0  0  0  0  0  0
   10.7685  -17.7397   26.1372 C   0  0  0  0  0  0  0  0  0  0  0  0
   11.0484  -19.0286   26.6004 O   0  0  0  0  0  0  0  0  0  0  0  0
   10.6901  -16.8150   26.9712 O   0  0  0  0  0  0  0  0  0  0  0  0
  2  3  1  0
  2  1  1  0
  3  4  1  1
  5  3  1  0
  5  6  1  6
  7  5  1  0
  7  8  2  0
  9 10  1  0
 10 11  2  0
 10 20  1  0
 11 12  1  0
 12 13  2  0
 13 14  1  0
 15 14  1  1
 15 16  1  0
 16  7  1  0
 17 15  1  0
 18 17  2  0
 19 13  1  0
 20 19  2  0
 21 17  1  0
 22 21  1  0
 22 29  1  0
 22 23  1  6
 24 23  1  0
 24 25  2  0
 26 25  1  0
 27 26  1  0
 28 27  2  0
 28 24  1  0
 29 31  2  0
 29 30  1  0
M  END
$$$$
