IYH.pdb
     RDKit          3D

 31 32  0  0  1  0  0  0  0  0999 V2000
    7.7678  -19.5707   17.8568 C   0  0  0  0  0  0  0  0  0  0  0  0
    8.4035  -18.2006   18.0495 C   0  0  0  0  0  0  0  0  0  0  0  0
    8.4886  -17.8313   19.5161 C   0  0  2  0  0  0  0  0  0  0  0  0
    7.1122  -17.9890   20.1039 C   0  0  0  0  0  0  0  0  0  0  0  0
    9.0008  -16.4145   19.5923 C   0  0  2  0  0  0  0  0  0  0  0  0
   10.2502  -16.3676   18.8655 N   0  0  0  0  0  0  0  0  0  0  0  0
    9.2499  -15.9721   20.9800 C   0  0  0  0  0  0  0  0  0  0  0  0
   10.3755  -16.1775   21.5402 O   0  0  0  0  0  0  0  0  0  0  0  0
    7.1526  -11.9075   28.7011 O   0  0  0  0  0  0  0  0  0  0  0  0
    7.2043  -12.3636   27.3920 C   0  0  0  0  0  0  0  0  0  0  0  0
    8.0695  -11.8307   26.4598 C   0  0  0  0  0  0  0  0  0  0  0  0
    8.1352  -12.2655   25.1683 C   0  0  0  0  0  0  0  0  0  0  0  0
    7.3201  -13.2809   24.7280 C   0  0  0  0  0  0  0  0  0  0  0  0
    7.3265  -13.8073   23.3567 C   0  0  0  0  0  0  0  0  0  0  0  0
    8.3986  -14.7732   23.0495 C   0  0  2  0  0  0  0  0  0  0  0  0
    8.2229  -15.3149   21.6856 N   0  0  0  0  0  0  0  0  0  0  0  0
    8.6476  -15.8895   23.9267 C   0  0  0  0  0  0  0  0  0  0  0  0
    7.7419  -16.7999   24.0126 O   0  0  0  0  0  0  0  0  0  0  0  0
    6.4411  -13.8229   25.6736 C   0  0  0  0  0  0  0  0  0  0  0  0
    6.3819  -13.3770   26.9764 C   0  0  0  0  0  0  0  0  0  0  0  0
    9.7831  -16.1511   24.7360 N   0  0  0  0  0  0  0  0  0  0  0  0
    9.8202  -17.2650   25.6844 C   0  0  1  0  0  0  0  0  0  0  0  0
   11.0060  -18.1568   25.3895 C   0  0  0  0  0  0  0  0  0  0  0  0
   10.8506  -19.0171   24.2071 C   0  0  0  0  0  0  0  0  0  0  0  0
    9.7343  -19.7685   23.9169 C   0  0  0  0  0  0  0  0  0  0  0  0
    9.9691  -20.4436   22.7643 N   0  0  0  0  0  0  0  0  0  0  0  0
   11.2024  -20.1303   22.3323 C   0  0  0  0  0  0  0  0  0  0  0  0
   11.7222  -19.2694   23.2121 N   0  0  0  0  0  0  0  0  0  0  0  0
    9.9316  -16.7489   27.0560 C   0  0  0  0  0  0  0  0  0  0  0  0
    9.9416  -17.6244   28.1457 O   0  0  0  0  0  0  0  0  0  0  0  0
   10.0174  -15.5244   27.2797 O   0  0  0  0  0  0  0  0  0  0  0  0
  2  3  1  0
  2  1  1  0
  3  4  1  6
  5  3  1  0
  5  6  1  6
  7  5  1  0
  7  8  2  0
  9 10  1  0
 10 11  2  0
 10 20  1  0
 11 12  1  0
 12 13  2  0
 13 14  1  0
 15 14  1  1
 15 16  1  0
 16  7  1  0
 17 15  1  0
 18 17  2  0
 19 13  1  0
 20 19  2  0
 21 17  1  0
 22 21  1  0
 22 29  1  0
 22 23  1  6
 24 23  1  0
 24 25  2  0
 26 25  1  0
 27 26  1  0
 28 27  2  0
 28 24  1  0
 29 31  2  0
 29 30  1  0
M  END
$$$$
