IYH.pdb
     RDKit          3D

 31 32  0  0  1  0  0  0  0  0999 V2000
    7.7076  -17.5767   17.4506 C   0  0  0  0  0  0  0  0  0  0  0  0
    7.4124  -16.3607   18.3180 C   0  0  0  0  0  0  0  0  0  0  0  0
    8.1161  -16.4515   19.6563 C   0  0  2  0  0  0  0  0  0  0  0  0
    7.8289  -17.8138   20.2280 C   0  0  0  0  0  0  0  0  0  0  0  0
    7.5885  -15.3305   20.5168 C   0  0  2  0  0  0  0  0  0  0  0  0
    7.8629  -14.0901   19.8258 N   0  0  0  0  0  0  0  0  0  0  0  0
    8.2342  -15.2789   21.8449 C   0  0  0  0  0  0  0  0  0  0  0  0
    9.4082  -14.8041   21.9838 O   0  0  0  0  0  0  0  0  0  0  0  0
    6.5964   -9.8059   26.4655 O   0  0  0  0  0  0  0  0  0  0  0  0
    6.6769  -11.1608   26.1788 C   0  0  0  0  0  0  0  0  0  0  0  0
    5.5656  -11.9770   26.1595 C   0  0  0  0  0  0  0  0  0  0  0  0
    5.6242  -13.3111   25.8800 C   0  0  0  0  0  0  0  0  0  0  0  0
    6.8258  -13.9161   25.5977 C   0  0  0  0  0  0  0  0  0  0  0  0
    6.9770  -15.3439   25.2875 C   0  0  0  0  0  0  0  0  0  0  0  0
    8.0618  -15.6803   24.3457 C   0  0  2  0  0  0  0  0  0  0  0  0
    7.5345  -15.7634   22.9675 N   0  0  0  0  0  0  0  0  0  0  0  0
    8.8810  -16.8461   24.5636 C   0  0  0  0  0  0  0  0  0  0  0  0
    8.3147  -17.9998   24.4953 O   0  0  0  0  0  0  0  0  0  0  0  0
    7.9550  -13.0884   25.6170 C   0  0  0  0  0  0  0  0  0  0  0  0
    7.8858  -11.7414   25.9006 C   0  0  0  0  0  0  0  0  0  0  0  0
   10.2692  -16.9196   24.8470 N   0  0  0  0  0  0  0  0  0  0  0  0
   10.9427  -18.1933   25.1029 C   0  0  1  0  0  0  0  0  0  0  0  0
   12.3565  -18.1486   24.5664 C   0  0  0  0  0  0  0  0  0  0  0  0
   12.4578  -17.9402   23.1143 C   0  0  0  0  0  0  0  0  0  0  0  0
   11.6638  -18.5513   22.1703 C   0  0  0  0  0  0  0  0  0  0  0  0
   12.0665  -18.1307   20.9454 N   0  0  0  0  0  0  0  0  0  0  0  0
   13.0899  -17.2747   21.1055 C   0  0  0  0  0  0  0  0  0  0  0  0
   13.3150  -17.1693   22.4184 N   0  0  0  0  0  0  0  0  0  0  0  0
   10.9814  -18.4556   26.5485 C   0  0  0  0  0  0  0  0  0  0  0  0
   11.5762  -19.6197   27.0436 O   0  0  0  0  0  0  0  0  0  0  0  0
   10.4856  -17.6515   27.3636 O   0  0  0  0  0  0  0  0  0  0  0  0
  2  3  1  0
  2  1  1  0
  3  4  1  1
  5  3  1  0
  5  6  1  6
  7  5  1  0
  7  8  2  0
  9 10  1  0
 10 11  2  0
 10 20  1  0
 11 12  1  0
 12 13  2  0
 13 14  1  0
 15 14  1  1
 15 16  1  0
 16  7  1  0
 17 15  1  0
 18 17  2  0
 19 13  1  0
 20 19  2  0
 21 17  1  0
 22 21  1  0
 22 29  1  0
 22 23  1  1
 24 23  1  0
 24 25  2  0
 26 25  1  0
 27 26  1  0
 28 27  2  0
 28 24  1  0
 29 31  2  0
 29 30  1  0
M  END
$$$$
