IYH.pdb
     RDKit          3D

 31 32  0  0  1  0  0  0  0  0999 V2000
    7.2900  -12.6761   17.8229 C   0  0  0  0  0  0  0  0  0  0  0  0
    8.0790  -13.8928   18.2869 C   0  0  0  0  0  0  0  0  0  0  0  0
    8.5108  -13.7542   19.7321 C   0  0  2  0  0  0  0  0  0  0  0  0
    9.4599  -12.5889   19.8120 C   0  0  0  0  0  0  0  0  0  0  0  0
    9.1491  -15.0599   20.1362 C   0  0  2  0  0  0  0  0  0  0  0  0
    8.0947  -16.0453   20.2288 N   0  0  0  0  0  0  0  0  0  0  0  0
    9.8314  -14.9803   21.4445 C   0  0  0  0  0  0  0  0  0  0  0  0
   10.8159  -14.1916   21.6223 O   0  0  0  0  0  0  0  0  0  0  0  0
    5.9067  -11.9829   28.4324 O   0  0  0  0  0  0  0  0  0  0  0  0
    6.4150  -12.5050   27.2519 C   0  0  0  0  0  0  0  0  0  0  0  0
    7.0079  -11.7131   26.2912 C   0  0  0  0  0  0  0  0  0  0  0  0
    7.5134  -12.2075   25.1245 C   0  0  0  0  0  0  0  0  0  0  0  0
    7.4522  -13.5526   24.8482 C   0  0  0  0  0  0  0  0  0  0  0  0
    7.9709  -14.1660   23.6183 C   0  0  0  0  0  0  0  0  0  0  0  0
    8.9536  -15.2493   23.8114 C   0  0  2  0  0  0  0  0  0  0  0  0
    9.3800  -15.7915   22.5042 N   0  0  0  0  0  0  0  0  0  0  0  0
    8.6444  -16.3712   24.6619 C   0  0  0  0  0  0  0  0  0  0  0  0
    7.8798  -16.1634   25.6762 O   0  0  0  0  0  0  0  0  0  0  0  0
    6.8504  -14.3578   25.8228 C   0  0  0  0  0  0  0  0  0  0  0  0
    6.3424  -13.8491   26.9988 C   0  0  0  0  0  0  0  0  0  0  0  0
    9.0648  -17.7211   24.5448 N   0  0  0  0  0  0  0  0  0  0  0  0
   10.2957  -18.2076   25.1690 C   0  0  1  0  0  0  0  0  0  0  0  0
   11.4990  -17.7030   24.4033 C   0  0  0  0  0  0  0  0  0  0  0  0
   11.6671  -18.2883   23.0649 C   0  0  0  0  0  0  0  0  0  0  0  0
   10.7784  -19.1485   22.4605 C   0  0  0  0  0  0  0  0  0  0  0  0
   11.2819  -19.4911   21.2486 N   0  0  0  0  0  0  0  0  0  0  0  0
   12.4601  -18.8656   21.0860 C   0  0  0  0  0  0  0  0  0  0  0  0
   12.6796  -18.1439   22.1890 N   0  0  0  0  0  0  0  0  0  0  0  0
   10.3719  -17.7336   26.5580 C   0  0  0  0  0  0  0  0  0  0  0  0
    9.3498  -16.9471   27.0972 O   0  0  0  0  0  0  0  0  0  0  0  0
   11.3456  -18.0182   27.2844 O   0  0  0  0  0  0  0  0  0  0  0  0
  2  3  1  0
  2  1  1  0
  3  4  1  6
  5  3  1  0
  5  6  1  1
  7  5  1  0
  7  8  2  0
  9 10  1  0
 10 11  2  0
 10 20  1  0
 11 12  1  0
 12 13  2  0
 13 14  1  0
 15 14  1  6
 15 16  1  0
 16  7  1  0
 17 15  1  0
 18 17  2  0
 19 13  1  0
 20 19  2  0
 21 17  1  0
 22 21  1  0
 22 29  1  0
 22 23  1  6
 24 23  1  0
 24 25  2  0
 26 25  1  0
 27 26  1  0
 28 27  2  0
 28 24  1  0
 29 31  2  0
 29 30  1  0
M  END
$$$$
