IYH.pdb
     RDKit          3D

 31 32  0  0  1  0  0  0  0  0999 V2000
    7.5940  -13.0286   16.4734 C   0  0  0  0  0  0  0  0  0  0  0  0
    8.0087  -14.2409   17.2960 C   0  0  0  0  0  0  0  0  0  0  0  0
    8.2802  -13.8648   18.7379 C   0  0  2  0  0  0  0  0  0  0  0  0
    9.3730  -12.8300   18.7385 C   0  0  0  0  0  0  0  0  0  0  0  0
    8.6677  -15.1283   19.4652 C   0  0  2  0  0  0  0  0  0  0  0  0
    7.5555  -16.0463   19.3580 N   0  0  0  0  0  0  0  0  0  0  0  0
    8.9483  -14.8985   20.8976 C   0  0  0  0  0  0  0  0  0  0  0  0
   10.1286  -14.6371   21.2996 O   0  0  0  0  0  0  0  0  0  0  0  0
    7.1345  -12.3081   29.1989 O   0  0  0  0  0  0  0  0  0  0  0  0
    7.0942  -12.6678   27.8597 C   0  0  0  0  0  0  0  0  0  0  0  0
    6.4584  -13.8107   27.4226 C   0  0  0  0  0  0  0  0  0  0  0  0
    6.4080  -14.1815   26.1106 C   0  0  0  0  0  0  0  0  0  0  0  0
    7.0047  -13.4112   25.1411 C   0  0  0  0  0  0  0  0  0  0  0  0
    6.9978  -13.7376   23.7089 C   0  0  0  0  0  0  0  0  0  0  0  0
    8.0524  -14.6675   23.2617 C   0  0  2  0  0  0  0  0  0  0  0  0
    7.8899  -14.9715   21.8245 N   0  0  0  0  0  0  0  0  0  0  0  0
    8.2583  -15.9195   23.9454 C   0  0  0  0  0  0  0  0  0  0  0  0
    7.4300  -16.8761   23.7099 O   0  0  0  0  0  0  0  0  0  0  0  0
    7.6507  -12.2504   25.5835 C   0  0  0  0  0  0  0  0  0  0  0  0
    7.6964  -11.8841   26.9114 C   0  0  0  0  0  0  0  0  0  0  0  0
    9.2755  -16.2743   24.8686 N   0  0  0  0  0  0  0  0  0  0  0  0
    9.9616  -17.5655   24.8093 C   0  0  1  0  0  0  0  0  0  0  0  0
   10.4807  -17.8122   23.4099 C   0  0  0  0  0  0  0  0  0  0  0  0
   11.2974  -19.0260   23.2612 C   0  0  0  0  0  0  0  0  0  0  0  0
   11.6089  -19.8994   24.2786 C   0  0  0  0  0  0  0  0  0  0  0  0
   12.3931  -20.8801   23.7663 N   0  0  0  0  0  0  0  0  0  0  0  0
   12.5761  -20.6374   22.4573 C   0  0  0  0  0  0  0  0  0  0  0  0
   11.9097  -19.5163   22.1666 N   0  0  0  0  0  0  0  0  0  0  0  0
   11.0886  -17.5754   25.7526 C   0  0  0  0  0  0  0  0  0  0  0  0
   11.4119  -16.4297   26.4852 O   0  0  0  0  0  0  0  0  0  0  0  0
   11.7810  -18.5998   25.9198 O   0  0  0  0  0  0  0  0  0  0  0  0
  2  3  1  0
  2  1  1  0
  3  4  1  6
  5  3  1  0
  5  6  1  1
  7  5  1  0
  7  8  2  0
  9 10  1  0
 10 11  2  0
 10 20  1  0
 11 12  1  0
 12 13  2  0
 13 14  1  0
 15 14  1  1
 15 16  1  0
 16  7  1  0
 17 15  1  0
 18 17  2  0
 19 13  1  0
 20 19  2  0
 21 17  1  0
 22 21  1  0
 22 29  1  0
 22 23  1  6
 24 23  1  0
 24 25  2  0
 26 25  1  0
 27 26  1  0
 28 27  2  0
 28 24  1  0
 29 31  2  0
 29 30  1  0
M  END
$$$$
