IYH.pdb
     RDKit          3D

 31 32  0  0  1  0  0  0  0  0999 V2000
    9.2886  -19.7872   17.3828 C   0  0  0  0  0  0  0  0  0  0  0  0
    8.4389  -18.5783   17.7502 C   0  0  0  0  0  0  0  0  0  0  0  0
    8.6765  -18.1499   19.1835 C   0  0  2  0  0  0  0  0  0  0  0  0
    7.5118  -18.6388   20.0018 C   0  0  0  0  0  0  0  0  0  0  0  0
    8.8061  -16.6470   19.1863 C   0  0  2  0  0  0  0  0  0  0  0  0
    9.9156  -16.3080   18.3228 N   0  0  0  0  0  0  0  0  0  0  0  0
    9.0769  -16.1005   20.5321 C   0  0  0  0  0  0  0  0  0  0  0  0
   10.2525  -16.1216   21.0227 O   0  0  0  0  0  0  0  0  0  0  0  0
    6.9869  -11.9570   28.1928 O   0  0  0  0  0  0  0  0  0  0  0  0
    7.0261  -12.4420   26.8936 C   0  0  0  0  0  0  0  0  0  0  0  0
    7.5918  -11.7288   25.8578 C   0  0  0  0  0  0  0  0  0  0  0  0
    7.6399  -12.1884   24.5741 C   0  0  0  0  0  0  0  0  0  0  0  0
    7.1126  -13.4153   24.2485 C   0  0  0  0  0  0  0  0  0  0  0  0
    7.1223  -13.9835   22.8940 C   0  0  0  0  0  0  0  0  0  0  0  0
    8.1884  -14.9667   22.6226 C   0  0  2  0  0  0  0  0  0  0  0  0
    8.0145  -15.5504   21.2759 N   0  0  0  0  0  0  0  0  0  0  0  0
    8.4252  -16.0562   23.5361 C   0  0  0  0  0  0  0  0  0  0  0  0
    8.1400  -17.2466   23.1384 O   0  0  0  0  0  0  0  0  0  0  0  0
    6.5378  -14.1405   25.2994 C   0  0  0  0  0  0  0  0  0  0  0  0
    6.4938  -13.6678   26.5933 C   0  0  0  0  0  0  0  0  0  0  0  0
    8.9494  -16.0166   24.8538 N   0  0  0  0  0  0  0  0  0  0  0  0
    9.7822  -17.0935   25.3905 C   0  0  1  0  0  0  0  0  0  0  0  0
   11.0583  -17.2109   24.5866 C   0  0  0  0  0  0  0  0  0  0  0  0
   11.0811  -18.3244   23.6264 C   0  0  0  0  0  0  0  0  0  0  0  0
   10.0571  -19.2242   23.4343 C   0  0  0  0  0  0  0  0  0  0  0  0
   10.4504  -20.1142   22.4896 N   0  0  0  0  0  0  0  0  0  0  0  0
   11.6920  -19.7896   22.0908 C   0  0  0  0  0  0  0  0  0  0  0  0
   12.0595  -18.7085   22.7847 N   0  0  0  0  0  0  0  0  0  0  0  0
   10.1179  -16.8127   26.7935 C   0  0  0  0  0  0  0  0  0  0  0  0
   10.8686  -17.7251   27.5406 O   0  0  0  0  0  0  0  0  0  0  0  0
    9.7415  -15.7607   27.3489 O   0  0  0  0  0  0  0  0  0  0  0  0
  2  3  1  0
  2  1  1  0
  3  4  1  1
  5  3  1  0
  5  6  1  6
  7  5  1  0
  7  8  2  0
  9 10  1  0
 10 11  2  0
 10 20  1  0
 11 12  1  0
 12 13  2  0
 13 14  1  0
 15 14  1  1
 15 16  1  0
 16  7  1  0
 17 15  1  0
 18 17  2  0
 19 13  1  0
 20 19  2  0
 21 17  1  0
 22 21  1  0
 22 29  1  0
 22 23  1  6
 24 23  1  0
 24 25  2  0
 26 25  1  0
 27 26  1  0
 28 27  2  0
 28 24  1  0
 29 31  2  0
 29 30  1  0
M  END
$$$$
