IYH.pdb
     RDKit          3D

 31 32  0  0  1  0  0  0  0  0999 V2000
    7.1255  -11.5148   26.9798 C   0  0  0  0  0  0  0  0  0  0  0  0
    7.6720  -12.8072   26.3887 C   0  0  0  0  0  0  0  0  0  0  0  0
    6.9238  -14.0154   26.9131 C   0  0  2  0  0  0  0  0  0  0  0  0
    7.1362  -14.0691   28.4021 C   0  0  0  0  0  0  0  0  0  0  0  0
    7.4705  -15.2259   26.1981 C   0  0  2  0  0  0  0  0  0  0  0  0
    8.9017  -15.2398   26.4054 N   0  0  0  0  0  0  0  0  0  0  0  0
    7.2087  -15.1960   24.7441 C   0  0  0  0  0  0  0  0  0  0  0  0
    6.0393  -15.4079   24.2852 O   0  0  0  0  0  0  0  0  0  0  0  0
    7.7307  -13.4644   16.1678 O   0  0  0  0  0  0  0  0  0  0  0  0
    7.8811  -13.4985   17.5464 C   0  0  0  0  0  0  0  0  0  0  0  0
    8.8434  -12.7589   18.2011 C   0  0  0  0  0  0  0  0  0  0  0  0
    9.0070  -12.7790   19.5554 C   0  0  0  0  0  0  0  0  0  0  0  0
    8.1981  -13.5583   20.3478 C   0  0  0  0  0  0  0  0  0  0  0  0
    8.3071  -13.6382   21.8105 C   0  0  0  0  0  0  0  0  0  0  0  0
    8.1353  -14.9840   22.3901 C   0  0  2  0  0  0  0  0  0  0  0  0
    8.2729  -14.9285   23.8606 N   0  0  0  0  0  0  0  0  0  0  0  0
    8.9388  -16.0864   21.9244 C   0  0  0  0  0  0  0  0  0  0  0  0
    8.5168  -16.7490   20.9049 O   0  0  0  0  0  0  0  0  0  0  0  0
    7.2206  -14.3098   19.6842 C   0  0  0  0  0  0  0  0  0  0  0  0
    7.0629  -14.2830   18.3153 C   0  0  0  0  0  0  0  0  0  0  0  0
   10.1726  -16.5675   22.4333 N   0  0  0  0  0  0  0  0  0  0  0  0
   11.3946  -16.5739   21.6282 C   0  0  1  0  0  0  0  0  0  0  0  0
   11.7099  -15.1723   21.1544 C   0  0  0  0  0  0  0  0  0  0  0  0
   12.9035  -15.0641   20.3023 C   0  0  0  0  0  0  0  0  0  0  0  0
   14.1535  -15.5400   20.6278 C   0  0  0  0  0  0  0  0  0  0  0  0
   14.9976  -15.2367   19.6106 N   0  0  0  0  0  0  0  0  0  0  0  0
   14.3032  -14.5848   18.6625 C   0  0  0  0  0  0  0  0  0  0  0  0
   13.0420  -14.4879   19.0931 N   0  0  0  0  0  0  0  0  0  0  0  0
   12.5181  -17.0781   22.4305 C   0  0  0  0  0  0  0  0  0  0  0  0
   13.7590  -17.3274   21.8374 O   0  0  0  0  0  0  0  0  0  0  0  0
   12.3915  -17.2965   23.6524 O   0  0  0  0  0  0  0  0  0  0  0  0
  2  3  1  0
  2  1  1  0
  3  4  1  1
  5  3  1  0
  5  6  1  6
  7  5  1  0
  7  8  2  0
  9 10  1  0
 10 11  2  0
 10 20  1  0
 11 12  1  0
 12 13  2  0
 13 14  1  0
 15 14  1  6
 15 16  1  0
 16  7  1  0
 17 15  1  0
 18 17  2  0
 19 13  1  0
 20 19  2  0
 21 17  1  0
 22 21  1  0
 22 29  1  0
 22 23  1  1
 24 23  1  0
 24 25  2  0
 26 25  1  0
 27 26  1  0
 28 27  2  0
 28 24  1  0
 29 31  2  0
 29 30  1  0
M  END
$$$$
