VYG.pdb
     RDKit          3D

 24 24  0  0  1  0  0  0  0  0999 V2000
   33.8268  -35.1638  -21.0607 C   0  0  0  0  0  0  0  0  0  0  0  0
   32.4310  -35.7243  -20.9126 C   0  0  2  0  0  0  0  0  0  0  0  0
   31.5819  -35.4562  -22.1137 C   0  0  0  0  0  0  0  0  0  0  0  0
   31.7378  -35.1979  -19.6850 C   0  0  2  0  0  0  0  0  0  0  0  0
   30.3942  -35.6597  -19.5490 N   0  0  0  0  0  0  0  0  0  0  0  0
   31.8329  -33.7044  -19.6635 C   0  0  0  0  0  0  0  0  0  0  0  0
   30.9506  -33.0309  -20.2545 O   0  0  0  0  0  0  0  0  0  0  0  0
   27.5681  -31.9933  -15.4943 O   0  0  0  0  0  0  0  0  0  0  0  0
   28.8593  -31.8044  -15.9784 C   0  0  0  0  0  0  0  0  0  0  0  0
   29.1172  -30.7747  -16.8577 C   0  0  0  0  0  0  0  0  0  0  0  0
   30.3922  -30.5597  -17.3581 C   0  0  0  0  0  0  0  0  0  0  0  0
   31.4585  -31.3598  -17.0037 C   0  0  0  0  0  0  0  0  0  0  0  0
   32.8229  -31.1545  -17.5269 C   0  0  0  0  0  0  0  0  0  0  0  0
   33.0129  -31.5849  -18.9528 C   0  0  2  0  0  0  0  0  0  0  0  0
   32.8803  -33.0506  -19.0011 N   0  0  0  0  0  0  0  0  0  0  0  0
   34.3226  -31.1825  -19.5182 C   0  0  0  0  0  0  0  0  0  0  0  0
   35.3693  -31.7293  -19.0544 O   0  0  0  0  0  0  0  0  0  0  0  0
   31.1822  -32.3935  -16.1163 C   0  0  0  0  0  0  0  0  0  0  0  0
   29.9151  -32.6105  -15.6163 C   0  0  0  0  0  0  0  0  0  0  0  0
   34.3743  -30.2107  -20.5484 N   0  0  0  0  0  0  0  0  0  0  0  0
   35.4588  -29.2603  -20.6328 C   0  0  0  0  0  0  0  0  0  0  0  0
   35.0259  -27.9142  -20.1909 C   0  0  0  0  0  0  0  0  0  0  0  0
   34.6668  -27.0859  -21.0585 O   0  0  0  0  0  0  0  0  0  0  0  0
   35.0187  -27.5835  -18.8641 O   0  0  0  0  0  0  0  0  0  0  0  0
  2  1  1  6
  2  4  1  0
  2  3  1  0
  4  6  1  0
  4  5  1  6
  6  7  2  0
  8  9  1  0
  9 10  2  0
 10 11  1  0
 12 11  2  0
 12 13  1  0
 14 13  1  1
 14 16  1  0
 15 14  1  0
 15  6  1  0
 16 20  1  0
 16 17  2  0
 18 12  1  0
 19  9  1  0
 19 18  2  0
 20 21  1  0
 22 24  1  0
 22 21  1  0
 23 22  2  0
M  END
$$$$
