VYG.pdb
     RDKit          3D

 24 24  0  0  1  0  0  0  0  0999 V2000
   26.3852  -22.1974  -18.8185 C   0  0  0  0  0  0  0  0  0  0  0  0
   27.2848  -21.0360  -18.4634 C   0  0  2  0  0  0  0  0  0  0  0  0
   27.9989  -20.4865  -19.6565 C   0  0  0  0  0  0  0  0  0  0  0  0
   28.2908  -21.4029  -17.4060 C   0  0  2  0  0  0  0  0  0  0  0  0
   29.2335  -22.3850  -17.8348 N   0  0  0  0  0  0  0  0  0  0  0  0
   27.5724  -21.8084  -16.1572 C   0  0  0  0  0  0  0  0  0  0  0  0
   27.6110  -23.0128  -15.7978 O   0  0  0  0  0  0  0  0  0  0  0  0
   23.9688  -20.8960   -8.0694 O   0  0  0  0  0  0  0  0  0  0  0  0
   24.5906  -20.7117   -9.3009 C   0  0  0  0  0  0  0  0  0  0  0  0
   23.8411  -20.3473  -10.3989 C   0  0  0  0  0  0  0  0  0  0  0  0
   24.4301  -20.1559  -11.6394 C   0  0  0  0  0  0  0  0  0  0  0  0
   25.7856  -20.3197  -11.8353 C   0  0  0  0  0  0  0  0  0  0  0  0
   26.4346  -20.1272  -13.1466 C   0  0  0  0  0  0  0  0  0  0  0  0
   26.1685  -21.2228  -14.1382 C   0  0  2  0  0  0  0  0  0  0  0  0
   26.8637  -20.8752  -15.3889 N   0  0  0  0  0  0  0  0  0  0  0  0
   24.7264  -21.4321  -14.4092 C   0  0  0  0  0  0  0  0  0  0  0  0
   24.0329  -22.0333  -13.5332 O   0  0  0  0  0  0  0  0  0  0  0  0
   26.5275  -20.6870  -10.7186 C   0  0  0  0  0  0  0  0  0  0  0  0
   25.9452  -20.8783   -9.4829 C   0  0  0  0  0  0  0  0  0  0  0  0
   24.1642  -20.9627  -15.6225 N   0  0  0  0  0  0  0  0  0  0  0  0
   22.7455  -21.0520  -15.8787 C   0  0  0  0  0  0  0  0  0  0  0  0
   22.0186  -19.9166  -15.2643 C   0  0  0  0  0  0  0  0  0  0  0  0
   21.4935  -20.0801  -14.1395 O   0  0  0  0  0  0  0  0  0  0  0  0
   21.9233  -18.7160  -15.9119 O   0  0  0  0  0  0  0  0  0  0  0  0
  2  1  1  6
  2  4  1  0
  2  3  1  0
  4  6  1  0
  4  5  1  6
  6  7  2  0
  8  9  1  0
  9 10  2  0
 10 11  1  0
 12 11  2  0
 12 13  1  0
 14 13  1  1
 14 16  1  0
 15 14  1  0
 15  6  1  0
 16 20  1  0
 16 17  2  0
 18 12  1  0
 19  9  1  0
 19 18  2  0
 20 21  1  0
 22 24  1  0
 22 21  1  0
 23 22  2  0
M  END
$$$$
