VYG.pdb
     RDKit          3D

 24 24  0  0  1  0  0  0  0  0999 V2000
   21.2625  -19.7610  -15.5372 C   0  0  0  0  0  0  0  0  0  0  0  0
   21.3317  -21.1894  -15.0483 C   0  0  2  0  0  0  0  0  0  0  0  0
   20.2565  -22.0438  -15.6395 C   0  0  0  0  0  0  0  0  0  0  0  0
   21.2687  -21.2769  -13.5474 C   0  0  2  0  0  0  0  0  0  0  0  0
   20.0801  -20.7123  -12.9946 N   0  0  0  0  0  0  0  0  0  0  0  0
   22.5099  -20.6786  -12.9630 C   0  0  0  0  0  0  0  0  0  0  0  0
   22.4984  -19.4685  -12.6215 O   0  0  0  0  0  0  0  0  0  0  0  0
   28.1967  -19.2811   -6.9191 O   0  0  0  0  0  0  0  0  0  0  0  0
   27.5447  -19.9080   -7.9770 C   0  0  0  0  0  0  0  0  0  0  0  0
   26.1893  -19.7266   -8.1501 C   0  0  0  0  0  0  0  0  0  0  0  0
   25.5103  -20.3369   -9.1936 C   0  0  0  0  0  0  0  0  0  0  0  0
   26.1526  -21.1501  -10.1039 C   0  0  0  0  0  0  0  0  0  0  0  0
   25.4511  -21.8148  -11.2192 C   0  0  0  0  0  0  0  0  0  0  0  0
   24.9335  -20.8791  -12.2733 C   0  0  2  0  0  0  0  0  0  0  0  0
   23.6743  -21.4391  -12.7918 N   0  0  0  0  0  0  0  0  0  0  0  0
   25.8848  -20.6690  -13.3904 C   0  0  0  0  0  0  0  0  0  0  0  0
   25.8049  -21.4359  -14.3980 O   0  0  0  0  0  0  0  0  0  0  0  0
   27.5190  -21.3229   -9.9159 C   0  0  0  0  0  0  0  0  0  0  0  0
   28.1980  -20.7174   -8.8790 C   0  0  0  0  0  0  0  0  0  0  0  0
   26.8470  -19.6319  -13.3081 N   0  0  0  0  0  0  0  0  0  0  0  0
   27.7518  -19.3563  -14.3998 C   0  0  0  0  0  0  0  0  0  0  0  0
   28.4036  -20.5969  -14.8804 C   0  0  0  0  0  0  0  0  0  0  0  0
   29.0485  -21.2904  -14.0613 O   0  0  0  0  0  0  0  0  0  0  0  0
   28.3030  -20.9763  -16.1903 O   0  0  0  0  0  0  0  0  0  0  0  0
  2  1  1  1
  2  4  1  0
  2  3  1  0
  4  6  1  0
  4  5  1  1
  6  7  2  0
  8  9  1  0
  9 10  2  0
 10 11  1  0
 12 11  2  0
 12 13  1  0
 14 13  1  1
 14 16  1  0
 15 14  1  0
 15  6  1  0
 16 20  1  0
 16 17  2  0
 18 12  1  0
 19  9  1  0
 19 18  2  0
 20 21  1  0
 22 24  1  0
 22 21  1  0
 23 22  2  0
M  END
$$$$
