VYG.pdb
     RDKit          3D

 24 24  0  0  1  0  0  0  0  0999 V2000
   21.4854  -20.9696  -15.3972 C   0  0  0  0  0  0  0  0  0  0  0  0
   21.5158  -21.9408  -14.2396 C   0  0  2  0  0  0  0  0  0  0  0  0
   20.1844  -22.5771  -13.9981 C   0  0  0  0  0  0  0  0  0  0  0  0
   21.9954  -21.2916  -12.9695 C   0  0  2  0  0  0  0  0  0  0  0  0
   21.1295  -20.2604  -12.4962 N   0  0  0  0  0  0  0  0  0  0  0  0
   23.4016  -20.8148  -13.1565 C   0  0  0  0  0  0  0  0  0  0  0  0
   23.6160  -19.5799  -13.2584 O   0  0  0  0  0  0  0  0  0  0  0  0
   25.5228  -19.5623   -7.1212 O   0  0  0  0  0  0  0  0  0  0  0  0
   25.8086  -20.1142   -8.3666 C   0  0  0  0  0  0  0  0  0  0  0  0
   25.1980  -21.2886   -8.7516 C   0  0  0  0  0  0  0  0  0  0  0  0
   25.4611  -21.8641   -9.9852 C   0  0  0  0  0  0  0  0  0  0  0  0
   26.3408  -21.2946  -10.8822 C   0  0  0  0  0  0  0  0  0  0  0  0
   26.6413  -21.8908  -12.1982 C   0  0  0  0  0  0  0  0  0  0  0  0
   25.8777  -21.2884  -13.3421 C   0  0  2  0  0  0  0  0  0  0  0  0
   24.4738  -21.7148  -13.2192 N   0  0  0  0  0  0  0  0  0  0  0  0
   26.4048  -21.6801  -14.6710 C   0  0  0  0  0  0  0  0  0  0  0  0
   27.6260  -21.4469  -14.9240 O   0  0  0  0  0  0  0  0  0  0  0  0
   26.9481  -20.1109  -10.4793 C   0  0  0  0  0  0  0  0  0  0  0  0
   26.6889  -19.5352   -9.2529 C   0  0  0  0  0  0  0  0  0  0  0  0
   25.5451  -22.2968  -15.6138 N   0  0  0  0  0  0  0  0  0  0  0  0
   24.8047  -21.5183  -16.5792 C   0  0  0  0  0  0  0  0  0  0  0  0
   25.7126  -20.6958  -17.4123 C   0  0  0  0  0  0  0  0  0  0  0  0
   25.8219  -19.4756  -17.1534 O   0  0  0  0  0  0  0  0  0  0  0  0
   26.4160  -21.2572  -18.4419 O   0  0  0  0  0  0  0  0  0  0  0  0
  2  1  1  6
  2  4  1  0
  2  3  1  0
  4  6  1  0
  4  5  1  6
  6  7  2  0
  8  9  1  0
  9 10  2  0
 10 11  1  0
 12 11  2  0
 12 13  1  0
 14 13  1  1
 14 16  1  0
 15 14  1  0
 15  6  1  0
 16 20  1  0
 16 17  2  0
 18 12  1  0
 19  9  1  0
 19 18  2  0
 20 21  1  0
 22 24  1  0
 22 21  1  0
 23 22  2  0
M  END
$$$$
