VYG.pdb
     RDKit          3D

 24 24  0  0  1  0  0  0  0  0999 V2000
   22.0106  -13.5391  -17.9129 C   0  0  0  0  0  0  0  0  0  0  0  0
   21.5987  -12.2604  -17.2205 C   0  0  2  0  0  0  0  0  0  0  0  0
   20.8935  -11.3181  -18.1426 C   0  0  0  0  0  0  0  0  0  0  0  0
   22.7697  -11.5569  -16.5893 C   0  0  2  0  0  0  0  0  0  0  0  0
   23.5773  -12.4113  -15.7802 N   0  0  0  0  0  0  0  0  0  0  0  0
   22.2823  -10.3558  -15.8410 C   0  0  0  0  0  0  0  0  0  0  0  0
   21.6322  -10.5248  -14.7780 O   0  0  0  0  0  0  0  0  0  0  0  0
   21.8322   -1.6427  -13.8030 O   0  0  0  0  0  0  0  0  0  0  0  0
   22.1754   -2.9275  -14.2140 C   0  0  0  0  0  0  0  0  0  0  0  0
   21.9129   -4.0024  -13.3920 C   0  0  0  0  0  0  0  0  0  0  0  0
   22.2423   -5.2945  -13.7718 C   0  0  0  0  0  0  0  0  0  0  0  0
   22.8448   -5.5668  -14.9824 C   0  0  0  0  0  0  0  0  0  0  0  0
   23.2098   -6.9323  -15.4065 C   0  0  0  0  0  0  0  0  0  0  0  0
   22.0405   -7.8491  -15.6228 C   0  0  2  0  0  0  0  0  0  0  0  0
   22.5368   -9.0574  -16.3023 N   0  0  0  0  0  0  0  0  0  0  0  0
   20.9538   -7.2361  -16.4230 C   0  0  0  0  0  0  0  0  0  0  0  0
   21.1541   -7.0486  -17.6618 O   0  0  0  0  0  0  0  0  0  0  0  0
   23.1028   -4.4725  -15.7998 C   0  0  0  0  0  0  0  0  0  0  0  0
   22.7765   -3.1856  -15.4254 C   0  0  0  0  0  0  0  0  0  0  0  0
   19.7346   -6.8791  -15.7950 N   0  0  0  0  0  0  0  0  0  0  0  0
   18.7005   -6.1669  -16.5092 C   0  0  0  0  0  0  0  0  0  0  0  0
   17.8684   -7.0942  -17.3108 C   0  0  0  0  0  0  0  0  0  0  0  0
   18.0330   -7.1258  -18.5517 O   0  0  0  0  0  0  0  0  0  0  0  0
   16.9407   -7.8982  -16.7084 O   0  0  0  0  0  0  0  0  0  0  0  0
  2  1  1  6
  2  4  1  0
  2  3  1  0
  4  6  1  0
  4  5  1  1
  6  7  2  0
  8  9  1  0
  9 10  2  0
 10 11  1  0
 12 11  2  0
 12 13  1  0
 14 13  1  6
 14 16  1  0
 15 14  1  0
 15  6  1  0
 16 20  1  0
 16 17  2  0
 18 12  1  0
 19  9  1  0
 19 18  2  0
 20 21  1  0
 22 24  1  0
 22 21  1  0
 23 22  2  0
M  END
$$$$
