VYG.pdb
     RDKit          3D

 24 24  0  0  1  0  0  0  0  0999 V2000
   25.1150  -18.4803  -18.8547 C   0  0  0  0  0  0  0  0  0  0  0  0
   26.3109  -17.7050  -18.3516 C   0  0  2  0  0  0  0  0  0  0  0  0
   26.8422  -16.7544  -19.3761 C   0  0  0  0  0  0  0  0  0  0  0  0
   27.4198  -18.6122  -17.8914 C   0  0  2  0  0  0  0  0  0  0  0  0
   27.9534  -19.4307  -18.9319 N   0  0  0  0  0  0  0  0  0  0  0  0
   26.9500  -19.4145  -16.7185 C   0  0  0  0  0  0  0  0  0  0  0  0
   26.5568  -20.5939  -16.9074 O   0  0  0  0  0  0  0  0  0  0  0  0
   25.5370  -21.5310   -8.1541 O   0  0  0  0  0  0  0  0  0  0  0  0
   25.9762  -20.9973   -9.3622 C   0  0  0  0  0  0  0  0  0  0  0  0
   25.6634  -19.6954   -9.6897 C   0  0  0  0  0  0  0  0  0  0  0  0
   26.0856  -19.1341  -10.8851 C   0  0  0  0  0  0  0  0  0  0  0  0
   26.8340  -19.8454  -11.7998 C   0  0  0  0  0  0  0  0  0  0  0  0
   27.2901  -19.2720  -13.0808 C   0  0  0  0  0  0  0  0  0  0  0  0
   26.4137  -19.5994  -14.2552 C   0  0  2  0  0  0  0  0  0  0  0  0
   26.9413  -18.8768  -15.4246 N   0  0  0  0  0  0  0  0  0  0  0  0
   24.9913  -19.2394  -14.0449 C   0  0  0  0  0  0  0  0  0  0  0  0
   24.6755  -18.0106  -14.0590 O   0  0  0  0  0  0  0  0  0  0  0  0
   27.1411  -21.1565  -11.4550 C   0  0  0  0  0  0  0  0  0  0  0  0
   26.7230  -21.7184  -10.2666 C   0  0  0  0  0  0  0  0  0  0  0  0
   24.0316  -20.2610  -13.8360 N   0  0  0  0  0  0  0  0  0  0  0  0
   22.6830  -19.9530  -13.4203 C   0  0  0  0  0  0  0  0  0  0  0  0
   21.8780  -21.1863  -13.2599 C   0  0  0  0  0  0  0  0  0  0  0  0
   22.3936  -22.2831  -13.5746 O   0  0  0  0  0  0  0  0  0  0  0  0
   20.5994  -21.1280  -12.7784 O   0  0  0  0  0  0  0  0  0  0  0  0
  2  1  1  6
  2  4  1  0
  2  3  1  0
  4  6  1  0
  4  5  1  6
  6  7  2  0
  8  9  1  0
  9 10  2  0
 10 11  1  0
 12 11  2  0
 12 13  1  0
 14 13  1  1
 14 16  1  0
 15 14  1  0
 15  6  1  0
 16 20  1  0
 16 17  2  0
 18 12  1  0
 19  9  1  0
 19 18  2  0
 20 21  1  0
 22 24  1  0
 22 21  1  0
 23 22  2  0
M  END
$$$$
