VYG.pdb
     RDKit          3D

 24 24  0  0  1  0  0  0  0  0999 V2000
   25.4751  -17.7237  -20.1264 C   0  0  0  0  0  0  0  0  0  0  0  0
   25.6505  -17.7828  -18.6264 C   0  0  2  0  0  0  0  0  0  0  0  0
   27.0144  -18.2522  -18.2331 C   0  0  0  0  0  0  0  0  0  0  0  0
   24.6148  -18.6553  -17.9702 C   0  0  2  0  0  0  0  0  0  0  0  0
   23.2757  -18.3152  -18.3281 N   0  0  0  0  0  0  0  0  0  0  0  0
   24.8284  -18.6502  -16.4888 C   0  0  0  0  0  0  0  0  0  0  0  0
   24.6150  -17.5896  -15.8478 O   0  0  0  0  0  0  0  0  0  0  0  0
   24.7106  -20.8789   -8.0412 O   0  0  0  0  0  0  0  0  0  0  0  0
   24.7002  -20.8674   -9.4330 C   0  0  0  0  0  0  0  0  0  0  0  0
   23.5886  -20.4069  -10.1057 C   0  0  0  0  0  0  0  0  0  0  0  0
   23.5464  -20.3824  -11.4913 C   0  0  0  0  0  0  0  0  0  0  0  0
   24.6069  -20.8146  -12.2602 C   0  0  0  0  0  0  0  0  0  0  0  0
   24.5838  -20.8034  -13.7357 C   0  0  0  0  0  0  0  0  0  0  0  0
   25.5334  -19.8250  -14.3646 C   0  0  2  0  0  0  0  0  0  0  0  0
   25.2586  -19.7986  -15.8109 N   0  0  0  0  0  0  0  0  0  0  0  0
   26.9589  -20.1583  -14.1325 C   0  0  0  0  0  0  0  0  0  0  0  0
   27.4468  -21.1602  -14.7392 O   0  0  0  0  0  0  0  0  0  0  0  0
   25.7202  -21.2757  -11.5672 C   0  0  0  0  0  0  0  0  0  0  0  0
   25.7659  -21.3016  -10.1888 C   0  0  0  0  0  0  0  0  0  0  0  0
   27.7322  -19.3620  -13.2514 N   0  0  0  0  0  0  0  0  0  0  0  0
   29.1313  -19.6369  -13.0203 C   0  0  0  0  0  0  0  0  0  0  0  0
   29.3114  -20.5851  -11.8963 C   0  0  0  0  0  0  0  0  0  0  0  0
   28.2936  -21.0210  -11.3116 O   0  0  0  0  0  0  0  0  0  0  0  0
   30.5623  -20.9758  -11.5059 O   0  0  0  0  0  0  0  0  0  0  0  0
  2  1  1  6
  2  4  1  0
  2  3  1  0
  4  6  1  0
  4  5  1  1
  6  7  2  0
  8  9  1  0
  9 10  2  0
 10 11  1  0
 12 11  2  0
 12 13  1  0
 14 13  1  1
 14 16  1  0
 15 14  1  0
 15  6  1  0
 16 20  1  0
 16 17  2  0
 18 12  1  0
 19  9  1  0
 19 18  2  0
 20 21  1  0
 22 24  1  0
 22 21  1  0
 23 22  2  0
M  END
$$$$
