VYG.pdb
     RDKit          3D

 24 24  0  0  1  0  0  0  0  0999 V2000
   25.6751  -22.6940  -18.7046 C   0  0  0  0  0  0  0  0  0  0  0  0
   26.7783  -21.7872  -18.2097 C   0  0  2  0  0  0  0  0  0  0  0  0
   27.7747  -21.4710  -19.2786 C   0  0  0  0  0  0  0  0  0  0  0  0
   27.4927  -22.3647  -17.0178 C   0  0  2  0  0  0  0  0  0  0  0  0
   28.1568  -23.5972  -17.2954 N   0  0  0  0  0  0  0  0  0  0  0  0
   26.5358  -22.4775  -15.8725 C   0  0  0  0  0  0  0  0  0  0  0  0
   25.9979  -23.5896  -15.6375 O   0  0  0  0  0  0  0  0  0  0  0  0
   22.7743  -20.6538   -8.0330 O   0  0  0  0  0  0  0  0  0  0  0  0
   23.5361  -20.6395   -9.1977 C   0  0  0  0  0  0  0  0  0  0  0  0
   23.0338  -20.0489  -10.3374 C   0  0  0  0  0  0  0  0  0  0  0  0
   23.7673  -20.0179  -11.5136 C   0  0  0  0  0  0  0  0  0  0  0  0
   25.0271  -20.5726  -11.6013 C   0  0  0  0  0  0  0  0  0  0  0  0
   25.8248  -20.5571  -12.8427 C   0  0  0  0  0  0  0  0  0  0  0  0
   25.2887  -21.4349  -13.9366 C   0  0  2  0  0  0  0  0  0  0  0  0
   26.2325  -21.3732  -15.0652 N   0  0  0  0  0  0  0  0  0  0  0  0
   23.9350  -21.0418  -14.3948 C   0  0  0  0  0  0  0  0  0  0  0  0
   23.8058  -19.9363  -15.0039 O   0  0  0  0  0  0  0  0  0  0  0  0
   25.5196  -21.1641  -10.4437 C   0  0  0  0  0  0  0  0  0  0  0  0
   24.7929  -21.1969   -9.2717 C   0  0  0  0  0  0  0  0  0  0  0  0
   22.8330  -21.8973  -14.1455 N   0  0  0  0  0  0  0  0  0  0  0  0
   21.5008  -21.5569  -14.5882 C   0  0  0  0  0  0  0  0  0  0  0  0
   20.5564  -21.5007  -13.4481 C   0  0  0  0  0  0  0  0  0  0  0  0
   20.0762  -20.3911  -13.1226 O   0  0  0  0  0  0  0  0  0  0  0  0
   20.2167  -22.6362  -12.7661 O   0  0  0  0  0  0  0  0  0  0  0  0
  2  1  1  6
  2  4  1  0
  2  3  1  0
  4  6  1  0
  4  5  1  6
  6  7  2  0
  8  9  1  0
  9 10  2  0
 10 11  1  0
 12 11  2  0
 12 13  1  0
 14 13  1  1
 14 16  1  0
 15 14  1  0
 15  6  1  0
 16 20  1  0
 16 17  2  0
 18 12  1  0
 19  9  1  0
 19 18  2  0
 20 21  1  0
 22 24  1  0
 22 21  1  0
 23 22  2  0
M  END
$$$$
