VYG.pdb
     RDKit          3D

 24 24  0  0  1  0  0  0  0  0999 V2000
   18.4536   -9.6095  -18.1769 C   0  0  0  0  0  0  0  0  0  0  0  0
   19.4875   -9.9034  -19.2394 C   0  0  2  0  0  0  0  0  0  0  0  0
   18.8712  -10.3974  -20.5090 C   0  0  0  0  0  0  0  0  0  0  0  0
   20.5173  -10.8939  -18.7673 C   0  0  2  0  0  0  0  0  0  0  0  0
   19.9817  -12.1914  -18.5093 N   0  0  0  0  0  0  0  0  0  0  0  0
   21.2423  -10.3304  -17.5854 C   0  0  0  0  0  0  0  0  0  0  0  0
   20.9211  -10.7194  -16.4336 O   0  0  0  0  0  0  0  0  0  0  0  0
   25.9511  -14.4689  -18.1254 O   0  0  0  0  0  0  0  0  0  0  0  0
   25.6020  -13.1563  -17.8214 C   0  0  0  0  0  0  0  0  0  0  0  0
   25.2982  -12.2757  -18.8374 C   0  0  0  0  0  0  0  0  0  0  0  0
   24.9468  -10.9617  -18.5681 C   0  0  0  0  0  0  0  0  0  0  0  0
   24.8843  -10.4738  -17.2794 C   0  0  0  0  0  0  0  0  0  0  0  0
   24.5184   -9.0785  -16.9679 C   0  0  0  0  0  0  0  0  0  0  0  0
   23.0719   -8.8789  -16.6181 C   0  0  2  0  0  0  0  0  0  0  0  0
   22.2644   -9.3845  -17.7408 N   0  0  0  0  0  0  0  0  0  0  0  0
   22.7228   -7.4638  -16.3486 C   0  0  0  0  0  0  0  0  0  0  0  0
   22.5464   -6.6907  -17.3391 O   0  0  0  0  0  0  0  0  0  0  0  0
   25.1933  -11.3740  -16.2663 C   0  0  0  0  0  0  0  0  0  0  0  0
   25.5432  -12.6819  -16.5302 C   0  0  0  0  0  0  0  0  0  0  0  0
   22.5961   -7.0140  -15.0107 N   0  0  0  0  0  0  0  0  0  0  0  0
   22.1888   -5.6619  -14.7066 C   0  0  0  0  0  0  0  0  0  0  0  0
   20.8602   -5.6381  -14.0516 C   0  0  0  0  0  0  0  0  0  0  0  0
   20.2197   -6.7099  -13.9575 O   0  0  0  0  0  0  0  0  0  0  0  0
   20.3446   -4.4708  -13.5603 O   0  0  0  0  0  0  0  0  0  0  0  0
  2  1  1  1
  2  4  1  0
  2  3  1  0
  4  6  1  0
  4  5  1  1
  6  7  2  0
  8  9  1  0
  9 10  2  0
 10 11  1  0
 12 11  2  0
 12 13  1  0
 14 13  1  6
 14 16  1  0
 15 14  1  0
 15  6  1  0
 16 20  1  0
 16 17  2  0
 18 12  1  0
 19  9  1  0
 19 18  2  0
 20 21  1  0
 22 24  1  0
 22 21  1  0
 23 22  2  0
M  END
$$$$
