VYG.pdb
     RDKit          3D

 24 24  0  0  1  0  0  0  0  0999 V2000
   28.3942  -20.9420   -7.8970 C   0  0  0  0  0  0  0  0  0  0  0  0
   27.3308  -20.5134   -8.8817 C   0  0  2  0  0  0  0  0  0  0  0  0
   25.9488  -20.7536   -8.3640 C   0  0  0  0  0  0  0  0  0  0  0  0
   27.4883  -21.1927  -10.2151 C   0  0  2  0  0  0  0  0  0  0  0  0
   28.8288  -21.1790  -10.7052 N   0  0  0  0  0  0  0  0  0  0  0  0
   26.5183  -20.6026  -11.1902 C   0  0  0  0  0  0  0  0  0  0  0  0
   26.7044  -19.4273  -11.5968 O   0  0  0  0  0  0  0  0  0  0  0  0
   20.8691  -20.0137  -17.9472 O   0  0  0  0  0  0  0  0  0  0  0  0
   21.7264  -20.4319  -16.9337 C   0  0  0  0  0  0  0  0  0  0  0  0
   22.8830  -19.7262  -16.6804 C   0  0  0  0  0  0  0  0  0  0  0  0
   23.7579  -20.1165  -15.6781 C   0  0  0  0  0  0  0  0  0  0  0  0
   23.5162  -21.2226  -14.8902 C   0  0  0  0  0  0  0  0  0  0  0  0
   24.4345  -21.6611  -13.8214 C   0  0  0  0  0  0  0  0  0  0  0  0
   24.4283  -20.7879  -12.6000 C   0  0  2  0  0  0  0  0  0  0  0  0
   25.4156  -21.3328  -11.6532 N   0  0  0  0  0  0  0  0  0  0  0  0
   23.1012  -20.7035  -11.9452 C   0  0  0  0  0  0  0  0  0  0  0  0
   22.7493  -21.6518  -11.1792 O   0  0  0  0  0  0  0  0  0  0  0  0
   22.3460  -21.9235  -15.1579 C   0  0  0  0  0  0  0  0  0  0  0  0
   21.4732  -21.5382  -16.1541 C   0  0  0  0  0  0  0  0  0  0  0  0
   22.2687  -19.5823  -12.1865 N   0  0  0  0  0  0  0  0  0  0  0  0
   20.9693  -19.4625  -11.5671 C   0  0  0  0  0  0  0  0  0  0  0  0
   19.9253  -20.1273  -12.3814 C   0  0  0  0  0  0  0  0  0  0  0  0
   20.2262  -21.1707  -13.0046 O   0  0  0  0  0  0  0  0  0  0  0  0
   18.6605  -19.6123  -12.4507 O   0  0  0  0  0  0  0  0  0  0  0  0
  2  1  1  1
  2  4  1  0
  2  3  1  0
  4  6  1  0
  4  5  1  6
  6  7  2  0
  8  9  1  0
  9 10  2  0
 10 11  1  0
 12 11  2  0
 12 13  1  0
 14 13  1  6
 14 16  1  0
 15 14  1  0
 15  6  1  0
 16 20  1  0
 16 17  2  0
 18 12  1  0
 19  9  1  0
 19 18  2  0
 20 21  1  0
 22 24  1  0
 22 21  1  0
 23 22  2  0
M  END
$$$$
