VYG.pdb
     RDKit          3D

 24 24  0  0  1  0  0  0  0  0999 V2000
   27.2607  -18.3196  -13.4614 C   0  0  0  0  0  0  0  0  0  0  0  0
   27.9850  -19.5678  -13.9104 C   0  0  2  0  0  0  0  0  0  0  0  0
   29.1194  -19.2632  -14.8356 C   0  0  0  0  0  0  0  0  0  0  0  0
   27.0576  -20.5542  -14.5672 C   0  0  2  0  0  0  0  0  0  0  0  0
   26.4165  -20.0412  -15.7346 N   0  0  0  0  0  0  0  0  0  0  0  0
   26.0788  -21.0639  -13.5561 C   0  0  0  0  0  0  0  0  0  0  0  0
   26.3787  -22.0799  -12.8787 O   0  0  0  0  0  0  0  0  0  0  0  0
   27.3804  -20.1312   -7.1404 O   0  0  0  0  0  0  0  0  0  0  0  0
   26.4560  -20.0682   -8.1790 C   0  0  0  0  0  0  0  0  0  0  0  0
   25.6055  -21.1293   -8.4041 C   0  0  0  0  0  0  0  0  0  0  0  0
   24.6735  -21.0978   -9.4302 C   0  0  0  0  0  0  0  0  0  0  0  0
   24.5520  -20.0110  -10.2709 C   0  0  0  0  0  0  0  0  0  0  0  0
   23.5721  -19.9562  -11.3729 C   0  0  0  0  0  0  0  0  0  0  0  0
   23.8029  -20.9656  -12.4603 C   0  0  2  0  0  0  0  0  0  0  0  0
   24.8443  -20.4324  -13.3544 N   0  0  0  0  0  0  0  0  0  0  0  0
   22.5827  -21.2752  -13.2428 C   0  0  0  0  0  0  0  0  0  0  0  0
   22.1882  -20.4262  -14.0991 O   0  0  0  0  0  0  0  0  0  0  0  0
   25.4165  -18.9493  -10.0309 C   0  0  0  0  0  0  0  0  0  0  0  0
   26.3449  -18.9769   -9.0111 C   0  0  0  0  0  0  0  0  0  0  0  0
   21.8955  -22.4943  -13.0194 N   0  0  0  0  0  0  0  0  0  0  0  0
   20.7355  -22.8582  -13.7995 C   0  0  0  0  0  0  0  0  0  0  0  0
   19.5187  -22.1780  -13.2978 C   0  0  0  0  0  0  0  0  0  0  0  0
   19.5194  -20.9282  -13.2226 O   0  0  0  0  0  0  0  0  0  0  0  0
   18.4188  -22.8998  -12.9250 O   0  0  0  0  0  0  0  0  0  0  0  0
  2  1  1  6
  2  4  1  0
  2  3  1  0
  4  6  1  0
  4  5  1  6
  6  7  2  0
  8  9  1  0
  9 10  2  0
 10 11  1  0
 12 11  2  0
 12 13  1  0
 14 13  1  1
 14 16  1  0
 15 14  1  0
 15  6  1  0
 16 20  1  0
 16 17  2  0
 18 12  1  0
 19  9  1  0
 19 18  2  0
 20 21  1  0
 22 24  1  0
 22 21  1  0
 23 22  2  0
M  END
$$$$
