VYG.pdb
     RDKit          3D

 24 24  0  0  1  0  0  0  0  0999 V2000
   25.0297  -10.8571  -16.7749 C   0  0  0  0  0  0  0  0  0  0  0  0
   24.3967  -11.5596  -15.5959 C   0  0  2  0  0  0  0  0  0  0  0  0
   25.1198  -12.8159  -15.2294 C   0  0  0  0  0  0  0  0  0  0  0  0
   22.9448  -11.8728  -15.8373 C   0  0  2  0  0  0  0  0  0  0  0  0
   22.7318  -12.7876  -16.9120 N   0  0  0  0  0  0  0  0  0  0  0  0
   22.1848  -10.5958  -16.0158 C   0  0  0  0  0  0  0  0  0  0  0  0
   22.0189  -10.1449  -17.1778 O   0  0  0  0  0  0  0  0  0  0  0  0
   16.5516  -12.0528  -18.4530 O   0  0  0  0  0  0  0  0  0  0  0  0
   17.2658  -11.3182  -17.5109 C   0  0  0  0  0  0  0  0  0  0  0  0
   17.3733   -9.9507  -17.6469 C   0  0  0  0  0  0  0  0  0  0  0  0
   18.0775   -9.1903  -16.7259 C   0  0  0  0  0  0  0  0  0  0  0  0
   18.7012   -9.7602  -15.6356 C   0  0  0  0  0  0  0  0  0  0  0  0
   19.4608   -8.9730  -14.6451 C   0  0  0  0  0  0  0  0  0  0  0  0
   20.8734   -8.6631  -15.0491 C   0  0  2  0  0  0  0  0  0  0  0  0
   21.6599   -9.9010  -14.9181 N   0  0  0  0  0  0  0  0  0  0  0  0
   21.4937   -7.5884  -14.2383 C   0  0  0  0  0  0  0  0  0  0  0  0
   22.0085   -7.9012  -13.1217 O   0  0  0  0  0  0  0  0  0  0  0  0
   18.5835  -11.1397  -15.5124 C   0  0  0  0  0  0  0  0  0  0  0  0
   17.8837  -11.8996  -16.4266 C   0  0  0  0  0  0  0  0  0  0  0  0
   21.4972   -6.2564  -14.7222 N   0  0  0  0  0  0  0  0  0  0  0  0
   22.1815   -5.2000  -14.0136 C   0  0  0  0  0  0  0  0  0  0  0  0
   21.9856   -3.8929  -14.6828 C   0  0  0  0  0  0  0  0  0  0  0  0
   21.9467   -3.8606  -15.9339 O   0  0  0  0  0  0  0  0  0  0  0  0
   21.8500   -2.7465  -13.9498 O   0  0  0  0  0  0  0  0  0  0  0  0
  2  1  1  6
  2  4  1  0
  2  3  1  0
  4  6  1  0
  4  5  1  6
  6  7  2  0
  8  9  1  0
  9 10  2  0
 10 11  1  0
 12 11  2  0
 12 13  1  0
 14 13  1  1
 14 16  1  0
 15 14  1  0
 15  6  1  0
 16 20  1  0
 16 17  2  0
 18 12  1  0
 19  9  1  0
 19 18  2  0
 20 21  1  0
 22 24  1  0
 22 21  1  0
 23 22  2  0
M  END
$$$$
