WCC.pdb
     RDKit          3D

 27 28  0  0  1  0  0  0  0  0999 V2000
    6.3167  -17.4669   25.1736 N   0  0  0  0  0  0  0  0  0  0  0  0
    6.9340  -16.2866   24.6082 C   0  0  1  0  0  0  0  0  0  0  0  0
    8.2528  -15.9687   25.2784 C   0  0  0  0  0  0  0  0  0  0  0  0
    8.1431  -14.9558   26.3515 C   0  0  0  0  0  0  0  0  0  0  0  0
    8.5119  -15.1347   27.6681 C   0  0  0  0  0  0  0  0  0  0  0  0
    8.2534  -14.0095   28.3836 N   0  0  0  0  0  0  0  0  0  0  0  0
    7.7224  -13.0951   27.5643 C   0  0  0  0  0  0  0  0  0  0  0  0
    7.2996  -11.8071   27.8095 C   0  0  0  0  0  0  0  0  0  0  0  0
    6.7842  -11.0520   26.7695 C   0  0  0  0  0  0  0  0  0  0  0  0
    6.7084  -11.6017   25.5288 C   0  0  0  0  0  0  0  0  0  0  0  0
    7.1387  -12.9009   25.3001 C   0  0  0  0  0  0  0  0  0  0  0  0
    7.6483  -13.6721   26.2931 C   0  0  0  0  0  0  0  0  0  0  0  0
    7.0295  -16.4494   23.1578 C   0  0  0  0  0  0  0  0  0  0  0  0
    7.3054  -17.5736   22.6685 O   0  0  0  0  0  0  0  0  0  0  0  0
    6.8236  -15.3870   22.2019 N   0  0  0  0  0  0  0  0  0  0  0  0
    7.5649  -15.3532   20.9533 C   0  0  1  0  0  0  0  0  0  0  0  0
    7.3813  -13.9637   20.3103 C   0  0  0  0  0  0  0  0  0  0  0  0
    8.2379  -13.8785   18.7247 S   0  0  0  0  0  0  0  0  0  0  0  0
    8.9776  -15.6957   21.0670 C   0  0  0  0  0  0  0  0  0  0  0  0
    9.7320  -14.9062   21.7345 O   0  0  0  0  0  0  0  0  0  0  0  0
    9.6403  -16.8207   20.5212 N   0  0  0  0  0  0  0  0  0  0  0  0
   11.0798  -16.9358   20.4546 C   0  0  1  0  0  0  0  0  0  0  0  0
   11.5868  -18.1177   21.2600 C   0  0  0  0  0  0  0  0  0  0  0  0
   10.8824  -17.9771   22.9262 S   0  0  0  0  0  0  0  0  0  0  0  0
   11.6322  -16.9539   19.1025 C   0  0  0  0  0  0  0  0  0  0  0  0
   10.8428  -16.8781   18.1171 O   0  0  0  0  0  0  0  0  0  0  0  0
   12.9851  -17.0493   18.8165 O   0  0  0  0  0  0  0  0  0  0  0  0
  2  1  1  1
  3  2  1  0
  3  4  1  0
  4  5  2  0
  6  5  1  0
  7  6  1  0
  8  7  2  0
  9  8  1  0
 10  9  2  0
 10 11  1  0
 11 12  2  0
 12  7  1  0
 12  4  1  0
 13 14  2  0
 13  2  1  0
 15 13  1  0
 16 15  1  0
 16 17  1  1
 18 17  1  0
 19 16  1  0
 19 21  1  0
 20 19  2  0
 22 21  1  0
 22 25  1  0
 22 23  1  6
 23 24  1  0
 25 26  2  0
 25 27  1  0
M  END
$$$$
