WCC.pdb
     RDKit          3D

 27 28  0  0  1  0  0  0  0  0999 V2000
    6.2162  -18.4461   24.1655 N   0  0  0  0  0  0  0  0  0  0  0  0
    6.7619  -17.1255   23.9373 C   0  0  1  0  0  0  0  0  0  0  0  0
    7.5525  -16.6326   25.1296 C   0  0  0  0  0  0  0  0  0  0  0  0
    6.9694  -15.4342   25.7727 C   0  0  0  0  0  0  0  0  0  0  0  0
    5.7060  -15.3478   26.3184 C   0  0  0  0  0  0  0  0  0  0  0  0
    5.4897  -14.0971   26.8021 N   0  0  0  0  0  0  0  0  0  0  0  0
    6.5848  -13.3602   26.5856 C   0  0  0  0  0  0  0  0  0  0  0  0
    6.8581  -12.0456   26.8936 C   0  0  0  0  0  0  0  0  0  0  0  0
    8.0925  -11.5129   26.5619 C   0  0  0  0  0  0  0  0  0  0  0  0
    9.0068  -12.3027   25.9395 C   0  0  0  0  0  0  0  0  0  0  0  0
    8.7143  -13.6249   25.6367 C   0  0  0  0  0  0  0  0  0  0  0  0
    7.5163  -14.1822   25.9445 C   0  0  0  0  0  0  0  0  0  0  0  0
    7.5189  -17.1344   22.6859 C   0  0  0  0  0  0  0  0  0  0  0  0
    8.0496  -18.1988   22.2801 O   0  0  0  0  0  0  0  0  0  0  0  0
    7.7147  -15.9791   21.8422 N   0  0  0  0  0  0  0  0  0  0  0  0
    8.7315  -15.9768   20.8050 C   0  0  1  0  0  0  0  0  0  0  0  0
    8.5260  -14.7321   19.9182 C   0  0  0  0  0  0  0  0  0  0  0  0
    6.7683  -14.3798   19.7139 S   0  0  0  0  0  0  0  0  0  0  0  0
   10.1046  -16.0543   21.2894 C   0  0  0  0  0  0  0  0  0  0  0  0
   11.0468  -15.8288   20.4532 O   0  0  0  0  0  0  0  0  0  0  0  0
   10.5419  -16.3530   22.6018 N   0  0  0  0  0  0  0  0  0  0  0  0
   11.9368  -16.4649   22.9647 C   0  0  1  0  0  0  0  0  0  0  0  0
   12.1662  -16.1252   24.4257 C   0  0  0  0  0  0  0  0  0  0  0  0
   11.2242  -14.6163   24.7833 S   0  0  0  0  0  0  0  0  0  0  0  0
   12.5590  -17.7421   22.6249 C   0  0  0  0  0  0  0  0  0  0  0  0
   11.8326  -18.6796   22.1852 O   0  0  0  0  0  0  0  0  0  0  0  0
   13.9139  -18.0049   22.7515 O   0  0  0  0  0  0  0  0  0  0  0  0
  2  1  1  1
  3  2  1  0
  3  4  1  0
  4  5  2  0
  6  5  1  0
  7  6  1  0
  8  7  2  0
  9  8  1  0
 10  9  2  0
 10 11  1  0
 11 12  2  0
 12  7  1  0
 12  4  1  0
 13 14  2  0
 13  2  1  0
 15 13  1  0
 16 15  1  0
 16 17  1  1
 18 17  1  0
 19 16  1  0
 19 21  1  0
 20 19  2  0
 22 21  1  0
 22 25  1  0
 22 23  1  1
 23 24  1  0
 25 26  2  0
 25 27  1  0
M  END
$$$$
