WCC.pdb
     RDKit          3D

 27 28  0  0  1  0  0  0  0  0999 V2000
    6.2702  -18.3386   24.6375 N   0  0  0  0  0  0  0  0  0  0  0  0
    6.8320  -17.1022   24.1379 C   0  0  1  0  0  0  0  0  0  0  0  0
    7.6472  -16.3901   25.1951 C   0  0  0  0  0  0  0  0  0  0  0  0
    6.9528  -15.2303   25.7972 C   0  0  0  0  0  0  0  0  0  0  0  0
    5.6850  -15.2436   26.3394 C   0  0  0  0  0  0  0  0  0  0  0  0
    5.3515  -14.0030   26.7803 N   0  0  0  0  0  0  0  0  0  0  0  0
    6.3739  -13.1749   26.5391 C   0  0  0  0  0  0  0  0  0  0  0  0
    6.5224  -11.8308   26.8022 C   0  0  0  0  0  0  0  0  0  0  0  0
    7.7029  -11.1968   26.4528 C   0  0  0  0  0  0  0  0  0  0  0  0
    8.6889  -11.9185   25.8576 C   0  0  0  0  0  0  0  0  0  0  0  0
    8.5219  -13.2716   25.5999 C   0  0  0  0  0  0  0  0  0  0  0  0
    7.3801  -13.9276   25.9263 C   0  0  0  0  0  0  0  0  0  0  0  0
    7.5706  -17.3800   22.9063 C   0  0  0  0  0  0  0  0  0  0  0  0
    8.3384  -18.3729   22.8445 O   0  0  0  0  0  0  0  0  0  0  0  0
    7.4880  -16.5801   21.7071 N   0  0  0  0  0  0  0  0  0  0  0  0
    8.5731  -16.5693   20.7416 C   0  0  1  0  0  0  0  0  0  0  0  0
    8.2773  -15.4888   19.6820 C   0  0  0  0  0  0  0  0  0  0  0  0
    9.5726  -15.4578   18.4264 S   0  0  0  0  0  0  0  0  0  0  0  0
    9.9030  -16.3930   21.3128 C   0  0  0  0  0  0  0  0  0  0  0  0
   10.0947  -15.3881   22.0817 O   0  0  0  0  0  0  0  0  0  0  0  0
   11.0402  -17.2137   21.1230 N   0  0  0  0  0  0  0  0  0  0  0  0
   12.3306  -16.9252   21.7074 C   0  0  1  0  0  0  0  0  0  0  0  0
   12.2471  -16.7937   23.2168 C   0  0  0  0  0  0  0  0  0  0  0  0
   11.6061  -18.3643   23.8606 S   0  0  0  0  0  0  0  0  0  0  0  0
   13.3976  -17.8467   21.3249 C   0  0  0  0  0  0  0  0  0  0  0  0
   14.5906  -17.5666   21.6383 O   0  0  0  0  0  0  0  0  0  0  0  0
   13.1923  -19.0286   20.6307 O   0  0  0  0  0  0  0  0  0  0  0  0
  2  1  1  1
  3  2  1  0
  3  4  1  0
  4  5  2  0
  6  5  1  0
  7  6  1  0
  8  7  2  0
  9  8  1  0
 10  9  2  0
 10 11  1  0
 11 12  2  0
 12  7  1  0
 12  4  1  0
 13 14  2  0
 13  2  1  0
 15 13  1  0
 16 15  1  0
 16 17  1  6
 18 17  1  0
 19 16  1  0
 19 21  1  0
 20 19  2  0
 22 21  1  0
 22 25  1  0
 22 23  1  1
 23 24  1  0
 25 26  2  0
 25 27  1  0
M  END
$$$$
