WCC.pdb
     RDKit          3D

 27 28  0  0  1  0  0  0  0  0999 V2000
    6.1519  -18.2010   24.2600 N   0  0  0  0  0  0  0  0  0  0  0  0
    6.5292  -16.8178   24.0644 C   0  0  1  0  0  0  0  0  0  0  0  0
    7.3635  -16.2969   25.2142 C   0  0  0  0  0  0  0  0  0  0  0  0
    6.7890  -15.1006   25.8688 C   0  0  0  0  0  0  0  0  0  0  0  0
    5.5109  -14.9960   26.3758 C   0  0  0  0  0  0  0  0  0  0  0  0
    5.3094  -13.7527   26.8841 N   0  0  0  0  0  0  0  0  0  0  0  0
    6.4286  -13.0384   26.7216 C   0  0  0  0  0  0  0  0  0  0  0  0
    6.7234  -11.7390   27.0716 C   0  0  0  0  0  0  0  0  0  0  0  0
    7.9806  -11.2294   26.7934 C   0  0  0  0  0  0  0  0  0  0  0  0
    8.8952  -12.0262   26.1805 C   0  0  0  0  0  0  0  0  0  0  0  0
    8.5808  -13.3327   25.8349 C   0  0  0  0  0  0  0  0  0  0  0  0
    7.3602  -13.8673   26.0898 C   0  0  0  0  0  0  0  0  0  0  0  0
    7.1699  -16.6810   22.7566 C   0  0  0  0  0  0  0  0  0  0  0  0
    7.9242  -17.5902   22.3282 O   0  0  0  0  0  0  0  0  0  0  0  0
    7.0014  -15.5460   21.8800 N   0  0  0  0  0  0  0  0  0  0  0  0
    7.8292  -15.3881   20.6970 C   0  0  1  0  0  0  0  0  0  0  0  0
    7.5252  -14.0151   20.0643 C   0  0  0  0  0  0  0  0  0  0  0  0
    8.5345  -13.7561   18.5914 S   0  0  0  0  0  0  0  0  0  0  0  0
    9.2601  -15.5571   20.9204 C   0  0  0  0  0  0  0  0  0  0  0  0
    9.8393  -14.7464   21.7236 O   0  0  0  0  0  0  0  0  0  0  0  0
   10.1145  -16.5301   20.3493 N   0  0  0  0  0  0  0  0  0  0  0  0
   11.5514  -16.5116   20.5067 C   0  0  1  0  0  0  0  0  0  0  0  0
   12.0309  -17.6236   21.4210 C   0  0  0  0  0  0  0  0  0  0  0  0
   11.4030  -17.2627   23.0846 S   0  0  0  0  0  0  0  0  0  0  0  0
   12.3059  -16.5065   19.2559 C   0  0  0  0  0  0  0  0  0  0  0  0
   11.6763  -16.5663   18.1604 O   0  0  0  0  0  0  0  0  0  0  0  0
   13.6883  -16.4389   19.1820 O   0  0  0  0  0  0  0  0  0  0  0  0
  2  1  1  1
  3  2  1  0
  3  4  1  0
  4  5  2  0
  6  5  1  0
  7  6  1  0
  8  7  2  0
  9  8  1  0
 10  9  2  0
 10 11  1  0
 11 12  2  0
 12  7  1  0
 12  4  1  0
 13 14  2  0
 13  2  1  0
 15 13  1  0
 16 15  1  0
 16 17  1  1
 18 17  1  0
 19 16  1  0
 19 21  1  0
 20 19  2  0
 22 21  1  0
 22 25  1  0
 22 23  1  1
 23 24  1  0
 25 26  2  0
 25 27  1  0
M  END
$$$$
