WCC.pdb
     RDKit          3D

 27 28  0  0  1  0  0  0  0  0999 V2000
    6.6783  -17.3351   24.7784 N   0  0  0  0  0  0  0  0  0  0  0  0
    6.6454  -16.1552   23.9413 C   0  0  1  0  0  0  0  0  0  0  0  0
    7.7870  -15.2133   24.2559 C   0  0  0  0  0  0  0  0  0  0  0  0
    7.7354  -14.6566   25.6260 C   0  0  0  0  0  0  0  0  0  0  0  0
    8.0654  -15.3316   26.7822 C   0  0  0  0  0  0  0  0  0  0  0  0
    7.8805  -14.5286   27.8619 N   0  0  0  0  0  0  0  0  0  0  0  0
    7.4359  -13.3401   27.4390 C   0  0  0  0  0  0  0  0  0  0  0  0
    7.1083  -12.2017   28.1422 C   0  0  0  0  0  0  0  0  0  0  0  0
    6.6710  -11.0815   27.4554 C   0  0  0  0  0  0  0  0  0  0  0  0
    6.5761  -11.1330   26.1006 C   0  0  0  0  0  0  0  0  0  0  0  0
    6.9101  -12.2883   25.4086 C   0  0  0  0  0  0  0  0  0  0  0  0
    7.3412  -13.4058   26.0458 C   0  0  0  0  0  0  0  0  0  0  0  0
    6.5868  -16.5692   22.5396 C   0  0  0  0  0  0  0  0  0  0  0  0
    5.4859  -16.5814   21.9336 O   0  0  0  0  0  0  0  0  0  0  0  0
    7.7316  -16.9795   21.7613 N   0  0  0  0  0  0  0  0  0  0  0  0
    8.4746  -16.0190   20.9644 C   0  0  1  0  0  0  0  0  0  0  0  0
    7.8661  -14.6198   21.1880 C   0  0  0  0  0  0  0  0  0  0  0  0
    7.7847  -13.7060   19.6345 S   0  0  0  0  0  0  0  0  0  0  0  0
    9.9138  -16.0081   21.1980 C   0  0  0  0  0  0  0  0  0  0  0  0
   10.4362  -14.9347   21.6594 O   0  0  0  0  0  0  0  0  0  0  0  0
   10.8328  -17.0612   20.9762 N   0  0  0  0  0  0  0  0  0  0  0  0
   12.2635  -16.9048   21.1127 C   0  0  1  0  0  0  0  0  0  0  0  0
   12.7655  -17.4571   22.4339 C   0  0  0  0  0  0  0  0  0  0  0  0
   11.5756  -18.7128   22.9809 S   0  0  0  0  0  0  0  0  0  0  0  0
   13.0476  -17.4315   19.9985 C   0  0  0  0  0  0  0  0  0  0  0  0
   12.4638  -18.1112   19.1057 O   0  0  0  0  0  0  0  0  0  0  0  0
   14.4112  -17.2354   19.8462 O   0  0  0  0  0  0  0  0  0  0  0  0
  2  1  1  1
  3  2  1  0
  3  4  1  0
  4  5  2  0
  6  5  1  0
  7  6  1  0
  8  7  2  0
  9  8  1  0
 10  9  2  0
 10 11  1  0
 11 12  2  0
 12  7  1  0
 12  4  1  0
 13 14  2  0
 13  2  1  0
 15 13  1  0
 16 15  1  0
 16 17  1  1
 18 17  1  0
 19 16  1  0
 19 21  1  0
 20 19  2  0
 22 21  1  0
 22 25  1  0
 22 23  1  1
 23 24  1  0
 25 26  2  0
 25 27  1  0
M  END
$$$$
