WCC.pdb
     RDKit          3D

 27 28  0  0  1  0  0  0  0  0999 V2000
    6.5648  -17.9288   24.0730 N   0  0  0  0  0  0  0  0  0  0  0  0
    7.1494  -16.6325   23.8051 C   0  0  1  0  0  0  0  0  0  0  0  0
    7.8964  -16.0960   25.0066 C   0  0  0  0  0  0  0  0  0  0  0  0
    7.1112  -15.1337   25.8111 C   0  0  0  0  0  0  0  0  0  0  0  0
    5.9965  -15.4353   26.5647 C   0  0  0  0  0  0  0  0  0  0  0  0
    5.5120  -14.3116   27.1541 N   0  0  0  0  0  0  0  0  0  0  0  0
    6.2854  -13.2781   26.8035 C   0  0  0  0  0  0  0  0  0  0  0  0
    6.2105  -11.9448   27.1421 C   0  0  0  0  0  0  0  0  0  0  0  0
    7.1541  -11.0632   26.6422 C   0  0  0  0  0  0  0  0  0  0  0  0
    8.1340  -11.5366   25.8279 C   0  0  0  0  0  0  0  0  0  0  0  0
    8.1939  -12.8828   25.4972 C   0  0  0  0  0  0  0  0  0  0  0  0
    7.2875  -13.7768   25.9660 C   0  0  0  0  0  0  0  0  0  0  0  0
    7.9617  -16.7198   22.5918 C   0  0  0  0  0  0  0  0  0  0  0  0
    8.7537  -17.6826   22.4338 O   0  0  0  0  0  0  0  0  0  0  0  0
    7.9284  -15.7568   21.5164 N   0  0  0  0  0  0  0  0  0  0  0  0
    9.0235  -15.6610   20.5671 C   0  0  1  0  0  0  0  0  0  0  0  0
    8.7205  -14.5143   19.5815 C   0  0  0  0  0  0  0  0  0  0  0  0
    7.1338  -14.7801   18.7649 S   0  0  0  0  0  0  0  0  0  0  0  0
   10.3439  -15.5031   21.1649 C   0  0  0  0  0  0  0  0  0  0  0  0
   10.4616  -14.6928   22.1485 O   0  0  0  0  0  0  0  0  0  0  0  0
   11.5453  -16.1497   20.7888 N   0  0  0  0  0  0  0  0  0  0  0  0
   12.5845  -16.4990   21.7311 C   0  0  1  0  0  0  0  0  0  0  0  0
   12.0283  -17.2439   22.9304 C   0  0  0  0  0  0  0  0  0  0  0  0
   12.7698  -16.5083   24.4139 S   0  0  0  0  0  0  0  0  0  0  0  0
   13.7194  -17.2161   21.1554 C   0  0  0  0  0  0  0  0  0  0  0  0
   14.8086  -17.2556   21.7974 O   0  0  0  0  0  0  0  0  0  0  0  0
   13.6875  -17.8692   19.9333 O   0  0  0  0  0  0  0  0  0  0  0  0
  2  1  1  1
  3  2  1  0
  3  4  1  0
  4  5  2  0
  6  5  1  0
  7  6  1  0
  8  7  2  0
  9  8  1  0
 10  9  2  0
 10 11  1  0
 11 12  2  0
 12  7  1  0
 12  4  1  0
 13 14  2  0
 13  2  1  0
 15 13  1  0
 16 15  1  0
 16 17  1  6
 18 17  1  0
 19 16  1  0
 19 21  1  0
 20 19  2  0
 22 21  1  0
 22 25  1  0
 22 23  1  1
 23 24  1  0
 25 26  2  0
 25 27  1  0
M  END
$$$$
