WCC.pdb
     RDKit          3D

 27 28  0  0  1  0  0  0  0  0999 V2000
    6.1770  -17.1228   24.7176 N   0  0  0  0  0  0  0  0  0  0  0  0
    6.8182  -15.9787   24.1060 C   0  0  1  0  0  0  0  0  0  0  0  0
    7.9932  -15.4910   24.9252 C   0  0  0  0  0  0  0  0  0  0  0  0
    7.5989  -14.7611   26.1506 C   0  0  0  0  0  0  0  0  0  0  0  0
    7.4529  -15.3142   27.4053 C   0  0  0  0  0  0  0  0  0  0  0  0
    7.0589  -14.3643   28.2925 N   0  0  0  0  0  0  0  0  0  0  0  0
    6.9430  -13.1986   27.6468 C   0  0  0  0  0  0  0  0  0  0  0  0
    6.5799  -11.9509   28.1040 C   0  0  0  0  0  0  0  0  0  0  0  0
    6.5431  -10.8872   27.2180 C   0  0  0  0  0  0  0  0  0  0  0  0
    6.8674  -11.1012   25.9156 C   0  0  0  0  0  0  0  0  0  0  0  0
    7.2306  -12.3650   25.4725 C   0  0  0  0  0  0  0  0  0  0  0  0
    7.2774  -13.4316   26.3095 C   0  0  0  0  0  0  0  0  0  0  0  0
    7.1560  -16.3078   22.7215 C   0  0  0  0  0  0  0  0  0  0  0  0
    7.7444  -17.3864   22.4575 O   0  0  0  0  0  0  0  0  0  0  0  0
    6.8574  -15.4665   21.5865 N   0  0  0  0  0  0  0  0  0  0  0  0
    7.8181  -15.2974   20.5104 C   0  0  1  0  0  0  0  0  0  0  0  0
    7.4791  -14.0004   19.7483 C   0  0  0  0  0  0  0  0  0  0  0  0
    8.5673  -13.7968   18.3238 S   0  0  0  0  0  0  0  0  0  0  0  0
    9.2157  -15.3112   20.9256 C   0  0  0  0  0  0  0  0  0  0  0  0
    9.5269  -14.6851   21.9976 O   0  0  0  0  0  0  0  0  0  0  0  0
   10.3026  -15.9470   20.2794 N   0  0  0  0  0  0  0  0  0  0  0  0
   11.5247  -16.3111   20.9602 C   0  0  1  0  0  0  0  0  0  0  0  0
   11.2483  -17.0872   22.2345 C   0  0  0  0  0  0  0  0  0  0  0  0
   11.5898  -15.9763   23.6277 S   0  0  0  0  0  0  0  0  0  0  0  0
   12.5053  -17.0073   20.1309 C   0  0  0  0  0  0  0  0  0  0  0  0
   12.0972  -17.8155   19.2477 O   0  0  0  0  0  0  0  0  0  0  0  0
   13.8767  -16.8419   20.2443 O   0  0  0  0  0  0  0  0  0  0  0  0
  2  1  1  1
  3  2  1  0
  3  4  1  0
  4  5  2  0
  6  5  1  0
  7  6  1  0
  8  7  2  0
  9  8  1  0
 10  9  2  0
 10 11  1  0
 11 12  2  0
 12  7  1  0
 12  4  1  0
 13 14  2  0
 13  2  1  0
 15 13  1  0
 16 15  1  0
 16 17  1  1
 18 17  1  0
 19 16  1  0
 19 21  1  0
 20 19  2  0
 22 21  1  0
 22 25  1  0
 22 23  1  1
 23 24  1  0
 25 26  2  0
 25 27  1  0
M  END
$$$$
