WCC.pdb
     RDKit          3D

 27 28  0  0  1  0  0  0  0  0999 V2000
   10.1364  -16.3011   22.0809 N   0  0  0  0  0  0  0  0  0  0  0  0
    9.7620  -15.6855   23.3358 C   0  0  1  0  0  0  0  0  0  0  0  0
    8.3144  -15.9565   23.6825 C   0  0  0  0  0  0  0  0  0  0  0  0
    7.4757  -14.7379   23.7190 C   0  0  0  0  0  0  0  0  0  0  0  0
    6.8250  -14.1758   22.6410 C   0  0  0  0  0  0  0  0  0  0  0  0
    6.1662  -13.0521   23.0259 N   0  0  0  0  0  0  0  0  0  0  0  0
    6.3705  -12.8644   24.3344 C   0  0  0  0  0  0  0  0  0  0  0  0
    5.9158  -11.8781   25.1819 C   0  0  0  0  0  0  0  0  0  0  0  0
    6.2717  -11.9151   26.5197 C   0  0  0  0  0  0  0  0  0  0  0  0
    7.0627  -12.9268   26.9647 C   0  0  0  0  0  0  0  0  0  0  0  0
    7.5117  -13.9118   26.0967 C   0  0  0  0  0  0  0  0  0  0  0  0
    7.1855  -13.9092   24.7798 C   0  0  0  0  0  0  0  0  0  0  0  0
   10.7081  -16.1029   24.3702 C   0  0  0  0  0  0  0  0  0  0  0  0
   11.5084  -17.0457   24.1463 O   0  0  0  0  0  0  0  0  0  0  0  0
   10.8065  -15.4990   25.6780 N   0  0  0  0  0  0  0  0  0  0  0  0
   11.7083  -16.0364   26.6817 C   0  0  1  0  0  0  0  0  0  0  0  0
   11.8393  -15.0097   27.8248 C   0  0  0  0  0  0  0  0  0  0  0  0
   10.2595  -14.7920   28.6684 S   0  0  0  0  0  0  0  0  0  0  0  0
   11.3426  -17.3505   27.1969 C   0  0  0  0  0  0  0  0  0  0  0  0
   10.1130  -17.5589   27.4839 O   0  0  0  0  0  0  0  0  0  0  0  0
   12.1954  -18.4567   27.4250 N   0  0  0  0  0  0  0  0  0  0  0  0
   11.7303  -19.7177   27.9573 C   0  0  1  0  0  0  0  0  0  0  0  0
   12.7688  -20.8125   27.7973 C   0  0  0  0  0  0  0  0  0  0  0  0
   14.3632  -20.1248   28.3237 S   0  0  0  0  0  0  0  0  0  0  0  0
   11.2438  -19.6610   29.3335 C   0  0  0  0  0  0  0  0  0  0  0  0
   11.4049  -18.5961   29.9968 O   0  0  0  0  0  0  0  0  0  0  0  0
   10.6057  -20.7101   29.9765 O   0  0  0  0  0  0  0  0  0  0  0  0
  2  1  1  6
  3  2  1  0
  3  4  1  0
  4  5  2  0
  6  5  1  0
  7  6  1  0
  8  7  2  0
  9  8  1  0
 10  9  2  0
 10 11  1  0
 11 12  2  0
 12  7  1  0
 12  4  1  0
 13 14  2  0
 13  2  1  0
 15 13  1  0
 16 15  1  0
 16 17  1  1
 18 17  1  0
 19 16  1  0
 19 21  1  0
 20 19  2  0
 22 21  1  0
 22 25  1  0
 22 23  1  1
 23 24  1  0
 25 26  2  0
 25 27  1  0
M  END
$$$$
