WCC.pdb
     RDKit          3D

 27 28  0  0  1  0  0  0  0  0999 V2000
    6.3255  -18.6247   24.9929 N   0  0  0  0  0  0  0  0  0  0  0  0
    6.6447  -17.2505   24.6710 C   0  0  1  0  0  0  0  0  0  0  0  0
    7.4431  -16.5882   25.7725 C   0  0  0  0  0  0  0  0  0  0  0  0
    6.9130  -15.2669   26.1761 C   0  0  0  0  0  0  0  0  0  0  0  0
    5.5936  -14.9801   26.4559 C   0  0  0  0  0  0  0  0  0  0  0  0
    5.4568  -13.6658   26.7700 N   0  0  0  0  0  0  0  0  0  0  0  0
    6.6590  -13.0832   26.7025 C   0  0  0  0  0  0  0  0  0  0  0  0
    7.0395  -11.7796   26.9340 C   0  0  0  0  0  0  0  0  0  0  0  0
    8.3720  -11.4272   26.8000 C   0  0  0  0  0  0  0  0  0  0  0  0
    9.2740  -12.3791   26.4430 C   0  0  0  0  0  0  0  0  0  0  0  0
    8.8727  -13.6873   26.2135 C   0  0  0  0  0  0  0  0  0  0  0  0
    7.5770  -14.0708   26.3335 C   0  0  0  0  0  0  0  0  0  0  0  0
    7.2932  -17.2083   23.3606 C   0  0  0  0  0  0  0  0  0  0  0  0
    8.1714  -18.0577   23.0664 O   0  0  0  0  0  0  0  0  0  0  0  0
    6.9971  -16.2366   22.3344 N   0  0  0  0  0  0  0  0  0  0  0  0
    7.9970  -15.8649   21.3487 C   0  0  1  0  0  0  0  0  0  0  0  0
    7.4794  -14.6453   20.5596 C   0  0  0  0  0  0  0  0  0  0  0  0
    8.7017  -14.1074   19.3463 S   0  0  0  0  0  0  0  0  0  0  0  0
    9.3285  -15.6140   21.8873 C   0  0  0  0  0  0  0  0  0  0  0  0
    9.5054  -14.5462   22.5702 O   0  0  0  0  0  0  0  0  0  0  0  0
   10.4820  -16.4224   21.7504 N   0  0  0  0  0  0  0  0  0  0  0  0
   11.8068  -15.9804   22.1237 C   0  0  1  0  0  0  0  0  0  0  0  0
   12.0483  -16.1255   23.6147 C   0  0  0  0  0  0  0  0  0  0  0  0
   11.3382  -17.7155   24.1241 S   0  0  0  0  0  0  0  0  0  0  0  0
   12.8942  -16.5876   21.3604 C   0  0  0  0  0  0  0  0  0  0  0  0
   14.0740  -16.1649   21.5324 O   0  0  0  0  0  0  0  0  0  0  0  0
   12.7228  -17.6136   20.4444 O   0  0  0  0  0  0  0  0  0  0  0  0
  2  1  1  1
  3  2  1  0
  3  4  1  0
  4  5  2  0
  6  5  1  0
  7  6  1  0
  8  7  2  0
  9  8  1  0
 10  9  2  0
 10 11  1  0
 11 12  2  0
 12  7  1  0
 12  4  1  0
 13 14  2  0
 13  2  1  0
 15 13  1  0
 16 15  1  0
 16 17  1  1
 18 17  1  0
 19 16  1  0
 19 21  1  0
 20 19  2  0
 22 21  1  0
 22 25  1  0
 22 23  1  1
 23 24  1  0
 25 26  2  0
 25 27  1  0
M  END
$$$$
