WCC.pdb
     RDKit          3D

 27 28  0  0  1  0  0  0  0  0999 V2000
    6.0364  -18.0619   24.0414 N   0  0  0  0  0  0  0  0  0  0  0  0
    6.7082  -16.8529   23.6161 C   0  0  1  0  0  0  0  0  0  0  0  0
    7.6215  -16.3110   24.6939 C   0  0  0  0  0  0  0  0  0  0  0  0
    7.0351  -15.1873   25.4575 C   0  0  0  0  0  0  0  0  0  0  0  0
    5.8613  -15.2306   26.1798 C   0  0  0  0  0  0  0  0  0  0  0  0
    5.6088  -14.0172   26.7355 N   0  0  0  0  0  0  0  0  0  0  0  0
    6.5924  -13.1778   26.3934 C   0  0  0  0  0  0  0  0  0  0  0  0
    6.7913  -11.8515   26.7082 C   0  0  0  0  0  0  0  0  0  0  0  0
    7.9134  -11.1997   26.2248 C   0  0  0  0  0  0  0  0  0  0  0  0
    8.7935  -11.8868   25.4499 C   0  0  0  0  0  0  0  0  0  0  0  0
    8.5770  -13.2225   25.1427 C   0  0  0  0  0  0  0  0  0  0  0  0
    7.4895  -13.8948   25.5964 C   0  0  0  0  0  0  0  0  0  0  0  0
    7.3796  -17.1063   22.3416 C   0  0  0  0  0  0  0  0  0  0  0  0
    8.3076  -17.9512   22.2773 O   0  0  0  0  0  0  0  0  0  0  0  0
    7.0527  -16.4436   21.1010 N   0  0  0  0  0  0  0  0  0  0  0  0
    8.0101  -15.5673   20.4490 C   0  0  1  0  0  0  0  0  0  0  0  0
    7.4605  -14.1269   20.4834 C   0  0  0  0  0  0  0  0  0  0  0  0
    8.5236  -13.0178   19.5373 S   0  0  0  0  0  0  0  0  0  0  0  0
    9.3635  -15.6249   20.9883 C   0  0  0  0  0  0  0  0  0  0  0  0
   10.3183  -15.8929   20.1793 O   0  0  0  0  0  0  0  0  0  0  0  0
    9.7692  -15.4150   22.3278 N   0  0  0  0  0  0  0  0  0  0  0  0
   11.1548  -15.3763   22.7381 C   0  0  1  0  0  0  0  0  0  0  0  0
   11.3179  -14.7436   24.1076 C   0  0  0  0  0  0  0  0  0  0  0  0
   10.2437  -15.6522   25.2531 S   0  0  0  0  0  0  0  0  0  0  0  0
   11.8503  -16.6593   22.6730 C   0  0  0  0  0  0  0  0  0  0  0  0
   13.0867  -16.7000   22.9369 O   0  0  0  0  0  0  0  0  0  0  0  0
   11.2407  -17.8579   22.3371 O   0  0  0  0  0  0  0  0  0  0  0  0
  2  1  1  1
  3  2  1  0
  3  4  1  0
  4  5  2  0
  6  5  1  0
  7  6  1  0
  8  7  2  0
  9  8  1  0
 10  9  2  0
 10 11  1  0
 11 12  2  0
 12  7  1  0
 12  4  1  0
 13 14  2  0
 13  2  1  0
 15 13  1  0
 16 15  1  0
 16 17  1  1
 18 17  1  0
 19 16  1  0
 19 21  1  0
 20 19  2  0
 22 21  1  0
 22 25  1  0
 22 23  1  1
 23 24  1  0
 25 26  2  0
 25 27  1  0
M  END
$$$$
