WCC.pdb
     RDKit          3D

 27 28  0  0  1  0  0  0  0  0999 V2000
    6.2515  -17.5103   24.8945 N   0  0  0  0  0  0  0  0  0  0  0  0
    6.8482  -16.3049   24.3608 C   0  0  1  0  0  0  0  0  0  0  0  0
    8.0327  -15.8532   25.1869 C   0  0  0  0  0  0  0  0  0  0  0  0
    7.6691  -14.9435   26.2960 C   0  0  0  0  0  0  0  0  0  0  0  0
    7.4920  -15.3108   27.6132 C   0  0  0  0  0  0  0  0  0  0  0  0
    7.1406  -14.2301   28.3572 N   0  0  0  0  0  0  0  0  0  0  0  0
    7.0833  -13.1605   27.5560 C   0  0  0  0  0  0  0  0  0  0  0  0
    6.7789  -11.8459   27.8334 C   0  0  0  0  0  0  0  0  0  0  0  0
    6.7965  -10.9141   26.8092 C   0  0  0  0  0  0  0  0  0  0  0  0
    7.1152  -11.3207   25.5521 C   0  0  0  0  0  0  0  0  0  0  0  0
    7.4190  -12.6491   25.2909 C   0  0  0  0  0  0  0  0  0  0  0  0
    7.4113  -13.5912   26.2671 C   0  0  0  0  0  0  0  0  0  0  0  0
    7.1563  -16.5139   22.9463 C   0  0  0  0  0  0  0  0  0  0  0  0
    7.7420  -17.5635   22.5793 O   0  0  0  0  0  0  0  0  0  0  0  0
    6.8303  -15.5811   21.8935 N   0  0  0  0  0  0  0  0  0  0  0  0
    7.7159  -15.4005   20.7565 C   0  0  1  0  0  0  0  0  0  0  0  0
    7.2594  -14.1544   19.9712 C   0  0  0  0  0  0  0  0  0  0  0  0
    8.2590  -13.9378   18.4849 S   0  0  0  0  0  0  0  0  0  0  0  0
    9.1337  -15.3211   21.0876 C   0  0  0  0  0  0  0  0  0  0  0  0
    9.4783  -14.5675   22.0629 O   0  0  0  0  0  0  0  0  0  0  0  0
   10.2076  -15.9899   20.4533 N   0  0  0  0  0  0  0  0  0  0  0  0
   11.4571  -16.2872   21.1168 C   0  0  1  0  0  0  0  0  0  0  0  0
   11.2363  -17.0055   22.4351 C   0  0  0  0  0  0  0  0  0  0  0  0
   12.8711  -17.3436   23.1457 S   0  0  0  0  0  0  0  0  0  0  0  0
   12.4341  -16.9979   20.2958 C   0  0  0  0  0  0  0  0  0  0  0  0
   12.0282  -17.8852   19.4908 O   0  0  0  0  0  0  0  0  0  0  0  0
   13.7998  -16.7646   20.3358 O   0  0  0  0  0  0  0  0  0  0  0  0
  2  1  1  1
  3  2  1  0
  3  4  1  0
  4  5  2  0
  6  5  1  0
  7  6  1  0
  8  7  2  0
  9  8  1  0
 10  9  2  0
 10 11  1  0
 11 12  2  0
 12  7  1  0
 12  4  1  0
 13 14  2  0
 13  2  1  0
 15 13  1  0
 16 15  1  0
 16 17  1  1
 18 17  1  0
 19 16  1  0
 19 21  1  0
 20 19  2  0
 22 21  1  0
 22 25  1  0
 22 23  1  1
 23 24  1  0
 25 26  2  0
 25 27  1  0
M  END
$$$$
