WCC.pdb
     RDKit          3D

 27 28  0  0  1  0  0  0  0  0999 V2000
    6.4325  -17.8431   23.8468 N   0  0  0  0  0  0  0  0  0  0  0  0
    7.0534  -16.5621   23.5868 C   0  0  1  0  0  0  0  0  0  0  0  0
    7.8296  -16.0624   24.7856 C   0  0  0  0  0  0  0  0  0  0  0  0
    7.0794  -15.0937   25.6154 C   0  0  0  0  0  0  0  0  0  0  0  0
    5.9113  -15.3550   26.3000 C   0  0  0  0  0  0  0  0  0  0  0  0
    5.4825  -14.2354   26.9384 N   0  0  0  0  0  0  0  0  0  0  0  0
    6.3448  -13.2440   26.6874 C   0  0  0  0  0  0  0  0  0  0  0  0
    6.3512  -11.9318   27.1065 C   0  0  0  0  0  0  0  0  0  0  0  0
    7.3792  -11.0955   26.7044 C   0  0  0  0  0  0  0  0  0  0  0  0
    8.3594  -11.5918   25.9043 C   0  0  0  0  0  0  0  0  0  0  0  0
    8.3367  -12.9163   25.4916 C   0  0  0  0  0  0  0  0  0  0  0  0
    7.3464  -13.7658   25.8635 C   0  0  0  0  0  0  0  0  0  0  0  0
    7.8491  -16.6600   22.3634 C   0  0  0  0  0  0  0  0  0  0  0  0
    8.5039  -17.7050   22.1217 O   0  0  0  0  0  0  0  0  0  0  0  0
    7.9488  -15.6176   21.3692 N   0  0  0  0  0  0  0  0  0  0  0  0
    9.0057  -15.6359   20.3731 C   0  0  1  0  0  0  0  0  0  0  0  0
    8.9684  -14.3065   19.5926 C   0  0  0  0  0  0  0  0  0  0  0  0
    7.3670  -14.0836   18.7921 S   0  0  0  0  0  0  0  0  0  0  0  0
   10.3407  -15.8988   20.8972 C   0  0  0  0  0  0  0  0  0  0  0  0
   10.8783  -15.0047   21.6386 O   0  0  0  0  0  0  0  0  0  0  0  0
   11.1401  -17.0476   20.6878 N   0  0  0  0  0  0  0  0  0  0  0  0
   12.5069  -17.1549   21.1464 C   0  0  1  0  0  0  0  0  0  0  0  0
   12.6871  -18.3134   22.1096 C   0  0  0  0  0  0  0  0  0  0  0  0
   11.7002  -17.9453   23.5869 S   0  0  0  0  0  0  0  0  0  0  0  0
   13.5087  -17.2022   20.0843 C   0  0  0  0  0  0  0  0  0  0  0  0
   13.1237  -17.2754   18.8817 O   0  0  0  0  0  0  0  0  0  0  0  0
   14.8769  -17.1713   20.3042 O   0  0  0  0  0  0  0  0  0  0  0  0
  2  1  1  1
  3  2  1  0
  3  4  1  0
  4  5  2  0
  6  5  1  0
  7  6  1  0
  8  7  2  0
  9  8  1  0
 10  9  2  0
 10 11  1  0
 11 12  2  0
 12  7  1  0
 12  4  1  0
 13 14  2  0
 13  2  1  0
 15 13  1  0
 16 15  1  0
 16 17  1  1
 18 17  1  0
 19 16  1  0
 19 21  1  0
 20 19  2  0
 22 21  1  0
 22 25  1  0
 22 23  1  6
 23 24  1  0
 25 26  2  0
 25 27  1  0
M  END
$$$$
