WCC.pdb
     RDKit          3D

 27 28  0  0  1  0  0  0  0  0999 V2000
   10.1319  -17.0671   21.9392 N   0  0  0  0  0  0  0  0  0  0  0  0
    9.7088  -15.9355   22.7356 C   0  0  1  0  0  0  0  0  0  0  0  0
    8.2309  -15.6560   22.5709 C   0  0  0  0  0  0  0  0  0  0  0  0
    7.8223  -14.3206   23.0602 C   0  0  0  0  0  0  0  0  0  0  0  0
    8.0675  -13.1211   22.4258 C   0  0  0  0  0  0  0  0  0  0  0  0
    7.5750  -12.0923   23.1633 N   0  0  0  0  0  0  0  0  0  0  0  0
    7.0112  -12.5911   24.2690 C   0  0  0  0  0  0  0  0  0  0  0  0
    6.3776  -11.9603   25.3170 C   0  0  0  0  0  0  0  0  0  0  0  0
    5.8657  -12.7185   26.3566 C   0  0  0  0  0  0  0  0  0  0  0  0
    6.0012  -14.0703   26.3168 C   0  0  0  0  0  0  0  0  0  0  0  0
    6.6427  -14.6888   25.2533 C   0  0  0  0  0  0  0  0  0  0  0  0
    7.1579  -13.9804   24.2174 C   0  0  0  0  0  0  0  0  0  0  0  0
   10.1211  -16.1505   24.1224 C   0  0  0  0  0  0  0  0  0  0  0  0
   10.3872  -17.3104   24.5262 O   0  0  0  0  0  0  0  0  0  0  0  0
   10.2557  -15.1018   25.1058 N   0  0  0  0  0  0  0  0  0  0  0  0
   10.7402  -15.3920   26.4439 C   0  0  1  0  0  0  0  0  0  0  0  0
   10.4881  -14.1596   27.3359 C   0  0  0  0  0  0  0  0  0  0  0  0
   10.8140  -14.5500   29.0669 S   0  0  0  0  0  0  0  0  0  0  0  0
   10.1895  -16.5987   27.0494 C   0  0  0  0  0  0  0  0  0  0  0  0
    8.9333  -16.8096   26.9254 O   0  0  0  0  0  0  0  0  0  0  0  0
   10.8843  -17.5955   27.7750 N   0  0  0  0  0  0  0  0  0  0  0  0
   10.2456  -18.7802   28.3025 C   0  0  1  0  0  0  0  0  0  0  0  0
   10.0355  -19.8310   27.2282 C   0  0  0  0  0  0  0  0  0  0  0  0
   11.6413  -20.1194   26.4343 S   0  0  0  0  0  0  0  0  0  0  0  0
   10.8979  -19.3592   29.4743 C   0  0  0  0  0  0  0  0  0  0  0  0
   11.9611  -18.8287   29.9082 O   0  0  0  0  0  0  0  0  0  0  0  0
   10.4260  -20.4686   30.1581 O   0  0  0  0  0  0  0  0  0  0  0  0
  2  1  1  6
  3  2  1  0
  3  4  1  0
  4  5  2  0
  6  5  1  0
  7  6  1  0
  8  7  2  0
  9  8  1  0
 10  9  2  0
 10 11  1  0
 11 12  2  0
 12  7  1  0
 12  4  1  0
 13 14  2  0
 13  2  1  0
 15 13  1  0
 16 15  1  0
 16 17  1  1
 18 17  1  0
 19 16  1  0
 19 21  1  0
 20 19  2  0
 22 21  1  0
 22 25  1  0
 22 23  1  6
 23 24  1  0
 25 26  2  0
 25 27  1  0
M  END
$$$$
