NFK.pdb
     RDKit          3D

 29 29  0  0  1  0  0  0  0  0999 V2000
    8.2165  -15.3911   18.3026 N   0  0  0  0  0  0  0  0  0  0  0  0
    8.1841  -14.1321   18.9926 C   0  0  0  0  0  0  0  0  0  0  0  0
    8.0342  -13.1288   18.2494 O   0  0  0  0  0  0  0  0  0  0  0  0
    8.3221  -14.0998   20.4575 C   0  0  0  0  0  0  0  0  0  0  0  0
    8.4837  -15.4190   21.1238 C   0  0  2  0  0  0  0  0  0  0  0  0
    7.1329  -16.0309   21.1277 N   0  0  0  0  0  0  0  0  0  0  0  0
    8.8864  -15.3727   22.5399 C   0  0  0  0  0  0  0  0  0  0  0  0
   10.0458  -14.9888   22.8170 O   0  0  0  0  0  0  0  0  0  0  0  0
    8.0547  -15.7319   23.6078 N   0  0  0  0  0  0  0  0  0  0  0  0
    8.4845  -15.6884   25.0324 C   0  0  1  0  0  0  0  0  0  0  0  0
    7.3120  -15.2383   25.7799 C   0  0  0  0  0  0  0  0  0  0  0  0
    7.0573  -13.8547   26.0630 C   0  0  0  0  0  0  0  0  0  0  0  0
    8.0126  -13.1094   26.7177 C   0  0  0  0  0  0  0  0  0  0  0  0
    7.8134  -11.7608   27.0226 C   0  0  0  0  0  0  0  0  0  0  0  0
    6.6211  -11.1830   26.6478 C   0  0  0  0  0  0  0  0  0  0  0  0
    5.6467  -11.9104   25.9894 C   0  0  0  0  0  0  0  0  0  0  0  0
    5.8746  -13.2382   25.7039 C   0  0  0  0  0  0  0  0  0  0  0  0
    8.9924  -17.0252   25.3929 C   0  0  0  0  0  0  0  0  0  0  0  0
    8.1294  -17.9538   25.6079 O   0  0  0  0  0  0  0  0  0  0  0  0
   10.3275  -17.4195   25.5273 N   0  0  0  0  0  0  0  0  0  0  0  0
   10.6627  -18.7775   26.1055 C   0  0  1  0  0  0  0  0  0  0  0  0
   12.1036  -19.0157   25.7655 C   0  0  0  0  0  0  0  0  0  0  0  0
   12.6858  -20.3294   25.7143 C   0  0  0  0  0  0  0  0  0  0  0  0
   13.4923  -20.8939   24.6426 C   0  0  0  0  0  0  0  0  0  0  0  0
   14.1505  -22.2112   24.8414 C   0  0  0  0  0  0  0  0  0  0  0  0
   15.0670  -22.5468   23.8130 N   0  0  0  0  0  0  0  0  0  0  0  0
   10.4228  -18.6164   27.5255 C   0  0  0  0  0  0  0  0  0  0  0  0
   10.5528  -17.4600   28.0562 O   0  0  0  0  0  0  0  0  0  0  0  0
   10.0537  -19.6169   28.3744 O   0  0  0  0  0  0  0  0  0  0  0  0
  1  2  1  0
  2  3  2  0
  4  5  1  0
  4  2  1  0
  5  6  1  1
  5  7  1  0
  7  8  2  0
  9  7  1  0
  9 10  1  0
 10 18  1  0
 11 12  1  0
 10 11  1  1
 12 13  2  0
 13 14  1  0
 15 14  2  0
 16 15  1  0
 17 12  1  0
 17 16  2  0
 18 20  1  0
 19 18  2  0
 20 21  1  0
 21 27  1  0
 21 22  1  1
 23 22  1  0
 24 23  1  0
 25 24  1  0
 26 25  1  0
 27 28  2  0
 27 29  1  0
M  END
$$$$
