NFK.pdb
     RDKit          3D

 29 29  0  0  1  0  0  0  0  0999 V2000
    7.8048  -19.2258   18.6406 N   0  0  0  0  0  0  0  0  0  0  0  0
    8.9644  -19.4325   19.4621 C   0  0  0  0  0  0  0  0  0  0  0  0
    9.7432  -20.3323   19.0557 O   0  0  0  0  0  0  0  0  0  0  0  0
    9.1568  -18.6149   20.6707 C   0  0  0  0  0  0  0  0  0  0  0  0
    9.0210  -17.1457   20.4892 C   0  0  2  0  0  0  0  0  0  0  0  0
   10.0846  -16.7633   19.5290 N   0  0  0  0  0  0  0  0  0  0  0  0
    9.2770  -16.3290   21.6880 C   0  0  0  0  0  0  0  0  0  0  0  0
   10.4642  -16.1507   22.0446 O   0  0  0  0  0  0  0  0  0  0  0  0
    8.2752  -15.7326   22.4639 N   0  0  0  0  0  0  0  0  0  0  0  0
    8.5532  -14.9368   23.6909 C   0  0  1  0  0  0  0  0  0  0  0  0
    7.4331  -14.0060   23.8140 C   0  0  0  0  0  0  0  0  0  0  0  0
    7.2258  -13.1921   24.9775 C   0  0  0  0  0  0  0  0  0  0  0  0
    8.0980  -12.1612   25.2484 C   0  0  0  0  0  0  0  0  0  0  0  0
    7.9453  -11.3426   26.3699 C   0  0  0  0  0  0  0  0  0  0  0  0
    6.8858  -11.5927   27.2130 C   0  0  0  0  0  0  0  0  0  0  0  0
    5.9966  -12.6216   26.9624 C   0  0  0  0  0  0  0  0  0  0  0  0
    6.1756  -13.4105   25.8478 C   0  0  0  0  0  0  0  0  0  0  0  0
    8.7216  -15.8790   24.8128 C   0  0  0  0  0  0  0  0  0  0  0  0
    7.8288  -16.7916   24.9654 O   0  0  0  0  0  0  0  0  0  0  0  0
    9.7593  -15.9079   25.7501 N   0  0  0  0  0  0  0  0  0  0  0  0
    9.8362  -17.0308   26.7621 C   0  0  1  0  0  0  0  0  0  0  0  0
   11.0588  -17.8188   26.3975 C   0  0  0  0  0  0  0  0  0  0  0  0
   11.1756  -18.5516   25.1660 C   0  0  0  0  0  0  0  0  0  0  0  0
   12.3335  -19.2929   24.6889 C   0  0  0  0  0  0  0  0  0  0  0  0
   12.2721  -19.9704   23.3678 C   0  0  0  0  0  0  0  0  0  0  0  0
   13.4583  -20.6727   23.0364 N   0  0  0  0  0  0  0  0  0  0  0  0
    9.9494  -16.3429   28.0325 C   0  0  0  0  0  0  0  0  0  0  0  0
   10.1165  -15.0750   28.0464 O   0  0  0  0  0  0  0  0  0  0  0  0
    9.8864  -16.9430   29.2548 O   0  0  0  0  0  0  0  0  0  0  0  0
  1  2  1  0
  2  3  2  0
  4  5  1  0
  4  2  1  0
  5  6  1  6
  5  7  1  0
  7  8  2  0
  9  7  1  0
  9 10  1  0
 10 18  1  0
 11 12  1  0
 10 11  1  1
 12 13  2  0
 13 14  1  0
 15 14  2  0
 16 15  1  0
 17 12  1  0
 17 16  2  0
 18 20  1  0
 19 18  2  0
 20 21  1  0
 21 27  1  0
 21 22  1  6
 23 22  1  0
 24 23  1  0
 25 24  1  0
 26 25  1  0
 27 28  2  0
 27 29  1  0
M  END
$$$$
