NFK.pdb
     RDKit          3D

 29 29  0  0  1  0  0  0  0  0999 V2000
   11.7073  -17.6533   17.2348 N   0  0  0  0  0  0  0  0  0  0  0  0
   10.5210  -16.9688   17.6667 C   0  0  0  0  0  0  0  0  0  0  0  0
    9.5380  -17.0791   16.8901 O   0  0  0  0  0  0  0  0  0  0  0  0
   10.5327  -16.2174   18.9320 C   0  0  0  0  0  0  0  0  0  0  0  0
    9.8514  -16.8699   20.0811 C   0  0  2  0  0  0  0  0  0  0  0  0
    8.4115  -16.8960   19.7273 N   0  0  0  0  0  0  0  0  0  0  0  0
    9.9178  -16.1406   21.3591 C   0  0  0  0  0  0  0  0  0  0  0  0
   11.0450  -15.8926   21.8454 O   0  0  0  0  0  0  0  0  0  0  0  0
    8.7971  -15.7014   22.0750 N   0  0  0  0  0  0  0  0  0  0  0  0
    8.8836  -15.0122   23.3916 C   0  0  1  0  0  0  0  0  0  0  0  0
    7.6708  -14.2023   23.4882 C   0  0  0  0  0  0  0  0  0  0  0  0
    7.3099  -13.4857   24.6780 C   0  0  0  0  0  0  0  0  0  0  0  0
    6.3139  -13.9792   25.4912 C   0  0  0  0  0  0  0  0  0  0  0  0
    5.9201  -13.3186   26.6573 C   0  0  0  0  0  0  0  0  0  0  0  0
    6.5604  -12.1435   26.9818 C   0  0  0  0  0  0  0  0  0  0  0  0
    7.5634  -11.6281   26.1816 C   0  0  0  0  0  0  0  0  0  0  0  0
    7.9278  -12.3040   25.0384 C   0  0  0  0  0  0  0  0  0  0  0  0
    9.0423  -16.0442   24.4330 C   0  0  0  0  0  0  0  0  0  0  0  0
    8.2026  -17.0180   24.4415 O   0  0  0  0  0  0  0  0  0  0  0  0
   10.0190  -16.1002   25.4325 N   0  0  0  0  0  0  0  0  0  0  0  0
   10.0820  -17.2903   26.3655 C   0  0  1  0  0  0  0  0  0  0  0  0
   11.3835  -17.9709   26.0631 C   0  0  0  0  0  0  0  0  0  0  0  0
   11.8655  -19.0998   26.8120 C   0  0  0  0  0  0  0  0  0  0  0  0
   13.1448  -19.7764   26.6593 C   0  0  0  0  0  0  0  0  0  0  0  0
   13.4533  -20.9542   27.5111 C   0  0  0  0  0  0  0  0  0  0  0  0
   13.6864  -22.1415   26.7721 N   0  0  0  0  0  0  0  0  0  0  0  0
   10.0337  -16.6959   27.6863 C   0  0  0  0  0  0  0  0  0  0  0  0
   10.2813  -15.4485   27.8220 O   0  0  0  0  0  0  0  0  0  0  0  0
    9.7332  -17.3660   28.8346 O   0  0  0  0  0  0  0  0  0  0  0  0
  1  2  1  0
  2  3  2  0
  4  5  1  0
  4  2  1  0
  5  6  1  6
  5  7  1  0
  7  8  2  0
  9  7  1  0
  9 10  1  0
 10 18  1  0
 11 12  1  0
 10 11  1  1
 12 13  2  0
 13 14  1  0
 15 14  2  0
 16 15  1  0
 17 12  1  0
 17 16  2  0
 18 20  1  0
 19 18  2  0
 20 21  1  0
 21 27  1  0
 21 22  1  1
 23 22  1  0
 24 23  1  0
 25 24  1  0
 26 25  1  0
 27 28  2  0
 27 29  1  0
M  END
$$$$
