NFK.pdb
     RDKit          3D

 29 29  0  0  1  0  0  0  0  0999 V2000
   12.6195  -17.3389   17.9061 N   0  0  0  0  0  0  0  0  0  0  0  0
   11.3000  -17.0583   18.3983 C   0  0  0  0  0  0  0  0  0  0  0  0
   10.3693  -17.5913   17.7416 O   0  0  0  0  0  0  0  0  0  0  0  0
   11.1308  -16.2042   19.5849 C   0  0  0  0  0  0  0  0  0  0  0  0
   10.5479  -16.8646   20.7825 C   0  0  2  0  0  0  0  0  0  0  0  0
    9.1630  -17.2318   20.4000 N   0  0  0  0  0  0  0  0  0  0  0  0
   10.4016  -16.0104   21.9735 C   0  0  0  0  0  0  0  0  0  0  0  0
   11.4365  -15.5437   22.5024 O   0  0  0  0  0  0  0  0  0  0  0  0
    9.1738  -15.6808   22.5610 N   0  0  0  0  0  0  0  0  0  0  0  0
    9.0505  -14.8662   23.8009 C   0  0  1  0  0  0  0  0  0  0  0  0
    7.7336  -14.2369   23.7246 C   0  0  0  0  0  0  0  0  0  0  0  0
    7.2239  -13.3780   24.7551 C   0  0  0  0  0  0  0  0  0  0  0  0
    7.7528  -12.1158   24.9092 C   0  0  0  0  0  0  0  0  0  0  0  0
    7.2972  -11.2421   25.8994 C   0  0  0  0  0  0  0  0  0  0  0  0
    6.2907  -11.6776   26.7320 C   0  0  0  0  0  0  0  0  0  0  0  0
    5.7435  -12.9403   26.5970 C   0  0  0  0  0  0  0  0  0  0  0  0
    6.2155  -13.7773   25.6104 C   0  0  0  0  0  0  0  0  0  0  0  0
    9.2600  -15.7619   24.9535 C   0  0  0  0  0  0  0  0  0  0  0  0
    9.1267  -15.2618   26.1305 O   0  0  0  0  0  0  0  0  0  0  0  0
    9.5877  -17.1214   24.9251 N   0  0  0  0  0  0  0  0  0  0  0  0
    9.7389  -17.8922   26.2187 C   0  0  1  0  0  0  0  0  0  0  0  0
    9.6920  -19.3405   25.8327 C   0  0  0  0  0  0  0  0  0  0  0  0
   10.0239  -20.4016   26.7444 C   0  0  0  0  0  0  0  0  0  0  0  0
   10.8048  -21.5959   26.4586 C   0  0  0  0  0  0  0  0  0  0  0  0
   11.0221  -22.5996   27.5326 C   0  0  0  0  0  0  0  0  0  0  0  0
    9.8552  -23.3321   27.8672 N   0  0  0  0  0  0  0  0  0  0  0  0
   11.0302  -17.4700   26.7229 C   0  0  0  0  0  0  0  0  0  0  0  0
   11.2460  -17.4827   27.9834 O   0  0  0  0  0  0  0  0  0  0  0  0
   12.0724  -17.0517   25.9503 O   0  0  0  0  0  0  0  0  0  0  0  0
  1  2  1  0
  2  3  2  0
  4  5  1  0
  4  2  1  0
  5  6  1  6
  5  7  1  0
  7  8  2  0
  9  7  1  0
  9 10  1  0
 10 18  1  0
 11 12  1  0
 10 11  1  1
 12 13  2  0
 13 14  1  0
 15 14  2  0
 16 15  1  0
 17 12  1  0
 17 16  2  0
 18 20  1  0
 19 18  2  0
 20 21  1  0
 21 27  1  0
 21 22  1  6
 23 22  1  0
 24 23  1  0
 25 24  1  0
 26 25  1  0
 27 28  2  0
 27 29  1  0
M  END
$$$$
