NFK.pdb
     RDKit          3D

 29 29  0  0  1  0  0  0  0  0999 V2000
   10.4188  -18.4316   18.6023 N   0  0  0  0  0  0  0  0  0  0  0  0
   10.8256  -17.0545   18.5823 C   0  0  0  0  0  0  0  0  0  0  0  0
   11.3163  -16.6669   17.4912 O   0  0  0  0  0  0  0  0  0  0  0  0
   10.6497  -16.2247   19.7850 C   0  0  0  0  0  0  0  0  0  0  0  0
   10.1511  -16.9315   20.9942 C   0  0  2  0  0  0  0  0  0  0  0  0
    8.7388  -17.2753   20.7002 N   0  0  0  0  0  0  0  0  0  0  0  0
   10.0997  -16.1268   22.2269 C   0  0  0  0  0  0  0  0  0  0  0  0
   11.1797  -15.8036   22.7725 O   0  0  0  0  0  0  0  0  0  0  0  0
    8.9156  -15.6943   22.8370 N   0  0  0  0  0  0  0  0  0  0  0  0
    8.8840  -14.9110   24.1026 C   0  0  1  0  0  0  0  0  0  0  0  0
    7.6873  -14.0766   24.0149 C   0  0  0  0  0  0  0  0  0  0  0  0
    7.2511  -13.2314   25.0895 C   0  0  0  0  0  0  0  0  0  0  0  0
    7.8807  -12.0251   25.3020 C   0  0  0  0  0  0  0  0  0  0  0  0
    7.4995  -11.1675   26.3367 C   0  0  0  0  0  0  0  0  0  0  0  0
    6.4629  -11.5610   27.1532 C   0  0  0  0  0  0  0  0  0  0  0  0
    5.8151  -12.7673   26.9599 C   0  0  0  0  0  0  0  0  0  0  0  0
    6.2156  -13.5898   25.9305 C   0  0  0  0  0  0  0  0  0  0  0  0
    8.9113  -15.8656   25.2263 C   0  0  0  0  0  0  0  0  0  0  0  0
    8.8750  -15.3856   26.4186 O   0  0  0  0  0  0  0  0  0  0  0  0
    8.9672  -17.2613   25.1549 N   0  0  0  0  0  0  0  0  0  0  0  0
    9.0261  -18.0839   26.4239 C   0  0  1  0  0  0  0  0  0  0  0  0
    8.7462  -19.4955   26.0025 C   0  0  0  0  0  0  0  0  0  0  0  0
    8.9141  -20.6199   26.8828 C   0  0  0  0  0  0  0  0  0  0  0  0
    8.7440  -22.0276   26.5554 C   0  0  0  0  0  0  0  0  0  0  0  0
    8.9379  -23.0515   27.6148 C   0  0  0  0  0  0  0  0  0  0  0  0
    7.7240  -23.5222   28.1758 N   0  0  0  0  0  0  0  0  0  0  0  0
   10.3783  -17.8812   26.9039 C   0  0  0  0  0  0  0  0  0  0  0  0
   10.6071  -17.9036   28.1620 O   0  0  0  0  0  0  0  0  0  0  0  0
   11.4657  -17.6672   26.1103 O   0  0  0  0  0  0  0  0  0  0  0  0
  1  2  1  0
  2  3  2  0
  4  5  1  0
  4  2  1  0
  5  6  1  6
  5  7  1  0
  7  8  2  0
  9  7  1  0
  9 10  1  0
 10 18  1  0
 11 12  1  0
 10 11  1  6
 12 13  2  0
 13 14  1  0
 15 14  2  0
 16 15  1  0
 17 12  1  0
 17 16  2  0
 18 20  1  0
 19 18  2  0
 20 21  1  0
 21 27  1  0
 21 22  1  6
 23 22  1  0
 24 23  1  0
 25 24  1  0
 26 25  1  0
 27 28  2  0
 27 29  1  0
M  END
$$$$
