NFK.pdb
     RDKit          3D

 29 29  0  0  1  0  0  0  0  0999 V2000
    8.9715  -19.9548   18.1918 N   0  0  0  0  0  0  0  0  0  0  0  0
    8.0831  -19.0638   18.8841 C   0  0  0  0  0  0  0  0  0  0  0  0
    6.9374  -18.9634   18.3755 O   0  0  0  0  0  0  0  0  0  0  0  0
    8.5502  -18.3589   20.0886 C   0  0  0  0  0  0  0  0  0  0  0  0
    8.3108  -16.8919   20.1163 C   0  0  2  0  0  0  0  0  0  0  0  0
    9.1768  -16.3272   19.0531 N   0  0  0  0  0  0  0  0  0  0  0  0
    8.7226  -16.2021   21.3509 C   0  0  0  0  0  0  0  0  0  0  0  0
    9.8952  -16.3631   21.7603 O   0  0  0  0  0  0  0  0  0  0  0  0
    7.8858  -15.3708   22.1059 N   0  0  0  0  0  0  0  0  0  0  0  0
    8.2970  -14.7430   23.3915 C   0  0  1  0  0  0  0  0  0  0  0  0
    7.2911  -13.7185   23.6645 C   0  0  0  0  0  0  0  0  0  0  0  0
    7.1646  -13.0772   24.9420 C   0  0  0  0  0  0  0  0  0  0  0  0
    8.2182  -12.3430   25.4397 C   0  0  0  0  0  0  0  0  0  0  0  0
    8.1497  -11.7036   26.6798 C   0  0  0  0  0  0  0  0  0  0  0  0
    6.9861  -11.8250   27.4059 C   0  0  0  0  0  0  0  0  0  0  0  0
    5.9146  -12.5564   26.9275 C   0  0  0  0  0  0  0  0  0  0  0  0
    6.0146  -13.1748   25.7010 C   0  0  0  0  0  0  0  0  0  0  0  0
    8.4054  -15.8113   24.4024 C   0  0  0  0  0  0  0  0  0  0  0  0
    7.3964  -16.5934   24.5553 O   0  0  0  0  0  0  0  0  0  0  0  0
    9.4972  -16.0900   25.2309 N   0  0  0  0  0  0  0  0  0  0  0  0
    9.4371  -17.2511   26.1999 C   0  0  1  0  0  0  0  0  0  0  0  0
   10.0190  -18.4208   25.4637 C   0  0  0  0  0  0  0  0  0  0  0  0
   10.3474  -19.6631   26.1089 C   0  0  0  0  0  0  0  0  0  0  0  0
   10.8671  -20.8698   25.4832 C   0  0  0  0  0  0  0  0  0  0  0  0
   11.2329  -22.0326   26.3330 C   0  0  0  0  0  0  0  0  0  0  0  0
   11.8499  -23.0872   25.6138 N   0  0  0  0  0  0  0  0  0  0  0  0
   10.2475  -16.8101   27.3173 C   0  0  0  0  0  0  0  0  0  0  0  0
   11.1094  -15.8821   27.1391 O   0  0  0  0  0  0  0  0  0  0  0  0
   10.1688  -17.3066   28.5843 O   0  0  0  0  0  0  0  0  0  0  0  0
  1  2  1  0
  2  3  2  0
  4  5  1  0
  4  2  1  0
  5  6  1  6
  5  7  1  0
  7  8  2  0
  9  7  1  0
  9 10  1  0
 10 18  1  0
 11 12  1  0
 10 11  1  1
 12 13  2  0
 13 14  1  0
 15 14  2  0
 16 15  1  0
 17 12  1  0
 17 16  2  0
 18 20  1  0
 19 18  2  0
 20 21  1  0
 21 27  1  0
 21 22  1  6
 23 22  1  0
 24 23  1  0
 25 24  1  0
 26 25  1  0
 27 28  2  0
 27 29  1  0
M  END
$$$$
