NFK.pdb
     RDKit          3D

 29 29  0  0  1  0  0  0  0  0999 V2000
   12.1407  -17.2603   17.6648 N   0  0  0  0  0  0  0  0  0  0  0  0
   10.8023  -17.0579   18.1445 C   0  0  0  0  0  0  0  0  0  0  0  0
    9.9180  -17.7003   17.5226 O   0  0  0  0  0  0  0  0  0  0  0  0
   10.5641  -16.1533   19.2807 C   0  0  0  0  0  0  0  0  0  0  0  0
   10.2051  -16.8069   20.5669 C   0  0  2  0  0  0  0  0  0  0  0  0
    8.8141  -17.2904   20.3929 N   0  0  0  0  0  0  0  0  0  0  0  0
   10.1570  -15.9191   21.7412 C   0  0  0  0  0  0  0  0  0  0  0  0
   11.1950  -15.2941   22.0582 O   0  0  0  0  0  0  0  0  0  0  0  0
    9.0201  -15.7236   22.5354 N   0  0  0  0  0  0  0  0  0  0  0  0
    9.0106  -14.8758   23.7590 C   0  0  1  0  0  0  0  0  0  0  0  0
    7.6957  -14.2380   23.7812 C   0  0  0  0  0  0  0  0  0  0  0  0
    7.2963  -13.3210   24.8101 C   0  0  0  0  0  0  0  0  0  0  0  0
    6.2314  -13.6370   25.6243 C   0  0  0  0  0  0  0  0  0  0  0  0
    5.7980  -12.7778   26.6369 C   0  0  0  0  0  0  0  0  0  0  0  0
    6.4702  -11.5881   26.8064 C   0  0  0  0  0  0  0  0  0  0  0  0
    7.5422  -11.2485   26.0018 C   0  0  0  0  0  0  0  0  0  0  0  0
    7.9441  -12.1179   25.0123 C   0  0  0  0  0  0  0  0  0  0  0  0
    9.3151  -15.7427   24.9125 C   0  0  0  0  0  0  0  0  0  0  0  0
    9.1953  -15.2361   26.0883 O   0  0  0  0  0  0  0  0  0  0  0  0
    9.7220  -17.0805   24.8865 N   0  0  0  0  0  0  0  0  0  0  0  0
    9.9319  -17.8348   26.1818 C   0  0  1  0  0  0  0  0  0  0  0  0
    9.6208  -19.2679   25.8685 C   0  0  0  0  0  0  0  0  0  0  0  0
    9.8432  -20.3366   26.8043 C   0  0  0  0  0  0  0  0  0  0  0  0
   10.1797  -21.7190   26.4985 C   0  0  0  0  0  0  0  0  0  0  0  0
   10.3929  -22.6810   27.6108 C   0  0  0  0  0  0  0  0  0  0  0  0
    9.6225  -23.8651   27.4903 N   0  0  0  0  0  0  0  0  0  0  0  0
   11.3274  -17.6012   26.4947 C   0  0  0  0  0  0  0  0  0  0  0  0
   12.1986  -17.6643   25.5604 O   0  0  0  0  0  0  0  0  0  0  0  0
   11.8118  -17.3051   27.7339 O   0  0  0  0  0  0  0  0  0  0  0  0
  1  2  1  0
  2  3  2  0
  4  5  1  0
  4  2  1  0
  5  6  1  6
  5  7  1  0
  7  8  2  0
  9  7  1  0
  9 10  1  0
 10 18  1  0
 11 12  1  0
 10 11  1  1
 12 13  2  0
 13 14  1  0
 15 14  2  0
 16 15  1  0
 17 12  1  0
 17 16  2  0
 18 20  1  0
 19 18  2  0
 20 21  1  0
 21 27  1  0
 21 22  1  6
 23 22  1  0
 24 23  1  0
 25 24  1  0
 26 25  1  0
 27 28  2  0
 27 29  1  0
M  END
$$$$
