NFK.pdb
     RDKit          3D

 29 29  0  0  1  0  0  0  0  0999 V2000
   12.2513  -16.6442   17.6172 N   0  0  0  0  0  0  0  0  0  0  0  0
   10.9390  -16.5721   18.1961 C   0  0  0  0  0  0  0  0  0  0  0  0
   10.0456  -17.1778   17.5508 O   0  0  0  0  0  0  0  0  0  0  0  0
   10.7350  -15.8282   19.4494 C   0  0  0  0  0  0  0  0  0  0  0  0
   10.5434  -16.6539   20.6708 C   0  0  2  0  0  0  0  0  0  0  0  0
    9.2278  -17.3168   20.5006 N   0  0  0  0  0  0  0  0  0  0  0  0
   10.4337  -15.9059   21.9350 C   0  0  0  0  0  0  0  0  0  0  0  0
   11.4492  -15.3133   22.3663 O   0  0  0  0  0  0  0  0  0  0  0  0
    9.2613  -15.8107   22.6952 N   0  0  0  0  0  0  0  0  0  0  0  0
    9.1734  -15.0565   23.9757 C   0  0  1  0  0  0  0  0  0  0  0  0
    7.8457  -14.4455   23.9779 C   0  0  0  0  0  0  0  0  0  0  0  0
    7.3882  -13.5893   25.0347 C   0  0  0  0  0  0  0  0  0  0  0  0
    7.9601  -12.3469   25.1967 C   0  0  0  0  0  0  0  0  0  0  0  0
    7.5561  -11.4768   26.2121 C   0  0  0  0  0  0  0  0  0  0  0  0
    6.5566  -11.8952   27.0618 C   0  0  0  0  0  0  0  0  0  0  0  0
    5.9668  -13.1378   26.9193 C   0  0  0  0  0  0  0  0  0  0  0  0
    6.3885  -13.9718   25.9077 C   0  0  0  0  0  0  0  0  0  0  0  0
    9.4392  -16.0013   25.0764 C   0  0  0  0  0  0  0  0  0  0  0  0
    9.1085  -15.6410   26.2655 O   0  0  0  0  0  0  0  0  0  0  0  0
   10.0143  -17.2729   24.9850 N   0  0  0  0  0  0  0  0  0  0  0  0
   10.2168  -18.1052   26.2328 C   0  0  1  0  0  0  0  0  0  0  0  0
   10.5211  -19.4911   25.7478 C   0  0  0  0  0  0  0  0  0  0  0  0
    9.6282  -20.6004   25.9467 C   0  0  0  0  0  0  0  0  0  0  0  0
    9.7821  -21.9562   25.4408 C   0  0  0  0  0  0  0  0  0  0  0  0
    8.7813  -22.9906   25.8104 C   0  0  0  0  0  0  0  0  0  0  0  0
    8.0069  -23.4462   24.7137 N   0  0  0  0  0  0  0  0  0  0  0  0
   11.3357  -17.4660   26.8958 C   0  0  0  0  0  0  0  0  0  0  0  0
   12.0961  -16.6834   26.2286 O   0  0  0  0  0  0  0  0  0  0  0  0
   11.6593  -17.6236   28.2105 O   0  0  0  0  0  0  0  0  0  0  0  0
  1  2  1  0
  2  3  2  0
  4  5  1  0
  4  2  1  0
  5  6  1  6
  5  7  1  0
  7  8  2  0
  9  7  1  0
  9 10  1  0
 10 18  1  0
 11 12  1  0
 10 11  1  1
 12 13  2  0
 13 14  1  0
 15 14  2  0
 16 15  1  0
 17 12  1  0
 17 16  2  0
 18 20  1  0
 19 18  2  0
 20 21  1  0
 21 27  1  0
 21 22  1  6
 23 22  1  0
 24 23  1  0
 25 24  1  0
 26 25  1  0
 27 28  2  0
 27 29  1  0
M  END
$$$$
