NFK.pdb
     RDKit          3D

 29 29  0  0  1  0  0  0  0  0999 V2000
    8.5409  -18.5710   17.9941 N   0  0  0  0  0  0  0  0  0  0  0  0
    9.4304  -19.1193   18.9793 C   0  0  0  0  0  0  0  0  0  0  0  0
    9.9557  -20.2166   18.6609 O   0  0  0  0  0  0  0  0  0  0  0  0
    9.6586  -18.3941   20.2394 C   0  0  0  0  0  0  0  0  0  0  0  0
    8.8242  -17.1821   20.4515 C   0  0  2  0  0  0  0  0  0  0  0  0
    9.1651  -16.2644   19.3376 N   0  0  0  0  0  0  0  0  0  0  0  0
    9.1105  -16.4177   21.6776 C   0  0  0  0  0  0  0  0  0  0  0  0
   10.2353  -16.5494   22.2124 O   0  0  0  0  0  0  0  0  0  0  0  0
    8.2035  -15.5457   22.2926 N   0  0  0  0  0  0  0  0  0  0  0  0
    8.4832  -14.8417   23.5741 C   0  0  1  0  0  0  0  0  0  0  0  0
    7.3894  -13.8869   23.7412 C   0  0  0  0  0  0  0  0  0  0  0  0
    7.1637  -13.1731   24.9655 C   0  0  0  0  0  0  0  0  0  0  0  0
    6.0201  -13.4183   25.6928 C   0  0  0  0  0  0  0  0  0  0  0  0
    5.7491  -12.7476   26.8877 C   0  0  0  0  0  0  0  0  0  0  0  0
    6.6658  -11.8203   27.3304 C   0  0  0  0  0  0  0  0  0  0  0  0
    7.8213  -11.5568   26.6181 C   0  0  0  0  0  0  0  0  0  0  0  0
    8.0584  -12.2355   25.4435 C   0  0  0  0  0  0  0  0  0  0  0  0
    8.6037  -15.8607   24.6332 C   0  0  0  0  0  0  0  0  0  0  0  0
    7.7242  -16.7982   24.6628 O   0  0  0  0  0  0  0  0  0  0  0  0
    9.5821  -15.9397   25.6296 N   0  0  0  0  0  0  0  0  0  0  0  0
    9.5647  -17.0835   26.6206 C   0  0  1  0  0  0  0  0  0  0  0  0
   10.1875  -18.2454   25.9059 C   0  0  0  0  0  0  0  0  0  0  0  0
   10.5631  -19.4616   26.5744 C   0  0  0  0  0  0  0  0  0  0  0  0
   11.1956  -20.6318   25.9840 C   0  0  0  0  0  0  0  0  0  0  0  0
   11.5680  -21.7769   26.8547 C   0  0  0  0  0  0  0  0  0  0  0  0
   12.2405  -22.8171   26.1648 N   0  0  0  0  0  0  0  0  0  0  0  0
   10.3600  -16.5924   27.7280 C   0  0  0  0  0  0  0  0  0  0  0  0
   10.5279  -17.3336   28.7567 O   0  0  0  0  0  0  0  0  0  0  0  0
   10.9702  -15.3744   27.7726 O   0  0  0  0  0  0  0  0  0  0  0  0
  1  2  1  0
  2  3  2  0
  4  5  1  0
  4  2  1  0
  5  6  1  6
  5  7  1  0
  7  8  2  0
  9  7  1  0
  9 10  1  0
 10 18  1  0
 11 12  1  0
 10 11  1  1
 12 13  2  0
 13 14  1  0
 15 14  2  0
 16 15  1  0
 17 12  1  0
 17 16  2  0
 18 20  1  0
 19 18  2  0
 20 21  1  0
 21 27  1  0
 21 22  1  6
 23 22  1  0
 24 23  1  0
 25 24  1  0
 26 25  1  0
 27 28  2  0
 27 29  1  0
M  END
$$$$
