NFK.pdb
     RDKit          3D

 29 29  0  0  1  0  0  0  0  0999 V2000
    7.6940  -13.2234   16.3909 N   0  0  0  0  0  0  0  0  0  0  0  0
    8.4597  -14.2286   17.0734 C   0  0  0  0  0  0  0  0  0  0  0  0
    8.6752  -15.2707   16.4034 O   0  0  0  0  0  0  0  0  0  0  0  0
    8.9211  -13.9844   18.4494 C   0  0  0  0  0  0  0  0  0  0  0  0
    8.7178  -15.1005   19.4102 C   0  0  2  0  0  0  0  0  0  0  0  0
    7.2667  -15.4033   19.3670 N   0  0  0  0  0  0  0  0  0  0  0  0
    9.0006  -14.7863   20.8212 C   0  0  0  0  0  0  0  0  0  0  0  0
   10.1614  -14.4327   21.1314 O   0  0  0  0  0  0  0  0  0  0  0  0
    8.0526  -14.8563   21.8496 N   0  0  0  0  0  0  0  0  0  0  0  0
    8.3492  -14.4991   23.2640 C   0  0  1  0  0  0  0  0  0  0  0  0
    7.2238  -13.6762   23.7026 C   0  0  0  0  0  0  0  0  0  0  0  0
    7.1490  -13.1014   25.0154 C   0  0  0  0  0  0  0  0  0  0  0  0
    6.2066  -13.5653   25.9062 C   0  0  0  0  0  0  0  0  0  0  0  0
    6.0874  -13.0371   27.1939 C   0  0  0  0  0  0  0  0  0  0  0  0
    6.9472  -12.0257   27.5595 C   0  0  0  0  0  0  0  0  0  0  0  0
    7.9018  -11.5433   26.6831 C   0  0  0  0  0  0  0  0  0  0  0  0
    7.9929  -12.0857   25.4205 C   0  0  0  0  0  0  0  0  0  0  0  0
    8.5495  -15.7526   24.0148 C   0  0  0  0  0  0  0  0  0  0  0  0
    7.6383  -16.6551   23.9241 O   0  0  0  0  0  0  0  0  0  0  0  0
    9.6358  -16.0922   24.8277 N   0  0  0  0  0  0  0  0  0  0  0  0
    9.7313  -17.4794   25.4253 C   0  0  1  0  0  0  0  0  0  0  0  0
   10.8920  -18.1350   24.7386 C   0  0  0  0  0  0  0  0  0  0  0  0
   10.8489  -18.5550   23.3641 C   0  0  0  0  0  0  0  0  0  0  0  0
   11.9327  -19.1374   22.5870 C   0  0  0  0  0  0  0  0  0  0  0  0
   11.7246  -19.4209   21.1432 C   0  0  0  0  0  0  0  0  0  0  0  0
   12.8817  -19.9169   20.4914 N   0  0  0  0  0  0  0  0  0  0  0  0
    9.9581  -17.2327   26.8351 C   0  0  0  0  0  0  0  0  0  0  0  0
   10.2587  -16.0522   27.2247 O   0  0  0  0  0  0  0  0  0  0  0  0
    9.8719  -18.1739   27.8173 O   0  0  0  0  0  0  0  0  0  0  0  0
  1  2  1  0
  2  3  2  0
  4  5  1  0
  4  2  1  0
  5  6  1  1
  5  7  1  0
  7  8  2  0
  9  7  1  0
  9 10  1  0
 10 18  1  0
 11 12  1  0
 10 11  1  1
 12 13  2  0
 13 14  1  0
 15 14  2  0
 16 15  1  0
 17 12  1  0
 17 16  2  0
 18 20  1  0
 19 18  2  0
 20 21  1  0
 21 27  1  0
 21 22  1  6
 23 22  1  0
 24 23  1  0
 25 24  1  0
 26 25  1  0
 27 28  2  0
 27 29  1  0
M  END
$$$$
