NFK.pdb
     RDKit          3D

 29 29  0  0  1  0  0  0  0  0999 V2000
   10.2930  -20.6259   19.9179 N   0  0  0  0  0  0  0  0  0  0  0  0
    9.3903  -19.5530   20.2285 C   0  0  0  0  0  0  0  0  0  0  0  0
    8.3750  -19.4894   19.4893 O   0  0  0  0  0  0  0  0  0  0  0  0
    9.6985  -18.6398   21.3407 C   0  0  0  0  0  0  0  0  0  0  0  0
    9.5178  -17.1910   21.0606 C   0  0  2  0  0  0  0  0  0  0  0  0
   10.6671  -16.8044   20.2068 N   0  0  0  0  0  0  0  0  0  0  0  0
    9.5953  -16.3009   22.2316 C   0  0  0  0  0  0  0  0  0  0  0  0
   10.7269  -15.9779   22.6602 O   0  0  0  0  0  0  0  0  0  0  0  0
    8.4807  -15.7860   22.9053 N   0  0  0  0  0  0  0  0  0  0  0  0
    8.5796  -14.9327   24.1212 C   0  0  1  0  0  0  0  0  0  0  0  0
    7.3924  -14.0806   24.0970 C   0  0  0  0  0  0  0  0  0  0  0  0
    7.0871  -13.1467   25.1429 C   0  0  0  0  0  0  0  0  0  0  0  0
    7.7958  -11.9689   25.2288 C   0  0  0  0  0  0  0  0  0  0  0  0
    7.5429  -11.0284   26.2302 C   0  0  0  0  0  0  0  0  0  0  0  0
    6.5526  -11.3090   27.1449 C   0  0  0  0  0  0  0  0  0  0  0  0
    5.8273  -12.4844   27.0794 C   0  0  0  0  0  0  0  0  0  0  0  0
    6.1018  -13.3909   26.0796 C   0  0  0  0  0  0  0  0  0  0  0  0
    8.6979  -15.8234   25.2906 C   0  0  0  0  0  0  0  0  0  0  0  0
    8.7970  -15.2766   26.4501 O   0  0  0  0  0  0  0  0  0  0  0  0
    8.7099  -17.2219   25.2962 N   0  0  0  0  0  0  0  0  0  0  0  0
    8.8152  -17.9743   26.6052 C   0  0  1  0  0  0  0  0  0  0  0  0
    8.5513  -19.4111   26.2666 C   0  0  0  0  0  0  0  0  0  0  0  0
    7.4093  -19.8351   25.5029 C   0  0  0  0  0  0  0  0  0  0  0  0
    7.1244  -21.1767   25.0163 C   0  0  0  0  0  0  0  0  0  0  0  0
    5.9475  -21.3989   24.1367 C   0  0  0  0  0  0  0  0  0  0  0  0
    5.7934  -22.7476   23.7275 N   0  0  0  0  0  0  0  0  0  0  0  0
   10.1748  -17.7229   27.0391 C   0  0  0  0  0  0  0  0  0  0  0  0
   10.5011  -17.9658   28.2516 O   0  0  0  0  0  0  0  0  0  0  0  0
   11.1722  -17.2403   26.2452 O   0  0  0  0  0  0  0  0  0  0  0  0
  1  2  1  0
  2  3  2  0
  4  5  1  0
  4  2  1  0
  5  6  1  6
  5  7  1  0
  7  8  2  0
  9  7  1  0
  9 10  1  0
 10 18  1  0
 11 12  1  0
 10 11  1  1
 12 13  2  0
 13 14  1  0
 15 14  2  0
 16 15  1  0
 17 12  1  0
 17 16  2  0
 18 20  1  0
 19 18  2  0
 20 21  1  0
 21 27  1  0
 21 22  1  6
 23 22  1  0
 24 23  1  0
 25 24  1  0
 26 25  1  0
 27 28  2  0
 27 29  1  0
M  END
$$$$
