NFK.pdb
     RDKit          3D

 29 29  0  0  1  0  0  0  0  0999 V2000
    7.9898  -19.4260   18.5883 N   0  0  0  0  0  0  0  0  0  0  0  0
    9.3326  -19.2247   19.0562 C   0  0  0  0  0  0  0  0  0  0  0  0
   10.2268  -19.6894   18.3039 O   0  0  0  0  0  0  0  0  0  0  0  0
    9.5637  -18.5199   20.3273 C   0  0  0  0  0  0  0  0  0  0  0  0
    9.6283  -17.0369   20.2451 C   0  0  2  0  0  0  0  0  0  0  0  0
   10.8808  -16.7332   19.5116 N   0  0  0  0  0  0  0  0  0  0  0  0
    9.7588  -16.3324   21.5321 C   0  0  0  0  0  0  0  0  0  0  0  0
   10.8925  -16.2608   22.0594 O   0  0  0  0  0  0  0  0  0  0  0  0
    8.6928  -15.7314   22.2132 N   0  0  0  0  0  0  0  0  0  0  0  0
    8.8370  -15.0647   23.5364 C   0  0  1  0  0  0  0  0  0  0  0  0
    7.6631  -14.2043   23.6694 C   0  0  0  0  0  0  0  0  0  0  0  0
    7.3583  -13.4898   24.8760 C   0  0  0  0  0  0  0  0  0  0  0  0
    6.2541  -13.8490   25.6166 C   0  0  0  0  0  0  0  0  0  0  0  0
    5.9093  -13.1833   26.7952 C   0  0  0  0  0  0  0  0  0  0  0  0
    6.7111  -12.1427   27.2078 C   0  0  0  0  0  0  0  0  0  0  0  0
    7.8251  -11.7634   26.4816 C   0  0  0  0  0  0  0  0  0  0  0  0
    8.1372  -12.4405   25.3236 C   0  0  0  0  0  0  0  0  0  0  0  0
    8.9721  -16.1168   24.5609 C   0  0  0  0  0  0  0  0  0  0  0  0
    8.1579  -17.1105   24.5073 O   0  0  0  0  0  0  0  0  0  0  0  0
    9.9015  -16.1727   25.6046 N   0  0  0  0  0  0  0  0  0  0  0  0
    9.9525  -17.3840   26.5106 C   0  0  1  0  0  0  0  0  0  0  0  0
   10.9960  -18.2849   25.9205 C   0  0  0  0  0  0  0  0  0  0  0  0
   11.4943  -19.4502   26.5995 C   0  0  0  0  0  0  0  0  0  0  0  0
   12.4959  -20.3894   26.1171 C   0  0  0  0  0  0  0  0  0  0  0  0
   12.9423  -21.4975   27.0008 C   0  0  0  0  0  0  0  0  0  0  0  0
   13.9808  -22.2841   26.4415 N   0  0  0  0  0  0  0  0  0  0  0  0
   10.3243  -16.8353   27.7993 C   0  0  0  0  0  0  0  0  0  0  0  0
   10.2893  -17.5860   28.8342 O   0  0  0  0  0  0  0  0  0  0  0  0
   10.7265  -15.5510   28.0156 O   0  0  0  0  0  0  0  0  0  0  0  0
  1  2  1  0
  2  3  2  0
  4  5  1  0
  4  2  1  0
  5  6  1  6
  5  7  1  0
  7  8  2  0
  9  7  1  0
  9 10  1  0
 10 18  1  0
 11 12  1  0
 10 11  1  1
 12 13  2  0
 13 14  1  0
 15 14  2  0
 16 15  1  0
 17 12  1  0
 17 16  2  0
 18 20  1  0
 19 18  2  0
 20 21  1  0
 21 27  1  0
 21 22  1  6
 23 22  1  0
 24 23  1  0
 25 24  1  0
 26 25  1  0
 27 28  2  0
 27 29  1  0
M  END
$$$$
