QYQ.pdb
     RDKit          3D

 31 31  0  0  1  0  0  0  0  0999 V2000
    6.5376  -17.6689   16.2464 N   0  0  0  0  0  0  0  0  0  0  0  0
    7.8049  -18.2637   16.4453 C   0  0  0  0  0  0  0  0  0  0  0  0
    7.9701  -19.4981   16.3173 O   0  0  0  0  0  0  0  0  0  0  0  0
    8.9514  -17.4112   16.8103 C   0  0  0  0  0  0  0  0  0  0  0  0
    8.5764  -16.4790   17.9486 C   0  0  0  0  0  0  0  0  0  0  0  0
    8.7359  -17.2744   19.2341 C   0  0  2  0  0  0  0  0  0  0  0  0
    7.5519  -18.0171   19.4504 N   0  0  0  0  0  0  0  0  0  0  0  0
    8.9910  -16.3461   20.3697 C   0  0  0  0  0  0  0  0  0  0  0  0
   10.0636  -15.6539   20.3751 O   0  0  0  0  0  0  0  0  0  0  0  0
    6.9847  -11.9879   27.9592 O   0  0  0  0  0  0  0  0  0  0  0  0
    7.0362  -12.6286   26.7368 C   0  0  0  0  0  0  0  0  0  0  0  0
    7.6155  -12.0284   25.6389 C   0  0  0  0  0  0  0  0  0  0  0  0
    7.6379  -12.7220   24.4349 C   0  0  0  0  0  0  0  0  0  0  0  0
    7.1107  -13.9750   24.2893 C   0  0  0  0  0  0  0  0  0  0  0  0
    7.1484  -14.6868   23.0150 C   0  0  0  0  0  0  0  0  0  0  0  0
    8.4148  -15.3453   22.6179 C   0  0  2  0  0  0  0  0  0  0  0  0
    8.0917  -16.2034   21.4391 N   0  0  0  0  0  0  0  0  0  0  0  0
    9.0811  -16.2228   23.5633 C   0  0  0  0  0  0  0  0  0  0  0  0
    8.6382  -17.4150   23.7245 O   0  0  0  0  0  0  0  0  0  0  0  0
    6.5299  -14.5587   25.4189 C   0  0  0  0  0  0  0  0  0  0  0  0
    6.4945  -13.8969   26.6177 C   0  0  0  0  0  0  0  0  0  0  0  0
   14.9855  -15.9465   23.9979 N   0  0  0  0  0  0  0  0  0  0  0  0
   14.2214  -16.9007   23.3150 C   0  0  0  0  0  0  0  0  0  0  0  0
   14.7770  -17.6155   22.4406 O   0  0  0  0  0  0  0  0  0  0  0  0
   12.7642  -17.1213   23.5688 C   0  0  0  0  0  0  0  0  0  0  0  0
   12.3803  -16.7341   24.9555 C   0  0  0  0  0  0  0  0  0  0  0  0
   10.8782  -16.7957   25.2179 C   0  0  2  0  0  0  0  0  0  0  0  0
   10.2113  -15.8290   24.3190 N   0  0  0  0  0  0  0  0  0  0  0  0
   10.5091  -16.4912   26.5997 C   0  0  0  0  0  0  0  0  0  0  0  0
   10.0060  -15.3876   26.9018 O   0  0  0  0  0  0  0  0  0  0  0  0
   10.6804  -17.3773   27.6610 O   0  0  0  0  0  0  0  0  0  0  0  0
  2  1  1  0
  2  4  1  0
  3  2  2  0
  5  4  1  0
  6  5  1  0
  6  7  1  1
  8  9  2  0
  8  6  1  0
 10 11  1  0
 11 12  2  0
 12 13  1  0
 14 15  1  0
 14 13  2  0
 16 15  1  1
 16 17  1  0
 17  8  1  0
 18 16  1  0
 19 18  2  0
 20 14  1  0
 21 20  2  0
 21 11  1  0
 23 24  2  0
 23 22  1  0
 25 23  1  0
 27 26  1  1
 26 25  1  0
 27 28  1  0
 28 18  1  0
 29 27  1  0
 30 29  2  0
 31 29  1  0
M  END
$$$$
