QYQ.pdb
     RDKit          3D

 31 31  0  0  1  0  0  0  0  0999 V2000
    7.6714  -14.8896   18.3755 N   0  0  0  0  0  0  0  0  0  0  0  0
    8.1165  -16.0695   17.7357 C   0  0  0  0  0  0  0  0  0  0  0  0
    7.5429  -16.5098   16.7137 O   0  0  0  0  0  0  0  0  0  0  0  0
    9.2784  -16.7924   18.2853 C   0  0  0  0  0  0  0  0  0  0  0  0
    9.8595  -16.0385   19.4681 C   0  0  0  0  0  0  0  0  0  0  0  0
    9.9005  -17.0167   20.6310 C   0  0  2  0  0  0  0  0  0  0  0  0
    8.5953  -17.5207   20.8378 N   0  0  0  0  0  0  0  0  0  0  0  0
   10.3979  -16.3241   21.8514 C   0  0  0  0  0  0  0  0  0  0  0  0
   11.5325  -15.7403   21.8134 O   0  0  0  0  0  0  0  0  0  0  0  0
   10.2058  -14.7818   30.7059 O   0  0  0  0  0  0  0  0  0  0  0  0
    9.9501  -14.9111   29.3549 C   0  0  0  0  0  0  0  0  0  0  0  0
    9.8926  -13.8082   28.5294 C   0  0  0  0  0  0  0  0  0  0  0  0
    9.6317  -14.0003   27.1780 C   0  0  0  0  0  0  0  0  0  0  0  0
    9.4290  -15.2358   26.6288 C   0  0  0  0  0  0  0  0  0  0  0  0
    9.1595  -15.4146   25.2049 C   0  0  0  0  0  0  0  0  0  0  0  0
   10.2788  -15.8285   24.3270 C   0  0  2  0  0  0  0  0  0  0  0  0
    9.6621  -16.2893   23.0472 N   0  0  0  0  0  0  0  0  0  0  0  0
   11.1449  -16.9137   24.7510 C   0  0  0  0  0  0  0  0  0  0  0  0
   10.7200  -18.1200   24.6623 O   0  0  0  0  0  0  0  0  0  0  0  0
    9.4930  -16.3356   27.4893 C   0  0  0  0  0  0  0  0  0  0  0  0
    9.7486  -16.1740   28.8253 C   0  0  0  0  0  0  0  0  0  0  0  0
   16.5927  -17.9759   22.8102 N   0  0  0  0  0  0  0  0  0  0  0  0
   16.2458  -16.7704   23.4322 C   0  0  0  0  0  0  0  0  0  0  0  0
   16.8525  -15.7175   23.1039 O   0  0  0  0  0  0  0  0  0  0  0  0
   15.1819  -16.6615   24.4776 C   0  0  0  0  0  0  0  0  0  0  0  0
   14.4606  -17.9513   24.6679 C   0  0  0  0  0  0  0  0  0  0  0  0
   13.2895  -17.8632   25.6425 C   0  0  2  0  0  0  0  0  0  0  0  0
   12.4512  -16.7077   25.2556 N   0  0  0  0  0  0  0  0  0  0  0  0
   13.6961  -17.7080   27.0386 C   0  0  0  0  0  0  0  0  0  0  0  0
   14.4405  -18.5483   27.5880 O   0  0  0  0  0  0  0  0  0  0  0  0
   13.3017  -16.6442   27.8470 O   0  0  0  0  0  0  0  0  0  0  0  0
  2  1  1  0
  2  4  1  0
  3  2  2  0
  5  4  1  0
  6  5  1  0
  6  7  1  1
  8  9  2  0
  8  6  1  0
 10 11  1  0
 11 12  2  0
 12 13  1  0
 14 15  1  0
 14 13  2  0
 16 15  1  1
 16 17  1  0
 17  8  1  0
 18 16  1  0
 19 18  2  0
 20 14  1  0
 21 20  2  0
 21 11  1  0
 23 24  2  0
 23 22  1  0
 25 23  1  0
 27 26  1  6
 26 25  1  0
 27 28  1  0
 28 18  1  0
 29 27  1  0
 30 29  2  0
 31 29  1  0
M  END
$$$$
