QYQ.pdb
     RDKit          3D

 31 31  0  0  1  0  0  0  0  0999 V2000
   13.2214  -18.5062   18.3301 N   0  0  0  0  0  0  0  0  0  0  0  0
   12.0661  -18.7570   17.5542 C   0  0  0  0  0  0  0  0  0  0  0  0
   12.1100  -19.4958   16.5444 O   0  0  0  0  0  0  0  0  0  0  0  0
   10.7874  -18.1349   17.9445 C   0  0  0  0  0  0  0  0  0  0  0  0
   10.9638  -17.3098   19.2068 C   0  0  0  0  0  0  0  0  0  0  0  0
    9.7480  -17.5806   20.0781 C   0  0  2  0  0  0  0  0  0  0  0  0
    8.5850  -17.3675   19.3019 N   0  0  0  0  0  0  0  0  0  0  0  0
    9.7665  -16.6753   21.2599 C   0  0  0  0  0  0  0  0  0  0  0  0
   10.8902  -16.3170   21.7482 O   0  0  0  0  0  0  0  0  0  0  0  0
    6.4229  -11.2715   27.5747 O   0  0  0  0  0  0  0  0  0  0  0  0
    6.7195  -12.0144   26.4489 C   0  0  0  0  0  0  0  0  0  0  0  0
    7.5451  -11.5186   25.4622 C   0  0  0  0  0  0  0  0  0  0  0  0
    7.8076  -12.3122   24.3520 C   0  0  0  0  0  0  0  0  0  0  0  0
    7.2834  -13.5649   24.1935 C   0  0  0  0  0  0  0  0  0  0  0  0
    7.5755  -14.3829   23.0198 C   0  0  0  0  0  0  0  0  0  0  0  0
    8.6241  -15.4232   23.1348 C   0  0  2  0  0  0  0  0  0  0  0  0
    8.5889  -16.1994   21.8593 N   0  0  0  0  0  0  0  0  0  0  0  0
    8.5239  -16.4131   24.1920 C   0  0  0  0  0  0  0  0  0  0  0  0
    7.8979  -17.5080   23.9621 O   0  0  0  0  0  0  0  0  0  0  0  0
    6.4500  -14.0417   25.2095 C   0  0  0  0  0  0  0  0  0  0  0  0
    6.1749  -13.2799   26.3142 C   0  0  0  0  0  0  0  0  0  0  0  0
   12.3321  -19.4685   23.2568 N   0  0  0  0  0  0  0  0  0  0  0  0
   12.4794  -19.6199   24.6409 C   0  0  0  0  0  0  0  0  0  0  0  0
   12.9915  -20.6793   25.0880 O   0  0  0  0  0  0  0  0  0  0  0  0
   12.0575  -18.5813   25.6307 C   0  0  0  0  0  0  0  0  0  0  0  0
   11.0126  -17.6779   25.0718 C   0  0  0  0  0  0  0  0  0  0  0  0
    9.9262  -17.2995   26.0745 C   0  0  2  0  0  0  0  0  0  0  0  0
    9.0940  -16.2337   25.4751 N   0  0  0  0  0  0  0  0  0  0  0  0
   10.4472  -16.8295   27.3575 C   0  0  0  0  0  0  0  0  0  0  0  0
   10.5060  -15.6085   27.6183 O   0  0  0  0  0  0  0  0  0  0  0  0
   10.9057  -17.6756   28.3647 O   0  0  0  0  0  0  0  0  0  0  0  0
  2  1  1  0
  2  4  1  0
  3  2  2  0
  5  4  1  0
  6  5  1  0
  6  7  1  6
  8  9  2  0
  8  6  1  0
 10 11  1  0
 11 12  2  0
 12 13  1  0
 14 15  1  0
 14 13  2  0
 16 15  1  6
 16 17  1  0
 17  8  1  0
 18 16  1  0
 19 18  2  0
 20 14  1  0
 21 20  2  0
 21 11  1  0
 23 24  2  0
 23 22  1  0
 25 23  1  0
 27 26  1  6
 26 25  1  0
 27 28  1  0
 28 18  1  0
 29 27  1  0
 30 29  2  0
 31 29  1  0
M  END
$$$$
