QYQ.pdb
     RDKit          3D

 31 31  0  0  1  0  0  0  0  0999 V2000
    5.6770  -19.5748   19.2026 N   0  0  0  0  0  0  0  0  0  0  0  0
    6.7202  -19.5762   18.2480 C   0  0  0  0  0  0  0  0  0  0  0  0
    6.6723  -20.3102   17.2349 O   0  0  0  0  0  0  0  0  0  0  0  0
    7.8849  -18.6952   18.4526 C   0  0  0  0  0  0  0  0  0  0  0  0
    7.7084  -17.8692   19.7143 C   0  0  0  0  0  0  0  0  0  0  0  0
    8.2635  -16.4868   19.4117 C   0  0  2  0  0  0  0  0  0  0  0  0
    9.3752  -16.6301   18.5493 N   0  0  0  0  0  0  0  0  0  0  0  0
    8.6629  -15.8181   20.6804 C   0  0  0  0  0  0  0  0  0  0  0  0
    9.8704  -15.9216   21.0816 O   0  0  0  0  0  0  0  0  0  0  0  0
    6.8656  -11.6749   28.4465 O   0  0  0  0  0  0  0  0  0  0  0  0
    6.9398  -12.1021   27.1352 C   0  0  0  0  0  0  0  0  0  0  0  0
    7.6811  -11.4122   26.1994 C   0  0  0  0  0  0  0  0  0  0  0  0
    7.7184  -11.8900   24.8950 C   0  0  0  0  0  0  0  0  0  0  0  0
    7.0522  -13.0155   24.4967 C   0  0  0  0  0  0  0  0  0  0  0  0
    7.1082  -13.5014   23.1210 C   0  0  0  0  0  0  0  0  0  0  0  0
    8.1557  -14.4883   22.7690 C   0  0  2  0  0  0  0  0  0  0  0  0
    7.7570  -15.0751   21.4548 N   0  0  0  0  0  0  0  0  0  0  0  0
    8.3803  -15.6230   23.6464 C   0  0  0  0  0  0  0  0  0  0  0  0
    7.5495  -16.5991   23.6264 O   0  0  0  0  0  0  0  0  0  0  0  0
    6.3088  -13.6945   25.4665 C   0  0  0  0  0  0  0  0  0  0  0  0
    6.2552  -13.2449   26.7593 C   0  0  0  0  0  0  0  0  0  0  0  0
   12.1397  -19.8273   23.3222 N   0  0  0  0  0  0  0  0  0  0  0  0
   12.6782  -18.5842   23.6760 C   0  0  0  0  0  0  0  0  0  0  0  0
   13.8802  -18.3375   23.3953 O   0  0  0  0  0  0  0  0  0  0  0  0
   11.8964  -17.5196   24.3773 C   0  0  0  0  0  0  0  0  0  0  0  0
   10.4829  -17.9319   24.6052 C   0  0  0  0  0  0  0  0  0  0  0  0
    9.6604  -16.9068   25.3809 C   0  0  2  0  0  0  0  0  0  0  0  0
    9.4850  -15.7122   24.5269 N   0  0  0  0  0  0  0  0  0  0  0  0
   10.2693  -16.4999   26.6466 C   0  0  0  0  0  0  0  0  0  0  0  0
   10.6113  -15.3138   26.8428 O   0  0  0  0  0  0  0  0  0  0  0  0
   10.5104  -17.3714   27.7064 O   0  0  0  0  0  0  0  0  0  0  0  0
  2  1  1  0
  2  4  1  0
  3  2  2  0
  5  4  1  0
  6  5  1  0
  6  7  1  6
  8  9  2  0
  8  6  1  0
 10 11  1  0
 11 12  2  0
 12 13  1  0
 14 15  1  0
 14 13  2  0
 16 15  1  1
 16 17  1  0
 17  8  1  0
 18 16  1  0
 19 18  2  0
 20 14  1  0
 21 20  2  0
 21 11  1  0
 23 24  2  0
 23 22  1  0
 25 23  1  0
 27 26  1  6
 26 25  1  0
 27 28  1  0
 28 18  1  0
 29 27  1  0
 30 29  2  0
 31 29  1  0
M  END
$$$$
