QYQ.pdb
     RDKit          3D

 31 31  0  0  1  0  0  0  0  0999 V2000
    3.3956  -24.0658   27.8904 N   0  0  0  0  0  0  0  0  0  0  0  0
    3.9067  -23.5965   26.6583 C   0  0  0  0  0  0  0  0  0  0  0  0
    3.1542  -23.0972   25.7912 O   0  0  0  0  0  0  0  0  0  0  0  0
    5.3537  -23.6988   26.3930 C   0  0  0  0  0  0  0  0  0  0  0  0
    6.0612  -24.3565   27.5643 C   0  0  0  0  0  0  0  0  0  0  0  0
    7.3608  -23.5958   27.7717 C   0  0  2  0  0  0  0  0  0  0  0  0
    8.2277  -23.8889   26.6933 N   0  0  0  0  0  0  0  0  0  0  0  0
    7.9756  -23.9973   29.0667 C   0  0  0  0  0  0  0  0  0  0  0  0
    7.3360  -23.7799   30.1499 O   0  0  0  0  0  0  0  0  0  0  0  0
    5.1227  -29.0926   31.5320 O   0  0  0  0  0  0  0  0  0  0  0  0
    6.3074  -28.4113   31.3330 C   0  0  0  0  0  0  0  0  0  0  0  0
    6.9848  -27.8324   32.3852 C   0  0  0  0  0  0  0  0  0  0  0  0
    8.1723  -27.1596   32.1237 C   0  0  0  0  0  0  0  0  0  0  0  0
    8.7005  -27.0454   30.8679 C   0  0  0  0  0  0  0  0  0  0  0  0
    9.9520  -26.3364   30.6166 C   0  0  0  0  0  0  0  0  0  0  0  0
    9.9024  -24.8647   30.4536 C   0  0  2  0  0  0  0  0  0  0  0  0
    9.2379  -24.6086   29.1408 N   0  0  0  0  0  0  0  0  0  0  0  0
   11.1459  -24.1167   30.4094 C   0  0  0  0  0  0  0  0  0  0  0  0
   11.9341  -24.2782   29.4114 O   0  0  0  0  0  0  0  0  0  0  0  0
    7.9924  -27.6419   29.8206 C   0  0  0  0  0  0  0  0  0  0  0  0
    6.8195  -28.3109   30.0509 C   0  0  0  0  0  0  0  0  0  0  0  0
   12.8049  -20.1239   27.6264 N   0  0  0  0  0  0  0  0  0  0  0  0
   13.9130  -20.0773   28.4810 C   0  0  0  0  0  0  0  0  0  0  0  0
   14.9071  -19.3780   28.1540 O   0  0  0  0  0  0  0  0  0  0  0  0
   13.9832  -20.8208   29.7767 C   0  0  0  0  0  0  0  0  0  0  0  0
   12.7754  -21.6656   29.9949 C   0  0  0  0  0  0  0  0  0  0  0  0
   12.8071  -22.4594   31.2979 C   0  0  2  0  0  0  0  0  0  0  0  0
   11.5341  -23.2028   31.4181 N   0  0  0  0  0  0  0  0  0  0  0  0
   12.9861  -21.6295   32.4886 C   0  0  0  0  0  0  0  0  0  0  0  0
   14.0996  -21.1330   32.7639 O   0  0  0  0  0  0  0  0  0  0  0  0
   11.9635  -21.3311   33.3863 O   0  0  0  0  0  0  0  0  0  0  0  0
  2  1  1  0
  2  4  1  0
  3  2  2  0
  5  4  1  0
  6  5  1  0
  6  7  1  6
  8  9  2  0
  8  6  1  0
 10 11  1  0
 11 12  2  0
 12 13  1  0
 14 15  1  0
 14 13  2  0
 16 15  1  6
 16 17  1  0
 17  8  1  0
 18 16  1  0
 19 18  2  0
 20 14  1  0
 21 20  2  0
 21 11  1  0
 23 24  2  0
 23 22  1  0
 25 23  1  0
 27 26  1  6
 26 25  1  0
 27 28  1  0
 28 18  1  0
 29 27  1  0
 30 29  2  0
 31 29  1  0
M  END
$$$$
