QYQ.pdb
     RDKit          3D

 31 31  0  0  1  0  0  0  0  0999 V2000
    8.3214  -13.2454   16.3500 N   0  0  0  0  0  0  0  0  0  0  0  0
    8.0612  -14.6278   16.2064 C   0  0  0  0  0  0  0  0  0  0  0  0
    7.7597  -15.1198   15.0952 O   0  0  0  0  0  0  0  0  0  0  0  0
    8.1474  -15.5037   17.3896 C   0  0  0  0  0  0  0  0  0  0  0  0
    8.4947  -14.6918   18.6247 C   0  0  0  0  0  0  0  0  0  0  0  0
    9.0677  -15.6669   19.6405 C   0  0  2  0  0  0  0  0  0  0  0  0
    8.2089  -16.7879   19.7181 N   0  0  0  0  0  0  0  0  0  0  0  0
    9.1844  -14.9991   20.9659 C   0  0  0  0  0  0  0  0  0  0  0  0
   10.0592  -14.0827   21.1230 O   0  0  0  0  0  0  0  0  0  0  0  0
    6.0881  -11.3438   28.4234 O   0  0  0  0  0  0  0  0  0  0  0  0
    6.3438  -11.9773   27.2231 C   0  0  0  0  0  0  0  0  0  0  0  0
    7.0306  -11.3408   26.2110 C   0  0  0  0  0  0  0  0  0  0  0  0
    7.2583  -12.0288   25.0252 C   0  0  0  0  0  0  0  0  0  0  0  0
    6.8314  -13.3107   24.8163 C   0  0  0  0  0  0  0  0  0  0  0  0
    7.0849  -14.0159   23.5631 C   0  0  0  0  0  0  0  0  0  0  0  0
    8.4317  -14.5929   23.3443 C   0  0  2  0  0  0  0  0  0  0  0  0
    8.3646  -15.3415   22.0537 N   0  0  0  0  0  0  0  0  0  0  0  0
    8.9610  -15.5375   24.3115 C   0  0  0  0  0  0  0  0  0  0  0  0
    9.0000  -15.2050   25.5489 O   0  0  0  0  0  0  0  0  0  0  0  0
    6.1379  -13.9309   25.8596 C   0  0  0  0  0  0  0  0  0  0  0  0
    5.9000  -13.2754   27.0386 C   0  0  0  0  0  0  0  0  0  0  0  0
    8.3288  -19.3517   27.6476 N   0  0  0  0  0  0  0  0  0  0  0  0
    7.3623  -19.0629   26.6765 C   0  0  0  0  0  0  0  0  0  0  0  0
    6.1525  -19.0019   27.0186 O   0  0  0  0  0  0  0  0  0  0  0  0
    7.6901  -18.8196   25.2378 C   0  0  0  0  0  0  0  0  0  0  0  0
    9.1398  -19.0225   24.9598 C   0  0  0  0  0  0  0  0  0  0  0  0
    9.9591  -17.7354   24.9958 C   0  0  2  0  0  0  0  0  0  0  0  0
    9.4343  -16.8234   23.9565 N   0  0  0  0  0  0  0  0  0  0  0  0
   11.3889  -17.9413   24.7683 C   0  0  0  0  0  0  0  0  0  0  0  0
   12.1081  -18.4737   25.6410 O   0  0  0  0  0  0  0  0  0  0  0  0
   12.0481  -17.5744   23.5971 O   0  0  0  0  0  0  0  0  0  0  0  0
  2  1  1  0
  2  4  1  0
  3  2  2  0
  5  4  1  0
  6  5  1  0
  6  7  1  1
  8  9  2  0
  8  6  1  0
 10 11  1  0
 11 12  2  0
 12 13  1  0
 14 15  1  0
 14 13  2  0
 16 15  1  1
 16 17  1  0
 17  8  1  0
 18 16  1  0
 19 18  2  0
 20 14  1  0
 21 20  2  0
 21 11  1  0
 23 24  2  0
 23 22  1  0
 25 23  1  0
 27 26  1  6
 26 25  1  0
 27 28  1  0
 28 18  1  0
 29 27  1  0
 30 29  2  0
 31 29  1  0
M  END
$$$$
