QYQ.pdb
     RDKit          3D

 31 31  0  0  1  0  0  0  0  0999 V2000
-18077688.00007382669.5000-2218635.5000 N   0  0  0  0  0  0  0  0  0  0  0  0
-18077690.00007382670.5000-2218634.5000 C   0  0  0  0  0  0  0  0  0  0  0  0
-18077692.00007382671.0000-2218634.0000 O   0  0  0  0  0  0  0  0  0  0  0  0
-18077690.00007382671.0000-2218636.5000 C   0  0  0  0  0  0  0  0  0  0  0  0
-18077692.00007382670.0000-2218636.5000 C   0  0  0  0  0  0  0  0  0  0  0  0
-18077692.00007382670.0000-2218635.5000 C   0  0  0  0  0  0  0  0  0  0  0  0
-18077692.00007382672.0000-2218637.0000 N   0  0  0  0  0  0  0  0  0  0  0  0
-18077692.00007382672.0000-2218635.0000 C   0  0  0  0  0  0  0  0  0  0  0  0
-18077692.00007382671.0000-2218633.0000 O   0  0  0  0  0  0  0  0  0  0  0  0
-18077694.00007382678.5000-2218632.0000 O   0  0  0  0  0  0  0  0  0  0  0  0
-18077692.00007382677.0000-2218633.5000 C   0  0  0  0  0  0  0  0  0  0  0  0
-18077692.00007382676.0000-2218632.5000 C   0  0  0  0  0  0  0  0  0  0  0  0
-18077694.00007382675.0000-2218632.5000 C   0  0  0  0  0  0  0  0  0  0  0  0
-18077692.00007382675.0000-2218635.0000 C   0  0  0  0  0  0  0  0  0  0  0  0
-18077692.00007382674.5000-2218635.0000 C   0  0  0  0  0  0  0  0  0  0  0  0
-18077692.00007382673.5000-2218634.0000 C   0  0  0  0  0  0  0  0  0  0  0  0
-18077692.00007382673.0000-2218634.5000 N   0  0  0  0  0  0  0  0  0  0  0  0
-18077692.00007382672.5000-2218633.5000 C   0  0  0  0  0  0  0  0  0  0  0  0
-18077692.00007382673.0000-2218633.0000 O   0  0  0  0  0  0  0  0  0  0  0  0
-18077692.00007382677.0000-2218633.5000 C   0  0  0  0  0  0  0  0  0  0  0  0
-18077692.00007382678.0000-2218633.0000 C   0  0  0  0  0  0  0  0  0  0  0  0
-18077688.00007382672.0000-2218631.0000 N   0  0  0  0  0  0  0  0  0  0  0  0
-18077690.00007382673.0000-2218630.0000 C   0  0  0  0  0  0  0  0  0  0  0  0
-18077690.00007382673.5000-2218631.0000 O   0  0  0  0  0  0  0  0  0  0  0  0
-18077690.00007382672.0000-2218630.0000 C   0  0  0  0  0  0  0  0  0  0  0  0
-18077692.00007382671.0000-2218631.0000 C   0  0  0  0  0  0  0  0  0  0  0  0
-18077692.00007382670.5000-2218631.0000 C   0  0  0  0  0  0  0  0  0  0  0  0
-18077692.00007382671.5000-2218633.5000 N   0  0  0  0  0  0  0  0  0  0  0  0
-18077692.00007382669.5000-2218630.5000 C   0  0  0  0  0  0  0  0  0  0  0  0
-18077692.00007382669.5000-2218629.5000 O   0  0  0  0  0  0  0  0  0  0  0  0
-18077692.00007382670.5000-2218631.0000 O   0  0  0  0  0  0  0  0  0  0  0  0
  2  1  1  0
  2  4  1  0
  3  2  2  0
  5  4  1  0
  6  5  1  0
  6  7  1  1
  8  9  2  0
  8  6  1  0
 10 11  1  0
 11 12  2  0
 12 13  1  0
 14 15  1  0
 14 13  2  0
 16 15  1  6
 16 17  1  0
 17  8  1  0
 18 16  1  0
 19 18  2  0
 20 14  1  0
 21 20  2  0
 21 11  1  0
 23 24  2  0
 23 22  1  0
 25 23  1  0
 27 26  1  1
 26 25  1  0
 27 28  1  0
 28 18  1  0
 29 27  1  0
 30 29  2  0
 31 29  1  0
M  END
$$$$
