QYQ.pdb
     RDKit          3D

 31 31  0  0  1  0  0  0  0  0999 V2000
    7.7952  -21.0983   20.0076 N   0  0  0  0  0  0  0  0  0  0  0  0
    8.9384  -20.9055   19.1981 C   0  0  0  0  0  0  0  0  0  0  0  0
    9.2285  -21.7085   18.2824 O   0  0  0  0  0  0  0  0  0  0  0  0
    9.8031  -19.7356   19.4397 C   0  0  0  0  0  0  0  0  0  0  0  0
    9.2533  -18.8980   20.5804 C   0  0  0  0  0  0  0  0  0  0  0  0
    9.5171  -17.4447   20.2207 C   0  0  2  0  0  0  0  0  0  0  0  0
   10.7183  -17.3790   19.4770 N   0  0  0  0  0  0  0  0  0  0  0  0
    9.6210  -16.6316   21.4634 C   0  0  0  0  0  0  0  0  0  0  0  0
   10.7552  -16.5223   22.0392 O   0  0  0  0  0  0  0  0  0  0  0  0
    6.6314  -11.2626   28.0201 O   0  0  0  0  0  0  0  0  0  0  0  0
    6.8576  -11.9804   26.8621 C   0  0  0  0  0  0  0  0  0  0  0  0
    7.7280  -11.5227   25.8957 C   0  0  0  0  0  0  0  0  0  0  0  0
    7.9153  -12.2884   24.7512 C   0  0  0  0  0  0  0  0  0  0  0  0
    7.2744  -13.4773   24.5396 C   0  0  0  0  0  0  0  0  0  0  0  0
    7.4890  -14.2673   23.3305 C   0  0  0  0  0  0  0  0  0  0  0  0
    8.6290  -15.2132   23.3052 C   0  0  2  0  0  0  0  0  0  0  0  0
    8.5133  -15.9781   22.0277 N   0  0  0  0  0  0  0  0  0  0  0  0
    8.7367  -16.2174   24.3482 C   0  0  0  0  0  0  0  0  0  0  0  0
    8.1622  -17.3513   24.1820 O   0  0  0  0  0  0  0  0  0  0  0  0
    6.3979  -13.9166   25.5360 C   0  0  0  0  0  0  0  0  0  0  0  0
    6.1951  -13.1811   26.6737 C   0  0  0  0  0  0  0  0  0  0  0  0
   12.6999  -19.4947   23.8745 N   0  0  0  0  0  0  0  0  0  0  0  0
   12.5506  -19.7986   25.2332 C   0  0  0  0  0  0  0  0  0  0  0  0
   13.2070  -20.7558   25.7203 O   0  0  0  0  0  0  0  0  0  0  0  0
   11.6441  -19.0407   26.1498 C   0  0  0  0  0  0  0  0  0  0  0  0
   10.9099  -17.9610   25.4321 C   0  0  0  0  0  0  0  0  0  0  0  0
    9.9597  -17.1659   26.3231 C   0  0  2  0  0  0  0  0  0  0  0  0
    9.4572  -16.0102   25.5488 N   0  0  0  0  0  0  0  0  0  0  0  0
   10.5778  -16.6785   27.5555 C   0  0  0  0  0  0  0  0  0  0  0  0
   11.0951  -15.5419   27.6086 O   0  0  0  0  0  0  0  0  0  0  0  0
   10.6389  -17.4156   28.7360 O   0  0  0  0  0  0  0  0  0  0  0  0
  2  1  1  0
  2  4  1  0
  3  2  2  0
  5  4  1  0
  6  5  1  0
  6  7  1  1
  8  9  2  0
  8  6  1  0
 10 11  1  0
 11 12  2  0
 12 13  1  0
 14 15  1  0
 14 13  2  0
 16 15  1  1
 16 17  1  0
 17  8  1  0
 18 16  1  0
 19 18  2  0
 20 14  1  0
 21 20  2  0
 21 11  1  0
 23 24  2  0
 23 22  1  0
 25 23  1  0
 27 26  1  6
 26 25  1  0
 27 28  1  0
 28 18  1  0
 29 27  1  0
 30 29  2  0
 31 29  1  0
M  END
$$$$
