QYQ.pdb
     RDKit          3D

 31 31  0  0  1  0  0  0  0  0999 V2000
    8.3314  -13.0341   15.8643 N   0  0  0  0  0  0  0  0  0  0  0  0
    8.3476  -14.4460   15.9414 C   0  0  0  0  0  0  0  0  0  0  0  0
    7.6515  -15.1463   15.1718 O   0  0  0  0  0  0  0  0  0  0  0  0
    9.2015  -15.1025   16.9486 C   0  0  0  0  0  0  0  0  0  0  0  0
    8.9122  -14.5462   18.3313 C   0  0  0  0  0  0  0  0  0  0  0  0
    9.4367  -15.5654   19.3298 C   0  0  2  0  0  0  0  0  0  0  0  0
    8.6020  -16.7062   19.2848 N   0  0  0  0  0  0  0  0  0  0  0  0
    9.4448  -14.9715   20.6950 C   0  0  0  0  0  0  0  0  0  0  0  0
   10.1967  -13.9667   20.9289 O   0  0  0  0  0  0  0  0  0  0  0  0
    6.1879  -11.5156   28.0516 O   0  0  0  0  0  0  0  0  0  0  0  0
    6.5291  -12.0825   26.8394 C   0  0  0  0  0  0  0  0  0  0  0  0
    7.4369  -11.4763   25.9970 C   0  0  0  0  0  0  0  0  0  0  0  0
    7.7411  -12.0940   24.7898 C   0  0  0  0  0  0  0  0  0  0  0  0
    7.1801  -13.2779   24.3990 C   0  0  0  0  0  0  0  0  0  0  0  0
    7.5171  -13.9109   23.1270 C   0  0  0  0  0  0  0  0  0  0  0  0
    8.6606  -14.8524   23.0947 C   0  0  2  0  0  0  0  0  0  0  0  0
    8.6529  -15.4778   21.7386 N   0  0  0  0  0  0  0  0  0  0  0  0
    8.6890  -15.9614   24.0313 C   0  0  0  0  0  0  0  0  0  0  0  0
    7.8816  -16.9421   23.8591 O   0  0  0  0  0  0  0  0  0  0  0  0
    6.2633  -13.8695   25.2728 C   0  0  0  0  0  0  0  0  0  0  0  0
    5.9457  -13.2817   26.4686 C   0  0  0  0  0  0  0  0  0  0  0  0
   14.5997  -19.3515   25.4675 N   0  0  0  0  0  0  0  0  0  0  0  0
   13.4248  -19.0378   24.7734 C   0  0  0  0  0  0  0  0  0  0  0  0
   13.4672  -18.9272   23.5203 O   0  0  0  0  0  0  0  0  0  0  0  0
   12.1058  -18.8241   25.4451 C   0  0  0  0  0  0  0  0  0  0  0  0
   11.4322  -17.5874   24.9584 C   0  0  0  0  0  0  0  0  0  0  0  0
   10.0788  -17.3257   25.6132 C   0  0  2  0  0  0  0  0  0  0  0  0
    9.5766  -16.0204   25.1323 N   0  0  0  0  0  0  0  0  0  0  0  0
   10.1258  -17.3067   27.0747 C   0  0  0  0  0  0  0  0  0  0  0  0
   10.0302  -18.3641   27.7341 O   0  0  0  0  0  0  0  0  0  0  0  0
   10.2776  -16.1462   27.8302 O   0  0  0  0  0  0  0  0  0  0  0  0
  2  1  1  0
  2  4  1  0
  3  2  2  0
  5  4  1  0
  6  5  1  0
  6  7  1  1
  8  9  2  0
  8  6  1  0
 10 11  1  0
 11 12  2  0
 12 13  1  0
 14 15  1  0
 14 13  2  0
 16 15  1  1
 16 17  1  0
 17  8  1  0
 18 16  1  0
 19 18  2  0
 20 14  1  0
 21 20  2  0
 21 11  1  0
 23 24  2  0
 23 22  1  0
 25 23  1  0
 27 26  1  6
 26 25  1  0
 27 28  1  0
 28 18  1  0
 29 27  1  0
 30 29  2  0
 31 29  1  0
M  END
$$$$
