QYQ.pdb
     RDKit          3D

 31 31  0  0  1  0  0  0  0  0999 V2000
    8.6004  -13.2212   15.6914 N   0  0  0  0  0  0  0  0  0  0  0  0
    8.1724  -14.5496   15.4639 C   0  0  0  0  0  0  0  0  0  0  0  0
    8.0542  -15.0039   14.3032 O   0  0  0  0  0  0  0  0  0  0  0  0
    7.8603  -15.4134   16.6176 C   0  0  0  0  0  0  0  0  0  0  0  0
    8.1476  -14.6838   17.9178 C   0  0  0  0  0  0  0  0  0  0  0  0
    8.9919  -15.6209   18.7662 C   0  0  2  0  0  0  0  0  0  0  0  0
    8.3022  -16.8487   18.8978 N   0  0  0  0  0  0  0  0  0  0  0  0
    9.2350  -15.0071   20.1006 C   0  0  0  0  0  0  0  0  0  0  0  0
   10.0723  -14.0484   20.1981 O   0  0  0  0  0  0  0  0  0  0  0  0
    6.8207  -12.3899   28.2741 O   0  0  0  0  0  0  0  0  0  0  0  0
    6.9711  -12.8519   26.9813 C   0  0  0  0  0  0  0  0  0  0  0  0
    7.4889  -12.0458   25.9897 C   0  0  0  0  0  0  0  0  0  0  0  0
    7.6167  -12.5658   24.7073 C   0  0  0  0  0  0  0  0  0  0  0  0
    7.2518  -13.8429   24.3837 C   0  0  0  0  0  0  0  0  0  0  0  0
    7.3982  -14.3697   23.0297 C   0  0  0  0  0  0  0  0  0  0  0  0
    8.7543  -14.7479   22.5684 C   0  0  2  0  0  0  0  0  0  0  0  0
    8.5747  -15.4455   21.2601 N   0  0  0  0  0  0  0  0  0  0  0  0
    9.5507  -15.6498   23.3807 C   0  0  0  0  0  0  0  0  0  0  0  0
    9.2518  -16.8962   23.4021 O   0  0  0  0  0  0  0  0  0  0  0  0
    6.7300  -14.6373   25.4088 C   0  0  0  0  0  0  0  0  0  0  0  0
    6.5933  -14.1494   26.6814 C   0  0  0  0  0  0  0  0  0  0  0  0
   10.1136  -14.2204   29.0758 N   0  0  0  0  0  0  0  0  0  0  0  0
   10.6534  -15.5120   29.0485 C   0  0  0  0  0  0  0  0  0  0  0  0
   10.7833  -16.1423   30.1303 O   0  0  0  0  0  0  0  0  0  0  0  0
   11.0899  -16.1939   27.7911 C   0  0  0  0  0  0  0  0  0  0  0  0
   10.6639  -15.4408   26.5780 C   0  0  0  0  0  0  0  0  0  0  0  0
   11.1520  -16.0555   25.2693 C   0  0  2  0  0  0  0  0  0  0  0  0
   10.6568  -15.2213   24.1530 N   0  0  0  0  0  0  0  0  0  0  0  0
   10.7081  -17.4338   25.0647 C   0  0  0  0  0  0  0  0  0  0  0  0
   11.5295  -18.3753   25.0345 O   0  0  0  0  0  0  0  0  0  0  0  0
    9.3754  -17.8014   24.8932 O   0  0  0  0  0  0  0  0  0  0  0  0
  2  1  1  0
  2  4  1  0
  3  2  2  0
  5  4  1  0
  6  5  1  0
  6  7  1  1
  8  9  2  0
  8  6  1  0
 10 11  1  0
 11 12  2  0
 12 13  1  0
 14 15  1  0
 14 13  2  0
 16 15  1  1
 16 17  1  0
 17  8  1  0
 18 16  1  0
 19 18  2  0
 20 14  1  0
 21 20  2  0
 21 11  1  0
 23 24  2  0
 23 22  1  0
 25 23  1  0
 27 26  1  1
 26 25  1  0
 27 28  1  0
 28 18  1  0
 29 27  1  0
 30 29  2  0
 31 29  1  0
M  END
$$$$
