QYQ.pdb
     RDKit          3D

 31 31  0  0  1  0  0  0  0  0999 V2000
    8.4494  -12.9292   16.8028 N   0  0  0  0  0  0  0  0  0  0  0  0
    8.3810  -14.2421   16.2819 C   0  0  0  0  0  0  0  0  0  0  0  0
    7.8309  -14.4764   15.1820 O   0  0  0  0  0  0  0  0  0  0  0  0
    8.9698  -15.3538   17.0514 C   0  0  0  0  0  0  0  0  0  0  0  0
    9.5666  -14.8408   18.3498 C   0  0  0  0  0  0  0  0  0  0  0  0
    9.5550  -16.0065   19.3255 C   0  0  2  0  0  0  0  0  0  0  0  0
    8.3717  -16.7525   19.1170 N   0  0  0  0  0  0  0  0  0  0  0  0
    9.6153  -15.4925   20.7214 C   0  0  0  0  0  0  0  0  0  0  0  0
   10.6629  -14.8746   21.1093 O   0  0  0  0  0  0  0  0  0  0  0  0
    6.1644  -11.6085   27.9243 O   0  0  0  0  0  0  0  0  0  0  0  0
    6.4192  -12.2922   26.7517 C   0  0  0  0  0  0  0  0  0  0  0  0
    5.8822  -13.5410   26.5211 C   0  0  0  0  0  0  0  0  0  0  0  0
    6.1738  -14.1807   25.3224 C   0  0  0  0  0  0  0  0  0  0  0  0
    6.9705  -13.6267   24.3593 C   0  0  0  0  0  0  0  0  0  0  0  0
    7.2610  -14.3158   23.1051 C   0  0  0  0  0  0  0  0  0  0  0  0
    8.5682  -14.9995   22.9683 C   0  0  2  0  0  0  0  0  0  0  0  0
    8.5583  -15.6631   21.6304 N   0  0  0  0  0  0  0  0  0  0  0  0
    8.9221  -16.0425   23.9141 C   0  0  0  0  0  0  0  0  0  0  0  0
    8.5597  -17.2487   23.6748 O   0  0  0  0  0  0  0  0  0  0  0  0
    7.5011  -12.3600   24.6201 C   0  0  0  0  0  0  0  0  0  0  0  0
    7.2295  -11.7076   25.7936 C   0  0  0  0  0  0  0  0  0  0  0  0
   11.6842  -15.2362   29.6846 N   0  0  0  0  0  0  0  0  0  0  0  0
   11.3673  -16.5987   29.6234 C   0  0  0  0  0  0  0  0  0  0  0  0
   11.6223  -17.3298   30.6158 O   0  0  0  0  0  0  0  0  0  0  0  0
   10.7350  -17.2426   28.4309 C   0  0  0  0  0  0  0  0  0  0  0  0
   10.4966  -16.2616   27.3350 C   0  0  0  0  0  0  0  0  0  0  0  0
    9.8410  -16.8686   26.0978 C   0  0  2  0  0  0  0  0  0  0  0  0
    9.6610  -15.7957   25.0959 N   0  0  0  0  0  0  0  0  0  0  0  0
    8.5449  -17.4913   26.3641 C   0  0  0  0  0  0  0  0  0  0  0  0
    7.5074  -16.8005   26.4566 O   0  0  0  0  0  0  0  0  0  0  0  0
    8.3633  -18.8625   26.5304 O   0  0  0  0  0  0  0  0  0  0  0  0
  2  1  1  0
  2  4  1  0
  3  2  2  0
  5  4  1  0
  6  5  1  0
  6  7  1  1
  8  9  2  0
  8  6  1  0
 10 11  1  0
 11 12  2  0
 12 13  1  0
 14 15  1  0
 14 13  2  0
 16 15  1  1
 16 17  1  0
 17  8  1  0
 18 16  1  0
 19 18  2  0
 20 14  1  0
 21 20  2  0
 21 11  1  0
 23 24  2  0
 23 22  1  0
 25 23  1  0
 27 26  1  1
 26 25  1  0
 27 28  1  0
 28 18  1  0
 29 27  1  0
 30 29  2  0
 31 29  1  0
M  END
$$$$
