QYQ.pdb
     RDKit          3D

 31 31  0  0  1  0  0  0  0  0999 V2000
    9.5822  -19.7987   17.9287 N   0  0  0  0  0  0  0  0  0  0  0  0
    9.2931  -18.4423   17.6528 C   0  0  0  0  0  0  0  0  0  0  0  0
   10.1277  -17.7036   17.0825 O   0  0  0  0  0  0  0  0  0  0  0  0
    7.9831  -17.8908   18.0455 C   0  0  0  0  0  0  0  0  0  0  0  0
    8.1653  -16.7128   18.9860 C   0  0  0  0  0  0  0  0  0  0  0  0
    8.6808  -17.2791   20.2992 C   0  0  2  0  0  0  0  0  0  0  0  0
    7.7332  -18.2082   20.7882 N   0  0  0  0  0  0  0  0  0  0  0  0
    8.8878  -16.1738   21.2749 C   0  0  0  0  0  0  0  0  0  0  0  0
    9.6556  -15.2042   20.9587 O   0  0  0  0  0  0  0  0  0  0  0  0
    6.7494  -10.3646   27.6296 O   0  0  0  0  0  0  0  0  0  0  0  0
    6.8808  -11.4440   26.7782 C   0  0  0  0  0  0  0  0  0  0  0  0
    8.0690  -12.1366   26.6799 C   0  0  0  0  0  0  0  0  0  0  0  0
    8.1415  -13.2146   25.8059 C   0  0  0  0  0  0  0  0  0  0  0  0
    7.0860  -13.6203   25.0375 C   0  0  0  0  0  0  0  0  0  0  0  0
    7.1837  -14.7584   24.1279 C   0  0  0  0  0  0  0  0  0  0  0  0
    8.4955  -15.0431   23.5010 C   0  0  2  0  0  0  0  0  0  0  0  0
    8.2672  -16.1587   22.5347 N   0  0  0  0  0  0  0  0  0  0  0  0
    9.5991  -15.4772   24.3384 C   0  0  0  0  0  0  0  0  0  0  0  0
    9.9619  -14.7391   25.3218 O   0  0  0  0  0  0  0  0  0  0  0  0
    5.8942  -12.8997   25.1577 C   0  0  0  0  0  0  0  0  0  0  0  0
    5.7959  -11.8332   26.0116 C   0  0  0  0  0  0  0  0  0  0  0  0
   10.9018  -20.8209   27.0433 N   0  0  0  0  0  0  0  0  0  0  0  0
   10.4411  -19.6353   27.6286 C   0  0  0  0  0  0  0  0  0  0  0  0
    9.9328  -19.6800   28.7792 O   0  0  0  0  0  0  0  0  0  0  0  0
   10.5197  -18.3021   26.9557 C   0  0  0  0  0  0  0  0  0  0  0  0
   11.1847  -18.3932   25.6254 C   0  0  0  0  0  0  0  0  0  0  0  0
   11.4565  -17.0376   24.9794 C   0  0  2  0  0  0  0  0  0  0  0  0
   10.2981  -16.6899   24.1280 N   0  0  0  0  0  0  0  0  0  0  0  0
   12.6704  -17.0068   24.1644 C   0  0  0  0  0  0  0  0  0  0  0  0
   13.7897  -17.2380   24.6704 O   0  0  0  0  0  0  0  0  0  0  0  0
   12.6808  -16.7276   22.7996 O   0  0  0  0  0  0  0  0  0  0  0  0
  2  1  1  0
  2  4  1  0
  3  2  2  0
  5  4  1  0
  6  5  1  0
  6  7  1  1
  8  9  2  0
  8  6  1  0
 10 11  1  0
 11 12  2  0
 12 13  1  0
 14 15  1  0
 14 13  2  0
 16 15  1  1
 16 17  1  0
 17  8  1  0
 18 16  1  0
 19 18  2  0
 20 14  1  0
 21 20  2  0
 21 11  1  0
 23 24  2  0
 23 22  1  0
 25 23  1  0
 27 26  1  6
 26 25  1  0
 27 28  1  0
 28 18  1  0
 29 27  1  0
 30 29  2  0
 31 29  1  0
M  END
$$$$
