QYQ.pdb
     RDKit          3D

 31 31  0  0  1  0  0  0  0  0999 V2000
   10.7760  -16.8720   16.4566 N   0  0  0  0  0  0  0  0  0  0  0  0
   10.0036  -17.9021   17.0414 C   0  0  0  0  0  0  0  0  0  0  0  0
    9.9997  -19.0603   16.5661 O   0  0  0  0  0  0  0  0  0  0  0  0
    9.1885  -17.6029   18.2333 C   0  0  0  0  0  0  0  0  0  0  0  0
    9.9720  -16.7413   19.2075 C   0  0  0  0  0  0  0  0  0  0  0  0
    9.7364  -17.3237   20.5917 C   0  0  2  0  0  0  0  0  0  0  0  0
    8.5368  -18.0724   20.5637 N   0  0  0  0  0  0  0  0  0  0  0  0
    9.6479  -16.2231   21.5903 C   0  0  0  0  0  0  0  0  0  0  0  0
   10.6471  -15.4434   21.7429 O   0  0  0  0  0  0  0  0  0  0  0  0
    5.7442  -11.0152   27.7681 O   0  0  0  0  0  0  0  0  0  0  0  0
    6.0678  -11.8773   26.7389 C   0  0  0  0  0  0  0  0  0  0  0  0
    5.7059  -13.2071   26.7797 C   0  0  0  0  0  0  0  0  0  0  0  0
    6.0593  -14.0268   25.7145 C   0  0  0  0  0  0  0  0  0  0  0  0
    6.7509  -13.5735   24.6258 C   0  0  0  0  0  0  0  0  0  0  0  0
    7.1089  -14.4522   23.5160 C   0  0  0  0  0  0  0  0  0  0  0  0
    8.4858  -14.9970   23.4703 C   0  0  2  0  0  0  0  0  0  0  0  0
    8.5016  -16.0105   22.3734 N   0  0  0  0  0  0  0  0  0  0  0  0
    9.0133  -15.6821   24.6366 C   0  0  0  0  0  0  0  0  0  0  0  0
    9.6135  -14.9997   25.5406 O   0  0  0  0  0  0  0  0  0  0  0  0
    7.1046  -12.2212   24.6116 C   0  0  0  0  0  0  0  0  0  0  0  0
    6.7687  -11.3915   25.6485 C   0  0  0  0  0  0  0  0  0  0  0  0
    6.5360  -21.0963   26.7792 N   0  0  0  0  0  0  0  0  0  0  0  0
    7.5269  -20.7966   27.7221 C   0  0  0  0  0  0  0  0  0  0  0  0
    7.6725  -21.5546   28.7163 O   0  0  0  0  0  0  0  0  0  0  0  0
    8.4333  -19.6122   27.6133 C   0  0  0  0  0  0  0  0  0  0  0  0
    8.2086  -18.8591   26.3474 C   0  0  0  0  0  0  0  0  0  0  0  0
    9.1431  -17.6662   26.1670 C   0  0  2  0  0  0  0  0  0  0  0  0
    8.8914  -17.0785   24.8333 N   0  0  0  0  0  0  0  0  0  0  0  0
   10.5609  -18.0075   26.2751 C   0  0  0  0  0  0  0  0  0  0  0  0
   11.2295  -18.3032   25.2613 O   0  0  0  0  0  0  0  0  0  0  0  0
   11.2633  -18.0299   27.4780 O   0  0  0  0  0  0  0  0  0  0  0  0
  2  1  1  0
  2  4  1  0
  3  2  2  0
  5  4  1  0
  6  5  1  0
  6  7  1  6
  8  9  2  0
  8  6  1  0
 10 11  1  0
 11 12  2  0
 12 13  1  0
 14 15  1  0
 14 13  2  0
 16 15  1  1
 16 17  1  0
 17  8  1  0
 18 16  1  0
 19 18  2  0
 20 14  1  0
 21 20  2  0
 21 11  1  0
 23 24  2  0
 23 22  1  0
 25 23  1  0
 27 26  1  6
 26 25  1  0
 27 28  1  0
 28 18  1  0
 29 27  1  0
 30 29  2  0
 31 29  1  0
M  END
$$$$
