QYQ.pdb
     RDKit          3D

 31 31  0  0  1  0  0  0  0  0999 V2000
    7.8635  -20.4197   21.5024 N   0  0  0  0  0  0  0  0  0  0  0  0
    8.6725  -20.7536   20.3918 C   0  0  0  0  0  0  0  0  0  0  0  0
    8.3175  -21.6285   19.5696 O   0  0  0  0  0  0  0  0  0  0  0  0
    9.9579  -20.0564   20.2015 C   0  0  0  0  0  0  0  0  0  0  0  0
   10.1663  -19.0231   21.2943 C   0  0  0  0  0  0  0  0  0  0  0  0
    9.7808  -17.6775   20.7012 C   0  0  2  0  0  0  0  0  0  0  0  0
   10.6861  -17.3725   19.6583 N   0  0  0  0  0  0  0  0  0  0  0  0
    9.8244  -16.6320   21.7601 C   0  0  0  0  0  0  0  0  0  0  0  0
   10.9153  -16.0006   21.9627 O   0  0  0  0  0  0  0  0  0  0  0  0
    6.1464  -10.8028   27.5116 O   0  0  0  0  0  0  0  0  0  0  0  0
    6.4654  -11.7079   26.5184 C   0  0  0  0  0  0  0  0  0  0  0  0
    7.1974  -11.3282   25.4133 C   0  0  0  0  0  0  0  0  0  0  0  0
    7.4880  -12.2831   24.4464 C   0  0  0  0  0  0  0  0  0  0  0  0
    7.0801  -13.5846   24.5413 C   0  0  0  0  0  0  0  0  0  0  0  0
    7.3998  -14.5723   23.5145 C   0  0  0  0  0  0  0  0  0  0  0  0
    8.7434  -15.1960   23.5370 C   0  0  2  0  0  0  0  0  0  0  0  0
    8.7055  -16.3136   22.5471 N   0  0  0  0  0  0  0  0  0  0  0  0
    9.2259  -15.7894   24.7711 C   0  0  0  0  0  0  0  0  0  0  0  0
    9.3552  -15.0482   25.8090 O   0  0  0  0  0  0  0  0  0  0  0  0
    6.3397  -13.9410   25.6721 C   0  0  0  0  0  0  0  0  0  0  0  0
    6.0395  -13.0193   26.6401 C   0  0  0  0  0  0  0  0  0  0  0  0
    7.1086  -21.0951   26.0040 N   0  0  0  0  0  0  0  0  0  0  0  0
    7.2027  -20.1508   27.0336 C   0  0  0  0  0  0  0  0  0  0  0  0
    6.6770  -20.4081   28.1479 O   0  0  0  0  0  0  0  0  0  0  0  0
    7.9014  -18.8372   26.8823 C   0  0  0  0  0  0  0  0  0  0  0  0
    9.3182  -19.0112   26.4552 C   0  0  0  0  0  0  0  0  0  0  0  0
   10.0439  -17.6970   26.1808 C   0  0  2  0  0  0  0  0  0  0  0  0
    9.5575  -17.1602   24.8913 N   0  0  0  0  0  0  0  0  0  0  0  0
   11.4990  -17.8295   26.1208 C   0  0  0  0  0  0  0  0  0  0  0  0
   12.1553  -18.1668   27.1296 O   0  0  0  0  0  0  0  0  0  0  0  0
   12.2515  -17.5997   24.9712 O   0  0  0  0  0  0  0  0  0  0  0  0
  2  1  1  0
  2  4  1  0
  3  2  2  0
  5  4  1  0
  6  5  1  0
  6  7  1  6
  8  9  2  0
  8  6  1  0
 10 11  1  0
 11 12  2  0
 12 13  1  0
 14 15  1  0
 14 13  2  0
 16 15  1  1
 16 17  1  0
 17  8  1  0
 18 16  1  0
 19 18  2  0
 20 14  1  0
 21 20  2  0
 21 11  1  0
 23 24  2  0
 23 22  1  0
 25 23  1  0
 27 26  1  6
 26 25  1  0
 27 28  1  0
 28 18  1  0
 29 27  1  0
 30 29  2  0
 31 29  1  0
M  END
$$$$
