QYQ.pdb
     RDKit          3D

 31 31  0  0  1  0  0  0  0  0999 V2000
   12.5887  -20.3330   19.4067 N   0  0  0  0  0  0  0  0  0  0  0  0
   11.6826  -20.1077   18.3448 C   0  0  0  0  0  0  0  0  0  0  0  0
   11.7698  -20.7449   17.2706 O   0  0  0  0  0  0  0  0  0  0  0  0
   10.6161  -19.1026   18.5090 C   0  0  0  0  0  0  0  0  0  0  0  0
   10.6743  -18.4915   19.8977 C   0  0  0  0  0  0  0  0  0  0  0  0
    9.4310  -17.6296   20.0471 C   0  0  2  0  0  0  0  0  0  0  0  0
    9.2652  -16.8745   18.8628 N   0  0  0  0  0  0  0  0  0  0  0  0
    9.5806  -16.7342   21.2270 C   0  0  0  0  0  0  0  0  0  0  0  0
   10.7507  -16.4923   21.6766 O   0  0  0  0  0  0  0  0  0  0  0  0
    6.8000  -11.0157   27.5745 O   0  0  0  0  0  0  0  0  0  0  0  0
    6.9456  -11.8583   26.4900 C   0  0  0  0  0  0  0  0  0  0  0  0
    6.2747  -13.0611   26.4240 C   0  0  0  0  0  0  0  0  0  0  0  0
    6.4607  -13.8674   25.3076 C   0  0  0  0  0  0  0  0  0  0  0  0
    7.2804  -13.5214   24.2695 C   0  0  0  0  0  0  0  0  0  0  0  0
    7.4584  -14.3829   23.1041 C   0  0  0  0  0  0  0  0  0  0  0  0
    8.6505  -15.2614   23.0584 C   0  0  2  0  0  0  0  0  0  0  0  0
    8.4780  -16.1437   21.8658 N   0  0  0  0  0  0  0  0  0  0  0  0
    8.9087  -16.1599   24.1692 C   0  0  0  0  0  0  0  0  0  0  0  0
    8.1662  -17.1942   24.3186 O   0  0  0  0  0  0  0  0  0  0  0  0
    7.9478  -12.2967   24.3635 C   0  0  0  0  0  0  0  0  0  0  0  0
    7.7822  -11.4830   25.4530 C   0  0  0  0  0  0  0  0  0  0  0  0
   14.0911  -18.7154   25.4835 N   0  0  0  0  0  0  0  0  0  0  0  0
   13.0964  -18.8082   24.5024 C   0  0  0  0  0  0  0  0  0  0  0  0
   13.3644  -19.3800   23.4136 O   0  0  0  0  0  0  0  0  0  0  0  0
   11.7163  -18.2594   24.6771 C   0  0  0  0  0  0  0  0  0  0  0  0
   11.5622  -17.5574   25.9823 C   0  0  0  0  0  0  0  0  0  0  0  0
   10.1843  -16.9338   26.1865 C   0  0  2  0  0  0  0  0  0  0  0  0
    9.9537  -15.9552   25.1017 N   0  0  0  0  0  0  0  0  0  0  0  0
   10.0285  -16.2595   27.4747 C   0  0  0  0  0  0  0  0  0  0  0  0
    9.9238  -15.0157   27.5401 O   0  0  0  0  0  0  0  0  0  0  0  0
    9.9839  -16.9252   28.6977 O   0  0  0  0  0  0  0  0  0  0  0  0
  2  1  1  0
  2  4  1  0
  3  2  2  0
  5  4  1  0
  6  5  1  0
  6  7  1  6
  8  9  2  0
  8  6  1  0
 10 11  1  0
 11 12  2  0
 12 13  1  0
 14 15  1  0
 14 13  2  0
 16 15  1  1
 16 17  1  0
 17  8  1  0
 18 16  1  0
 19 18  2  0
 20 14  1  0
 21 20  2  0
 21 11  1  0
 23 24  2  0
 23 22  1  0
 25 23  1  0
 27 26  1  6
 26 25  1  0
 27 28  1  0
 28 18  1  0
 29 27  1  0
 30 29  2  0
 31 29  1  0
M  END
$$$$
