LYI.pdb
     RDKit          3D

 29 29  0  0  1  0  0  0  0  0999 V2000
    9.8028  -13.9737   19.2010 C   0  0  0  0  0  0  0  0  0  0  0  0
    8.4322  -13.8589   18.6119 C   0  0  2  0  0  0  0  0  0  0  0  0
    7.9997  -12.4358   18.4183 C   0  0  0  0  0  0  0  0  0  0  0  0
    7.4747  -14.6354   19.4911 C   0  0  0  0  0  0  0  0  0  0  0  0
    8.1389  -15.9836   19.7916 C   0  0  2  0  0  0  0  0  0  0  0  0
    7.4047  -16.9624   19.0116 N   0  0  0  0  0  0  0  0  0  0  0  0
    8.0672  -16.3203   21.2135 C   0  0  0  0  0  0  0  0  0  0  0  0
    6.9256  -16.4157   21.7752 O   0  0  0  0  0  0  0  0  0  0  0  0
   10.4859  -18.9683   29.2843 O   0  0  0  0  0  0  0  0  0  0  0  0
   10.4564  -18.6748   27.9147 C   0  0  0  0  0  0  0  0  0  0  0  0
    9.4499  -19.2146   27.1574 C   0  0  0  0  0  0  0  0  0  0  0  0
    9.3970  -18.9454   25.8215 C   0  0  0  0  0  0  0  0  0  0  0  0
   10.3262  -18.1500   25.2265 C   0  0  0  0  0  0  0  0  0  0  0  0
   10.2494  -17.8697   23.7824 C   0  0  0  0  0  0  0  0  0  0  0  0
    9.2290  -16.8386   23.4010 C   0  0  2  0  0  0  0  0  0  0  0  0
    9.2352  -16.5452   21.9911 N   0  0  0  0  0  0  0  0  0  0  0  0
    9.2122  -15.6233   24.2046 C   0  0  0  0  0  0  0  0  0  0  0  0
   10.2084  -14.8271   24.1153 O   0  0  0  0  0  0  0  0  0  0  0  0
   11.3420  -17.5987   25.9625 C   0  0  0  0  0  0  0  0  0  0  0  0
   11.3948  -17.8711   27.3120 C   0  0  0  0  0  0  0  0  0  0  0  0
    6.0497  -10.9594   26.4613 C   0  0  0  0  0  0  0  0  0  0  0  0
    7.2170  -11.9029   26.6225 C   0  0  0  0  0  0  0  0  0  0  0  0
    7.0226  -13.1686   25.8137 C   0  0  2  0  0  0  0  0  0  0  0  0
    5.9463  -13.9645   26.5209 C   0  0  0  0  0  0  0  0  0  0  0  0
    8.2885  -13.9962   25.8481 C   0  0  2  0  0  0  0  0  0  0  0  0
    8.1973  -15.2026   25.0966 N   0  0  0  0  0  0  0  0  0  0  0  0
    8.6883  -14.1706   27.2593 C   0  0  0  0  0  0  0  0  0  0  0  0
    9.0951  -13.1943   27.9634 O   0  0  0  0  0  0  0  0  0  0  0  0
    8.6173  -15.4299   27.8293 O   0  0  0  0  0  0  0  0  0  0  0  0
  2  1  1  1
  2  4  1  0
  3  2  1  0
  4  5  1  0
  5  6  1  6
  7  5  1  0
  8  7  2  0
  9 10  1  0
 10 11  2  0
 10 20  1  0
 11 12  1  0
 12 13  2  0
 13 14  1  0
 15 14  1  1
 15 16  1  0
 15 17  1  0
 16  7  1  0
 17 26  1  0
 18 17  2  0
 19 13  1  0
 20 19  2  0
 21 22  1  0
 23 25  1  0
 23 22  1  0
 23 24  1  1
 25 27  1  0
 25 26  1  1
 27 28  2  0
 27 29  1  0
M  END
$$$$
