LYI.pdb
     RDKit          3D

 29 29  0  0  1  0  0  0  0  0999 V2000
    5.1002  -23.0039   23.9769 C   0  0  0  0  0  0  0  0  0  0  0  0
    5.2459  -21.7197   23.2230 C   0  0  2  0  0  0  0  0  0  0  0  0
    4.5152  -21.7282   21.9131 C   0  0  0  0  0  0  0  0  0  0  0  0
    6.7239  -21.4375   23.0540 C   0  0  0  0  0  0  0  0  0  0  0  0
    7.0738  -20.2996   24.0195 C   0  0  2  0  0  0  0  0  0  0  0  0
    5.8300  -19.9541   24.6820 N   0  0  0  0  0  0  0  0  0  0  0  0
    7.6070  -19.1334   23.3152 C   0  0  0  0  0  0  0  0  0  0  0  0
    8.6647  -19.2585   22.6128 O   0  0  0  0  0  0  0  0  0  0  0  0
    8.7117  -11.9175   18.7071 O   0  0  0  0  0  0  0  0  0  0  0  0
    8.1724  -12.9286   19.5132 C   0  0  0  0  0  0  0  0  0  0  0  0
    7.6891  -12.5843   20.7484 C   0  0  0  0  0  0  0  0  0  0  0  0
    7.1585  -13.5485   21.5539 C   0  0  0  0  0  0  0  0  0  0  0  0
    7.1003  -14.8469   21.1530 C   0  0  0  0  0  0  0  0  0  0  0  0
    6.5210  -15.8725   22.0375 C   0  0  0  0  0  0  0  0  0  0  0  0
    7.5273  -16.6507   22.8324 C   0  0  2  0  0  0  0  0  0  0  0  0
    6.9800  -17.8603   23.3902 N   0  0  0  0  0  0  0  0  0  0  0  0
    8.2872  -15.8967   23.8209 C   0  0  0  0  0  0  0  0  0  0  0  0
    9.3474  -15.2946   23.4360 O   0  0  0  0  0  0  0  0  0  0  0  0
    7.5771  -15.2157   19.9225 C   0  0  0  0  0  0  0  0  0  0  0  0
    8.1129  -14.2413   19.1093 C   0  0  0  0  0  0  0  0  0  0  0  0
    6.3008  -12.0797   26.4812 C   0  0  0  0  0  0  0  0  0  0  0  0
    7.1708  -13.1040   25.7937 C   0  0  0  0  0  0  0  0  0  0  0  0
    8.0116  -13.8753   26.7897 C   0  0  2  0  0  0  0  0  0  0  0  0
    9.0206  -12.8931   27.3458 C   0  0  0  0  0  0  0  0  0  0  0  0
    8.7873  -14.9583   26.0728 C   0  0  2  0  0  0  0  0  0  0  0  0
    7.9857  -15.7427   25.1949 N   0  0  0  0  0  0  0  0  0  0  0  0
    9.5438  -15.7289   27.0805 C   0  0  0  0  0  0  0  0  0  0  0  0
    9.2401  -16.9282   27.3698 O   0  0  0  0  0  0  0  0  0  0  0  0
   10.6113  -15.1290   27.7258 O   0  0  0  0  0  0  0  0  0  0  0  0
  2  1  1  6
  2  4  1  0
  3  2  1  0
  4  5  1  0
  5  6  1  6
  7  5  1  0
  8  7  2  0
  9 10  1  0
 10 11  2  0
 10 20  1  0
 11 12  1  0
 12 13  2  0
 13 14  1  0
 15 14  1  1
 15 16  1  0
 15 17  1  0
 16  7  1  0
 17 26  1  0
 18 17  2  0
 19 13  1  0
 20 19  2  0
 21 22  1  0
 23 25  1  0
 23 22  1  0
 23 24  1  6
 25 27  1  0
 25 26  1  1
 27 28  2  0
 27 29  1  0
M  END
$$$$
