LYI.pdb
     RDKit          3D

 29 29  0  0  1  0  0  0  0  0999 V2000
    6.7713  -21.1516   20.3494 C   0  0  0  0  0  0  0  0  0  0  0  0
    6.6482  -19.8725   19.5828 C   0  0  2  0  0  0  0  0  0  0  0  0
    6.4000  -20.0928   18.1200 C   0  0  0  0  0  0  0  0  0  0  0  0
    7.8937  -19.0495   19.8361 C   0  0  0  0  0  0  0  0  0  0  0  0
    7.8548  -18.6234   21.3079 C   0  0  2  0  0  0  0  0  0  0  0  0
    6.5021  -18.1537   21.5422 N   0  0  0  0  0  0  0  0  0  0  0  0
    8.8122  -17.5538   21.5899 C   0  0  0  0  0  0  0  0  0  0  0  0
   10.0620  -17.7979   21.5094 O   0  0  0  0  0  0  0  0  0  0  0  0
    7.8780  -13.8002   16.1888 O   0  0  0  0  0  0  0  0  0  0  0  0
    8.0758  -13.7990   17.5758 C   0  0  0  0  0  0  0  0  0  0  0  0
    9.2843  -14.2278   18.0589 C   0  0  0  0  0  0  0  0  0  0  0  0
    9.5040  -14.2370   19.4048 C   0  0  0  0  0  0  0  0  0  0  0  0
    8.5441  -13.8279   20.2774 C   0  0  0  0  0  0  0  0  0  0  0  0
    8.8026  -13.8434   21.7274 C   0  0  0  0  0  0  0  0  0  0  0  0
    9.2851  -15.1599   22.2605 C   0  0  2  0  0  0  0  0  0  0  0  0
    8.3908  -16.2458   21.9523 N   0  0  0  0  0  0  0  0  0  0  0  0
    9.6916  -15.1766   23.6596 C   0  0  0  0  0  0  0  0  0  0  0  0
   10.7483  -14.5366   23.9886 O   0  0  0  0  0  0  0  0  0  0  0  0
    7.3277  -13.3948   19.8186 C   0  0  0  0  0  0  0  0  0  0  0  0
    7.1066  -13.3857   18.4589 C   0  0  0  0  0  0  0  0  0  0  0  0
    7.0623  -12.2379   27.4910 C   0  0  0  0  0  0  0  0  0  0  0  0
    7.9721  -13.4410   27.4312 C   0  0  0  0  0  0  0  0  0  0  0  0
    7.9089  -14.1170   26.0774 C   0  0  2  0  0  0  0  0  0  0  0  0
    6.5306  -14.7347   25.9741 C   0  0  0  0  0  0  0  0  0  0  0  0
    8.9126  -15.2477   26.0239 C   0  0  2  0  0  0  0  0  0  0  0  0
    9.0396  -15.8318   24.7311 N   0  0  0  0  0  0  0  0  0  0  0  0
    8.5951  -16.1990   27.1083 C   0  0  0  0  0  0  0  0  0  0  0  0
    8.5717  -15.8389   28.3265 O   0  0  0  0  0  0  0  0  0  0  0  0
    8.3156  -17.5164   26.7889 O   0  0  0  0  0  0  0  0  0  0  0  0
  2  1  1  1
  2  4  1  0
  3  2  1  0
  4  5  1  0
  5  6  1  6
  7  5  1  0
  8  7  2  0
  9 10  1  0
 10 11  2  0
 10 20  1  0
 11 12  1  0
 12 13  2  0
 13 14  1  0
 15 14  1  1
 15 16  1  0
 15 17  1  0
 16  7  1  0
 17 26  1  0
 18 17  2  0
 19 13  1  0
 20 19  2  0
 21 22  1  0
 23 25  1  0
 23 22  1  0
 23 24  1  1
 25 27  1  0
 25 26  1  6
 27 28  2  0
 27 29  1  0
M  END
$$$$
