LYI.pdb
     RDKit          3D

 29 29  0  0  1  0  0  0  0  0999 V2000
    6.8576  -13.3606   18.3133 C   0  0  0  0  0  0  0  0  0  0  0  0
    8.2374  -13.7595   18.7327 C   0  0  2  0  0  0  0  0  0  0  0  0
    9.2866  -13.3555   17.7398 C   0  0  0  0  0  0  0  0  0  0  0  0
    8.2379  -15.2510   18.9937 C   0  0  0  0  0  0  0  0  0  0  0  0
    7.2620  -15.5019   20.1486 C   0  0  2  0  0  0  0  0  0  0  0  0
    6.9492  -14.1911   20.6865 N   0  0  0  0  0  0  0  0  0  0  0  0
    7.8552  -16.3418   21.1892 C   0  0  0  0  0  0  0  0  0  0  0  0
    7.9312  -17.6021   21.0057 O   0  0  0  0  0  0  0  0  0  0  0  0
   12.4297  -20.7050   26.8555 O   0  0  0  0  0  0  0  0  0  0  0  0
   11.8669  -19.8884   25.8659 C   0  0  0  0  0  0  0  0  0  0  0  0
   10.5124  -19.9502   25.6673 C   0  0  0  0  0  0  0  0  0  0  0  0
    9.9380  -19.1662   24.7107 C   0  0  0  0  0  0  0  0  0  0  0  0
   10.6859  -18.3231   23.9492 C   0  0  0  0  0  0  0  0  0  0  0  0
   10.0453  -17.4829   22.9227 C   0  0  0  0  0  0  0  0  0  0  0  0
    8.9806  -16.5642   23.4448 C   0  0  2  0  0  0  0  0  0  0  0  0
    8.3511  -15.7943   22.4033 N   0  0  0  0  0  0  0  0  0  0  0  0
    9.3513  -15.7318   24.5818 C   0  0  0  0  0  0  0  0  0  0  0  0
   10.4001  -15.0074   24.4828 O   0  0  0  0  0  0  0  0  0  0  0  0
   12.0420  -18.2436   24.1289 C   0  0  0  0  0  0  0  0  0  0  0  0
   12.6216  -19.0359   25.0955 C   0  0  0  0  0  0  0  0  0  0  0  0
    6.2367  -12.1772   26.2824 C   0  0  0  0  0  0  0  0  0  0  0  0
    7.3727  -13.1155   25.9537 C   0  0  0  0  0  0  0  0  0  0  0  0
    7.9722  -13.7203   27.2061 C   0  0  2  0  0  0  0  0  0  0  0  0
    8.6297  -12.5813   27.9561 C   0  0  0  0  0  0  0  0  0  0  0  0
    9.0630  -14.6984   26.8292 C   0  0  2  0  0  0  0  0  0  0  0  0
    8.6713  -15.6217   25.8180 N   0  0  0  0  0  0  0  0  0  0  0  0
    9.5796  -15.3144   28.0683 C   0  0  0  0  0  0  0  0  0  0  0  0
   10.1834  -14.6302   28.9523 O   0  0  0  0  0  0  0  0  0  0  0  0
    9.4008  -16.6717   28.2715 O   0  0  0  0  0  0  0  0  0  0  0  0
  2  1  1  6
  2  4  1  0
  3  2  1  0
  4  5  1  0
  5  6  1  1
  7  5  1  0
  8  7  2  0
  9 10  1  0
 10 11  2  0
 10 20  1  0
 11 12  1  0
 12 13  2  0
 13 14  1  0
 15 14  1  6
 15 16  1  0
 15 17  1  0
 16  7  1  0
 17 26  1  0
 18 17  2  0
 19 13  1  0
 20 19  2  0
 21 22  1  0
 23 25  1  0
 23 22  1  0
 23 24  1  1
 25 27  1  0
 25 26  1  6
 27 28  2  0
 27 29  1  0
M  END
$$$$
