LYI.pdb
     RDKit          3D

 29 29  0  0  1  0  0  0  0  0999 V2000
    9.5498  -14.1734   19.5950 C   0  0  0  0  0  0  0  0  0  0  0  0
    8.3198  -13.8606   18.8025 C   0  0  2  0  0  0  0  0  0  0  0  0
    8.0790  -12.3870   18.6598 C   0  0  0  0  0  0  0  0  0  0  0  0
    7.1498  -14.5737   19.4470 C   0  0  0  0  0  0  0  0  0  0  0  0
    7.6284  -15.9863   19.8002 C   0  0  2  0  0  0  0  0  0  0  0  0
    6.8964  -16.8775   18.9197 N   0  0  0  0  0  0  0  0  0  0  0  0
    7.3496  -16.3216   21.1967 C   0  0  0  0  0  0  0  0  0  0  0  0
    6.1428  -16.3157   21.6108 O   0  0  0  0  0  0  0  0  0  0  0  0
    8.1446  -19.4903   29.3571 O   0  0  0  0  0  0  0  0  0  0  0  0
    8.3510  -19.1679   28.0094 C   0  0  0  0  0  0  0  0  0  0  0  0
    7.2994  -19.3052   27.1415 C   0  0  0  0  0  0  0  0  0  0  0  0
    7.4723  -18.9984   25.8240 C   0  0  0  0  0  0  0  0  0  0  0  0
    8.6708  -18.5582   25.3552 C   0  0  0  0  0  0  0  0  0  0  0  0
    8.8357  -18.2299   23.9288 C   0  0  0  0  0  0  0  0  0  0  0  0
    8.1781  -16.9506   23.5036 C   0  0  2  0  0  0  0  0  0  0  0  0
    8.3865  -16.6549   22.1097 N   0  0  0  0  0  0  0  0  0  0  0  0
    8.4302  -15.7880   24.3450 C   0  0  0  0  0  0  0  0  0  0  0  0
    9.5885  -15.2489   24.2980 O   0  0  0  0  0  0  0  0  0  0  0  0
    9.7372  -18.4129   26.2035 C   0  0  0  0  0  0  0  0  0  0  0  0
    9.5618  -18.7230   27.5343 C   0  0  0  0  0  0  0  0  0  0  0  0
    6.6329  -10.5133   26.2870 C   0  0  0  0  0  0  0  0  0  0  0  0
    7.1703  -11.7942   26.8780 C   0  0  0  0  0  0  0  0  0  0  0  0
    6.7209  -13.0027   26.0833 C   0  0  2  0  0  0  0  0  0  0  0  0
    5.6255  -13.6620   26.8940 C   0  0  0  0  0  0  0  0  0  0  0  0
    7.8582  -13.9944   25.9752 C   0  0  2  0  0  0  0  0  0  0  0  0
    7.5227  -15.1625   25.2325 N   0  0  0  0  0  0  0  0  0  0  0  0
    8.3799  -14.2489   27.3335 C   0  0  0  0  0  0  0  0  0  0  0  0
    8.8612  -13.3161   28.0493 O   0  0  0  0  0  0  0  0  0  0  0  0
    8.3429  -15.5367   27.8393 O   0  0  0  0  0  0  0  0  0  0  0  0
  2  1  1  1
  2  4  1  0
  3  2  1  0
  4  5  1  0
  5  6  1  6
  7  5  1  0
  8  7  2  0
  9 10  1  0
 10 11  2  0
 10 20  1  0
 11 12  1  0
 12 13  2  0
 13 14  1  0
 15 14  1  1
 15 16  1  0
 15 17  1  0
 16  7  1  0
 17 26  1  0
 18 17  2  0
 19 13  1  0
 20 19  2  0
 21 22  1  0
 23 25  1  0
 23 22  1  0
 23 24  1  1
 25 27  1  0
 25 26  1  1
 27 28  2  0
 27 29  1  0
M  END
$$$$
