LYI.pdb
     RDKit          3D

 29 29  0  0  1  0  0  0  0  0999 V2000
    9.8873  -14.2444   19.2457 C   0  0  0  0  0  0  0  0  0  0  0  0
    8.6180  -13.8907   18.5366 C   0  0  2  0  0  0  0  0  0  0  0  0
    8.4202  -12.4099   18.4022 C   0  0  0  0  0  0  0  0  0  0  0  0
    7.4702  -14.5596   19.2630 C   0  0  0  0  0  0  0  0  0  0  0  0
    7.9364  -15.9735   19.6273 C   0  0  2  0  0  0  0  0  0  0  0  0
    7.2180  -16.8631   18.7341 N   0  0  0  0  0  0  0  0  0  0  0  0
    7.6298  -16.3058   21.0186 C   0  0  0  0  0  0  0  0  0  0  0  0
    6.4109  -16.3742   21.3896 O   0  0  0  0  0  0  0  0  0  0  0  0
    8.1152  -19.6625   29.0905 O   0  0  0  0  0  0  0  0  0  0  0  0
    8.3886  -19.2880   27.7684 C   0  0  0  0  0  0  0  0  0  0  0  0
    7.3460  -19.2354   26.8806 C   0  0  0  0  0  0  0  0  0  0  0  0
    7.5836  -18.8738   25.5873 C   0  0  0  0  0  0  0  0  0  0  0  0
    8.8379  -18.5640   25.1621 C   0  0  0  0  0  0  0  0  0  0  0  0
    9.0725  -18.1735   23.7614 C   0  0  0  0  0  0  0  0  0  0  0  0
    8.4120  -16.8900   23.3532 C   0  0  2  0  0  0  0  0  0  0  0  0
    8.6524  -16.5554   21.9733 N   0  0  0  0  0  0  0  0  0  0  0  0
    8.6302  -15.7477   24.2310 C   0  0  0  0  0  0  0  0  0  0  0  0
    9.7766  -15.1820   24.2115 O   0  0  0  0  0  0  0  0  0  0  0  0
    9.8965  -18.6093   26.0310 C   0  0  0  0  0  0  0  0  0  0  0  0
    9.6558  -18.9747   27.3374 C   0  0  0  0  0  0  0  0  0  0  0  0
    6.0750  -10.8210   26.8250 C   0  0  0  0  0  0  0  0  0  0  0  0
    7.2065  -11.8186   26.7686 C   0  0  0  0  0  0  0  0  0  0  0  0
    6.7838  -13.0976   26.0762 C   0  0  2  0  0  0  0  0  0  0  0  0
    5.8495  -13.8098   27.0310 C   0  0  0  0  0  0  0  0  0  0  0  0
    7.9877  -13.9916   25.8756 C   0  0  2  0  0  0  0  0  0  0  0  0
    7.7007  -15.1690   25.1274 N   0  0  0  0  0  0  0  0  0  0  0  0
    8.6121  -14.2281   27.1932 C   0  0  0  0  0  0  0  0  0  0  0  0
    9.2421  -13.3116   27.8075 O   0  0  0  0  0  0  0  0  0  0  0  0
    8.5076  -15.4803   27.7735 O   0  0  0  0  0  0  0  0  0  0  0  0
  2  1  1  1
  2  4  1  0
  3  2  1  0
  4  5  1  0
  5  6  1  6
  7  5  1  0
  8  7  2  0
  9 10  1  0
 10 11  2  0
 10 20  1  0
 11 12  1  0
 12 13  2  0
 13 14  1  0
 15 14  1  1
 15 16  1  0
 15 17  1  0
 16  7  1  0
 17 26  1  0
 18 17  2  0
 19 13  1  0
 20 19  2  0
 21 22  1  0
 23 25  1  0
 23 22  1  0
 23 24  1  1
 25 27  1  0
 25 26  1  1
 27 28  2  0
 27 29  1  0
M  END
$$$$
