LYI.pdb
     RDKit          3D

 29 29  0  0  1  0  0  0  0  0999 V2000
    9.2320  -14.4258   19.6192 C   0  0  0  0  0  0  0  0  0  0  0  0
    7.9178  -13.9913   19.0510 C   0  0  2  0  0  0  0  0  0  0  0  0
    7.8434  -12.5105   18.8241 C   0  0  0  0  0  0  0  0  0  0  0  0
    6.8204  -14.4873   19.9688 C   0  0  0  0  0  0  0  0  0  0  0  0
    7.0727  -15.9815   20.1986 C   0  0  2  0  0  0  0  0  0  0  0  0
    6.1207  -16.6727   19.3493 N   0  0  0  0  0  0  0  0  0  0  0  0
    6.8639  -16.3598   21.5963 C   0  0  0  0  0  0  0  0  0  0  0  0
    5.7004  -16.2433   22.1070 O   0  0  0  0  0  0  0  0  0  0  0  0
    8.2637  -20.0291   29.5091 O   0  0  0  0  0  0  0  0  0  0  0  0
    8.1999  -19.6816   28.1534 C   0  0  0  0  0  0  0  0  0  0  0  0
    9.3762  -19.4804   27.4797 C   0  0  0  0  0  0  0  0  0  0  0  0
    9.3435  -19.1413   26.1591 C   0  0  0  0  0  0  0  0  0  0  0  0
    8.1634  -18.9989   25.4980 C   0  0  0  0  0  0  0  0  0  0  0  0
    8.1504  -18.6344   24.0709 C   0  0  0  0  0  0  0  0  0  0  0  0
    7.7860  -17.2055   23.7958 C   0  0  2  0  0  0  0  0  0  0  0  0
    7.9219  -16.8548   22.4057 N   0  0  0  0  0  0  0  0  0  0  0  0
    8.3956  -16.2081   24.6657 C   0  0  0  0  0  0  0  0  0  0  0  0
    9.6289  -15.9234   24.4856 O   0  0  0  0  0  0  0  0  0  0  0  0
    6.9742  -19.1947   26.1500 C   0  0  0  0  0  0  0  0  0  0  0  0
    7.0080  -19.5373   27.4839 C   0  0  0  0  0  0  0  0  0  0  0  0
    5.7961  -11.8023   26.6769 C   0  0  0  0  0  0  0  0  0  0  0  0
    6.7745  -12.7834   26.0778 C   0  0  0  0  0  0  0  0  0  0  0  0
    7.5557  -13.5125   27.1511 C   0  0  2  0  0  0  0  0  0  0  0  0
    8.4409  -12.4767   27.8111 C   0  0  0  0  0  0  0  0  0  0  0  0
    8.4654  -14.5388   26.5124 C   0  0  2  0  0  0  0  0  0  0  0  0
    7.7710  -15.4932   25.7151 N   0  0  0  0  0  0  0  0  0  0  0  0
    9.3237  -15.1155   27.5671 C   0  0  0  0  0  0  0  0  0  0  0  0
    8.9228  -16.0664   28.3083 O   0  0  0  0  0  0  0  0  0  0  0  0
   10.5976  -14.6070   27.7523 O   0  0  0  0  0  0  0  0  0  0  0  0
  2  1  1  1
  2  4  1  0
  3  2  1  0
  4  5  1  0
  5  6  1  6
  7  5  1  0
  8  7  2  0
  9 10  1  0
 10 11  2  0
 10 20  1  0
 11 12  1  0
 12 13  2  0
 13 14  1  0
 15 14  1  6
 15 16  1  0
 15 17  1  0
 16  7  1  0
 17 26  1  0
 18 17  2  0
 19 13  1  0
 20 19  2  0
 21 22  1  0
 23 25  1  0
 23 22  1  0
 23 24  1  6
 25 27  1  0
 25 26  1  1
 27 28  2  0
 27 29  1  0
M  END
$$$$
