LYI.pdb
     RDKit          3D

 29 29  0  0  1  0  0  0  0  0999 V2000
    9.2380  -14.4458   19.9032 C   0  0  0  0  0  0  0  0  0  0  0  0
    8.0920  -13.9606   19.0724 C   0  0  2  0  0  0  0  0  0  0  0  0
    7.9002  -12.4754   19.1569 C   0  0  0  0  0  0  0  0  0  0  0  0
    6.8523  -14.7242   19.4878 C   0  0  0  0  0  0  0  0  0  0  0  0
    7.3071  -16.1351   19.8774 C   0  0  2  0  0  0  0  0  0  0  0  0
    6.5212  -17.0383   19.0577 N   0  0  0  0  0  0  0  0  0  0  0  0
    7.0708  -16.4109   21.2945 C   0  0  0  0  0  0  0  0  0  0  0  0
    5.8820  -16.3452   21.7531 O   0  0  0  0  0  0  0  0  0  0  0  0
    8.1512  -19.7013   29.3834 O   0  0  0  0  0  0  0  0  0  0  0  0
    8.2621  -19.3824   28.0236 C   0  0  0  0  0  0  0  0  0  0  0  0
    7.1264  -19.4072   27.2571 C   0  0  0  0  0  0  0  0  0  0  0  0
    7.2054  -19.1010   25.9305 C   0  0  0  0  0  0  0  0  0  0  0  0
    8.3923  -18.7712   25.3538 C   0  0  0  0  0  0  0  0  0  0  0  0
    8.4554  -18.4414   23.9195 C   0  0  0  0  0  0  0  0  0  0  0  0
    7.9533  -17.0712   23.5724 C   0  0  2  0  0  0  0  0  0  0  0  0
    8.1295  -16.7510   22.1794 N   0  0  0  0  0  0  0  0  0  0  0  0
    8.3994  -15.9856   24.4359 C   0  0  0  0  0  0  0  0  0  0  0  0
    9.5821  -15.5293   24.2695 O   0  0  0  0  0  0  0  0  0  0  0  0
    9.5416  -18.7395   26.0994 C   0  0  0  0  0  0  0  0  0  0  0  0
    9.4610  -19.0489   27.4394 C   0  0  0  0  0  0  0  0  0  0  0  0
    5.6356  -11.5513   26.1069 C   0  0  0  0  0  0  0  0  0  0  0  0
    6.7250  -12.4993   25.6671 C   0  0  0  0  0  0  0  0  0  0  0  0
    7.2140  -13.3539   26.8179 C   0  0  2  0  0  0  0  0  0  0  0  0
    7.9406  -12.4202   27.7626 C   0  0  0  0  0  0  0  0  0  0  0  0
    8.2259  -14.3590   26.3136 C   0  0  2  0  0  0  0  0  0  0  0  0
    7.6616  -15.3541   25.4651 N   0  0  0  0  0  0  0  0  0  0  0  0
    8.9752  -14.8823   27.4740 C   0  0  0  0  0  0  0  0  0  0  0  0
    8.6678  -15.9853   28.0247 O   0  0  0  0  0  0  0  0  0  0  0  0
   10.0397  -14.1525   27.9737 O   0  0  0  0  0  0  0  0  0  0  0  0
  2  1  1  1
  2  4  1  0
  3  2  1  0
  4  5  1  0
  5  6  1  6
  7  5  1  0
  8  7  2  0
  9 10  1  0
 10 11  2  0
 10 20  1  0
 11 12  1  0
 12 13  2  0
 13 14  1  0
 15 14  1  1
 15 16  1  0
 15 17  1  0
 16  7  1  0
 17 26  1  0
 18 17  2  0
 19 13  1  0
 20 19  2  0
 21 22  1  0
 23 25  1  0
 23 22  1  0
 23 24  1  1
 25 27  1  0
 25 26  1  1
 27 28  2  0
 27 29  1  0
M  END
$$$$
