LYI.pdb
     RDKit          3D

 29 29  0  0  1  0  0  0  0  0999 V2000
    4.0235  -19.9439   21.7432 C   0  0  0  0  0  0  0  0  0  0  0  0
    4.0898  -18.4844   21.4202 C   0  0  2  0  0  0  0  0  0  0  0  0
    3.1712  -18.0942   20.3004 C   0  0  0  0  0  0  0  0  0  0  0  0
    5.5330  -18.1314   21.1283 C   0  0  0  0  0  0  0  0  0  0  0  0
    6.2641  -18.0940   22.4749 C   0  0  2  0  0  0  0  0  0  0  0  0
    5.3220  -17.5145   23.4140 N   0  0  0  0  0  0  0  0  0  0  0  0
    7.4763  -17.2774   22.4131 C   0  0  0  0  0  0  0  0  0  0  0  0
    8.4719  -17.6892   21.7296 O   0  0  0  0  0  0  0  0  0  0  0  0
    7.6203  -13.8560   16.9514 O   0  0  0  0  0  0  0  0  0  0  0  0
    7.8752  -13.8608   18.3290 C   0  0  0  0  0  0  0  0  0  0  0  0
    6.8316  -13.6143   19.1824 C   0  0  0  0  0  0  0  0  0  0  0  0
    7.0514  -13.6129   20.5283 C   0  0  0  0  0  0  0  0  0  0  0  0
    8.2889  -13.8519   21.0397 C   0  0  0  0  0  0  0  0  0  0  0  0
    8.5043  -13.8483   22.4968 C   0  0  0  0  0  0  0  0  0  0  0  0
    8.7541  -15.2017   23.0933 C   0  0  2  0  0  0  0  0  0  0  0  0
    7.5791  -16.0343   23.0942 N   0  0  0  0  0  0  0  0  0  0  0  0
    9.4290  -15.2202   24.3845 C   0  0  0  0  0  0  0  0  0  0  0  0
   10.6297  -14.7852   24.4440 O   0  0  0  0  0  0  0  0  0  0  0  0
    9.3481  -14.1009   20.2068 C   0  0  0  0  0  0  0  0  0  0  0  0
    9.1254  -14.1022   18.8472 C   0  0  0  0  0  0  0  0  0  0  0  0
    7.3561  -12.4870   27.8557 C   0  0  0  0  0  0  0  0  0  0  0  0
    8.2864  -13.3298   27.0172 C   0  0  0  0  0  0  0  0  0  0  0  0
    8.7949  -14.5295   27.7892 C   0  0  2  0  0  0  0  0  0  0  0  0
    9.7814  -13.9947   28.8055 C   0  0  0  0  0  0  0  0  0  0  0  0
    9.5598  -15.4472   26.8610 C   0  0  2  0  0  0  0  0  0  0  0  0
    8.9022  -15.6719   25.6178 N   0  0  0  0  0  0  0  0  0  0  0  0
    9.9123  -16.6712   27.6088 C   0  0  0  0  0  0  0  0  0  0  0  0
   10.6466  -16.6322   28.6450 O   0  0  0  0  0  0  0  0  0  0  0  0
    9.4300  -17.8919   27.1695 O   0  0  0  0  0  0  0  0  0  0  0  0
  2  1  1  6
  2  4  1  0
  3  2  1  0
  4  5  1  0
  5  6  1  1
  7  5  1  0
  8  7  2  0
  9 10  1  0
 10 11  2  0
 10 20  1  0
 11 12  1  0
 12 13  2  0
 13 14  1  0
 15 14  1  1
 15 16  1  0
 15 17  1  0
 16  7  1  0
 17 26  1  0
 18 17  2  0
 19 13  1  0
 20 19  2  0
 21 22  1  0
 23 25  1  0
 23 22  1  0
 23 24  1  1
 25 27  1  0
 25 26  1  6
 27 28  2  0
 27 29  1  0
M  END
$$$$
