LYI.pdb
     RDKit          3D

 29 29  0  0  1  0  0  0  0  0999 V2000
    9.3944  -18.0231   17.1820 C   0  0  0  0  0  0  0  0  0  0  0  0
    8.3362  -18.9978   17.5933 C   0  0  2  0  0  0  0  0  0  0  0  0
    7.5986  -19.5825   16.4254 C   0  0  0  0  0  0  0  0  0  0  0  0
    7.4092  -18.3034   18.5684 C   0  0  0  0  0  0  0  0  0  0  0  0
    8.2341  -17.9892   19.8214 C   0  0  2  0  0  0  0  0  0  0  0  0
    8.8516  -19.2446   20.2064 N   0  0  0  0  0  0  0  0  0  0  0  0
    7.3976  -17.4874   20.9117 C   0  0  0  0  0  0  0  0  0  0  0  0
    6.1916  -17.8922   21.0099 O   0  0  0  0  0  0  0  0  0  0  0  0
    8.6785  -19.5384   29.0105 O   0  0  0  0  0  0  0  0  0  0  0  0
    8.7106  -19.1917   27.6534 C   0  0  0  0  0  0  0  0  0  0  0  0
    7.5229  -18.9251   27.0240 C   0  0  0  0  0  0  0  0  0  0  0  0
    7.5249  -18.5850   25.7033 C   0  0  0  0  0  0  0  0  0  0  0  0
    8.6856  -18.5057   24.9987 C   0  0  0  0  0  0  0  0  0  0  0  0
    8.6659  -18.1343   23.5735 C   0  0  0  0  0  0  0  0  0  0  0  0
    7.9951  -16.8251   23.2798 C   0  0  2  0  0  0  0  0  0  0  0  0
    7.8895  -16.5589   21.8685 N   0  0  0  0  0  0  0  0  0  0  0  0
    8.4959  -15.6684   24.0108 C   0  0  0  0  0  0  0  0  0  0  0  0
    9.6815  -15.7221   24.4862 O   0  0  0  0  0  0  0  0  0  0  0  0
    9.8858  -18.7678   25.6059 C   0  0  0  0  0  0  0  0  0  0  0  0
    9.8830  -19.1112   26.9401 C   0  0  0  0  0  0  0  0  0  0  0  0
    6.2977  -10.7310   27.1387 C   0  0  0  0  0  0  0  0  0  0  0  0
    7.3579  -11.7664   26.8513 C   0  0  0  0  0  0  0  0  0  0  0  0
    6.9271  -12.7092   25.7471 C   0  0  2  0  0  0  0  0  0  0  0  0
    5.7847  -13.5287   26.3087 C   0  0  0  0  0  0  0  0  0  0  0  0
    8.0523  -13.6682   25.4265 C   0  0  2  0  0  0  0  0  0  0  0  0
    7.8115  -14.4561   24.2647 N   0  0  0  0  0  0  0  0  0  0  0  0
    8.3645  -14.4388   26.6474 C   0  0  0  0  0  0  0  0  0  0  0  0
    7.6471  -15.4190   27.0198 O   0  0  0  0  0  0  0  0  0  0  0  0
    9.4673  -14.0839   27.4047 O   0  0  0  0  0  0  0  0  0  0  0  0
  2  1  1  6
  2  4  1  0
  3  2  1  0
  4  5  1  0
  5  6  1  1
  7  5  1  0
  8  7  2  0
  9 10  1  0
 10 11  2  0
 10 20  1  0
 11 12  1  0
 12 13  2  0
 13 14  1  0
 15 14  1  6
 15 16  1  0
 15 17  1  0
 16  7  1  0
 17 26  1  0
 18 17  2  0
 19 13  1  0
 20 19  2  0
 21 22  1  0
 23 25  1  0
 23 22  1  0
 23 24  1  1
 25 27  1  0
 25 26  1  6
 27 28  2  0
 27 29  1  0
M  END
$$$$
