LYI.pdb
     RDKit          3D

 29 29  0  0  1  0  0  0  0  0999 V2000
    9.8746  -13.9100   19.1165 C   0  0  0  0  0  0  0  0  0  0  0  0
    8.4981  -13.6508   18.5902 C   0  0  2  0  0  0  0  0  0  0  0  0
    8.2250  -12.1926   18.3691 C   0  0  0  0  0  0  0  0  0  0  0  0
    7.5034  -14.2835   19.5405 C   0  0  0  0  0  0  0  0  0  0  0  0
    8.0160  -15.6948   19.8480 C   0  0  2  0  0  0  0  0  0  0  0  0
    7.3418  -16.5684   18.9059 N   0  0  0  0  0  0  0  0  0  0  0  0
    7.7040  -16.1002   21.2186 C   0  0  0  0  0  0  0  0  0  0  0  0
    6.4859  -16.1360   21.5966 O   0  0  0  0  0  0  0  0  0  0  0  0
    8.3293  -19.6985   29.2129 O   0  0  0  0  0  0  0  0  0  0  0  0
    8.5935  -19.2775   27.9030 C   0  0  0  0  0  0  0  0  0  0  0  0
    7.6040  -19.4165   26.9652 C   0  0  0  0  0  0  0  0  0  0  0  0
    7.8341  -19.0149   25.6824 C   0  0  0  0  0  0  0  0  0  0  0  0
    9.0292  -18.4784   25.3165 C   0  0  0  0  0  0  0  0  0  0  0  0
    9.2563  -18.0487   23.9260 C   0  0  0  0  0  0  0  0  0  0  0  0
    8.4769  -16.8353   23.5134 C   0  0  2  0  0  0  0  0  0  0  0  0
    8.7206  -16.4566   22.1455 N   0  0  0  0  0  0  0  0  0  0  0  0
    8.5485  -15.6897   24.4110 C   0  0  0  0  0  0  0  0  0  0  0  0
    9.5795  -14.9364   24.3467 O   0  0  0  0  0  0  0  0  0  0  0  0
   10.0341  -18.3292   26.2361 C   0  0  0  0  0  0  0  0  0  0  0  0
    9.8009  -18.7351   27.5318 C   0  0  0  0  0  0  0  0  0  0  0  0
    7.0063  -10.9847   26.5564 C   0  0  0  0  0  0  0  0  0  0  0  0
    6.7502  -12.2231   27.3807 C   0  0  0  0  0  0  0  0  0  0  0  0
    6.4686  -13.4248   26.5030 C   0  0  2  0  0  0  0  0  0  0  0  0
    5.6040  -14.3581   27.3236 C   0  0  0  0  0  0  0  0  0  0  0  0
    7.7603  -14.1543   26.2062 C   0  0  2  0  0  0  0  0  0  0  0  0
    7.5875  -15.2958   25.3722 N   0  0  0  0  0  0  0  0  0  0  0  0
    8.4471  -14.4174   27.4871 C   0  0  0  0  0  0  0  0  0  0  0  0
    8.9861  -13.4839   28.1596 O   0  0  0  0  0  0  0  0  0  0  0  0
    8.5044  -15.7144   27.9671 O   0  0  0  0  0  0  0  0  0  0  0  0
  2  1  1  1
  2  4  1  0
  3  2  1  0
  4  5  1  0
  5  6  1  6
  7  5  1  0
  8  7  2  0
  9 10  1  0
 10 11  2  0
 10 20  1  0
 11 12  1  0
 12 13  2  0
 13 14  1  0
 15 14  1  1
 15 16  1  0
 15 17  1  0
 16  7  1  0
 17 26  1  0
 18 17  2  0
 19 13  1  0
 20 19  2  0
 21 22  1  0
 23 25  1  0
 23 22  1  0
 23 24  1  1
 25 27  1  0
 25 26  1  1
 27 28  2  0
 27 29  1  0
M  END
$$$$
