LYI.pdb
     RDKit          3D

 29 29  0  0  1  0  0  0  0  0999 V2000
    9.1062  -13.0748   18.5551 C   0  0  0  0  0  0  0  0  0  0  0  0
    7.8845  -13.8879   18.2632 C   0  0  2  0  0  0  0  0  0  0  0  0
    6.9252  -13.1878   17.3469 C   0  0  0  0  0  0  0  0  0  0  0  0
    7.2451  -14.2679   19.5820 C   0  0  0  0  0  0  0  0  0  0  0  0
    8.3537  -14.8564   20.4618 C   0  0  2  0  0  0  0  0  0  0  0  0
    8.8795  -15.9881   19.7214 N   0  0  0  0  0  0  0  0  0  0  0  0
    7.8412  -15.3003   21.7581 C   0  0  0  0  0  0  0  0  0  0  0  0
    7.1544  -14.4922   22.4675 O   0  0  0  0  0  0  0  0  0  0  0  0
    7.6711  -20.3572   29.0474 O   0  0  0  0  0  0  0  0  0  0  0  0
    7.6807  -19.9040   27.7217 C   0  0  0  0  0  0  0  0  0  0  0  0
    8.8924  -19.6881   27.1191 C   0  0  0  0  0  0  0  0  0  0  0  0
    8.9312  -19.2470   25.8292 C   0  0  0  0  0  0  0  0  0  0  0  0
    7.7878  -19.0172   25.1292 C   0  0  0  0  0  0  0  0  0  0  0  0
    7.8519  -18.5432   23.7361 C   0  0  0  0  0  0  0  0  0  0  0  0
    7.7395  -17.0557   23.5780 C   0  0  2  0  0  0  0  0  0  0  0  0
    8.0862  -16.6097   22.2534 N   0  0  0  0  0  0  0  0  0  0  0  0
    8.3866  -16.2497   24.6050 C   0  0  0  0  0  0  0  0  0  0  0  0
    9.6501  -16.0719   24.5254 O   0  0  0  0  0  0  0  0  0  0  0  0
    6.5643  -19.2257   25.7100 C   0  0  0  0  0  0  0  0  0  0  0  0
    6.5259  -19.6713   27.0131 C   0  0  0  0  0  0  0  0  0  0  0  0
    6.1560  -11.7401   26.6277 C   0  0  0  0  0  0  0  0  0  0  0  0
    7.0169  -12.8545   26.0839 C   0  0  0  0  0  0  0  0  0  0  0  0
    7.6383  -13.6695   27.1990 C   0  0  2  0  0  0  0  0  0  0  0  0
    8.5725  -12.7358   27.9389 C   0  0  0  0  0  0  0  0  0  0  0  0
    8.4840  -14.7778   26.6114 C   0  0  2  0  0  0  0  0  0  0  0  0
    7.7694  -15.6192   25.7114 N   0  0  0  0  0  0  0  0  0  0  0  0
    9.1575  -15.4828   27.7209 C   0  0  0  0  0  0  0  0  0  0  0  0
    8.6414  -16.5035   28.2742 O   0  0  0  0  0  0  0  0  0  0  0  0
   10.3824  -15.0197   28.1689 O   0  0  0  0  0  0  0  0  0  0  0  0
  2  1  1  1
  2  4  1  0
  3  2  1  0
  4  5  1  0
  5  6  1  6
  7  5  1  0
  8  7  2  0
  9 10  1  0
 10 11  2  0
 10 20  1  0
 11 12  1  0
 12 13  2  0
 13 14  1  0
 15 14  1  6
 15 16  1  0
 15 17  1  0
 16  7  1  0
 17 26  1  0
 18 17  2  0
 19 13  1  0
 20 19  2  0
 21 22  1  0
 23 25  1  0
 23 22  1  0
 23 24  1  1
 25 27  1  0
 25 26  1  1
 27 28  2  0
 27 29  1  0
M  END
$$$$
