LYI.pdb
     RDKit          3D

 29 29  0  0  1  0  0  0  0  0999 V2000
    8.9051  -13.8933   17.8724 C   0  0  0  0  0  0  0  0  0  0  0  0
    7.5463  -14.1586   18.4400 C   0  0  2  0  0  0  0  0  0  0  0  0
    6.4506  -13.4935   17.6609 C   0  0  0  0  0  0  0  0  0  0  0  0
    7.5529  -13.7384   19.8946 C   0  0  0  0  0  0  0  0  0  0  0  0
    8.6366  -14.5671   20.5932 C   0  0  2  0  0  0  0  0  0  0  0  0
    8.9054  -15.6840   19.7068 N   0  0  0  0  0  0  0  0  0  0  0  0
    8.1898  -15.0586   21.8967 C   0  0  0  0  0  0  0  0  0  0  0  0
    7.6045  -14.2570   22.6985 O   0  0  0  0  0  0  0  0  0  0  0  0
    7.2718  -20.6079   28.7600 O   0  0  0  0  0  0  0  0  0  0  0  0
    7.4518  -20.0645   27.4812 C   0  0  0  0  0  0  0  0  0  0  0  0
    8.7264  -19.7621   27.0789 C   0  0  0  0  0  0  0  0  0  0  0  0
    8.9307  -19.2321   25.8390 C   0  0  0  0  0  0  0  0  0  0  0  0
    7.8911  -18.9978   24.9937 C   0  0  0  0  0  0  0  0  0  0  0  0
    8.1338  -18.4269   23.6577 C   0  0  0  0  0  0  0  0  0  0  0  0
    8.0266  -16.9323   23.5897 C   0  0  2  0  0  0  0  0  0  0  0  0
    8.3887  -16.4071   22.2986 N   0  0  0  0  0  0  0  0  0  0  0  0
    8.6644  -16.1926   24.6710 C   0  0  0  0  0  0  0  0  0  0  0  0
    9.9373  -16.0739   24.6521 O   0  0  0  0  0  0  0  0  0  0  0  0
    6.6077  -19.2918   25.3733 C   0  0  0  0  0  0  0  0  0  0  0  0
    6.4021  -19.8272   26.6259 C   0  0  0  0  0  0  0  0  0  0  0  0
    6.7040  -11.4837   25.9366 C   0  0  0  0  0  0  0  0  0  0  0  0
    7.5500  -12.7051   25.6699 C   0  0  0  0  0  0  0  0  0  0  0  0
    7.9111  -13.4207   26.9549 C   0  0  2  0  0  0  0  0  0  0  0  0
    8.8235  -12.4861   27.7205 C   0  0  0  0  0  0  0  0  0  0  0  0
    8.7083  -14.6670   26.6388 C   0  0  2  0  0  0  0  0  0  0  0  0
    8.0289  -15.5690   25.7709 N   0  0  0  0  0  0  0  0  0  0  0  0
    9.1687  -15.2564   27.9125 C   0  0  0  0  0  0  0  0  0  0  0  0
   10.0044  -14.6596   28.6607 O   0  0  0  0  0  0  0  0  0  0  0  0
    8.6766  -16.4904   28.3009 O   0  0  0  0  0  0  0  0  0  0  0  0
  2  1  1  6
  2  4  1  0
  3  2  1  0
  4  5  1  0
  5  6  1  6
  7  5  1  0
  8  7  2  0
  9 10  1  0
 10 11  2  0
 10 20  1  0
 11 12  1  0
 12 13  2  0
 13 14  1  0
 15 14  1  6
 15 16  1  0
 15 17  1  0
 16  7  1  0
 17 26  1  0
 18 17  2  0
 19 13  1  0
 20 19  2  0
 21 22  1  0
 23 25  1  0
 23 22  1  0
 23 24  1  1
 25 27  1  0
 25 26  1  1
 27 28  2  0
 27 29  1  0
M  END
$$$$
