LYI.pdb
     RDKit          3D

 29 29  0  0  1  0  0  0  0  0999 V2000
    7.2309  -14.0407   18.3917 C   0  0  0  0  0  0  0  0  0  0  0  0
    8.0350  -13.7804   19.6264 C   0  0  2  0  0  0  0  0  0  0  0  0
    8.2742  -12.3193   19.8674 C   0  0  0  0  0  0  0  0  0  0  0  0
    9.3265  -14.5638   19.5216 C   0  0  0  0  0  0  0  0  0  0  0  0
    8.9811  -16.0316   19.7963 C   0  0  2  0  0  0  0  0  0  0  0  0
    7.6834  -16.2479   19.1844 N   0  0  0  0  0  0  0  0  0  0  0  0
    8.9124  -16.3151   21.2299 C   0  0  0  0  0  0  0  0  0  0  0  0
    7.7777  -16.3095   21.8133 O   0  0  0  0  0  0  0  0  0  0  0  0
   10.9637  -19.6336   29.0991 O   0  0  0  0  0  0  0  0  0  0  0  0
   11.0602  -19.1424   27.7905 C   0  0  0  0  0  0  0  0  0  0  0  0
   10.1740  -19.6097   26.8556 C   0  0  0  0  0  0  0  0  0  0  0  0
   10.2452  -19.1486   25.5741 C   0  0  0  0  0  0  0  0  0  0  0  0
   11.1809  -18.2324   25.2068 C   0  0  0  0  0  0  0  0  0  0  0  0
   11.2391  -17.7455   23.8178 C   0  0  0  0  0  0  0  0  0  0  0  0
   10.0682  -16.9049   23.4024 C   0  0  2  0  0  0  0  0  0  0  0  0
   10.0759  -16.5975   21.9955 N   0  0  0  0  0  0  0  0  0  0  0  0
    9.8076  -15.7215   24.2115 C   0  0  0  0  0  0  0  0  0  0  0  0
   10.5515  -14.6963   24.0382 O   0  0  0  0  0  0  0  0  0  0  0  0
   12.0780  -17.7502   26.1235 C   0  0  0  0  0  0  0  0  0  0  0  0
   12.0054  -18.2164   27.4179 C   0  0  0  0  0  0  0  0  0  0  0  0
    6.4472  -11.4280   26.4478 C   0  0  0  0  0  0  0  0  0  0  0  0
    7.4225  -12.4940   26.8850 C   0  0  0  0  0  0  0  0  0  0  0  0
    7.4180  -13.6730   25.9343 C   0  0  2  0  0  0  0  0  0  0  0  0
    6.3294  -14.6067   26.4193 C   0  0  0  0  0  0  0  0  0  0  0  0
    8.7296  -14.4194   26.0402 C   0  0  2  0  0  0  0  0  0  0  0  0
    8.8010  -15.5623   25.1933 N   0  0  0  0  0  0  0  0  0  0  0  0
    8.9958  -14.6855   27.4685 C   0  0  0  0  0  0  0  0  0  0  0  0
    9.1341  -13.7424   28.3087 O   0  0  0  0  0  0  0  0  0  0  0  0
    9.0967  -15.9958   27.9027 O   0  0  0  0  0  0  0  0  0  0  0  0
  2  1  1  6
  2  4  1  0
  3  2  1  0
  4  5  1  0
  5  6  1  6
  7  5  1  0
  8  7  2  0
  9 10  1  0
 10 11  2  0
 10 20  1  0
 11 12  1  0
 12 13  2  0
 13 14  1  0
 15 14  1  1
 15 16  1  0
 15 17  1  0
 16  7  1  0
 17 26  1  0
 18 17  2  0
 19 13  1  0
 20 19  2  0
 21 22  1  0
 23 25  1  0
 23 22  1  0
 23 24  1  1
 25 27  1  0
 25 26  1  6
 27 28  2  0
 27 29  1  0
M  END
$$$$
