NVS.pdb
     RDKit          3D

 22 21  0  0  1  0  0  0  0  0999 V2000
   20.5485  -38.0436  -10.1402 N   0  0  0  0  0  0  0  0  0  0  0  0
   21.2060  -38.5717   -9.0178 C   0  0  0  0  0  0  0  0  0  0  0  0
   20.6409  -39.5255   -8.4018 O   0  0  0  0  0  0  0  0  0  0  0  0
   22.5159  -38.0659   -8.5308 C   0  0  0  0  0  0  0  0  0  0  0  0
   23.0163  -36.9554   -9.4469 C   0  0  2  0  0  0  0  0  0  0  0  0
   23.3705  -37.4960  -10.7358 N   0  0  0  0  0  0  0  0  0  0  0  0
   24.1585  -36.2336   -8.8441 C   0  0  0  0  0  0  0  0  0  0  0  0
   25.3142  -36.7115   -8.9863 O   0  0  0  0  0  0  0  0  0  0  0  0
   24.7605  -32.4462   -9.1574 C   0  0  0  0  0  0  0  0  0  0  0  0
   24.8040  -32.8052   -7.6763 C   0  0  2  0  0  0  0  0  0  0  0  0
   25.8817  -31.9477   -7.0532 C   0  0  0  0  0  0  0  0  0  0  0  0
   25.0799  -34.2721   -7.5398 C   0  0  2  0  0  0  0  0  0  0  0  0
   24.0094  -35.0248   -8.1118 N   0  0  0  0  0  0  0  0  0  0  0  0
   25.3057  -34.5598   -6.1004 C   0  0  0  0  0  0  0  0  0  0  0  0
   24.3091  -34.4469   -5.3405 O   0  0  0  0  0  0  0  0  0  0  0  0
   28.2758  -36.1744   -2.5671 O   0  0  0  0  0  0  0  0  0  0  0  0
   28.1394  -35.7181   -3.8650 C   0  0  0  0  0  0  0  0  0  0  0  0
   26.7217  -35.2761   -4.1787 C   0  0  2  0  0  0  0  0  0  0  0  0
   26.5629  -34.9436   -5.5759 N   0  0  0  0  0  0  0  0  0  0  0  0
   26.4011  -34.1270   -3.2974 C   0  0  0  0  0  0  0  0  0  0  0  0
   25.5996  -34.2928   -2.1790 O   0  0  0  0  0  0  0  0  0  0  0  0
   26.8427  -32.9772   -3.5354 O   0  0  0  0  0  0  0  0  0  0  0  0
  2  4  1  0
  2  1  1  0
  3  2  2  0
  5  7  1  0
  5  4  1  0
  5  6  1  6
  7 13  1  0
  8  7  2  0
 10  9  1  6
 10 12  1  0
 11 10  1  0
 12 14  1  0
 12 13  1  1
 14 15  2  0
 14 19  1  0
 17 16  1  0
 18 17  1  6
 18 20  1  0
 19 18  1  0
 20 21  1  0
 22 20  2  0
M  END
$$$$
