NVS.pdb
     RDKit          3D

 22 21  0  0  1  0  0  0  0  0999 V2000
   22.7261  -12.6203  -22.5605 N   0  0  0  0  0  0  0  0  0  0  0  0
   23.2923  -11.8134  -21.5609 C   0  0  0  0  0  0  0  0  0  0  0  0
   24.5095  -11.4826  -21.6934 O   0  0  0  0  0  0  0  0  0  0  0  0
   22.5347  -11.3394  -20.3732 C   0  0  0  0  0  0  0  0  0  0  0  0
   23.0556  -12.0277  -19.1171 C   0  0  2  0  0  0  0  0  0  0  0  0
   22.7089  -13.4271  -19.1370 N   0  0  0  0  0  0  0  0  0  0  0  0
   22.5436  -11.3734  -17.8928 C   0  0  0  0  0  0  0  0  0  0  0  0
   21.3504  -11.5846  -17.5525 O   0  0  0  0  0  0  0  0  0  0  0  0
   25.1440  -10.2421  -14.9425 C   0  0  0  0  0  0  0  0  0  0  0  0
   23.6492  -10.4293  -14.7083 C   0  0  2  0  0  0  0  0  0  0  0  0
   23.4225  -11.9111  -14.5136 C   0  0  0  0  0  0  0  0  0  0  0  0
   22.9003   -9.8784  -15.8840 C   0  0  2  0  0  0  0  0  0  0  0  0
   23.3386  -10.5172  -17.0838 N   0  0  0  0  0  0  0  0  0  0  0  0
   23.0881   -8.4052  -15.8925 C   0  0  0  0  0  0  0  0  0  0  0  0
   24.1824   -7.9797  -16.3451 O   0  0  0  0  0  0  0  0  0  0  0  0
   20.6878   -5.9722  -17.3588 O   0  0  0  0  0  0  0  0  0  0  0  0
   21.0616   -5.4043  -16.1550 C   0  0  0  0  0  0  0  0  0  0  0  0
   22.2869   -6.0696  -15.5551 C   0  0  2  0  0  0  0  0  0  0  0  0
   22.1086   -7.4976  -15.4239 N   0  0  0  0  0  0  0  0  0  0  0  0
   22.5569   -5.4240  -14.2473 C   0  0  0  0  0  0  0  0  0  0  0  0
   22.9331   -4.0920  -14.1782 O   0  0  0  0  0  0  0  0  0  0  0  0
   22.4538   -6.0596  -13.1707 O   0  0  0  0  0  0  0  0  0  0  0  0
  2  4  1  0
  2  1  1  0
  3  2  2  0
  5  7  1  0
  5  4  1  0
  5  6  1  6
  7 13  1  0
  8  7  2  0
 10  9  1  6
 10 12  1  0
 11 10  1  0
 12 14  1  0
 12 13  1  6
 14 15  2  0
 14 19  1  0
 17 16  1  0
 18 17  1  1
 18 20  1  0
 19 18  1  0
 20 21  1  0
 22 20  2  0
M  END
$$$$
