NVS.pdb
     RDKit          3D

 22 21  0  0  1  0  0  0  0  0999 V2000
   20.7647  -13.5449  -20.2787 N   0  0  0  0  0  0  0  0  0  0  0  0
   20.1326  -12.3458  -19.9135 C   0  0  0  0  0  0  0  0  0  0  0  0
   19.1957  -11.9259  -20.6581 O   0  0  0  0  0  0  0  0  0  0  0  0
   20.5113  -11.5617  -18.7090 C   0  0  0  0  0  0  0  0  0  0  0  0
   21.6398  -12.2661  -17.9651 C   0  0  2  0  0  0  0  0  0  0  0  0
   21.1541  -13.4821  -17.3615 N   0  0  0  0  0  0  0  0  0  0  0  0
   22.2518  -11.3799  -16.9507 C   0  0  0  0  0  0  0  0  0  0  0  0
   21.6781  -11.2545  -15.8374 O   0  0  0  0  0  0  0  0  0  0  0  0
   26.0185  -11.3196  -15.9679 C   0  0  0  0  0  0  0  0  0  0  0  0
   25.5851   -9.9127  -16.3645 C   0  0  2  0  0  0  0  0  0  0  0  0
   26.3238   -8.9581  -15.4544 C   0  0  0  0  0  0  0  0  0  0  0  0
   24.0962   -9.8066  -16.2292 C   0  0  2  0  0  0  0  0  0  0  0  0
   23.4583  -10.6638  -17.1769 N   0  0  0  0  0  0  0  0  0  0  0  0
   23.7272   -8.3759  -16.3795 C   0  0  0  0  0  0  0  0  0  0  0  0
   23.9009   -7.8661  -17.5167 O   0  0  0  0  0  0  0  0  0  0  0  0
   21.6062   -4.3806  -14.5369 O   0  0  0  0  0  0  0  0  0  0  0  0
   22.0910   -5.6564  -14.3158 C   0  0  0  0  0  0  0  0  0  0  0  0
   22.8137   -6.2202  -15.5254 C   0  0  2  0  0  0  0  0  0  0  0  0
   23.2046   -7.5962  -15.3204 N   0  0  0  0  0  0  0  0  0  0  0  0
   23.9823   -5.3490  -15.8003 C   0  0  0  0  0  0  0  0  0  0  0  0
   23.9947   -4.5049  -16.8994 O   0  0  0  0  0  0  0  0  0  0  0  0
   24.9887   -5.3492  -15.0514 O   0  0  0  0  0  0  0  0  0  0  0  0
  2  4  1  0
  2  1  1  0
  3  2  2  0
  5  7  1  0
  5  4  1  0
  5  6  1  1
  7 13  1  0
  8  7  2  0
 10  9  1  1
 10 12  1  0
 11 10  1  0
 12 14  1  0
 12 13  1  6
 14 15  2  0
 14 19  1  0
 17 16  1  0
 18 17  1  1
 18 20  1  0
 19 18  1  0
 20 21  1  0
 22 20  2  0
M  END
$$$$
