NVS.pdb
     RDKit          3D

 22 21  0  0  1  0  0  0  0  0999 V2000
   23.6357  -21.9126   -7.9563 N   0  0  0  0  0  0  0  0  0  0  0  0
   22.7922  -21.1279   -8.7586 C   0  0  0  0  0  0  0  0  0  0  0  0
   21.5781  -21.0236   -8.4069 O   0  0  0  0  0  0  0  0  0  0  0  0
   23.2576  -20.4262   -9.9834 C   0  0  0  0  0  0  0  0  0  0  0  0
   24.6742  -20.8701  -10.3289 C   0  0  2  0  0  0  0  0  0  0  0  0
   25.5628  -20.5994   -9.2262 N   0  0  0  0  0  0  0  0  0  0  0  0
   25.1552  -20.2197  -11.5677 C   0  0  0  0  0  0  0  0  0  0  0  0
   25.6934  -19.0852  -11.4810 O   0  0  0  0  0  0  0  0  0  0  0  0
   25.9887  -22.5526  -14.8494 C   0  0  0  0  0  0  0  0  0  0  0  0
   26.5878  -21.1655  -14.6461 C   0  0  2  0  0  0  0  0  0  0  0  0
   27.7801  -21.3372  -13.7328 C   0  0  0  0  0  0  0  0  0  0  0  0
   25.5400  -20.2636  -14.0673 C   0  0  2  0  0  0  0  0  0  0  0  0
   25.0370  -20.8184  -12.8511 N   0  0  0  0  0  0  0  0  0  0  0  0
   24.4956  -20.0573  -15.1028 C   0  0  0  0  0  0  0  0  0  0  0  0
   23.5906  -20.9289  -15.1712 O   0  0  0  0  0  0  0  0  0  0  0  0
   24.6687  -16.8385  -17.6839 O   0  0  0  0  0  0  0  0  0  0  0  0
   23.3928  -17.3162  -17.4486 C   0  0  0  0  0  0  0  0  0  0  0  0
   23.3950  -18.7331  -16.9044 C   0  0  2  0  0  0  0  0  0  0  0  0
   24.4873  -18.9497  -15.9837 N   0  0  0  0  0  0  0  0  0  0  0  0
   23.4541  -19.6610  -18.0601 C   0  0  0  0  0  0  0  0  0  0  0  0
   22.3581  -19.8293  -18.8913 O   0  0  0  0  0  0  0  0  0  0  0  0
   24.4912  -20.3176  -18.3190 O   0  0  0  0  0  0  0  0  0  0  0  0
  2  4  1  0
  2  1  1  0
  3  2  2  0
  5  7  1  0
  5  4  1  0
  5  6  1  1
  7 13  1  0
  8  7  2  0
 10  9  1  1
 10 12  1  0
 11 10  1  0
 12 14  1  0
 12 13  1  1
 14 15  2  0
 14 19  1  0
 17 16  1  0
 18 17  1  6
 18 20  1  0
 19 18  1  0
 20 21  1  0
 22 20  2  0
M  END
$$$$
