NVS.pdb
     RDKit          3D

 22 21  0  0  1  0  0  0  0  0999 V2000
   20.2865  -21.6656  -14.2473 N   0  0  0  0  0  0  0  0  0  0  0  0
   19.9649  -20.5087  -13.5200 C   0  0  0  0  0  0  0  0  0  0  0  0
   19.1157  -20.6209  -12.5847 O   0  0  0  0  0  0  0  0  0  0  0  0
   20.5699  -19.1799  -13.7976 C   0  0  0  0  0  0  0  0  0  0  0  0
   21.5007  -19.2749  -15.0008 C   0  0  2  0  0  0  0  0  0  0  0  0
   22.5732  -20.1991  -14.7278 N   0  0  0  0  0  0  0  0  0  0  0  0
   22.0308  -17.9460  -15.3778 C   0  0  0  0  0  0  0  0  0  0  0  0
   23.0680  -17.5268  -14.8008 O   0  0  0  0  0  0  0  0  0  0  0  0
   20.7554  -16.2974  -18.9491 C   0  0  0  0  0  0  0  0  0  0  0  0
   22.0982  -15.9285  -18.3284 C   0  0  2  0  0  0  0  0  0  0  0  0
   23.0891  -16.9754  -18.7835 C   0  0  0  0  0  0  0  0  0  0  0  0
   21.9482  -15.8822  -16.8379 C   0  0  2  0  0  0  0  0  0  0  0  0
   21.4217  -17.1217  -16.3622 N   0  0  0  0  0  0  0  0  0  0  0  0
   21.1013  -14.7092  -16.5026 C   0  0  0  0  0  0  0  0  0  0  0  0
   19.8666  -14.9215  -16.3848 O   0  0  0  0  0  0  0  0  0  0  0  0
   20.7266   -9.9515  -15.4318 O   0  0  0  0  0  0  0  0  0  0  0  0
   21.5416  -11.0416  -15.6746 C   0  0  0  0  0  0  0  0  0  0  0  0
   20.7532  -12.2840  -16.0468 C   0  0  2  0  0  0  0  0  0  0  0  0
   21.6220  -13.4063  -16.3181 N   0  0  0  0  0  0  0  0  0  0  0  0
   19.9043  -11.9471  -17.2156 C   0  0  0  0  0  0  0  0  0  0  0  0
   18.5853  -11.5576  -17.0455 O   0  0  0  0  0  0  0  0  0  0  0  0
   20.3512  -12.0041  -18.3864 O   0  0  0  0  0  0  0  0  0  0  0  0
  2  4  1  0
  2  1  1  0
  3  2  2  0
  5  7  1  0
  5  4  1  0
  5  6  1  1
  7 13  1  0
  8  7  2  0
 10  9  1  6
 10 12  1  0
 11 10  1  0
 12 14  1  0
 12 13  1  6
 14 15  2  0
 14 19  1  0
 17 16  1  0
 18 17  1  6
 18 20  1  0
 19 18  1  0
 20 21  1  0
 22 20  2  0
M  END
$$$$
