NVS.pdb
     RDKit          3D

 22 21  0  0  1  0  0  0  0  0999 V2000
   22.3121  -12.3804  -17.9021 N   0  0  0  0  0  0  0  0  0  0  0  0
   21.3314  -12.9229  -17.0567 C   0  0  0  0  0  0  0  0  0  0  0  0
   20.6601  -12.1167  -16.3439 O   0  0  0  0  0  0  0  0  0  0  0  0
   21.0530  -14.3800  -16.9652 C   0  0  0  0  0  0  0  0  0  0  0  0
   22.1583  -15.1640  -17.6629 C   0  0  2  0  0  0  0  0  0  0  0  0
   22.1235  -14.9158  -19.0828 N   0  0  0  0  0  0  0  0  0  0  0  0
   22.0548  -16.6118  -17.3763 C   0  0  0  0  0  0  0  0  0  0  0  0
   21.3409  -17.3241  -18.1295 O   0  0  0  0  0  0  0  0  0  0  0  0
   25.0914  -18.8641  -16.5028 C   0  0  0  0  0  0  0  0  0  0  0  0
   24.0177  -19.0662  -15.4394 C   0  0  2  0  0  0  0  0  0  0  0  0
   24.0430  -20.5318  -15.0699 C   0  0  0  0  0  0  0  0  0  0  0  0
   22.6953  -18.6318  -15.9954 C   0  0  2  0  0  0  0  0  0  0  0  0
   22.7252  -17.2344  -16.2889 N   0  0  0  0  0  0  0  0  0  0  0  0
   21.6445  -19.0110  -15.0169 C   0  0  0  0  0  0  0  0  0  0  0  0
   21.7677  -18.5517  -13.8519 O   0  0  0  0  0  0  0  0  0  0  0  0
   17.9591  -20.3098  -16.1978 O   0  0  0  0  0  0  0  0  0  0  0  0
   18.1353  -19.8560  -14.9038 C   0  0  0  0  0  0  0  0  0  0  0  0
   19.5250  -20.1510  -14.3695 C   0  0  2  0  0  0  0  0  0  0  0  0
   20.5476  -19.8437  -15.3430 N   0  0  0  0  0  0  0  0  0  0  0  0
   19.5595  -21.5772  -13.9633 C   0  0  0  0  0  0  0  0  0  0  0  0
   18.7522  -22.0421  -12.9373 O   0  0  0  0  0  0  0  0  0  0  0  0
   20.3156  -22.4009  -14.5320 O   0  0  0  0  0  0  0  0  0  0  0  0
  2  4  1  0
  2  1  1  0
  3  2  2  0
  5  7  1  0
  5  4  1  0
  5  6  1  6
  7 13  1  0
  8  7  2  0
 10  9  1  6
 10 12  1  0
 11 10  1  0
 12 14  1  0
 12 13  1  1
 14 15  2  0
 14 19  1  0
 17 16  1  0
 18 17  1  6
 18 20  1  0
 19 18  1  0
 20 21  1  0
 22 20  2  0
M  END
$$$$
