NVS.pdb
     RDKit          3D

 22 21  0  0  1  0  0  0  0  0999 V2000
   16.4121  -11.5871  -19.0660 N   0  0  0  0  0  0  0  0  0  0  0  0
   16.3327  -10.2159  -18.7756 C   0  0  0  0  0  0  0  0  0  0  0  0
   15.6941   -9.4802  -19.5877 O   0  0  0  0  0  0  0  0  0  0  0  0
   16.9567   -9.6023  -17.5743 C   0  0  0  0  0  0  0  0  0  0  0  0
   17.7053  -10.6650  -16.7785 C   0  0  2  0  0  0  0  0  0  0  0  0
   16.7744  -11.6090  -16.2115 N   0  0  0  0  0  0  0  0  0  0  0  0
   18.5477  -10.0557  -15.7259 C   0  0  0  0  0  0  0  0  0  0  0  0
   18.0030   -9.7102  -14.6450 O   0  0  0  0  0  0  0  0  0  0  0  0
   23.0195   -9.2396  -13.8587 C   0  0  0  0  0  0  0  0  0  0  0  0
   22.1349   -9.9035  -14.9080 C   0  0  2  0  0  0  0  0  0  0  0  0
   22.8566   -9.7728  -16.2298 C   0  0  0  0  0  0  0  0  0  0  0  0
   20.7955   -9.2309  -14.9105 C   0  0  2  0  0  0  0  0  0  0  0  0
   19.9444   -9.8431  -15.8802 N   0  0  0  0  0  0  0  0  0  0  0  0
   21.0158   -7.7809  -15.1444 C   0  0  0  0  0  0  0  0  0  0  0  0
   21.3265   -7.4402  -16.3152 O   0  0  0  0  0  0  0  0  0  0  0  0
   20.0323   -3.2374  -14.3412 O   0  0  0  0  0  0  0  0  0  0  0  0
   19.8307   -4.5950  -14.1743 C   0  0  0  0  0  0  0  0  0  0  0  0
   21.0951   -5.4021  -14.4054 C   0  0  2  0  0  0  0  0  0  0  0  0
   20.8912   -6.8053  -14.1268 N   0  0  0  0  0  0  0  0  0  0  0  0
   22.1640   -4.8201  -13.5576 C   0  0  0  0  0  0  0  0  0  0  0  0
   22.5017   -5.3993  -12.3448 O   0  0  0  0  0  0  0  0  0  0  0  0
   22.7912   -3.7924  -13.9100 O   0  0  0  0  0  0  0  0  0  0  0  0
  2  4  1  0
  2  1  1  0
  3  2  2  0
  5  7  1  0
  5  4  1  0
  5  6  1  1
  7 13  1  0
  8  7  2  0
 10  9  1  1
 10 12  1  0
 11 10  1  0
 12 14  1  0
 12 13  1  6
 14 15  2  0
 14 19  1  0
 17 16  1  0
 18 17  1  1
 18 20  1  0
 19 18  1  0
 20 21  1  0
 22 20  2  0
M  END
$$$$
