NVS.pdb
     RDKit          3D

 22 21  0  0  1  0  0  0  0  0999 V2000
   16.0386  -13.2987  -11.4886 N   0  0  0  0  0  0  0  0  0  0  0  0
   16.6709  -12.3073  -12.2556 C   0  0  0  0  0  0  0  0  0  0  0  0
   17.6449  -12.6627  -12.9860 O   0  0  0  0  0  0  0  0  0  0  0  0
   16.2512  -10.8815  -12.2458 C   0  0  0  0  0  0  0  0  0  0  0  0
   15.2158  -10.6530  -11.1510 C   0  0  2  0  0  0  0  0  0  0  0  0
   14.0662  -11.4953  -11.3705 N   0  0  0  0  0  0  0  0  0  0  0  0
   14.8209   -9.2294  -11.0719 C   0  0  0  0  0  0  0  0  0  0  0  0
   13.8975   -8.8190  -11.8225 O   0  0  0  0  0  0  0  0  0  0  0  0
   15.8163   -7.2742   -7.6818 C   0  0  0  0  0  0  0  0  0  0  0  0
   14.6833   -6.7290   -8.5441 C   0  0  2  0  0  0  0  0  0  0  0  0
   13.4266   -7.4533   -8.1183 C   0  0  0  0  0  0  0  0  0  0  0  0
   15.0199   -6.9530   -9.9873 C   0  0  2  0  0  0  0  0  0  0  0  0
   15.4372   -8.3043  -10.1865 N   0  0  0  0  0  0  0  0  0  0  0  0
   16.0453   -5.9512  -10.3754 C   0  0  0  0  0  0  0  0  0  0  0  0
   17.1943   -6.1026   -9.8852 O   0  0  0  0  0  0  0  0  0  0  0  0
   16.2365   -4.1702  -13.8992 O   0  0  0  0  0  0  0  0  0  0  0  0
   17.2799   -4.0404  -13.0015 C   0  0  0  0  0  0  0  0  0  0  0  0
   16.7987   -3.8974  -11.5691 C   0  0  2  0  0  0  0  0  0  0  0  0
   15.7792   -4.8699  -11.2488 N   0  0  0  0  0  0  0  0  0  0  0  0
   16.3114   -2.5076  -11.3928 C   0  0  0  0  0  0  0  0  0  0  0  0
   17.1848   -1.4344  -11.4714 O   0  0  0  0  0  0  0  0  0  0  0  0
   15.1018   -2.2622  -11.1687 O   0  0  0  0  0  0  0  0  0  0  0  0
  2  4  1  0
  2  1  1  0
  3  2  2  0
  5  7  1  0
  5  4  1  0
  5  6  1  6
  7 13  1  0
  8  7  2  0
 10  9  1  1
 10 12  1  0
 11 10  1  0
 12 14  1  0
 12 13  1  1
 14 15  2  0
 14 19  1  0
 17 16  1  0
 18 17  1  6
 18 20  1  0
 19 18  1  0
 20 21  1  0
 22 20  2  0
M  END
$$$$
