NVS.pdb
     RDKit          3D

 22 21  0  0  1  0  0  0  0  0999 V2000
   16.8748  -10.2739  -20.5139 N   0  0  0  0  0  0  0  0  0  0  0  0
   18.1239  -10.1076  -19.8950 C   0  0  0  0  0  0  0  0  0  0  0  0
   19.1580  -10.3712  -20.5804 O   0  0  0  0  0  0  0  0  0  0  0  0
   18.2801   -9.6428  -18.4920 C   0  0  0  0  0  0  0  0  0  0  0  0
   19.2074  -10.5851  -17.7335 C   0  0  2  0  0  0  0  0  0  0  0  0
   18.5881  -11.8786  -17.5845 N   0  0  0  0  0  0  0  0  0  0  0  0
   19.5854  -10.0248  -16.4174 C   0  0  0  0  0  0  0  0  0  0  0  0
   18.7190   -9.9968  -15.5047 O   0  0  0  0  0  0  0  0  0  0  0  0
   23.6691   -9.1771  -15.5275 C   0  0  0  0  0  0  0  0  0  0  0  0
   22.6239   -9.5720  -14.4901 C   0  0  2  0  0  0  0  0  0  0  0  0
   22.5996  -11.0830  -14.4517 C   0  0  0  0  0  0  0  0  0  0  0  0
   21.3032   -8.9813  -14.8818 C   0  0  2  0  0  0  0  0  0  0  0  0
   20.8827   -9.5169  -16.1372 N   0  0  0  0  0  0  0  0  0  0  0  0
   21.4496   -7.5034  -14.8855 C   0  0  0  0  0  0  0  0  0  0  0  0
   21.8940   -6.9843  -15.9420 O   0  0  0  0  0  0  0  0  0  0  0  0
   22.8309   -3.4772  -14.2876 O   0  0  0  0  0  0  0  0  0  0  0  0
   22.6723   -4.8493  -14.2270 C   0  0  0  0  0  0  0  0  0  0  0  0
   21.2644   -5.2537  -13.8295 C   0  0  2  0  0  0  0  0  0  0  0  0
   21.1164   -6.6900  -13.7763 N   0  0  0  0  0  0  0  0  0  0  0  0
   20.3265   -4.6371  -14.7993 C   0  0  0  0  0  0  0  0  0  0  0  0
   19.6063   -3.5012  -14.4653 O   0  0  0  0  0  0  0  0  0  0  0  0
   20.1574   -5.1216  -15.9440 O   0  0  0  0  0  0  0  0  0  0  0  0
  2  4  1  0
  2  1  1  0
  3  2  2  0
  5  7  1  0
  5  4  1  0
  5  6  1  1
  7 13  1  0
  8  7  2  0
 10  9  1  6
 10 12  1  0
 11 10  1  0
 12 14  1  0
 12 13  1  6
 14 15  2  0
 14 19  1  0
 17 16  1  0
 18 17  1  6
 18 20  1  0
 19 18  1  0
 20 21  1  0
 22 20  2  0
M  END
$$$$
