NVS.pdb
     RDKit          3D

 22 21  0  0  1  0  0  0  0  0999 V2000
   18.4621  -23.0108  -10.1752 N   0  0  0  0  0  0  0  0  0  0  0  0
   18.4987  -22.6120  -11.5208 C   0  0  0  0  0  0  0  0  0  0  0  0
   17.6502  -23.1287  -12.3091 O   0  0  0  0  0  0  0  0  0  0  0  0
   19.4760  -21.6249  -12.0494 C   0  0  0  0  0  0  0  0  0  0  0  0
   20.4204  -21.1834  -10.9376 C   0  0  2  0  0  0  0  0  0  0  0  0
   19.7354  -20.3031  -10.0239 N   0  0  0  0  0  0  0  0  0  0  0  0
   21.6329  -20.5369  -11.4860 C   0  0  0  0  0  0  0  0  0  0  0  0
   21.6151  -19.2936  -11.6816 O   0  0  0  0  0  0  0  0  0  0  0  0
   25.2503  -21.3441  -10.3766 C   0  0  0  0  0  0  0  0  0  0  0  0
   25.2068  -21.4206  -11.8987 C   0  0  2  0  0  0  0  0  0  0  0  0
   26.4949  -20.8094  -12.4011 C   0  0  0  0  0  0  0  0  0  0  0  0
   23.9912  -20.6925  -12.3872 C   0  0  2  0  0  0  0  0  0  0  0  0
   22.8170  -21.2566  -11.8019 N   0  0  0  0  0  0  0  0  0  0  0  0
   23.9977  -20.7423  -13.8715 C   0  0  0  0  0  0  0  0  0  0  0  0
   24.1435  -21.8767  -14.3962 O   0  0  0  0  0  0  0  0  0  0  0  0
   21.9665  -18.0643  -16.0501 O   0  0  0  0  0  0  0  0  0  0  0  0
   23.1024  -18.4645  -16.7290 C   0  0  0  0  0  0  0  0  0  0  0  0
   23.7357  -19.7027  -16.1213 C   0  0  2  0  0  0  0  0  0  0  0  0
   23.8502  -19.5937  -14.6850 N   0  0  0  0  0  0  0  0  0  0  0  0
   25.0564  -19.8984  -16.7676 C   0  0  0  0  0  0  0  0  0  0  0  0
   25.1594  -20.5454  -17.9888 O   0  0  0  0  0  0  0  0  0  0  0  0
   26.1137  -19.4870  -16.2324 O   0  0  0  0  0  0  0  0  0  0  0  0
  2  4  1  0
  2  1  1  0
  3  2  2  0
  5  7  1  0
  5  4  1  0
  5  6  1  1
  7 13  1  0
  8  7  2  0
 10  9  1  1
 10 12  1  0
 11 10  1  0
 12 14  1  0
 12 13  1  1
 14 15  2  0
 14 19  1  0
 17 16  1  0
 18 17  1  6
 18 20  1  0
 19 18  1  0
 20 21  1  0
 22 20  2  0
M  END
$$$$
