NVS.pdb
     RDKit          3D

 22 21  0  0  1  0  0  0  0  0999 V2000
   15.7720  -12.3221  -15.8625 N   0  0  0  0  0  0  0  0  0  0  0  0
   16.4026  -11.6630  -14.7954 C   0  0  0  0  0  0  0  0  0  0  0  0
   15.9344  -11.8497  -13.6315 O   0  0  0  0  0  0  0  0  0  0  0  0
   17.5774  -10.7699  -14.9722 C   0  0  0  0  0  0  0  0  0  0  0  0
   17.8495  -10.5584  -16.4568 C   0  0  2  0  0  0  0  0  0  0  0  0
   18.2862  -11.7917  -17.0628 N   0  0  0  0  0  0  0  0  0  0  0  0
   18.8409   -9.4820  -16.6746 C   0  0  0  0  0  0  0  0  0  0  0  0
   20.0641   -9.7781  -16.6533 O   0  0  0  0  0  0  0  0  0  0  0  0
   18.8824   -7.0573  -19.5852 C   0  0  0  0  0  0  0  0  0  0  0  0
   18.8732   -6.2248  -18.3080 C   0  0  2  0  0  0  0  0  0  0  0  0
   19.7357   -5.0121  -18.5739 C   0  0  0  0  0  0  0  0  0  0  0  0
   19.3868   -7.0639  -17.1773 C   0  0  2  0  0  0  0  0  0  0  0  0
   18.4743   -8.1288  -16.9068 N   0  0  0  0  0  0  0  0  0  0  0  0
   19.6162   -6.1686  -16.0148 C   0  0  0  0  0  0  0  0  0  0  0  0
   18.6598   -5.4217  -15.6819 O   0  0  0  0  0  0  0  0  0  0  0  0
   22.8031   -6.6610  -13.3900 O   0  0  0  0  0  0  0  0  0  0  0  0
   21.6838   -5.9479  -13.0026 C   0  0  0  0  0  0  0  0  0  0  0  0
   21.0115   -5.2451  -14.1678 C   0  0  2  0  0  0  0  0  0  0  0  0
   20.8345   -6.1311  -15.2955 N   0  0  0  0  0  0  0  0  0  0  0  0
   21.8352   -4.0624  -14.5183 C   0  0  0  0  0  0  0  0  0  0  0  0
   21.9912   -3.0162  -13.6229 O   0  0  0  0  0  0  0  0  0  0  0  0
   22.4122   -3.9732  -15.6286 O   0  0  0  0  0  0  0  0  0  0  0  0
  2  4  1  0
  2  1  1  0
  3  2  2  0
  5  7  1  0
  5  4  1  0
  5  6  1  1
  7 13  1  0
  8  7  2  0
 10  9  1  6
 10 12  1  0
 11 10  1  0
 12 14  1  0
 12 13  1  1
 14 15  2  0
 14 19  1  0
 17 16  1  0
 18 17  1  1
 18 20  1  0
 19 18  1  0
 20 21  1  0
 22 20  2  0
M  END
$$$$
