NVS.pdb
     RDKit          3D

 22 21  0  0  1  0  0  0  0  0999 V2000
   18.5818  -11.4370  -11.3315 N   0  0  0  0  0  0  0  0  0  0  0  0
   18.8842  -10.2431  -12.0053 C   0  0  0  0  0  0  0  0  0  0  0  0
   19.9658  -10.2003  -12.6663 O   0  0  0  0  0  0  0  0  0  0  0  0
   18.0022   -9.0472  -11.9754 C   0  0  0  0  0  0  0  0  0  0  0  0
   16.8229   -9.2957  -11.0424 C   0  0  2  0  0  0  0  0  0  0  0  0
   16.0515  -10.4225  -11.5053 N   0  0  0  0  0  0  0  0  0  0  0  0
   15.9742   -8.0905  -10.9144 C   0  0  0  0  0  0  0  0  0  0  0  0
   15.1341   -7.8480  -11.8198 O   0  0  0  0  0  0  0  0  0  0  0  0
   15.3950   -6.6870   -7.1628 C   0  0  0  0  0  0  0  0  0  0  0  0
   14.3990   -6.4054   -8.2823 C   0  0  2  0  0  0  0  0  0  0  0  0
   13.5103   -7.6235   -8.3892 C   0  0  0  0  0  0  0  0  0  0  0  0
   15.1547   -6.1272   -9.5464 C   0  0  2  0  0  0  0  0  0  0  0  0
   16.0649   -7.1944   -9.8152 N   0  0  0  0  0  0  0  0  0  0  0  0
   15.8157   -4.8055   -9.3991 C   0  0  0  0  0  0  0  0  0  0  0  0
   16.8286   -4.7624   -8.6536 O   0  0  0  0  0  0  0  0  0  0  0  0
   16.1331   -0.0887  -10.6340 O   0  0  0  0  0  0  0  0  0  0  0  0
   15.5992   -1.3402  -10.8793 C   0  0  0  0  0  0  0  0  0  0  0  0
   15.9909   -2.3556   -9.8214 C   0  0  2  0  0  0  0  0  0  0  0  0
   15.3576   -3.6344  -10.0483 N   0  0  0  0  0  0  0  0  0  0  0  0
   15.6341   -1.7895   -8.4976 C   0  0  0  0  0  0  0  0  0  0  0  0
   14.5913   -2.3220   -7.7562 O   0  0  0  0  0  0  0  0  0  0  0  0
   16.2611   -0.8178   -8.0115 O   0  0  0  0  0  0  0  0  0  0  0  0
  2  4  1  0
  2  1  1  0
  3  2  2  0
  5  7  1  0
  5  4  1  0
  5  6  1  6
  7 13  1  0
  8  7  2  0
 10  9  1  1
 10 12  1  0
 11 10  1  0
 12 14  1  0
 12 13  1  1
 14 15  2  0
 14 19  1  0
 17 16  1  0
 18 17  1  6
 18 20  1  0
 19 18  1  0
 20 21  1  0
 22 20  2  0
M  END
$$$$
