NVS.pdb
     RDKit          3D

 22 21  0  0  1  0  0  0  0  0999 V2000
   19.1605  -26.5008   -6.9633 N   0  0  0  0  0  0  0  0  0  0  0  0
   18.5329  -26.2389   -8.1915 C   0  0  0  0  0  0  0  0  0  0  0  0
   17.9919  -27.2151   -8.7938 O   0  0  0  0  0  0  0  0  0  0  0  0
   18.4780  -24.8857   -8.8037 C   0  0  0  0  0  0  0  0  0  0  0  0
   19.2291  -23.8894   -7.9283 C   0  0  2  0  0  0  0  0  0  0  0  0
   18.5229  -23.6866   -6.6877 N   0  0  0  0  0  0  0  0  0  0  0  0
   19.4401  -22.6056   -8.6327 C   0  0  0  0  0  0  0  0  0  0  0  0
   18.4924  -21.7781   -8.6710 O   0  0  0  0  0  0  0  0  0  0  0  0
   23.2992  -21.6488  -10.0744 C   0  0  0  0  0  0  0  0  0  0  0  0
   22.3043  -20.5641   -9.6768 C   0  0  2  0  0  0  0  0  0  0  0  0
   22.5280  -20.2873   -8.2076 C   0  0  0  0  0  0  0  0  0  0  0  0
   20.9161  -21.0467   -9.9704 C   0  0  2  0  0  0  0  0  0  0  0  0
   20.6647  -22.2647   -9.2682 N   0  0  0  0  0  0  0  0  0  0  0  0
   20.7806  -21.1718  -11.4440 C   0  0  0  0  0  0  0  0  0  0  0  0
   21.1040  -22.2789  -11.9472 O   0  0  0  0  0  0  0  0  0  0  0  0
   18.5833  -18.4530  -13.6860 O   0  0  0  0  0  0  0  0  0  0  0  0
   18.7921  -19.7374  -14.1529 C   0  0  0  0  0  0  0  0  0  0  0  0
   20.1162  -20.3157  -13.6882 C   0  0  2  0  0  0  0  0  0  0  0  0
   20.3155  -20.1212  -12.2703 N   0  0  0  0  0  0  0  0  0  0  0  0
   21.1919  -19.6823  -14.4894 C   0  0  0  0  0  0  0  0  0  0  0  0
   21.2734  -19.8898  -15.8572 O   0  0  0  0  0  0  0  0  0  0  0  0
   22.0554  -18.9442  -13.9571 O   0  0  0  0  0  0  0  0  0  0  0  0
  2  4  1  0
  2  1  1  0
  3  2  2  0
  5  7  1  0
  5  4  1  0
  5  6  1  1
  7 13  1  0
  8  7  2  0
 10  9  1  1
 10 12  1  0
 11 10  1  0
 12 14  1  0
 12 13  1  1
 14 15  2  0
 14 19  1  0
 17 16  1  0
 18 17  1  6
 18 20  1  0
 19 18  1  0
 20 21  1  0
 22 20  2  0
M  END
$$$$
