NVS.pdb
     RDKit          3D

 22 21  0  0  1  0  0  0  0  0999 V2000
   17.0952  -26.1007   -7.4524 N   0  0  0  0  0  0  0  0  0  0  0  0
   17.9462  -25.6917   -8.4913 C   0  0  0  0  0  0  0  0  0  0  0  0
   18.6851  -26.5730   -9.0259 O   0  0  0  0  0  0  0  0  0  0  0  0
   18.0146  -24.2902   -8.9815 C   0  0  0  0  0  0  0  0  0  0  0  0
   19.3652  -23.6810   -8.6242 C   0  0  2  0  0  0  0  0  0  0  0  0
   19.5257  -23.6333   -7.1921 N   0  0  0  0  0  0  0  0  0  0  0  0
   19.5235  -22.3357   -9.2193 C   0  0  0  0  0  0  0  0  0  0  0  0
   18.8032  -21.3985   -8.7868 O   0  0  0  0  0  0  0  0  0  0  0  0
   22.9224  -21.5309  -11.4827 C   0  0  0  0  0  0  0  0  0  0  0  0
   22.1344  -20.4288  -10.7835 C   0  0  2  0  0  0  0  0  0  0  0  0
   22.6649  -20.3454   -9.3705 C   0  0  0  0  0  0  0  0  0  0  0  0
   20.6752  -20.7672  -10.8352 C   0  0  2  0  0  0  0  0  0  0  0  0
   20.4524  -22.0541  -10.2573 N   0  0  0  0  0  0  0  0  0  0  0  0
   20.2354  -20.6672  -12.2502 C   0  0  0  0  0  0  0  0  0  0  0  0
   20.4181  -21.6832  -12.9697 O   0  0  0  0  0  0  0  0  0  0  0  0
   18.0152  -18.1336  -15.7956 O   0  0  0  0  0  0  0  0  0  0  0  0
   18.4614  -18.1784  -14.4878 C   0  0  0  0  0  0  0  0  0  0  0  0
   19.2198  -19.4559  -14.1768 C   0  0  2  0  0  0  0  0  0  0  0  0
   19.6383  -19.5054  -12.7947 N   0  0  0  0  0  0  0  0  0  0  0  0
   20.3729  -19.5344  -15.1065 C   0  0  0  0  0  0  0  0  0  0  0  0
   20.3005  -20.2932  -16.2639 O   0  0  0  0  0  0  0  0  0  0  0  0
   21.4422  -18.9205  -14.8753 O   0  0  0  0  0  0  0  0  0  0  0  0
  2  4  1  0
  2  1  1  0
  3  2  2  0
  5  7  1  0
  5  4  1  0
  5  6  1  1
  7 13  1  0
  8  7  2  0
 10  9  1  6
 10 12  1  0
 11 10  1  0
 12 14  1  0
 12 13  1  6
 14 15  2  0
 14 19  1  0
 17 16  1  0
 18 17  1  1
 18 20  1  0
 19 18  1  0
 20 21  1  0
 22 20  2  0
M  END
$$$$
