NVS.pdb
     RDKit          3D

 22 21  0  0  1  0  0  0  0  0999 V2000
   16.8194  -13.7635  -14.9596 N   0  0  0  0  0  0  0  0  0  0  0  0
   16.3471  -13.0488  -13.8474 C   0  0  0  0  0  0  0  0  0  0  0  0
   15.9619  -13.7174  -12.8408 O   0  0  0  0  0  0  0  0  0  0  0  0
   16.2815  -11.5646  -13.8032 C   0  0  0  0  0  0  0  0  0  0  0  0
   15.3382  -11.1198  -12.6919 C   0  0  2  0  0  0  0  0  0  0  0  0
   13.9875  -11.5228  -12.9954 N   0  0  0  0  0  0  0  0  0  0  0  0
   15.4172   -9.6591  -12.4708 C   0  0  0  0  0  0  0  0  0  0  0  0
   14.7622   -8.8997  -13.2314 O   0  0  0  0  0  0  0  0  0  0  0  0
   15.2331   -7.8786   -8.9843 C   0  0  0  0  0  0  0  0  0  0  0  0
   16.4935   -7.4323   -9.7168 C   0  0  2  0  0  0  0  0  0  0  0  0
   16.6937   -5.9710   -9.3855 C   0  0  0  0  0  0  0  0  0  0  0  0
   16.3135   -7.6738  -11.1850 C   0  0  2  0  0  0  0  0  0  0  0  0
   16.1996   -9.0747  -11.4383 N   0  0  0  0  0  0  0  0  0  0  0  0
   17.4503   -7.0326  -11.8937 C   0  0  0  0  0  0  0  0  0  0  0  0
   18.6024   -7.2877  -11.4565 O   0  0  0  0  0  0  0  0  0  0  0  0
   17.0070   -4.4899  -15.2971 O   0  0  0  0  0  0  0  0  0  0  0  0
   18.0872   -5.3432  -15.1686 C   0  0  0  0  0  0  0  0  0  0  0  0
   18.4221   -5.6411  -13.7185 C   0  0  2  0  0  0  0  0  0  0  0  0
   17.2834   -6.1738  -13.0061 N   0  0  0  0  0  0  0  0  0  0  0  0
   18.9215   -4.3872  -13.1034 C   0  0  0  0  0  0  0  0  0  0  0  0
   20.1616   -3.8732  -13.4477 O   0  0  0  0  0  0  0  0  0  0  0  0
   18.2414   -3.7575  -12.2581 O   0  0  0  0  0  0  0  0  0  0  0  0
  2  4  1  0
  2  1  1  0
  3  2  2  0
  5  7  1  0
  5  4  1  0
  5  6  1  6
  7 13  1  0
  8  7  2  0
 10  9  1  1
 10 12  1  0
 11 10  1  0
 12 14  1  0
 12 13  1  1
 14 15  2  0
 14 19  1  0
 17 16  1  0
 18 17  1  6
 18 20  1  0
 19 18  1  0
 20 21  1  0
 22 20  2  0
M  END
$$$$
