SSG.pdb
     RDKit          3D

 17 16  0  0  1  0  0  0  0  0999 V2000
   16.8570   -9.5179  -15.9123 O   0  0  0  0  0  0  0  0  0  0  0  0
   18.1032   -9.0385  -15.5691 C   0  0  0  0  0  0  0  0  0  0  0  0
   19.2141   -9.9951  -15.9284 C   0  0  2  0  0  0  0  0  0  0  0  0
   19.0407  -11.2591  -15.2471 N   0  0  0  0  0  0  0  0  0  0  0  0
   20.5575   -9.4074  -15.6415 C   0  0  0  0  0  0  0  0  0  0  0  0
   21.1407   -9.5981  -14.5441 O   0  0  0  0  0  0  0  0  0  0  0  0
   24.6391   -7.5716  -17.5361 O   0  0  0  0  0  0  0  0  0  0  0  0
   23.3443   -7.9929  -17.7268 C   0  0  0  0  0  0  0  0  0  0  0  0
   22.5931   -8.1361  -16.4040 C   0  0  2  0  0  0  0  0  0  0  0  0
   21.2512   -8.5975  -16.5983 N   0  0  0  0  0  0  0  0  0  0  0  0
   22.6602   -6.8691  -15.6344 C   0  0  0  0  0  0  0  0  0  0  0  0
   23.7678   -6.4512  -15.2149 O   0  0  0  0  0  0  0  0  0  0  0  0
   21.5171   -6.0814  -15.3368 N   0  0  0  0  0  0  0  0  0  0  0  0
   21.6313   -4.8460  -14.5473 C   0  0  0  0  0  0  0  0  0  0  0  0
   20.3158   -4.1881  -14.4152 C   0  0  0  0  0  0  0  0  0  0  0  0
   19.1778   -4.6836  -15.0344 O   0  0  0  0  0  0  0  0  0  0  0  0
   20.1999   -3.1473  -13.7264 O   0  0  0  0  0  0  0  0  0  0  0  0
  2  3  1  0
  2  1  1  0
  3  4  1  1
  5  6  2  0
  5  3  1  0
  7  8  1  0
  9  8  1  6
  9 11  1  0
  9 10  1  0
 10  5  1  0
 11 13  1  0
 12 11  2  0
 13 14  1  0
 14 15  1  0
 15 17  2  0
 15 16  1  0
M  END
$$$$
