SSG.pdb
     RDKit          3D

 17 16  0  0  1  0  0  0  0  0999 V2000
   20.4544  -11.5081  -18.9412 O   0  0  0  0  0  0  0  0  0  0  0  0
   20.0223  -10.3859  -18.2668 C   0  0  0  0  0  0  0  0  0  0  0  0
   19.9814  -10.5854  -16.7713 C   0  0  2  0  0  0  0  0  0  0  0  0
   18.9359  -11.5165  -16.4080 N   0  0  0  0  0  0  0  0  0  0  0  0
   19.8221   -9.2870  -16.0495 C   0  0  0  0  0  0  0  0  0  0  0  0
   18.7273   -8.6686  -16.0370 O   0  0  0  0  0  0  0  0  0  0  0  0
   21.3318   -8.1825  -12.4435 O   0  0  0  0  0  0  0  0  0  0  0  0
   21.7180   -7.3317  -13.4522 C   0  0  0  0  0  0  0  0  0  0  0  0
   20.7852   -7.4213  -14.6590 C   0  0  2  0  0  0  0  0  0  0  0  0
   20.9045   -8.6783  -15.3351 N   0  0  0  0  0  0  0  0  0  0  0  0
   20.9962   -6.2612  -15.5598 C   0  0  0  0  0  0  0  0  0  0  0  0
   21.7816   -6.3623  -16.5347 O   0  0  0  0  0  0  0  0  0  0  0  0
   20.3463   -5.0118  -15.3801 N   0  0  0  0  0  0  0  0  0  0  0  0
   20.5429   -3.9098  -16.3339 C   0  0  0  0  0  0  0  0  0  0  0  0
   19.6510   -2.7773  -16.0132 C   0  0  0  0  0  0  0  0  0  0  0  0
   18.6969   -2.8512  -15.0093 O   0  0  0  0  0  0  0  0  0  0  0  0
   19.7411   -1.7049  -16.6558 O   0  0  0  0  0  0  0  0  0  0  0  0
  2  3  1  0
  2  1  1  0
  3  4  1  6
  5  6  2  0
  5  3  1  0
  7  8  1  0
  9  8  1  1
  9 11  1  0
  9 10  1  0
 10  5  1  0
 11 13  1  0
 12 11  2  0
 13 14  1  0
 14 15  1  0
 15 17  2  0
 15 16  1  0
M  END
$$$$
