SSG.pdb
     RDKit          3D

 17 16  0  0  1  0  0  0  0  0999 V2000
   17.0943  -12.6654  -15.5873 O   0  0  0  0  0  0  0  0  0  0  0  0
   18.0733  -11.7039  -15.4536 C   0  0  0  0  0  0  0  0  0  0  0  0
   19.1155  -11.7789  -16.5428 C   0  0  2  0  0  0  0  0  0  0  0  0
   19.8509  -13.0217  -16.4620 N   0  0  0  0  0  0  0  0  0  0  0  0
   20.0366  -10.6032  -16.5017 C   0  0  0  0  0  0  0  0  0  0  0  0
   20.8910  -10.4657  -15.5895 O   0  0  0  0  0  0  0  0  0  0  0  0
   21.6667   -6.5623  -18.7414 O   0  0  0  0  0  0  0  0  0  0  0  0
   20.8077   -7.6357  -18.7648 C   0  0  0  0  0  0  0  0  0  0  0  0
   20.8244   -8.4053  -17.4449 C   0  0  2  0  0  0  0  0  0  0  0  0
   19.9962   -9.5726  -17.4960 N   0  0  0  0  0  0  0  0  0  0  0  0
   20.4784   -7.5030  -16.3188 C   0  0  0  0  0  0  0  0  0  0  0  0
   19.2769   -7.3543  -15.9843 O   0  0  0  0  0  0  0  0  0  0  0  0
   21.4499   -6.7796  -15.5783 N   0  0  0  0  0  0  0  0  0  0  0  0
   21.0684   -5.9769  -14.4067 C   0  0  0  0  0  0  0  0  0  0  0  0
   22.2635   -5.4029  -13.7563 C   0  0  0  0  0  0  0  0  0  0  0  0
   22.1741   -4.5808  -12.6428 O   0  0  0  0  0  0  0  0  0  0  0  0
   23.4058   -5.6530  -14.2076 O   0  0  0  0  0  0  0  0  0  0  0  0
  2  3  1  0
  2  1  1  0
  3  4  1  1
  5  6  2  0
  5  3  1  0
  7  8  1  0
  9  8  1  6
  9 11  1  0
  9 10  1  0
 10  5  1  0
 11 13  1  0
 12 11  2  0
 13 14  1  0
 14 15  1  0
 15 17  2  0
 15 16  1  0
M  END
$$$$
