SSG.pdb
     RDKit          3D

 17 16  0  0  1  0  0  0  0  0999 V2000
   17.8837  -10.4369  -16.7003 O   0  0  0  0  0  0  0  0  0  0  0  0
   18.1537   -9.1433  -16.3073 C   0  0  0  0  0  0  0  0  0  0  0  0
   18.4198   -9.0285  -14.8260 C   0  0  2  0  0  0  0  0  0  0  0  0
   17.2529   -9.4176  -14.0652 N   0  0  0  0  0  0  0  0  0  0  0  0
   18.8715   -7.6534  -14.4554 C   0  0  0  0  0  0  0  0  0  0  0  0
   18.0510   -6.7323  -14.2118 O   0  0  0  0  0  0  0  0  0  0  0  0
   22.5688   -4.7465  -13.1356 O   0  0  0  0  0  0  0  0  0  0  0  0
   22.1543   -6.0023  -13.5119 C   0  0  0  0  0  0  0  0  0  0  0  0
   20.7179   -5.9939  -14.0326 C   0  0  2  0  0  0  0  0  0  0  0  0
   20.2593   -7.3112  -14.3581 N   0  0  0  0  0  0  0  0  0  0  0  0
   20.5863   -5.0429  -15.1641 C   0  0  0  0  0  0  0  0  0  0  0  0
   20.8666   -5.4167  -16.3299 O   0  0  0  0  0  0  0  0  0  0  0  0
   20.1511   -3.7012  -15.0024 N   0  0  0  0  0  0  0  0  0  0  0  0
   20.0995   -2.7771  -16.1452 C   0  0  0  0  0  0  0  0  0  0  0  0
   19.6352   -1.4425  -15.7161 C   0  0  0  0  0  0  0  0  0  0  0  0
   19.2113   -1.1907  -14.4197 O   0  0  0  0  0  0  0  0  0  0  0  0
   19.6148   -0.4917  -16.5326 O   0  0  0  0  0  0  0  0  0  0  0  0
  2  3  1  0
  2  1  1  0
  3  4  1  1
  5  6  2  0
  5  3  1  0
  7  8  1  0
  9  8  1  6
  9 11  1  0
  9 10  1  0
 10  5  1  0
 11 13  1  0
 12 11  2  0
 13 14  1  0
 14 15  1  0
 15 17  2  0
 15 16  1  0
M  END
$$$$
