SSG.pdb
     RDKit          3D

 17 16  0  0  1  0  0  0  0  0999 V2000
   22.4271  -12.2506  -19.8745 O   0  0  0  0  0  0  0  0  0  0  0  0
   22.0176  -10.9844  -19.5139 C   0  0  0  0  0  0  0  0  0  0  0  0
   22.6295  -10.5231  -18.2136 C   0  0  2  0  0  0  0  0  0  0  0  0
   22.7003  -11.6138  -17.2664 N   0  0  0  0  0  0  0  0  0  0  0  0
   21.8877   -9.3591  -17.6415 C   0  0  0  0  0  0  0  0  0  0  0  0
   21.6521   -8.3279  -18.3213 O   0  0  0  0  0  0  0  0  0  0  0  0
   19.7087   -9.6083  -13.9838 O   0  0  0  0  0  0  0  0  0  0  0  0
   19.4146   -8.7322  -15.0018 C   0  0  0  0  0  0  0  0  0  0  0  0
   20.6742   -8.2614  -15.7274 C   0  0  2  0  0  0  0  0  0  0  0  0
   21.4064   -9.3551  -16.2922 N   0  0  0  0  0  0  0  0  0  0  0  0
   21.5010   -7.4183  -14.8287 C   0  0  0  0  0  0  0  0  0  0  0  0
   22.4978   -7.9154  -14.2484 O   0  0  0  0  0  0  0  0  0  0  0  0
   21.2247   -6.0482  -14.5798 N   0  0  0  0  0  0  0  0  0  0  0  0
   22.1446   -5.2206  -13.7851 C   0  0  0  0  0  0  0  0  0  0  0  0
   21.6580   -3.8285  -13.7065 C   0  0  0  0  0  0  0  0  0  0  0  0
   22.3231   -2.8548  -12.9763 O   0  0  0  0  0  0  0  0  0  0  0  0
   20.6123   -3.4933  -14.3109 O   0  0  0  0  0  0  0  0  0  0  0  0
  2  3  1  0
  2  1  1  0
  3  4  1  1
  5  6  2  0
  5  3  1  0
  7  8  1  0
  9  8  1  1
  9 11  1  0
  9 10  1  0
 10  5  1  0
 11 13  1  0
 12 11  2  0
 13 14  1  0
 14 15  1  0
 15 17  2  0
 15 16  1  0
M  END
$$$$
