SSG.pdb
     RDKit          3D

 17 16  0  0  1  0  0  0  0  0999 V2000
   23.3334  -10.4182  -20.1152 O   0  0  0  0  0  0  0  0  0  0  0  0
   22.5075   -9.5173  -19.4773 C   0  0  0  0  0  0  0  0  0  0  0  0
   22.1168   -9.9668  -18.0904 C   0  0  2  0  0  0  0  0  0  0  0  0
   21.3325  -11.1806  -18.1481 N   0  0  0  0  0  0  0  0  0  0  0  0
   21.3917   -8.8907  -17.3496 C   0  0  0  0  0  0  0  0  0  0  0  0
   20.4905   -8.2052  -17.8963 O   0  0  0  0  0  0  0  0  0  0  0  0
   21.2233   -8.8974  -13.1875 O   0  0  0  0  0  0  0  0  0  0  0  0
   20.2887   -8.2804  -13.9851 C   0  0  0  0  0  0  0  0  0  0  0  0
   20.9275   -7.6375  -15.2152 C   0  0  2  0  0  0  0  0  0  0  0  0
   21.6832   -8.5829  -15.9811 N   0  0  0  0  0  0  0  0  0  0  0  0
   21.7238   -6.4494  -14.8199 C   0  0  0  0  0  0  0  0  0  0  0  0
   22.9732   -6.5378  -14.7271 O   0  0  0  0  0  0  0  0  0  0  0  0
   21.1420   -5.1866  -14.5331 N   0  0  0  0  0  0  0  0  0  0  0  0
   21.9614   -4.0658  -14.0483 C   0  0  0  0  0  0  0  0  0  0  0  0
   21.1423   -2.8457  -13.9029 C   0  0  0  0  0  0  0  0  0  0  0  0
   19.8088   -2.8030  -14.2820 O   0  0  0  0  0  0  0  0  0  0  0  0
   21.6472   -1.8032  -13.4240 O   0  0  0  0  0  0  0  0  0  0  0  0
  2  3  1  0
  2  1  1  0
  3  4  1  6
  5  6  2  0
  5  3  1  0
  7  8  1  0
  9  8  1  1
  9 11  1  0
  9 10  1  0
 10  5  1  0
 11 13  1  0
 12 11  2  0
 13 14  1  0
 14 15  1  0
 15 17  2  0
 15 16  1  0
M  END
$$$$
