SSG.pdb
     RDKit          3D

 17 16  0  0  1  0  0  0  0  0999 V2000
   18.7837  -10.5233  -19.1281 O   0  0  0  0  0  0  0  0  0  0  0  0
   18.6626   -9.6275  -18.0871 C   0  0  0  0  0  0  0  0  0  0  0  0
   19.7961   -9.7304  -17.0959 C   0  0  2  0  0  0  0  0  0  0  0  0
   19.8526  -11.0556  -16.5194 N   0  0  0  0  0  0  0  0  0  0  0  0
   19.6923   -8.6841  -16.0343 C   0  0  0  0  0  0  0  0  0  0  0  0
   18.5892   -8.3795  -15.5134 O   0  0  0  0  0  0  0  0  0  0  0  0
   22.7377   -8.0809  -13.4978 O   0  0  0  0  0  0  0  0  0  0  0  0
   21.4791   -7.6058  -13.2139 C   0  0  0  0  0  0  0  0  0  0  0  0
   20.7867   -7.0528  -14.4587 C   0  0  2  0  0  0  0  0  0  0  0  0
   20.8402   -7.9740  -15.5541 N   0  0  0  0  0  0  0  0  0  0  0  0
   21.3355   -5.7176  -14.8024 C   0  0  0  0  0  0  0  0  0  0  0  0
   22.3073   -5.6265  -15.5928 O   0  0  0  0  0  0  0  0  0  0  0  0
   20.8136   -4.5063  -14.2771 N   0  0  0  0  0  0  0  0  0  0  0  0
   21.4134   -3.2086  -14.6220 C   0  0  0  0  0  0  0  0  0  0  0  0
   20.6011   -2.0991  -14.0835 C   0  0  0  0  0  0  0  0  0  0  0  0
   21.0199   -0.7785  -14.1501 O   0  0  0  0  0  0  0  0  0  0  0  0
   19.4942   -2.3345  -13.5446 O   0  0  0  0  0  0  0  0  0  0  0  0
  2  3  1  0
  2  1  1  0
  3  4  1  1
  5  6  2  0
  5  3  1  0
  7  8  1  0
  9  8  1  1
  9 11  1  0
  9 10  1  0
 10  5  1  0
 11 13  1  0
 12 11  2  0
 13 14  1  0
 14 15  1  0
 15 17  2  0
 15 16  1  0
M  END
$$$$
