SSG.pdb
     RDKit          3D

 17 16  0  0  1  0  0  0  0  0999 V2000
   15.3900   -9.6886  -17.6684 O   0  0  0  0  0  0  0  0  0  0  0  0
   16.3300   -9.1533  -16.8136 C   0  0  0  0  0  0  0  0  0  0  0  0
   17.3026  -10.1858  -16.2977 C   0  0  2  0  0  0  0  0  0  0  0  0
   16.6282  -11.1461  -15.4522 N   0  0  0  0  0  0  0  0  0  0  0  0
   18.4496   -9.5491  -15.5827 C   0  0  0  0  0  0  0  0  0  0  0  0
   18.3358   -9.1137  -14.4086 O   0  0  0  0  0  0  0  0  0  0  0  0
   23.2255   -8.8861  -15.2082 O   0  0  0  0  0  0  0  0  0  0  0  0
   22.1687   -9.4601  -15.8746 C   0  0  0  0  0  0  0  0  0  0  0  0
   20.8453   -8.7744  -15.5383 C   0  0  2  0  0  0  0  0  0  0  0  0
   19.7367   -9.4007  -16.1941 N   0  0  0  0  0  0  0  0  0  0  0  0
   20.9334   -7.3200  -15.8193 C   0  0  0  0  0  0  0  0  0  0  0  0
   20.6815   -6.8904  -16.9723 O   0  0  0  0  0  0  0  0  0  0  0  0
   21.2949   -6.3611  -14.8368 N   0  0  0  0  0  0  0  0  0  0  0  0
   21.4279   -4.9370  -15.1788 C   0  0  0  0  0  0  0  0  0  0  0  0
   21.8353   -4.1525  -13.9958 C   0  0  0  0  0  0  0  0  0  0  0  0
   22.0763   -2.7883  -14.0628 O   0  0  0  0  0  0  0  0  0  0  0  0
   21.9740   -4.7165  -12.8851 O   0  0  0  0  0  0  0  0  0  0  0  0
  2  3  1  0
  2  1  1  0
  3  4  1  1
  5  6  2  0
  5  3  1  0
  7  8  1  0
  9  8  1  6
  9 11  1  0
  9 10  1  0
 10  5  1  0
 11 13  1  0
 12 11  2  0
 13 14  1  0
 14 15  1  0
 15 17  2  0
 15 16  1  0
M  END
$$$$
