SSG.pdb
     RDKit          3D

 17 16  0  0  1  0  0  0  0  0999 V2000
   15.8418  -10.0926  -16.9376 O   0  0  0  0  0  0  0  0  0  0  0  0
   17.0070   -9.6090  -16.3815 C   0  0  0  0  0  0  0  0  0  0  0  0
   18.0375  -10.6891  -16.1587 C   0  0  2  0  0  0  0  0  0  0  0  0
   17.5102  -11.7306  -15.3048 N   0  0  0  0  0  0  0  0  0  0  0  0
   19.3073  -10.1290  -15.6053 C   0  0  0  0  0  0  0  0  0  0  0  0
   19.4761   -9.9721  -14.3692 O   0  0  0  0  0  0  0  0  0  0  0  0
   23.9952   -9.1058  -16.2122 O   0  0  0  0  0  0  0  0  0  0  0  0
   22.8299   -9.6070  -16.7427 C   0  0  0  0  0  0  0  0  0  0  0  0
   21.6047   -9.1566  -15.9487 C   0  0  2  0  0  0  0  0  0  0  0  0
   20.3976   -9.7419  -16.4502 N   0  0  0  0  0  0  0  0  0  0  0  0
   21.5451   -7.6750  -15.8910 C   0  0  0  0  0  0  0  0  0  0  0  0
   21.3118   -7.0183  -16.9359 O   0  0  0  0  0  0  0  0  0  0  0  0
   21.7412   -6.9372  -14.6940 N   0  0  0  0  0  0  0  0  0  0  0  0
   21.8510   -5.4709  -14.7155 C   0  0  0  0  0  0  0  0  0  0  0  0
   22.0060   -4.9395  -13.3464 C   0  0  0  0  0  0  0  0  0  0  0  0
   22.1726   -5.7693  -12.2476 O   0  0  0  0  0  0  0  0  0  0  0  0
   21.9896   -3.7021  -13.1470 O   0  0  0  0  0  0  0  0  0  0  0  0
  2  3  1  0
  2  1  1  0
  3  4  1  1
  5  6  2  0
  5  3  1  0
  7  8  1  0
  9  8  1  6
  9 11  1  0
  9 10  1  0
 10  5  1  0
 11 13  1  0
 12 11  2  0
 13 14  1  0
 14 15  1  0
 15 17  2  0
 15 16  1  0
M  END
$$$$
