SSG.pdb
     RDKit          3D

 17 16  0  0  1  0  0  0  0  0999 V2000
   22.3109   -9.6074  -19.8704 O   0  0  0  0  0  0  0  0  0  0  0  0
   22.7205  -10.4640  -18.8708 C   0  0  0  0  0  0  0  0  0  0  0  0
   21.6964  -10.6074  -17.7713 C   0  0  2  0  0  0  0  0  0  0  0  0
   20.5081  -11.2694  -18.2626 N   0  0  0  0  0  0  0  0  0  0  0  0
   21.3634   -9.2867  -17.1571 C   0  0  0  0  0  0  0  0  0  0  0  0
   20.6237   -8.4547  -17.7415 O   0  0  0  0  0  0  0  0  0  0  0  0
   21.3390   -6.4360  -13.2147 O   0  0  0  0  0  0  0  0  0  0  0  0
   21.5768   -7.6719  -13.7682 C   0  0  0  0  0  0  0  0  0  0  0  0
   21.6208   -7.6118  -15.2943 C   0  0  2  0  0  0  0  0  0  0  0  0
   21.8671   -8.8984  -15.8734 N   0  0  0  0  0  0  0  0  0  0  0  0
   22.5934   -6.5840  -15.7410 C   0  0  0  0  0  0  0  0  0  0  0  0
   23.7948   -6.8999  -15.9263 O   0  0  0  0  0  0  0  0  0  0  0  0
   22.2371   -5.2302  -15.9772 N   0  0  0  0  0  0  0  0  0  0  0  0
   23.2191   -4.2664  -16.4963 C   0  0  0  0  0  0  0  0  0  0  0  0
   22.5931   -2.9451  -16.7045 C   0  0  0  0  0  0  0  0  0  0  0  0
   23.3308   -1.8287  -17.0691 O   0  0  0  0  0  0  0  0  0  0  0  0
   21.3569   -2.8044  -16.5524 O   0  0  0  0  0  0  0  0  0  0  0  0
  2  3  1  0
  2  1  1  0
  3  4  1  6
  5  6  2  0
  5  3  1  0
  7  8  1  0
  9  8  1  1
  9 11  1  0
  9 10  1  0
 10  5  1  0
 11 13  1  0
 12 11  2  0
 13 14  1  0
 14 15  1  0
 15 17  2  0
 15 16  1  0
M  END
$$$$
