SSG.pdb
     RDKit          3D

 17 16  0  0  1  0  0  0  0  0999 V2000
   28.6769  -21.3555  -17.3211 O   0  0  0  0  0  0  0  0  0  0  0  0
   27.5286  -21.6766  -16.6290 C   0  0  0  0  0  0  0  0  0  0  0  0
   27.0348  -20.5433  -15.7630 C   0  0  2  0  0  0  0  0  0  0  0  0
   28.1382  -19.9000  -15.0844 N   0  0  0  0  0  0  0  0  0  0  0  0
   26.0000  -21.0075  -14.7904 C   0  0  0  0  0  0  0  0  0  0  0  0
   24.9316  -21.5498  -15.1718 O   0  0  0  0  0  0  0  0  0  0  0  0
   24.7135  -21.5127  -10.0787 O   0  0  0  0  0  0  0  0  0  0  0  0
   25.6773  -21.1472  -10.9885 C   0  0  0  0  0  0  0  0  0  0  0  0
   25.1668  -21.2420  -12.4255 C   0  0  2  0  0  0  0  0  0  0  0  0
   26.1687  -20.8605  -13.3753 N   0  0  0  0  0  0  0  0  0  0  0  0
   23.9078  -20.4712  -12.5763 C   0  0  0  0  0  0  0  0  0  0  0  0
   23.9516  -19.2226  -12.7043 O   0  0  0  0  0  0  0  0  0  0  0  0
   22.6240  -21.0774  -12.5845 N   0  0  0  0  0  0  0  0  0  0  0  0
   21.4079  -20.2766  -12.7907 C   0  0  0  0  0  0  0  0  0  0  0  0
   20.2036  -21.1275  -12.7111 C   0  0  0  0  0  0  0  0  0  0  0  0
   19.1320  -20.8141  -11.8882 O   0  0  0  0  0  0  0  0  0  0  0  0
   20.1250  -22.1715  -13.4005 O   0  0  0  0  0  0  0  0  0  0  0  0
  2  3  1  0
  2  1  1  0
  3  4  1  1
  5  6  2  0
  5  3  1  0
  7  8  1  0
  9  8  1  1
  9 11  1  0
  9 10  1  0
 10  5  1  0
 11 13  1  0
 12 11  2  0
 13 14  1  0
 14 15  1  0
 15 17  2  0
 15 16  1  0
M  END
$$$$
