SSG.pdb
     RDKit          3D

 17 16  0  0  1  0  0  0  0  0999 V2000
   20.5606  -12.1404  -17.3759 O   0  0  0  0  0  0  0  0  0  0  0  0
   20.4285  -10.8653  -16.8685 C   0  0  0  0  0  0  0  0  0  0  0  0
   19.0409  -10.5888  -16.3429 C   0  0  2  0  0  0  0  0  0  0  0  0
   18.0950  -10.4759  -17.4312 N   0  0  0  0  0  0  0  0  0  0  0  0
   19.0153   -9.3712  -15.4774 C   0  0  0  0  0  0  0  0  0  0  0  0
   19.0118   -8.2131  -15.9672 O   0  0  0  0  0  0  0  0  0  0  0  0
   18.4379   -7.5056  -11.0014 O   0  0  0  0  0  0  0  0  0  0  0  0
   18.5304   -8.6327  -11.7834 C   0  0  0  0  0  0  0  0  0  0  0  0
   19.0137   -8.3059  -13.1956 C   0  0  2  0  0  0  0  0  0  0  0  0
   18.9935   -9.4570  -14.0475 N   0  0  0  0  0  0  0  0  0  0  0  0
   20.3440   -7.6504  -13.1454 C   0  0  0  0  0  0  0  0  0  0  0  0
   21.3830   -8.3515  -13.0665 O   0  0  0  0  0  0  0  0  0  0  0  0
   20.5160   -6.2416  -13.1821 N   0  0  0  0  0  0  0  0  0  0  0  0
   21.8582   -5.6407  -13.1903 C   0  0  0  0  0  0  0  0  0  0  0  0
   22.1206   -4.9682  -14.4785 C   0  0  0  0  0  0  0  0  0  0  0  0
   21.9648   -3.5996  -14.6413 O   0  0  0  0  0  0  0  0  0  0  0  0
   22.4971   -5.6354  -15.4706 O   0  0  0  0  0  0  0  0  0  0  0  0
  2  3  1  0
  2  1  1  0
  3  4  1  6
  5  6  2  0
  5  3  1  0
  7  8  1  0
  9  8  1  1
  9 11  1  0
  9 10  1  0
 10  5  1  0
 11 13  1  0
 12 11  2  0
 13 14  1  0
 14 15  1  0
 15 17  2  0
 15 16  1  0
M  END
$$$$
