GNE.pdb
     RDKit          3D

 22 21  0  0  1  0  0  0  0  0999 V2000
   24.6757  -26.0158  -15.6635 N   0  0  0  0  0  0  0  0  0  0  0  0
   25.2027  -24.6799  -15.4920 C   0  0  0  0  0  0  0  0  0  0  0  0
   24.3530  -23.8301  -14.6547 C   0  0  0  0  0  0  0  0  0  0  0  0
   23.2086  -24.2447  -14.3380 O   0  0  0  0  0  0  0  0  0  0  0  0
   25.7128  -22.6916  -11.3001 N   0  0  0  0  0  0  0  0  0  0  0  0
   25.5012  -21.3275  -11.5495 C   0  0  0  0  0  0  0  0  0  0  0  0
   26.1776  -20.4909  -10.8611 O   0  0  0  0  0  0  0  0  0  0  0  0
   24.5784  -20.7455  -12.5247 C   0  0  0  0  0  0  0  0  0  0  0  0
   23.8284  -21.7489  -13.3489 C   0  0  2  0  0  0  0  0  0  0  0  0
   24.7242  -22.5490  -14.1612 N   0  0  0  0  0  0  0  0  0  0  0  0
   22.7666  -21.1302  -14.1792 C   0  0  0  0  0  0  0  0  0  0  0  0
   23.0246  -20.4440  -15.2205 O   0  0  0  0  0  0  0  0  0  0  0  0
   21.4173  -21.2715  -13.8564 N   0  0  0  0  0  0  0  0  0  0  0  0
   20.2983  -20.7614  -14.6588 C   0  0  1  0  0  0  0  0  0  0  0  0
   19.0635  -21.5304  -14.4331 C   0  0  0  0  0  0  0  0  0  0  0  0
   17.9217  -21.0174  -15.2549 C   0  0  0  0  0  0  0  0  0  0  0  0
   16.6542  -21.7239  -15.1132 C   0  0  0  0  0  0  0  0  0  0  0  0
   16.5040  -22.7053  -14.3628 O   0  0  0  0  0  0  0  0  0  0  0  0
   20.1197  -19.3505  -14.2576 C   0  0  0  0  0  0  0  0  0  0  0  0
   19.7612  -18.3440  -15.1460 O   0  0  0  0  0  0  0  0  0  0  0  0
   15.5619  -21.2880  -15.8450 O   0  0  0  0  0  0  0  0  0  0  0  0
   20.3128  -19.0612  -13.0263 O   0  0  0  0  0  0  0  0  0  0  0  0
  2  3  1  0
  2  1  1  0
  3  4  2  0
  5  6  1  0
  6  8  1  0
  7  6  2  0
  9  8  1  6
 10  3  1  0
 10  9  1  0
 11 13  1  0
 11  9  1  0
 12 11  2  0
 14 13  1  0
 14 15  1  1
 15 16  1  0
 16 17  1  0
 17 21  1  0
 18 17  2  0
 19 20  1  0
 19 14  1  0
 22 19  2  0
M  END
$$$$
