GNE.pdb
     RDKit          3D

 22 21  0  0  1  0  0  0  0  0999 V2000
   15.0786  -11.7313  -14.5649 N   0  0  0  0  0  0  0  0  0  0  0  0
   15.7964  -12.5517  -15.5154 C   0  0  0  0  0  0  0  0  0  0  0  0
   17.2140  -12.1999  -15.6229 C   0  0  0  0  0  0  0  0  0  0  0  0
   17.9732  -12.4456  -14.6507 O   0  0  0  0  0  0  0  0  0  0  0  0
   21.3350  -13.9669  -17.2733 N   0  0  0  0  0  0  0  0  0  0  0  0
   20.1553  -13.3216  -17.6729 C   0  0  0  0  0  0  0  0  0  0  0  0
   19.1293  -14.0508  -17.8896 O   0  0  0  0  0  0  0  0  0  0  0  0
   19.9644  -11.8847  -17.8729 C   0  0  0  0  0  0  0  0  0  0  0  0
   19.2092  -11.1976  -16.7746 C   0  0  2  0  0  0  0  0  0  0  0  0
   17.8136  -11.5907  -16.7596 N   0  0  0  0  0  0  0  0  0  0  0  0
   19.3459   -9.7215  -16.8211 C   0  0  0  0  0  0  0  0  0  0  0  0
   18.6670   -8.9960  -17.6176 O   0  0  0  0  0  0  0  0  0  0  0  0
   20.2352   -9.0477  -15.9846 N   0  0  0  0  0  0  0  0  0  0  0  0
   20.3926   -7.5893  -15.9174 C   0  0  1  0  0  0  0  0  0  0  0  0
   21.1703   -7.1731  -14.7389 C   0  0  0  0  0  0  0  0  0  0  0  0
   21.3324   -5.6863  -14.6667 C   0  0  0  0  0  0  0  0  0  0  0  0
   22.1293   -5.1758  -13.5577 C   0  0  0  0  0  0  0  0  0  0  0  0
   22.4751   -5.8780  -12.5902 O   0  0  0  0  0  0  0  0  0  0  0  0
   21.0788   -7.1962  -17.1657 C   0  0  0  0  0  0  0  0  0  0  0  0
   20.7289   -6.0750  -17.9084 O   0  0  0  0  0  0  0  0  0  0  0  0
   22.5234   -3.8480  -13.5749 O   0  0  0  0  0  0  0  0  0  0  0  0
   22.0387   -7.9406  -17.5676 O   0  0  0  0  0  0  0  0  0  0  0  0
  2  3  1  0
  2  1  1  0
  3  4  2  0
  5  6  1  0
  6  8  1  0
  7  6  2  0
  9  8  1  6
 10  3  1  0
 10  9  1  0
 11 13  1  0
 11  9  1  0
 12 11  2  0
 14 13  1  0
 14 15  1  1
 15 16  1  0
 16 17  1  0
 17 21  1  0
 18 17  2  0
 19 20  1  0
 19 14  1  0
 22 19  2  0
M  END
$$$$
