GNE.pdb
     RDKit          3D

 22 21  0  0  1  0  0  0  0  0999 V2000
   18.3153  -12.5341  -15.1201 N   0  0  0  0  0  0  0  0  0  0  0  0
   18.8284  -12.0082  -16.3658 C   0  0  0  0  0  0  0  0  0  0  0  0
   18.5233  -10.5889  -16.5595 C   0  0  0  0  0  0  0  0  0  0  0  0
   19.1312   -9.9576  -17.4617 O   0  0  0  0  0  0  0  0  0  0  0  0
   14.3498   -8.0131  -18.0024 N   0  0  0  0  0  0  0  0  0  0  0  0
   14.9284   -8.7224  -16.9396 C   0  0  0  0  0  0  0  0  0  0  0  0
   14.6783   -9.9724  -16.8602 O   0  0  0  0  0  0  0  0  0  0  0  0
   15.7999   -8.1836  -15.8949 C   0  0  0  0  0  0  0  0  0  0  0  0
   17.2588   -8.4690  -16.0920 C   0  0  2  0  0  0  0  0  0  0  0  0
   17.5772   -9.8521  -15.7951 N   0  0  0  0  0  0  0  0  0  0  0  0
   18.1321   -7.5457  -15.3273 C   0  0  0  0  0  0  0  0  0  0  0  0
   18.2532   -7.6094  -14.0612 O   0  0  0  0  0  0  0  0  0  0  0  0
   18.8725   -6.5508  -15.9651 N   0  0  0  0  0  0  0  0  0  0  0  0
   19.8075   -5.6350  -15.2994 C   0  0  1  0  0  0  0  0  0  0  0  0
   21.2032   -5.8939  -15.6891 C   0  0  0  0  0  0  0  0  0  0  0  0
   22.1564   -4.9395  -15.0389 C   0  0  0  0  0  0  0  0  0  0  0  0
   22.4063   -5.1433  -13.6171 C   0  0  0  0  0  0  0  0  0  0  0  0
   22.5035   -4.2064  -12.8036 O   0  0  0  0  0  0  0  0  0  0  0  0
   19.3948   -4.2728  -15.6965 C   0  0  0  0  0  0  0  0  0  0  0  0
   19.3135   -3.2098  -14.8051 O   0  0  0  0  0  0  0  0  0  0  0  0
   22.5432   -6.4372  -13.1423 O   0  0  0  0  0  0  0  0  0  0  0  0
   19.0986   -4.0842  -16.9268 O   0  0  0  0  0  0  0  0  0  0  0  0
  2  3  1  0
  2  1  1  0
  3  4  2  0
  5  6  1  0
  6  8  1  0
  7  6  2  0
  9  8  1  1
 10  3  1  0
 10  9  1  0
 11 13  1  0
 11  9  1  0
 12 11  2  0
 14 13  1  0
 14 15  1  6
 15 16  1  0
 16 17  1  0
 17 21  1  0
 18 17  2  0
 19 20  1  0
 19 14  1  0
 22 19  2  0
M  END
$$$$
