GNE.pdb
     RDKit          3D

 22 21  0  0  1  0  0  0  0  0999 V2000
   17.9241  -14.3530  -16.8001 N   0  0  0  0  0  0  0  0  0  0  0  0
   17.7251  -13.6575  -15.5478 C   0  0  0  0  0  0  0  0  0  0  0  0
   17.4337  -12.2328  -15.7217 C   0  0  0  0  0  0  0  0  0  0  0  0
   17.5815  -11.7202  -16.8607 O   0  0  0  0  0  0  0  0  0  0  0  0
   14.1240  -10.5653  -16.0574 N   0  0  0  0  0  0  0  0  0  0  0  0
   14.2708   -9.8610  -14.8533 C   0  0  0  0  0  0  0  0  0  0  0  0
   13.2056   -9.5162  -14.2387 O   0  0  0  0  0  0  0  0  0  0  0  0
   15.5265   -9.4705  -14.2115 C   0  0  0  0  0  0  0  0  0  0  0  0
   16.7612   -9.9509  -14.9140 C   0  0  2  0  0  0  0  0  0  0  0  0
   16.9887  -11.3648  -14.6867 N   0  0  0  0  0  0  0  0  0  0  0  0
   17.9642   -9.1557  -14.5674 C   0  0  0  0  0  0  0  0  0  0  0  0
   18.5471   -9.2525  -13.4393 O   0  0  0  0  0  0  0  0  0  0  0  0
   18.5229   -8.2523  -15.4709 N   0  0  0  0  0  0  0  0  0  0  0  0
   19.7696   -7.5060  -15.2587 C   0  0  1  0  0  0  0  0  0  0  0  0
   20.8006   -7.8641  -16.2464 C   0  0  0  0  0  0  0  0  0  0  0  0
   22.0846   -7.1303  -16.0123 C   0  0  0  0  0  0  0  0  0  0  0  0
   23.1568   -7.3818  -16.9678 C   0  0  0  0  0  0  0  0  0  0  0  0
   23.9207   -6.4906  -17.3814 O   0  0  0  0  0  0  0  0  0  0  0  0
   19.4115   -6.0764  -15.3673 C   0  0  0  0  0  0  0  0  0  0  0  0
   20.1228   -5.0617  -14.7383 O   0  0  0  0  0  0  0  0  0  0  0  0
   23.3394   -8.6704  -17.4417 O   0  0  0  0  0  0  0  0  0  0  0  0
   18.3900   -5.7793  -16.0781 O   0  0  0  0  0  0  0  0  0  0  0  0
  2  3  1  0
  2  1  1  0
  3  4  2  0
  5  6  1  0
  6  8  1  0
  7  6  2  0
  9  8  1  1
 10  3  1  0
 10  9  1  0
 11 13  1  0
 11  9  1  0
 12 11  2  0
 14 13  1  0
 14 15  1  6
 15 16  1  0
 16 17  1  0
 17 21  1  0
 18 17  2  0
 19 20  1  0
 19 14  1  0
 22 19  2  0
M  END
$$$$
