GNE.pdb
     RDKit          3D

 22 21  0  0  1  0  0  0  0  0999 V2000
   17.8908  -13.2138  -18.0221 N   0  0  0  0  0  0  0  0  0  0  0  0
   18.7739  -13.5060  -16.9147 C   0  0  0  0  0  0  0  0  0  0  0  0
   19.3496  -12.3046  -16.3063 C   0  0  0  0  0  0  0  0  0  0  0  0
   18.9415  -11.9468  -15.1717 O   0  0  0  0  0  0  0  0  0  0  0  0
   23.7131   -7.9620  -16.2427 N   0  0  0  0  0  0  0  0  0  0  0  0
   22.8297   -8.9226  -15.7285 C   0  0  0  0  0  0  0  0  0  0  0  0
   22.4491   -8.7844  -14.5171 O   0  0  0  0  0  0  0  0  0  0  0  0
   22.2862  -10.0834  -16.4343 C   0  0  0  0  0  0  0  0  0  0  0  0
   20.8024  -10.2549  -16.3018 C   0  0  2  0  0  0  0  0  0  0  0  0
   20.3521  -11.4936  -16.9063 N   0  0  0  0  0  0  0  0  0  0  0  0
   20.0418   -9.0969  -16.8311 C   0  0  0  0  0  0  0  0  0  0  0  0
   19.8918   -8.8890  -18.0785 O   0  0  0  0  0  0  0  0  0  0  0  0
   19.4463   -8.1679  -15.9784 N   0  0  0  0  0  0  0  0  0  0  0  0
   18.7770   -6.9336  -16.4081 C   0  0  1  0  0  0  0  0  0  0  0  0
   17.5129   -6.7130  -15.6869 C   0  0  0  0  0  0  0  0  0  0  0  0
   16.4099   -7.5841  -16.2032 C   0  0  0  0  0  0  0  0  0  0  0  0
   15.1037   -7.4120  -15.5786 C   0  0  0  0  0  0  0  0  0  0  0  0
   14.9109   -7.5544  -14.3574 O   0  0  0  0  0  0  0  0  0  0  0  0
   19.7326   -5.8385  -16.1411 C   0  0  0  0  0  0  0  0  0  0  0  0
   19.5545   -4.5405  -16.6042 O   0  0  0  0  0  0  0  0  0  0  0  0
   14.0223   -7.0743  -16.3756 O   0  0  0  0  0  0  0  0  0  0  0  0
   20.7714   -6.1211  -15.4497 O   0  0  0  0  0  0  0  0  0  0  0  0
  2  3  1  0
  2  1  1  0
  3  4  2  0
  5  6  1  0
  6  8  1  0
  7  6  2  0
  9  8  1  6
 10  3  1  0
 10  9  1  0
 11 13  1  0
 11  9  1  0
 12 11  2  0
 14 13  1  0
 14 15  1  1
 15 16  1  0
 16 17  1  0
 17 21  1  0
 18 17  2  0
 19 20  1  0
 19 14  1  0
 22 19  2  0
M  END
$$$$
