GNE.pdb
     RDKit          3D

 22 21  0  0  1  0  0  0  0  0999 V2000
   27.1834  -11.9999  -19.8558 N   0  0  0  0  0  0  0  0  0  0  0  0
   25.9413  -12.2877  -19.1730 C   0  0  0  0  0  0  0  0  0  0  0  0
   24.9991  -11.1667  -19.1972 C   0  0  0  0  0  0  0  0  0  0  0  0
   25.4547   -9.9948  -19.2268 O   0  0  0  0  0  0  0  0  0  0  0  0
   20.8613   -7.9422  -19.8701 N   0  0  0  0  0  0  0  0  0  0  0  0
   20.6173   -9.2611  -20.2808 C   0  0  0  0  0  0  0  0  0  0  0  0
   19.5250   -9.4924  -20.9010 O   0  0  0  0  0  0  0  0  0  0  0  0
   21.4866  -10.4201  -20.0757 C   0  0  0  0  0  0  0  0  0  0  0  0
   22.7036  -10.1468  -19.2434 C   0  0  2  0  0  0  0  0  0  0  0  0
   23.5831  -11.2984  -19.1894 N   0  0  0  0  0  0  0  0  0  0  0  0
   22.3701   -9.6674  -17.8801 C   0  0  0  0  0  0  0  0  0  0  0  0
   22.1195  -10.4623  -16.9172 O   0  0  0  0  0  0  0  0  0  0  0  0
   22.3141   -8.3062  -17.5822 N   0  0  0  0  0  0  0  0  0  0  0  0
   22.0717   -7.7421  -16.2483 C   0  0  1  0  0  0  0  0  0  0  0  0
   22.5823   -6.3664  -16.1313 C   0  0  0  0  0  0  0  0  0  0  0  0
   22.3586   -5.7964  -14.7649 C   0  0  0  0  0  0  0  0  0  0  0  0
   22.8326   -4.4350  -14.5465 C   0  0  0  0  0  0  0  0  0  0  0  0
   23.5255   -3.8162  -15.3747 O   0  0  0  0  0  0  0  0  0  0  0  0
   20.6076   -7.7779  -16.0515 C   0  0  0  0  0  0  0  0  0  0  0  0
   20.0075   -8.1486  -14.8542 O   0  0  0  0  0  0  0  0  0  0  0  0
   22.5002   -3.7942  -13.3644 O   0  0  0  0  0  0  0  0  0  0  0  0
   19.8731   -7.4507  -17.0466 O   0  0  0  0  0  0  0  0  0  0  0  0
  2  3  1  0
  2  1  1  0
  3  4  2  0
  5  6  1  0
  6  8  1  0
  7  6  2  0
  9  8  1  1
 10  3  1  0
 10  9  1  0
 11 13  1  0
 11  9  1  0
 12 11  2  0
 14 13  1  0
 14 15  1  6
 15 16  1  0
 16 17  1  0
 17 21  1  0
 18 17  2  0
 19 20  1  0
 19 14  1  0
 22 19  2  0
M  END
$$$$
