GNE.pdb
     RDKit          3D

 22 21  0  0  1  0  0  0  0  0999 V2000
   18.6957  -11.9415  -15.9296 N   0  0  0  0  0  0  0  0  0  0  0  0
   17.6221  -11.4689  -15.0836 C   0  0  0  0  0  0  0  0  0  0  0  0
   17.2748  -10.0667  -15.3250 C   0  0  0  0  0  0  0  0  0  0  0  0
   17.8545   -9.4523  -16.2570 O   0  0  0  0  0  0  0  0  0  0  0  0
   13.0103   -7.8782  -16.6092 N   0  0  0  0  0  0  0  0  0  0  0  0
   13.6341   -8.3434  -15.4421 C   0  0  0  0  0  0  0  0  0  0  0  0
   13.3551   -9.5289  -15.0574 O   0  0  0  0  0  0  0  0  0  0  0  0
   14.5835   -7.6123  -14.6022 C   0  0  0  0  0  0  0  0  0  0  0  0
   16.0241   -7.9377  -14.8616 C   0  0  2  0  0  0  0  0  0  0  0  0
   16.3169   -9.3289  -14.5764 N   0  0  0  0  0  0  0  0  0  0  0  0
   16.9546   -7.0385  -14.1369 C   0  0  0  0  0  0  0  0  0  0  0  0
   17.1246   -7.1015  -12.8764 O   0  0  0  0  0  0  0  0  0  0  0  0
   17.6981   -6.0685  -14.8084 N   0  0  0  0  0  0  0  0  0  0  0  0
   18.6872   -5.1799  -14.1852 C   0  0  1  0  0  0  0  0  0  0  0  0
   20.0646   -5.6530  -14.3995 C   0  0  0  0  0  0  0  0  0  0  0  0
   21.0798   -4.7038  -13.8424 C   0  0  0  0  0  0  0  0  0  0  0  0
   22.4786   -5.0451  -14.0716 C   0  0  0  0  0  0  0  0  0  0  0  0
   22.9109   -6.2109  -14.0167 O   0  0  0  0  0  0  0  0  0  0  0  0
   18.4858   -3.8518  -14.8008 C   0  0  0  0  0  0  0  0  0  0  0  0
   18.8930   -2.6646  -14.2043 O   0  0  0  0  0  0  0  0  0  0  0  0
   23.3739   -4.0297  -14.3646 O   0  0  0  0  0  0  0  0  0  0  0  0
   17.9023   -3.8143  -15.9388 O   0  0  0  0  0  0  0  0  0  0  0  0
  2  3  1  0
  2  1  1  0
  3  4  2  0
  5  6  1  0
  6  8  1  0
  7  6  2  0
  9  8  1  1
 10  3  1  0
 10  9  1  0
 11 13  1  0
 11  9  1  0
 12 11  2  0
 14 13  1  0
 14 15  1  6
 15 16  1  0
 16 17  1  0
 17 21  1  0
 18 17  2  0
 19 20  1  0
 19 14  1  0
 22 19  2  0
M  END
$$$$
