GNE.pdb
     RDKit          3D

 22 21  0  0  1  0  0  0  0  0999 V2000
   15.1663  -13.4269  -12.8053 N   0  0  0  0  0  0  0  0  0  0  0  0
   16.2932  -12.5529  -12.5641 C   0  0  0  0  0  0  0  0  0  0  0  0
   15.9105  -11.2758  -11.9579 C   0  0  0  0  0  0  0  0  0  0  0  0
   15.8189  -10.2605  -12.6945 O   0  0  0  0  0  0  0  0  0  0  0  0
   12.3620  -10.3656  -10.8909 N   0  0  0  0  0  0  0  0  0  0  0  0
   12.7413  -10.3209   -9.5411 C   0  0  0  0  0  0  0  0  0  0  0  0
   11.8375  -10.5472   -8.6675 O   0  0  0  0  0  0  0  0  0  0  0  0
   14.0765  -10.0400   -9.0126 C   0  0  0  0  0  0  0  0  0  0  0  0
   15.1291   -9.8278  -10.0593 C   0  0  2  0  0  0  0  0  0  0  0  0
   15.6289  -11.0868  -10.5768 N   0  0  0  0  0  0  0  0  0  0  0  0
   16.2412   -8.9670   -9.5881 C   0  0  0  0  0  0  0  0  0  0  0  0
   17.0105   -9.3054   -8.6313 O   0  0  0  0  0  0  0  0  0  0  0  0
   16.5021   -7.7302  -10.1769 N   0  0  0  0  0  0  0  0  0  0  0  0
   17.5485   -6.7936   -9.7478 C   0  0  1  0  0  0  0  0  0  0  0  0
   18.8143   -7.0159  -10.4657 C   0  0  0  0  0  0  0  0  0  0  0  0
   18.6793   -6.7685  -11.9363 C   0  0  0  0  0  0  0  0  0  0  0  0
   19.9045   -6.8558  -12.7219 C   0  0  0  0  0  0  0  0  0  0  0  0
   21.0312   -6.9881  -12.2102 O   0  0  0  0  0  0  0  0  0  0  0  0
   17.0202   -5.4407  -10.0202 C   0  0  0  0  0  0  0  0  0  0  0  0
   17.5394   -4.2882   -9.4429 O   0  0  0  0  0  0  0  0  0  0  0  0
   19.8179   -6.7890  -14.1026 O   0  0  0  0  0  0  0  0  0  0  0  0
   16.0329   -5.3476  -10.8285 O   0  0  0  0  0  0  0  0  0  0  0  0
  2  3  1  0
  2  1  1  0
  3  4  2  0
  5  6  1  0
  6  8  1  0
  7  6  2  0
  9  8  1  1
 10  3  1  0
 10  9  1  0
 11 13  1  0
 11  9  1  0
 12 11  2  0
 14 13  1  0
 14 15  1  6
 15 16  1  0
 16 17  1  0
 17 21  1  0
 18 17  2  0
 19 20  1  0
 19 14  1  0
 22 19  2  0
M  END
$$$$
