GNE.pdb
     RDKit          3D

 22 21  0  0  1  0  0  0  0  0999 V2000
   21.1774  -13.8752  -18.7933 N   0  0  0  0  0  0  0  0  0  0  0  0
   21.4024  -14.1145  -17.3848 C   0  0  0  0  0  0  0  0  0  0  0  0
   22.2092  -13.0721  -16.7465 C   0  0  0  0  0  0  0  0  0  0  0  0
   21.7726  -12.5246  -15.7018 O   0  0  0  0  0  0  0  0  0  0  0  0
   25.9461   -9.4645  -15.4549 N   0  0  0  0  0  0  0  0  0  0  0  0
   26.4333  -10.5205  -16.2392 C   0  0  0  0  0  0  0  0  0  0  0  0
   27.6981  -10.6019  -16.3973 O   0  0  0  0  0  0  0  0  0  0  0  0
   25.6438  -11.5557  -16.9071 C   0  0  0  0  0  0  0  0  0  0  0  0
   24.1770  -11.5172  -16.5982 C   0  0  2  0  0  0  0  0  0  0  0  0
   23.4710  -12.6196  -17.2217 N   0  0  0  0  0  0  0  0  0  0  0  0
   23.5513  -10.2187  -16.9475 C   0  0  0  0  0  0  0  0  0  0  0  0
   23.5052   -9.7806  -18.1424 O   0  0  0  0  0  0  0  0  0  0  0  0
   22.9756   -9.4041  -15.9730 N   0  0  0  0  0  0  0  0  0  0  0  0
   22.2521   -8.1537  -16.2358 C   0  0  1  0  0  0  0  0  0  0  0  0
   20.8095   -8.3808  -16.4211 C   0  0  0  0  0  0  0  0  0  0  0  0
   20.0763   -7.1153  -16.7422 C   0  0  0  0  0  0  0  0  0  0  0  0
   18.6399   -7.2378  -16.9605 C   0  0  0  0  0  0  0  0  0  0  0  0
   17.9783   -8.2242  -16.5890 O   0  0  0  0  0  0  0  0  0  0  0  0
   22.5017   -7.2857  -15.0663 C   0  0  0  0  0  0  0  0  0  0  0  0
   23.0358   -7.7510  -13.8708 O   0  0  0  0  0  0  0  0  0  0  0  0
   17.9741   -6.2121  -17.6110 O   0  0  0  0  0  0  0  0  0  0  0  0
   22.2011   -6.0472  -15.1793 O   0  0  0  0  0  0  0  0  0  0  0  0
  2  3  1  0
  2  1  1  0
  3  4  2  0
  5  6  1  0
  6  8  1  0
  7  6  2  0
  9  8  1  6
 10  3  1  0
 10  9  1  0
 11 13  1  0
 11  9  1  0
 12 11  2  0
 14 13  1  0
 14 15  1  1
 15 16  1  0
 16 17  1  0
 17 21  1  0
 18 17  2  0
 19 20  1  0
 19 14  1  0
 22 19  2  0
M  END
$$$$
