GNE.pdb
     RDKit          3D

 22 21  0  0  1  0  0  0  0  0999 V2000
   13.3282  -10.0639  -13.1604 N   0  0  0  0  0  0  0  0  0  0  0  0
   13.8821   -9.7762  -14.4650 C   0  0  0  0  0  0  0  0  0  0  0  0
   15.3035  -10.1122  -14.5727 C   0  0  0  0  0  0  0  0  0  0  0  0
   15.6472  -11.3193  -14.4904 O   0  0  0  0  0  0  0  0  0  0  0  0
   19.8528  -11.3771  -17.4269 N   0  0  0  0  0  0  0  0  0  0  0  0
   19.1940  -11.1561  -16.2083 C   0  0  0  0  0  0  0  0  0  0  0  0
   19.8270  -11.4412  -15.1362 O   0  0  0  0  0  0  0  0  0  0  0  0
   17.8422  -10.6274  -16.0238 C   0  0  0  0  0  0  0  0  0  0  0  0
   17.7251   -9.5710  -14.9660 C   0  0  2  0  0  0  0  0  0  0  0  0
   16.3473   -9.1658  -14.7663 N   0  0  0  0  0  0  0  0  0  0  0  0
   18.5924   -8.3971  -15.2295 C   0  0  0  0  0  0  0  0  0  0  0  0
   18.3332   -7.5454  -16.1400 O   0  0  0  0  0  0  0  0  0  0  0  0
   19.7479   -8.1657  -14.4840 N   0  0  0  0  0  0  0  0  0  0  0  0
   20.6476   -7.0176  -14.6536 C   0  0  1  0  0  0  0  0  0  0  0  0
   21.5275   -6.8308  -13.4884 C   0  0  0  0  0  0  0  0  0  0  0  0
   22.4006   -5.6225  -13.6293 C   0  0  0  0  0  0  0  0  0  0  0  0
   21.7509   -4.3303  -13.4456 C   0  0  0  0  0  0  0  0  0  0  0  0
   20.7859   -4.1583  -12.6787 O   0  0  0  0  0  0  0  0  0  0  0  0
   21.4385   -7.2968  -15.8703 C   0  0  0  0  0  0  0  0  0  0  0  0
   21.7563   -8.5810  -16.2958 O   0  0  0  0  0  0  0  0  0  0  0  0
   22.2243   -3.2387  -14.1546 O   0  0  0  0  0  0  0  0  0  0  0  0
   21.8444   -6.2920  -16.5503 O   0  0  0  0  0  0  0  0  0  0  0  0
  2  3  1  0
  2  1  1  0
  3  4  2  0
  5  6  1  0
  6  8  1  0
  7  6  2  0
  9  8  1  6
 10  3  1  0
 10  9  1  0
 11 13  1  0
 11  9  1  0
 12 11  2  0
 14 13  1  0
 14 15  1  1
 15 16  1  0
 16 17  1  0
 17 21  1  0
 18 17  2  0
 19 20  1  0
 19 14  1  0
 22 19  2  0
M  END
$$$$
