GNE.pdb
     RDKit          3D

 22 21  0  0  1  0  0  0  0  0999 V2000
   15.4398  -12.6696  -12.7170 N   0  0  0  0  0  0  0  0  0  0  0  0
   16.2953  -12.0101  -11.7553 C   0  0  0  0  0  0  0  0  0  0  0  0
   15.9648  -10.5958  -11.5669 C   0  0  0  0  0  0  0  0  0  0  0  0
   15.4726   -9.9564  -12.5318 O   0  0  0  0  0  0  0  0  0  0  0  0
   12.7455   -7.6821   -9.0320 N   0  0  0  0  0  0  0  0  0  0  0  0
   13.8658   -8.4863   -8.7755 C   0  0  0  0  0  0  0  0  0  0  0  0
   13.6545   -9.6779   -8.3670 O   0  0  0  0  0  0  0  0  0  0  0  0
   15.2714   -8.1084   -8.9255 C   0  0  0  0  0  0  0  0  0  0  0  0
   15.8714   -8.4551  -10.2553 C   0  0  2  0  0  0  0  0  0  0  0  0
   16.1592   -9.8725  -10.3580 N   0  0  0  0  0  0  0  0  0  0  0  0
   17.0721   -7.6439  -10.5717 C   0  0  0  0  0  0  0  0  0  0  0  0
   18.1059   -7.6327   -9.8281 O   0  0  0  0  0  0  0  0  0  0  0  0
   17.1285   -6.8442  -11.7127 N   0  0  0  0  0  0  0  0  0  0  0  0
   18.2735   -6.0138  -12.1073 C   0  0  1  0  0  0  0  0  0  0  0  0
   19.2502   -6.7682  -12.9096 C   0  0  0  0  0  0  0  0  0  0  0  0
   20.3586   -5.8969  -13.4139 C   0  0  0  0  0  0  0  0  0  0  0  0
   21.6432   -6.0276  -12.7367 C   0  0  0  0  0  0  0  0  0  0  0  0
   22.0521   -7.1010  -12.2577 O   0  0  0  0  0  0  0  0  0  0  0  0
   17.7119   -4.8892  -12.8840 C   0  0  0  0  0  0  0  0  0  0  0  0
   16.5667   -4.9969  -13.6638 O   0  0  0  0  0  0  0  0  0  0  0  0
   22.4512   -4.9090  -12.6170 O   0  0  0  0  0  0  0  0  0  0  0  0
   18.3276   -3.7692  -12.8248 O   0  0  0  0  0  0  0  0  0  0  0  0
  2  3  1  0
  2  1  1  0
  3  4  2  0
  5  6  1  0
  6  8  1  0
  7  6  2  0
  9  8  1  1
 10  3  1  0
 10  9  1  0
 11 13  1  0
 11  9  1  0
 12 11  2  0
 14 13  1  0
 14 15  1  6
 15 16  1  0
 16 17  1  0
 17 21  1  0
 18 17  2  0
 19 20  1  0
 19 14  1  0
 22 19  2  0
M  END
$$$$
