GNE.pdb
     RDKit          3D

 22 21  0  0  1  0  0  0  0  0999 V2000
   21.3924  -28.6769  -12.3156 N   0  0  0  0  0  0  0  0  0  0  0  0
   20.0237  -28.2357  -12.1621 C   0  0  0  0  0  0  0  0  0  0  0  0
   19.8971  -27.0308  -11.3392 C   0  0  0  0  0  0  0  0  0  0  0  0
   20.5789  -26.9439  -10.2858 O   0  0  0  0  0  0  0  0  0  0  0  0
   20.9433  -23.7942  -12.7014 N   0  0  0  0  0  0  0  0  0  0  0  0
   19.7415  -23.1135  -12.4571 C   0  0  0  0  0  0  0  0  0  0  0  0
   19.5454  -22.0197  -13.0868 O   0  0  0  0  0  0  0  0  0  0  0  0
   18.6700  -23.5213  -11.5478 C   0  0  0  0  0  0  0  0  0  0  0  0
   18.9539  -24.7725  -10.7716 C   0  0  2  0  0  0  0  0  0  0  0  0
   19.0489  -25.9297  -11.6402 N   0  0  0  0  0  0  0  0  0  0  0  0
   17.9764  -25.0047   -9.6806 C   0  0  0  0  0  0  0  0  0  0  0  0
   16.8087  -25.4655   -9.8945 O   0  0  0  0  0  0  0  0  0  0  0  0
   18.2921  -24.7267   -8.3510 N   0  0  0  0  0  0  0  0  0  0  0  0
   17.3879  -24.9174   -7.2098 C   0  0  1  0  0  0  0  0  0  0  0  0
   18.0835  -24.7531   -5.9229 C   0  0  0  0  0  0  0  0  0  0  0  0
   17.4412  -25.5492   -4.8293 C   0  0  0  0  0  0  0  0  0  0  0  0
   18.3350  -26.3523   -4.0035 C   0  0  0  0  0  0  0  0  0  0  0  0
   19.5751  -26.2660   -4.0629 O   0  0  0  0  0  0  0  0  0  0  0  0
   16.3206  -23.9070   -7.3632 C   0  0  0  0  0  0  0  0  0  0  0  0
   16.4686  -22.7491   -8.1171 O   0  0  0  0  0  0  0  0  0  0  0  0
   17.7852  -27.2556   -3.1090 O   0  0  0  0  0  0  0  0  0  0  0  0
   15.2132  -24.1265   -6.7611 O   0  0  0  0  0  0  0  0  0  0  0  0
  2  3  1  0
  2  1  1  0
  3  4  2  0
  5  6  1  0
  6  8  1  0
  7  6  2  0
  9  8  1  6
 10  3  1  0
 10  9  1  0
 11 13  1  0
 11  9  1  0
 12 11  2  0
 14 13  1  0
 14 15  1  1
 15 16  1  0
 16 17  1  0
 17 21  1  0
 18 17  2  0
 19 20  1  0
 19 14  1  0
 22 19  2  0
M  END
$$$$
