GNE.pdb
     RDKit          3D

 22 21  0  0  1  0  0  0  0  0999 V2000
   16.8468  -13.7307  -14.8596 N   0  0  0  0  0  0  0  0  0  0  0  0
   15.8177  -12.8218  -14.4052 C   0  0  0  0  0  0  0  0  0  0  0  0
   16.0896  -11.4255  -14.7536 C   0  0  0  0  0  0  0  0  0  0  0  0
   16.6209  -11.1723  -15.8652 O   0  0  0  0  0  0  0  0  0  0  0  0
   13.6042   -8.1495  -15.8274 N   0  0  0  0  0  0  0  0  0  0  0  0
   13.8290   -7.9716  -14.4543 C   0  0  0  0  0  0  0  0  0  0  0  0
   12.8080   -7.7893  -13.7089 O   0  0  0  0  0  0  0  0  0  0  0  0
   15.1217   -7.9711  -13.7686 C   0  0  0  0  0  0  0  0  0  0  0  0
   16.1164   -8.9522  -14.3132 C   0  0  2  0  0  0  0  0  0  0  0  0
   15.7961  -10.3108  -13.9206 N   0  0  0  0  0  0  0  0  0  0  0  0
   17.5144   -8.6101  -13.9550 C   0  0  0  0  0  0  0  0  0  0  0  0
   17.9104   -8.5254  -12.7476 O   0  0  0  0  0  0  0  0  0  0  0  0
   18.4753   -8.3618  -14.9346 N   0  0  0  0  0  0  0  0  0  0  0  0
   19.9023   -8.1284  -14.6790 C   0  0  1  0  0  0  0  0  0  0  0  0
   20.7521   -8.7061  -15.7330 C   0  0  0  0  0  0  0  0  0  0  0  0
   22.1997   -8.3807  -15.5316 C   0  0  0  0  0  0  0  0  0  0  0  0
   23.1177   -8.8507  -16.5622 C   0  0  0  0  0  0  0  0  0  0  0  0
   22.7934   -9.6763  -17.4352 O   0  0  0  0  0  0  0  0  0  0  0  0
   20.0694   -6.6616  -14.6141 C   0  0  0  0  0  0  0  0  0  0  0  0
   21.0426   -6.0378  -13.8428 O   0  0  0  0  0  0  0  0  0  0  0  0
   24.4128   -8.3598  -16.5765 O   0  0  0  0  0  0  0  0  0  0  0  0
   19.2654   -5.9477  -15.3077 O   0  0  0  0  0  0  0  0  0  0  0  0
  2  3  1  0
  2  1  1  0
  3  4  2  0
  5  6  1  0
  6  8  1  0
  7  6  2  0
  9  8  1  1
 10  3  1  0
 10  9  1  0
 11 13  1  0
 11  9  1  0
 12 11  2  0
 14 13  1  0
 14 15  1  6
 15 16  1  0
 16 17  1  0
 17 21  1  0
 18 17  2  0
 19 20  1  0
 19 14  1  0
 22 19  2  0
M  END
$$$$
