KNE.pdb
     RDKit          3D

 27 26  0  0  1  0  0  0  0  0999 V2000
    9.3140  -12.3665   19.2273 N   0  0  0  0  0  0  0  0  0  0  0  0
    8.5968  -13.5638   19.5331 C   0  0  1  0  0  0  0  0  0  0  0  0
    7.5330  -13.8715   18.5258 C   0  0  0  0  0  0  0  0  0  0  0  0
    8.0374  -13.8239   17.1212 C   0  0  0  0  0  0  0  0  0  0  0  0
    6.9355  -14.0361   16.1030 C   0  0  0  0  0  0  0  0  0  0  0  0
    7.5319  -14.0641   14.7004 C   0  0  0  0  0  0  0  0  0  0  0  0
    6.4444  -14.1804   13.7440 N   0  0  0  0  0  0  0  0  0  0  0  0
    9.5211  -14.7433   19.6099 C   0  0  0  0  0  0  0  0  0  0  0  0
    9.1045  -15.8838   19.8954 O   0  0  0  0  0  0  0  0  0  0  0  0
   11.6132  -16.5715   16.8339 N   0  0  0  0  0  0  0  0  0  0  0  0
   12.7647  -15.7196   17.0913 C   0  0  0  0  0  0  0  0  0  0  0  0
   13.4636  -15.4990   16.0917 O   0  0  0  0  0  0  0  0  0  0  0  0
   12.9055  -15.2735   18.4564 C   0  0  0  0  0  0  0  0  0  0  0  0
   11.8949  -15.6357   19.4818 C   0  0  2  0  0  0  0  0  0  0  0  0
   10.8779  -14.5423   19.3526 N   0  0  0  0  0  0  0  0  0  0  0  0
   12.3219  -15.5752   20.8864 C   0  0  0  0  0  0  0  0  0  0  0  0
   11.8654  -14.6408   21.6191 O   0  0  0  0  0  0  0  0  0  0  0  0
   13.1929  -16.4382   21.5646 N   0  0  0  0  0  0  0  0  0  0  0  0
   13.4650  -16.4319   22.9720 C   0  0  1  0  0  0  0  0  0  0  0  0
   12.3397  -16.3743   23.9066 C   0  0  0  0  0  0  0  0  0  0  0  0
   11.4762  -17.6039   23.9972 C   0  0  0  0  0  0  0  0  0  0  0  0
   10.8213  -17.7782   25.3122 C   0  0  0  0  0  0  0  0  0  0  0  0
   10.9740  -17.0323   26.2991 O   0  0  0  0  0  0  0  0  0  0  0  0
   14.4328  -17.4770   23.3850 C   0  0  0  0  0  0  0  0  0  0  0  0
   14.7343  -18.4858   22.4742 O   0  0  0  0  0  0  0  0  0  0  0  0
    9.9464  -18.8637   25.5047 O   0  0  0  0  0  0  0  0  0  0  0  0
   14.9881  -17.4916   24.5074 O   0  0  0  0  0  0  0  0  0  0  0  0
  2  1  1  6
  2  8  1  0
  3  2  1  0
  4  3  1  0
  5  4  1  0
  6  5  1  0
  7  6  1  0
  8  9  2  0
  8 15  1  0
 10 11  1  0
 11 12  2  0
 13 11  1  0
 14 16  1  0
 14 13  1  6
 15 14  1  0
 16 18  1  0
 17 16  2  0
 18 19  1  0
 19 24  1  0
 19 20  1  1
 20 21  1  0
 22 21  1  0
 22 26  1  0
 23 22  2  0
 24 27  2  0
 24 25  1  0
M  END
$$$$
