KNE.pdb
     RDKit          3D

 27 26  0  0  1  0  0  0  0  0999 V2000
    7.6796  -17.1949   19.8918 N   0  0  0  0  0  0  0  0  0  0  0  0
    8.8568  -16.7499   20.5681 C   0  0  1  0  0  0  0  0  0  0  0  0
    8.7809  -15.3099   20.9701 C   0  0  0  0  0  0  0  0  0  0  0  0
    8.7211  -14.3862   19.7983 C   0  0  0  0  0  0  0  0  0  0  0  0
    8.7085  -12.9282   20.2106 C   0  0  0  0  0  0  0  0  0  0  0  0
    8.6652  -12.0447   18.9691 C   0  0  0  0  0  0  0  0  0  0  0  0
    8.6393  -10.6565   19.3973 N   0  0  0  0  0  0  0  0  0  0  0  0
    9.1129  -17.5652   21.8015 C   0  0  0  0  0  0  0  0  0  0  0  0
    8.1937  -18.1704   22.3886 O   0  0  0  0  0  0  0  0  0  0  0  0
   12.9529  -21.2417   23.9536 N   0  0  0  0  0  0  0  0  0  0  0  0
   12.7493  -19.8196   24.1867 C   0  0  0  0  0  0  0  0  0  0  0  0
   13.2823  -19.3961   25.2224 O   0  0  0  0  0  0  0  0  0  0  0  0
   11.9668  -19.1388   23.1834 C   0  0  0  0  0  0  0  0  0  0  0  0
   10.7648  -18.3537   23.5613 C   0  0  2  0  0  0  0  0  0  0  0  0
   10.4177  -17.6379   22.2911 N   0  0  0  0  0  0  0  0  0  0  0  0
   10.9547  -17.2805   24.5468 C   0  0  0  0  0  0  0  0  0  0  0  0
   11.3720  -16.1500   24.1392 O   0  0  0  0  0  0  0  0  0  0  0  0
   10.7280  -17.3240   25.9289 N   0  0  0  0  0  0  0  0  0  0  0  0
   10.9057  -16.2404   26.8503 C   0  0  1  0  0  0  0  0  0  0  0  0
   10.3426  -14.9313   26.5150 C   0  0  0  0  0  0  0  0  0  0  0  0
    8.8842  -14.9010   26.1437 C   0  0  0  0  0  0  0  0  0  0  0  0
    8.2889  -13.5470   26.1720 C   0  0  0  0  0  0  0  0  0  0  0  0
    8.8763  -12.5075   26.5299 O   0  0  0  0  0  0  0  0  0  0  0  0
   10.5808  -16.6046   28.2507 C   0  0  0  0  0  0  0  0  0  0  0  0
   10.0435  -17.8663   28.4906 O   0  0  0  0  0  0  0  0  0  0  0  0
    6.9511  -13.3768   25.7690 O   0  0  0  0  0  0  0  0  0  0  0  0
   10.7681  -15.8342   29.2202 O   0  0  0  0  0  0  0  0  0  0  0  0
  2  1  1  1
  2  8  1  0
  3  2  1  0
  4  3  1  0
  5  4  1  0
  6  5  1  0
  7  6  1  0
  8  9  2  0
  8 15  1  0
 10 11  1  0
 11 12  2  0
 13 11  1  0
 14 16  1  0
 14 13  1  6
 15 14  1  0
 16 18  1  0
 17 16  2  0
 18 19  1  0
 19 24  1  0
 19 20  1  6
 20 21  1  0
 22 21  1  0
 22 26  1  0
 23 22  2  0
 24 27  2  0
 24 25  1  0
M  END
$$$$
