KNE.pdb
     RDKit          3D

 27 26  0  0  1  0  0  0  0  0999 V2000
    7.6154  -15.8738   20.5292 N   0  0  0  0  0  0  0  0  0  0  0  0
    8.5696  -14.8268   20.3434 C   0  0  1  0  0  0  0  0  0  0  0  0
    8.1028  -13.7873   19.3727 C   0  0  0  0  0  0  0  0  0  0  0  0
    7.5711  -14.3764   18.1077 C   0  0  0  0  0  0  0  0  0  0  0  0
    8.0507  -13.6340   16.8770 C   0  0  0  0  0  0  0  0  0  0  0  0
    7.3885  -14.2190   15.6348 C   0  0  0  0  0  0  0  0  0  0  0  0
    7.8267  -13.4534   14.4803 N   0  0  0  0  0  0  0  0  0  0  0  0
    8.8834  -14.1442   21.6422 C   0  0  0  0  0  0  0  0  0  0  0  0
    9.7711  -13.2720   21.7255 O   0  0  0  0  0  0  0  0  0  0  0  0
    5.5054  -12.9234   26.3935 N   0  0  0  0  0  0  0  0  0  0  0  0
    6.8879  -13.0570   25.9590 C   0  0  0  0  0  0  0  0  0  0  0  0
    7.7159  -12.6016   26.7610 O   0  0  0  0  0  0  0  0  0  0  0  0
    7.0696  -13.6924   24.6762 C   0  0  0  0  0  0  0  0  0  0  0  0
    8.4304  -13.9282   24.1314 C   0  0  2  0  0  0  0  0  0  0  0  0
    8.1546  -14.5058   22.7761 N   0  0  0  0  0  0  0  0  0  0  0  0
    9.2485  -14.9464   24.8043 C   0  0  0  0  0  0  0  0  0  0  0  0
    8.9052  -15.3279   25.9682 O   0  0  0  0  0  0  0  0  0  0  0  0
   10.3986  -15.5881   24.3257 N   0  0  0  0  0  0  0  0  0  0  0  0
   11.1259  -16.6289   24.9909 C   0  0  1  0  0  0  0  0  0  0  0  0
   10.3791  -17.7270   25.6071 C   0  0  0  0  0  0  0  0  0  0  0  0
   10.4579  -17.8368   27.1062 C   0  0  0  0  0  0  0  0  0  0  0  0
   10.6567  -19.2193   27.5940 C   0  0  0  0  0  0  0  0  0  0  0  0
   10.7450  -20.2329   26.8741 O   0  0  0  0  0  0  0  0  0  0  0  0
   12.2591  -17.1534   24.1909 C   0  0  0  0  0  0  0  0  0  0  0  0
   13.5504  -16.9308   24.6614 O   0  0  0  0  0  0  0  0  0  0  0  0
   10.7594  -19.4504   28.9786 O   0  0  0  0  0  0  0  0  0  0  0  0
   12.1076  -17.7843   23.1197 O   0  0  0  0  0  0  0  0  0  0  0  0
  2  1  1  1
  2  8  1  0
  3  2  1  0
  4  3  1  0
  5  4  1  0
  6  5  1  0
  7  6  1  0
  8  9  2  0
  8 15  1  0
 10 11  1  0
 11 12  2  0
 13 11  1  0
 14 16  1  0
 14 13  1  1
 15 14  1  0
 16 18  1  0
 17 16  2  0
 18 19  1  0
 19 24  1  0
 19 20  1  6
 20 21  1  0
 22 21  1  0
 22 26  1  0
 23 22  2  0
 24 27  2  0
 24 25  1  0
M  END
$$$$
