KNE.pdb
     RDKit          3D

 27 26  0  0  1  0  0  0  0  0999 V2000
   10.1981  -19.7526   19.4427 N   0  0  0  0  0  0  0  0  0  0  0  0
   10.8093  -18.7560   18.6215 C   0  0  1  0  0  0  0  0  0  0  0  0
   10.3381  -18.8109   17.2016 C   0  0  0  0  0  0  0  0  0  0  0  0
   11.1971  -19.6784   16.3419 C   0  0  0  0  0  0  0  0  0  0  0  0
   10.7092  -19.7373   14.9085 C   0  0  0  0  0  0  0  0  0  0  0  0
   11.4756  -18.7255   14.0641 C   0  0  0  0  0  0  0  0  0  0  0  0
   11.0048  -18.8252   12.6932 N   0  0  0  0  0  0  0  0  0  0  0  0
   10.5374  -17.3783   19.1499 C   0  0  0  0  0  0  0  0  0  0  0  0
   11.1788  -16.3857   18.7508 O   0  0  0  0  0  0  0  0  0  0  0  0
    7.9224  -13.6047   21.7273 N   0  0  0  0  0  0  0  0  0  0  0  0
    7.0707  -14.6499   21.1795 C   0  0  0  0  0  0  0  0  0  0  0  0
    5.8606  -14.3836   21.2108 O   0  0  0  0  0  0  0  0  0  0  0  0
    7.7664  -15.8169   20.6931 C   0  0  0  0  0  0  0  0  0  0  0  0
    9.2468  -15.9031   20.7641 C   0  0  2  0  0  0  0  0  0  0  0  0
    9.5386  -17.2205   20.1117 N   0  0  0  0  0  0  0  0  0  0  0  0
    9.8425  -16.0168   22.1025 C   0  0  0  0  0  0  0  0  0  0  0  0
    9.0667  -16.1436   23.1026 O   0  0  0  0  0  0  0  0  0  0  0  0
   11.2000  -16.0102   22.4494 N   0  0  0  0  0  0  0  0  0  0  0  0
   11.7439  -16.2926   23.7453 C   0  0  1  0  0  0  0  0  0  0  0  0
   11.2374  -17.4502   24.4846 C   0  0  0  0  0  0  0  0  0  0  0  0
   11.4876  -18.8021   23.8722 C   0  0  0  0  0  0  0  0  0  0  0  0
   11.0038  -19.9304   24.6977 C   0  0  0  0  0  0  0  0  0  0  0  0
   10.5307  -19.8332   25.8468 O   0  0  0  0  0  0  0  0  0  0  0  0
   13.2263  -16.2619   23.7764 C   0  0  0  0  0  0  0  0  0  0  0  0
   13.9038  -16.1518   22.5652 O   0  0  0  0  0  0  0  0  0  0  0  0
   11.0660  -21.2371   24.1783 O   0  0  0  0  0  0  0  0  0  0  0  0
   13.8910  -16.3286   24.8358 O   0  0  0  0  0  0  0  0  0  0  0  0
  2  1  1  1
  2  8  1  0
  3  2  1  0
  4  3  1  0
  5  4  1  0
  6  5  1  0
  7  6  1  0
  8  9  2  0
  8 15  1  0
 10 11  1  0
 11 12  2  0
 13 11  1  0
 14 16  1  0
 14 13  1  1
 15 14  1  0
 16 18  1  0
 17 16  2  0
 18 19  1  0
 19 24  1  0
 19 20  1  6
 20 21  1  0
 22 21  1  0
 22 26  1  0
 23 22  2  0
 24 27  2  0
 24 25  1  0
M  END
$$$$
