KNE.pdb
     RDKit          3D

 27 26  0  0  1  0  0  0  0  0999 V2000
    8.3264  -16.5482   19.4075 N   0  0  0  0  0  0  0  0  0  0  0  0
    8.6901  -15.3169   20.0342 C   0  0  1  0  0  0  0  0  0  0  0  0
    7.9323  -14.1468   19.4888 C   0  0  0  0  0  0  0  0  0  0  0  0
    7.6430  -14.2763   18.0296 C   0  0  0  0  0  0  0  0  0  0  0  0
    7.6177  -12.9360   17.3233 C   0  0  0  0  0  0  0  0  0  0  0  0
    7.1932  -13.1291   15.8720 C   0  0  0  0  0  0  0  0  0  0  0  0
    7.3398  -11.8596   15.1806 N   0  0  0  0  0  0  0  0  0  0  0  0
    8.4565  -15.3742   21.5153 C   0  0  0  0  0  0  0  0  0  0  0  0
    8.7835  -14.4335   22.2663 O   0  0  0  0  0  0  0  0  0  0  0  0
    6.7902  -17.8273   25.9591 N   0  0  0  0  0  0  0  0  0  0  0  0
    6.2054  -18.4232   24.7670 C   0  0  0  0  0  0  0  0  0  0  0  0
    5.4706  -19.3946   24.9963 O   0  0  0  0  0  0  0  0  0  0  0  0
    6.5724  -17.7925   23.5221 C   0  0  0  0  0  0  0  0  0  0  0  0
    7.5054  -16.6379   23.5017 C   0  0  2  0  0  0  0  0  0  0  0  0
    7.8572  -16.5154   22.0500 N   0  0  0  0  0  0  0  0  0  0  0  0
    8.7975  -16.8154   24.1784 C   0  0  0  0  0  0  0  0  0  0  0  0
    9.3438  -15.8012   24.7178 O   0  0  0  0  0  0  0  0  0  0  0  0
    9.5436  -17.9924   24.3251 N   0  0  0  0  0  0  0  0  0  0  0  0
   10.6238  -18.2008   25.2441 C   0  0  1  0  0  0  0  0  0  0  0  0
   10.4014  -17.9301   26.6655 C   0  0  0  0  0  0  0  0  0  0  0  0
    9.9145  -19.0828   27.5021 C   0  0  0  0  0  0  0  0  0  0  0  0
   10.4828  -19.1114   28.8677 C   0  0  0  0  0  0  0  0  0  0  0  0
   11.3077  -18.2957   29.3234 O   0  0  0  0  0  0  0  0  0  0  0  0
   11.3025  -19.5068   25.0620 C   0  0  0  0  0  0  0  0  0  0  0  0
   10.7324  -20.4232   24.1826 O   0  0  0  0  0  0  0  0  0  0  0  0
   10.0842  -20.1280   29.7558 O   0  0  0  0  0  0  0  0  0  0  0  0
   12.3586  -19.8192   25.6583 O   0  0  0  0  0  0  0  0  0  0  0  0
  2  1  1  6
  2  8  1  0
  3  2  1  0
  4  3  1  0
  5  4  1  0
  6  5  1  0
  7  6  1  0
  8  9  2  0
  8 15  1  0
 10 11  1  0
 11 12  2  0
 13 11  1  0
 14 16  1  0
 14 13  1  6
 15 14  1  0
 16 18  1  0
 17 16  2  0
 18 19  1  0
 19 24  1  0
 19 20  1  1
 20 21  1  0
 22 21  1  0
 22 26  1  0
 23 22  2  0
 24 27  2  0
 24 25  1  0
M  END
$$$$
