KNE.pdb
     RDKit          3D

 27 26  0  0  1  0  0  0  0  0999 V2000
    8.7917  -15.6932   19.3472 N   0  0  0  0  0  0  0  0  0  0  0  0
    8.6337  -14.4229   19.9817 C   0  0  1  0  0  0  0  0  0  0  0  0
    7.5127  -13.6218   19.3964 C   0  0  0  0  0  0  0  0  0  0  0  0
    7.1594  -14.0508   18.0104 C   0  0  0  0  0  0  0  0  0  0  0  0
    7.6951  -13.1027   16.9568 C   0  0  0  0  0  0  0  0  0  0  0  0
    7.2737  -13.5832   15.5728 C   0  0  0  0  0  0  0  0  0  0  0  0
    7.8587  -12.6946   14.5833 N   0  0  0  0  0  0  0  0  0  0  0  0
    8.3760  -14.5807   21.4514 C   0  0  0  0  0  0  0  0  0  0  0  0
    7.9566  -13.6345   22.1476 O   0  0  0  0  0  0  0  0  0  0  0  0
    6.8830  -18.8450   25.0370 N   0  0  0  0  0  0  0  0  0  0  0  0
    6.7304  -17.4135   24.8236 C   0  0  0  0  0  0  0  0  0  0  0  0
    6.1870  -16.8175   25.7646 O   0  0  0  0  0  0  0  0  0  0  0  0
    7.2319  -16.9239   23.5622 C   0  0  0  0  0  0  0  0  0  0  0  0
    8.4448  -16.0696   23.5072 C   0  0  2  0  0  0  0  0  0  0  0  0
    8.6165  -15.8235   22.0387 N   0  0  0  0  0  0  0  0  0  0  0  0
    9.7113  -16.6855   23.9263 C   0  0  0  0  0  0  0  0  0  0  0  0
    9.9392  -17.8913   23.5911 O   0  0  0  0  0  0  0  0  0  0  0  0
   10.7501  -16.1094   24.6696 N   0  0  0  0  0  0  0  0  0  0  0  0
   11.1877  -16.5195   25.9715 C   0  0  1  0  0  0  0  0  0  0  0  0
   10.4163  -16.0934   27.1405 C   0  0  0  0  0  0  0  0  0  0  0  0
   10.6777  -14.7008   27.6483 C   0  0  0  0  0  0  0  0  0  0  0  0
    9.9130  -14.3562   28.8670 C   0  0  0  0  0  0  0  0  0  0  0  0
    9.1972  -15.1432   29.5165 O   0  0  0  0  0  0  0  0  0  0  0  0
   11.5022  -17.9665   26.0536 C   0  0  0  0  0  0  0  0  0  0  0  0
   11.0581  -18.7918   25.0241 O   0  0  0  0  0  0  0  0  0  0  0  0
    9.9728  -13.0415   29.3660 O   0  0  0  0  0  0  0  0  0  0  0  0
   12.1460  -18.4752   26.9997 O   0  0  0  0  0  0  0  0  0  0  0  0
  2  1  1  6
  2  8  1  0
  3  2  1  0
  4  3  1  0
  5  4  1  0
  6  5  1  0
  7  6  1  0
  8  9  2  0
  8 15  1  0
 10 11  1  0
 11 12  2  0
 13 11  1  0
 14 16  1  0
 14 13  1  6
 15 14  1  0
 16 18  1  0
 17 16  2  0
 18 19  1  0
 19 24  1  0
 19 20  1  1
 20 21  1  0
 22 21  1  0
 22 26  1  0
 23 22  2  0
 24 27  2  0
 24 25  1  0
M  END
$$$$
