KNE.pdb
     RDKit          3D

 27 26  0  0  1  0  0  0  0  0999 V2000
    7.5905  -15.7360   19.4737 N   0  0  0  0  0  0  0  0  0  0  0  0
    8.3876  -14.6238   19.8847 C   0  0  1  0  0  0  0  0  0  0  0  0
    7.8238  -13.3126   19.4334 C   0  0  0  0  0  0  0  0  0  0  0  0
    7.2341  -13.3792   18.0632 C   0  0  0  0  0  0  0  0  0  0  0  0
    8.2919  -13.4415   16.9801 C   0  0  0  0  0  0  0  0  0  0  0  0
    7.6225  -13.4750   15.6110 C   0  0  0  0  0  0  0  0  0  0  0  0
    8.6579  -13.6010   14.5995 N   0  0  0  0  0  0  0  0  0  0  0  0
    8.5281  -14.5816   21.3780 C   0  0  0  0  0  0  0  0  0  0  0  0
    9.1713  -13.6785   21.9496 O   0  0  0  0  0  0  0  0  0  0  0  0
    7.4023  -16.2811   26.4296 N   0  0  0  0  0  0  0  0  0  0  0  0
    6.6806  -16.9266   25.3430 C   0  0  0  0  0  0  0  0  0  0  0  0
    6.0647  -17.9473   25.6818 O   0  0  0  0  0  0  0  0  0  0  0  0
    6.7980  -16.2797   24.0584 C   0  0  0  0  0  0  0  0  0  0  0  0
    8.0903  -15.6979   23.6162 C   0  0  2  0  0  0  0  0  0  0  0  0
    7.9179  -15.5851   22.1317 N   0  0  0  0  0  0  0  0  0  0  0  0
    9.2873  -16.5333   23.7839 C   0  0  0  0  0  0  0  0  0  0  0  0
    9.3614  -17.6241   23.1335 O   0  0  0  0  0  0  0  0  0  0  0  0
   10.4086  -16.2883   24.5877 N   0  0  0  0  0  0  0  0  0  0  0  0
   11.5650  -17.1271   24.7058 C   0  0  1  0  0  0  0  0  0  0  0  0
   12.8667  -16.5930   24.3012 C   0  0  0  0  0  0  0  0  0  0  0  0
   14.0498  -17.5094   24.4623 C   0  0  0  0  0  0  0  0  0  0  0  0
   15.3296  -16.9162   24.0164 C   0  0  0  0  0  0  0  0  0  0  0  0
   15.4781  -15.7520   23.5967 O   0  0  0  0  0  0  0  0  0  0  0  0
   11.6650  -17.8030   26.0220 C   0  0  0  0  0  0  0  0  0  0  0  0
   12.4888  -18.9207   26.1224 O   0  0  0  0  0  0  0  0  0  0  0  0
   16.4989  -17.6987   24.0541 O   0  0  0  0  0  0  0  0  0  0  0  0
   11.0472  -17.4152   27.0401 O   0  0  0  0  0  0  0  0  0  0  0  0
  2  1  1  1
  2  8  1  0
  3  2  1  0
  4  3  1  0
  5  4  1  0
  6  5  1  0
  7  6  1  0
  8  9  2  0
  8 15  1  0
 10 11  1  0
 11 12  2  0
 13 11  1  0
 14 16  1  0
 14 13  1  1
 15 14  1  0
 16 18  1  0
 17 16  2  0
 18 19  1  0
 19 24  1  0
 19 20  1  1
 20 21  1  0
 22 21  1  0
 22 26  1  0
 23 22  2  0
 24 27  2  0
 24 25  1  0
M  END
$$$$
