KNE.pdb
     RDKit          3D

 27 26  0  0  1  0  0  0  0  0999 V2000
    9.0873  -18.0264   15.8530 N   0  0  0  0  0  0  0  0  0  0  0  0
    8.2145  -17.7083   16.9385 C   0  0  1  0  0  0  0  0  0  0  0  0
    7.7907  -18.9185   17.7110 C   0  0  0  0  0  0  0  0  0  0  0  0
    8.9459  -19.7587   18.1461 C   0  0  0  0  0  0  0  0  0  0  0  0
    8.5103  -21.1028   18.6935 C   0  0  0  0  0  0  0  0  0  0  0  0
    9.7368  -21.9606   18.9825 C   0  0  0  0  0  0  0  0  0  0  0  0
    9.2868  -23.2383   19.5082 N   0  0  0  0  0  0  0  0  0  0  0  0
    8.8651  -16.7504   17.8928 C   0  0  0  0  0  0  0  0  0  0  0  0
   10.0901  -16.5183   17.8538 O   0  0  0  0  0  0  0  0  0  0  0  0
    6.1976  -12.2992   20.9780 N   0  0  0  0  0  0  0  0  0  0  0  0
    7.4309  -13.0650   20.8747 C   0  0  0  0  0  0  0  0  0  0  0  0
    8.3422  -12.6566   21.6088 O   0  0  0  0  0  0  0  0  0  0  0  0
    7.3937  -14.1660   19.9426 C   0  0  0  0  0  0  0  0  0  0  0  0
    8.5851  -15.0276   19.7370 C   0  0  2  0  0  0  0  0  0  0  0  0
    8.0657  -16.1116   18.8416 N   0  0  0  0  0  0  0  0  0  0  0  0
    9.1012  -15.7400   20.9138 C   0  0  0  0  0  0  0  0  0  0  0  0
    8.5170  -16.8091   21.2798 O   0  0  0  0  0  0  0  0  0  0  0  0
   10.1938  -15.3990   21.7222 N   0  0  0  0  0  0  0  0  0  0  0  0
   10.6028  -16.0714   22.9203 C   0  0  1  0  0  0  0  0  0  0  0  0
   12.0222  -16.0708   23.2787 C   0  0  0  0  0  0  0  0  0  0  0  0
   12.7996  -17.3175   22.9514 C   0  0  0  0  0  0  0  0  0  0  0  0
   14.2475  -17.2100   23.2351 C   0  0  0  0  0  0  0  0  0  0  0  0
   15.0888  -16.6611   22.4971 O   0  0  0  0  0  0  0  0  0  0  0  0
    9.7677  -15.7288   24.0970 C   0  0  0  0  0  0  0  0  0  0  0  0
    9.9540  -16.4605   25.2666 O   0  0  0  0  0  0  0  0  0  0  0  0
   14.7562  -17.7604   24.4264 O   0  0  0  0  0  0  0  0  0  0  0  0
    8.9100  -14.8163   24.0862 O   0  0  0  0  0  0  0  0  0  0  0  0
  2  1  1  6
  2  8  1  0
  3  2  1  0
  4  3  1  0
  5  4  1  0
  6  5  1  0
  7  6  1  0
  8  9  2  0
  8 15  1  0
 10 11  1  0
 11 12  2  0
 13 11  1  0
 14 16  1  0
 14 13  1  1
 15 14  1  0
 16 18  1  0
 17 16  2  0
 18 19  1  0
 19 24  1  0
 19 20  1  1
 20 21  1  0
 22 21  1  0
 22 26  1  0
 23 22  2  0
 24 27  2  0
 24 25  1  0
M  END
$$$$
