KNE.pdb
     RDKit          3D

 27 26  0  0  1  0  0  0  0  0999 V2000
   11.3589  -17.4077   15.6286 N   0  0  0  0  0  0  0  0  0  0  0  0
   10.6933  -17.3844   16.8926 C   0  0  1  0  0  0  0  0  0  0  0  0
   10.8428  -18.6690   17.6465 C   0  0  0  0  0  0  0  0  0  0  0  0
   11.9852  -19.4961   17.1560 C   0  0  0  0  0  0  0  0  0  0  0  0
   12.1176  -20.8045   17.9086 C   0  0  0  0  0  0  0  0  0  0  0  0
   13.3823  -21.5280   17.4606 C   0  0  0  0  0  0  0  0  0  0  0  0
   13.5289  -22.7306   18.2627 N   0  0  0  0  0  0  0  0  0  0  0  0
   11.2129  -16.2734   17.7570 C   0  0  0  0  0  0  0  0  0  0  0  0
   12.3774  -15.8423   17.6391 O   0  0  0  0  0  0  0  0  0  0  0  0
    7.5388  -12.7978   18.9230 N   0  0  0  0  0  0  0  0  0  0  0  0
    8.9811  -12.9857   18.8737 C   0  0  0  0  0  0  0  0  0  0  0  0
    9.5433  -12.3471   17.9724 O   0  0  0  0  0  0  0  0  0  0  0  0
    9.5187  -13.8771   19.8730 C   0  0  0  0  0  0  0  0  0  0  0  0
   10.7842  -14.6146   19.6311 C   0  0  2  0  0  0  0  0  0  0  0  0
   10.3592  -15.7195   18.7119 N   0  0  0  0  0  0  0  0  0  0  0  0
   11.3818  -15.3048   20.7823 C   0  0  0  0  0  0  0  0  0  0  0  0
   11.0289  -16.5036   21.0206 O   0  0  0  0  0  0  0  0  0  0  0  0
   12.3282  -14.8130   21.6911 N   0  0  0  0  0  0  0  0  0  0  0  0
   12.8153  -15.4914   22.8562 C   0  0  1  0  0  0  0  0  0  0  0  0
   11.9024  -16.3649   23.5957 C   0  0  0  0  0  0  0  0  0  0  0  0
   12.4835  -17.1069   24.7692 C   0  0  0  0  0  0  0  0  0  0  0  0
   11.5339  -18.0387   25.4162 C   0  0  0  0  0  0  0  0  0  0  0  0
   10.3550  -18.2305   25.0599 O   0  0  0  0  0  0  0  0  0  0  0  0
   14.1189  -16.1641   22.6387 C   0  0  0  0  0  0  0  0  0  0  0  0
   14.6466  -16.1671   21.3504 O   0  0  0  0  0  0  0  0  0  0  0  0
   11.9587  -18.7889   26.5287 O   0  0  0  0  0  0  0  0  0  0  0  0
   14.7624  -16.7242   23.5556 O   0  0  0  0  0  0  0  0  0  0  0  0
  2  1  1  6
  2  8  1  0
  3  2  1  0
  4  3  1  0
  5  4  1  0
  6  5  1  0
  7  6  1  0
  8  9  2  0
  8 15  1  0
 10 11  1  0
 11 12  2  0
 13 11  1  0
 14 16  1  0
 14 13  1  1
 15 14  1  0
 16 18  1  0
 17 16  2  0
 18 19  1  0
 19 24  1  0
 19 20  1  6
 20 21  1  0
 22 21  1  0
 22 26  1  0
 23 22  2  0
 24 27  2  0
 24 25  1  0
M  END
$$$$
