KNE.pdb
     RDKit          3D

 27 26  0  0  1  0  0  0  0  0999 V2000
    9.0396  -18.0527   17.0789 N   0  0  0  0  0  0  0  0  0  0  0  0
   10.3986  -17.6389   16.9270 C   0  0  1  0  0  0  0  0  0  0  0  0
   10.6701  -17.0329   15.5854 C   0  0  0  0  0  0  0  0  0  0  0  0
    9.5678  -17.2776   14.6082 C   0  0  0  0  0  0  0  0  0  0  0  0
    9.7919  -16.5616   13.2917 C   0  0  0  0  0  0  0  0  0  0  0  0
    8.6171  -16.8271   12.3573 C   0  0  0  0  0  0  0  0  0  0  0  0
    8.8241  -16.0673   11.1362 N   0  0  0  0  0  0  0  0  0  0  0  0
   10.7794  -16.6367   17.9768 C   0  0  0  0  0  0  0  0  0  0  0  0
   11.9614  -16.2704   18.1339 O   0  0  0  0  0  0  0  0  0  0  0  0
    7.1973  -13.0180   18.6984 N   0  0  0  0  0  0  0  0  0  0  0  0
    8.5801  -13.2271   19.1013 C   0  0  0  0  0  0  0  0  0  0  0  0
    9.3743  -12.4009   18.6294 O   0  0  0  0  0  0  0  0  0  0  0  0
    8.8009  -14.3526   19.9770 C   0  0  0  0  0  0  0  0  0  0  0  0
   10.0558  -15.1419   19.8977 C   0  0  2  0  0  0  0  0  0  0  0  0
    9.7741  -16.1109   18.7894 N   0  0  0  0  0  0  0  0  0  0  0  0
   10.3818  -15.9901   21.0523 C   0  0  0  0  0  0  0  0  0  0  0  0
   10.2644  -17.2509   20.9307 O   0  0  0  0  0  0  0  0  0  0  0  0
   10.8267  -15.5930   22.3203 N   0  0  0  0  0  0  0  0  0  0  0  0
   11.9047  -16.1795   23.0611 C   0  0  1  0  0  0  0  0  0  0  0  0
   13.2725  -16.0104   22.5674 C   0  0  0  0  0  0  0  0  0  0  0  0
   14.3631  -16.6720   23.3663 C   0  0  0  0  0  0  0  0  0  0  0  0
   15.7189  -16.4650   22.8119 C   0  0  0  0  0  0  0  0  0  0  0  0
   16.0358  -16.5928   21.6132 O   0  0  0  0  0  0  0  0  0  0  0  0
   11.8365  -15.8966   24.5153 C   0  0  0  0  0  0  0  0  0  0  0  0
   12.6642  -16.6275   25.3633 O   0  0  0  0  0  0  0  0  0  0  0  0
   16.7647  -16.0922   23.6770 O   0  0  0  0  0  0  0  0  0  0  0  0
   11.0745  -15.0351   25.0108 O   0  0  0  0  0  0  0  0  0  0  0  0
  2  1  1  6
  2  8  1  0
  3  2  1  0
  4  3  1  0
  5  4  1  0
  6  5  1  0
  7  6  1  0
  8  9  2  0
  8 15  1  0
 10 11  1  0
 11 12  2  0
 13 11  1  0
 14 16  1  0
 14 13  1  1
 15 14  1  0
 16 18  1  0
 17 16  2  0
 18 19  1  0
 19 24  1  0
 19 20  1  6
 20 21  1  0
 22 21  1  0
 22 26  1  0
 23 22  2  0
 24 27  2  0
 24 25  1  0
M  END
$$$$
