HHR.pdb
     RDKit          3D

 32 33  0  0  1  0  0  0  0  0999 V2000
    8.4304  -17.9506   17.3435 N   0  0  0  0  0  0  0  0  0  0  0  0
    9.6804  -17.2969   17.6473 C   0  0  1  0  0  0  0  0  0  0  0  0
    9.4608  -15.8380   17.9869 C   0  0  0  0  0  0  0  0  0  0  0  0
    8.8949  -15.1016   16.8204 C   0  0  0  0  0  0  0  0  0  0  0  0
    8.5289  -15.6112   15.5950 C   0  0  0  0  0  0  0  0  0  0  0  0
    8.0633  -14.6203   14.8197 N   0  0  0  0  0  0  0  0  0  0  0  0
    8.1404  -13.4966   15.5634 C   0  0  0  0  0  0  0  0  0  0  0  0
    8.6451  -13.7870   16.7784 N   0  0  0  0  0  0  0  0  0  0  0  0
   10.3253  -17.9256   18.8216 C   0  0  0  0  0  0  0  0  0  0  0  0
    9.6144  -18.3178   19.7729 O   0  0  0  0  0  0  0  0  0  0  0  0
   11.7324  -18.0732   18.8505 N   0  0  0  0  0  0  0  0  0  0  0  0
   12.4217  -18.7360   19.9314 C   0  0  1  0  0  0  0  0  0  0  0  0
   13.8485  -19.0513   19.6043 C   0  0  0  0  0  0  0  0  0  0  0  0
   14.5084  -19.8614   20.6700 C   0  0  0  0  0  0  0  0  0  0  0  0
   13.8856  -20.2624   21.8251 C   0  0  0  0  0  0  0  0  0  0  0  0
   14.7696  -20.9580   22.5367 N   0  0  0  0  0  0  0  0  0  0  0  0
   15.9229  -20.9998   21.8566 C   0  0  0  0  0  0  0  0  0  0  0  0
   15.7616  -20.3262   20.7103 N   0  0  0  0  0  0  0  0  0  0  0  0
   12.3211  -17.9196   21.1622 C   0  0  0  0  0  0  0  0  0  0  0  0
   12.8692  -16.7646   21.1983 O   0  0  0  0  0  0  0  0  0  0  0  0
    6.2094  -13.5507   22.7091 N   0  0  0  0  0  0  0  0  0  0  0  0
    7.2206  -13.4237   21.7179 C   0  0  0  0  0  0  0  0  0  0  0  0
    7.0851  -12.6171   20.7152 N   0  0  0  0  0  0  0  0  0  0  0  0
    8.4381  -14.1765   21.7732 N   0  0  0  0  0  0  0  0  0  0  0  0
    8.6602  -15.2146   22.7602 C   0  0  0  0  0  0  0  0  0  0  0  0
   10.0428  -15.8232   22.6198 C   0  0  0  0  0  0  0  0  0  0  0  0
   10.2204  -16.9053   23.6276 C   0  0  0  0  0  0  0  0  0  0  0  0
   11.5681  -17.5504   23.5253 C   0  0  2  0  0  0  0  0  0  0  0  0
   11.6377  -18.3721   22.3045 N   0  0  0  0  0  0  0  0  0  0  0  0
   11.9619  -18.3668   24.6880 C   0  0  0  0  0  0  0  0  0  0  0  0
   12.0970  -17.9071   25.8403 O   0  0  0  0  0  0  0  0  0  0  0  0
   12.2136  -19.7464   24.5596 O   0  0  0  0  0  0  0  0  0  0  0  0
  2  1  1  1
  2  3  1  0
  3  4  1  0
  4  5  2  0
  6  5  1  0
  7  6  1  0
  8  7  2  0
  8  4  1  0
  9  2  1  0
  9 10  2  0
 11  9  1  0
 12 11  1  0
 12 13  1  6
 13 14  1  0
 14 18  1  0
 15 14  2  0
 15 16  1  0
 16 17  1  0
 18 17  2  0
 19 12  1  0
 20 19  2  0
 22 24  1  0
 22 21  1  0
 23 22  2  0
 25 24  1  0
 26 25  1  0
 27 26  1  0
 28 27  1  1
 28 29  1  0
 29 19  1  0
 30 28  1  0
 30 32  1  0
 31 30  2  0
M  END
$$$$
