HHR.pdb
     RDKit          3D

 32 33  0  0  1  0  0  0  0  0999 V2000
    8.9200  -17.5305   14.5264 N   0  0  0  0  0  0  0  0  0  0  0  0
    9.5136  -16.8369   15.6437 C   0  0  1  0  0  0  0  0  0  0  0  0
    8.4730  -16.0421   16.4033 C   0  0  0  0  0  0  0  0  0  0  0  0
    7.9311  -14.9371   15.5615 C   0  0  0  0  0  0  0  0  0  0  0  0
    8.2504  -13.5990   15.6141 C   0  0  0  0  0  0  0  0  0  0  0  0
    7.5433  -12.9338   14.6884 N   0  0  0  0  0  0  0  0  0  0  0  0
    6.7855  -13.8584   14.0617 C   0  0  0  0  0  0  0  0  0  0  0  0
    7.0199  -15.0753   14.5905 N   0  0  0  0  0  0  0  0  0  0  0  0
   10.1093  -17.7990   16.5974 C   0  0  0  0  0  0  0  0  0  0  0  0
    9.5960  -18.9325   16.7237 O   0  0  0  0  0  0  0  0  0  0  0  0
   11.2472  -17.4233   17.3500 N   0  0  0  0  0  0  0  0  0  0  0  0
   11.9422  -18.3428   18.2186 C   0  0  1  0  0  0  0  0  0  0  0  0
   13.3439  -17.9112   18.5201 C   0  0  0  0  0  0  0  0  0  0  0  0
   14.1030  -18.9444   19.2841 C   0  0  0  0  0  0  0  0  0  0  0  0
   13.6415  -20.2141   19.5240 C   0  0  0  0  0  0  0  0  0  0  0  0
   14.5716  -20.8522   20.2307 N   0  0  0  0  0  0  0  0  0  0  0  0
   15.5968  -20.0148   20.4363 C   0  0  0  0  0  0  0  0  0  0  0  0
   15.3082  -18.8434   19.8547 N   0  0  0  0  0  0  0  0  0  0  0  0
   11.1626  -18.5408   19.4615 C   0  0  0  0  0  0  0  0  0  0  0  0
   10.1443  -17.8016   19.6906 O   0  0  0  0  0  0  0  0  0  0  0  0
    3.8014  -22.2634   22.4883 N   0  0  0  0  0  0  0  0  0  0  0  0
    4.9854  -22.4340   21.7200 C   0  0  0  0  0  0  0  0  0  0  0  0
    4.9697  -23.0549   20.5850 N   0  0  0  0  0  0  0  0  0  0  0  0
    6.2538  -21.9313   22.1566 N   0  0  0  0  0  0  0  0  0  0  0  0
    6.9202  -20.8310   21.4884 C   0  0  0  0  0  0  0  0  0  0  0  0
    8.2989  -20.5844   22.0716 C   0  0  0  0  0  0  0  0  0  0  0  0
    9.2237  -20.1244   20.9986 C   0  0  0  0  0  0  0  0  0  0  0  0
   10.5993  -19.8511   21.5239 C   0  0  2  0  0  0  0  0  0  0  0  0
   11.5040  -19.5221   20.4086 N   0  0  0  0  0  0  0  0  0  0  0  0
   11.1894  -20.9356   22.3294 C   0  0  0  0  0  0  0  0  0  0  0  0
   11.7707  -21.9237   21.8364 O   0  0  0  0  0  0  0  0  0  0  0  0
   11.1286  -20.9162   23.7361 O   0  0  0  0  0  0  0  0  0  0  0  0
  2  1  1  6
  2  3  1  0
  3  4  1  0
  4  5  2  0
  6  5  1  0
  7  6  1  0
  8  7  2  0
  8  4  1  0
  9  2  1  0
  9 10  2  0
 11  9  1  0
 12 11  1  0
 12 13  1  1
 13 14  1  0
 14 18  1  0
 15 14  2  0
 15 16  1  0
 16 17  1  0
 18 17  2  0
 19 12  1  0
 20 19  2  0
 22 24  1  0
 22 21  1  0
 23 22  2  0
 25 24  1  0
 26 25  1  0
 27 26  1  0
 28 27  1  6
 28 29  1  0
 29 19  1  0
 30 28  1  0
 30 32  1  0
 31 30  2  0
M  END
$$$$
