HHR.pdb
     RDKit          3D

 32 33  0  0  1  0  0  0  0  0999 V2000
    9.8899  -17.7865   18.7377 N   0  0  0  0  0  0  0  0  0  0  0  0
    9.6465  -18.3774   20.0313 C   0  0  1  0  0  0  0  0  0  0  0  0
   10.6822  -19.4352   20.3477 C   0  0  0  0  0  0  0  0  0  0  0  0
   10.7882  -20.4227   19.2357 C   0  0  0  0  0  0  0  0  0  0  0  0
    9.8030  -21.2459   18.7386 C   0  0  0  0  0  0  0  0  0  0  0  0
   10.3017  -21.9860   17.7371 N   0  0  0  0  0  0  0  0  0  0  0  0
   11.5957  -21.6225   17.6127 C   0  0  0  0  0  0  0  0  0  0  0  0
   11.8926  -20.6734   18.5217 N   0  0  0  0  0  0  0  0  0  0  0  0
    9.7301  -17.3531   21.0962 C   0  0  0  0  0  0  0  0  0  0  0  0
   10.8272  -17.1440   21.6591 O   0  0  0  0  0  0  0  0  0  0  0  0
    8.5710  -16.6277   21.4605 N   0  0  0  0  0  0  0  0  0  0  0  0
    8.5425  -15.7226   22.5844 C   0  0  1  0  0  0  0  0  0  0  0  0
    7.5874  -14.5858   22.3913 C   0  0  0  0  0  0  0  0  0  0  0  0
    7.8277  -13.8550   21.1123 C   0  0  0  0  0  0  0  0  0  0  0  0
    8.9058  -14.0766   20.2931 C   0  0  0  0  0  0  0  0  0  0  0  0
    8.7966  -13.2516   19.2543 N   0  0  0  0  0  0  0  0  0  0  0  0
    7.6819  -12.5243   19.4057 C   0  0  0  0  0  0  0  0  0  0  0  0
    7.0874  -12.8956   20.5469 N   0  0  0  0  0  0  0  0  0  0  0  0
    8.2384  -16.4746   23.8228 C   0  0  0  0  0  0  0  0  0  0  0  0
    7.9596  -17.7208   23.7505 O   0  0  0  0  0  0  0  0  0  0  0  0
    7.6411  -23.3701   27.8917 N   0  0  0  0  0  0  0  0  0  0  0  0
    6.6444  -22.6029   27.2290 C   0  0  0  0  0  0  0  0  0  0  0  0
    5.7705  -23.1580   26.4529 N   0  0  0  0  0  0  0  0  0  0  0  0
    6.5525  -21.1814   27.3821 N   0  0  0  0  0  0  0  0  0  0  0  0
    7.5096  -20.2759   26.7779 C   0  0  0  0  0  0  0  0  0  0  0  0
    7.2241  -18.8356   27.1598 C   0  0  0  0  0  0  0  0  0  0  0  0
    7.3805  -17.9586   25.9662 C   0  0  0  0  0  0  0  0  0  0  0  0
    8.0133  -16.6466   26.3142 C   0  0  2  0  0  0  0  0  0  0  0  0
    8.2453  -15.8628   25.0886 N   0  0  0  0  0  0  0  0  0  0  0  0
    9.2693  -16.7403   27.0804 C   0  0  0  0  0  0  0  0  0  0  0  0
   10.3794  -16.9737   26.5603 O   0  0  0  0  0  0  0  0  0  0  0  0
    9.2866  -16.5668   28.4778 O   0  0  0  0  0  0  0  0  0  0  0  0
  2  1  1  6
  2  3  1  0
  3  4  1  0
  4  5  2  0
  6  5  1  0
  7  6  1  0
  8  7  2  0
  8  4  1  0
  9  2  1  0
  9 10  2  0
 11  9  1  0
 12 11  1  0
 12 13  1  6
 13 14  1  0
 14 18  1  0
 15 14  2  0
 15 16  1  0
 16 17  1  0
 18 17  2  0
 19 12  1  0
 20 19  2  0
 22 24  1  0
 22 21  1  0
 23 22  2  0
 25 24  1  0
 26 25  1  0
 27 26  1  0
 28 27  1  6
 28 29  1  0
 29 19  1  0
 30 28  1  0
 30 32  1  0
 31 30  2  0
M  END
$$$$
