HHR.pdb
     RDKit          3D

 32 33  0  0  1  0  0  0  0  0999 V2000
   12.0287  -16.9046   14.1919 N   0  0  0  0  0  0  0  0  0  0  0  0
   10.8602  -17.3028   14.9391 C   0  0  1  0  0  0  0  0  0  0  0  0
   10.9666  -18.7462   15.3832 C   0  0  0  0  0  0  0  0  0  0  0  0
   10.9735  -19.6634   14.2077 C   0  0  0  0  0  0  0  0  0  0  0  0
    9.9523  -19.9037   13.3162 C   0  0  0  0  0  0  0  0  0  0  0  0
   10.3587  -20.7958   12.4005 N   0  0  0  0  0  0  0  0  0  0  0  0
   11.6313  -21.1091   12.7235 C   0  0  0  0  0  0  0  0  0  0  0  0
   12.0061  -20.4223   13.8204 N   0  0  0  0  0  0  0  0  0  0  0  0
   10.7176  -16.4801   16.1609 C   0  0  0  0  0  0  0  0  0  0  0  0
   11.7247  -16.2542   16.8673 O   0  0  0  0  0  0  0  0  0  0  0  0
    9.4478  -15.9628   16.5108 N   0  0  0  0  0  0  0  0  0  0  0  0
    9.2288  -15.1843   17.7062 C   0  0  1  0  0  0  0  0  0  0  0  0
    7.9208  -14.4556   17.6939 C   0  0  0  0  0  0  0  0  0  0  0  0
    7.6850  -13.6933   18.9551 C   0  0  0  0  0  0  0  0  0  0  0  0
    8.1792  -12.4360   19.1953 C   0  0  0  0  0  0  0  0  0  0  0  0
    7.7762  -12.0719   20.4104 N   0  0  0  0  0  0  0  0  0  0  0  0
    7.0463  -13.0672   20.9312 C   0  0  0  0  0  0  0  0  0  0  0  0
    6.9908  -14.0625   20.0367 N   0  0  0  0  0  0  0  0  0  0  0  0
    9.3466  -16.0554   18.8973 C   0  0  0  0  0  0  0  0  0  0  0  0
    9.3380  -17.3261   18.7516 O   0  0  0  0  0  0  0  0  0  0  0  0
   14.2619  -15.7605   23.4056 N   0  0  0  0  0  0  0  0  0  0  0  0
   14.8930  -15.7740   22.1318 C   0  0  0  0  0  0  0  0  0  0  0  0
   15.8400  -14.9424   21.8390 N   0  0  0  0  0  0  0  0  0  0  0  0
   14.5182  -16.7030   21.1076 N   0  0  0  0  0  0  0  0  0  0  0  0
   13.2736  -17.4445   21.1552 C   0  0  0  0  0  0  0  0  0  0  0  0
   12.0867  -16.5191   21.3467 C   0  0  0  0  0  0  0  0  0  0  0  0
   10.8202  -17.2883   21.1960 C   0  0  0  0  0  0  0  0  0  0  0  0
    9.6130  -16.4181   21.3641 C   0  0  2  0  0  0  0  0  0  0  0  0
    9.4692  -15.5316   20.1962 N   0  0  0  0  0  0  0  0  0  0  0  0
    9.5893  -15.6108   22.5974 C   0  0  0  0  0  0  0  0  0  0  0  0
    9.7298  -14.3709   22.6135 O   0  0  0  0  0  0  0  0  0  0  0  0
    9.4017  -16.2093   23.8581 O   0  0  0  0  0  0  0  0  0  0  0  0
  2  1  1  1
  2  3  1  0
  3  4  1  0
  4  5  2  0
  6  5  1  0
  7  6  1  0
  8  7  2  0
  8  4  1  0
  9  2  1  0
  9 10  2  0
 11  9  1  0
 12 11  1  0
 12 13  1  6
 13 14  1  0
 14 18  1  0
 15 14  2  0
 15 16  1  0
 16 17  1  0
 18 17  2  0
 19 12  1  0
 20 19  2  0
 22 24  1  0
 22 21  1  0
 23 22  2  0
 25 24  1  0
 26 25  1  0
 27 26  1  0
 28 27  1  6
 28 29  1  0
 29 19  1  0
 30 28  1  0
 30 32  1  0
 31 30  2  0
M  END
$$$$
