HHR.pdb
     RDKit          3D

 32 33  0  0  1  0  0  0  0  0999 V2000
    9.7368  -16.3859   19.0180 N   0  0  0  0  0  0  0  0  0  0  0  0
    8.5812  -16.4655   19.8784 C   0  0  1  0  0  0  0  0  0  0  0  0
    8.1372  -17.9015   20.0584 C   0  0  0  0  0  0  0  0  0  0  0  0
    7.5418  -18.4341   18.7995 C   0  0  0  0  0  0  0  0  0  0  0  0
    6.2805  -18.2055   18.2974 C   0  0  0  0  0  0  0  0  0  0  0  0
    6.1331  -18.8674   17.1399 N   0  0  0  0  0  0  0  0  0  0  0  0
    7.3022  -19.5064   16.9237 C   0  0  0  0  0  0  0  0  0  0  0  0
    8.1586  -19.2444   17.9303 N   0  0  0  0  0  0  0  0  0  0  0  0
    8.8954  -15.9344   21.2235 C   0  0  0  0  0  0  0  0  0  0  0  0
    9.9795  -16.2434   21.7653 O   0  0  0  0  0  0  0  0  0  0  0  0
    7.9675  -15.0874   21.8747 N   0  0  0  0  0  0  0  0  0  0  0  0
    8.1828  -14.5791   23.2082 C   0  0  1  0  0  0  0  0  0  0  0  0
    7.1087  -13.6344   23.6507 C   0  0  0  0  0  0  0  0  0  0  0  0
    7.3899  -13.0454   24.9929 C   0  0  0  0  0  0  0  0  0  0  0  0
    8.5515  -13.2523   25.6933 C   0  0  0  0  0  0  0  0  0  0  0  0
    8.4538  -12.5821   26.8392 N   0  0  0  0  0  0  0  0  0  0  0  0
    7.2649  -11.9655   26.8698 C   0  0  0  0  0  0  0  0  0  0  0  0
    6.6122  -12.2505   25.7356 N   0  0  0  0  0  0  0  0  0  0  0  0
    8.3282  -15.7079   24.1549 C   0  0  0  0  0  0  0  0  0  0  0  0
    7.4036  -16.5883   24.2318 O   0  0  0  0  0  0  0  0  0  0  0  0
   14.5744  -20.0301   22.4620 N   0  0  0  0  0  0  0  0  0  0  0  0
   13.4693  -19.5777   21.6905 C   0  0  0  0  0  0  0  0  0  0  0  0
   13.5010  -19.5856   20.3969 N   0  0  0  0  0  0  0  0  0  0  0  0
   12.2666  -19.0909   22.2979 N   0  0  0  0  0  0  0  0  0  0  0  0
   12.1800  -18.8005   23.7154 C   0  0  0  0  0  0  0  0  0  0  0  0
   10.8456  -18.1714   24.0694 C   0  0  0  0  0  0  0  0  0  0  0  0
   10.8408  -17.7779   25.5059 C   0  0  0  0  0  0  0  0  0  0  0  0
    9.6072  -17.0119   25.8727 C   0  0  2  0  0  0  0  0  0  0  0  0
    9.4572  -15.8490   24.9807 N   0  0  0  0  0  0  0  0  0  0  0  0
    9.5417  -16.5643   27.2758 C   0  0  0  0  0  0  0  0  0  0  0  0
    9.3171  -17.3304   28.2350 O   0  0  0  0  0  0  0  0  0  0  0  0
    9.7343  -15.2127   27.6206 O   0  0  0  0  0  0  0  0  0  0  0  0
  2  1  1  6
  2  3  1  0
  3  4  1  0
  4  5  2  0
  6  5  1  0
  7  6  1  0
  8  7  2  0
  8  4  1  0
  9  2  1  0
  9 10  2  0
 11  9  1  0
 12 11  1  0
 12 13  1  1
 13 14  1  0
 14 18  1  0
 15 14  2  0
 15 16  1  0
 16 17  1  0
 18 17  2  0
 19 12  1  0
 20 19  2  0
 22 24  1  0
 22 21  1  0
 23 22  2  0
 25 24  1  0
 26 25  1  0
 27 26  1  0
 28 27  1  1
 28 29  1  0
 29 19  1  0
 30 28  1  0
 30 32  1  0
 31 30  2  0
M  END
$$$$
