HHR.pdb
     RDKit          3D

 32 33  0  0  1  0  0  0  0  0999 V2000
    3.9939  -24.0879   13.6933 N   0  0  0  0  0  0  0  0  0  0  0  0
    4.0788  -23.7270   15.0878 C   0  0  1  0  0  0  0  0  0  0  0  0
    3.3912  -24.7578   15.9574 C   0  0  0  0  0  0  0  0  0  0  0  0
    1.9102  -24.6780   15.8038 C   0  0  0  0  0  0  0  0  0  0  0  0
    1.1703  -24.8229   14.6519 C   0  0  0  0  0  0  0  0  0  0  0  0
   -0.1329  -24.6806   14.9367 N   0  0  0  0  0  0  0  0  0  0  0  0
   -0.2017  -24.4475   16.2644 C   0  0  0  0  0  0  0  0  0  0  0  0
    1.0379  -24.4456   16.7924 N   0  0  0  0  0  0  0  0  0  0  0  0
    5.4915  -23.6613   15.5238 C   0  0  0  0  0  0  0  0  0  0  0  0
    6.3116  -24.4882   15.0679 O   0  0  0  0  0  0  0  0  0  0  0  0
    5.8922  -22.6668   16.4474 N   0  0  0  0  0  0  0  0  0  0  0  0
    7.2622  -22.5086   16.8727 C   0  0  1  0  0  0  0  0  0  0  0  0
    7.7706  -21.1123   16.6886 C   0  0  0  0  0  0  0  0  0  0  0  0
    7.9676  -20.7661   15.2502 C   0  0  0  0  0  0  0  0  0  0  0  0
    8.9941  -21.2493   14.4786 C   0  0  0  0  0  0  0  0  0  0  0  0
    8.8576  -20.7319   13.2598 N   0  0  0  0  0  0  0  0  0  0  0  0
    7.7762  -19.9414   13.2533 C   0  0  0  0  0  0  0  0  0  0  0  0
    7.2301  -19.9631   14.4760 N   0  0  0  0  0  0  0  0  0  0  0  0
    7.4020  -22.9495   18.2790 C   0  0  0  0  0  0  0  0  0  0  0  0
    6.7632  -22.3320   19.1990 O   0  0  0  0  0  0  0  0  0  0  0  0
   11.2143  -30.3974   18.7416 N   0  0  0  0  0  0  0  0  0  0  0  0
   11.6517  -29.3163   17.9286 C   0  0  0  0  0  0  0  0  0  0  0  0
   12.4876  -29.4973   16.9576 N   0  0  0  0  0  0  0  0  0  0  0  0
   11.1947  -27.9747   18.1374 N   0  0  0  0  0  0  0  0  0  0  0  0
   10.1832  -27.6479   19.1228 C   0  0  0  0  0  0  0  0  0  0  0  0
    9.8921  -26.1590   19.1423 C   0  0  0  0  0  0  0  0  0  0  0  0
    8.8082  -25.8715   20.1224 C   0  0  0  0  0  0  0  0  0  0  0  0
    8.3525  -24.4466   20.0517 C   0  0  2  0  0  0  0  0  0  0  0  0
    8.2193  -24.0337   18.6438 N   0  0  0  0  0  0  0  0  0  0  0  0
    9.2052  -23.4799   20.7669 C   0  0  0  0  0  0  0  0  0  0  0  0
   10.1747  -22.8946   20.2427 O   0  0  0  0  0  0  0  0  0  0  0  0
    8.9667  -23.1544   22.1161 O   0  0  0  0  0  0  0  0  0  0  0  0
  2  1  1  6
  2  3  1  0
  3  4  1  0
  4  5  2  0
  6  5  1  0
  7  6  1  0
  8  7  2  0
  8  4  1  0
  9  2  1  0
  9 10  2  0
 11  9  1  0
 12 11  1  0
 12 13  1  1
 13 14  1  0
 14 18  1  0
 15 14  2  0
 15 16  1  0
 16 17  1  0
 18 17  2  0
 19 12  1  0
 20 19  2  0
 22 24  1  0
 22 21  1  0
 23 22  2  0
 25 24  1  0
 26 25  1  0
 27 26  1  0
 28 27  1  6
 28 29  1  0
 29 19  1  0
 30 28  1  0
 30 32  1  0
 31 30  2  0
M  END
$$$$
