HHR.pdb
     RDKit          3D

 32 33  0  0  1  0  0  0  0  0999 V2000
    6.2321  -19.1066   19.7726 N   0  0  0  0  0  0  0  0  0  0  0  0
    6.1453  -17.9961   20.6897 C   0  0  1  0  0  0  0  0  0  0  0  0
    5.6853  -18.4564   22.0566 C   0  0  0  0  0  0  0  0  0  0  0  0
    4.3207  -19.0528   21.9835 C   0  0  0  0  0  0  0  0  0  0  0  0
    3.5241  -19.2088   20.8716 C   0  0  0  0  0  0  0  0  0  0  0  0
    2.3682  -19.7892   21.2274 N   0  0  0  0  0  0  0  0  0  0  0  0
    2.4473  -19.9932   22.5593 C   0  0  0  0  0  0  0  0  0  0  0  0
    3.6321  -19.5468   23.0200 N   0  0  0  0  0  0  0  0  0  0  0  0
    7.4706  -17.3616   20.8666 C   0  0  0  0  0  0  0  0  0  0  0  0
    8.4946  -17.9652   20.4776 O   0  0  0  0  0  0  0  0  0  0  0  0
    7.5592  -16.0854   21.4714 N   0  0  0  0  0  0  0  0  0  0  0  0
    8.8175  -15.4092   21.6776 C   0  0  1  0  0  0  0  0  0  0  0  0
    8.7438  -13.9423   21.3863 C   0  0  0  0  0  0  0  0  0  0  0  0
    8.4490  -13.6640   19.9500 C   0  0  0  0  0  0  0  0  0  0  0  0
    7.2937  -13.0729   19.5046 C   0  0  0  0  0  0  0  0  0  0  0  0
    7.3729  -12.9860   18.1787 N   0  0  0  0  0  0  0  0  0  0  0  0
    8.5440  -13.5065   17.7887 C   0  0  0  0  0  0  0  0  0  0  0  0
    9.2043  -13.9226   18.8771 N   0  0  0  0  0  0  0  0  0  0  0  0
    9.2983  -15.6594   23.0552 C   0  0  0  0  0  0  0  0  0  0  0  0
    8.5116  -16.1958   23.9091 O   0  0  0  0  0  0  0  0  0  0  0  0
    7.9472  -19.9577   28.9144 N   0  0  0  0  0  0  0  0  0  0  0  0
    9.3640  -20.0147   29.0174 C   0  0  0  0  0  0  0  0  0  0  0  0
    9.9483  -20.8112   29.8531 N   0  0  0  0  0  0  0  0  0  0  0  0
   10.2185  -19.1989   28.2071 N   0  0  0  0  0  0  0  0  0  0  0  0
    9.6972  -18.1802   27.3174 C   0  0  0  0  0  0  0  0  0  0  0  0
   10.7943  -17.5886   26.4524 C   0  0  0  0  0  0  0  0  0  0  0  0
   10.2027  -16.6373   25.4710 C   0  0  0  0  0  0  0  0  0  0  0  0
   11.2459  -16.0168   24.5936 C   0  0  2  0  0  0  0  0  0  0  0  0
   10.6017  -15.3257   23.4632 N   0  0  0  0  0  0  0  0  0  0  0  0
   12.2674  -16.9476   24.0804 C   0  0  0  0  0  0  0  0  0  0  0  0
   12.6651  -17.9504   24.7078 O   0  0  0  0  0  0  0  0  0  0  0  0
   12.8663  -16.7520   22.8210 O   0  0  0  0  0  0  0  0  0  0  0  0
  2  1  1  6
  2  3  1  0
  3  4  1  0
  4  5  2  0
  6  5  1  0
  7  6  1  0
  8  7  2  0
  8  4  1  0
  9  2  1  0
  9 10  2  0
 11  9  1  0
 12 11  1  0
 12 13  1  1
 13 14  1  0
 14 18  1  0
 15 14  2  0
 15 16  1  0
 16 17  1  0
 18 17  2  0
 19 12  1  0
 20 19  2  0
 22 24  1  0
 22 21  1  0
 23 22  2  0
 25 24  1  0
 26 25  1  0
 27 26  1  0
 28 27  1  6
 28 29  1  0
 29 19  1  0
 30 28  1  0
 30 32  1  0
 31 30  2  0
M  END
$$$$
