HHR.pdb
     RDKit          3D

 32 33  0  0  1  0  0  0  0  0999 V2000
   11.3846  -14.4318   18.4516 N   0  0  0  0  0  0  0  0  0  0  0  0
   10.6533  -13.8247   19.5372 C   0  0  1  0  0  0  0  0  0  0  0  0
    9.5020  -12.9912   19.0162 C   0  0  0  0  0  0  0  0  0  0  0  0
    8.9293  -13.5933   17.7782 C   0  0  0  0  0  0  0  0  0  0  0  0
    9.3856  -14.6896   17.0815 C   0  0  0  0  0  0  0  0  0  0  0  0
    8.5916  -14.9089   16.0227 N   0  0  0  0  0  0  0  0  0  0  0  0
    7.6431  -13.9493   16.0623 C   0  0  0  0  0  0  0  0  0  0  0  0
    7.8466  -13.1498   17.1275 N   0  0  0  0  0  0  0  0  0  0  0  0
   10.0757  -14.8619   20.4208 C   0  0  0  0  0  0  0  0  0  0  0  0
    9.3888  -14.5130   21.4060 O   0  0  0  0  0  0  0  0  0  0  0  0
   10.3085  -16.2289   20.1386 N   0  0  0  0  0  0  0  0  0  0  0  0
    9.9175  -17.2857   21.0405 C   0  0  1  0  0  0  0  0  0  0  0  0
    9.8575  -18.6256   20.3748 C   0  0  0  0  0  0  0  0  0  0  0  0
    9.5143  -19.7186   21.3313 C   0  0  0  0  0  0  0  0  0  0  0  0
   10.4446  -20.4543   22.0212 C   0  0  0  0  0  0  0  0  0  0  0  0
    9.7845  -21.3336   22.7715 N   0  0  0  0  0  0  0  0  0  0  0  0
    8.4714  -21.1646   22.5667 C   0  0  0  0  0  0  0  0  0  0  0  0
    8.3064  -20.1726   21.6822 N   0  0  0  0  0  0  0  0  0  0  0  0
   10.8272  -17.3069   22.2082 C   0  0  0  0  0  0  0  0  0  0  0  0
   11.9659  -16.7298   22.1299 O   0  0  0  0  0  0  0  0  0  0  0  0
    5.6108  -12.2438   25.1482 N   0  0  0  0  0  0  0  0  0  0  0  0
    6.4690  -12.4123   26.2691 C   0  0  0  0  0  0  0  0  0  0  0  0
    6.4372  -11.5955   27.2721 N   0  0  0  0  0  0  0  0  0  0  0  0
    7.4109  -13.4887   26.3503 N   0  0  0  0  0  0  0  0  0  0  0  0
    7.7645  -14.2942   25.1983 C   0  0  0  0  0  0  0  0  0  0  0  0
    8.8241  -15.3222   25.5478 C   0  0  0  0  0  0  0  0  0  0  0  0
    9.1204  -16.1640   24.3554 C   0  0  0  0  0  0  0  0  0  0  0  0
   10.1980  -17.1668   24.6314 C   0  0  2  0  0  0  0  0  0  0  0  0
   10.4814  -17.9444   23.4126 N   0  0  0  0  0  0  0  0  0  0  0  0
    9.9242  -18.0895   25.7481 C   0  0  0  0  0  0  0  0  0  0  0  0
    9.0407  -18.9702   25.7151 O   0  0  0  0  0  0  0  0  0  0  0  0
   10.6637  -18.0269   26.9448 O   0  0  0  0  0  0  0  0  0  0  0  0
  2  1  1  6
  2  3  1  0
  3  4  1  0
  4  5  2  0
  6  5  1  0
  7  6  1  0
  8  7  2  0
  8  4  1  0
  9  2  1  0
  9 10  2  0
 11  9  1  0
 12 11  1  0
 12 13  1  6
 13 14  1  0
 14 18  1  0
 15 14  2  0
 15 16  1  0
 16 17  1  0
 18 17  2  0
 19 12  1  0
 20 19  2  0
 22 24  1  0
 22 21  1  0
 23 22  2  0
 25 24  1  0
 26 25  1  0
 27 26  1  0
 28 27  1  6
 28 29  1  0
 29 19  1  0
 30 28  1  0
 30 32  1  0
 31 30  2  0
M  END
$$$$
