HHR.pdb
     RDKit          3D

 32 33  0  0  1  0  0  0  0  0999 V2000
   14.6657  -15.1504   14.6150 N   0  0  0  0  0  0  0  0  0  0  0  0
   15.4309  -15.6286   15.7409 C   0  0  1  0  0  0  0  0  0  0  0  0
   15.9849  -14.4747   16.5493 C   0  0  0  0  0  0  0  0  0  0  0  0
   17.0983  -13.8028   15.8200 C   0  0  0  0  0  0  0  0  0  0  0  0
   18.4158  -13.6924   16.2037 C   0  0  0  0  0  0  0  0  0  0  0  0
   19.0983  -13.0132   15.2696 N   0  0  0  0  0  0  0  0  0  0  0  0
   18.2049  -12.7022   14.3068 C   0  0  0  0  0  0  0  0  0  0  0  0
   16.9902  -13.1808   14.6394 N   0  0  0  0  0  0  0  0  0  0  0  0
   14.5781  -16.4273   16.6491 C   0  0  0  0  0  0  0  0  0  0  0  0
   13.3447  -16.2210   16.6691 O   0  0  0  0  0  0  0  0  0  0  0  0
   15.1690  -17.4096   17.4788 N   0  0  0  0  0  0  0  0  0  0  0  0
   14.4113  -18.4891   18.0650 C   0  0  1  0  0  0  0  0  0  0  0  0
   14.2740  -19.6667   17.1505 C   0  0  0  0  0  0  0  0  0  0  0  0
   13.5080  -20.7841   17.7767 C   0  0  0  0  0  0  0  0  0  0  0  0
   13.0209  -20.7561   19.0591 C   0  0  0  0  0  0  0  0  0  0  0  0
   12.3992  -21.9126   19.2774 N   0  0  0  0  0  0  0  0  0  0  0  0
   12.4869  -22.6574   18.1674 C   0  0  0  0  0  0  0  0  0  0  0  0
   13.1679  -21.9636   17.2463 N   0  0  0  0  0  0  0  0  0  0  0  0
   15.0189  -18.8809   19.3569 C   0  0  0  0  0  0  0  0  0  0  0  0
   16.2925  -18.9076   19.4714 O   0  0  0  0  0  0  0  0  0  0  0  0
    9.9435  -22.4880   25.3759 N   0  0  0  0  0  0  0  0  0  0  0  0
   10.6927  -23.3850   24.5665 C   0  0  0  0  0  0  0  0  0  0  0  0
   10.4738  -24.6600   24.5916 N   0  0  0  0  0  0  0  0  0  0  0  0
   11.7254  -22.9306   23.6836 N   0  0  0  0  0  0  0  0  0  0  0  0
   12.2594  -21.5845   23.7476 C   0  0  0  0  0  0  0  0  0  0  0  0
   13.2952  -21.3494   22.6644 C   0  0  0  0  0  0  0  0  0  0  0  0
   13.8084  -19.9541   22.7539 C   0  0  0  0  0  0  0  0  0  0  0  0
   14.8652  -19.6791   21.7290 C   0  0  2  0  0  0  0  0  0  0  0  0
   14.2391  -19.2278   20.4741 N   0  0  0  0  0  0  0  0  0  0  0  0
   15.7719  -20.8064   21.4458 C   0  0  0  0  0  0  0  0  0  0  0  0
   15.5138  -21.7107   20.6254 O   0  0  0  0  0  0  0  0  0  0  0  0
   17.0119  -20.9284   22.1020 O   0  0  0  0  0  0  0  0  0  0  0  0
  2  1  1  6
  2  3  1  0
  3  4  1  0
  4  5  2  0
  6  5  1  0
  7  6  1  0
  8  7  2  0
  8  4  1  0
  9  2  1  0
  9 10  2  0
 11  9  1  0
 12 11  1  0
 12 13  1  6
 13 14  1  0
 14 18  1  0
 15 14  2  0
 15 16  1  0
 16 17  1  0
 18 17  2  0
 19 12  1  0
 20 19  2  0
 22 24  1  0
 22 21  1  0
 23 22  2  0
 25 24  1  0
 26 25  1  0
 27 26  1  0
 28 27  1  1
 28 29  1  0
 29 19  1  0
 30 28  1  0
 30 32  1  0
 31 30  2  0
M  END
$$$$
