PYG.pdb
     RDKit          3D

 24 25  0  0  1  0  0  0  0  0999 V2000
   26.5377  -19.3546  -14.7516 N   0  0  0  0  0  0  0  0  0  0  0  0
   27.1021  -19.0516  -16.0557 C   0  0  0  0  0  0  0  0  0  0  0  0
   28.5519  -19.4837  -15.9243 C   0  0  0  0  0  0  0  0  0  0  0  0
   28.6017  -20.3620  -14.6760 C   0  0  0  0  0  0  0  0  0  0  0  0
   27.1365  -20.6117  -14.4307 C   0  0  1  0  0  0  0  0  0  0  0  0
   26.9182  -21.0469  -13.0489 C   0  0  0  0  0  0  0  0  0  0  0  0
   27.2388  -22.2241  -12.7409 O   0  0  0  0  0  0  0  0  0  0  0  0
   26.9369  -20.1866   -4.2159 O   0  0  0  0  0  0  0  0  0  0  0  0
   27.0336  -20.1175   -5.6092 C   0  0  0  0  0  0  0  0  0  0  0  0
   27.8046  -19.1476   -6.2145 C   0  0  0  0  0  0  0  0  0  0  0  0
   27.9074  -19.0703   -7.6013 C   0  0  0  0  0  0  0  0  0  0  0  0
   27.2451  -19.9571   -8.4248 C   0  0  0  0  0  0  0  0  0  0  0  0
   27.3855  -19.8348   -9.8985 C   0  0  0  0  0  0  0  0  0  0  0  0
   26.3413  -20.6485  -10.6293 C   0  0  2  0  0  0  0  0  0  0  0  0
   26.3675  -20.2364  -12.0185 N   0  0  0  0  0  0  0  0  0  0  0  0
   25.0002  -20.4465  -10.0760 C   0  0  0  0  0  0  0  0  0  0  0  0
   24.7428  -20.7885   -8.9017 O   0  0  0  0  0  0  0  0  0  0  0  0
   26.4757  -20.9248   -7.8140 C   0  0  0  0  0  0  0  0  0  0  0  0
   26.3718  -21.0036   -6.4303 C   0  0  0  0  0  0  0  0  0  0  0  0
   23.9263  -19.8603  -10.8240 N   0  0  0  0  0  0  0  0  0  0  0  0
   22.5918  -19.7652  -10.3226 C   0  0  0  0  0  0  0  0  0  0  0  0
   21.6235  -20.5744  -11.1021 C   0  0  0  0  0  0  0  0  0  0  0  0
   22.0328  -21.2983  -12.0418 O   0  0  0  0  0  0  0  0  0  0  0  0
   20.2645  -20.5690  -10.8373 O   0  0  0  0  0  0  0  0  0  0  0  0
  1  5  1  0
  1  2  1  0
  2  3  1  0
  4  3  1  0
  5  4  1  0
  6  7  2  0
  5  6  1  1
  8  9  1  0
  9 19  2  0
  9 10  1  0
 10 11  2  0
 11 12  1  0
 12 13  1  0
 14 13  1  1
 14 15  1  0
 15  6  1  0
 16 14  1  0
 16 20  1  0
 17 16  2  0
 18 12  2  0
 19 18  1  0
 21 20  1  0
 21 22  1  0
 22 24  1  0
 23 22  2  0
M  END
$$$$
