PYG.pdb
     RDKit          3D

 24 25  0  0  1  0  0  0  0  0999 V2000
   27.0743  -21.7779  -15.1737 N   0  0  0  0  0  0  0  0  0  0  0  0
   28.0328  -21.9010  -16.2587 C   0  0  0  0  0  0  0  0  0  0  0  0
   27.5399  -20.8950  -17.2837 C   0  0  0  0  0  0  0  0  0  0  0  0
   26.5593  -19.9974  -16.5321 C   0  0  0  0  0  0  0  0  0  0  0  0
   26.8549  -20.3677  -15.1021 C   0  0  1  0  0  0  0  0  0  0  0  0
   25.7422  -19.9751  -14.2337 C   0  0  0  0  0  0  0  0  0  0  0  0
   25.5319  -18.7468  -14.0591 O   0  0  0  0  0  0  0  0  0  0  0  0
   20.4448  -18.5619  -17.9583 O   0  0  0  0  0  0  0  0  0  0  0  0
   20.9389  -19.1827  -16.8068 C   0  0  0  0  0  0  0  0  0  0  0  0
   21.9112  -20.1567  -16.8938 C   0  0  0  0  0  0  0  0  0  0  0  0
   22.4098  -20.7811  -15.7531 C   0  0  0  0  0  0  0  0  0  0  0  0
   21.9541  -20.4530  -14.4930 C   0  0  0  0  0  0  0  0  0  0  0  0
   22.5163  -21.1466  -13.3058 C   0  0  0  0  0  0  0  0  0  0  0  0
   23.7426  -20.4398  -12.7738 C   0  0  2  0  0  0  0  0  0  0  0  0
   24.8729  -20.8810  -13.5663 N   0  0  0  0  0  0  0  0  0  0  0  0
   23.9797  -20.7391  -11.3596 C   0  0  0  0  0  0  0  0  0  0  0  0
   23.0657  -20.5905  -10.5201 O   0  0  0  0  0  0  0  0  0  0  0  0
   20.9819  -19.4784  -14.4121 C   0  0  0  0  0  0  0  0  0  0  0  0
   20.4830  -18.8542  -15.5492 C   0  0  0  0  0  0  0  0  0  0  0  0
   25.2396  -21.2084  -10.8608 N   0  0  0  0  0  0  0  0  0  0  0  0
   25.4773  -21.4727   -9.4769 C   0  0  0  0  0  0  0  0  0  0  0  0
   26.0062  -20.2948   -8.7470 C   0  0  0  0  0  0  0  0  0  0  0  0
   26.1507  -19.2036   -9.3495 O   0  0  0  0  0  0  0  0  0  0  0  0
   26.3545  -20.3428   -7.4079 O   0  0  0  0  0  0  0  0  0  0  0  0
  1  5  1  0
  1  2  1  0
  2  3  1  0
  4  3  1  0
  5  4  1  0
  6  7  2  0
  5  6  1  1
  8  9  1  0
  9 19  2  0
  9 10  1  0
 10 11  2  0
 11 12  1  0
 12 13  1  0
 14 13  1  6
 14 15  1  0
 15  6  1  0
 16 14  1  0
 16 20  1  0
 17 16  2  0
 18 12  2  0
 19 18  1  0
 21 20  1  0
 21 22  1  0
 22 24  1  0
 23 22  2  0
M  END
$$$$
