PYG.pdb
     RDKit          3D

 24 25  0  0  1  0  0  0  0  0999 V2000
   24.0857   -9.9469  -18.7178 N   0  0  0  0  0  0  0  0  0  0  0  0
   24.4475  -10.6172  -19.9551 C   0  0  0  0  0  0  0  0  0  0  0  0
   23.2991  -11.5839  -20.1842 C   0  0  0  0  0  0  0  0  0  0  0  0
   22.1792  -11.1095  -19.2606 C   0  0  0  0  0  0  0  0  0  0  0  0
   22.6790   -9.7443  -18.8659 C   0  0  1  0  0  0  0  0  0  0  0  0
   22.0051   -9.2876  -17.6478 C   0  0  0  0  0  0  0  0  0  0  0  0
   20.7547   -9.1499  -17.6786 O   0  0  0  0  0  0  0  0  0  0  0  0
   20.7301  -14.8273  -15.5372 O   0  0  0  0  0  0  0  0  0  0  0  0
   21.1253  -13.5310  -15.1923 C   0  0  0  0  0  0  0  0  0  0  0  0
   20.1900  -12.5337  -15.0132 C   0  0  0  0  0  0  0  0  0  0  0  0
   20.5732  -11.2396  -14.6698 C   0  0  0  0  0  0  0  0  0  0  0  0
   21.8994  -10.9019  -14.4949 C   0  0  0  0  0  0  0  0  0  0  0  0
   22.2594   -9.5081  -14.1287 C   0  0  0  0  0  0  0  0  0  0  0  0
   21.9430   -8.5372  -15.2439 C   0  0  2  0  0  0  0  0  0  0  0  0
   22.6588   -8.9849  -16.4218 N   0  0  0  0  0  0  0  0  0  0  0  0
   22.3416   -7.1677  -14.9104 C   0  0  0  0  0  0  0  0  0  0  0  0
   23.5511   -6.8585  -14.8491 O   0  0  0  0  0  0  0  0  0  0  0  0
   22.8302  -11.9031  -14.6753 C   0  0  0  0  0  0  0  0  0  0  0  0
   22.4498  -13.1952  -15.0180 C   0  0  0  0  0  0  0  0  0  0  0  0
   21.3973   -6.1228  -14.6405 N   0  0  0  0  0  0  0  0  0  0  0  0
   21.7867   -4.7753  -14.3683 C   0  0  0  0  0  0  0  0  0  0  0  0
   20.6297   -3.8724  -14.1533 C   0  0  0  0  0  0  0  0  0  0  0  0
   19.4651   -4.2975  -14.3474 O   0  0  0  0  0  0  0  0  0  0  0  0
   20.7762   -2.5589  -13.7410 O   0  0  0  0  0  0  0  0  0  0  0  0
  1  5  1  0
  1  2  1  0
  2  3  1  0
  4  3  1  0
  5  4  1  0
  6  7  2  0
  5  6  1  1
  8  9  1  0
  9 19  2  0
  9 10  1  0
 10 11  2  0
 11 12  1  0
 12 13  1  0
 14 13  1  1
 14 15  1  0
 15  6  1  0
 16 14  1  0
 16 20  1  0
 17 16  2  0
 18 12  2  0
 19 18  1  0
 21 20  1  0
 21 22  1  0
 22 24  1  0
 23 22  2  0
M  END
$$$$
