PYG.pdb
     RDKit          3D

 24 25  0  0  1  0  0  0  0  0999 V2000
   26.7608  -33.6328   -8.7842 N   0  0  0  0  0  0  0  0  0  0  0  0
   25.9028  -32.7337   -9.5369 C   0  0  0  0  0  0  0  0  0  0  0  0
   24.9027  -32.2483   -8.5026 C   0  0  0  0  0  0  0  0  0  0  0  0
   25.5107  -32.6104   -7.1493 C   0  0  0  0  0  0  0  0  0  0  0  0
   26.9257  -32.9479   -7.5410 C   0  0  1  0  0  0  0  0  0  0  0  0
   27.5672  -33.7472   -6.4940 C   0  0  0  0  0  0  0  0  0  0  0  0
   27.5698  -34.9990   -6.6222 O   0  0  0  0  0  0  0  0  0  0  0  0
   34.0686  -36.9600   -6.7070 O   0  0  0  0  0  0  0  0  0  0  0  0
   33.1313  -36.1128   -6.1078 C   0  0  0  0  0  0  0  0  0  0  0  0
   32.8775  -36.1881   -4.7544 C   0  0  0  0  0  0  0  0  0  0  0  0
   31.9460  -35.3489   -4.1481 C   0  0  0  0  0  0  0  0  0  0  0  0
   31.2406  -34.4105   -4.8727 C   0  0  0  0  0  0  0  0  0  0  0  0
   30.2573  -33.5376   -4.1816 C   0  0  0  0  0  0  0  0  0  0  0  0
   28.8438  -34.0497   -4.3436 C   0  0  2  0  0  0  0  0  0  0  0  0
   28.1931  -33.2150   -5.3335 N   0  0  0  0  0  0  0  0  0  0  0  0
   28.0950  -34.0048   -3.0855 C   0  0  0  0  0  0  0  0  0  0  0  0
   27.6044  -32.9292   -2.6798 O   0  0  0  0  0  0  0  0  0  0  0  0
   31.4985  -34.3396   -6.2254 C   0  0  0  0  0  0  0  0  0  0  0  0
   32.4276  -35.1762   -6.8324 C   0  0  0  0  0  0  0  0  0  0  0  0
   27.8821  -35.1588   -2.2612 N   0  0  0  0  0  0  0  0  0  0  0  0
   27.1277  -35.1185   -1.0484 C   0  0  0  0  0  0  0  0  0  0  0  0
   27.1105  -36.4194   -0.3361 C   0  0  0  0  0  0  0  0  0  0  0  0
   26.5307  -36.5132    0.7728 O   0  0  0  0  0  0  0  0  0  0  0  0
   27.7149  -37.5560   -0.8457 O   0  0  0  0  0  0  0  0  0  0  0  0
  1  5  1  0
  1  2  1  0
  2  3  1  0
  4  3  1  0
  5  4  1  0
  6  7  2  0
  5  6  1  1
  8  9  1  0
  9 19  2  0
  9 10  1  0
 10 11  2  0
 11 12  1  0
 12 13  1  0
 14 13  1  1
 14 15  1  0
 15  6  1  0
 16 14  1  0
 16 20  1  0
 17 16  2  0
 18 12  2  0
 19 18  1  0
 21 20  1  0
 21 22  1  0
 22 24  1  0
 23 22  2  0
M  END
$$$$
