PYG.pdb
     RDKit          3D

 24 25  0  0  1  0  0  0  0  0999 V2000
   24.9014  -26.8769   10.0452 N   0  0  0  0  0  0  0  0  0  0  0  0
   24.1924  -28.0848    9.6590 C   0  0  0  0  0  0  0  0  0  0  0  0
   22.7466  -27.7732   10.0028 C   0  0  0  0  0  0  0  0  0  0  0  0
   22.6932  -26.2595   10.1976 C   0  0  0  0  0  0  0  0  0  0  0  0
   24.0178  -25.8390    9.6163 C   0  0  1  0  0  0  0  0  0  0  0  0
   24.3825  -24.5027   10.0936 C   0  0  0  0  0  0  0  0  0  0  0  0
   23.8825  -23.5075    9.5079 O   0  0  0  0  0  0  0  0  0  0  0  0
   19.2341  -22.1727   12.4338 O   0  0  0  0  0  0  0  0  0  0  0  0
   20.6230  -22.2808   12.5549 C   0  0  0  0  0  0  0  0  0  0  0  0
   21.2007  -23.4405   13.0271 C   0  0  0  0  0  0  0  0  0  0  0  0
   22.5829  -23.5581   13.1514 C   0  0  0  0  0  0  0  0  0  0  0  0
   23.4291  -22.5238   12.8088 C   0  0  0  0  0  0  0  0  0  0  0  0
   24.8968  -22.6964   12.9589 C   0  0  0  0  0  0  0  0  0  0  0  0
   25.5761  -22.8957   11.6228 C   0  0  2  0  0  0  0  0  0  0  0  0
   25.2653  -24.2390   11.1767 N   0  0  0  0  0  0  0  0  0  0  0  0
   27.0282  -22.7253   11.7132 C   0  0  0  0  0  0  0  0  0  0  0  0
   27.7510  -23.6630   12.1136 O   0  0  0  0  0  0  0  0  0  0  0  0
   22.8458  -21.3667   12.3373 C   0  0  0  0  0  0  0  0  0  0  0  0
   21.4668  -21.2473   12.2124 C   0  0  0  0  0  0  0  0  0  0  0  0
   27.6956  -21.5067   11.3583 N   0  0  0  0  0  0  0  0  0  0  0  0
   29.1177  -21.3692   11.3665 C   0  0  0  0  0  0  0  0  0  0  0  0
   29.6978  -21.4542   12.7290 C   0  0  0  0  0  0  0  0  0  0  0  0
   28.9392  -21.5752   13.7211 O   0  0  0  0  0  0  0  0  0  0  0  0
   31.0616  -21.4054   12.9625 O   0  0  0  0  0  0  0  0  0  0  0  0
  1  5  1  0
  1  2  1  0
  2  3  1  0
  4  3  1  0
  5  4  1  0
  6  7  2  0
  5  6  1  1
  8  9  1  0
  9 19  2  0
  9 10  1  0
 10 11  2  0
 11 12  1  0
 12 13  1  0
 14 13  1  1
 14 15  1  0
 15  6  1  0
 16 14  1  0
 16 20  1  0
 17 16  2  0
 18 12  2  0
 19 18  1  0
 21 20  1  0
 21 22  1  0
 22 24  1  0
 23 22  2  0
M  END
$$$$
