PYG.pdb
     RDKit          3D

 24 25  0  0  1  0  0  0  0  0999 V2000
   26.3226  -20.1754  -14.9538 N   0  0  0  0  0  0  0  0  0  0  0  0
   26.6489  -20.0890  -16.3670 C   0  0  0  0  0  0  0  0  0  0  0  0
   28.0977  -20.5400  -16.4250 C   0  0  0  0  0  0  0  0  0  0  0  0
   28.3642  -21.2219  -15.0849 C   0  0  0  0  0  0  0  0  0  0  0  0
   26.9645  -21.3874  -14.5531 C   0  0  1  0  0  0  0  0  0  0  0  0
   26.9922  -21.6033  -13.1042 C   0  0  0  0  0  0  0  0  0  0  0  0
   27.3555  -22.7309  -12.6801 O   0  0  0  0  0  0  0  0  0  0  0  0
   28.0113  -20.3360   -4.4248 O   0  0  0  0  0  0  0  0  0  0  0  0
   27.8819  -20.2015   -5.8106 C   0  0  0  0  0  0  0  0  0  0  0  0
   28.9659  -20.3936   -6.6412 C   0  0  0  0  0  0  0  0  0  0  0  0
   28.8475  -20.2621   -8.0226 C   0  0  0  0  0  0  0  0  0  0  0  0
   27.6458  -19.9353   -8.6162 C   0  0  0  0  0  0  0  0  0  0  0  0
   27.5687  -19.8062  -10.0940 C   0  0  0  0  0  0  0  0  0  0  0  0
   26.7070  -20.8877  -10.7058 C   0  0  2  0  0  0  0  0  0  0  0  0
   26.6375  -20.6299  -12.1302 N   0  0  0  0  0  0  0  0  0  0  0  0
   25.3573  -20.9032  -10.1369 C   0  0  0  0  0  0  0  0  0  0  0  0
   25.1887  -21.1043   -8.9148 O   0  0  0  0  0  0  0  0  0  0  0  0
   26.5654  -19.7444   -7.7808 C   0  0  0  0  0  0  0  0  0  0  0  0
   26.6815  -19.8752   -6.4021 C   0  0  0  0  0  0  0  0  0  0  0  0
   24.1758  -20.6947  -10.9223 N   0  0  0  0  0  0  0  0  0  0  0  0
   22.8622  -20.6805  -10.3604 C   0  0  0  0  0  0  0  0  0  0  0  0
   21.8062  -20.4174  -11.3684 C   0  0  0  0  0  0  0  0  0  0  0  0
   20.6072  -20.3400  -11.0067 O   0  0  0  0  0  0  0  0  0  0  0  0
   22.0858  -20.2502  -12.7140 O   0  0  0  0  0  0  0  0  0  0  0  0
  1  5  1  0
  1  2  1  0
  2  3  1  0
  4  3  1  0
  5  4  1  0
  6  7  2  0
  5  6  1  1
  8  9  1  0
  9 19  2  0
  9 10  1  0
 10 11  2  0
 11 12  1  0
 12 13  1  0
 14 13  1  1
 14 15  1  0
 15  6  1  0
 16 14  1  0
 16 20  1  0
 17 16  2  0
 18 12  2  0
 19 18  1  0
 21 20  1  0
 21 22  1  0
 22 24  1  0
 23 22  2  0
M  END
$$$$
