PYG.pdb
     RDKit          3D

 24 25  0  0  1  0  0  0  0  0999 V2000
   22.4956  -22.2662  -13.4477 N   0  0  0  0  0  0  0  0  0  0  0  0
   21.2074  -22.5695  -14.0474 C   0  0  0  0  0  0  0  0  0  0  0  0
   20.2257  -21.7845  -13.1955 C   0  0  0  0  0  0  0  0  0  0  0  0
   21.0754  -20.7837  -12.4154 C   0  0  0  0  0  0  0  0  0  0  0  0
   22.3875  -20.8729  -13.1502 C   0  0  1  0  0  0  0  0  0  0  0  0
   23.4738  -20.3489  -12.3184 C   0  0  0  0  0  0  0  0  0  0  0  0
   23.5618  -19.1019  -12.1754 O   0  0  0  0  0  0  0  0  0  0  0  0
   28.8551  -18.9837   -5.5979 O   0  0  0  0  0  0  0  0  0  0  0  0
   28.0840  -19.6038   -6.5861 C   0  0  0  0  0  0  0  0  0  0  0  0
   26.7743  -19.2273   -6.7971 C   0  0  0  0  0  0  0  0  0  0  0  0
   25.9981  -19.8386   -7.7786 C   0  0  0  0  0  0  0  0  0  0  0  0
   26.5044  -20.8426   -8.5780 C   0  0  0  0  0  0  0  0  0  0  0  0
   25.6378  -21.4647   -9.6117 C   0  0  0  0  0  0  0  0  0  0  0  0
   25.4910  -20.5767  -10.8268 C   0  0  2  0  0  0  0  0  0  0  0  0
   24.4457  -21.1460  -11.6536 N   0  0  0  0  0  0  0  0  0  0  0  0
   26.7357  -20.4832  -11.5933 C   0  0  0  0  0  0  0  0  0  0  0  0
   27.6616  -19.7379  -11.2069 O   0  0  0  0  0  0  0  0  0  0  0  0
   27.8145  -21.2148   -8.3625 C   0  0  0  0  0  0  0  0  0  0  0  0
   28.5908  -20.6061   -7.3836 C   0  0  0  0  0  0  0  0  0  0  0  0
   26.9663  -21.2195  -12.8021 N   0  0  0  0  0  0  0  0  0  0  0  0
   28.2055  -21.1787  -13.5120 C   0  0  0  0  0  0  0  0  0  0  0  0
   28.1086  -20.4509  -14.8008 C   0  0  0  0  0  0  0  0  0  0  0  0
   27.0505  -19.8432  -15.0934 O   0  0  0  0  0  0  0  0  0  0  0  0
   29.1492  -20.4095  -15.7131 O   0  0  0  0  0  0  0  0  0  0  0  0
  1  5  1  0
  1  2  1  0
  2  3  1  0
  4  3  1  0
  5  4  1  0
  6  7  2  0
  5  6  1  1
  8  9  1  0
  9 19  2  0
  9 10  1  0
 10 11  2  0
 11 12  1  0
 12 13  1  0
 14 13  1  1
 14 15  1  0
 15  6  1  0
 16 14  1  0
 16 20  1  0
 17 16  2  0
 18 12  2  0
 19 18  1  0
 21 20  1  0
 21 22  1  0
 22 24  1  0
 23 22  2  0
M  END
$$$$
