PYG.pdb
     RDKit          3D

 24 25  0  0  1  0  0  0  0  0999 V2000
   26.4967  -20.2248  -16.0498 N   0  0  0  0  0  0  0  0  0  0  0  0
   27.4681  -20.3038  -17.1273 C   0  0  0  0  0  0  0  0  0  0  0  0
   28.5428  -21.2203  -16.5700 C   0  0  0  0  0  0  0  0  0  0  0  0
   27.9061  -21.9045  -15.3623 C   0  0  0  0  0  0  0  0  0  0  0  0
   26.4517  -21.5676  -15.5635 C   0  0  1  0  0  0  0  0  0  0  0  0
   25.7130  -21.7289  -14.3086 C   0  0  0  0  0  0  0  0  0  0  0  0
   25.5822  -22.8907  -13.8433 O   0  0  0  0  0  0  0  0  0  0  0  0
   30.7972  -21.0477  -10.9378 O   0  0  0  0  0  0  0  0  0  0  0  0
   29.4245  -20.7911  -11.0107 C   0  0  0  0  0  0  0  0  0  0  0  0
   28.9314  -19.8366  -11.8752 C   0  0  0  0  0  0  0  0  0  0  0  0
   27.5661  -19.5736  -11.9553 C   0  0  0  0  0  0  0  0  0  0  0  0
   26.6529  -20.2539  -11.1766 C   0  0  0  0  0  0  0  0  0  0  0  0
   25.2064  -19.9384  -11.2973 C   0  0  0  0  0  0  0  0  0  0  0  0
   24.5114  -20.8635  -12.2707 C   0  0  2  0  0  0  0  0  0  0  0  0
   25.1267  -20.6661  -13.5680 N   0  0  0  0  0  0  0  0  0  0  0  0
   23.0743  -20.5934  -12.3557 C   0  0  0  0  0  0  0  0  0  0  0  0
   22.3597  -20.6452  -11.3316 O   0  0  0  0  0  0  0  0  0  0  0  0
   27.1518  -21.2072  -10.3141 C   0  0  0  0  0  0  0  0  0  0  0  0
   28.5138  -21.4712  -10.2326 C   0  0  0  0  0  0  0  0  0  0  0  0
   22.4129  -20.2614  -13.5840 N   0  0  0  0  0  0  0  0  0  0  0  0
   21.0262  -19.9239  -13.6529 C   0  0  0  0  0  0  0  0  0  0  0  0
   20.1958  -21.0099  -14.2283 C   0  0  0  0  0  0  0  0  0  0  0  0
   20.2024  -22.1460  -13.6956 O   0  0  0  0  0  0  0  0  0  0  0  0
   19.3991  -20.8263  -15.3456 O   0  0  0  0  0  0  0  0  0  0  0  0
  1  5  1  0
  1  2  1  0
  2  3  1  0
  4  3  1  0
  5  4  1  0
  6  7  2  0
  5  6  1  1
  8  9  1  0
  9 19  2  0
  9 10  1  0
 10 11  2  0
 11 12  1  0
 12 13  1  0
 14 13  1  1
 14 15  1  0
 15  6  1  0
 16 14  1  0
 16 20  1  0
 17 16  2  0
 18 12  2  0
 19 18  1  0
 21 20  1  0
 21 22  1  0
 22 24  1  0
 23 22  2  0
M  END
$$$$
