PYG.pdb
     RDKit          3D

 24 25  0  0  1  0  0  0  0  0999 V2000
   21.8221  -22.1212  -13.0875 N   0  0  0  0  0  0  0  0  0  0  0  0
   20.4148  -22.2237  -12.7409 C   0  0  0  0  0  0  0  0  0  0  0  0
   20.2238  -21.1302  -11.7047 C   0  0  0  0  0  0  0  0  0  0  0  0
   21.4536  -20.2335  -11.8300 C   0  0  0  0  0  0  0  0  0  0  0  0
   22.0354  -20.7092  -13.1356 C   0  0  1  0  0  0  0  0  0  0  0  0
   23.4430  -20.3164  -13.2392 C   0  0  0  0  0  0  0  0  0  0  0  0
   23.7112  -19.0898  -13.3226 O   0  0  0  0  0  0  0  0  0  0  0  0
   25.0354  -19.5700   -7.1664 O   0  0  0  0  0  0  0  0  0  0  0  0
   25.4619  -20.0039   -8.4255 C   0  0  0  0  0  0  0  0  0  0  0  0
   24.9221  -21.1348   -9.0009 C   0  0  0  0  0  0  0  0  0  0  0  0
   25.3400  -21.5752  -10.2543 C   0  0  0  0  0  0  0  0  0  0  0  0
   26.3078  -20.9015  -10.9704 C   0  0  0  0  0  0  0  0  0  0  0  0
   26.7209  -21.4098  -12.3036 C   0  0  0  0  0  0  0  0  0  0  0  0
   25.9123  -20.7824  -13.4166 C   0  0  2  0  0  0  0  0  0  0  0  0
   24.5405  -21.2204  -13.2532 N   0  0  0  0  0  0  0  0  0  0  0  0
   26.4041  -21.1714  -14.7404 C   0  0  0  0  0  0  0  0  0  0  0  0
   26.5749  -22.3771  -15.0221 O   0  0  0  0  0  0  0  0  0  0  0  0
   26.8440  -19.7714  -10.3901 C   0  0  0  0  0  0  0  0  0  0  0  0
   26.4283  -19.3303   -9.1394 C   0  0  0  0  0  0  0  0  0  0  0  0
   26.7126  -20.2217  -15.7696 N   0  0  0  0  0  0  0  0  0  0  0  0
   27.0892  -20.6056  -17.0933 C   0  0  0  0  0  0  0  0  0  0  0  0
   27.2985  -19.4453  -17.9932 C   0  0  0  0  0  0  0  0  0  0  0  0
   26.6176  -18.4036  -17.8329 O   0  0  0  0  0  0  0  0  0  0  0  0
   28.2266  -19.4571  -19.0205 O   0  0  0  0  0  0  0  0  0  0  0  0
  1  5  1  0
  1  2  1  0
  2  3  1  0
  4  3  1  0
  5  4  1  0
  6  7  2  0
  5  6  1  1
  8  9  1  0
  9 19  2  0
  9 10  1  0
 10 11  2  0
 11 12  1  0
 12 13  1  0
 14 13  1  1
 14 15  1  0
 15  6  1  0
 16 14  1  0
 16 20  1  0
 17 16  2  0
 18 12  2  0
 19 18  1  0
 21 20  1  0
 21 22  1  0
 22 24  1  0
 23 22  2  0
M  END
$$$$
