PYG.pdb
     RDKit          3D

 24 25  0  0  1  0  0  0  0  0999 V2000
   23.0404  -10.0547  -14.6414 N   0  0  0  0  0  0  0  0  0  0  0  0
   23.5392  -11.3038  -14.0920 C   0  0  0  0  0  0  0  0  0  0  0  0
   23.1450  -12.3335  -15.1361 C   0  0  0  0  0  0  0  0  0  0  0  0
   22.7945  -11.5297  -16.3863 C   0  0  0  0  0  0  0  0  0  0  0  0
   23.3477  -10.1741  -16.0318 C   0  0  1  0  0  0  0  0  0  0  0  0
   22.7403   -9.1399  -16.8733 C   0  0  0  0  0  0  0  0  0  0  0  0
   23.1192   -9.0519  -18.0700 O   0  0  0  0  0  0  0  0  0  0  0  0
   18.1188  -11.8184  -20.6045 O   0  0  0  0  0  0  0  0  0  0  0  0
   18.5008  -10.7281  -19.8166 C   0  0  0  0  0  0  0  0  0  0  0  0
   18.6743  -10.8688  -18.4558 C   0  0  0  0  0  0  0  0  0  0  0  0
   19.0546   -9.7892  -17.6625 C   0  0  0  0  0  0  0  0  0  0  0  0
   19.2729   -8.5384  -18.2020 C   0  0  0  0  0  0  0  0  0  0  0  0
   19.6774   -7.4173  -17.3153 C   0  0  0  0  0  0  0  0  0  0  0  0
   21.1760   -7.2158  -17.3165 C   0  0  2  0  0  0  0  0  0  0  0  0
   21.7470   -8.2192  -16.4404 N   0  0  0  0  0  0  0  0  0  0  0  0
   21.5515   -5.8783  -16.8520 C   0  0  0  0  0  0  0  0  0  0  0  0
   21.2619   -4.8692  -17.5303 O   0  0  0  0  0  0  0  0  0  0  0  0
   19.0980   -8.4036  -19.5631 C   0  0  0  0  0  0  0  0  0  0  0  0
   18.7185   -9.4797  -20.3566 C   0  0  0  0  0  0  0  0  0  0  0  0
   22.2554   -5.6464  -15.6244 N   0  0  0  0  0  0  0  0  0  0  0  0
   22.5997   -4.3393  -15.1614 C   0  0  0  0  0  0  0  0  0  0  0  0
   21.4513   -3.6195  -14.5589 C   0  0  0  0  0  0  0  0  0  0  0  0
   21.6344   -2.5060  -14.0101 O   0  0  0  0  0  0  0  0  0  0  0  0
   20.1632   -4.1270  -14.5734 O   0  0  0  0  0  0  0  0  0  0  0  0
  1  5  1  0
  1  2  1  0
  2  3  1  0
  4  3  1  0
  5  4  1  0
  6  7  2  0
  5  6  1  6
  8  9  1  0
  9 19  2  0
  9 10  1  0
 10 11  2  0
 11 12  1  0
 12 13  1  0
 14 13  1  1
 14 15  1  0
 15  6  1  0
 16 14  1  0
 16 20  1  0
 17 16  2  0
 18 12  2  0
 19 18  1  0
 21 20  1  0
 21 22  1  0
 22 24  1  0
 23 22  2  0
M  END
$$$$
