PYG.pdb
     RDKit          3D

 24 25  0  0  1  0  0  0  0  0999 V2000
   18.0197  -23.7096    4.4431 N   0  0  0  0  0  0  0  0  0  0  0  0
   17.1126  -24.1004    3.3774 C   0  0  0  0  0  0  0  0  0  0  0  0
   18.0382  -24.6535    2.3083 C   0  0  0  0  0  0  0  0  0  0  0  0
   19.3725  -24.8931    3.0113 C   0  0  0  0  0  0  0  0  0  0  0  0
   18.9702  -24.7764    4.4584 C   0  0  1  0  0  0  0  0  0  0  0  0
   20.1458  -24.5232    5.2952 C   0  0  0  0  0  0  0  0  0  0  0  0
   21.0598  -25.3879    5.3100 O   0  0  0  0  0  0  0  0  0  0  0  0
   18.0014  -17.7905    6.2273 O   0  0  0  0  0  0  0  0  0  0  0  0
   18.9845  -18.7809    6.3172 C   0  0  0  0  0  0  0  0  0  0  0  0
   20.1943  -18.6332    5.6720 C   0  0  0  0  0  0  0  0  0  0  0  0
   21.1798  -19.6137    5.7554 C   0  0  0  0  0  0  0  0  0  0  0  0
   20.9885  -20.7695    6.4839 C   0  0  0  0  0  0  0  0  0  0  0  0
   22.0693  -21.7868    6.5432 C   0  0  0  0  0  0  0  0  0  0  0  0
   21.5307  -23.1554    6.8943 C   0  0  2  0  0  0  0  0  0  0  0  0
   20.3372  -23.3664    6.0996 N   0  0  0  0  0  0  0  0  0  0  0  0
   21.2067  -23.2703    8.3182 C   0  0  0  0  0  0  0  0  0  0  0  0
   22.0683  -23.0104    9.1855 O   0  0  0  0  0  0  0  0  0  0  0  0
   19.7770  -20.9117    7.1269 C   0  0  0  0  0  0  0  0  0  0  0  0
   18.7922  -19.9345    7.0450 C   0  0  0  0  0  0  0  0  0  0  0  0
   19.9171  -23.6767    8.7958 N   0  0  0  0  0  0  0  0  0  0  0  0
   19.6011  -23.7818   10.1853 C   0  0  0  0  0  0  0  0  0  0  0  0
   19.6625  -25.1762   10.6871 C   0  0  0  0  0  0  0  0  0  0  0  0
   20.0713  -26.0911    9.9320 O   0  0  0  0  0  0  0  0  0  0  0  0
   19.2831  -25.5227   11.9728 O   0  0  0  0  0  0  0  0  0  0  0  0
  1  5  1  0
  1  2  1  0
  2  3  1  0
  4  3  1  0
  5  4  1  0
  6  7  2  0
  5  6  1  1
  8  9  1  0
  9 19  2  0
  9 10  1  0
 10 11  2  0
 11 12  1  0
 12 13  1  0
 14 13  1  1
 14 15  1  0
 15  6  1  0
 16 14  1  0
 16 20  1  0
 17 16  2  0
 18 12  2  0
 19 18  1  0
 21 20  1  0
 21 22  1  0
 22 24  1  0
 23 22  2  0
M  END
$$$$
