PYG.pdb
     RDKit          3D

 24 25  0  0  1  0  0  0  0  0999 V2000
   26.9586  -20.5393  -17.2986 N   0  0  0  0  0  0  0  0  0  0  0  0
   27.6838  -20.6662  -18.5512 C   0  0  0  0  0  0  0  0  0  0  0  0
   28.9036  -21.4880  -18.1736 C   0  0  0  0  0  0  0  0  0  0  0  0
   28.5770  -22.0963  -16.8115 C   0  0  0  0  0  0  0  0  0  0  0  0
   27.0957  -21.8382  -16.7191 C   0  0  1  0  0  0  0  0  0  0  0  0
   26.6490  -21.9263  -15.3266 C   0  0  0  0  0  0  0  0  0  0  0  0
   26.4239  -23.0679  -14.8477 O   0  0  0  0  0  0  0  0  0  0  0  0
   25.6372  -20.1695   -6.7103 O   0  0  0  0  0  0  0  0  0  0  0  0
   25.9951  -20.2003   -8.0617 C   0  0  0  0  0  0  0  0  0  0  0  0
   25.7254  -19.1286   -8.8864 C   0  0  0  0  0  0  0  0  0  0  0  0
   26.0778  -19.1495  -10.2337 C   0  0  0  0  0  0  0  0  0  0  0  0
   26.7089  -20.2387  -10.7979 C   0  0  0  0  0  0  0  0  0  0  0  0
   27.0651  -20.2146  -12.2398 C   0  0  0  0  0  0  0  0  0  0  0  0
   26.0508  -20.9583  -13.0792 C   0  0  2  0  0  0  0  0  0  0  0  0
   26.4479  -20.8129  -14.4653 N   0  0  0  0  0  0  0  0  0  0  0  0
   24.6946  -20.4370  -12.8931 C   0  0  0  0  0  0  0  0  0  0  0  0
   24.3380  -19.3845  -13.4651 O   0  0  0  0  0  0  0  0  0  0  0  0
   26.9760  -21.3074   -9.9685 C   0  0  0  0  0  0  0  0  0  0  0  0
   26.6253  -21.2886   -8.6239 C   0  0  0  0  0  0  0  0  0  0  0  0
   23.7162  -21.0816  -12.0663 N   0  0  0  0  0  0  0  0  0  0  0  0
   22.4096  -20.5464  -11.8481 C   0  0  0  0  0  0  0  0  0  0  0  0
   21.4286  -20.9835  -12.8712 C   0  0  0  0  0  0  0  0  0  0  0  0
   21.8081  -21.6964  -13.8316 O   0  0  0  0  0  0  0  0  0  0  0  0
   20.0896  -20.6359  -12.8160 O   0  0  0  0  0  0  0  0  0  0  0  0
  1  5  1  0
  1  2  1  0
  2  3  1  0
  4  3  1  0
  5  4  1  0
  6  7  2  0
  5  6  1  1
  8  9  1  0
  9 19  2  0
  9 10  1  0
 10 11  2  0
 11 12  1  0
 12 13  1  0
 14 13  1  1
 14 15  1  0
 15  6  1  0
 16 14  1  0
 16 20  1  0
 17 16  2  0
 18 12  2  0
 19 18  1  0
 21 20  1  0
 21 22  1  0
 22 24  1  0
 23 22  2  0
M  END
$$$$
