PYG.pdb
     RDKit          3D

 24 25  0  0  1  0  0  0  0  0999 V2000
   27.0267  -18.6332  -14.6476 N   0  0  0  0  0  0  0  0  0  0  0  0
   28.2525  -18.0566  -15.1731 C   0  0  0  0  0  0  0  0  0  0  0  0
   29.3389  -18.9501  -14.6009 C   0  0  0  0  0  0  0  0  0  0  0  0
   28.6167  -20.2024  -14.1087 C   0  0  0  0  0  0  0  0  0  0  0  0
   27.2654  -20.0380  -14.7539 C   0  0  1  0  0  0  0  0  0  0  0  0
   26.2709  -20.8707  -14.0727 C   0  0  0  0  0  0  0  0  0  0  0  0
   26.3734  -22.1205  -14.1765 O   0  0  0  0  0  0  0  0  0  0  0  0
   29.2562  -20.8736   -8.4775 O   0  0  0  0  0  0  0  0  0  0  0  0
   28.0288  -20.8540   -9.1472 C   0  0  0  0  0  0  0  0  0  0  0  0
   26.9719  -20.1147   -8.6592 C   0  0  0  0  0  0  0  0  0  0  0  0
   25.7455  -20.0886   -9.3187 C   0  0  0  0  0  0  0  0  0  0  0  0
   25.5368  -20.7982  -10.4832 C   0  0  0  0  0  0  0  0  0  0  0  0
   24.2111  -20.7393  -11.1507 C   0  0  0  0  0  0  0  0  0  0  0  0
   24.2794  -21.2416  -12.5753 C   0  0  2  0  0  0  0  0  0  0  0  0
   25.1886  -20.3732  -13.2961 N   0  0  0  0  0  0  0  0  0  0  0  0
   22.9662  -21.2350  -13.2243 C   0  0  0  0  0  0  0  0  0  0  0  0
   22.4793  -20.1676  -13.6552 O   0  0  0  0  0  0  0  0  0  0  0  0
   26.5971  -21.5356  -10.9664 C   0  0  0  0  0  0  0  0  0  0  0  0
   27.8217  -21.5630  -10.3099 C   0  0  0  0  0  0  0  0  0  0  0  0
   22.1766  -22.4188  -13.4023 N   0  0  0  0  0  0  0  0  0  0  0  0
   20.8787  -22.4042  -13.9996 C   0  0  0  0  0  0  0  0  0  0  0  0
   19.8068  -22.0381  -13.0420 C   0  0  0  0  0  0  0  0  0  0  0  0
   18.8685  -22.8417  -12.8224 O   0  0  0  0  0  0  0  0  0  0  0  0
   19.7921  -20.8297  -12.3664 O   0  0  0  0  0  0  0  0  0  0  0  0
  1  5  1  0
  1  2  1  0
  2  3  1  0
  4  3  1  0
  5  4  1  0
  6  7  2  0
  5  6  1  1
  8  9  1  0
  9 19  2  0
  9 10  1  0
 10 11  2  0
 11 12  1  0
 12 13  1  0
 14 13  1  1
 14 15  1  0
 15  6  1  0
 16 14  1  0
 16 20  1  0
 17 16  2  0
 18 12  2  0
 19 18  1  0
 21 20  1  0
 21 22  1  0
 22 24  1  0
 23 22  2  0
M  END
$$$$
