DDC.pdb
     RDKit          3D

 23 22  0  0  1  0  0  0  0  0999 V2000
    9.3924  -12.5116   17.5992 N   0  0  0  0  0  0  0  0  0  0  0  0
    8.5137  -13.5016   18.1714 C   0  0  1  0  0  0  0  0  0  0  0  0
    7.5842  -13.9841   17.1059 C   0  0  0  0  0  0  0  0  0  0  0  0
    8.3793  -14.6182   16.0453 C   0  0  0  0  0  0  0  0  0  0  0  0
    9.6067  -14.7449   16.1728 O   0  0  0  0  0  0  0  0  0  0  0  0
    9.2488  -14.5710   18.8745 C   0  0  0  0  0  0  0  0  0  0  0  0
    8.5686  -15.4992   19.3820 O   0  0  0  0  0  0  0  0  0  0  0  0
    7.7657  -15.0765   14.9021 O   0  0  0  0  0  0  0  0  0  0  0  0
   10.6629  -14.5589   18.9774 N   0  0  0  0  0  0  0  0  0  0  0  0
   11.4181  -15.5416   19.7199 C   0  0  1  0  0  0  0  0  0  0  0  0
   12.7798  -15.7985   19.1836 C   0  0  0  0  0  0  0  0  0  0  0  0
   13.6197  -14.5864   19.2517 C   0  0  0  0  0  0  0  0  0  0  0  0
   14.3597  -14.4032   20.2285 O   0  0  0  0  0  0  0  0  0  0  0  0
   11.4048  -15.2670   21.1743 C   0  0  0  0  0  0  0  0  0  0  0  0
   11.6492  -14.1231   21.5984 O   0  0  0  0  0  0  0  0  0  0  0  0
   13.5802  -13.6640   18.2333 O   0  0  0  0  0  0  0  0  0  0  0  0
   11.1157  -16.2984   22.0889 N   0  0  0  0  0  0  0  0  0  0  0  0
   10.6219  -16.0741   23.4341 C   0  0  1  0  0  0  0  0  0  0  0  0
    9.2748  -15.3966   23.2806 C   0  0  0  0  0  0  0  0  0  0  0  0
    8.5112  -15.1060   24.8908 S   0  0  0  0  0  0  0  0  0  0  0  0
   10.5705  -17.2890   24.2467 C   0  0  0  0  0  0  0  0  0  0  0  0
   10.3382  -18.3963   23.7123 O   0  0  0  0  0  0  0  0  0  0  0  0
   10.7795  -17.2091   25.6047 O   0  0  0  0  0  0  0  0  0  0  0  0
  2  1  1  6
  3  4  1  0
  3  2  1  0
  4  8  1  0
  5  4  2  0
  6  7  2  0
  6  2  1  0
  9  6  1  0
 10 14  1  0
 10  9  1  0
 10 11  1  6
 12 11  1  0
 13 12  2  0
 14 17  1  0
 15 14  2  0
 16 12  1  0
 17 18  1  0
 18 21  1  0
 18 19  1  6
 20 19  1  0
 21 22  2  0
 21 23  1  0
M  END
$$$$
