DDC.pdb
     RDKit          3D

 23 22  0  0  1  0  0  0  0  0999 V2000
   10.9744  -17.5341   20.3859 N   0  0  0  0  0  0  0  0  0  0  0  0
    9.5818  -17.1876   20.5278 C   0  0  1  0  0  0  0  0  0  0  0  0
    8.7786  -18.0718   19.6306 C   0  0  0  0  0  0  0  0  0  0  0  0
    9.5491  -18.3144   18.4031 C   0  0  0  0  0  0  0  0  0  0  0  0
   10.1228  -17.3771   17.8276 O   0  0  0  0  0  0  0  0  0  0  0  0
    9.1417  -17.1809   21.9366 C   0  0  0  0  0  0  0  0  0  0  0  0
    7.9452  -16.8670   22.1642 O   0  0  0  0  0  0  0  0  0  0  0  0
    9.6391  -19.5855   17.8838 O   0  0  0  0  0  0  0  0  0  0  0  0
   10.0255  -17.5135   22.9943 N   0  0  0  0  0  0  0  0  0  0  0  0
    9.6643  -17.4363   24.3910 C   0  0  1  0  0  0  0  0  0  0  0  0
   10.3812  -18.4035   25.2618 C   0  0  0  0  0  0  0  0  0  0  0  0
   10.0534  -18.1878   26.6849 C   0  0  0  0  0  0  0  0  0  0  0  0
    8.9023  -18.4000   27.0914 O   0  0  0  0  0  0  0  0  0  0  0  0
    9.7103  -16.0468   24.8989 C   0  0  0  0  0  0  0  0  0  0  0  0
   10.7349  -15.3574   24.7467 O   0  0  0  0  0  0  0  0  0  0  0  0
   11.0236  -17.7527   27.5561 O   0  0  0  0  0  0  0  0  0  0  0  0
    8.5949  -15.4947   25.5584 N   0  0  0  0  0  0  0  0  0  0  0  0
    8.5547  -14.1471   26.0934 C   0  0  1  0  0  0  0  0  0  0  0  0
    7.1219  -13.6765   25.9418 C   0  0  0  0  0  0  0  0  0  0  0  0
    6.8961  -12.0459   26.6838 S   0  0  0  0  0  0  0  0  0  0  0  0
    9.0552  -14.0486   27.4641 C   0  0  0  0  0  0  0  0  0  0  0  0
    9.2021  -15.0795   28.1579 O   0  0  0  0  0  0  0  0  0  0  0  0
    9.3647  -12.8145   27.9889 O   0  0  0  0  0  0  0  0  0  0  0  0
  2  1  1  1
  3  4  1  0
  3  2  1  0
  4  8  1  0
  5  4  2  0
  6  7  2  0
  6  2  1  0
  9  6  1  0
 10 14  1  0
 10  9  1  0
 10 11  1  1
 12 11  1  0
 13 12  2  0
 14 17  1  0
 15 14  2  0
 16 12  1  0
 17 18  1  0
 18 21  1  0
 18 19  1  1
 20 19  1  0
 21 22  2  0
 21 23  1  0
M  END
$$$$
