DDC.pdb
     RDKit          3D

 23 22  0  0  1  0  0  0  0  0999 V2000
   10.5219  -17.8838   20.3449 N   0  0  0  0  0  0  0  0  0  0  0  0
    9.8636  -16.7334   20.9131 C   0  0  1  0  0  0  0  0  0  0  0  0
    8.5711  -16.5226   20.1941 C   0  0  0  0  0  0  0  0  0  0  0  0
    8.8418  -16.4808   18.7504 C   0  0  0  0  0  0  0  0  0  0  0  0
    7.9196  -16.2803   17.9453 O   0  0  0  0  0  0  0  0  0  0  0  0
    9.7416  -16.8200   22.3815 C   0  0  0  0  0  0  0  0  0  0  0  0
    9.1175  -15.8956   22.9626 O   0  0  0  0  0  0  0  0  0  0  0  0
   10.1227  -16.6640   18.2820 O   0  0  0  0  0  0  0  0  0  0  0  0
   10.3020  -17.8977   23.1129 N   0  0  0  0  0  0  0  0  0  0  0  0
   10.2052  -18.0244   24.5488 C   0  0  1  0  0  0  0  0  0  0  0  0
   10.6751  -19.3300   25.0801 C   0  0  0  0  0  0  0  0  0  0  0  0
   10.2665  -19.5141   26.4866 C   0  0  0  0  0  0  0  0  0  0  0  0
    9.4135  -18.7654   26.9838 O   0  0  0  0  0  0  0  0  0  0  0  0
   10.7964  -16.8616   25.2484 C   0  0  0  0  0  0  0  0  0  0  0  0
   11.4660  -16.0243   24.6170 O   0  0  0  0  0  0  0  0  0  0  0  0
   10.8314  -20.5140   27.2419 O   0  0  0  0  0  0  0  0  0  0  0  0
   10.6057  -16.6946   26.6339 N   0  0  0  0  0  0  0  0  0  0  0  0
   10.6230  -15.4090   27.3053 C   0  0  1  0  0  0  0  0  0  0  0  0
    9.5581  -14.5674   26.6307 C   0  0  0  0  0  0  0  0  0  0  0  0
    9.3772  -12.9719   27.4564 S   0  0  0  0  0  0  0  0  0  0  0  0
   10.4534  -15.5057   28.7547 C   0  0  0  0  0  0  0  0  0  0  0  0
    9.9834  -16.5459   29.2671 O   0  0  0  0  0  0  0  0  0  0  0  0
   10.8140  -14.4453   29.5546 O   0  0  0  0  0  0  0  0  0  0  0  0
  2  1  1  6
  3  4  1  0
  3  2  1  0
  4  8  1  0
  5  4  2  0
  6  7  2  0
  6  2  1  0
  9  6  1  0
 10 14  1  0
 10  9  1  0
 10 11  1  1
 12 11  1  0
 13 12  2  0
 14 17  1  0
 15 14  2  0
 16 12  1  0
 17 18  1  0
 18 21  1  0
 18 19  1  6
 20 19  1  0
 21 22  2  0
 21 23  1  0
M  END
$$$$
