DDC.pdb
     RDKit          3D

 23 22  0  0  1  0  0  0  0  0999 V2000
    9.7019  -13.4786   19.2422 N   0  0  0  0  0  0  0  0  0  0  0  0
    8.3069  -13.4421   19.6056 C   0  0  1  0  0  0  0  0  0  0  0  0
    7.4915  -13.7394   18.3896 C   0  0  0  0  0  0  0  0  0  0  0  0
    8.3959  -14.1735   17.3160 C   0  0  0  0  0  0  0  0  0  0  0  0
    9.2321  -15.0660   17.5236 O   0  0  0  0  0  0  0  0  0  0  0  0
    8.0040  -14.2956   20.7711 C   0  0  0  0  0  0  0  0  0  0  0  0
    6.8247  -14.2759   21.2078 O   0  0  0  0  0  0  0  0  0  0  0  0
    8.3203  -13.5916   16.0714 O   0  0  0  0  0  0  0  0  0  0  0  0
    8.9961  -15.1066   21.3779 N   0  0  0  0  0  0  0  0  0  0  0  0
    8.7967  -15.8180   22.6194 C   0  0  1  0  0  0  0  0  0  0  0  0
    9.5550  -17.0916   22.7226 C   0  0  0  0  0  0  0  0  0  0  0  0
    9.2753  -17.7796   23.9984 C   0  0  0  0  0  0  0  0  0  0  0  0
    8.1039  -17.9340   24.3716 O   0  0  0  0  0  0  0  0  0  0  0  0
    8.9704  -14.9373   23.7963 C   0  0  0  0  0  0  0  0  0  0  0  0
   10.1019  -14.5247   24.1088 O   0  0  0  0  0  0  0  0  0  0  0  0
   10.3126  -18.2474   24.7695 O   0  0  0  0  0  0  0  0  0  0  0  0
    7.8564  -14.5599   24.5713 N   0  0  0  0  0  0  0  0  0  0  0  0
    7.9328  -13.6951   25.7332 C   0  0  1  0  0  0  0  0  0  0  0  0
    6.6335  -12.9154   25.7638 C   0  0  0  0  0  0  0  0  0  0  0  0
    6.5495  -11.8578   27.2249 S   0  0  0  0  0  0  0  0  0  0  0  0
    8.2074  -14.4130   26.9775 C   0  0  0  0  0  0  0  0  0  0  0  0
    7.7762  -15.5757   27.1436 O   0  0  0  0  0  0  0  0  0  0  0  0
    8.9441  -13.8029   27.9671 O   0  0  0  0  0  0  0  0  0  0  0  0
  2  1  1  6
  3  4  1  0
  3  2  1  0
  4  8  1  0
  5  4  2  0
  6  7  2  0
  6  2  1  0
  9  6  1  0
 10 14  1  0
 10  9  1  0
 10 11  1  1
 12 11  1  0
 13 12  2  0
 14 17  1  0
 15 14  2  0
 16 12  1  0
 17 18  1  0
 18 21  1  0
 18 19  1  1
 20 19  1  0
 21 22  2  0
 21 23  1  0
M  END
$$$$
