DDC.pdb
     RDKit          3D

 23 22  0  0  1  0  0  0  0  0999 V2000
   12.5115  -17.7326   21.6301 N   0  0  0  0  0  0  0  0  0  0  0  0
   11.5478  -16.6778   21.8260 C   0  0  1  0  0  0  0  0  0  0  0  0
   10.5451  -16.7394   20.7203 C   0  0  0  0  0  0  0  0  0  0  0  0
   11.2411  -16.5135   19.4461 C   0  0  0  0  0  0  0  0  0  0  0  0
   12.4675  -16.3275   19.4261 O   0  0  0  0  0  0  0  0  0  0  0  0
   10.9666  -16.6882   23.1826 C   0  0  0  0  0  0  0  0  0  0  0  0
   10.1075  -15.8085   23.4473 O   0  0  0  0  0  0  0  0  0  0  0  0
   10.5353  -16.5071   18.2649 O   0  0  0  0  0  0  0  0  0  0  0  0
   11.3556  -17.6470   24.1520 N   0  0  0  0  0  0  0  0  0  0  0  0
   10.7522  -17.7498   25.4607 C   0  0  1  0  0  0  0  0  0  0  0  0
   10.8969  -19.0846   26.0972 C   0  0  0  0  0  0  0  0  0  0  0  0
   10.1433  -19.1581   27.3644 C   0  0  0  0  0  0  0  0  0  0  0  0
   10.7300  -18.9829   28.4416 O   0  0  0  0  0  0  0  0  0  0  0  0
   11.1551  -16.6335   26.3454 C   0  0  0  0  0  0  0  0  0  0  0  0
   12.3586  -16.3563   26.4961 O   0  0  0  0  0  0  0  0  0  0  0  0
    8.7940  -19.4202   27.3483 O   0  0  0  0  0  0  0  0  0  0  0  0
   10.1791  -15.8772   27.0232 N   0  0  0  0  0  0  0  0  0  0  0  0
   10.4833  -14.8711   28.0227 C   0  0  1  0  0  0  0  0  0  0  0  0
    9.3894  -13.8274   27.9160 C   0  0  0  0  0  0  0  0  0  0  0  0
    9.1353  -13.3319   26.1983 S   0  0  0  0  0  0  0  0  0  0  0  0
   10.6349  -15.4160   29.3715 C   0  0  0  0  0  0  0  0  0  0  0  0
   10.4568  -16.6364   29.5827 O   0  0  0  0  0  0  0  0  0  0  0  0
   10.9752  -14.5790   30.4097 O   0  0  0  0  0  0  0  0  0  0  0  0
  2  1  1  1
  3  4  1  0
  3  2  1  0
  4  8  1  0
  5  4  2  0
  6  7  2  0
  6  2  1  0
  9  6  1  0
 10 14  1  0
 10  9  1  0
 10 11  1  1
 12 11  1  0
 13 12  2  0
 14 17  1  0
 15 14  2  0
 16 12  1  0
 17 18  1  0
 18 21  1  0
 18 19  1  1
 20 19  1  0
 21 22  2  0
 21 23  1  0
M  END
$$$$
