DDC.pdb
     RDKit          3D

 23 22  0  0  1  0  0  0  0  0999 V2000
    9.1658  -16.7081   19.4429 N   0  0  0  0  0  0  0  0  0  0  0  0
    8.1005  -16.8017   20.4104 C   0  0  1  0  0  0  0  0  0  0  0  0
    7.3258  -18.0511   20.1443 C   0  0  0  0  0  0  0  0  0  0  0  0
    6.9708  -18.0854   18.7188 C   0  0  0  0  0  0  0  0  0  0  0  0
    7.5432  -17.3366   17.9122 O   0  0  0  0  0  0  0  0  0  0  0  0
    8.5835  -16.6632   21.7981 C   0  0  0  0  0  0  0  0  0  0  0  0
    7.7376  -16.8020   22.7185 O   0  0  0  0  0  0  0  0  0  0  0  0
    5.9995  -18.9502   18.2693 O   0  0  0  0  0  0  0  0  0  0  0  0
    9.9432  -16.3854   22.0890 N   0  0  0  0  0  0  0  0  0  0  0  0
   10.4340  -16.1032   23.4181 C   0  0  1  0  0  0  0  0  0  0  0  0
   11.9155  -16.0809   23.5304 C   0  0  0  0  0  0  0  0  0  0  0  0
   12.5112  -17.3246   23.0036 C   0  0  0  0  0  0  0  0  0  0  0  0
   13.1989  -17.2906   21.9734 O   0  0  0  0  0  0  0  0  0  0  0  0
    9.7852  -14.9099   24.0063 C   0  0  0  0  0  0  0  0  0  0  0  0
    9.5691  -13.9046   23.3057 O   0  0  0  0  0  0  0  0  0  0  0  0
   12.3030  -18.5169   23.6553 O   0  0  0  0  0  0  0  0  0  0  0  0
    9.4079  -14.9033   25.3633 N   0  0  0  0  0  0  0  0  0  0  0  0
    8.7600  -13.7835   26.0191 C   0  0  1  0  0  0  0  0  0  0  0  0
    7.5349  -13.4600   25.1874 C   0  0  0  0  0  0  0  0  0  0  0  0
    6.5237  -12.1984   25.9913 S   0  0  0  0  0  0  0  0  0  0  0  0
    8.4555  -14.0295   27.4283 C   0  0  0  0  0  0  0  0  0  0  0  0
    8.1812  -15.1849   27.8223 O   0  0  0  0  0  0  0  0  0  0  0  0
    8.4723  -12.9823   28.3213 O   0  0  0  0  0  0  0  0  0  0  0  0
  2  1  1  6
  3  4  1  0
  3  2  1  0
  4  8  1  0
  5  4  2  0
  6  7  2  0
  6  2  1  0
  9  6  1  0
 10 14  1  0
 10  9  1  0
 10 11  1  6
 12 11  1  0
 13 12  2  0
 14 17  1  0
 15 14  2  0
 16 12  1  0
 17 18  1  0
 18 21  1  0
 18 19  1  6
 20 19  1  0
 21 22  2  0
 21 23  1  0
M  END
$$$$
