DDC.pdb
     RDKit          3D

 23 22  0  0  1  0  0  0  0  0999 V2000
   11.0948  -16.4361   18.9974 N   0  0  0  0  0  0  0  0  0  0  0  0
   11.3855  -15.5428   20.0915 C   0  0  1  0  0  0  0  0  0  0  0  0
   11.8379  -14.2347   19.5293 C   0  0  0  0  0  0  0  0  0  0  0  0
   13.1886  -14.4064   18.9768 C   0  0  0  0  0  0  0  0  0  0  0  0
   13.4814  -13.9195   17.8740 O   0  0  0  0  0  0  0  0  0  0  0  0
   10.2697  -15.4444   21.0526 C   0  0  0  0  0  0  0  0  0  0  0  0
    9.4900  -14.4650   20.9310 O   0  0  0  0  0  0  0  0  0  0  0  0
   14.1389  -15.1097   19.6811 O   0  0  0  0  0  0  0  0  0  0  0  0
   10.0785  -16.4103   22.0729 N   0  0  0  0  0  0  0  0  0  0  0  0
    8.9535  -16.4025   22.9793 C   0  0  1  0  0  0  0  0  0  0  0  0
    8.7666  -17.6699   23.7322 C   0  0  0  0  0  0  0  0  0  0  0  0
    8.3863  -18.7763   22.8320 C   0  0  0  0  0  0  0  0  0  0  0  0
    9.2500  -19.3311   22.1381 O   0  0  0  0  0  0  0  0  0  0  0  0
    8.9483  -15.2021   23.8452 C   0  0  0  0  0  0  0  0  0  0  0  0
    9.1971  -14.0816   23.3648 O   0  0  0  0  0  0  0  0  0  0  0  0
    7.0769  -19.1893   22.7646 O   0  0  0  0  0  0  0  0  0  0  0  0
    8.6619  -15.3192   25.2194 N   0  0  0  0  0  0  0  0  0  0  0  0
    8.4103  -14.1898   26.0940 C   0  0  1  0  0  0  0  0  0  0  0  0
    7.3101  -13.3829   25.4339 C   0  0  0  0  0  0  0  0  0  0  0  0
    6.7373  -12.0609   26.5223 S   0  0  0  0  0  0  0  0  0  0  0  0
    8.1002  -14.5757   27.4702 C   0  0  0  0  0  0  0  0  0  0  0  0
    7.5905  -15.6923   27.7129 O   0  0  0  0  0  0  0  0  0  0  0  0
    8.3721  -13.7035   28.4996 O   0  0  0  0  0  0  0  0  0  0  0  0
  2  1  1  6
  3  4  1  0
  3  2  1  0
  4  8  1  0
  5  4  2  0
  6  7  2  0
  6  2  1  0
  9  6  1  0
 10 14  1  0
 10  9  1  0
 10 11  1  1
 12 11  1  0
 13 12  2  0
 14 17  1  0
 15 14  2  0
 16 12  1  0
 17 18  1  0
 18 21  1  0
 18 19  1  6
 20 19  1  0
 21 22  2  0
 21 23  1  0
M  END
$$$$
