DDC.pdb
     RDKit          3D

 23 22  0  0  1  0  0  0  0  0999 V2000
   11.1045  -16.9602   21.0772 N   0  0  0  0  0  0  0  0  0  0  0  0
    9.7604  -16.6542   21.5005 C   0  0  1  0  0  0  0  0  0  0  0  0
    8.8047  -17.3241   20.5678 C   0  0  0  0  0  0  0  0  0  0  0  0
    9.2976  -17.1552   19.1939 C   0  0  0  0  0  0  0  0  0  0  0  0
   10.3879  -16.6024   18.9828 O   0  0  0  0  0  0  0  0  0  0  0  0
    9.5356  -16.9531   22.9282 C   0  0  0  0  0  0  0  0  0  0  0  0
    8.3652  -16.8155   23.3677 O   0  0  0  0  0  0  0  0  0  0  0  0
    8.5513  -17.6103   18.1312 O   0  0  0  0  0  0  0  0  0  0  0  0
   10.5904  -17.3783   23.7749 N   0  0  0  0  0  0  0  0  0  0  0  0
   10.4308  -17.6184   25.1906 C   0  0  1  0  0  0  0  0  0  0  0  0
   11.0716  -18.8688   25.6743 C   0  0  0  0  0  0  0  0  0  0  0  0
   10.8427  -19.0632   27.1197 C   0  0  0  0  0  0  0  0  0  0  0  0
   11.7647  -18.8609   27.9225 O   0  0  0  0  0  0  0  0  0  0  0  0
   10.7863  -16.4295   25.9974 C   0  0  0  0  0  0  0  0  0  0  0  0
   11.9528  -15.9966   25.9955 O   0  0  0  0  0  0  0  0  0  0  0  0
    9.6095  -19.4675   27.5727 O   0  0  0  0  0  0  0  0  0  0  0  0
    9.8068  -15.7795   26.7735 N   0  0  0  0  0  0  0  0  0  0  0  0
   10.0924  -14.7057   27.7057 C   0  0  1  0  0  0  0  0  0  0  0  0
    8.8644  -13.8174   27.7138 C   0  0  0  0  0  0  0  0  0  0  0  0
    8.4764  -13.2370   26.0486 S   0  0  0  0  0  0  0  0  0  0  0  0
   10.4769  -15.1754   29.0364 C   0  0  0  0  0  0  0  0  0  0  0  0
   10.4299  -16.3947   29.3131 O   0  0  0  0  0  0  0  0  0  0  0  0
   10.8918  -14.2685   29.9850 O   0  0  0  0  0  0  0  0  0  0  0  0
  2  1  1  6
  3  4  1  0
  3  2  1  0
  4  8  1  0
  5  4  2  0
  6  7  2  0
  6  2  1  0
  9  6  1  0
 10 14  1  0
 10  9  1  0
 10 11  1  1
 12 11  1  0
 13 12  2  0
 14 17  1  0
 15 14  2  0
 16 12  1  0
 17 18  1  0
 18 21  1  0
 18 19  1  1
 20 19  1  0
 21 22  2  0
 21 23  1  0
M  END
$$$$
