DDC.pdb
     RDKit          3D

 23 22  0  0  1  0  0  0  0  0999 V2000
   10.5408  -17.1164   19.6375 N   0  0  0  0  0  0  0  0  0  0  0  0
   11.3181  -17.6938   20.7062 C   0  0  1  0  0  0  0  0  0  0  0  0
   12.6883  -17.0994   20.6715 C   0  0  0  0  0  0  0  0  0  0  0  0
   13.5178  -17.8925   19.7538 C   0  0  0  0  0  0  0  0  0  0  0  0
   13.3316  -19.1134   19.6369 O   0  0  0  0  0  0  0  0  0  0  0  0
   10.6405  -17.5974   22.0138 C   0  0  0  0  0  0  0  0  0  0  0  0
    9.3944  -17.4269   22.0051 O   0  0  0  0  0  0  0  0  0  0  0  0
   14.5080  -17.2842   19.0169 O   0  0  0  0  0  0  0  0  0  0  0  0
   11.3582  -17.6923   23.2330 N   0  0  0  0  0  0  0  0  0  0  0  0
   10.7254  -17.7314   24.5312 C   0  0  1  0  0  0  0  0  0  0  0  0
   11.1288  -18.8875   25.3730 C   0  0  0  0  0  0  0  0  0  0  0  0
   12.5314  -18.7634   25.8165 C   0  0  0  0  0  0  0  0  0  0  0  0
   12.7835  -18.5405   27.0090 O   0  0  0  0  0  0  0  0  0  0  0  0
   10.8247  -16.4330   25.2349 C   0  0  0  0  0  0  0  0  0  0  0  0
   11.8328  -15.7179   25.0917 O   0  0  0  0  0  0  0  0  0  0  0  0
   13.5544  -18.8950   24.9078 O   0  0  0  0  0  0  0  0  0  0  0  0
    9.7790  -15.9975   26.0721 N   0  0  0  0  0  0  0  0  0  0  0  0
    9.8260  -14.7821   26.8623 C   0  0  1  0  0  0  0  0  0  0  0  0
    8.5775  -14.0000   26.5065 C   0  0  0  0  0  0  0  0  0  0  0  0
    8.4388  -12.5104   27.5176 S   0  0  0  0  0  0  0  0  0  0  0  0
    9.9686  -15.0248   28.2975 C   0  0  0  0  0  0  0  0  0  0  0  0
    9.6223  -16.1219   28.7895 O   0  0  0  0  0  0  0  0  0  0  0  0
   10.4868  -14.0392   29.1065 O   0  0  0  0  0  0  0  0  0  0  0  0
  2  1  1  6
  3  4  1  0
  3  2  1  0
  4  8  1  0
  5  4  2  0
  6  7  2  0
  6  2  1  0
  9  6  1  0
 10 14  1  0
 10  9  1  0
 10 11  1  1
 12 11  1  0
 13 12  2  0
 14 17  1  0
 15 14  2  0
 16 12  1  0
 17 18  1  0
 18 21  1  0
 18 19  1  1
 20 19  1  0
 21 22  2  0
 21 23  1  0
M  END
$$$$
