DDC.pdb
     RDKit          3D

 23 22  0  0  1  0  0  0  0  0999 V2000
    9.8481  -14.9829   18.8696 N   0  0  0  0  0  0  0  0  0  0  0  0
   10.5134  -15.1530   20.1377 C   0  0  1  0  0  0  0  0  0  0  0  0
   11.6322  -14.1665   20.2231 C   0  0  0  0  0  0  0  0  0  0  0  0
   12.7510  -14.6583   19.4073 C   0  0  0  0  0  0  0  0  0  0  0  0
   13.0082  -15.8710   19.3620 O   0  0  0  0  0  0  0  0  0  0  0  0
    9.5759  -15.1174   21.2771 C   0  0  0  0  0  0  0  0  0  0  0  0
    8.8854  -14.0763   21.4219 O   0  0  0  0  0  0  0  0  0  0  0  0
   13.5217  -13.7746   18.6871 O   0  0  0  0  0  0  0  0  0  0  0  0
    9.4536  -16.2080   22.1749 N   0  0  0  0  0  0  0  0  0  0  0  0
    8.5137  -16.2380   23.2717 C   0  0  1  0  0  0  0  0  0  0  0  0
    8.1344  -17.6048   23.7141 C   0  0  0  0  0  0  0  0  0  0  0  0
    7.1667  -17.5579   24.8280 C   0  0  0  0  0  0  0  0  0  0  0  0
    6.0926  -16.9565   24.6865 O   0  0  0  0  0  0  0  0  0  0  0  0
    8.9344  -15.3588   24.3857 C   0  0  0  0  0  0  0  0  0  0  0  0
   10.1254  -15.3281   24.7446 O   0  0  0  0  0  0  0  0  0  0  0  0
    7.4575  -18.1802   26.0186 O   0  0  0  0  0  0  0  0  0  0  0  0
    7.9898  -14.5505   25.0478 N   0  0  0  0  0  0  0  0  0  0  0  0
    8.3335  -13.5448   26.0347 C   0  0  1  0  0  0  0  0  0  0  0  0
    7.1766  -12.5659   26.0588 C   0  0  0  0  0  0  0  0  0  0  0  0
    5.6786  -13.3522   26.6898 S   0  0  0  0  0  0  0  0  0  0  0  0
    8.6489  -14.1019   27.3497 C   0  0  0  0  0  0  0  0  0  0  0  0
    9.0499  -13.3565   28.2712 O   0  0  0  0  0  0  0  0  0  0  0  0
    8.5022  -15.4526   27.5699 O   0  0  0  0  0  0  0  0  0  0  0  0
  2  1  1  6
  3  4  1  0
  3  2  1  0
  4  8  1  0
  5  4  2  0
  6  7  2  0
  6  2  1  0
  9  6  1  0
 10 14  1  0
 10  9  1  0
 10 11  1  1
 12 11  1  0
 13 12  2  0
 14 17  1  0
 15 14  2  0
 16 12  1  0
 17 18  1  0
 18 21  1  0
 18 19  1  1
 20 19  1  0
 21 22  2  0
 21 23  1  0
M  END
$$$$
