DDC.pdb
     RDKit          3D

 23 22  0  0  1  0  0  0  0  0999 V2000
    9.7000  -17.3531   19.7003 N   0  0  0  0  0  0  0  0  0  0  0  0
    8.8034  -16.2732   20.0311 C   0  0  1  0  0  0  0  0  0  0  0  0
    7.7110  -16.2342   19.0127 C   0  0  0  0  0  0  0  0  0  0  0  0
    8.3159  -16.0483   17.6866 C   0  0  0  0  0  0  0  0  0  0  0  0
    9.5476  -15.9622   17.5660 O   0  0  0  0  0  0  0  0  0  0  0  0
    8.3361  -16.3349   21.4298 C   0  0  0  0  0  0  0  0  0  0  0  0
    7.0996  -16.2203   21.6291 O   0  0  0  0  0  0  0  0  0  0  0  0
    7.5181  -15.9688   16.5682 O   0  0  0  0  0  0  0  0  0  0  0  0
    9.2381  -16.5157   22.5088 N   0  0  0  0  0  0  0  0  0  0  0  0
    8.8279  -16.5634   23.8932 C   0  0  1  0  0  0  0  0  0  0  0  0
    9.3065  -17.7608   24.6315 C   0  0  0  0  0  0  0  0  0  0  0  0
    8.9877  -17.6660   26.0697 C   0  0  0  0  0  0  0  0  0  0  0  0
    7.8057  -17.6790   26.4413 O   0  0  0  0  0  0  0  0  0  0  0  0
    9.1074  -15.2919   24.5977 C   0  0  0  0  0  0  0  0  0  0  0  0
   10.2610  -14.8259   24.6159 O   0  0  0  0  0  0  0  0  0  0  0  0
   10.0003  -17.5637   26.9936 O   0  0  0  0  0  0  0  0  0  0  0  0
    8.0699  -14.6003   25.2528 N   0  0  0  0  0  0  0  0  0  0  0  0
    8.2561  -13.3597   25.9807 C   0  0  1  0  0  0  0  0  0  0  0  0
    6.9963  -12.5472   25.7571 C   0  0  0  0  0  0  0  0  0  0  0  0
    5.5820  -13.3089   26.5816 S   0  0  0  0  0  0  0  0  0  0  0  0
    8.5764  -13.5553   27.3943 C   0  0  0  0  0  0  0  0  0  0  0  0
    8.5026  -14.6946   27.9062 O   0  0  0  0  0  0  0  0  0  0  0  0
    8.9604  -12.4785   28.1607 O   0  0  0  0  0  0  0  0  0  0  0  0
  2  1  1  6
  3  4  1  0
  3  2  1  0
  4  8  1  0
  5  4  2  0
  6  7  2  0
  6  2  1  0
  9  6  1  0
 10 14  1  0
 10  9  1  0
 10 11  1  1
 12 11  1  0
 13 12  2  0
 14 17  1  0
 15 14  2  0
 16 12  1  0
 17 18  1  0
 18 21  1  0
 18 19  1  1
 20 19  1  0
 21 22  2  0
 21 23  1  0
M  END
$$$$
