DDC.pdb
     RDKit          3D

 23 22  0  0  1  0  0  0  0  0999 V2000
    9.1683  -15.6684   19.2241 N   0  0  0  0  0  0  0  0  0  0  0  0
    8.4748  -14.4978   19.7021 C   0  0  1  0  0  0  0  0  0  0  0  0
    7.4374  -14.1169   18.6968 C   0  0  0  0  0  0  0  0  0  0  0  0
    8.0800  -14.0137   17.3794 C   0  0  0  0  0  0  0  0  0  0  0  0
    9.2634  -14.3549   17.2308 O   0  0  0  0  0  0  0  0  0  0  0  0
    7.9646  -14.6652   21.0769 C   0  0  0  0  0  0  0  0  0  0  0  0
    7.2709  -13.7294   21.5512 O   0  0  0  0  0  0  0  0  0  0  0  0
    7.3714  -13.5370   16.3005 O   0  0  0  0  0  0  0  0  0  0  0  0
    8.2409  -15.8298   21.8370 N   0  0  0  0  0  0  0  0  0  0  0  0
    7.7106  -16.0643   23.1603 C   0  0  1  0  0  0  0  0  0  0  0  0
    7.8512  -17.4651   23.6355 C   0  0  0  0  0  0  0  0  0  0  0  0
    7.1727  -18.4096   22.7262 C   0  0  0  0  0  0  0  0  0  0  0  0
    5.9580  -18.2935   22.5112 O   0  0  0  0  0  0  0  0  0  0  0  0
    8.1971  -15.0641   24.1370 C   0  0  0  0  0  0  0  0  0  0  0  0
    9.4112  -14.8037   24.2155 O   0  0  0  0  0  0  0  0  0  0  0  0
    7.8877  -19.4150   22.1201 O   0  0  0  0  0  0  0  0  0  0  0  0
    7.2893  -14.4000   24.9848 N   0  0  0  0  0  0  0  0  0  0  0  0
    7.6845  -13.4773   26.0318 C   0  0  1  0  0  0  0  0  0  0  0  0
    6.5006  -12.5566   26.2506 C   0  0  0  0  0  0  0  0  0  0  0  0
    6.8311  -11.3860   27.5851 S   0  0  0  0  0  0  0  0  0  0  0  0
    8.1364  -14.1410   27.2542 C   0  0  0  0  0  0  0  0  0  0  0  0
    7.8476  -15.3400   27.4649 O   0  0  0  0  0  0  0  0  0  0  0  0
    8.8827  -13.4396   28.1738 O   0  0  0  0  0  0  0  0  0  0  0  0
  2  1  1  6
  3  4  1  0
  3  2  1  0
  4  8  1  0
  5  4  2  0
  6  7  2  0
  6  2  1  0
  9  6  1  0
 10 14  1  0
 10  9  1  0
 10 11  1  1
 12 11  1  0
 13 12  2  0
 14 17  1  0
 15 14  2  0
 16 12  1  0
 17 18  1  0
 18 21  1  0
 18 19  1  1
 20 19  1  0
 21 22  2  0
 21 23  1  0
M  END
$$$$
