KWI.pdb
     RDKit          3D

 32 33  0  0  1  0  0  0  0  0999 V2000
   25.6146  -20.3718  -14.7838 N   0  0  0  0  0  0  0  0  0  0  0  0
   26.5743  -20.9195  -13.8459 C   0  0  1  0  0  0  0  0  0  0  0  0
   27.9342  -20.3674  -14.2967 C   0  0  0  0  0  0  0  0  0  0  0  0
   28.3207  -21.1483  -15.5374 C   0  0  0  0  0  0  0  0  0  0  0  0
   29.2902  -20.3704  -16.4005 C   0  0  0  0  0  0  0  0  0  0  0  0
   29.5374  -21.1755  -17.6569 C   0  0  0  0  0  0  0  0  0  0  0  0
   30.4754  -20.4522  -18.4784 N   0  0  0  0  0  0  0  0  0  0  0  0
   26.2981  -20.3911  -12.5094 C   0  0  0  0  0  0  0  0  0  0  0  0
   26.0325  -19.1781  -12.3596 O   0  0  0  0  0  0  0  0  0  0  0  0
   26.3183  -21.2218  -11.3297 N   0  0  0  0  0  0  0  0  0  0  0  0
   25.9551  -20.6948  -10.0522 C   0  0  1  0  0  0  0  0  0  0  0  0
   24.6549  -21.2579   -9.5258 C   0  0  0  0  0  0  0  0  0  0  0  0
   23.4934  -20.6436  -10.2024 C   0  0  0  0  0  0  0  0  0  0  0  0
   22.6609  -19.6513   -9.7409 C   0  0  0  0  0  0  0  0  0  0  0  0
   21.7266  -19.3793  -10.6667 N   0  0  0  0  0  0  0  0  0  0  0  0
   21.9019  -20.1600  -11.7445 C   0  0  0  0  0  0  0  0  0  0  0  0
   21.2550  -20.3048  -12.9574 C   0  0  0  0  0  0  0  0  0  0  0  0
   21.6805  -21.2298  -13.9104 C   0  0  0  0  0  0  0  0  0  0  0  0
   22.7749  -22.0086  -13.6156 C   0  0  0  0  0  0  0  0  0  0  0  0
   23.4151  -21.8595  -12.4052 C   0  0  0  0  0  0  0  0  0  0  0  0
   23.0039  -20.9514  -11.4601 C   0  0  0  0  0  0  0  0  0  0  0  0
   27.0413  -21.0146   -9.0914 C   0  0  0  0  0  0  0  0  0  0  0  0
   27.7475  -22.0205   -9.2471 O   0  0  0  0  0  0  0  0  0  0  0  0
   30.6426  -18.7194   -4.6305 C   0  0  0  0  0  0  0  0  0  0  0  0
   29.8237  -19.8437   -5.1989 C   0  0  0  0  0  0  0  0  0  0  0  0
   28.8497  -19.3939   -6.2614 C   0  0  2  0  0  0  0  0  0  0  0  0
   27.9531  -18.3440   -5.6783 C   0  0  0  0  0  0  0  0  0  0  0  0
   28.0729  -20.5557   -6.8398 C   0  0  2  0  0  0  0  0  0  0  0  0
   27.2823  -20.1655   -7.9774 N   0  0  0  0  0  0  0  0  0  0  0  0
   27.2070  -21.1789   -5.7849 C   0  0  0  0  0  0  0  0  0  0  0  0
   27.6936  -21.8560   -4.8438 O   0  0  0  0  0  0  0  0  0  0  0  0
   25.8345  -21.0196   -5.8257 O   0  0  0  0  0  0  0  0  0  0  0  0
  2  3  1  0
  2  1  1  6
  3  4  1  0
  5  4  1  0
  6  5  1  0
  7  6  1  0
  8  2  1  0
  8  9  2  0
 10  8  1  0
 11 10  1  0
 11 22  1  0
 11 12  1  1
 13 12  1  0
 13 14  2  0
 15 14  1  0
 16 15  1  0
 17 16  2  0
 18 17  1  0
 19 18  2  0
 19 20  1  0
 20 21  2  0
 21 16  1  0
 21 13  1  0
 22 23  2  0
 22 29  1  0
 24 25  1  0
 25 26  1  0
 26 28  1  0
 26 27  1  1
 28 30  1  0
 28 29  1  6
 30 31  2  0
 30 32  1  0
M  END
$$$$
