KWI.pdb
     RDKit          3D

 32 33  0  0  1  0  0  0  0  0999 V2000
   26.0813  -23.0266  -16.4864 N   0  0  0  0  0  0  0  0  0  0  0  0
   27.4348  -22.7160  -16.0717 C   0  0  1  0  0  0  0  0  0  0  0  0
   28.0215  -21.8776  -17.2164 C   0  0  0  0  0  0  0  0  0  0  0  0
   28.4605  -22.8614  -18.2831 C   0  0  0  0  0  0  0  0  0  0  0  0
   27.2750  -23.4301  -19.0323 C   0  0  0  0  0  0  0  0  0  0  0  0
   27.8050  -24.3901  -20.0740 C   0  0  0  0  0  0  0  0  0  0  0  0
   28.5143  -25.4454  -19.3950 N   0  0  0  0  0  0  0  0  0  0  0  0
   27.3916  -21.8725  -14.8766 C   0  0  0  0  0  0  0  0  0  0  0  0
   28.4430  -21.3575  -14.4368 O   0  0  0  0  0  0  0  0  0  0  0  0
   26.1658  -21.6009  -14.1653 N   0  0  0  0  0  0  0  0  0  0  0  0
   26.1062  -20.5840  -13.1632 C   0  0  1  0  0  0  0  0  0  0  0  0
   24.9298  -19.6506  -13.3342 C   0  0  0  0  0  0  0  0  0  0  0  0
   24.9709  -18.9737  -14.6474 C   0  0  0  0  0  0  0  0  0  0  0  0
   23.9778  -18.8821  -15.5940 C   0  0  0  0  0  0  0  0  0  0  0  0
   24.4227  -18.1788  -16.6481 N   0  0  0  0  0  0  0  0  0  0  0  0
   25.6911  -17.7902  -16.4433 C   0  0  0  0  0  0  0  0  0  0  0  0
   26.6167  -17.0651  -17.1701 C   0  0  0  0  0  0  0  0  0  0  0  0
   27.8987  -16.8135  -16.6823 C   0  0  0  0  0  0  0  0  0  0  0  0
   28.2304  -17.3088  -15.4431 C   0  0  0  0  0  0  0  0  0  0  0  0
   27.3036  -18.0306  -14.7238 C   0  0  0  0  0  0  0  0  0  0  0  0
   26.0385  -18.2838  -15.1953 C   0  0  0  0  0  0  0  0  0  0  0  0
   26.0073  -21.2439  -11.8365 C   0  0  0  0  0  0  0  0  0  0  0  0
   25.6936  -22.4390  -11.7464 O   0  0  0  0  0  0  0  0  0  0  0  0
   28.6948  -19.2619   -7.3007 C   0  0  0  0  0  0  0  0  0  0  0  0
   28.0350  -20.1640   -8.3050 C   0  0  0  0  0  0  0  0  0  0  0  0
   26.5269  -20.1197   -8.2460 C   0  0  2  0  0  0  0  0  0  0  0  0
   26.0866  -20.5428   -6.8774 C   0  0  0  0  0  0  0  0  0  0  0  0
   25.8970  -20.9575   -9.3365 C   0  0  2  0  0  0  0  0  0  0  0  0
   26.2724  -20.5067  -10.6507 N   0  0  0  0  0  0  0  0  0  0  0  0
   24.4040  -20.9661   -9.1886 C   0  0  0  0  0  0  0  0  0  0  0  0
   23.6797  -20.0944   -9.7330 O   0  0  0  0  0  0  0  0  0  0  0  0
   23.7833  -21.9477   -8.4391 O   0  0  0  0  0  0  0  0  0  0  0  0
  2  3  1  0
  2  1  1  6
  3  4  1  0
  5  4  1  0
  6  5  1  0
  7  6  1  0
  8  2  1  0
  8  9  2  0
 10  8  1  0
 11 10  1  0
 11 22  1  0
 11 12  1  6
 13 12  1  0
 13 14  2  0
 15 14  1  0
 16 15  1  0
 17 16  2  0
 18 17  1  0
 19 18  2  0
 19 20  1  0
 20 21  2  0
 21 16  1  0
 21 13  1  0
 22 23  2  0
 22 29  1  0
 24 25  1  0
 25 26  1  0
 26 28  1  0
 26 27  1  1
 28 30  1  0
 28 29  1  6
 30 31  2  0
 30 32  1  0
M  END
$$$$
