KWI.pdb
     RDKit          3D

 32 33  0  0  1  0  0  0  0  0999 V2000
   20.6357  -20.2959  -11.0904 N   0  0  0  0  0  0  0  0  0  0  0  0
   21.7293  -21.1248  -11.5566 C   0  0  1  0  0  0  0  0  0  0  0  0
   21.6604  -21.0536  -13.0887 C   0  0  0  0  0  0  0  0  0  0  0  0
   21.0582  -22.3664  -13.5494 C   0  0  0  0  0  0  0  0  0  0  0  0
   22.1174  -23.4360  -13.7055 C   0  0  0  0  0  0  0  0  0  0  0  0
   21.4645  -24.6419  -14.3434 C   0  0  0  0  0  0  0  0  0  0  0  0
   22.4589  -25.6776  -14.4719 N   0  0  0  0  0  0  0  0  0  0  0  0
   22.9987  -20.5288  -11.1380 C   0  0  0  0  0  0  0  0  0  0  0  0
   23.3635  -19.4335  -11.6191 O   0  0  0  0  0  0  0  0  0  0  0  0
   23.8690  -21.1591  -10.1750 N   0  0  0  0  0  0  0  0  0  0  0  0
   25.1624  -20.6227   -9.8901 C   0  0  1  0  0  0  0  0  0  0  0  0
   25.7434  -21.1327   -8.5913 C   0  0  0  0  0  0  0  0  0  0  0  0
   26.5895  -20.1077   -7.9451 C   0  0  0  0  0  0  0  0  0  0  0  0
   26.7318  -18.7814   -8.2788 C   0  0  0  0  0  0  0  0  0  0  0  0
   27.5993  -18.1950   -7.4376 N   0  0  0  0  0  0  0  0  0  0  0  0
   28.0501  -19.0870   -6.5416 C   0  0  0  0  0  0  0  0  0  0  0  0
   28.9311  -19.0381   -5.4775 C   0  0  0  0  0  0  0  0  0  0  0  0
   29.2098  -20.1639   -4.7030 C   0  0  0  0  0  0  0  0  0  0  0  0
   28.5807  -21.3440   -5.0234 C   0  0  0  0  0  0  0  0  0  0  0  0
   27.7040  -21.3862   -6.0849 C   0  0  0  0  0  0  0  0  0  0  0  0
   27.4227  -20.2831   -6.8537 C   0  0  0  0  0  0  0  0  0  0  0  0
   26.0744  -20.9923  -11.0024 C   0  0  0  0  0  0  0  0  0  0  0  0
   26.2416  -22.1793  -11.3153 O   0  0  0  0  0  0  0  0  0  0  0  0
   27.1394  -16.8403  -14.6700 C   0  0  0  0  0  0  0  0  0  0  0  0
   26.7641  -18.1546  -14.0461 C   0  0  0  0  0  0  0  0  0  0  0  0
   27.9577  -18.9689  -13.6079 C   0  0  2  0  0  0  0  0  0  0  0  0
   28.8245  -19.2325  -14.8017 C   0  0  0  0  0  0  0  0  0  0  0  0
   27.5420  -20.2435  -12.9075 C   0  0  2  0  0  0  0  0  0  0  0  0
   26.7684  -19.9824  -11.7223 N   0  0  0  0  0  0  0  0  0  0  0  0
   28.7481  -21.0727  -12.5778 C   0  0  0  0  0  0  0  0  0  0  0  0
   29.4609  -20.8331  -11.5701 O   0  0  0  0  0  0  0  0  0  0  0  0
   29.1070  -22.1341  -13.3872 O   0  0  0  0  0  0  0  0  0  0  0  0
  2  3  1  0
  2  1  1  1
  3  4  1  0
  5  4  1  0
  6  5  1  0
  7  6  1  0
  8  2  1  0
  8  9  2  0
 10  8  1  0
 11 10  1  0
 11 22  1  0
 11 12  1  1
 13 12  1  0
 13 14  2  0
 15 14  1  0
 16 15  1  0
 17 16  2  0
 18 17  1  0
 19 18  2  0
 19 20  1  0
 20 21  2  0
 21 16  1  0
 21 13  1  0
 22 23  2  0
 22 29  1  0
 24 25  1  0
 25 26  1  0
 26 28  1  0
 26 27  1  6
 28 30  1  0
 28 29  1  1
 30 31  2  0
 30 32  1  0
M  END
$$$$
