KWI.pdb
     RDKit          3D

 32 33  0  0  1  0  0  0  0  0999 V2000
   29.3149  -21.6334  -13.7632 N   0  0  0  0  0  0  0  0  0  0  0  0
   28.4249  -20.5580  -13.3736 C   0  0  1  0  0  0  0  0  0  0  0  0
   27.8798  -19.9921  -14.6927 C   0  0  0  0  0  0  0  0  0  0  0  0
   29.0764  -19.4523  -15.4512 C   0  0  0  0  0  0  0  0  0  0  0  0
   29.1473  -20.0233  -16.8508 C   0  0  0  0  0  0  0  0  0  0  0  0
   30.3025  -19.3558  -17.5633 C   0  0  0  0  0  0  0  0  0  0  0  0
   30.5237  -20.0468  -18.8089 N   0  0  0  0  0  0  0  0  0  0  0  0
   27.2964  -21.1130  -12.6251 C   0  0  0  0  0  0  0  0  0  0  0  0
   26.4032  -21.7518  -13.2237 O   0  0  0  0  0  0  0  0  0  0  0  0
   27.1623  -20.9545  -11.1972 N   0  0  0  0  0  0  0  0  0  0  0  0
   26.0648  -21.5375  -10.4918 C   0  0  1  0  0  0  0  0  0  0  0  0
   26.3812  -21.8362   -9.0444 C   0  0  0  0  0  0  0  0  0  0  0  0
   26.7280  -20.6030   -8.3074 C   0  0  0  0  0  0  0  0  0  0  0  0
   26.4337  -19.3001   -8.6337 C   0  0  0  0  0  0  0  0  0  0  0  0
   26.9312  -18.4768   -7.6964 N   0  0  0  0  0  0  0  0  0  0  0  0
   27.5555  -19.1851   -6.7423 C   0  0  0  0  0  0  0  0  0  0  0  0
   28.2278  -18.8679   -5.5769 C   0  0  0  0  0  0  0  0  0  0  0  0
   28.7893  -19.8511   -4.7626 C   0  0  0  0  0  0  0  0  0  0  0  0
   28.6593  -21.1648   -5.1477 C   0  0  0  0  0  0  0  0  0  0  0  0
   27.9883  -21.4743   -6.3100 C   0  0  0  0  0  0  0  0  0  0  0  0
   27.4317  -20.5135   -7.1187 C   0  0  0  0  0  0  0  0  0  0  0  0
   24.9208  -20.5923  -10.5486 C   0  0  0  0  0  0  0  0  0  0  0  0
   25.1000  -19.3738  -10.4143 O   0  0  0  0  0  0  0  0  0  0  0  0
   22.2631  -18.8625  -14.9891 C   0  0  0  0  0  0  0  0  0  0  0  0
   21.9273  -19.1645  -13.5560 C   0  0  0  0  0  0  0  0  0  0  0  0
   22.9291  -20.0758  -12.8883 C   0  0  2  0  0  0  0  0  0  0  0  0
   23.0275  -21.3444  -13.6799 C   0  0  0  0  0  0  0  0  0  0  0  0
   22.5793  -20.3292  -11.4386 C   0  0  2  0  0  0  0  0  0  0  0  0
   23.6021  -21.0790  -10.7581 N   0  0  0  0  0  0  0  0  0  0  0  0
   21.2566  -21.0300  -11.3377 C   0  0  0  0  0  0  0  0  0  0  0  0
   21.1480  -22.2691  -11.5220 O   0  0  0  0  0  0  0  0  0  0  0  0
   20.1113  -20.3176  -11.0355 O   0  0  0  0  0  0  0  0  0  0  0  0
  2  3  1  0
  2  1  1  6
  3  4  1  0
  5  4  1  0
  6  5  1  0
  7  6  1  0
  8  2  1  0
  8  9  2  0
 10  8  1  0
 11 10  1  0
 11 22  1  0
 11 12  1  1
 13 12  1  0
 13 14  2  0
 15 14  1  0
 16 15  1  0
 17 16  2  0
 18 17  1  0
 19 18  2  0
 19 20  1  0
 20 21  2  0
 21 16  1  0
 21 13  1  0
 22 23  2  0
 22 29  1  0
 24 25  1  0
 25 26  1  0
 26 28  1  0
 26 27  1  6
 28 30  1  0
 28 29  1  6
 30 31  2  0
 30 32  1  0
M  END
$$$$
