KWI.pdb
     RDKit          3D

 32 33  0  0  1  0  0  0  0  0999 V2000
   28.1639  -18.6945  -18.9602 N   0  0  0  0  0  0  0  0  0  0  0  0
   27.2337  -18.0563  -18.0504 C   0  0  1  0  0  0  0  0  0  0  0  0
   25.9569  -17.8348  -18.8737 C   0  0  0  0  0  0  0  0  0  0  0  0
   25.5884  -16.3741  -18.7035 C   0  0  0  0  0  0  0  0  0  0  0  0
   24.2795  -16.0503  -19.3904 C   0  0  0  0  0  0  0  0  0  0  0  0
   24.0362  -14.5648  -19.2425 C   0  0  0  0  0  0  0  0  0  0  0  0
   22.7824  -14.2479  -19.8794 N   0  0  0  0  0  0  0  0  0  0  0  0
   26.9101  -18.9817  -16.9638 C   0  0  0  0  0  0  0  0  0  0  0  0
   26.4444  -20.1128  -17.2243 O   0  0  0  0  0  0  0  0  0  0  0  0
   27.1071  -18.6434  -15.5750 N   0  0  0  0  0  0  0  0  0  0  0  0
   26.7697  -19.5663  -14.5376 C   0  0  1  0  0  0  0  0  0  0  0  0
   27.5880  -19.3726  -13.2817 C   0  0  0  0  0  0  0  0  0  0  0  0
   27.2290  -20.3687  -12.2506 C   0  0  0  0  0  0  0  0  0  0  0  0
   27.4077  -21.7317  -12.2790 C   0  0  0  0  0  0  0  0  0  0  0  0
   26.9434  -22.2716  -11.1402 N   0  0  0  0  0  0  0  0  0  0  0  0
   26.4541  -21.3122  -10.3390 C   0  0  0  0  0  0  0  0  0  0  0  0
   25.8693  -21.2941   -9.0866 C   0  0  0  0  0  0  0  0  0  0  0  0
   25.4477  -20.1058   -8.4906 C   0  0  0  0  0  0  0  0  0  0  0  0
   25.6280  -18.9322   -9.1842 C   0  0  0  0  0  0  0  0  0  0  0  0
   26.2113  -18.9569  -10.4317 C   0  0  0  0  0  0  0  0  0  0  0  0
   26.6298  -20.1218  -11.0274 C   0  0  0  0  0  0  0  0  0  0  0  0
   25.3328  -19.3894  -14.2070 C   0  0  0  0  0  0  0  0  0  0  0  0
   24.8655  -18.2606  -14.0015 O   0  0  0  0  0  0  0  0  0  0  0  0
   21.4788  -19.9954  -17.2146 C   0  0  0  0  0  0  0  0  0  0  0  0
   22.3429  -19.7135  -16.0182 C   0  0  0  0  0  0  0  0  0  0  0  0
   22.1624  -20.7154  -14.9031 C   0  0  2  0  0  0  0  0  0  0  0  0
   20.7213  -20.7226  -14.4918 C   0  0  0  0  0  0  0  0  0  0  0  0
   23.0898  -20.4362  -13.7412 C   0  0  2  0  0  0  0  0  0  0  0  0
   24.4751  -20.5195  -14.1222 N   0  0  0  0  0  0  0  0  0  0  0  0
   22.7979  -21.3731  -12.6063 C   0  0  0  0  0  0  0  0  0  0  0  0
   23.2878  -22.5302  -12.5602 O   0  0  0  0  0  0  0  0  0  0  0  0
   21.9714  -20.9783  -11.5712 O   0  0  0  0  0  0  0  0  0  0  0  0
  2  3  1  0
  2  1  1  6
  3  4  1  0
  5  4  1  0
  6  5  1  0
  7  6  1  0
  8  2  1  0
  8  9  2  0
 10  8  1  0
 11 10  1  0
 11 22  1  0
 11 12  1  1
 13 12  1  0
 13 14  2  0
 15 14  1  0
 16 15  1  0
 17 16  2  0
 18 17  1  0
 19 18  2  0
 19 20  1  0
 20 21  2  0
 21 16  1  0
 21 13  1  0
 22 23  2  0
 22 29  1  0
 24 25  1  0
 25 26  1  0
 26 28  1  0
 26 27  1  1
 28 30  1  0
 28 29  1  6
 30 31  2  0
 30 32  1  0
M  END
$$$$
