KWI.pdb
     RDKit          3D

 32 33  0  0  1  0  0  0  0  0999 V2000
   28.5844  -21.5790  -15.8942 N   0  0  0  0  0  0  0  0  0  0  0  0
   28.3128  -20.5714  -14.8886 C   0  0  1  0  0  0  0  0  0  0  0  0
   27.3965  -19.5521  -15.5807 C   0  0  0  0  0  0  0  0  0  0  0  0
   28.2340  -18.8879  -16.6559 C   0  0  0  0  0  0  0  0  0  0  0  0
   27.4211  -17.8906  -17.4525 C   0  0  0  0  0  0  0  0  0  0  0  0
   28.0312  -16.5231  -17.2391 C   0  0  0  0  0  0  0  0  0  0  0  0
   29.2277  -16.4337  -18.0380 N   0  0  0  0  0  0  0  0  0  0  0  0
   27.5586  -21.1770  -13.7903 C   0  0  0  0  0  0  0  0  0  0  0  0
   26.8253  -22.1667  -14.0070 O   0  0  0  0  0  0  0  0  0  0  0  0
   27.6221  -20.6750  -12.4390 N   0  0  0  0  0  0  0  0  0  0  0  0
   26.9903  -21.3730  -11.3641 C   0  0  1  0  0  0  0  0  0  0  0  0
   27.8702  -21.5021  -10.1420 C   0  0  0  0  0  0  0  0  0  0  0  0
   27.2291  -20.8978   -8.9554 C   0  0  0  0  0  0  0  0  0  0  0  0
   25.8904  -20.6931   -8.7174 C   0  0  0  0  0  0  0  0  0  0  0  0
   25.7289  -20.1151   -7.5159 N   0  0  0  0  0  0  0  0  0  0  0  0
   26.9216  -19.9216   -6.9312 C   0  0  0  0  0  0  0  0  0  0  0  0
   27.3407  -19.3835   -5.7289 C   0  0  0  0  0  0  0  0  0  0  0  0
   28.6909  -19.3152   -5.3862 C   0  0  0  0  0  0  0  0  0  0  0  0
   29.6133  -19.8018   -6.2825 C   0  0  0  0  0  0  0  0  0  0  0  0
   29.1893  -20.3367   -7.4789 C   0  0  0  0  0  0  0  0  0  0  0  0
   27.8621  -20.4086   -7.8257 C   0  0  0  0  0  0  0  0  0  0  0  0
   25.7564  -20.6352  -10.9921 C   0  0  0  0  0  0  0  0  0  0  0  0
   25.8193  -19.4785  -10.5528 O   0  0  0  0  0  0  0  0  0  0  0  0
   22.6500  -18.7910  -15.0329 C   0  0  0  0  0  0  0  0  0  0  0  0
   22.4369  -19.2793  -13.6280 C   0  0  0  0  0  0  0  0  0  0  0  0
   23.5749  -20.1274  -13.1126 C   0  0  2  0  0  0  0  0  0  0  0  0
   23.7809  -21.2775  -14.0511 C   0  0  0  0  0  0  0  0  0  0  0  0
   23.3368  -20.5828  -11.6900 C   0  0  2  0  0  0  0  0  0  0  0  0
   24.4843  -21.2524  -11.1367 N   0  0  0  0  0  0  0  0  0  0  0  0
   22.1270  -21.4676  -11.6228 C   0  0  0  0  0  0  0  0  0  0  0  0
   20.9902  -21.0140  -11.3350 O   0  0  0  0  0  0  0  0  0  0  0  0
   22.2380  -22.8212  -11.8797 O   0  0  0  0  0  0  0  0  0  0  0  0
  2  3  1  0
  2  1  1  6
  3  4  1  0
  5  4  1  0
  6  5  1  0
  7  6  1  0
  8  2  1  0
  8  9  2  0
 10  8  1  0
 11 10  1  0
 11 22  1  0
 11 12  1  1
 13 12  1  0
 13 14  2  0
 15 14  1  0
 16 15  1  0
 17 16  2  0
 18 17  1  0
 19 18  2  0
 19 20  1  0
 20 21  2  0
 21 16  1  0
 21 13  1  0
 22 23  2  0
 22 29  1  0
 24 25  1  0
 25 26  1  0
 26 28  1  0
 26 27  1  6
 28 30  1  0
 28 29  1  6
 30 31  2  0
 30 32  1  0
M  END
$$$$
