KWI.pdb
     RDKit          3D

 32 33  0  0  1  0  0  0  0  0999 V2000
   27.8701  -22.6236  -15.5620 N   0  0  0  0  0  0  0  0  0  0  0  0
   27.9723  -21.3478  -14.8821 C   0  0  1  0  0  0  0  0  0  0  0  0
   27.2172  -20.3554  -15.7778 C   0  0  0  0  0  0  0  0  0  0  0  0
   28.2747  -19.5487  -16.5054 C   0  0  0  0  0  0  0  0  0  0  0  0
   27.9438  -19.4011  -17.9747 C   0  0  0  0  0  0  0  0  0  0  0  0
   29.0332  -18.5669  -18.6112 C   0  0  0  0  0  0  0  0  0  0  0  0
   28.7018  -18.3775  -20.0012 N   0  0  0  0  0  0  0  0  0  0  0  0
   27.2640  -21.4245  -13.6037 C   0  0  0  0  0  0  0  0  0  0  0  0
   26.1252  -21.9387  -13.5502 O   0  0  0  0  0  0  0  0  0  0  0  0
   27.8298  -20.9235  -12.3745 N   0  0  0  0  0  0  0  0  0  0  0  0
   27.1388  -21.0706  -11.1325 C   0  0  1  0  0  0  0  0  0  0  0  0
   27.9670  -20.6520   -9.9395 C   0  0  0  0  0  0  0  0  0  0  0  0
   27.2012  -20.7882   -8.6828 C   0  0  0  0  0  0  0  0  0  0  0  0
   25.9304  -21.2822   -8.5046 C   0  0  0  0  0  0  0  0  0  0  0  0
   25.6054  -21.2325   -7.2024 N   0  0  0  0  0  0  0  0  0  0  0  0
   26.6209  -20.7181   -6.4912 C   0  0  0  0  0  0  0  0  0  0  0  0
   26.8319  -20.4446   -5.1527 C   0  0  0  0  0  0  0  0  0  0  0  0
   28.0283  -19.8922   -4.6962 C   0  0  0  0  0  0  0  0  0  0  0  0
   29.0112  -19.6202   -5.6186 C   0  0  0  0  0  0  0  0  0  0  0  0
   28.7948  -19.8950   -6.9508 C   0  0  0  0  0  0  0  0  0  0  0  0
   27.6202  -20.4390   -7.4105 C   0  0  0  0  0  0  0  0  0  0  0  0
   25.9111  -20.2365  -11.1818 C   0  0  0  0  0  0  0  0  0  0  0  0
   25.9780  -19.0051  -11.0634 O   0  0  0  0  0  0  0  0  0  0  0  0
   23.4997  -19.2751  -15.2397 C   0  0  0  0  0  0  0  0  0  0  0  0
   23.9229  -19.3199  -13.7987 C   0  0  0  0  0  0  0  0  0  0  0  0
   22.9258  -20.0189  -12.9060 C   0  0  2  0  0  0  0  0  0  0  0  0
   21.6063  -19.3172  -13.0170 C   0  0  0  0  0  0  0  0  0  0  0  0
   23.4133  -20.1026  -11.4765 C   0  0  2  0  0  0  0  0  0  0  0  0
   24.6405  -20.8461  -11.3657 N   0  0  0  0  0  0  0  0  0  0  0  0
   22.3531  -20.7014  -10.5999 C   0  0  0  0  0  0  0  0  0  0  0  0
   21.6615  -19.9964   -9.8216 O   0  0  0  0  0  0  0  0  0  0  0  0
   22.1103  -22.0618  -10.6295 O   0  0  0  0  0  0  0  0  0  0  0  0
  2  3  1  0
  2  1  1  6
  3  4  1  0
  5  4  1  0
  6  5  1  0
  7  6  1  0
  8  2  1  0
  8  9  2  0
 10  8  1  0
 11 10  1  0
 11 22  1  0
 11 12  1  1
 13 12  1  0
 13 14  2  0
 15 14  1  0
 16 15  1  0
 17 16  2  0
 18 17  1  0
 19 18  2  0
 19 20  1  0
 20 21  2  0
 21 16  1  0
 21 13  1  0
 22 23  2  0
 22 29  1  0
 24 25  1  0
 25 26  1  0
 26 28  1  0
 26 27  1  1
 28 30  1  0
 28 29  1  6
 30 31  2  0
 30 32  1  0
M  END
$$$$
