KWI.pdb
     RDKit          3D

 32 33  0  0  1  0  0  0  0  0999 V2000
   28.9579  -21.5717  -14.7169 N   0  0  0  0  0  0  0  0  0  0  0  0
   28.1839  -20.4819  -14.1568 C   0  0  1  0  0  0  0  0  0  0  0  0
   27.5140  -19.8062  -15.3618 C   0  0  0  0  0  0  0  0  0  0  0  0
   28.5823  -18.9568  -16.0219 C   0  0  0  0  0  0  0  0  0  0  0  0
   28.2476  -17.4834  -15.9376 C   0  0  0  0  0  0  0  0  0  0  0  0
   27.1810  -17.1929  -16.9699 C   0  0  0  0  0  0  0  0  0  0  0  0
   26.8077  -15.8054  -16.8542 N   0  0  0  0  0  0  0  0  0  0  0  0
   27.1263  -21.0289  -13.3059 C   0  0  0  0  0  0  0  0  0  0  0  0
   26.4872  -22.0387  -13.6748 O   0  0  0  0  0  0  0  0  0  0  0  0
   26.7778  -20.4452  -12.0332 N   0  0  0  0  0  0  0  0  0  0  0  0
   25.7037  -20.9715  -11.2514 C   0  0  1  0  0  0  0  0  0  0  0  0
   25.7957  -20.5990   -9.7895 C   0  0  0  0  0  0  0  0  0  0  0  0
   27.1231  -20.9366   -9.2342 C   0  0  0  0  0  0  0  0  0  0  0  0
   28.0924  -21.7515   -9.7700 C   0  0  0  0  0  0  0  0  0  0  0  0
   29.1532  -21.7921   -8.9472 N   0  0  0  0  0  0  0  0  0  0  0  0
   28.9307  -21.0269   -7.8670 C   0  0  0  0  0  0  0  0  0  0  0  0
   29.6547  -20.7088   -6.7333 C   0  0  0  0  0  0  0  0  0  0  0  0
   29.1459  -19.8582   -5.7522 C   0  0  0  0  0  0  0  0  0  0  0  0
   27.8887  -19.3328   -5.9371 C   0  0  0  0  0  0  0  0  0  0  0  0
   27.1723  -19.6536   -7.0690 C   0  0  0  0  0  0  0  0  0  0  0  0
   27.6644  -20.4902   -8.0410 C   0  0  0  0  0  0  0  0  0  0  0  0
   24.4278  -20.4473  -11.8016 C   0  0  0  0  0  0  0  0  0  0  0  0
   24.2736  -19.2332  -11.9942 O   0  0  0  0  0  0  0  0  0  0  0  0
   22.7292  -22.3036  -16.2457 C   0  0  0  0  0  0  0  0  0  0  0  0
   22.9585  -21.5245  -14.9816 C   0  0  0  0  0  0  0  0  0  0  0  0
   21.8245  -21.6463  -13.9921 C   0  0  2  0  0  0  0  0  0  0  0  0
   20.5643  -21.1627  -14.6431 C   0  0  0  0  0  0  0  0  0  0  0  0
   22.1225  -20.9137  -12.7028 C   0  0  2  0  0  0  0  0  0  0  0  0
   23.3653  -21.3380  -12.1139 N   0  0  0  0  0  0  0  0  0  0  0  0
   20.9921  -21.0890  -11.7320 C   0  0  0  0  0  0  0  0  0  0  0  0
   20.9164  -22.0924  -10.9781 O   0  0  0  0  0  0  0  0  0  0  0  0
   19.9943  -20.1365  -11.6444 O   0  0  0  0  0  0  0  0  0  0  0  0
  2  3  1  0
  2  1  1  6
  3  4  1  0
  5  4  1  0
  6  5  1  0
  7  6  1  0
  8  2  1  0
  8  9  2  0
 10  8  1  0
 11 10  1  0
 11 22  1  0
 11 12  1  1
 13 12  1  0
 13 14  2  0
 15 14  1  0
 16 15  1  0
 17 16  2  0
 18 17  1  0
 19 18  2  0
 19 20  1  0
 20 21  2  0
 21 16  1  0
 21 13  1  0
 22 23  2  0
 22 29  1  0
 24 25  1  0
 25 26  1  0
 26 28  1  0
 26 27  1  6
 28 30  1  0
 28 29  1  1
 30 31  2  0
 30 32  1  0
M  END
$$$$
