KWI.pdb
     RDKit          3D

 32 33  0  0  1  0  0  0  0  0999 V2000
   28.5620  -21.4619  -16.8060 N   0  0  0  0  0  0  0  0  0  0  0  0
   27.3568  -22.2664  -16.7778 C   0  0  1  0  0  0  0  0  0  0  0  0
   27.8263  -23.7006  -17.0607 C   0  0  0  0  0  0  0  0  0  0  0  0
   28.6868  -23.6291  -18.3068 C   0  0  0  0  0  0  0  0  0  0  0  0
   27.8410  -23.5274  -19.5576 C   0  0  0  0  0  0  0  0  0  0  0  0
   28.5229  -24.3315  -20.6421 C   0  0  0  0  0  0  0  0  0  0  0  0
   27.7816  -24.1574  -21.8660 N   0  0  0  0  0  0  0  0  0  0  0  0
   26.7903  -22.2393  -15.4287 C   0  0  0  0  0  0  0  0  0  0  0  0
   25.8801  -23.0384  -15.1171 O   0  0  0  0  0  0  0  0  0  0  0  0
   27.2422  -21.3135  -14.4184 N   0  0  0  0  0  0  0  0  0  0  0  0
   26.6417  -21.2881  -13.1220 C   0  0  1  0  0  0  0  0  0  0  0  0
   27.4705  -20.5465  -12.0985 C   0  0  0  0  0  0  0  0  0  0  0  0
   26.7581  -20.4418  -10.8079 C   0  0  0  0  0  0  0  0  0  0  0  0
   25.4167  -20.2370  -10.5854 C   0  0  0  0  0  0  0  0  0  0  0  0
   25.1782  -20.2053   -9.2640 N   0  0  0  0  0  0  0  0  0  0  0  0
   26.3212  -20.3830   -8.5829 C   0  0  0  0  0  0  0  0  0  0  0  0
   26.6576  -20.4397   -7.2434 C   0  0  0  0  0  0  0  0  0  0  0  0
   27.9723  -20.6429   -6.8248 C   0  0  0  0  0  0  0  0  0  0  0  0
   28.9444  -20.7884   -7.7865 C   0  0  0  0  0  0  0  0  0  0  0  0
   28.6028  -20.7309   -9.1195 C   0  0  0  0  0  0  0  0  0  0  0  0
   27.3110  -20.5313   -9.5421 C   0  0  0  0  0  0  0  0  0  0  0  0
   25.3162  -20.6283  -13.2364 C   0  0  0  0  0  0  0  0  0  0  0  0
   25.2320  -19.4055  -13.4167 O   0  0  0  0  0  0  0  0  0  0  0  0
   19.9878  -21.6731  -15.8605 C   0  0  0  0  0  0  0  0  0  0  0  0
   20.6962  -21.0359  -14.6987 C   0  0  0  0  0  0  0  0  0  0  0  0
   22.0588  -21.6298  -14.4329 C   0  0  2  0  0  0  0  0  0  0  0  0
   21.8915  -23.0748  -14.0725 C   0  0  0  0  0  0  0  0  0  0  0  0
   22.8116  -20.8569  -13.3727 C   0  0  2  0  0  0  0  0  0  0  0  0
   24.1249  -21.3972  -13.1391 N   0  0  0  0  0  0  0  0  0  0  0  0
   22.0223  -20.8200  -12.0973 C   0  0  0  0  0  0  0  0  0  0  0  0
   21.1969  -19.9027  -11.8558 O   0  0  0  0  0  0  0  0  0  0  0  0
   22.1881  -21.8088  -11.1459 O   0  0  0  0  0  0  0  0  0  0  0  0
  2  3  1  0
  2  1  1  1
  3  4  1  0
  5  4  1  0
  6  5  1  0
  7  6  1  0
  8  2  1  0
  8  9  2  0
 10  8  1  0
 11 10  1  0
 11 22  1  0
 11 12  1  1
 13 12  1  0
 13 14  2  0
 15 14  1  0
 16 15  1  0
 17 16  2  0
 18 17  1  0
 19 18  2  0
 19 20  1  0
 20 21  2  0
 21 16  1  0
 21 13  1  0
 22 23  2  0
 22 29  1  0
 24 25  1  0
 25 26  1  0
 26 28  1  0
 26 27  1  1
 28 30  1  0
 28 29  1  1
 30 31  2  0
 30 32  1  0
M  END
$$$$
