KWI.pdb
     RDKit          3D

 32 33  0  0  1  0  0  0  0  0999 V2000
   28.0647  -21.0586  -19.2448 N   0  0  0  0  0  0  0  0  0  0  0  0
   28.1883  -21.6937  -17.9480 C   0  0  1  0  0  0  0  0  0  0  0  0
   29.6267  -21.4039  -17.4960 C   0  0  0  0  0  0  0  0  0  0  0  0
   30.4006  -22.6938  -17.6852 C   0  0  0  0  0  0  0  0  0  0  0  0
   31.3144  -22.6188  -18.8891 C   0  0  0  0  0  0  0  0  0  0  0  0
   32.6994  -23.0317  -18.4432 C   0  0  0  0  0  0  0  0  0  0  0  0
   33.5558  -23.0621  -19.6024 N   0  0  0  0  0  0  0  0  0  0  0  0
   27.2824  -21.0400  -17.0025 C   0  0  0  0  0  0  0  0  0  0  0  0
   27.5236  -19.8782  -16.6074 O   0  0  0  0  0  0  0  0  0  0  0  0
   26.0976  -21.6871  -16.4930 N   0  0  0  0  0  0  0  0  0  0  0  0
   25.1690  -20.9793  -15.6691 C   0  0  1  0  0  0  0  0  0  0  0  0
   23.7582  -21.0016  -16.2108 C   0  0  0  0  0  0  0  0  0  0  0  0
   22.8211  -20.3249  -15.2899 C   0  0  0  0  0  0  0  0  0  0  0  0
   22.8960  -19.0515  -14.7766 C   0  0  0  0  0  0  0  0  0  0  0  0
   21.8412  -18.8246  -13.9767 N   0  0  0  0  0  0  0  0  0  0  0  0
   21.0518  -19.9095  -13.9327 C   0  0  0  0  0  0  0  0  0  0  0  0
   19.8702  -20.2284  -13.2901 C   0  0  0  0  0  0  0  0  0  0  0  0
   19.2662  -21.4763  -13.4413 C   0  0  0  0  0  0  0  0  0  0  0  0
   19.8789  -22.3994  -14.2558 C   0  0  0  0  0  0  0  0  0  0  0  0
   21.0562  -22.0756  -14.8932 C   0  0  0  0  0  0  0  0  0  0  0  0
   21.6590  -20.8494  -14.7509 C   0  0  0  0  0  0  0  0  0  0  0  0
   25.1759  -21.6012  -14.3206 C   0  0  0  0  0  0  0  0  0  0  0  0
   25.1437  -22.8330  -14.1920 O   0  0  0  0  0  0  0  0  0  0  0  0
   26.6338  -20.4434   -8.4121 C   0  0  0  0  0  0  0  0  0  0  0  0
   25.7697  -21.1324   -9.4302 C   0  0  0  0  0  0  0  0  0  0  0  0
   25.9518  -20.5939  -10.8290 C   0  0  2  0  0  0  0  0  0  0  0  0
   25.7253  -19.1126  -10.8073 C   0  0  0  0  0  0  0  0  0  0  0  0
   25.0547  -21.2974  -11.8232 C   0  0  2  0  0  0  0  0  0  0  0  0
   25.2193  -20.7850  -13.1579 N   0  0  0  0  0  0  0  0  0  0  0  0
   23.6211  -21.1958  -11.3925 C   0  0  0  0  0  0  0  0  0  0  0  0
   23.0462  -22.1307  -10.7790 O   0  0  0  0  0  0  0  0  0  0  0  0
   22.8903  -20.0547  -11.6653 O   0  0  0  0  0  0  0  0  0  0  0  0
  2  3  1  0
  2  1  1  6
  3  4  1  0
  5  4  1  0
  6  5  1  0
  7  6  1  0
  8  2  1  0
  8  9  2  0
 10  8  1  0
 11 10  1  0
 11 22  1  0
 11 12  1  6
 13 12  1  0
 13 14  2  0
 15 14  1  0
 16 15  1  0
 17 16  2  0
 18 17  1  0
 19 18  2  0
 19 20  1  0
 20 21  2  0
 21 16  1  0
 21 13  1  0
 22 23  2  0
 22 29  1  0
 24 25  1  0
 25 26  1  0
 26 28  1  0
 26 27  1  1
 28 30  1  0
 28 29  1  6
 30 31  2  0
 30 32  1  0
M  END
$$$$
