KWI.pdb
     RDKit          3D

 32 33  0  0  1  0  0  0  0  0999 V2000
   28.8445  -22.8623  -15.0878 N   0  0  0  0  0  0  0  0  0  0  0  0
   28.6431  -21.4945  -14.6532 C   0  0  1  0  0  0  0  0  0  0  0  0
   27.9750  -20.7909  -15.8432 C   0  0  0  0  0  0  0  0  0  0  0  0
   29.0166  -20.7331  -16.9432 C   0  0  0  0  0  0  0  0  0  0  0  0
   28.8780  -21.8991  -17.8978 C   0  0  0  0  0  0  0  0  0  0  0  0
   29.7448  -21.6134  -19.1038 C   0  0  0  0  0  0  0  0  0  0  0  0
   29.6590  -22.7409  -19.9978 N   0  0  0  0  0  0  0  0  0  0  0  0
   27.6980  -21.4776  -13.5359 C   0  0  0  0  0  0  0  0  0  0  0  0
   26.7251  -22.2636  -13.5284 O   0  0  0  0  0  0  0  0  0  0  0  0
   27.8385  -20.5769  -12.4174 N   0  0  0  0  0  0  0  0  0  0  0  0
   26.9287  -20.6230  -11.3165 C   0  0  1  0  0  0  0  0  0  0  0  0
   27.3662  -19.7689  -10.1489 C   0  0  0  0  0  0  0  0  0  0  0  0
   26.6740  -20.1679   -8.9056 C   0  0  0  0  0  0  0  0  0  0  0  0
   25.3713  -20.5781   -8.7456 C   0  0  0  0  0  0  0  0  0  0  0  0
   25.1394  -20.8493   -7.4508 N   0  0  0  0  0  0  0  0  0  0  0  0
   26.2492  -20.6344   -6.7268 C   0  0  0  0  0  0  0  0  0  0  0  0
   26.5756  -20.7474   -5.3884 C   0  0  0  0  0  0  0  0  0  0  0  0
   27.8523  -20.4440   -4.9162 C   0  0  0  0  0  0  0  0  0  0  0  0
   28.7965  -20.0229   -5.8229 C   0  0  0  0  0  0  0  0  0  0  0  0
   28.4650  -19.9123   -7.1551 C   0  0  0  0  0  0  0  0  0  0  0  0
   27.2107  -20.2088   -7.6302 C   0  0  0  0  0  0  0  0  0  0  0  0
   25.6030  -20.1488  -11.7887 C   0  0  0  0  0  0  0  0  0  0  0  0
   25.4589  -18.9939  -12.2135 O   0  0  0  0  0  0  0  0  0  0  0  0
   23.3108  -21.5150  -15.8718 C   0  0  0  0  0  0  0  0  0  0  0  0
   23.6587  -20.8545  -14.5678 C   0  0  0  0  0  0  0  0  0  0  0  0
   22.7171  -21.2188  -13.4451 C   0  0  2  0  0  0  0  0  0  0  0  0
   21.3281  -20.8086  -13.8302 C   0  0  0  0  0  0  0  0  0  0  0  0
   23.1508  -20.6126  -12.1289 C   0  0  2  0  0  0  0  0  0  0  0  0
   24.4802  -21.0197  -11.7573 N   0  0  0  0  0  0  0  0  0  0  0  0
   22.1710  -20.9619  -11.0477 C   0  0  0  0  0  0  0  0  0  0  0  0
   22.2740  -22.0208  -10.3776 O   0  0  0  0  0  0  0  0  0  0  0  0
   21.1177  -20.1140  -10.7607 O   0  0  0  0  0  0  0  0  0  0  0  0
  2  3  1  0
  2  1  1  6
  3  4  1  0
  5  4  1  0
  6  5  1  0
  7  6  1  0
  8  2  1  0
  8  9  2  0
 10  8  1  0
 11 10  1  0
 11 22  1  0
 11 12  1  1
 13 12  1  0
 13 14  2  0
 15 14  1  0
 16 15  1  0
 17 16  2  0
 18 17  1  0
 19 18  2  0
 19 20  1  0
 20 21  2  0
 21 16  1  0
 21 13  1  0
 22 23  2  0
 22 29  1  0
 24 25  1  0
 25 26  1  0
 26 28  1  0
 26 27  1  6
 28 30  1  0
 28 29  1  1
 30 31  2  0
 30 32  1  0
M  END
$$$$
