KWI.pdb
     RDKit          3D

 32 33  0  0  1  0  0  0  0  0999 V2000
   28.4210  -22.4606  -15.2451 N   0  0  0  0  0  0  0  0  0  0  0  0
   27.7590  -21.2390  -14.8330 C   0  0  1  0  0  0  0  0  0  0  0  0
   27.0329  -20.7343  -16.0881 C   0  0  0  0  0  0  0  0  0  0  0  0
   28.1069  -20.4763  -17.1266 C   0  0  0  0  0  0  0  0  0  0  0  0
   28.7052  -19.0950  -16.9719 C   0  0  0  0  0  0  0  0  0  0  0  0
   28.7420  -18.4524  -18.3406 C   0  0  0  0  0  0  0  0  0  0  0  0
   29.3886  -17.1698  -18.2191 N   0  0  0  0  0  0  0  0  0  0  0  0
   26.7447  -21.5558  -13.8268 C   0  0  0  0  0  0  0  0  0  0  0  0
   26.0082  -22.5557  -13.9752 O   0  0  0  0  0  0  0  0  0  0  0  0
   26.5494  -20.7511  -12.6450 N   0  0  0  0  0  0  0  0  0  0  0  0
   25.5188  -21.0617  -11.7052 C   0  0  1  0  0  0  0  0  0  0  0  0
   25.7543  -20.4507  -10.3429 C   0  0  0  0  0  0  0  0  0  0  0  0
   27.0901  -20.8074   -9.8206 C   0  0  0  0  0  0  0  0  0  0  0  0
   28.0154  -21.6717  -10.3568 C   0  0  0  0  0  0  0  0  0  0  0  0
   29.1031  -21.7132   -9.5699 N   0  0  0  0  0  0  0  0  0  0  0  0
   28.9416  -20.9007   -8.5137 C   0  0  0  0  0  0  0  0  0  0  0  0
   29.7144  -20.5617   -7.4189 C   0  0  0  0  0  0  0  0  0  0  0  0
   29.2660  -19.6588   -6.4553 C   0  0  0  0  0  0  0  0  0  0  0  0
   28.0190  -19.1025   -6.6176 C   0  0  0  0  0  0  0  0  0  0  0  0
   27.2538  -19.4443   -7.7106 C   0  0  0  0  0  0  0  0  0  0  0  0
   27.6863  -20.3324   -8.6652 C   0  0  0  0  0  0  0  0  0  0  0  0
   24.2308  -20.5548  -12.2431 C   0  0  0  0  0  0  0  0  0  0  0  0
   24.1252  -19.3833  -12.6321 O   0  0  0  0  0  0  0  0  0  0  0  0
   22.1213  -22.4787  -16.3919 C   0  0  0  0  0  0  0  0  0  0  0  0
   22.4720  -21.6903  -15.1618 C   0  0  0  0  0  0  0  0  0  0  0  0
   21.4342  -21.7957  -14.0702 C   0  0  2  0  0  0  0  0  0  0  0  0
   20.1085  -21.3696  -14.6242 C   0  0  0  0  0  0  0  0  0  0  0  0
   21.8259  -21.0017  -12.8438 C   0  0  2  0  0  0  0  0  0  0  0  0
   23.1004  -21.4131  -12.3169 N   0  0  0  0  0  0  0  0  0  0  0  0
   20.7611  -21.1098  -11.7924 C   0  0  0  0  0  0  0  0  0  0  0  0
   20.7508  -22.0471  -10.9543 O   0  0  0  0  0  0  0  0  0  0  0  0
   19.7530  -20.1669  -11.7215 O   0  0  0  0  0  0  0  0  0  0  0  0
  2  3  1  0
  2  1  1  6
  3  4  1  0
  5  4  1  0
  6  5  1  0
  7  6  1  0
  8  2  1  0
  8  9  2  0
 10  8  1  0
 11 10  1  0
 11 22  1  0
 11 12  1  1
 13 12  1  0
 13 14  2  0
 15 14  1  0
 16 15  1  0
 17 16  2  0
 18 17  1  0
 19 18  2  0
 19 20  1  0
 20 21  2  0
 21 16  1  0
 21 13  1  0
 22 23  2  0
 22 29  1  0
 24 25  1  0
 25 26  1  0
 26 28  1  0
 26 27  1  6
 28 30  1  0
 28 29  1  1
 30 31  2  0
 30 32  1  0
M  END
$$$$
