KWI.pdb
     RDKit          3D

 32 33  0  0  1  0  0  0  0  0999 V2000
   27.9189  -20.2519  -14.5654 N   0  0  0  0  0  0  0  0  0  0  0  0
   27.0574  -21.3592  -14.9286 C   0  0  1  0  0  0  0  0  0  0  0  0
   27.9875  -22.5776  -15.0171 C   0  0  0  0  0  0  0  0  0  0  0  0
   28.5660  -22.5708  -16.4184 C   0  0  0  0  0  0  0  0  0  0  0  0
   30.0644  -22.7813  -16.3990 C   0  0  0  0  0  0  0  0  0  0  0  0
   30.5596  -22.7034  -17.8260 C   0  0  0  0  0  0  0  0  0  0  0  0
   31.9972  -22.8087  -17.8106 N   0  0  0  0  0  0  0  0  0  0  0  0
   26.1031  -21.6030  -13.8462 C   0  0  0  0  0  0  0  0  0  0  0  0
   25.4549  -22.6721  -13.8136 O   0  0  0  0  0  0  0  0  0  0  0  0
   25.8691  -20.6469  -12.7911 N   0  0  0  0  0  0  0  0  0  0  0  0
   24.9205  -20.9109  -11.7556 C   0  0  1  0  0  0  0  0  0  0  0  0
   25.2576  -20.2231  -10.4526 C   0  0  0  0  0  0  0  0  0  0  0  0
   26.6098  -20.5948   -9.9861 C   0  0  0  0  0  0  0  0  0  0  0  0
   27.5744  -21.3176  -10.6477 C   0  0  0  0  0  0  0  0  0  0  0  0
   28.6642  -21.4325   -9.8712 N   0  0  0  0  0  0  0  0  0  0  0  0
   28.4660  -20.8074   -8.6999 C   0  0  0  0  0  0  0  0  0  0  0  0
   29.2237  -20.6112   -7.5606 C   0  0  0  0  0  0  0  0  0  0  0  0
   28.7345  -19.8959   -6.4679 C   0  0  0  0  0  0  0  0  0  0  0  0
   27.4620  -19.3805   -6.5468 C   0  0  0  0  0  0  0  0  0  0  0  0
   26.7120  -19.5795   -7.6848 C   0  0  0  0  0  0  0  0  0  0  0  0
   27.1847  -20.2824   -8.7662 C   0  0  0  0  0  0  0  0  0  0  0  0
   23.5881  -20.4432  -12.2152 C   0  0  0  0  0  0  0  0  0  0  0  0
   23.3872  -19.2448  -12.4567 O   0  0  0  0  0  0  0  0  0  0  0  0
   21.2521  -22.4817  -16.3411 C   0  0  0  0  0  0  0  0  0  0  0  0
   21.6343  -21.6184  -15.1723 C   0  0  0  0  0  0  0  0  0  0  0  0
   20.7179  -21.7843  -13.9838 C   0  0  2  0  0  0  0  0  0  0  0  0
   19.3259  -21.4105  -14.3941 C   0  0  0  0  0  0  0  0  0  0  0  0
   21.1974  -20.9899  -12.7892 C   0  0  2  0  0  0  0  0  0  0  0  0
   22.5245  -21.3708  -12.3831 N   0  0  0  0  0  0  0  0  0  0  0  0
   20.2346  -21.1353  -11.6478 C   0  0  0  0  0  0  0  0  0  0  0  0
   19.2944  -20.3203  -11.4667 O   0  0  0  0  0  0  0  0  0  0  0  0
   20.3627  -22.1844  -10.7570 O   0  0  0  0  0  0  0  0  0  0  0  0
  2  3  1  0
  2  1  1  1
  3  4  1  0
  5  4  1  0
  6  5  1  0
  7  6  1  0
  8  2  1  0
  8  9  2  0
 10  8  1  0
 11 10  1  0
 11 22  1  0
 11 12  1  1
 13 12  1  0
 13 14  2  0
 15 14  1  0
 16 15  1  0
 17 16  2  0
 18 17  1  0
 19 18  2  0
 19 20  1  0
 20 21  2  0
 21 16  1  0
 21 13  1  0
 22 23  2  0
 22 29  1  0
 24 25  1  0
 25 26  1  0
 26 28  1  0
 26 27  1  6
 28 30  1  0
 28 29  1  1
 30 31  2  0
 30 32  1  0
M  END
$$$$
