SQK.pdb
     RDKit          3D

 25 24  0  0  1  0  0  0  0  0999 V2000
   36.4108  -37.8605   -0.8388 O   0  0  0  0  0  0  0  0  0  0  0  0
   35.6275  -36.9742   -0.1276 C   0  0  0  0  0  0  0  0  0  0  0  0
   35.3184  -35.7622   -0.9829 C   0  0  2  0  0  0  0  0  0  0  0  0
   36.0149  -34.6100   -0.4978 N   0  0  0  0  0  0  0  0  0  0  0  0
   33.8640  -35.5197   -0.9367 C   0  0  0  0  0  0  0  0  0  0  0  0
   33.3838  -34.9594    0.1077 O   0  0  0  0  0  0  0  0  0  0  0  0
   29.4375  -33.6457   -5.1580 N   0  0  0  0  0  0  0  0  0  0  0  0
   29.2655  -34.0714   -3.8125 C   0  0  0  0  0  0  0  0  0  0  0  0
   28.8445  -33.2259   -2.9948 O   0  0  0  0  0  0  0  0  0  0  0  0
   29.5771  -35.4561   -3.4134 C   0  0  0  0  0  0  0  0  0  0  0  0
   31.0410  -35.7356   -3.3879 C   0  0  0  0  0  0  0  0  0  0  0  0
   31.6337  -35.5323   -2.0437 C   0  0  2  0  0  0  0  0  0  0  0  0
   33.0470  -35.8997   -2.0187 N   0  0  0  0  0  0  0  0  0  0  0  0
   30.9782  -36.4707   -1.0653 C   0  0  0  0  0  0  0  0  0  0  0  0
   31.1926  -37.7207   -1.0860 O   0  0  0  0  0  0  0  0  0  0  0  0
   30.0843  -36.0228   -0.0634 N   0  0  0  0  0  0  0  0  0  0  0  0
   29.5335  -36.9191    0.9225 C   0  0  1  0  0  0  0  0  0  0  0  0
   29.3957  -36.3487    2.2875 C   0  0  0  0  0  0  0  0  0  0  0  0
   28.8544  -37.2386    3.3391 C   0  0  0  0  0  0  0  0  0  0  0  0
   28.7872  -36.6561    4.7125 C   0  0  0  0  0  0  0  0  0  0  0  0
   28.1775  -37.6872    5.6876 C   0  0  0  0  0  0  0  0  0  0  0  0
   28.3172  -37.1145    7.0059 N   0  0  0  0  0  0  0  0  0  0  0  0
   28.2998  -37.5454    0.4359 C   0  0  0  0  0  0  0  0  0  0  0  0
   27.9507  -38.7187    0.8116 O   0  0  0  0  0  0  0  0  0  0  0  0
   27.4429  -36.9228   -0.4472 O   0  0  0  0  0  0  0  0  0  0  0  0
  2  1  1  0
  3  2  1  0
  3  4  1  1
  5  6  2  0
  5  3  1  0
  7  8  1  0
  8 10  1  0
  9  8  2  0
 10 11  1  0
 12 11  1  6
 12 13  1  0
 13  5  1  0
 14 12  1  0
 14 16  1  0
 15 14  2  0
 17 16  1  0
 17 18  1  1
 18 19  1  0
 20 19  1  0
 21 22  1  0
 21 20  1  0
 23 17  1  0
 24 23  2  0
 25 23  1  0
M  END
$$$$
