SQK.pdb
     RDKit          3D

 25 24  0  0  1  0  0  0  0  0999 V2000
   20.4205  -14.5693  -20.4397 O   0  0  0  0  0  0  0  0  0  0  0  0
   20.9196  -13.7935  -19.4131 C   0  0  0  0  0  0  0  0  0  0  0  0
   22.2109  -14.3951  -18.8967 C   0  0  2  0  0  0  0  0  0  0  0  0
   21.9741  -15.6840  -18.3220 N   0  0  0  0  0  0  0  0  0  0  0  0
   22.7688  -13.4899  -17.8741 C   0  0  0  0  0  0  0  0  0  0  0  0
   22.2909  -13.5583  -16.6899 O   0  0  0  0  0  0  0  0  0  0  0  0
   28.5166  -10.8856  -17.7614 N   0  0  0  0  0  0  0  0  0  0  0  0
   27.8709  -10.3878  -16.5968 C   0  0  0  0  0  0  0  0  0  0  0  0
   28.5691   -9.7385  -15.7894 O   0  0  0  0  0  0  0  0  0  0  0  0
   26.4365  -10.6371  -16.3643 C   0  0  0  0  0  0  0  0  0  0  0  0
   25.8138  -11.4716  -17.4310 C   0  0  0  0  0  0  0  0  0  0  0  0
   24.3684  -11.7065  -17.1958 C   0  0  2  0  0  0  0  0  0  0  0  0
   23.7952  -12.5866  -18.2104 N   0  0  0  0  0  0  0  0  0  0  0  0
   23.6229  -10.4075  -17.3522 C   0  0  0  0  0  0  0  0  0  0  0  0
   23.5351   -9.8131  -18.4693 O   0  0  0  0  0  0  0  0  0  0  0  0
   22.9742   -9.7672  -16.2693 N   0  0  0  0  0  0  0  0  0  0  0  0
   22.1865   -8.5735  -16.4509 C   0  0  1  0  0  0  0  0  0  0  0  0
   20.7389   -8.8032  -16.6945 C   0  0  0  0  0  0  0  0  0  0  0  0
   19.8888   -7.6068  -16.8862 C   0  0  0  0  0  0  0  0  0  0  0  0
   18.4238   -7.8646  -17.0179 C   0  0  0  0  0  0  0  0  0  0  0  0
   17.6901   -6.5474  -17.3535 C   0  0  0  0  0  0  0  0  0  0  0  0
   16.2886   -6.8857  -17.4347 N   0  0  0  0  0  0  0  0  0  0  0  0
   22.4406   -7.6051  -15.3790 C   0  0  0  0  0  0  0  0  0  0  0  0
   23.0531   -7.9396  -14.3054 O   0  0  0  0  0  0  0  0  0  0  0  0
   22.0431   -6.2867  -15.4524 O   0  0  0  0  0  0  0  0  0  0  0  0
  2  1  1  0
  3  2  1  0
  3  4  1  1
  5  6  2  0
  5  3  1  0
  7  8  1  0
  8 10  1  0
  9  8  2  0
 10 11  1  0
 12 11  1  6
 12 13  1  0
 13  5  1  0
 14 12  1  0
 14 16  1  0
 15 14  2  0
 17 16  1  0
 17 18  1  1
 18 19  1  0
 20 19  1  0
 21 22  1  0
 21 20  1  0
 23 17  1  0
 24 23  2  0
 25 23  1  0
M  END
$$$$
