SQK.pdb
     RDKit          3D

 25 24  0  0  1  0  0  0  0  0999 V2000
   21.7395  -16.9075  -16.6296 O   0  0  0  0  0  0  0  0  0  0  0  0
   21.9799  -15.7754  -15.8777 C   0  0  0  0  0  0  0  0  0  0  0  0
   21.7549  -14.5396  -16.7250 C   0  0  2  0  0  0  0  0  0  0  0  0
   22.2116  -14.7544  -18.0641 N   0  0  0  0  0  0  0  0  0  0  0  0
   22.4997  -13.4193  -16.1196 C   0  0  0  0  0  0  0  0  0  0  0  0
   22.1373  -13.0165  -14.9613 O   0  0  0  0  0  0  0  0  0  0  0  0
   28.2223  -11.1273  -17.7465 N   0  0  0  0  0  0  0  0  0  0  0  0
   27.7115  -10.1937  -16.8037 C   0  0  0  0  0  0  0  0  0  0  0  0
   28.4666   -9.2611  -16.4560 O   0  0  0  0  0  0  0  0  0  0  0  0
   26.3459  -10.3347  -16.2661 C   0  0  0  0  0  0  0  0  0  0  0  0
   25.6381  -11.5365  -16.7918 C   0  0  0  0  0  0  0  0  0  0  0  0
   24.2630  -11.6663  -16.2514 C   0  0  2  0  0  0  0  0  0  0  0  0
   23.5733  -12.8257  -16.8108 N   0  0  0  0  0  0  0  0  0  0  0  0
   23.4424  -10.4839  -16.6943 C   0  0  0  0  0  0  0  0  0  0  0  0
   23.2419  -10.2259  -17.9199 O   0  0  0  0  0  0  0  0  0  0  0  0
   22.8436   -9.5870  -15.7775 N   0  0  0  0  0  0  0  0  0  0  0  0
   21.9978   -8.5037  -16.2131 C   0  0  1  0  0  0  0  0  0  0  0  0
   20.5495   -8.8260  -16.2925 C   0  0  0  0  0  0  0  0  0  0  0  0
   19.6333   -7.7261  -16.6688 C   0  0  0  0  0  0  0  0  0  0  0  0
   18.1842   -8.0810  -16.7345 C   0  0  0  0  0  0  0  0  0  0  0  0
   17.3646   -6.8486  -17.1765 C   0  0  0  0  0  0  0  0  0  0  0  0
   17.4890   -6.7866  -18.6138 N   0  0  0  0  0  0  0  0  0  0  0  0
   22.2719   -7.2808  -15.4512 C   0  0  0  0  0  0  0  0  0  0  0  0
   23.0157   -7.2934  -14.4089 O   0  0  0  0  0  0  0  0  0  0  0  0
   21.7548   -6.0508  -15.7997 O   0  0  0  0  0  0  0  0  0  0  0  0
  2  1  1  0
  3  2  1  0
  3  4  1  6
  5  6  2  0
  5  3  1  0
  7  8  1  0
  8 10  1  0
  9  8  2  0
 10 11  1  0
 12 11  1  6
 12 13  1  0
 13  5  1  0
 14 12  1  0
 14 16  1  0
 15 14  2  0
 17 16  1  0
 17 18  1  1
 18 19  1  0
 20 19  1  0
 21 22  1  0
 21 20  1  0
 23 17  1  0
 24 23  2  0
 25 23  1  0
M  END
$$$$
