SQK.pdb
     RDKit          3D

 25 24  0  0  1  0  0  0  0  0999 V2000
   21.6097   -4.5701  -19.7225 O   0  0  0  0  0  0  0  0  0  0  0  0
   20.3522   -4.6928  -19.1671 C   0  0  0  0  0  0  0  0  0  0  0  0
   20.4448   -4.5827  -17.6587 C   0  0  2  0  0  0  0  0  0  0  0  0
   21.1405   -3.3907  -17.2803 N   0  0  0  0  0  0  0  0  0  0  0  0
   21.1688   -5.7632  -17.1503 C   0  0  0  0  0  0  0  0  0  0  0  0
   22.3885   -5.6107  -16.7972 O   0  0  0  0  0  0  0  0  0  0  0  0
   18.8021   -9.5723  -13.2403 N   0  0  0  0  0  0  0  0  0  0  0  0
   19.6913   -8.4872  -13.0099 C   0  0  0  0  0  0  0  0  0  0  0  0
   19.6796   -7.9699  -11.8728 O   0  0  0  0  0  0  0  0  0  0  0  0
   20.5830   -8.0023  -14.0793 C   0  0  0  0  0  0  0  0  0  0  0  0
   20.4084   -8.7451  -15.3598 C   0  0  0  0  0  0  0  0  0  0  0  0
   21.1994   -8.1577  -16.4684 C   0  0  2  0  0  0  0  0  0  0  0  0
   20.5202   -7.0099  -17.0634 N   0  0  0  0  0  0  0  0  0  0  0  0
   21.3058   -9.1601  -17.5871 C   0  0  0  0  0  0  0  0  0  0  0  0
   20.4000   -9.2850  -18.4663 O   0  0  0  0  0  0  0  0  0  0  0  0
   22.4173  -10.0246  -17.7311 N   0  0  0  0  0  0  0  0  0  0  0  0
   22.5085  -10.9752  -18.8112 C   0  0  1  0  0  0  0  0  0  0  0  0
   23.8655  -11.5309  -19.0504 C   0  0  0  0  0  0  0  0  0  0  0  0
   24.0444  -12.3825  -20.2478 C   0  0  0  0  0  0  0  0  0  0  0  0
   25.4287  -12.8910  -20.4829 C   0  0  0  0  0  0  0  0  0  0  0  0
   25.4731  -13.6928  -21.8024 C   0  0  0  0  0  0  0  0  0  0  0  0
   26.8636  -14.0147  -22.0221 N   0  0  0  0  0  0  0  0  0  0  0  0
   21.4779  -12.0118  -18.6905 C   0  0  0  0  0  0  0  0  0  0  0  0
   21.2709  -12.6252  -17.5857 O   0  0  0  0  0  0  0  0  0  0  0  0
   20.6723  -12.3917  -19.7433 O   0  0  0  0  0  0  0  0  0  0  0  0
  2  1  1  0
  3  2  1  0
  3  4  1  6
  5  6  2  0
  5  3  1  0
  7  8  1  0
  8 10  1  0
  9  8  2  0
 10 11  1  0
 12 11  1  1
 12 13  1  0
 13  5  1  0
 14 12  1  0
 14 16  1  0
 15 14  2  0
 17 16  1  0
 17 18  1  1
 18 19  1  0
 20 19  1  0
 21 22  1  0
 21 20  1  0
 23 17  1  0
 24 23  2  0
 25 23  1  0
M  END
$$$$
