SQK.pdb
     RDKit          3D

 25 24  0  0  1  0  0  0  0  0999 V2000
   14.7381  -11.6224  -12.0099 O   0  0  0  0  0  0  0  0  0  0  0  0
   15.2915  -10.4619  -11.5081 C   0  0  0  0  0  0  0  0  0  0  0  0
   16.7724  -10.6653  -11.2600 C   0  0  2  0  0  0  0  0  0  0  0  0
   17.0110  -11.9277  -10.6298 N   0  0  0  0  0  0  0  0  0  0  0  0
   17.2512   -9.5761  -10.3878 C   0  0  0  0  0  0  0  0  0  0  0  0
   17.2272   -9.7676   -9.1236 O   0  0  0  0  0  0  0  0  0  0  0  0
   21.7054   -5.6096  -11.8538 N   0  0  0  0  0  0  0  0  0  0  0  0
   20.5074   -5.6598  -12.6177 C   0  0  0  0  0  0  0  0  0  0  0  0
   20.5575   -5.2272  -13.7887 O   0  0  0  0  0  0  0  0  0  0  0  0
   19.2646   -6.2009  -12.0376 C   0  0  0  0  0  0  0  0  0  0  0  0
   19.4404   -6.6807  -10.6374 C   0  0  0  0  0  0  0  0  0  0  0  0
   18.2072   -7.2964  -10.0899 C   0  0  2  0  0  0  0  0  0  0  0  0
   17.7169   -8.3713  -10.9484 N   0  0  0  0  0  0  0  0  0  0  0  0
   17.1011   -6.2746  -10.0884 C   0  0  0  0  0  0  0  0  0  0  0  0
   16.3727   -6.0710  -11.1067 O   0  0  0  0  0  0  0  0  0  0  0  0
   16.8026   -5.4780   -8.9572 N   0  0  0  0  0  0  0  0  0  0  0  0
   15.6490   -4.6142   -8.9164 C   0  0  1  0  0  0  0  0  0  0  0  0
   14.7432   -4.8245   -7.7575 C   0  0  0  0  0  0  0  0  0  0  0  0
   13.5521   -3.9506   -7.6649 C   0  0  0  0  0  0  0  0  0  0  0  0
   12.6890   -4.1535   -6.4633 C   0  0  0  0  0  0  0  0  0  0  0  0
   11.4288   -3.2667   -6.5702 C   0  0  0  0  0  0  0  0  0  0  0  0
   11.8915   -1.9054   -6.4364 N   0  0  0  0  0  0  0  0  0  0  0  0
   16.0342   -3.2103   -9.0952 C   0  0  0  0  0  0  0  0  0  0  0  0
   17.1938   -2.7854   -8.7566 O   0  0  0  0  0  0  0  0  0  0  0  0
   15.1865   -2.2648   -9.6327 O   0  0  0  0  0  0  0  0  0  0  0  0
  2  1  1  0
  3  2  1  0
  3  4  1  1
  5  6  2  0
  5  3  1  0
  7  8  1  0
  8 10  1  0
  9  8  2  0
 10 11  1  0
 12 11  1  6
 12 13  1  0
 13  5  1  0
 14 12  1  0
 14 16  1  0
 15 14  2  0
 17 16  1  0
 17 18  1  1
 18 19  1  0
 20 19  1  0
 21 22  1  0
 21 20  1  0
 23 17  1  0
 24 23  2  0
 25 23  1  0
M  END
$$$$
