SQK.pdb
     RDKit          3D

 25 24  0  0  1  0  0  0  0  0999 V2000
   15.1699  -12.1114  -12.8295 O   0  0  0  0  0  0  0  0  0  0  0  0
   16.2902  -11.5242  -12.2770 C   0  0  0  0  0  0  0  0  0  0  0  0
   16.1005  -11.3630  -10.7824 C   0  0  2  0  0  0  0  0  0  0  0  0
   14.7092  -11.3031  -10.4527 N   0  0  0  0  0  0  0  0  0  0  0  0
   16.7649  -10.1148  -10.3618 C   0  0  0  0  0  0  0  0  0  0  0  0
   16.9310   -9.9184   -9.1090 O   0  0  0  0  0  0  0  0  0  0  0  0
   21.5084   -4.8326  -12.3648 N   0  0  0  0  0  0  0  0  0  0  0  0
   20.8115   -6.0688  -12.4504 C   0  0  0  0  0  0  0  0  0  0  0  0
   21.1862   -6.8768  -13.3265 O   0  0  0  0  0  0  0  0  0  0  0  0
   19.6936   -6.3696  -11.5374 C   0  0  0  0  0  0  0  0  0  0  0  0
   18.9409   -7.5955  -11.9282 C   0  0  0  0  0  0  0  0  0  0  0  0
   17.9265   -7.9840  -10.9184 C   0  0  2  0  0  0  0  0  0  0  0  0
   17.1961   -9.1818  -11.3241 N   0  0  0  0  0  0  0  0  0  0  0  0
   16.8764   -6.9082  -10.8308 C   0  0  0  0  0  0  0  0  0  0  0  0
   16.0016   -6.7475  -11.7351 O   0  0  0  0  0  0  0  0  0  0  0  0
   16.7964   -6.0100   -9.7397 N   0  0  0  0  0  0  0  0  0  0  0  0
   15.7111   -5.0706   -9.6041 C   0  0  1  0  0  0  0  0  0  0  0  0
   15.1082   -4.9938   -8.2483 C   0  0  0  0  0  0  0  0  0  0  0  0
   14.0012   -4.0303   -8.0558 C   0  0  0  0  0  0  0  0  0  0  0  0
   13.5116   -3.8743   -6.6536 C   0  0  0  0  0  0  0  0  0  0  0  0
   12.3670   -2.8380   -6.6127 C   0  0  0  0  0  0  0  0  0  0  0  0
   11.9269   -2.7899   -5.2382 N   0  0  0  0  0  0  0  0  0  0  0  0
   16.0795   -3.7571  -10.1427 C   0  0  0  0  0  0  0  0  0  0  0  0
   17.2869   -3.3321  -10.1046 O   0  0  0  0  0  0  0  0  0  0  0  0
   15.1643   -2.9016  -10.7190 O   0  0  0  0  0  0  0  0  0  0  0  0
  2  1  1  0
  3  2  1  0
  3  4  1  6
  5  6  2  0
  5  3  1  0
  7  8  1  0
  8 10  1  0
  9  8  2  0
 10 11  1  0
 12 11  1  6
 12 13  1  0
 13  5  1  0
 14 12  1  0
 14 16  1  0
 15 14  2  0
 17 16  1  0
 17 18  1  1
 18 19  1  0
 20 19  1  0
 21 22  1  0
 21 20  1  0
 23 17  1  0
 24 23  2  0
 25 23  1  0
M  END
$$$$
