SQK.pdb
     RDKit          3D

 25 24  0  0  1  0  0  0  0  0999 V2000
   14.9952  -14.5589  -15.2637 O   0  0  0  0  0  0  0  0  0  0  0  0
   15.8951  -13.7651  -14.5818 C   0  0  0  0  0  0  0  0  0  0  0  0
   16.9723  -13.2797  -15.5305 C   0  0  2  0  0  0  0  0  0  0  0  0
   17.9019  -14.3285  -15.8195 N   0  0  0  0  0  0  0  0  0  0  0  0
   17.6782  -12.1516  -14.8937 C   0  0  0  0  0  0  0  0  0  0  0  0
   18.1478  -12.3272  -13.7173 O   0  0  0  0  0  0  0  0  0  0  0  0
   19.5441   -8.5841  -18.7622 N   0  0  0  0  0  0  0  0  0  0  0  0
   20.4195   -9.5426  -18.1824 C   0  0  0  0  0  0  0  0  0  0  0  0
   21.2523  -10.0870  -18.9378 O   0  0  0  0  0  0  0  0  0  0  0  0
   20.3345   -9.8714  -16.7476 C   0  0  0  0  0  0  0  0  0  0  0  0
   19.3135   -9.0590  -16.0270 C   0  0  0  0  0  0  0  0  0  0  0  0
   18.5972   -9.8395  -14.9890 C   0  0  2  0  0  0  0  0  0  0  0  0
   17.8208  -10.9282  -15.5760 N   0  0  0  0  0  0  0  0  0  0  0  0
   17.5746   -8.9575  -14.3227 C   0  0  0  0  0  0  0  0  0  0  0  0
   16.4002   -8.8236  -14.7831 O   0  0  0  0  0  0  0  0  0  0  0  0
   17.8542   -8.2235  -13.1452 N   0  0  0  0  0  0  0  0  0  0  0  0
   16.8613   -7.3921  -12.5116 C   0  0  1  0  0  0  0  0  0  0  0  0
   16.4845   -7.7978  -11.1328 C   0  0  0  0  0  0  0  0  0  0  0  0
   15.5807   -6.8937  -10.3867 C   0  0  0  0  0  0  0  0  0  0  0  0
   15.3635   -7.2332   -8.9488 C   0  0  0  0  0  0  0  0  0  0  0  0
   14.3112   -6.2800   -8.3407 C   0  0  0  0  0  0  0  0  0  0  0  0
   14.1219   -6.7186   -6.9779 N   0  0  0  0  0  0  0  0  0  0  0  0
   17.2175   -5.9731  -12.6143 C   0  0  0  0  0  0  0  0  0  0  0  0
   16.3645   -5.0491  -12.3727 O   0  0  0  0  0  0  0  0  0  0  0  0
   18.4774   -5.5422  -12.9730 O   0  0  0  0  0  0  0  0  0  0  0  0
  2  1  1  0
  3  2  1  0
  3  4  1  1
  5  6  2  0
  5  3  1  0
  7  8  1  0
  8 10  1  0
  9  8  2  0
 10 11  1  0
 12 11  1  6
 12 13  1  0
 13  5  1  0
 14 12  1  0
 14 16  1  0
 15 14  2  0
 17 16  1  0
 17 18  1  1
 18 19  1  0
 20 19  1  0
 21 22  1  0
 21 20  1  0
 23 17  1  0
 24 23  2  0
 25 23  1  0
M  END
$$$$
