SQK.pdb
     RDKit          3D

 25 24  0  0  1  0  0  0  0  0999 V2000
   21.4980  -11.0461    5.8198 O   0  0  0  0  0  0  0  0  0  0  0  0
   20.7216  -12.0951    6.2692 C   0  0  0  0  0  0  0  0  0  0  0  0
   19.2574  -11.7906    6.0257 C   0  0  2  0  0  0  0  0  0  0  0  0
   18.7951  -10.7776    6.9245 N   0  0  0  0  0  0  0  0  0  0  0  0
   18.4844  -13.0297    6.2335 C   0  0  0  0  0  0  0  0  0  0  0  0
   17.9920  -13.2399    7.3949 O   0  0  0  0  0  0  0  0  0  0  0  0
   17.1263  -18.9240    2.5689 N   0  0  0  0  0  0  0  0  0  0  0  0
   16.2968  -17.8599    3.0170 C   0  0  0  0  0  0  0  0  0  0  0  0
   15.3315  -17.5426    2.2901 O   0  0  0  0  0  0  0  0  0  0  0  0
   16.5779  -17.1678    4.2881 C   0  0  0  0  0  0  0  0  0  0  0  0
   17.2951  -15.8751    4.0970 C   0  0  0  0  0  0  0  0  0  0  0  0
   17.5516  -15.1741    5.3786 C   0  0  2  0  0  0  0  0  0  0  0  0
   18.3048  -13.9398    5.1742 N   0  0  0  0  0  0  0  0  0  0  0  0
   18.4440  -16.0274    6.2407 C   0  0  0  0  0  0  0  0  0  0  0  0
   19.6976  -16.0880    6.0572 O   0  0  0  0  0  0  0  0  0  0  0  0
   17.9460  -16.8140    7.3068 N   0  0  0  0  0  0  0  0  0  0  0  0
   18.8160  -17.6047    8.1414 C   0  0  1  0  0  0  0  0  0  0  0  0
   19.4150  -16.8817    9.2930 C   0  0  0  0  0  0  0  0  0  0  0  0
   20.2565  -17.6703   10.2209 C   0  0  0  0  0  0  0  0  0  0  0  0
   20.8842  -16.9049   11.3390 C   0  0  0  0  0  0  0  0  0  0  0  0
   21.7834  -17.8433   12.1736 C   0  0  0  0  0  0  0  0  0  0  0  0
   22.4266  -17.0030   13.1562 N   0  0  0  0  0  0  0  0  0  0  0  0
   18.1741  -18.8657    8.5277 C   0  0  0  0  0  0  0  0  0  0  0  0
   18.8618  -19.8899    8.8706 O   0  0  0  0  0  0  0  0  0  0  0  0
   16.8054  -19.0327    8.5478 O   0  0  0  0  0  0  0  0  0  0  0  0
  2  1  1  0
  3  2  1  0
  3  4  1  1
  5  6  2  0
  5  3  1  0
  7  8  1  0
  8 10  1  0
  9  8  2  0
 10 11  1  0
 12 11  1  6
 12 13  1  0
 13  5  1  0
 14 12  1  0
 14 16  1  0
 15 14  2  0
 17 16  1  0
 17 18  1  1
 18 19  1  0
 20 19  1  0
 21 22  1  0
 21 20  1  0
 23 17  1  0
 24 23  2  0
 25 23  1  0
M  END
$$$$
