SQK.pdb
     RDKit          3D

 25 24  0  0  1  0  0  0  0  0999 V2000
   14.9630  -14.1968  -14.0903 O   0  0  0  0  0  0  0  0  0  0  0  0
   15.7901  -13.3521  -14.8026 C   0  0  0  0  0  0  0  0  0  0  0  0
   14.9592  -12.3195  -15.5369 C   0  0  2  0  0  0  0  0  0  0  0  0
   14.3571  -12.8909  -16.7026 N   0  0  0  0  0  0  0  0  0  0  0  0
   15.8431  -11.2056  -15.9295 C   0  0  0  0  0  0  0  0  0  0  0  0
   16.4715  -11.3030  -17.0390 O   0  0  0  0  0  0  0  0  0  0  0  0
   15.2181   -5.1776  -14.2112 N   0  0  0  0  0  0  0  0  0  0  0  0
   16.4680   -5.2050  -14.8881 C   0  0  0  0  0  0  0  0  0  0  0  0
   17.0564   -4.1144  -15.0463 O   0  0  0  0  0  0  0  0  0  0  0  0
   17.0326   -6.4754  -15.3790 C   0  0  0  0  0  0  0  0  0  0  0  0
   16.1837   -7.6539  -15.0439 C   0  0  0  0  0  0  0  0  0  0  0  0
   16.7674   -8.9289  -15.5269 C   0  0  2  0  0  0  0  0  0  0  0  0
   15.9771  -10.0789  -15.0958 N   0  0  0  0  0  0  0  0  0  0  0  0
   18.1156   -9.1311  -14.8873 C   0  0  0  0  0  0  0  0  0  0  0  0
   18.2385   -9.5427  -13.6938 O   0  0  0  0  0  0  0  0  0  0  0  0
   19.3283   -8.8765  -15.5714 N   0  0  0  0  0  0  0  0  0  0  0  0
   20.6123   -9.1141  -14.9603 C   0  0  1  0  0  0  0  0  0  0  0  0
   21.5594   -9.9198  -15.7737 C   0  0  0  0  0  0  0  0  0  0  0  0
   22.9067  -10.1526  -15.2068 C   0  0  0  0  0  0  0  0  0  0  0  0
   23.9056  -10.7630  -16.1341 C   0  0  0  0  0  0  0  0  0  0  0  0
   25.2703  -10.8887  -15.4218 C   0  0  0  0  0  0  0  0  0  0  0  0
   26.1740  -11.4528  -16.3967 N   0  0  0  0  0  0  0  0  0  0  0  0
   21.2008   -7.8650  -14.4658 C   0  0  0  0  0  0  0  0  0  0  0  0
   21.0395   -6.7566  -15.0865 O   0  0  0  0  0  0  0  0  0  0  0  0
   21.9573   -7.7989  -13.3147 O   0  0  0  0  0  0  0  0  0  0  0  0
  2  1  1  0
  3  2  1  0
  3  4  1  6
  5  6  2  0
  5  3  1  0
  7  8  1  0
  8 10  1  0
  9  8  2  0
 10 11  1  0
 12 11  1  1
 12 13  1  0
 13  5  1  0
 14 12  1  0
 14 16  1  0
 15 14  2  0
 17 16  1  0
 17 18  1  6
 18 19  1  0
 20 19  1  0
 21 22  1  0
 21 20  1  0
 23 17  1  0
 24 23  2  0
 25 23  1  0
M  END
$$$$
