SQK.pdb
     RDKit          3D

 25 24  0  0  1  0  0  0  0  0999 V2000
   23.7881  -16.0559  -19.1609 O   0  0  0  0  0  0  0  0  0  0  0  0
   24.1901  -15.0398  -18.3178 C   0  0  0  0  0  0  0  0  0  0  0  0
   25.6903  -15.1050  -18.1149 C   0  0  2  0  0  0  0  0  0  0  0  0
   26.0523  -16.2872  -17.3943 N   0  0  0  0  0  0  0  0  0  0  0  0
   26.1086  -13.9120  -17.3547 C   0  0  0  0  0  0  0  0  0  0  0  0
   26.2123  -14.0181  -16.0845 O   0  0  0  0  0  0  0  0  0  0  0  0
   30.6689  -10.1223  -18.6087 N   0  0  0  0  0  0  0  0  0  0  0  0
   30.0475   -9.4891  -17.4978 C   0  0  0  0  0  0  0  0  0  0  0  0
   30.6736   -8.5597  -16.9456 O   0  0  0  0  0  0  0  0  0  0  0  0
   28.7196   -9.9239  -17.0272 C   0  0  0  0  0  0  0  0  0  0  0  0
   28.1935  -11.0968  -17.7816 C   0  0  0  0  0  0  0  0  0  0  0  0
   26.8684  -11.5418  -17.2860 C   0  0  2  0  0  0  0  0  0  0  0  0
   26.3813  -12.7038  -18.0245 N   0  0  0  0  0  0  0  0  0  0  0  0
   25.8509  -10.4649  -17.5550 C   0  0  0  0  0  0  0  0  0  0  0  0
   25.4818  -10.1676  -18.7316 O   0  0  0  0  0  0  0  0  0  0  0  0
   25.2423   -9.7170  -16.5188 N   0  0  0  0  0  0  0  0  0  0  0  0
   24.1934   -8.7635  -16.7820 C   0  0  1  0  0  0  0  0  0  0  0  0
   23.0278   -8.8373  -15.8634 C   0  0  0  0  0  0  0  0  0  0  0  0
   21.8745   -7.9600  -16.1651 C   0  0  0  0  0  0  0  0  0  0  0  0
   20.6976   -8.0979  -15.2562 C   0  0  0  0  0  0  0  0  0  0  0  0
   19.5075   -7.2886  -15.8170 C   0  0  0  0  0  0  0  0  0  0  0  0
   18.3718   -7.6361  -14.9955 N   0  0  0  0  0  0  0  0  0  0  0  0
   24.7343   -7.4066  -16.9136 C   0  0  0  0  0  0  0  0  0  0  0  0
   24.2091   -6.5501  -17.7076 O   0  0  0  0  0  0  0  0  0  0  0  0
   25.8299   -6.9659  -16.2015 O   0  0  0  0  0  0  0  0  0  0  0  0
  2  1  1  0
  3  2  1  0
  3  4  1  1
  5  6  2  0
  5  3  1  0
  7  8  1  0
  8 10  1  0
  9  8  2  0
 10 11  1  0
 12 11  1  6
 12 13  1  0
 13  5  1  0
 14 12  1  0
 14 16  1  0
 15 14  2  0
 17 16  1  0
 17 18  1  1
 18 19  1  0
 20 19  1  0
 21 22  1  0
 21 20  1  0
 23 17  1  0
 24 23  2  0
 25 23  1  0
M  END
$$$$
