SQK.pdb
     RDKit          3D

 25 24  0  0  1  0  0  0  0  0999 V2000
   28.4673  -19.7675  -13.3845 O   0  0  0  0  0  0  0  0  0  0  0  0
   27.8598  -18.9950  -14.3536 C   0  0  0  0  0  0  0  0  0  0  0  0
   26.3575  -19.0134  -14.1570 C   0  0  2  0  0  0  0  0  0  0  0  0
   25.8446  -20.3414  -14.3026 N   0  0  0  0  0  0  0  0  0  0  0  0
   25.7458  -18.1308  -15.1684 C   0  0  0  0  0  0  0  0  0  0  0  0
   25.2996  -18.6679  -16.2398 O   0  0  0  0  0  0  0  0  0  0  0  0
   23.0653  -12.4848  -14.2074 N   0  0  0  0  0  0  0  0  0  0  0  0
   22.9109  -12.7383  -15.5978 C   0  0  0  0  0  0  0  0  0  0  0  0
   22.1629  -11.9704  -16.2394 O   0  0  0  0  0  0  0  0  0  0  0  0
   23.6095  -13.8660  -16.2413 C   0  0  0  0  0  0  0  0  0  0  0  0
   24.3260  -14.7358  -15.2656 C   0  0  0  0  0  0  0  0  0  0  0  0
   25.0199  -15.8710  -15.9208 C   0  0  2  0  0  0  0  0  0  0  0  0
   25.6643  -16.7433  -14.9428 N   0  0  0  0  0  0  0  0  0  0  0  0
   26.1502  -15.3418  -16.7633 C   0  0  0  0  0  0  0  0  0  0  0  0
   27.2900  -15.0808  -16.2717 O   0  0  0  0  0  0  0  0  0  0  0  0
   26.0167  -15.1018  -18.1519 N   0  0  0  0  0  0  0  0  0  0  0  0
   27.1264  -14.6593  -18.9590 C   0  0  1  0  0  0  0  0  0  0  0  0
   27.7190  -15.6975  -19.8414 C   0  0  0  0  0  0  0  0  0  0  0  0
   28.8587  -15.2889  -20.6928 C   0  0  0  0  0  0  0  0  0  0  0  0
   29.4316  -16.3549  -21.5677 C   0  0  0  0  0  0  0  0  0  0  0  0
   30.6594  -15.8040  -22.3259 C   0  0  0  0  0  0  0  0  0  0  0  0
   31.2162  -16.9263  -23.0440 N   0  0  0  0  0  0  0  0  0  0  0  0
   26.7996  -13.4199  -19.6718 C   0  0  0  0  0  0  0  0  0  0  0  0
   25.5977  -13.1414  -20.0148 O   0  0  0  0  0  0  0  0  0  0  0  0
   27.7503  -12.4826  -20.0168 O   0  0  0  0  0  0  0  0  0  0  0  0
  2  1  1  0
  3  2  1  0
  3  4  1  6
  5  6  2  0
  5  3  1  0
  7  8  1  0
  8 10  1  0
  9  8  2  0
 10 11  1  0
 12 11  1  1
 12 13  1  0
 13  5  1  0
 14 12  1  0
 14 16  1  0
 15 14  2  0
 17 16  1  0
 17 18  1  6
 18 19  1  0
 20 19  1  0
 21 22  1  0
 21 20  1  0
 23 17  1  0
 24 23  2  0
 25 23  1  0
M  END
$$$$
