SQI.pdb
     RDKit          3D

 24 23  0  0  1  0  0  0  0  0999 V2000
    4.9893  -18.3478   19.8968 O   0  0  0  0  0  0  0  0  0  0  0  0
    6.3366  -18.6229   19.7764 C   0  0  0  0  0  0  0  0  0  0  0  0
    7.1403  -17.4914   20.3922 C   0  0  2  0  0  0  0  0  0  0  0  0
    8.5499  -17.6947   20.2441 N   0  0  0  0  0  0  0  0  0  0  0  0
    6.7917  -17.3344   21.8324 C   0  0  0  0  0  0  0  0  0  0  0  0
    5.6460  -16.9688   22.1917 O   0  0  0  0  0  0  0  0  0  0  0  0
    8.1683  -21.0823   26.3791 N   0  0  0  0  0  0  0  0  0  0  0  0
    6.8569  -20.5922   26.2321 C   0  0  0  0  0  0  0  0  0  0  0  0
    5.8815  -21.1862   26.7362 O   0  0  0  0  0  0  0  0  0  0  0  0
    6.6633  -19.3258   25.4506 C   0  0  0  0  0  0  0  0  0  0  0  0
    7.9409  -18.7294   24.9625 C   0  0  0  0  0  0  0  0  0  0  0  0
    7.6793  -17.4521   24.2096 C   0  0  2  0  0  0  0  0  0  0  0  0
    7.7620  -17.6002   22.8015 N   0  0  0  0  0  0  0  0  0  0  0  0
    8.3282  -16.2591   24.7497 C   0  0  0  0  0  0  0  0  0  0  0  0
    9.4800  -15.9701   24.2800 O   0  0  0  0  0  0  0  0  0  0  0  0
    5.5508  -11.8268   25.9778 C   0  0  0  0  0  0  0  0  0  0  0  0
    6.6296  -12.7629   25.6284 C   0  0  0  0  0  0  0  0  0  0  0  0
    7.5279  -13.2803   26.6809 C   0  0  2  0  0  0  0  0  0  0  0  0
    8.0808  -12.1198   27.5202 C   0  0  0  0  0  0  0  0  0  0  0  0
    8.4916  -14.3342   26.4271 C   0  0  2  0  0  0  0  0  0  0  0  0
    7.7861  -15.4193   25.7324 N   0  0  0  0  0  0  0  0  0  0  0  0
    9.4458  -14.8154   27.3941 C   0  0  0  0  0  0  0  0  0  0  0  0
    9.1387  -15.8910   28.0367 O   0  0  0  0  0  0  0  0  0  0  0  0
   10.6649  -14.3191   27.7627 O   0  0  0  0  0  0  0  0  0  0  0  0
  2  1  1  0
  2  3  1  0
  3  4  1  1
  5  3  1  0
  5  6  2  0
  7  8  1  0
  8  9  2  0
 10 11  1  0
 10  8  1  0
 12 11  1  1
 12 13  1  0
 13  5  1  0
 14 12  1  0
 15 14  2  0
 17 18  1  0
 17 16  1  0
 18 20  1  0
 18 19  1  6
 20 21  1  1
 20 22  1  0
 21 14  1  0
 22 24  1  0
 23 22  2  0
M  END
$$$$
