SQI.pdb
     RDKit          3D

 24 23  0  0  1  0  0  0  0  0999 V2000
    7.3038  -15.8547   18.3724 O   0  0  0  0  0  0  0  0  0  0  0  0
    8.4919  -16.4158   18.7951 C   0  0  0  0  0  0  0  0  0  0  0  0
    8.1986  -17.6414   19.6422 C   0  0  2  0  0  0  0  0  0  0  0  0
    7.6161  -18.6976   18.8706 N   0  0  0  0  0  0  0  0  0  0  0  0
    7.3052  -17.2818   20.7791 C   0  0  0  0  0  0  0  0  0  0  0  0
    6.0562  -17.3520   20.6767 O   0  0  0  0  0  0  0  0  0  0  0  0
    5.5821  -20.4397   24.5014 N   0  0  0  0  0  0  0  0  0  0  0  0
    6.9267  -20.1959   24.8392 C   0  0  0  0  0  0  0  0  0  0  0  0
    7.5882  -21.0187   25.5055 O   0  0  0  0  0  0  0  0  0  0  0  0
    7.5478  -18.9129   24.3701 C   0  0  0  0  0  0  0  0  0  0  0  0
    6.5748  -17.9856   23.7221 C   0  0  0  0  0  0  0  0  0  0  0  0
    7.2634  -16.7297   23.2583 C   0  0  2  0  0  0  0  0  0  0  0  0
    7.8718  -16.8577   21.9835 N   0  0  0  0  0  0  0  0  0  0  0  0
    8.0690  -16.0446   24.2670 C   0  0  0  0  0  0  0  0  0  0  0  0
    9.3256  -16.2715   24.2489 O   0  0  0  0  0  0  0  0  0  0  0  0
    5.9340  -11.3534   25.7481 C   0  0  0  0  0  0  0  0  0  0  0  0
    6.8801  -12.4176   25.3812 C   0  0  0  0  0  0  0  0  0  0  0  0
    7.6240  -13.1394   26.4339 C   0  0  2  0  0  0  0  0  0  0  0  0
    8.3623  -12.1412   27.3370 C   0  0  0  0  0  0  0  0  0  0  0  0
    8.3731  -14.3510   26.1604 C   0  0  2  0  0  0  0  0  0  0  0  0
    7.5705  -15.1677   25.2403 N   0  0  0  0  0  0  0  0  0  0  0  0
    9.0468  -15.1359   27.1639 C   0  0  0  0  0  0  0  0  0  0  0  0
    8.4562  -16.2116   27.5619 O   0  0  0  0  0  0  0  0  0  0  0  0
   10.2459  -14.9387   27.7896 O   0  0  0  0  0  0  0  0  0  0  0  0
  2  1  1  0
  2  3  1  0
  3  4  1  6
  5  3  1  0
  5  6  2  0
  7  8  1  0
  8  9  2  0
 10 11  1  0
 10  8  1  0
 12 11  1  1
 12 13  1  0
 13  5  1  0
 14 12  1  0
 15 14  2  0
 17 18  1  0
 17 16  1  0
 18 20  1  0
 18 19  1  6
 20 21  1  1
 20 22  1  0
 21 14  1  0
 22 24  1  0
 23 22  2  0
M  END
$$$$
