SQI.pdb
     RDKit          3D

 24 23  0  0  1  0  0  0  0  0999 V2000
    8.8977  -16.6784   18.4079 O   0  0  0  0  0  0  0  0  0  0  0  0
    8.4740  -16.2188   19.6385 C   0  0  0  0  0  0  0  0  0  0  0  0
    7.2039  -16.9476   20.0401 C   0  0  2  0  0  0  0  0  0  0  0  0
    6.0936  -16.5818   19.2132 N   0  0  0  0  0  0  0  0  0  0  0  0
    6.8878  -16.6839   21.4721 C   0  0  0  0  0  0  0  0  0  0  0  0
    6.2145  -15.6831   21.8195 O   0  0  0  0  0  0  0  0  0  0  0  0
    7.3600  -21.1863   25.9680 N   0  0  0  0  0  0  0  0  0  0  0  0
    7.1144  -20.0253   26.7251 C   0  0  0  0  0  0  0  0  0  0  0  0
    6.9627  -20.0775   27.9631 O   0  0  0  0  0  0  0  0  0  0  0  0
    7.0433  -18.7143   25.9983 C   0  0  0  0  0  0  0  0  0  0  0  0
    7.1209  -18.8540   24.5148 C   0  0  0  0  0  0  0  0  0  0  0  0
    7.2035  -17.5028   23.8559 C   0  0  2  0  0  0  0  0  0  0  0  0
    7.3515  -17.5704   22.4470 N   0  0  0  0  0  0  0  0  0  0  0  0
    8.0605  -16.5271   24.5263 C   0  0  0  0  0  0  0  0  0  0  0  0
    9.3080  -16.5792   24.2581 O   0  0  0  0  0  0  0  0  0  0  0  0
    6.1472  -11.5990   25.5004 C   0  0  0  0  0  0  0  0  0  0  0  0
    7.0739  -12.7108   25.2411 C   0  0  0  0  0  0  0  0  0  0  0  0
    7.7400  -13.3950   26.3683 C   0  0  2  0  0  0  0  0  0  0  0  0
    8.4503  -12.3691   27.2628 C   0  0  0  0  0  0  0  0  0  0  0  0
    8.4739  -14.6343   26.1972 C   0  0  2  0  0  0  0  0  0  0  0  0
    7.6197  -15.5506   25.4301 N   0  0  0  0  0  0  0  0  0  0  0  0
    9.2076  -15.2977   27.2454 C   0  0  0  0  0  0  0  0  0  0  0  0
    8.5944  -16.2316   27.8905 O   0  0  0  0  0  0  0  0  0  0  0  0
   10.4857  -15.1096   27.6920 O   0  0  0  0  0  0  0  0  0  0  0  0
  2  1  1  0
  2  3  1  0
  3  4  1  6
  5  3  1  0
  5  6  2  0
  7  8  1  0
  8  9  2  0
 10 11  1  0
 10  8  1  0
 12 11  1  1
 12 13  1  0
 13  5  1  0
 14 12  1  0
 15 14  2  0
 17 18  1  0
 17 16  1  0
 18 20  1  0
 18 19  1  6
 20 21  1  1
 20 22  1  0
 21 14  1  0
 22 24  1  0
 23 22  2  0
M  END
$$$$
