SQI.pdb
     RDKit          3D

 24 23  0  0  1  0  0  0  0  0999 V2000
    9.3663  -12.8479   19.8663 O   0  0  0  0  0  0  0  0  0  0  0  0
    8.1485  -12.9596   19.2263 C   0  0  0  0  0  0  0  0  0  0  0  0
    7.6868  -14.4055   19.2674 C   0  0  2  0  0  0  0  0  0  0  0  0
    6.4542  -14.5932   18.5633 N   0  0  0  0  0  0  0  0  0  0  0  0
    7.5481  -14.8636   20.6785 C   0  0  0  0  0  0  0  0  0  0  0  0
    6.5640  -14.5274   21.3813 O   0  0  0  0  0  0  0  0  0  0  0  0
   10.7318  -19.9307   22.8834 N   0  0  0  0  0  0  0  0  0  0  0  0
   10.0865  -19.4457   24.0365 C   0  0  0  0  0  0  0  0  0  0  0  0
   10.1345  -20.0681   25.1176 O   0  0  0  0  0  0  0  0  0  0  0  0
    9.3374  -18.1498   23.9302 C   0  0  0  0  0  0  0  0  0  0  0  0
    9.3599  -17.5630   22.5585 C   0  0  0  0  0  0  0  0  0  0  0  0
    8.5904  -16.2695   22.5196 C   0  0  2  0  0  0  0  0  0  0  0  0
    8.5354  -15.6845   21.2288 N   0  0  0  0  0  0  0  0  0  0  0  0
    8.8660  -15.3402   23.6135 C   0  0  0  0  0  0  0  0  0  0  0  0
    9.9878  -14.7309   23.5799 O   0  0  0  0  0  0  0  0  0  0  0  0
    6.5606  -10.8208   26.5671 C   0  0  0  0  0  0  0  0  0  0  0  0
    7.3754  -12.0221   26.8014 C   0  0  0  0  0  0  0  0  0  0  0  0
    7.2946  -13.1630   25.8663 C   0  0  2  0  0  0  0  0  0  0  0  0
    5.8500  -13.6760   25.7833 C   0  0  0  0  0  0  0  0  0  0  0  0
    8.2945  -14.2134   25.8382 C   0  0  2  0  0  0  0  0  0  0  0  0
    8.0005  -15.0716   24.6828 N   0  0  0  0  0  0  0  0  0  0  0  0
    8.7260  -14.9583   26.9940 C   0  0  0  0  0  0  0  0  0  0  0  0
    8.3712  -16.1969   27.0600 O   0  0  0  0  0  0  0  0  0  0  0  0
    9.4748  -14.5734   28.0708 O   0  0  0  0  0  0  0  0  0  0  0  0
  2  1  1  0
  2  3  1  0
  3  4  1  1
  5  3  1  0
  5  6  2  0
  7  8  1  0
  8  9  2  0
 10 11  1  0
 10  8  1  0
 12 11  1  6
 12 13  1  0
 13  5  1  0
 14 12  1  0
 15 14  2  0
 17 18  1  0
 17 16  1  0
 18 20  1  0
 18 19  1  1
 20 21  1  6
 20 22  1  0
 21 14  1  0
 22 24  1  0
 23 22  2  0
M  END
$$$$
