SQI.pdb
     RDKit          3D

 24 23  0  0  1  0  0  0  0  0999 V2000
    8.8920  -12.3555   18.4381 O   0  0  0  0  0  0  0  0  0  0  0  0
    8.4164  -12.7260   19.6797 C   0  0  0  0  0  0  0  0  0  0  0  0
    7.8141  -14.1173   19.5956 C   0  0  2  0  0  0  0  0  0  0  0  0
    6.5193  -14.1032   18.9843 N   0  0  0  0  0  0  0  0  0  0  0  0
    7.7361  -14.7293   20.9519 C   0  0  0  0  0  0  0  0  0  0  0  0
    6.7379  -14.5532   21.6922 O   0  0  0  0  0  0  0  0  0  0  0  0
   11.2480  -19.7903   22.5554 N   0  0  0  0  0  0  0  0  0  0  0  0
   10.5854  -19.4794   23.7579 C   0  0  0  0  0  0  0  0  0  0  0  0
   10.7019  -20.2022   24.7690 O   0  0  0  0  0  0  0  0  0  0  0  0
    9.7325  -18.2452   23.7916 C   0  0  0  0  0  0  0  0  0  0  0  0
    9.7226  -17.4961   22.5012 C   0  0  0  0  0  0  0  0  0  0  0  0
    8.9185  -16.2295   22.6265 C   0  0  2  0  0  0  0  0  0  0  0  0
    8.7974  -15.5152   21.4072 N   0  0  0  0  0  0  0  0  0  0  0  0
    9.2121  -15.4112   23.8013 C   0  0  0  0  0  0  0  0  0  0  0  0
   10.2362  -14.6516   23.7300 O   0  0  0  0  0  0  0  0  0  0  0  0
    5.7474  -12.2616   25.6685 C   0  0  0  0  0  0  0  0  0  0  0  0
    6.9832  -13.0048   25.3811 C   0  0  0  0  0  0  0  0  0  0  0  0
    7.6676  -13.7453   26.4608 C   0  0  2  0  0  0  0  0  0  0  0  0
    7.8723  -12.8330   27.6786 C   0  0  0  0  0  0  0  0  0  0  0  0
    8.7799  -14.6395   26.2020 C   0  0  2  0  0  0  0  0  0  0  0  0
    8.4619  -15.3986   24.9852 N   0  0  0  0  0  0  0  0  0  0  0  0
    9.4322  -15.4401   27.2072 C   0  0  0  0  0  0  0  0  0  0  0  0
   10.1494  -14.8167   28.0798 O   0  0  0  0  0  0  0  0  0  0  0  0
    9.4232  -16.7917   27.4110 O   0  0  0  0  0  0  0  0  0  0  0  0
  2  1  1  0
  2  3  1  0
  3  4  1  1
  5  3  1  0
  5  6  2  0
  7  8  1  0
  8  9  2  0
 10 11  1  0
 10  8  1  0
 12 11  1  6
 12 13  1  0
 13  5  1  0
 14 12  1  0
 15 14  2  0
 17 18  1  0
 17 16  1  0
 18 20  1  0
 18 19  1  1
 20 21  1  6
 20 22  1  0
 21 14  1  0
 22 24  1  0
 23 22  2  0
M  END
$$$$
