SQI.pdb
     RDKit          3D

 24 23  0  0  1  0  0  0  0  0999 V2000
    6.8830  -15.6909   17.7964 O   0  0  0  0  0  0  0  0  0  0  0  0
    8.0986  -15.1630   18.1825 C   0  0  0  0  0  0  0  0  0  0  0  0
    8.9140  -16.2337   18.8855 C   0  0  2  0  0  0  0  0  0  0  0  0
    9.1567  -17.3627   18.0389 N   0  0  0  0  0  0  0  0  0  0  0  0
    8.2295  -16.6663   20.1363 C   0  0  0  0  0  0  0  0  0  0  0  0
    7.3290  -17.5406   20.1200 O   0  0  0  0  0  0  0  0  0  0  0  0
    9.3346  -19.9784   24.4584 N   0  0  0  0  0  0  0  0  0  0  0  0
   10.1370  -19.5813   23.3722 C   0  0  0  0  0  0  0  0  0  0  0  0
   11.2361  -20.1271   23.1432 O   0  0  0  0  0  0  0  0  0  0  0  0
    9.6295  -18.4790   22.4895 C   0  0  0  0  0  0  0  0  0  0  0  0
    8.3040  -17.9418   22.9147 C   0  0  0  0  0  0  0  0  0  0  0  0
    8.2261  -16.4586   22.6680 C   0  0  2  0  0  0  0  0  0  0  0  0
    8.5993  -16.0853   21.3516 N   0  0  0  0  0  0  0  0  0  0  0  0
    8.7663  -15.6145   23.7317 C   0  0  0  0  0  0  0  0  0  0  0  0
    9.9734  -15.2209   23.5946 O   0  0  0  0  0  0  0  0  0  0  0  0
    5.5810  -11.8749   25.6853 C   0  0  0  0  0  0  0  0  0  0  0  0
    6.7323  -12.6938   25.2779 C   0  0  0  0  0  0  0  0  0  0  0  0
    7.5248  -13.4123   26.2969 C   0  0  2  0  0  0  0  0  0  0  0  0
    7.8893  -12.4634   27.4474 C   0  0  0  0  0  0  0  0  0  0  0  0
    8.5812  -14.3410   25.9430 C   0  0  2  0  0  0  0  0  0  0  0  0
    8.0660  -15.2099   24.8766 N   0  0  0  0  0  0  0  0  0  0  0  0
    9.3967  -15.0490   26.8974 C   0  0  0  0  0  0  0  0  0  0  0  0
    9.0937  -16.2815   27.1284 O   0  0  0  0  0  0  0  0  0  0  0  0
   10.4762  -14.6332   27.6256 O   0  0  0  0  0  0  0  0  0  0  0  0
  2  1  1  0
  2  3  1  0
  3  4  1  6
  5  3  1  0
  5  6  2  0
  7  8  1  0
  8  9  2  0
 10 11  1  0
 10  8  1  0
 12 11  1  1
 12 13  1  0
 13  5  1  0
 14 12  1  0
 15 14  2  0
 17 18  1  0
 17 16  1  0
 18 20  1  0
 18 19  1  1
 20 21  1  1
 20 22  1  0
 21 14  1  0
 22 24  1  0
 23 22  2  0
M  END
$$$$
