SQI.pdb
     RDKit          3D

 24 23  0  0  1  0  0  0  0  0999 V2000
    5.6107  -15.5857   20.7891 O   0  0  0  0  0  0  0  0  0  0  0  0
    6.5236  -14.9107   20.0041 C   0  0  0  0  0  0  0  0  0  0  0  0
    7.6437  -15.8554   19.6059 C   0  0  2  0  0  0  0  0  0  0  0  0
    7.1547  -16.9874   18.8781 N   0  0  0  0  0  0  0  0  0  0  0  0
    8.3941  -16.3045   20.8123 C   0  0  0  0  0  0  0  0  0  0  0  0
    8.0685  -17.3444   21.4353 O   0  0  0  0  0  0  0  0  0  0  0  0
   14.4489  -14.8288   21.9139 N   0  0  0  0  0  0  0  0  0  0  0  0
   14.0868  -15.5911   23.0405 C   0  0  0  0  0  0  0  0  0  0  0  0
   14.9395  -15.9685   23.8704 O   0  0  0  0  0  0  0  0  0  0  0  0
   12.6374  -15.9365   23.2191 C   0  0  0  0  0  0  0  0  0  0  0  0
   11.7666  -15.4259   22.1203 C   0  0  0  0  0  0  0  0  0  0  0  0
   10.3250  -15.7765   22.3761 C   0  0  2  0  0  0  0  0  0  0  0  0
    9.4825  -15.5507   21.2578 N   0  0  0  0  0  0  0  0  0  0  0  0
    9.7878  -15.3324   23.6606 C   0  0  0  0  0  0  0  0  0  0  0  0
    9.5517  -14.0833   23.7828 O   0  0  0  0  0  0  0  0  0  0  0  0
    7.0931  -12.3822   25.4538 C   0  0  0  0  0  0  0  0  0  0  0  0
    8.1869  -13.3180   25.7539 C   0  0  0  0  0  0  0  0  0  0  0  0
    7.9261  -14.7717   25.7896 C   0  0  2  0  0  0  0  0  0  0  0  0
    6.6154  -15.0544   26.5373 C   0  0  0  0  0  0  0  0  0  0  0  0
    8.9737  -15.7401   26.0516 C   0  0  2  0  0  0  0  0  0  0  0  0
    9.5156  -16.1657   24.7543 N   0  0  0  0  0  0  0  0  0  0  0  0
    8.8636  -16.8236   26.9955 C   0  0  0  0  0  0  0  0  0  0  0  0
    8.9610  -16.5243   28.2465 O   0  0  0  0  0  0  0  0  0  0  0  0
    8.6632  -18.1607   26.7943 O   0  0  0  0  0  0  0  0  0  0  0  0
  2  1  1  0
  2  3  1  0
  3  4  1  1
  5  3  1  0
  5  6  2  0
  7  8  1  0
  8  9  2  0
 10 11  1  0
 10  8  1  0
 12 11  1  6
 12 13  1  0
 13  5  1  0
 14 12  1  0
 15 14  2  0
 17 18  1  0
 17 16  1  0
 18 20  1  0
 18 19  1  1
 20 21  1  6
 20 22  1  0
 21 14  1  0
 22 24  1  0
 23 22  2  0
M  END
$$$$
