SQI.pdb
     RDKit          3D

 24 23  0  0  1  0  0  0  0  0999 V2000
    9.5848  -14.2673   20.4070 O   0  0  0  0  0  0  0  0  0  0  0  0
    8.2805  -14.4093   19.9782 C   0  0  0  0  0  0  0  0  0  0  0  0
    7.7908  -15.8090   20.3049 C   0  0  2  0  0  0  0  0  0  0  0  0
    6.4932  -16.0631   19.7553 N   0  0  0  0  0  0  0  0  0  0  0  0
    7.7750  -16.0196   21.7799 C   0  0  0  0  0  0  0  0  0  0  0  0
    6.8172  -15.6220   22.4869 O   0  0  0  0  0  0  0  0  0  0  0  0
   11.3225  -20.4895   24.6160 N   0  0  0  0  0  0  0  0  0  0  0  0
   10.6476  -19.8795   25.6903 C   0  0  0  0  0  0  0  0  0  0  0  0
   10.6940  -20.3586   26.8421 O   0  0  0  0  0  0  0  0  0  0  0  0
    9.8689  -18.6274   25.4112 C   0  0  0  0  0  0  0  0  0  0  0  0
    9.8226  -18.2685   23.9636 C   0  0  0  0  0  0  0  0  0  0  0  0
    9.0372  -17.0014   23.7537 C   0  0  2  0  0  0  0  0  0  0  0  0
    8.8500  -16.6737   22.3865 N   0  0  0  0  0  0  0  0  0  0  0  0
    9.4061  -15.8819   24.6178 C   0  0  0  0  0  0  0  0  0  0  0  0
   10.3929  -15.1655   24.2388 O   0  0  0  0  0  0  0  0  0  0  0  0
    5.7871  -12.5436   26.0999 C   0  0  0  0  0  0  0  0  0  0  0  0
    7.0626  -13.2168   25.8134 C   0  0  0  0  0  0  0  0  0  0  0  0
    7.9439  -13.6324   26.9238 C   0  0  2  0  0  0  0  0  0  0  0  0
    8.1472  -12.4659   27.9011 C   0  0  0  0  0  0  0  0  0  0  0  0
    9.1332  -14.4347   26.7098 C   0  0  2  0  0  0  0  0  0  0  0  0
    8.7644  -15.5408   25.8164 N   0  0  0  0  0  0  0  0  0  0  0  0
   10.0431  -14.8365   27.7528 C   0  0  0  0  0  0  0  0  0  0  0  0
    9.9757  -16.0619   28.1504 O   0  0  0  0  0  0  0  0  0  0  0  0
   11.0027  -14.1256   28.4177 O   0  0  0  0  0  0  0  0  0  0  0  0
  2  1  1  0
  2  3  1  0
  3  4  1  1
  5  3  1  0
  5  6  2  0
  7  8  1  0
  8  9  2  0
 10 11  1  0
 10  8  1  0
 12 11  1  6
 12 13  1  0
 13  5  1  0
 14 12  1  0
 15 14  2  0
 17 18  1  0
 17 16  1  0
 18 20  1  0
 18 19  1  6
 20 21  1  1
 20 22  1  0
 21 14  1  0
 22 24  1  0
 23 22  2  0
M  END
$$$$
