SQI.pdb
     RDKit          3D

 24 23  0  0  1  0  0  0  0  0999 V2000
    8.4647  -11.8507   19.9802 O   0  0  0  0  0  0  0  0  0  0  0  0
    9.1582  -12.9316   19.4742 C   0  0  0  0  0  0  0  0  0  0  0  0
    8.2106  -14.1062   19.3064 C   0  0  2  0  0  0  0  0  0  0  0  0
    6.9798  -13.7158   18.6875 N   0  0  0  0  0  0  0  0  0  0  0  0
    7.9430  -14.7464   20.6250 C   0  0  0  0  0  0  0  0  0  0  0  0
    6.8103  -14.6874   21.1626 O   0  0  0  0  0  0  0  0  0  0  0  0
   10.6686  -20.0525   22.1195 N   0  0  0  0  0  0  0  0  0  0  0  0
    9.2641  -19.9819   22.1828 C   0  0  0  0  0  0  0  0  0  0  0  0
    8.5603  -21.0125   22.1514 O   0  0  0  0  0  0  0  0  0  0  0  0
    8.6328  -18.6250   22.2933 C   0  0  0  0  0  0  0  0  0  0  0  0
    9.6256  -17.5137   22.3688 C   0  0  0  0  0  0  0  0  0  0  0  0
    8.9291  -16.1831   22.4733 C   0  0  2  0  0  0  0  0  0  0  0  0
    8.9759  -15.4261   21.2749 N   0  0  0  0  0  0  0  0  0  0  0  0
    9.1930  -15.4291   23.6972 C   0  0  0  0  0  0  0  0  0  0  0  0
   10.2722  -14.7470   23.7293 O   0  0  0  0  0  0  0  0  0  0  0  0
    5.7430  -12.1102   25.3264 C   0  0  0  0  0  0  0  0  0  0  0  0
    6.9367  -12.9427   25.1164 C   0  0  0  0  0  0  0  0  0  0  0  0
    7.4973  -13.7258   26.2368 C   0  0  2  0  0  0  0  0  0  0  0  0
    7.6117  -12.8463   27.4900 C   0  0  0  0  0  0  0  0  0  0  0  0
    8.6045  -14.6460   26.0606 C   0  0  2  0  0  0  0  0  0  0  0  0
    8.3595  -15.3995   24.8237 N   0  0  0  0  0  0  0  0  0  0  0  0
    9.1620  -15.4599   27.1113 C   0  0  0  0  0  0  0  0  0  0  0  0
    8.8332  -16.7073   27.1245 O   0  0  0  0  0  0  0  0  0  0  0  0
   10.0114  -15.1347   28.1317 O   0  0  0  0  0  0  0  0  0  0  0  0
  2  1  1  0
  2  3  1  0
  3  4  1  1
  5  3  1  0
  5  6  2  0
  7  8  1  0
  8  9  2  0
 10 11  1  0
 10  8  1  0
 12 11  1  6
 12 13  1  0
 13  5  1  0
 14 12  1  0
 15 14  2  0
 17 18  1  0
 17 16  1  0
 18 20  1  0
 18 19  1  1
 20 21  1  6
 20 22  1  0
 21 14  1  0
 22 24  1  0
 23 22  2  0
M  END
$$$$
