SQI.pdb
     RDKit          3D

 24 23  0  0  1  0  0  0  0  0999 V2000
    9.6551  -13.6779   19.9548 O   0  0  0  0  0  0  0  0  0  0  0  0
    9.1142  -14.8333   19.4277 C   0  0  0  0  0  0  0  0  0  0  0  0
    7.6074  -14.8166   19.6143 C   0  0  2  0  0  0  0  0  0  0  0  0
    7.0135  -13.6366   19.0618 N   0  0  0  0  0  0  0  0  0  0  0  0
    7.2644  -14.9370   21.0593 C   0  0  0  0  0  0  0  0  0  0  0  0
    6.9544  -13.9315   21.7437 O   0  0  0  0  0  0  0  0  0  0  0  0
    6.7435  -20.6777   23.9413 N   0  0  0  0  0  0  0  0  0  0  0  0
    6.5627  -19.7678   25.0000 C   0  0  0  0  0  0  0  0  0  0  0  0
    6.3016  -20.1603   26.1560 O   0  0  0  0  0  0  0  0  0  0  0  0
    6.6969  -18.3038   24.6993 C   0  0  0  0  0  0  0  0  0  0  0  0
    7.0104  -18.0189   23.2686 C   0  0  0  0  0  0  0  0  0  0  0  0
    7.0925  -16.5353   23.0262 C   0  0  2  0  0  0  0  0  0  0  0  0
    7.2891  -16.1964   21.6631 N   0  0  0  0  0  0  0  0  0  0  0  0
    7.9098  -15.7863   23.9785 C   0  0  0  0  0  0  0  0  0  0  0  0
    9.1293  -15.5874   23.6559 O   0  0  0  0  0  0  0  0  0  0  0  0
    5.3787  -11.8324   26.4327 C   0  0  0  0  0  0  0  0  0  0  0  0
    6.4415  -12.6449   25.8226 C   0  0  0  0  0  0  0  0  0  0  0  0
    7.3427  -13.4445   26.6777 C   0  0  2  0  0  0  0  0  0  0  0  0
    7.9851  -12.5507   27.7480 C   0  0  0  0  0  0  0  0  0  0  0  0
    8.2381  -14.4476   26.1339 C   0  0  2  0  0  0  0  0  0  0  0  0
    7.4595  -15.2765   25.2041 N   0  0  0  0  0  0  0  0  0  0  0  0
    9.1751  -15.2132   26.9168 C   0  0  0  0  0  0  0  0  0  0  0  0
   10.1992  -14.5845   27.3863 O   0  0  0  0  0  0  0  0  0  0  0  0
    9.1704  -16.5345   27.2666 O   0  0  0  0  0  0  0  0  0  0  0  0
  2  1  1  0
  2  3  1  0
  3  4  1  1
  5  3  1  0
  5  6  2  0
  7  8  1  0
  8  9  2  0
 10 11  1  0
 10  8  1  0
 12 11  1  6
 12 13  1  0
 13  5  1  0
 14 12  1  0
 15 14  2  0
 17 18  1  0
 17 16  1  0
 18 20  1  0
 18 19  1  6
 20 21  1  1
 20 22  1  0
 21 14  1  0
 22 24  1  0
 23 22  2  0
M  END
$$$$
