SQI.pdb
     RDKit          3D

 24 23  0  0  1  0  0  0  0  0999 V2000
    7.2124  -17.0687   20.1040 O   0  0  0  0  0  0  0  0  0  0  0  0
    7.3379  -18.4098   20.4053 C   0  0  0  0  0  0  0  0  0  0  0  0
    6.0807  -18.8894   21.1091 C   0  0  2  0  0  0  0  0  0  0  0  0
    4.9311  -18.8161   20.2586 N   0  0  0  0  0  0  0  0  0  0  0  0
    5.8521  -18.1008   22.3524 C   0  0  0  0  0  0  0  0  0  0  0  0
    5.1070  -17.0906   22.3583 O   0  0  0  0  0  0  0  0  0  0  0  0
    6.3553  -20.8658   27.8477 N   0  0  0  0  0  0  0  0  0  0  0  0
    7.6188  -20.4714   27.3688 C   0  0  0  0  0  0  0  0  0  0  0  0
    8.6666  -21.0102   27.7814 O   0  0  0  0  0  0  0  0  0  0  0  0
    7.6712  -19.3807   26.3395 C   0  0  0  0  0  0  0  0  0  0  0  0
    6.3249  -18.8717   25.9461 C   0  0  0  0  0  0  0  0  0  0  0  0
    6.4379  -17.8849   24.8147 C   0  0  2  0  0  0  0  0  0  0  0  0
    6.4811  -18.4958   23.5355 N   0  0  0  0  0  0  0  0  0  0  0  0
    7.3952  -16.7997   25.0196 C   0  0  0  0  0  0  0  0  0  0  0  0
    8.4648  -16.8390   24.3229 O   0  0  0  0  0  0  0  0  0  0  0  0
    5.3697  -11.9673   26.0173 C   0  0  0  0  0  0  0  0  0  0  0  0
    6.3064  -12.9986   25.5470 C   0  0  0  0  0  0  0  0  0  0  0  0
    7.4157  -13.4406   26.4169 C   0  0  2  0  0  0  0  0  0  0  0  0
    8.2710  -12.2360   26.8344 C   0  0  0  0  0  0  0  0  0  0  0  0
    8.1831  -14.6407   26.1436 C   0  0  2  0  0  0  0  0  0  0  0  0
    7.2278  -15.7323   25.9126 N   0  0  0  0  0  0  0  0  0  0  0  0
    9.3388  -15.0576   26.8971 C   0  0  0  0  0  0  0  0  0  0  0  0
    9.1537  -15.9509   27.8092 O   0  0  0  0  0  0  0  0  0  0  0  0
   10.6449  -14.6636   26.8119 O   0  0  0  0  0  0  0  0  0  0  0  0
  2  1  1  0
  2  3  1  0
  3  4  1  6
  5  3  1  0
  5  6  2  0
  7  8  1  0
  8  9  2  0
 10 11  1  0
 10  8  1  0
 12 11  1  1
 12 13  1  0
 13  5  1  0
 14 12  1  0
 15 14  2  0
 17 18  1  0
 17 16  1  0
 18 20  1  0
 18 19  1  6
 20 21  1  1
 20 22  1  0
 21 14  1  0
 22 24  1  0
 23 22  2  0
M  END
$$$$
