SQI.pdb
     RDKit          3D

 24 23  0  0  1  0  0  0  0  0999 V2000
    5.3753  -20.1303   24.9558 O   0  0  0  0  0  0  0  0  0  0  0  0
    6.1303  -19.0102   24.6721 C   0  0  0  0  0  0  0  0  0  0  0  0
    6.3941  -18.9437   23.1783 C   0  0  2  0  0  0  0  0  0  0  0  0
    6.8048  -20.2101   22.6512 N   0  0  0  0  0  0  0  0  0  0  0  0
    7.4204  -17.9053   22.8807 C   0  0  0  0  0  0  0  0  0  0  0  0
    8.6461  -18.1395   23.0164 O   0  0  0  0  0  0  0  0  0  0  0  0
    6.7564  -13.1384   18.9218 N   0  0  0  0  0  0  0  0  0  0  0  0
    7.8896  -12.7388   19.6551 C   0  0  0  0  0  0  0  0  0  0  0  0
    8.6696  -11.8664   19.2205 O   0  0  0  0  0  0  0  0  0  0  0  0
    8.1334  -13.3922   20.9838 C   0  0  0  0  0  0  0  0  0  0  0  0
    7.1780  -14.4982   21.2846 C   0  0  0  0  0  0  0  0  0  0  0  0
    7.7755  -15.4647   22.2723 C   0  0  2  0  0  0  0  0  0  0  0  0
    7.0077  -16.6450   22.4416 N   0  0  0  0  0  0  0  0  0  0  0  0
    8.2834  -14.8694   23.5067 C   0  0  0  0  0  0  0  0  0  0  0  0
    8.4330  -13.6012   23.5128 O   0  0  0  0  0  0  0  0  0  0  0  0
    5.9800  -12.3980   25.7605 C   0  0  0  0  0  0  0  0  0  0  0  0
    7.1871  -13.1562   25.3998 C   0  0  0  0  0  0  0  0  0  0  0  0
    7.7315  -14.1649   26.3319 C   0  0  2  0  0  0  0  0  0  0  0  0
    7.7774  -13.5960   27.7571 C   0  0  0  0  0  0  0  0  0  0  0  0
    8.8704  -14.9969   25.9936 C   0  0  2  0  0  0  0  0  0  0  0  0
    8.6138  -15.5789   24.6695 N   0  0  0  0  0  0  0  0  0  0  0  0
    9.5001  -15.9234   26.9003 C   0  0  0  0  0  0  0  0  0  0  0  0
    9.1661  -17.1651   26.7963 O   0  0  0  0  0  0  0  0  0  0  0  0
   10.4250  -15.7140   27.8847 O   0  0  0  0  0  0  0  0  0  0  0  0
  2  1  1  0
  2  3  1  0
  3  4  1  1
  5  3  1  0
  5  6  2  0
  7  8  1  0
  8  9  2  0
 10 11  1  0
 10  8  1  0
 12 11  1  1
 12 13  1  0
 13  5  1  0
 14 12  1  0
 15 14  2  0
 17 18  1  0
 17 16  1  0
 18 20  1  0
 18 19  1  1
 20 21  1  6
 20 22  1  0
 21 14  1  0
 22 24  1  0
 23 22  2  0
M  END
$$$$
