VEE.pdb
     RDKit          3D

 26 25  0  0  1  0  0  0  0  0999 V2000
   13.0625  -10.2190  -12.3799 C   0  0  0  0  0  0  0  0  0  0  0  0
   13.4231  -11.6519  -12.2246 C   0  0  1  0  0  0  0  0  0  0  0  0
   12.5316  -12.5862  -13.0094 C   0  0  0  0  0  0  0  0  0  0  0  0
   14.8865  -11.8706  -12.5524 C   0  0  2  0  0  0  0  0  0  0  0  0
   15.1658  -13.2359  -12.0536 N   0  0  0  0  0  0  0  0  0  0  0  0
   15.7392  -10.9406  -11.7996 C   0  0  0  0  0  0  0  0  0  0  0  0
   15.8586  -11.0985  -10.5495 O   0  0  0  0  0  0  0  0  0  0  0  0
   16.4673   -9.8506  -12.3462 N   0  0  0  0  0  0  0  0  0  0  0  0
   17.1940   -8.9417  -11.4745 C   0  0  1  0  0  0  0  0  0  0  0  0
   18.4907   -8.6229  -12.1813 C   0  0  0  0  0  0  0  0  0  0  0  0
   19.3633   -7.6924  -11.4186 C   0  0  0  0  0  0  0  0  0  0  0  0
   20.6388   -7.4518  -12.0870 C   0  0  0  0  0  0  0  0  0  0  0  0
   21.5652   -8.2839  -12.2104 O   0  0  0  0  0  0  0  0  0  0  0  0
   16.4140   -7.7070  -11.2005 C   0  0  0  0  0  0  0  0  0  0  0  0
   15.8649   -7.1272  -12.1659 O   0  0  0  0  0  0  0  0  0  0  0  0
   20.9268   -6.1914  -12.6718 O   0  0  0  0  0  0  0  0  0  0  0  0
   16.2662   -7.1610   -9.9008 N   0  0  0  0  0  0  0  0  0  0  0  0
   15.4649   -5.9947   -9.5760 C   0  0  1  0  0  0  0  0  0  0  0  0
   14.5550   -6.2233   -8.4289 C   0  0  0  0  0  0  0  0  0  0  0  0
   13.6958   -5.1215   -7.9632 C   0  0  0  0  0  0  0  0  0  0  0  0
   12.7617   -5.3558   -6.8697 C   0  0  0  0  0  0  0  0  0  0  0  0
   12.5970   -6.4462   -6.3168 O   0  0  0  0  0  0  0  0  0  0  0  0
   16.1835   -4.7230   -9.6366 C   0  0  0  0  0  0  0  0  0  0  0  0
   17.4010   -4.5892   -9.3294 O   0  0  0  0  0  0  0  0  0  0  0  0
   11.9621   -4.3098   -6.3619 O   0  0  0  0  0  0  0  0  0  0  0  0
   15.5133   -3.5826  -10.0521 O   0  0  0  0  0  0  0  0  0  0  0  0
  2  4  1  0
  2  1  1  6
  3  2  1  0
  4  6  1  0
  4  5  1  1
  6  7  2  0
  8  6  1  0
  8  9  1  0
  9 14  1  0
  9 10  1  6
 11 10  1  0
 12 16  1  0
 12 11  1  0
 13 12  2  0
 14 15  2  0
 17 18  1  0
 17 14  1  0
 18 23  1  0
 18 19  1  1
 20 19  1  0
 21 22  2  0
 21 20  1  0
 23 24  2  0
 23 26  1  0
 25 21  1  0
M  END
$$$$
