VEE.pdb
     RDKit          3D

 26 25  0  0  1  0  0  0  0  0999 V2000
   19.5045  -12.8882  -18.6016 C   0  0  0  0  0  0  0  0  0  0  0  0
   19.3684  -11.6677  -17.7654 C   0  0  1  0  0  0  0  0  0  0  0  0
   18.0302  -11.5582  -17.0721 C   0  0  0  0  0  0  0  0  0  0  0  0
   20.5166  -11.5664  -16.7813 C   0  0  2  0  0  0  0  0  0  0  0  0
   20.3831  -12.7823  -15.9479 N   0  0  0  0  0  0  0  0  0  0  0  0
   20.3519  -10.4036  -15.8984 C   0  0  0  0  0  0  0  0  0  0  0  0
   19.6025  -10.5093  -14.8839 O   0  0  0  0  0  0  0  0  0  0  0  0
   20.9671   -9.1350  -16.0693 N   0  0  0  0  0  0  0  0  0  0  0  0
   20.5953   -8.0175  -15.2166 C   0  0  1  0  0  0  0  0  0  0  0  0
   21.7090   -7.0037  -15.3373 C   0  0  0  0  0  0  0  0  0  0  0  0
   21.4569   -5.7579  -14.5667 C   0  0  0  0  0  0  0  0  0  0  0  0
   22.4899   -4.7496  -14.7856 C   0  0  0  0  0  0  0  0  0  0  0  0
   23.5684   -4.6629  -14.1570 O   0  0  0  0  0  0  0  0  0  0  0  0
   19.2905   -7.4325  -15.6207 C   0  0  0  0  0  0  0  0  0  0  0  0
   19.0514   -7.3073  -16.8442 O   0  0  0  0  0  0  0  0  0  0  0  0
   22.3299   -3.7485  -15.7784 O   0  0  0  0  0  0  0  0  0  0  0  0
   18.3113   -7.0126  -14.6859 N   0  0  0  0  0  0  0  0  0  0  0  0
   17.0520   -6.3776  -15.0307 C   0  0  1  0  0  0  0  0  0  0  0  0
   15.8843   -7.2667  -14.8255 C   0  0  0  0  0  0  0  0  0  0  0  0
   14.5276   -6.7250  -15.0125 C   0  0  0  0  0  0  0  0  0  0  0  0
   13.4236   -7.6373  -15.2802 C   0  0  0  0  0  0  0  0  0  0  0  0
   13.5336   -8.8647  -15.3386 O   0  0  0  0  0  0  0  0  0  0  0  0
   16.9337   -4.9837  -14.6061 C   0  0  0  0  0  0  0  0  0  0  0  0
   17.1615   -4.5863  -13.4293 O   0  0  0  0  0  0  0  0  0  0  0  0
   12.1166   -7.1510  -15.4960 O   0  0  0  0  0  0  0  0  0  0  0  0
   16.5511   -4.0221  -15.5289 O   0  0  0  0  0  0  0  0  0  0  0  0
  2  4  1  0
  2  1  1  1
  3  2  1  0
  4  6  1  0
  4  5  1  1
  6  7  2  0
  8  6  1  0
  8  9  1  0
  9 14  1  0
  9 10  1  6
 11 10  1  0
 12 16  1  0
 12 11  1  0
 13 12  2  0
 14 15  2  0
 17 18  1  0
 17 14  1  0
 18 23  1  0
 18 19  1  1
 20 19  1  0
 21 22  2  0
 21 20  1  0
 23 24  2  0
 23 26  1  0
 25 21  1  0
M  END
$$$$
