VEE.pdb
     RDKit          3D

 26 25  0  0  1  0  0  0  0  0999 V2000
   18.3464  -12.7353  -18.4674 C   0  0  0  0  0  0  0  0  0  0  0  0
   18.2493  -11.4212  -17.7810 C   0  0  1  0  0  0  0  0  0  0  0  0
   16.8350  -11.0366  -17.4130 C   0  0  0  0  0  0  0  0  0  0  0  0
   19.1697  -11.3803  -16.5776 C   0  0  2  0  0  0  0  0  0  0  0  0
   18.6850  -12.4832  -15.7176 N   0  0  0  0  0  0  0  0  0  0  0  0
   19.0015  -10.1275  -15.8288 C   0  0  0  0  0  0  0  0  0  0  0  0
   18.0214  -10.0181  -15.0353 O   0  0  0  0  0  0  0  0  0  0  0  0
   19.8518   -8.9924  -15.9035 N   0  0  0  0  0  0  0  0  0  0  0  0
   19.5722   -7.8112  -15.1032 C   0  0  1  0  0  0  0  0  0  0  0  0
   20.9090   -7.1694  -14.8138 C   0  0  0  0  0  0  0  0  0  0  0  0
   20.7991   -5.8993  -14.0496 C   0  0  0  0  0  0  0  0  0  0  0  0
   22.1028   -5.3673  -13.6639 C   0  0  0  0  0  0  0  0  0  0  0  0
   22.3000   -4.2912  -13.0564 O   0  0  0  0  0  0  0  0  0  0  0  0
   18.6678   -6.8709  -15.8145 C   0  0  0  0  0  0  0  0  0  0  0  0
   18.9165   -6.6027  -17.0128 O   0  0  0  0  0  0  0  0  0  0  0  0
   23.2953   -6.0732  -13.9691 O   0  0  0  0  0  0  0  0  0  0  0  0
   17.5427   -6.2683  -15.1980 N   0  0  0  0  0  0  0  0  0  0  0  0
   16.6776   -5.2864  -15.8267 C   0  0  1  0  0  0  0  0  0  0  0  0
   15.2692   -5.7374  -15.9214 C   0  0  0  0  0  0  0  0  0  0  0  0
   14.5274   -6.0400  -14.6856 C   0  0  0  0  0  0  0  0  0  0  0  0
   13.1058   -6.3505  -14.7623 C   0  0  0  0  0  0  0  0  0  0  0  0
   12.2288   -5.5305  -15.0455 O   0  0  0  0  0  0  0  0  0  0  0  0
   16.9277   -3.9037  -15.4233 C   0  0  0  0  0  0  0  0  0  0  0  0
   17.6623   -3.5784  -14.4490 O   0  0  0  0  0  0  0  0  0  0  0  0
   12.6335   -7.6557  -14.5075 O   0  0  0  0  0  0  0  0  0  0  0  0
   16.3366   -2.8705  -16.1343 O   0  0  0  0  0  0  0  0  0  0  0  0
  2  4  1  0
  2  1  1  1
  3  2  1  0
  4  6  1  0
  4  5  1  1
  6  7  2  0
  8  6  1  0
  8  9  1  0
  9 14  1  0
  9 10  1  6
 11 10  1  0
 12 16  1  0
 12 11  1  0
 13 12  2  0
 14 15  2  0
 17 18  1  0
 17 14  1  0
 18 23  1  0
 18 19  1  1
 20 19  1  0
 21 22  2  0
 21 20  1  0
 23 24  2  0
 23 26  1  0
 25 21  1  0
M  END
$$$$
