VEE.pdb
     RDKit          3D

 26 25  0  0  1  0  0  0  0  0999 V2000
   17.0708   -9.4423  -17.0225 C   0  0  0  0  0  0  0  0  0  0  0  0
   16.8041  -10.8911  -16.8294 C   0  0  1  0  0  0  0  0  0  0  0  0
   15.6370  -11.4026  -17.6416 C   0  0  0  0  0  0  0  0  0  0  0  0
   18.0591  -11.7016  -17.0843 C   0  0  2  0  0  0  0  0  0  0  0  0
   17.7369  -13.0415  -16.5441 N   0  0  0  0  0  0  0  0  0  0  0  0
   19.1924  -11.1734  -16.3128 C   0  0  0  0  0  0  0  0  0  0  0  0
   19.2256  -11.3730  -15.0634 O   0  0  0  0  0  0  0  0  0  0  0  0
   20.2894  -10.4415  -16.8400 N   0  0  0  0  0  0  0  0  0  0  0  0
   21.3008   -9.8921  -15.9517 C   0  0  1  0  0  0  0  0  0  0  0  0
   22.6217  -10.4675  -16.4064 C   0  0  0  0  0  0  0  0  0  0  0  0
   22.8822  -11.8322  -15.8782 C   0  0  0  0  0  0  0  0  0  0  0  0
   24.2248  -12.3068  -16.2006 C   0  0  0  0  0  0  0  0  0  0  0  0
   25.1135  -11.6419  -16.7785 O   0  0  0  0  0  0  0  0  0  0  0  0
   21.3183   -8.4069  -15.9959 C   0  0  0  0  0  0  0  0  0  0  0  0
   21.0104   -7.8431  -17.0716 O   0  0  0  0  0  0  0  0  0  0  0  0
   24.6314  -13.6233  -15.8616 O   0  0  0  0  0  0  0  0  0  0  0  0
   21.6667   -7.6064  -14.8793 N   0  0  0  0  0  0  0  0  0  0  0  0
   21.6895   -6.1547  -14.8728 C   0  0  1  0  0  0  0  0  0  0  0  0
   20.5664   -5.5584  -15.6337 C   0  0  0  0  0  0  0  0  0  0  0  0
   19.2542   -5.4122  -14.9811 C   0  0  0  0  0  0  0  0  0  0  0  0
   18.1788   -4.7237  -15.6828 C   0  0  0  0  0  0  0  0  0  0  0  0
   18.0222   -3.5000  -15.6871 O   0  0  0  0  0  0  0  0  0  0  0  0
   22.0397   -5.5545  -13.5866 C   0  0  0  0  0  0  0  0  0  0  0  0
   22.1330   -6.2069  -12.5094 O   0  0  0  0  0  0  0  0  0  0  0  0
   17.2192   -5.4442  -16.4254 O   0  0  0  0  0  0  0  0  0  0  0  0
   22.2889   -4.1923  -13.5174 O   0  0  0  0  0  0  0  0  0  0  0  0
  2  4  1  0
  2  1  1  6
  3  2  1  0
  4  6  1  0
  4  5  1  1
  6  7  2  0
  8  6  1  0
  8  9  1  0
  9 14  1  0
  9 10  1  6
 11 10  1  0
 12 16  1  0
 12 11  1  0
 13 12  2  0
 14 15  2  0
 17 18  1  0
 17 14  1  0
 18 23  1  0
 18 19  1  1
 20 19  1  0
 21 22  2  0
 21 20  1  0
 23 24  2  0
 23 26  1  0
 25 21  1  0
M  END
$$$$
