VEE.pdb
     RDKit          3D

 26 25  0  0  1  0  0  0  0  0999 V2000
   23.7544  -13.6237  -18.2119 C   0  0  0  0  0  0  0  0  0  0  0  0
   22.4809  -12.8595  -18.1713 C   0  0  1  0  0  0  0  0  0  0  0  0
   21.2941  -13.6884  -17.7379 C   0  0  0  0  0  0  0  0  0  0  0  0
   22.6339  -11.6157  -17.3190 C   0  0  2  0  0  0  0  0  0  0  0  0
   22.9947  -12.1389  -15.9822 N   0  0  0  0  0  0  0  0  0  0  0  0
   21.3534  -10.9074  -17.1871 C   0  0  0  0  0  0  0  0  0  0  0  0
   20.9573  -10.1802  -18.1443 O   0  0  0  0  0  0  0  0  0  0  0  0
   20.4865  -10.9572  -16.0633 N   0  0  0  0  0  0  0  0  0  0  0  0
   19.2567  -10.1817  -16.0493 C   0  0  1  0  0  0  0  0  0  0  0  0
   18.1875  -11.0930  -15.4933 C   0  0  0  0  0  0  0  0  0  0  0  0
   17.5441  -11.9447  -16.5276 C   0  0  0  0  0  0  0  0  0  0  0  0
   16.5850  -12.8854  -15.9558 C   0  0  0  0  0  0  0  0  0  0  0  0
   15.6205  -13.4021  -16.5630 O   0  0  0  0  0  0  0  0  0  0  0  0
   19.3956   -8.9522  -15.2264 C   0  0  0  0  0  0  0  0  0  0  0  0
   20.2742   -8.9336  -14.3334 O   0  0  0  0  0  0  0  0  0  0  0  0
   16.6893  -13.2973  -14.6019 O   0  0  0  0  0  0  0  0  0  0  0  0
   18.5807   -7.8068  -15.4081 N   0  0  0  0  0  0  0  0  0  0  0  0
   18.8896   -6.4796  -14.9071 C   0  0  1  0  0  0  0  0  0  0  0  0
   20.3461   -6.2151  -14.8390 C   0  0  0  0  0  0  0  0  0  0  0  0
   20.8170   -4.9160  -14.3294 C   0  0  0  0  0  0  0  0  0  0  0  0
   22.2466   -4.6880  -14.1642 C   0  0  0  0  0  0  0  0  0  0  0  0
   22.8579   -4.8428  -13.1039 O   0  0  0  0  0  0  0  0  0  0  0  0
   18.0242   -5.4170  -15.4162 C   0  0  0  0  0  0  0  0  0  0  0  0
   17.5175   -5.4179  -16.5729 O   0  0  0  0  0  0  0  0  0  0  0  0
   23.0432   -4.2610  -15.2479 O   0  0  0  0  0  0  0  0  0  0  0  0
   17.7266   -4.3343  -14.6028 O   0  0  0  0  0  0  0  0  0  0  0  0
  2  4  1  0
  2  1  1  1
  3  2  1  0
  4  6  1  0
  4  5  1  1
  6  7  2  0
  8  6  1  0
  8  9  1  0
  9 14  1  0
  9 10  1  1
 11 10  1  0
 12 16  1  0
 12 11  1  0
 13 12  2  0
 14 15  2  0
 17 18  1  0
 17 14  1  0
 18 23  1  0
 18 19  1  6
 20 19  1  0
 21 22  2  0
 21 20  1  0
 23 24  2  0
 23 26  1  0
 25 21  1  0
M  END
$$$$
