VEE.pdb
     RDKit          3D

 26 25  0  0  1  0  0  0  0  0999 V2000
   22.9288  -11.3797  -18.6847 C   0  0  0  0  0  0  0  0  0  0  0  0
   24.2013  -11.2788  -17.9244 C   0  0  1  0  0  0  0  0  0  0  0  0
   25.4070  -11.7536  -18.7018 C   0  0  0  0  0  0  0  0  0  0  0  0
   24.3960   -9.8711  -17.3977 C   0  0  2  0  0  0  0  0  0  0  0  0
   25.5897   -9.9751  -16.5287 N   0  0  0  0  0  0  0  0  0  0  0  0
   23.2657   -9.4649  -16.5515 C   0  0  0  0  0  0  0  0  0  0  0  0
   23.0737  -10.0719  -15.4575 O   0  0  0  0  0  0  0  0  0  0  0  0
   22.3391   -8.4284  -16.8414 N   0  0  0  0  0  0  0  0  0  0  0  0
   21.2500   -8.1386  -15.9228 C   0  0  1  0  0  0  0  0  0  0  0  0
   21.4541   -6.7150  -15.4596 C   0  0  0  0  0  0  0  0  0  0  0  0
   22.4187   -6.5945  -14.3353 C   0  0  0  0  0  0  0  0  0  0  0  0
   22.6225   -5.2088  -13.9230 C   0  0  0  0  0  0  0  0  0  0  0  0
   23.5106   -4.4422  -14.3582 O   0  0  0  0  0  0  0  0  0  0  0  0
   19.9256   -8.3064  -16.5754 C   0  0  0  0  0  0  0  0  0  0  0  0
   19.7923   -7.9073  -17.7555 O   0  0  0  0  0  0  0  0  0  0  0  0
   21.7820   -4.6087  -12.9499 O   0  0  0  0  0  0  0  0  0  0  0  0
   18.8136   -8.8951  -15.9227 N   0  0  0  0  0  0  0  0  0  0  0  0
   17.4825   -9.0103  -16.4906 C   0  0  1  0  0  0  0  0  0  0  0  0
   16.6593  -10.0451  -15.8215 C   0  0  0  0  0  0  0  0  0  0  0  0
   15.2833  -10.2821  -16.2903 C   0  0  0  0  0  0  0  0  0  0  0  0
   14.4556  -11.2692  -15.6095 C   0  0  0  0  0  0  0  0  0  0  0  0
   14.8258  -11.9399  -14.6426 O   0  0  0  0  0  0  0  0  0  0  0  0
   16.8455   -7.7362  -16.8194 C   0  0  0  0  0  0  0  0  0  0  0  0
   16.8442   -6.7332  -16.0521 O   0  0  0  0  0  0  0  0  0  0  0  0
   13.1338  -11.5239  -16.0332 O   0  0  0  0  0  0  0  0  0  0  0  0
   16.1987   -7.5938  -18.0375 O   0  0  0  0  0  0  0  0  0  0  0  0
  2  4  1  0
  2  1  1  6
  3  2  1  0
  4  6  1  0
  4  5  1  1
  6  7  2  0
  8  6  1  0
  8  9  1  0
  9 14  1  0
  9 10  1  6
 11 10  1  0
 12 16  1  0
 12 11  1  0
 13 12  2  0
 14 15  2  0
 17 18  1  0
 17 14  1  0
 18 23  1  0
 18 19  1  1
 20 19  1  0
 21 22  2  0
 21 20  1  0
 23 24  2  0
 23 26  1  0
 25 21  1  0
M  END
$$$$
