VEE.pdb
     RDKit          3D

 26 25  0  0  1  0  0  0  0  0999 V2000
   17.3616  -24.0387   -1.1374 C   0  0  0  0  0  0  0  0  0  0  0  0
   17.4647  -24.3646   -2.5833 C   0  0  1  0  0  0  0  0  0  0  0  0
   18.8470  -24.8067   -3.0044 C   0  0  0  0  0  0  0  0  0  0  0  0
   16.4104  -25.3799   -2.9762 C   0  0  2  0  0  0  0  0  0  0  0  0
   15.1369  -24.7591   -2.5473 N   0  0  0  0  0  0  0  0  0  0  0  0
   16.5729  -26.6277   -2.2178 C   0  0  0  0  0  0  0  0  0  0  0  0
   16.1031  -26.6937   -1.0443 O   0  0  0  0  0  0  0  0  0  0  0  0
   17.2203  -27.8043   -2.6797 N   0  0  0  0  0  0  0  0  0  0  0  0
   17.3888  -28.9456   -1.7948 C   0  0  1  0  0  0  0  0  0  0  0  0
   17.6165  -30.1435   -2.6870 C   0  0  0  0  0  0  0  0  0  0  0  0
   17.7690  -31.4167   -1.9355 C   0  0  0  0  0  0  0  0  0  0  0  0
   17.9582  -32.5644   -2.8178 C   0  0  0  0  0  0  0  0  0  0  0  0
   17.9676  -33.7639   -2.4613 O   0  0  0  0  0  0  0  0  0  0  0  0
   18.5266  -28.7486   -0.8596 C   0  0  0  0  0  0  0  0  0  0  0  0
   19.4711  -28.0103   -1.2237 O   0  0  0  0  0  0  0  0  0  0  0  0
   18.1545  -32.3854   -4.2117 O   0  0  0  0  0  0  0  0  0  0  0  0
   18.5879  -29.3572    0.4190 N   0  0  0  0  0  0  0  0  0  0  0  0
   19.6749  -29.1906    1.3670 C   0  0  1  0  0  0  0  0  0  0  0  0
   19.7602  -27.8137    1.9081 C   0  0  0  0  0  0  0  0  0  0  0  0
   18.6866  -27.3196    2.7869 C   0  0  0  0  0  0  0  0  0  0  0  0
   18.7778  -25.9755    3.3418 C   0  0  0  0  0  0  0  0  0  0  0  0
   17.8140  -25.2229    3.5046 O   0  0  0  0  0  0  0  0  0  0  0  0
   19.8501  -30.3039    2.2982 C   0  0  0  0  0  0  0  0  0  0  0  0
   19.0178  -31.2439    2.4333 O   0  0  0  0  0  0  0  0  0  0  0  0
   20.0204  -25.4376    3.7395 O   0  0  0  0  0  0  0  0  0  0  0  0
   20.9868  -30.3550    3.0905 O   0  0  0  0  0  0  0  0  0  0  0  0
  2  4  1  0
  2  1  1  1
  3  2  1  0
  4  6  1  0
  4  5  1  1
  6  7  2  0
  8  6  1  0
  8  9  1  0
  9 14  1  0
  9 10  1  6
 11 10  1  0
 12 16  1  0
 12 11  1  0
 13 12  2  0
 14 15  2  0
 17 18  1  0
 17 14  1  0
 18 23  1  0
 18 19  1  1
 20 19  1  0
 21 22  2  0
 21 20  1  0
 23 24  2  0
 23 26  1  0
 25 21  1  0
M  END
$$$$
