VEE.pdb
     RDKit          3D

 26 25  0  0  1  0  0  0  0  0999 V2000
   17.7443  -13.1159  -18.4173 C   0  0  0  0  0  0  0  0  0  0  0  0
   17.3426  -13.4811  -17.0342 C   0  0  1  0  0  0  0  0  0  0  0  0
   17.3153  -14.9719  -16.7884 C   0  0  0  0  0  0  0  0  0  0  0  0
   18.2121  -12.7643  -16.0209 C   0  0  2  0  0  0  0  0  0  0  0  0
   17.7185  -13.2539  -14.7142 N   0  0  0  0  0  0  0  0  0  0  0  0
   17.9849  -11.3134  -16.0652 C   0  0  0  0  0  0  0  0  0  0  0  0
   18.3790  -10.6650  -17.0783 O   0  0  0  0  0  0  0  0  0  0  0  0
   17.3473  -10.5395  -15.0594 N   0  0  0  0  0  0  0  0  0  0  0  0
   17.1050   -9.1210  -15.2671 C   0  0  1  0  0  0  0  0  0  0  0  0
   15.8135   -8.8025  -14.5507 C   0  0  0  0  0  0  0  0  0  0  0  0
   14.6752   -8.5520  -15.4729 C   0  0  0  0  0  0  0  0  0  0  0  0
   13.4413   -8.2338  -14.7603 C   0  0  0  0  0  0  0  0  0  0  0  0
   13.0615   -7.0860  -14.4374 O   0  0  0  0  0  0  0  0  0  0  0  0
   18.2251   -8.2938  -14.7484 C   0  0  0  0  0  0  0  0  0  0  0  0
   18.7874   -8.6561  -13.6890 O   0  0  0  0  0  0  0  0  0  0  0  0
   12.5441   -9.2600  -14.3661 O   0  0  0  0  0  0  0  0  0  0  0  0
   18.6810   -7.1192  -15.3976 N   0  0  0  0  0  0  0  0  0  0  0  0
   19.7647   -6.2764  -14.9252 C   0  0  1  0  0  0  0  0  0  0  0  0
   20.8645   -6.1477  -15.9101 C   0  0  0  0  0  0  0  0  0  0  0  0
   22.0569   -5.3590  -15.5561 C   0  0  0  0  0  0  0  0  0  0  0  0
   23.1512   -5.2485  -16.5117 C   0  0  0  0  0  0  0  0  0  0  0  0
   23.9323   -6.1637  -16.7841 O   0  0  0  0  0  0  0  0  0  0  0  0
   19.3377   -5.0720  -14.2150 C   0  0  0  0  0  0  0  0  0  0  0  0
   18.3267   -4.3878  -14.5379 O   0  0  0  0  0  0  0  0  0  0  0  0
   23.3889   -4.0433  -17.2062 O   0  0  0  0  0  0  0  0  0  0  0  0
   20.0670   -4.6338  -13.1202 O   0  0  0  0  0  0  0  0  0  0  0  0
  2  4  1  0
  2  1  1  6
  3  2  1  0
  4  6  1  0
  4  5  1  1
  6  7  2  0
  8  6  1  0
  8  9  1  0
  9 14  1  0
  9 10  1  1
 11 10  1  0
 12 16  1  0
 12 11  1  0
 13 12  2  0
 14 15  2  0
 17 18  1  0
 17 14  1  0
 18 23  1  0
 18 19  1  6
 20 19  1  0
 21 22  2  0
 21 20  1  0
 23 24  2  0
 23 26  1  0
 25 21  1  0
M  END
$$$$
