VEE.pdb
     RDKit          3D

 26 25  0  0  1  0  0  0  0  0999 V2000
   27.8075  -14.6686  -16.3965 C   0  0  0  0  0  0  0  0  0  0  0  0
   26.7549  -13.8659  -17.0711 C   0  0  1  0  0  0  0  0  0  0  0  0
   25.7956  -14.6972  -17.8909 C   0  0  0  0  0  0  0  0  0  0  0  0
   26.0234  -12.9972  -16.0676 C   0  0  2  0  0  0  0  0  0  0  0  0
   25.4511  -13.9651  -15.1050 N   0  0  0  0  0  0  0  0  0  0  0  0
   24.9038  -12.2885  -16.7024 C   0  0  0  0  0  0  0  0  0  0  0  0
   25.1567  -11.3367  -17.4974 O   0  0  0  0  0  0  0  0  0  0  0  0
   23.5250  -12.5709  -16.5123 N   0  0  0  0  0  0  0  0  0  0  0  0
   22.5116  -11.7467  -17.1508 C   0  0  1  0  0  0  0  0  0  0  0  0
   21.5070  -12.7011  -17.7531 C   0  0  0  0  0  0  0  0  0  0  0  0
   20.3580  -12.0152  -18.4001 C   0  0  0  0  0  0  0  0  0  0  0  0
   19.4083  -12.9551  -18.9885 C   0  0  0  0  0  0  0  0  0  0  0  0
   18.1756  -12.7715  -19.1004 O   0  0  0  0  0  0  0  0  0  0  0  0
   21.8637  -10.8273  -16.1798 C   0  0  0  0  0  0  0  0  0  0  0  0
   21.5760  -11.2724  -15.0445 O   0  0  0  0  0  0  0  0  0  0  0  0
   19.8443  -14.2052  -19.4992 O   0  0  0  0  0  0  0  0  0  0  0  0
   21.5592   -9.4764  -16.4822 N   0  0  0  0  0  0  0  0  0  0  0  0
   21.0189   -8.5152  -15.5378 C   0  0  1  0  0  0  0  0  0  0  0  0
   21.9578   -7.4068  -15.2445 C   0  0  0  0  0  0  0  0  0  0  0  0
   21.5433   -6.3410  -14.3164 C   0  0  0  0  0  0  0  0  0  0  0  0
   22.4671   -5.2553  -14.0151 C   0  0  0  0  0  0  0  0  0  0  0  0
   23.6117   -5.1700  -14.4673 O   0  0  0  0  0  0  0  0  0  0  0  0
   19.6100   -8.1826  -15.7422 C   0  0  0  0  0  0  0  0  0  0  0  0
   19.0590   -8.1282  -16.8771 O   0  0  0  0  0  0  0  0  0  0  0  0
   22.0913   -4.2002  -13.1567 O   0  0  0  0  0  0  0  0  0  0  0  0
   18.8103   -7.9068  -14.6437 O   0  0  0  0  0  0  0  0  0  0  0  0
  2  4  1  0
  2  1  1  1
  3  2  1  0
  4  6  1  0
  4  5  1  1
  6  7  2  0
  8  6  1  0
  8  9  1  0
  9 14  1  0
  9 10  1  1
 11 10  1  0
 12 16  1  0
 12 11  1  0
 13 12  2  0
 14 15  2  0
 17 18  1  0
 17 14  1  0
 18 23  1  0
 18 19  1  6
 20 19  1  0
 21 22  2  0
 21 20  1  0
 23 24  2  0
 23 26  1  0
 25 21  1  0
M  END
$$$$
