VEE.pdb
     RDKit          3D

 26 25  0  0  1  0  0  0  0  0999 V2000
   22.1478  -10.3373  -16.2553 C   0  0  0  0  0  0  0  0  0  0  0  0
   23.3872  -10.8415  -15.6093 C   0  0  1  0  0  0  0  0  0  0  0  0
   23.4456  -12.3483  -15.5112 C   0  0  0  0  0  0  0  0  0  0  0  0
   24.6135  -10.2794  -16.3001 C   0  0  2  0  0  0  0  0  0  0  0  0
   25.7389  -10.7121  -15.4415 N   0  0  0  0  0  0  0  0  0  0  0  0
   24.5925   -8.8103  -16.2966 C   0  0  0  0  0  0  0  0  0  0  0  0
   24.7039   -8.2014  -15.1925 O   0  0  0  0  0  0  0  0  0  0  0  0
   24.4583   -7.9770  -17.4387 N   0  0  0  0  0  0  0  0  0  0  0  0
   24.3147   -6.5383  -17.2855 C   0  0  1  0  0  0  0  0  0  0  0  0
   25.1409   -5.9107  -18.3838 C   0  0  0  0  0  0  0  0  0  0  0  0
   26.6022   -5.9469  -18.1147 C   0  0  0  0  0  0  0  0  0  0  0  0
   27.3767   -5.2797  -19.1572 C   0  0  0  0  0  0  0  0  0  0  0  0
   27.8978   -5.8385  -20.1482 O   0  0  0  0  0  0  0  0  0  0  0  0
   22.8922   -6.1185  -17.3770 C   0  0  0  0  0  0  0  0  0  0  0  0
   22.0884   -6.8758  -17.9687 O   0  0  0  0  0  0  0  0  0  0  0  0
   27.6011   -3.8793  -19.1125 O   0  0  0  0  0  0  0  0  0  0  0  0
   22.4097   -4.9047  -16.8265 N   0  0  0  0  0  0  0  0  0  0  0  0
   21.0166   -4.4962  -16.8096 C   0  0  1  0  0  0  0  0  0  0  0  0
   20.1019   -5.5883  -16.4013 C   0  0  0  0  0  0  0  0  0  0  0  0
   18.6587   -5.3143  -16.2951 C   0  0  0  0  0  0  0  0  0  0  0  0
   17.7542   -6.3858  -15.8992 C   0  0  0  0  0  0  0  0  0  0  0  0
   17.8291   -7.0011  -14.8325 O   0  0  0  0  0  0  0  0  0  0  0  0
   20.7772   -3.1622  -16.2616 C   0  0  0  0  0  0  0  0  0  0  0  0
   19.6738   -2.5544  -16.3501 O   0  0  0  0  0  0  0  0  0  0  0  0
   16.7017   -6.7964  -16.7448 O   0  0  0  0  0  0  0  0  0  0  0  0
   21.8037   -2.5039  -15.6018 O   0  0  0  0  0  0  0  0  0  0  0  0
  2  4  1  0
  2  1  1  6
  3  2  1  0
  4  6  1  0
  4  5  1  1
  6  7  2  0
  8  6  1  0
  8  9  1  0
  9 14  1  0
  9 10  1  6
 11 10  1  0
 12 16  1  0
 12 11  1  0
 13 12  2  0
 14 15  2  0
 17 18  1  0
 17 14  1  0
 18 23  1  0
 18 19  1  1
 20 19  1  0
 21 22  2  0
 21 20  1  0
 23 24  2  0
 23 26  1  0
 25 21  1  0
M  END
$$$$
