VEE.pdb
     RDKit          3D

 26 25  0  0  1  0  0  0  0  0999 V2000
   20.2235  -10.2249  -20.6383 C   0  0  0  0  0  0  0  0  0  0  0  0
   19.9235   -9.1148  -19.6975 C   0  0  1  0  0  0  0  0  0  0  0  0
   18.7410   -8.2724  -20.1167 C   0  0  0  0  0  0  0  0  0  0  0  0
   19.7599   -9.6430  -18.2864 C   0  0  2  0  0  0  0  0  0  0  0  0
   18.5695  -10.5189  -18.3669 N   0  0  0  0  0  0  0  0  0  0  0  0
   19.4472   -8.5548  -17.3500 C   0  0  0  0  0  0  0  0  0  0  0  0
   18.2523   -8.1457  -17.2677 O   0  0  0  0  0  0  0  0  0  0  0  0
   20.3746   -7.8957  -16.5001 N   0  0  0  0  0  0  0  0  0  0  0  0
   19.9690   -6.7267  -15.7367 C   0  0  1  0  0  0  0  0  0  0  0  0
   20.4420   -6.9602  -14.3209 C   0  0  0  0  0  0  0  0  0  0  0  0
   19.5130   -7.8008  -13.5212 C   0  0  0  0  0  0  0  0  0  0  0  0
   19.8727   -7.8365  -12.1066 C   0  0  0  0  0  0  0  0  0  0  0  0
   20.9261   -7.3779  -11.6108 O   0  0  0  0  0  0  0  0  0  0  0  0
   20.5496   -5.4793  -16.2980 C   0  0  0  0  0  0  0  0  0  0  0  0
   21.5041   -5.5807  -17.1033 O   0  0  0  0  0  0  0  0  0  0  0  0
   19.0049   -8.4249  -11.1504 O   0  0  0  0  0  0  0  0  0  0  0  0
   20.0720   -4.1876  -15.9625 N   0  0  0  0  0  0  0  0  0  0  0  0
   20.5102   -2.9521  -16.5863 C   0  0  1  0  0  0  0  0  0  0  0  0
   20.7311   -3.0911  -18.0451 C   0  0  0  0  0  0  0  0  0  0  0  0
   21.1027   -1.9027  -18.8316 C   0  0  0  0  0  0  0  0  0  0  0  0
   21.9594   -2.0572  -20.0000 C   0  0  0  0  0  0  0  0  0  0  0  0
   21.7161   -1.5762  -21.1097 O   0  0  0  0  0  0  0  0  0  0  0  0
   19.8277   -1.7505  -16.1090 C   0  0  0  0  0  0  0  0  0  0  0  0
   18.6438   -1.7431  -15.6699 O   0  0  0  0  0  0  0  0  0  0  0  0
   23.1610   -2.7934  -19.9263 O   0  0  0  0  0  0  0  0  0  0  0  0
   20.4961   -0.5359  -16.1286 O   0  0  0  0  0  0  0  0  0  0  0  0
  2  4  1  0
  2  1  1  6
  3  2  1  0
  4  6  1  0
  4  5  1  6
  6  7  2  0
  8  6  1  0
  8  9  1  0
  9 14  1  0
  9 10  1  1
 11 10  1  0
 12 16  1  0
 12 11  1  0
 13 12  2  0
 14 15  2  0
 17 18  1  0
 17 14  1  0
 18 23  1  0
 18 19  1  6
 20 19  1  0
 21 22  2  0
 21 20  1  0
 23 24  2  0
 23 26  1  0
 25 21  1  0
M  END
$$$$
