VEE.pdb
     RDKit          3D

 26 25  0  0  1  0  0  0  0  0999 V2000
   26.1310  -32.1248   -5.8133 C   0  0  0  0  0  0  0  0  0  0  0  0
   26.5905  -33.0133   -4.7147 C   0  0  1  0  0  0  0  0  0  0  0  0
   25.4640  -33.7364   -4.0134 C   0  0  0  0  0  0  0  0  0  0  0  0
   27.6456  -33.9783   -5.2171 C   0  0  2  0  0  0  0  0  0  0  0  0
   26.9423  -34.7742   -6.2480 N   0  0  0  0  0  0  0  0  0  0  0  0
   28.0638  -34.9014   -4.1532 C   0  0  0  0  0  0  0  0  0  0  0  0
   27.3594  -35.9277   -3.9246 O   0  0  0  0  0  0  0  0  0  0  0  0
   29.2130  -34.7582   -3.3312 N   0  0  0  0  0  0  0  0  0  0  0  0
   29.4052  -35.6251   -2.1798 C   0  0  1  0  0  0  0  0  0  0  0  0
   30.8417  -35.4438   -1.7481 C   0  0  0  0  0  0  0  0  0  0  0  0
   31.5590  -36.7282   -1.5358 C   0  0  0  0  0  0  0  0  0  0  0  0
   32.9666  -36.5308   -1.2019 C   0  0  0  0  0  0  0  0  0  0  0  0
   33.8040  -37.4402   -1.0084 O   0  0  0  0  0  0  0  0  0  0  0  0
   28.4666  -35.2869   -1.0786 C   0  0  0  0  0  0  0  0  0  0  0  0
   27.6179  -34.3874   -1.2795 O   0  0  0  0  0  0  0  0  0  0  0  0
   33.5058  -35.2251   -1.0677 O   0  0  0  0  0  0  0  0  0  0  0  0
   28.4913  -35.9350    0.1818 N   0  0  0  0  0  0  0  0  0  0  0  0
   27.6071  -35.6274    1.2914 C   0  0  1  0  0  0  0  0  0  0  0  0
   26.1858  -35.5277    0.8838 C   0  0  0  0  0  0  0  0  0  0  0  0
   25.1588  -35.2897    1.9122 C   0  0  0  0  0  0  0  0  0  0  0  0
   23.7604  -35.1861    1.5163 C   0  0  0  0  0  0  0  0  0  0  0  0
   22.9480  -36.1122    1.5824 O   0  0  0  0  0  0  0  0  0  0  0  0
   27.9149  -36.3352    2.5330 C   0  0  0  0  0  0  0  0  0  0  0  0
   27.9337  -35.7844    3.6691 O   0  0  0  0  0  0  0  0  0  0  0  0
   23.2358  -33.9754    1.0159 O   0  0  0  0  0  0  0  0  0  0  0  0
   28.2064  -37.6900    2.4888 O   0  0  0  0  0  0  0  0  0  0  0  0
  2  4  1  0
  2  1  1  6
  3  2  1  0
  4  6  1  0
  4  5  1  6
  6  7  2  0
  8  6  1  0
  8  9  1  0
  9 14  1  0
  9 10  1  1
 11 10  1  0
 12 16  1  0
 12 11  1  0
 13 12  2  0
 14 15  2  0
 17 18  1  0
 17 14  1  0
 18 23  1  0
 18 19  1  6
 20 19  1  0
 21 22  2  0
 21 20  1  0
 23 24  2  0
 23 26  1  0
 25 21  1  0
M  END
$$$$
