QCV.pdb
     RDKit          3D

 23 22  0  0  1  0  0  0  0  0999 V2000
   16.6856  -15.1605  -14.0928 N   0  0  0  0  0  0  0  0  0  0  0  0
   16.9624  -16.4097  -14.7411 C   0  0  0  0  0  0  0  0  0  0  0  0
   16.6065  -17.4845  -14.1971 O   0  0  0  0  0  0  0  0  0  0  0  0
   17.6523  -16.3701  -16.0257 C   0  0  0  0  0  0  0  0  0  0  0  0
   18.0539  -15.0326  -16.5079 C   0  0  0  0  0  0  0  0  0  0  0  0
   17.0408  -14.2801  -17.3181 C   0  0  2  0  0  0  0  0  0  0  0  0
   16.6957  -14.9161  -18.5456 N   0  0  0  0  0  0  0  0  0  0  0  0
   17.4978  -12.8905  -17.4813 C   0  0  0  0  0  0  0  0  0  0  0  0
   18.1332  -12.5728  -18.5244 O   0  0  0  0  0  0  0  0  0  0  0  0
   17.2711  -11.8970  -16.5453 N   0  0  0  0  0  0  0  0  0  0  0  0
   17.6045  -10.4983  -16.7107 C   0  0  1  0  0  0  0  0  0  0  0  0
   16.4342   -9.5842  -16.6483 C   0  0  0  0  0  0  0  0  0  0  0  0
   16.9074   -7.8374  -16.6418 S   0  0  0  0  0  0  0  0  0  0  0  0
   18.5760  -10.1167  -15.6699 C   0  0  0  0  0  0  0  0  0  0  0  0
   18.4607  -10.4639  -14.4624 O   0  0  0  0  0  0  0  0  0  0  0  0
   22.2392  -10.7185  -15.9073 C   0  0  0  0  0  0  0  0  0  0  0  0
   22.0395   -9.2629  -15.6218 C   0  0  2  0  0  0  0  0  0  0  0  0
   23.1758   -8.7975  -14.7452 C   0  0  0  0  0  0  0  0  0  0  0  0
   20.7023   -8.9257  -15.0445 C   0  0  2  0  0  0  0  0  0  0  0  0
   19.6933   -9.3306  -16.0049 N   0  0  0  0  0  0  0  0  0  0  0  0
   20.5584   -7.5058  -14.6615 C   0  0  0  0  0  0  0  0  0  0  0  0
   20.7608   -7.0663  -13.3532 O   0  0  0  0  0  0  0  0  0  0  0  0
   20.2486   -6.6600  -15.5128 O   0  0  0  0  0  0  0  0  0  0  0  0
  1  2  1  0
  2  3  2  0
  4  5  1  0
  4  2  1  0
  6  5  1  0
  6  8  1  0
  6  7  1  6
  8  9  2  0
 10 11  1  0
 10  8  1  0
 11 12  1  1
 13 12  1  0
 14 11  1  0
 14 15  2  0
 17 16  1  1
 17 19  1  0
 18 17  1  0
 19 20  1  6
 19 21  1  0
 20 14  1  0
 21 23  2  0
 21 22  1  0
M  END
$$$$
