QCV.pdb
     RDKit          3D

 23 22  0  0  1  0  0  0  0  0999 V2000
   15.1740  -13.1804  -19.1920 N   0  0  0  0  0  0  0  0  0  0  0  0
   15.4246  -12.1311  -18.2467 C   0  0  0  0  0  0  0  0  0  0  0  0
   14.5645  -11.8650  -17.3709 O   0  0  0  0  0  0  0  0  0  0  0  0
   16.6908  -11.4140  -18.3479 C   0  0  0  0  0  0  0  0  0  0  0  0
   17.6014  -11.5342  -17.1907 C   0  0  0  0  0  0  0  0  0  0  0  0
   19.0678  -11.6071  -17.4965 C   0  0  2  0  0  0  0  0  0  0  0  0
   19.5406  -12.9282  -17.7445 N   0  0  0  0  0  0  0  0  0  0  0  0
   19.8108  -10.9030  -16.4388 C   0  0  0  0  0  0  0  0  0  0  0  0
   19.5989  -11.2094  -15.2329 O   0  0  0  0  0  0  0  0  0  0  0  0
   20.7401   -9.9091  -16.6903 N   0  0  0  0  0  0  0  0  0  0  0  0
   21.5564   -9.2532  -15.6912 C   0  0  1  0  0  0  0  0  0  0  0  0
   23.0026   -9.5856  -15.7757 C   0  0  0  0  0  0  0  0  0  0  0  0
   23.9923   -8.7387  -14.5193 S   0  0  0  0  0  0  0  0  0  0  0  0
   21.3839   -7.7951  -15.8214 C   0  0  0  0  0  0  0  0  0  0  0  0
   21.4442   -7.1926  -16.9283 O   0  0  0  0  0  0  0  0  0  0  0  0
   18.6340   -5.7880  -15.5074 C   0  0  0  0  0  0  0  0  0  0  0  0
   19.5709   -5.2346  -14.4797 C   0  0  2  0  0  0  0  0  0  0  0  0
   19.3346   -3.7476  -14.3832 C   0  0  0  0  0  0  0  0  0  0  0  0
   21.0095   -5.5667  -14.7148 C   0  0  2  0  0  0  0  0  0  0  0  0
   21.1395   -7.0110  -14.6795 N   0  0  0  0  0  0  0  0  0  0  0  0
   21.9360   -4.9081  -13.7707 C   0  0  0  0  0  0  0  0  0  0  0  0
   22.4989   -3.6590  -14.0333 O   0  0  0  0  0  0  0  0  0  0  0  0
   22.2375   -5.4640  -12.7047 O   0  0  0  0  0  0  0  0  0  0  0  0
  1  2  1  0
  2  3  2  0
  4  5  1  0
  4  2  1  0
  6  5  1  0
  6  8  1  0
  6  7  1  1
  8  9  2  0
 10 11  1  0
 10  8  1  0
 11 12  1  6
 13 12  1  0
 14 11  1  0
 14 15  2  0
 17 16  1  6
 17 19  1  0
 18 17  1  0
 19 20  1  1
 19 21  1  0
 20 14  1  0
 21 23  2  0
 21 22  1  0
M  END
$$$$
