QCV.pdb
     RDKit          3D

 23 22  0  0  1  0  0  0  0  0999 V2000
   15.4875   -8.9904  -19.4290 N   0  0  0  0  0  0  0  0  0  0  0  0
   15.6037   -9.8635  -18.2969 C   0  0  0  0  0  0  0  0  0  0  0  0
   15.1006   -9.5251  -17.1968 O   0  0  0  0  0  0  0  0  0  0  0  0
   16.3096  -11.1264  -18.4827 C   0  0  0  0  0  0  0  0  0  0  0  0
   17.7728  -11.0902  -18.2807 C   0  0  0  0  0  0  0  0  0  0  0  0
   18.2607  -11.2899  -16.8768 C   0  0  2  0  0  0  0  0  0  0  0  0
   17.4233  -12.1318  -16.0891 N   0  0  0  0  0  0  0  0  0  0  0  0
   18.5142   -9.9738  -16.2685 C   0  0  0  0  0  0  0  0  0  0  0  0
   17.5853   -9.4036  -15.6321 O   0  0  0  0  0  0  0  0  0  0  0  0
   19.7268   -9.3131  -16.3551 N   0  0  0  0  0  0  0  0  0  0  0  0
   20.0973   -8.1388  -15.5944 C   0  0  1  0  0  0  0  0  0  0  0  0
   21.5333   -8.0904  -15.2143 C   0  0  0  0  0  0  0  0  0  0  0  0
   21.8816   -8.9713  -13.6723 S   0  0  0  0  0  0  0  0  0  0  0  0
   19.7617   -6.9390  -16.3821 C   0  0  0  0  0  0  0  0  0  0  0  0
   19.9668   -6.8533  -17.6241 O   0  0  0  0  0  0  0  0  0  0  0  0
   16.7728   -4.4135  -15.0238 C   0  0  0  0  0  0  0  0  0  0  0  0
   17.3452   -4.4650  -16.4058 C   0  0  2  0  0  0  0  0  0  0  0  0
   16.6452   -5.5672  -17.1617 C   0  0  0  0  0  0  0  0  0  0  0  0
   18.8333   -4.6015  -16.4519 C   0  0  2  0  0  0  0  0  0  0  0  0
   19.1856   -5.8217  -15.7510 N   0  0  0  0  0  0  0  0  0  0  0  0
   19.5569   -3.4304  -15.9147 C   0  0  0  0  0  0  0  0  0  0  0  0
   19.8462   -2.3135  -16.6987 O   0  0  0  0  0  0  0  0  0  0  0  0
   19.9287   -3.4173  -14.7324 O   0  0  0  0  0  0  0  0  0  0  0  0
  1  2  1  0
  2  3  2  0
  4  5  1  0
  4  2  1  0
  6  5  1  0
  6  8  1  0
  6  7  1  1
  8  9  2  0
 10 11  1  0
 10  8  1  0
 11 12  1  6
 13 12  1  0
 14 11  1  0
 14 15  2  0
 17 16  1  1
 17 19  1  0
 18 17  1  0
 19 20  1  1
 19 21  1  0
 20 14  1  0
 21 23  2  0
 21 22  1  0
M  END
$$$$
