QCV.pdb
     RDKit          3D

 23 22  0  0  1  0  0  0  0  0999 V2000
   17.7221  -11.9546  -18.9375 N   0  0  0  0  0  0  0  0  0  0  0  0
   16.5246  -12.7251  -18.7649 C   0  0  0  0  0  0  0  0  0  0  0  0
   16.2357  -13.6197  -19.5980 O   0  0  0  0  0  0  0  0  0  0  0  0
   15.6878  -12.4297  -17.6073 C   0  0  0  0  0  0  0  0  0  0  0  0
   16.1465  -11.3278  -16.7366 C   0  0  0  0  0  0  0  0  0  0  0  0
   17.1721  -11.6757  -15.6992 C   0  0  2  0  0  0  0  0  0  0  0  0
   16.7512  -12.6873  -14.7881 N   0  0  0  0  0  0  0  0  0  0  0  0
   17.6229  -10.4388  -15.0409 C   0  0  0  0  0  0  0  0  0  0  0  0
   16.9712   -9.9969  -14.0546 O   0  0  0  0  0  0  0  0  0  0  0  0
   18.7335   -9.7194  -15.4454 N   0  0  0  0  0  0  0  0  0  0  0  0
   19.2024   -8.4915  -14.8396 C   0  0  1  0  0  0  0  0  0  0  0  0
   20.6812   -8.3986  -14.7230 C   0  0  0  0  0  0  0  0  0  0  0  0
   21.2293   -6.8552  -13.9531 S   0  0  0  0  0  0  0  0  0  0  0  0
   18.7043   -7.3524  -15.6316 C   0  0  0  0  0  0  0  0  0  0  0  0
   18.7321   -7.3284  -16.8927 O   0  0  0  0  0  0  0  0  0  0  0  0
   15.4576   -6.0236  -16.1539 C   0  0  0  0  0  0  0  0  0  0  0  0
   16.2418   -4.9293  -15.4998 C   0  0  2  0  0  0  0  0  0  0  0  0
   15.6983   -3.6087  -15.9864 C   0  0  0  0  0  0  0  0  0  0  0  0
   17.7215   -5.0367  -15.6839 C   0  0  2  0  0  0  0  0  0  0  0  0
   18.1674   -6.2258  -14.9827 N   0  0  0  0  0  0  0  0  0  0  0  0
   18.4652   -3.8341  -15.2547 C   0  0  0  0  0  0  0  0  0  0  0  0
   19.1703   -3.7879  -14.0520 O   0  0  0  0  0  0  0  0  0  0  0  0
   18.4774   -2.8219  -15.9698 O   0  0  0  0  0  0  0  0  0  0  0  0
  1  2  1  0
  2  3  2  0
  4  5  1  0
  4  2  1  0
  6  5  1  0
  6  8  1  0
  6  7  1  1
  8  9  2  0
 10 11  1  0
 10  8  1  0
 11 12  1  6
 13 12  1  0
 14 11  1  0
 14 15  2  0
 17 16  1  6
 17 19  1  0
 18 17  1  0
 19 20  1  1
 19 21  1  0
 20 14  1  0
 21 23  2  0
 21 22  1  0
M  END
$$$$
