QCV.pdb
     RDKit          3D

 23 22  0  0  1  0  0  0  0  0999 V2000
   23.3470  -19.6780  -16.9114 N   0  0  0  0  0  0  0  0  0  0  0  0
   21.9255  -19.8497  -16.8261 C   0  0  0  0  0  0  0  0  0  0  0  0
   21.3708  -20.7714  -17.4746 O   0  0  0  0  0  0  0  0  0  0  0  0
   21.1805  -18.9316  -15.9717 C   0  0  0  0  0  0  0  0  0  0  0  0
   21.6914  -18.7632  -14.5957 C   0  0  0  0  0  0  0  0  0  0  0  0
   21.7723  -20.0021  -13.7545 C   0  0  2  0  0  0  0  0  0  0  0  0
   20.5141  -20.6342  -13.5357 N   0  0  0  0  0  0  0  0  0  0  0  0
   22.4994  -19.6891  -12.5136 C   0  0  0  0  0  0  0  0  0  0  0  0
   22.5343  -18.4943  -12.1084 O   0  0  0  0  0  0  0  0  0  0  0  0
   23.1585  -20.6394  -11.7540 N   0  0  0  0  0  0  0  0  0  0  0  0
   23.8603  -20.3820  -10.5147 C   0  0  1  0  0  0  0  0  0  0  0  0
   23.5860  -21.3761   -9.4443 C   0  0  0  0  0  0  0  0  0  0  0  0
   21.8173  -21.6544   -9.1810 S   0  0  0  0  0  0  0  0  0  0  0  0
   25.3083  -20.3487  -10.7884 C   0  0  0  0  0  0  0  0  0  0  0  0
   25.7971  -20.5778  -11.9288 O   0  0  0  0  0  0  0  0  0  0  0  0
   28.2182  -20.5518   -7.5702 C   0  0  0  0  0  0  0  0  0  0  0  0
   28.2544  -19.5205   -8.6544 C   0  0  2  0  0  0  0  0  0  0  0  0
   27.6154  -18.2609   -8.1240 C   0  0  0  0  0  0  0  0  0  0  0  0
   27.6481  -19.9637   -9.9470 C   0  0  2  0  0  0  0  0  0  0  0  0
   26.2131  -20.0512   -9.7534 N   0  0  0  0  0  0  0  0  0  0  0  0
   28.2106  -21.2269  -10.4680 C   0  0  0  0  0  0  0  0  0  0  0  0
   29.4650  -21.2857  -11.0752 O   0  0  0  0  0  0  0  0  0  0  0  0
   27.5654  -22.2810  -10.3737 O   0  0  0  0  0  0  0  0  0  0  0  0
  1  2  1  0
  2  3  2  0
  4  5  1  0
  4  2  1  0
  6  5  1  0
  6  8  1  0
  6  7  1  1
  8  9  2  0
 10 11  1  0
 10  8  1  0
 11 12  1  1
 13 12  1  0
 14 11  1  0
 14 15  2  0
 17 16  1  1
 17 19  1  0
 18 17  1  0
 19 20  1  1
 19 21  1  0
 20 14  1  0
 21 23  2  0
 21 22  1  0
M  END
$$$$
