QCV.pdb
     RDKit          3D

 23 22  0  0  1  0  0  0  0  0999 V2000
   25.5376  -22.4922  -12.2781 N   0  0  0  0  0  0  0  0  0  0  0  0
   25.8162  -21.2404  -11.6354 C   0  0  0  0  0  0  0  0  0  0  0  0
   26.9964  -20.8127  -11.5930 O   0  0  0  0  0  0  0  0  0  0  0  0
   24.6944  -20.5101  -11.0557 C   0  0  0  0  0  0  0  0  0  0  0  0
   23.3807  -21.1838  -11.1111 C   0  0  0  0  0  0  0  0  0  0  0  0
   22.2616  -20.4185  -11.7523 C   0  0  2  0  0  0  0  0  0  0  0  0
   20.9641  -20.8970  -11.4087 N   0  0  0  0  0  0  0  0  0  0  0  0
   22.5006  -20.3505  -13.2031 C   0  0  0  0  0  0  0  0  0  0  0  0
   22.6317  -21.4240  -13.8537 O   0  0  0  0  0  0  0  0  0  0  0  0
   22.5936  -19.1629  -13.9071 N   0  0  0  0  0  0  0  0  0  0  0  0
   22.8914  -19.0469  -15.3186 C   0  0  1  0  0  0  0  0  0  0  0  0
   21.7330  -18.6285  -16.1507 C   0  0  0  0  0  0  0  0  0  0  0  0
   22.1670  -18.3963  -17.8923 S   0  0  0  0  0  0  0  0  0  0  0  0
   23.9902  -18.0799  -15.4930 C   0  0  0  0  0  0  0  0  0  0  0  0
   24.0283  -16.9689  -14.8962 O   0  0  0  0  0  0  0  0  0  0  0  0
   27.7634  -19.0650  -15.4889 C   0  0  0  0  0  0  0  0  0  0  0  0
   27.4081  -18.2966  -16.7233 C   0  0  2  0  0  0  0  0  0  0  0  0
   28.6061  -17.4708  -17.1219 C   0  0  0  0  0  0  0  0  0  0  0  0
   26.1664  -17.4731  -16.6006 C   0  0  2  0  0  0  0  0  0  0  0  0
   25.0598  -18.3787  -16.3562 N   0  0  0  0  0  0  0  0  0  0  0  0
   25.9136  -16.5974  -17.7636 C   0  0  0  0  0  0  0  0  0  0  0  0
   26.1921  -15.2308  -17.7376 O   0  0  0  0  0  0  0  0  0  0  0  0
   25.4394  -17.0697  -18.8068 O   0  0  0  0  0  0  0  0  0  0  0  0
  1  2  1  0
  2  3  2  0
  4  5  1  0
  4  2  1  0
  6  5  1  0
  6  8  1  0
  6  7  1  6
  8  9  2  0
 10 11  1  0
 10  8  1  0
 11 12  1  6
 13 12  1  0
 14 11  1  0
 14 15  2  0
 17 16  1  1
 17 19  1  0
 18 17  1  0
 19 20  1  6
 19 21  1  0
 20 14  1  0
 21 23  2  0
 21 22  1  0
M  END
$$$$
