QCV.pdb
     RDKit          3D

 23 22  0  0  1  0  0  0  0  0999 V2000
   27.8832  -17.0234  -15.1918 N   0  0  0  0  0  0  0  0  0  0  0  0
   28.3051  -17.1761  -16.5542 C   0  0  0  0  0  0  0  0  0  0  0  0
   29.0857  -16.3328  -17.0613 O   0  0  0  0  0  0  0  0  0  0  0  0
   27.8010  -18.3262  -17.2964 C   0  0  0  0  0  0  0  0  0  0  0  0
   27.1120  -19.3632  -16.5011 C   0  0  0  0  0  0  0  0  0  0  0  0
   27.9736  -20.2062  -15.6089 C   0  0  2  0  0  0  0  0  0  0  0  0
   28.8153  -21.1163  -16.3116 N   0  0  0  0  0  0  0  0  0  0  0  0
   27.1229  -20.8512  -14.5955 C   0  0  0  0  0  0  0  0  0  0  0  0
   26.5701  -21.9521  -14.8699 O   0  0  0  0  0  0  0  0  0  0  0  0
   26.8876  -20.3144  -13.3421 N   0  0  0  0  0  0  0  0  0  0  0  0
   25.9677  -20.8492  -12.3610 C   0  0  1  0  0  0  0  0  0  0  0  0
   26.3110  -20.5049  -10.9564 C   0  0  0  0  0  0  0  0  0  0  0  0
   25.0716  -21.0799   -9.7696 S   0  0  0  0  0  0  0  0  0  0  0  0
   24.6120  -20.3569  -12.6651 C   0  0  0  0  0  0  0  0  0  0  0  0
   24.3496  -19.1365  -12.8486 O   0  0  0  0  0  0  0  0  0  0  0  0
   21.5825  -23.1105  -14.0165 C   0  0  0  0  0  0  0  0  0  0  0  0
   21.7320  -21.6412  -14.2600 C   0  0  2  0  0  0  0  0  0  0  0  0
   22.6486  -21.4536  -15.4436 C   0  0  0  0  0  0  0  0  0  0  0  0
   22.1797  -20.8610  -13.0659 C   0  0  2  0  0  0  0  0  0  0  0  0
   23.5401  -21.2626  -12.7623 N   0  0  0  0  0  0  0  0  0  0  0  0
   21.2907  -21.0009  -11.8940 C   0  0  0  0  0  0  0  0  0  0  0  0
   20.1875  -20.1703  -11.6964 O   0  0  0  0  0  0  0  0  0  0  0  0
   21.5122  -21.8771  -11.0458 O   0  0  0  0  0  0  0  0  0  0  0  0
  1  2  1  0
  2  3  2  0
  4  5  1  0
  4  2  1  0
  6  5  1  0
  6  8  1  0
  6  7  1  6
  8  9  2  0
 10 11  1  0
 10  8  1  0
 11 12  1  1
 13 12  1  0
 14 11  1  0
 14 15  2  0
 17 16  1  1
 17 19  1  0
 18 17  1  0
 19 20  1  1
 19 21  1  0
 20 14  1  0
 21 23  2  0
 21 22  1  0
M  END
$$$$
