QCV.pdb
     RDKit          3D

 23 22  0  0  1  0  0  0  0  0999 V2000
   28.7971  -17.1408  -15.8104 N   0  0  0  0  0  0  0  0  0  0  0  0
   28.5340  -18.3203  -16.5831 C   0  0  0  0  0  0  0  0  0  0  0  0
   29.4727  -18.8797  -17.2025 O   0  0  0  0  0  0  0  0  0  0  0  0
   27.1653  -18.8241  -16.6090 C   0  0  0  0  0  0  0  0  0  0  0  0
   26.9925  -20.2560  -16.2888 C   0  0  0  0  0  0  0  0  0  0  0  0
   27.4988  -20.7097  -14.9521 C   0  0  2  0  0  0  0  0  0  0  0  0
   28.5659  -21.6510  -15.0283 N   0  0  0  0  0  0  0  0  0  0  0  0
   26.3598  -21.1729  -14.1430 C   0  0  0  0  0  0  0  0  0  0  0  0
   25.5351  -21.9814  -14.6519 O   0  0  0  0  0  0  0  0  0  0  0  0
   26.1341  -20.7679  -12.8393 N   0  0  0  0  0  0  0  0  0  0  0  0
   25.0300  -21.1973  -12.0079 C   0  0  1  0  0  0  0  0  0  0  0  0
   25.1870  -20.8600  -10.5689 C   0  0  0  0  0  0  0  0  0  0  0  0
   26.8724  -21.1251   -9.9654 S   0  0  0  0  0  0  0  0  0  0  0  0
   23.7883  -20.5882  -12.5178 C   0  0  0  0  0  0  0  0  0  0  0  0
   23.7175  -19.3860  -12.8942 O   0  0  0  0  0  0  0  0  0  0  0  0
   20.9245  -22.8480  -14.4805 C   0  0  0  0  0  0  0  0  0  0  0  0
   21.0832  -21.3608  -14.4234 C   0  0  2  0  0  0  0  0  0  0  0  0
   22.1579  -20.9665  -15.4062 C   0  0  0  0  0  0  0  0  0  0  0  0
   21.3409  -20.8206  -13.0534 C   0  0  2  0  0  0  0  0  0  0  0  0
   22.6117  -21.3544  -12.6014 N   0  0  0  0  0  0  0  0  0  0  0  0
   20.2551  -21.0953  -12.0895 C   0  0  0  0  0  0  0  0  0  0  0  0
   19.0767  -20.3492  -12.0672 O   0  0  0  0  0  0  0  0  0  0  0  0
   20.3725  -22.0131  -11.2649 O   0  0  0  0  0  0  0  0  0  0  0  0
  1  2  1  0
  2  3  2  0
  4  5  1  0
  4  2  1  0
  6  5  1  0
  6  8  1  0
  6  7  1  6
  8  9  2  0
 10 11  1  0
 10  8  1  0
 11 12  1  1
 13 12  1  0
 14 11  1  0
 14 15  2  0
 17 16  1  1
 17 19  1  0
 18 17  1  0
 19 20  1  1
 19 21  1  0
 20 14  1  0
 21 23  2  0
 21 22  1  0
M  END
$$$$
