QCV.pdb
     RDKit          3D

 23 22  0  0  1  0  0  0  0  0999 V2000
   17.2171  -10.2488  -20.2093 N   0  0  0  0  0  0  0  0  0  0  0  0
   17.6417  -11.5890  -20.4940 C   0  0  0  0  0  0  0  0  0  0  0  0
   16.8092  -12.4273  -20.9204 O   0  0  0  0  0  0  0  0  0  0  0  0
   19.0458  -11.9177  -20.2743 C   0  0  0  0  0  0  0  0  0  0  0  0
   19.9259  -10.7935  -19.8942 C   0  0  0  0  0  0  0  0  0  0  0  0
   20.6761  -10.9364  -18.6036 C   0  0  2  0  0  0  0  0  0  0  0  0
   20.7259  -12.2721  -18.1098 N   0  0  0  0  0  0  0  0  0  0  0  0
   20.1427   -9.9675  -17.6324 C   0  0  0  0  0  0  0  0  0  0  0  0
   18.9820  -10.1407  -17.1682 O   0  0  0  0  0  0  0  0  0  0  0  0
   20.8468   -8.8606  -17.1924 N   0  0  0  0  0  0  0  0  0  0  0  0
   20.3658   -7.8883  -16.2343 C   0  0  1  0  0  0  0  0  0  0  0  0
   20.9524   -8.0331  -14.8764 C   0  0  0  0  0  0  0  0  0  0  0  0
   20.3750   -6.7637  -13.7230 S   0  0  0  0  0  0  0  0  0  0  0  0
   20.6529   -6.5363  -16.7466 C   0  0  0  0  0  0  0  0  0  0  0  0
   21.7990   -6.1777  -17.1337 O   0  0  0  0  0  0  0  0  0  0  0  0
   17.5930   -4.3298  -18.4539 C   0  0  0  0  0  0  0  0  0  0  0  0
   19.0637   -4.0825  -18.5816 C   0  0  2  0  0  0  0  0  0  0  0  0
   19.5966   -4.9805  -19.6706 C   0  0  0  0  0  0  0  0  0  0  0  0
   19.8261   -4.2261  -17.3036 C   0  0  2  0  0  0  0  0  0  0  0  0
   19.6249   -5.5791  -16.8205 N   0  0  0  0  0  0  0  0  0  0  0  0
   19.4728   -3.2192  -16.2816 C   0  0  0  0  0  0  0  0  0  0  0  0
   20.0294   -1.9401  -16.2769 O   0  0  0  0  0  0  0  0  0  0  0  0
   18.6580   -3.4970  -15.3898 O   0  0  0  0  0  0  0  0  0  0  0  0
  1  2  1  0
  2  3  2  0
  4  5  1  0
  4  2  1  0
  6  5  1  0
  6  8  1  0
  6  7  1  1
  8  9  2  0
 10 11  1  0
 10  8  1  0
 11 12  1  1
 13 12  1  0
 14 11  1  0
 14 15  2  0
 17 16  1  1
 17 19  1  0
 18 17  1  0
 19 20  1  1
 19 21  1  0
 20 14  1  0
 21 23  2  0
 21 22  1  0
M  END
$$$$
