QCV.pdb
     RDKit          3D

 23 22  0  0  1  0  0  0  0  0999 V2000
   24.3843  -21.6265  -19.0989 N   0  0  0  0  0  0  0  0  0  0  0  0
   23.8125  -20.4035  -18.6142 C   0  0  0  0  0  0  0  0  0  0  0  0
   24.3961  -19.3136  -18.8364 O   0  0  0  0  0  0  0  0  0  0  0  0
   22.5565  -20.4863  -17.8772 C   0  0  0  0  0  0  0  0  0  0  0  0
   22.6537  -20.3574  -16.4086 C   0  0  0  0  0  0  0  0  0  0  0  0
   23.9525  -19.8402  -15.8657 C   0  0  2  0  0  0  0  0  0  0  0  0
   24.5069  -20.6465  -14.8298 N   0  0  0  0  0  0  0  0  0  0  0  0
   23.7825  -18.4279  -15.4875 C   0  0  0  0  0  0  0  0  0  0  0  0
   23.0527  -18.1419  -14.4984 O   0  0  0  0  0  0  0  0  0  0  0  0
   24.3818  -17.3791  -16.1622 N   0  0  0  0  0  0  0  0  0  0  0  0
   24.2629  -15.9800  -15.8110 C   0  0  1  0  0  0  0  0  0  0  0  0
   25.5558  -15.2470  -15.7933 C   0  0  0  0  0  0  0  0  0  0  0  0
   25.3682  -13.5033  -15.3466 S   0  0  0  0  0  0  0  0  0  0  0  0
   23.3472  -15.3284  -16.7647 C   0  0  0  0  0  0  0  0  0  0  0  0
   23.4587  -15.4493  -18.0157 O   0  0  0  0  0  0  0  0  0  0  0  0
   19.9113  -15.7029  -17.5637 C   0  0  0  0  0  0  0  0  0  0  0  0
   20.0503  -14.3018  -17.0557 C   0  0  2  0  0  0  0  0  0  0  0  0
   19.0318  -13.4436  -17.7645 C   0  0  0  0  0  0  0  0  0  0  0  0
   21.4332  -13.7433  -17.1583 C   0  0  2  0  0  0  0  0  0  0  0  0
   22.2909  -14.5291  -16.2916 N   0  0  0  0  0  0  0  0  0  0  0  0
   21.5181  -12.2999  -16.8538 C   0  0  0  0  0  0  0  0  0  0  0  0
   21.4738  -11.8136  -15.5471 O   0  0  0  0  0  0  0  0  0  0  0  0
   21.6327  -11.4758  -17.7724 O   0  0  0  0  0  0  0  0  0  0  0  0
  1  2  1  0
  2  3  2  0
  4  5  1  0
  4  2  1  0
  6  5  1  0
  6  8  1  0
  6  7  1  1
  8  9  2  0
 10 11  1  0
 10  8  1  0
 11 12  1  6
 13 12  1  0
 14 11  1  0
 14 15  2  0
 17 16  1  6
 17 19  1  0
 18 17  1  0
 19 20  1  1
 19 21  1  0
 20 14  1  0
 21 23  2  0
 21 22  1  0
M  END
$$$$
