QCV.pdb
     RDKit          3D

 23 22  0  0  1  0  0  0  0  0999 V2000
   15.7396  -15.9404  -13.8624 N   0  0  0  0  0  0  0  0  0  0  0  0
   14.8535  -15.8879  -14.9892 C   0  0  0  0  0  0  0  0  0  0  0  0
   14.1430  -16.8854  -15.2680 O   0  0  0  0  0  0  0  0  0  0  0  0
   14.8172  -14.6549  -15.7677 C   0  0  0  0  0  0  0  0  0  0  0  0
   15.6954  -13.5630  -15.2993 C   0  0  0  0  0  0  0  0  0  0  0  0
   17.0187  -13.4237  -15.9910 C   0  0  2  0  0  0  0  0  0  0  0  0
   17.8423  -14.5830  -15.9001 N   0  0  0  0  0  0  0  0  0  0  0  0
   17.6761  -12.1942  -15.5191 C   0  0  0  0  0  0  0  0  0  0  0  0
   17.9527  -12.0788  -14.2931 O   0  0  0  0  0  0  0  0  0  0  0  0
   18.0125  -11.1406  -16.3506 N   0  0  0  0  0  0  0  0  0  0  0  0
   18.6100   -9.8937  -15.9229 C   0  0  1  0  0  0  0  0  0  0  0  0
   19.9514   -9.6318  -16.5072 C   0  0  0  0  0  0  0  0  0  0  0  0
   20.6937   -8.0966  -15.9011 S   0  0  0  0  0  0  0  0  0  0  0  0
   17.7015   -8.7877  -16.2752 C   0  0  0  0  0  0  0  0  0  0  0  0
   17.1678   -8.6732  -17.4128 O   0  0  0  0  0  0  0  0  0  0  0  0
   14.4009   -7.7922  -15.1515 C   0  0  0  0  0  0  0  0  0  0  0  0
   15.3570   -6.7083  -14.7627 C   0  0  2  0  0  0  0  0  0  0  0  0
   14.5991   -5.4041  -14.7323 C   0  0  0  0  0  0  0  0  0  0  0  0
   16.5828   -6.6328  -15.6152 C   0  0  2  0  0  0  0  0  0  0  0  0
   17.3949   -7.7987  -15.3231 N   0  0  0  0  0  0  0  0  0  0  0  0
   17.3454   -5.3774  -15.4541 C   0  0  0  0  0  0  0  0  0  0  0  0
   18.5075   -5.3087  -14.6856 O   0  0  0  0  0  0  0  0  0  0  0  0
   16.9595   -4.3391  -16.0103 O   0  0  0  0  0  0  0  0  0  0  0  0
  1  2  1  0
  2  3  2  0
  4  5  1  0
  4  2  1  0
  6  5  1  0
  6  8  1  0
  6  7  1  1
  8  9  2  0
 10 11  1  0
 10  8  1  0
 11 12  1  6
 13 12  1  0
 14 11  1  0
 14 15  2  0
 17 16  1  6
 17 19  1  0
 18 17  1  0
 19 20  1  1
 19 21  1  0
 20 14  1  0
 21 23  2  0
 21 22  1  0
M  END
$$$$
