QCV.pdb
     RDKit          3D

 23 22  0  0  1  0  0  0  0  0999 V2000
   22.6303  -16.7818  -18.3937 N   0  0  0  0  0  0  0  0  0  0  0  0
   23.9116  -16.8764  -19.0315 C   0  0  0  0  0  0  0  0  0  0  0  0
   24.1404  -17.8188  -19.8298 O   0  0  0  0  0  0  0  0  0  0  0  0
   24.9028  -15.8528  -18.7194 C   0  0  0  0  0  0  0  0  0  0  0  0
   24.4830  -14.8111  -17.7595 C   0  0  0  0  0  0  0  0  0  0  0  0
   24.0596  -13.4953  -18.3412 C   0  0  2  0  0  0  0  0  0  0  0  0
   24.8818  -13.0479  -19.4156 N   0  0  0  0  0  0  0  0  0  0  0  0
   23.9254  -12.5139  -17.2524 C   0  0  0  0  0  0  0  0  0  0  0  0
   23.2655  -12.8268  -16.2231 O   0  0  0  0  0  0  0  0  0  0  0  0
   24.4859  -11.2494  -17.2905 N   0  0  0  0  0  0  0  0  0  0  0  0
   24.4009  -10.2632  -16.2346 C   0  0  1  0  0  0  0  0  0  0  0  0
   25.6502   -9.4844  -16.0298 C   0  0  0  0  0  0  0  0  0  0  0  0
   27.0269  -10.5056  -15.4492 S   0  0  0  0  0  0  0  0  0  0  0  0
   23.2949   -9.3375  -16.5389 C   0  0  0  0  0  0  0  0  0  0  0  0
   23.1218   -8.8257  -17.6791 O   0  0  0  0  0  0  0  0  0  0  0  0
   19.7122   -9.6356  -14.4607 C   0  0  0  0  0  0  0  0  0  0  0  0
   20.0065   -8.9685  -15.7679 C   0  0  2  0  0  0  0  0  0  0  0  0
   20.0506  -10.0323  -16.8369 C   0  0  0  0  0  0  0  0  0  0  0  0
   21.2357   -8.1177  -15.7627 C   0  0  2  0  0  0  0  0  0  0  0  0
   22.3733   -8.9886  -15.5352 N   0  0  0  0  0  0  0  0  0  0  0  0
   21.1894   -7.0080  -14.7880 C   0  0  0  0  0  0  0  0  0  0  0  0
   20.5449   -5.8026  -15.0664 O   0  0  0  0  0  0  0  0  0  0  0  0
   21.7334   -7.1290  -13.6809 O   0  0  0  0  0  0  0  0  0  0  0  0
  1  2  1  0
  2  3  2  0
  4  5  1  0
  4  2  1  0
  6  5  1  0
  6  8  1  0
  6  7  1  6
  8  9  2  0
 10 11  1  0
 10  8  1  0
 11 12  1  6
 13 12  1  0
 14 11  1  0
 14 15  2  0
 17 16  1  1
 17 19  1  0
 18 17  1  0
 19 20  1  1
 19 21  1  0
 20 14  1  0
 21 23  2  0
 21 22  1  0
M  END
$$$$
