YDI.pdb
     RDKit          3D

 29 29  0  0  1  0  0  0  0  0999 V2000
    8.5323  -12.6869   17.3948 O   0  0  0  0  0  0  0  0  0  0  0  0
    8.1187  -13.2711   18.5994 C   0  0  0  0  0  0  0  0  0  0  0  0
    8.0894  -14.6407   18.7609 C   0  0  0  0  0  0  0  0  0  0  0  0
    7.6798  -15.2037   19.9530 C   0  0  0  0  0  0  0  0  0  0  0  0
    7.2838  -14.4411   21.0311 C   0  0  0  0  0  0  0  0  0  0  0  0
    6.8417  -15.0378   22.3237 C   0  0  0  0  0  0  0  0  0  0  0  0
    6.9716  -16.5471   22.3024 C   0  0  2  0  0  0  0  0  0  0  0  0
    5.6669  -17.1546   22.4310 N   0  0  0  0  0  0  0  0  0  0  0  0
    7.9160  -17.0409   23.3477 C   0  0  0  0  0  0  0  0  0  0  0  0
    7.4149  -17.2831   24.4671 O   0  0  0  0  0  0  0  0  0  0  0  0
    7.3143  -13.0642   20.8668 C   0  0  0  0  0  0  0  0  0  0  0  0
    7.7249  -12.4965   19.6711 C   0  0  0  0  0  0  0  0  0  0  0  0
    9.2769  -17.2338   23.1304 N   0  0  0  0  0  0  0  0  0  0  0  0
   10.2784  -17.6059   24.1327 C   0  0  1  0  0  0  0  0  0  0  0  0
   11.4492  -18.2078   23.4404 C   0  0  0  0  0  0  0  0  0  0  0  0
   12.5491  -18.5846   24.3392 C   0  0  0  0  0  0  0  0  0  0  0  0
   12.3965  -19.4185   25.2452 O   0  0  0  0  0  0  0  0  0  0  0  0
   10.5295  -16.5474   25.0581 C   0  0  0  0  0  0  0  0  0  0  0  0
   11.3712  -15.6368   24.7324 O   0  0  0  0  0  0  0  0  0  0  0  0
   13.8261  -18.0031   24.2000 O   0  0  0  0  0  0  0  0  0  0  0  0
    7.8020  -12.7853   26.1715 C   0  0  0  0  0  0  0  0  0  0  0  0
    9.0052  -13.6961   26.0573 C   0  0  0  0  0  0  0  0  0  0  0  0
    9.3431  -14.3294   27.3907 C   0  0  2  0  0  0  0  0  0  0  0  0
    9.6362  -13.2908   28.4315 C   0  0  0  0  0  0  0  0  0  0  0  0
   10.3999  -15.3931   27.2780 C   0  0  2  0  0  0  0  0  0  0  0  0
    9.9299  -16.3927   26.3164 N   0  0  0  0  0  0  0  0  0  0  0  0
   10.5388  -16.0202   28.5973 C   0  0  0  0  0  0  0  0  0  0  0  0
   11.1160  -15.4215   29.5397 O   0  0  0  0  0  0  0  0  0  0  0  0
   10.0452  -17.2750   28.8431 O   0  0  0  0  0  0  0  0  0  0  0  0
  2  1  1  0
  3  2  2  0
  4  3  1  0
  5  4  2  0
  5 11  1  0
  6  5  1  0
  7  8  1  1
  7  6  1  0
  9  7  1  0
 10  9  2  0
 11 12  2  0
 12  2  1  0
 13  9  1  0
 14 18  1  0
 14 13  1  0
 14 15  1  6
 16 15  1  0
 17 16  2  0
 18 19  2  0
 20 16  1  0
 22 21  1  0
 23 24  1  1
 23 22  1  0
 25 23  1  0
 25 26  1  6
 26 18  1  0
 27 29  1  0
 27 25  1  0
 28 27  2  0
M  END
$$$$
