YDI.pdb
     RDKit          3D

 29 29  0  0  1  0  0  0  0  0999 V2000
    6.7611  -11.9560   17.2048 O   0  0  0  0  0  0  0  0  0  0  0  0
    7.1486  -12.6905   18.3334 C   0  0  0  0  0  0  0  0  0  0  0  0
    6.2485  -13.4758   19.0234 C   0  0  0  0  0  0  0  0  0  0  0  0
    6.6431  -14.1946   20.1341 C   0  0  0  0  0  0  0  0  0  0  0  0
    7.9375  -14.1683   20.6079 C   0  0  0  0  0  0  0  0  0  0  0  0
    8.3755  -14.9418   21.8045 C   0  0  0  0  0  0  0  0  0  0  0  0
    9.1676  -16.1692   21.4027 C   0  0  2  0  0  0  0  0  0  0  0  0
    8.3300  -17.0674   20.6415 N   0  0  0  0  0  0  0  0  0  0  0  0
    9.7781  -16.8504   22.5825 C   0  0  0  0  0  0  0  0  0  0  0  0
    8.9762  -17.3113   23.4236 O   0  0  0  0  0  0  0  0  0  0  0  0
    8.8410  -13.3783   19.9125 C   0  0  0  0  0  0  0  0  0  0  0  0
    8.4474  -12.6557   18.7975 C   0  0  0  0  0  0  0  0  0  0  0  0
   11.1501  -16.9857   22.7720 N   0  0  0  0  0  0  0  0  0  0  0  0
   11.8216  -17.4908   23.9719 C   0  0  1  0  0  0  0  0  0  0  0  0
   13.1595  -18.0153   23.5880 C   0  0  0  0  0  0  0  0  0  0  0  0
   13.1232  -19.0344   22.5298 C   0  0  0  0  0  0  0  0  0  0  0  0
   12.2997  -19.9624   22.5438 O   0  0  0  0  0  0  0  0  0  0  0  0
   11.7616  -16.5586   25.0523 C   0  0  0  0  0  0  0  0  0  0  0  0
   12.5573  -15.5535   25.0380 O   0  0  0  0  0  0  0  0  0  0  0  0
   14.0340  -18.9903   21.4542 O   0  0  0  0  0  0  0  0  0  0  0  0
    8.5666  -12.7231   27.9734 C   0  0  0  0  0  0  0  0  0  0  0  0
    9.6888  -13.7088   28.2167 C   0  0  0  0  0  0  0  0  0  0  0  0
    9.7617  -14.7418   27.1118 C   0  0  2  0  0  0  0  0  0  0  0  0
    8.4596  -15.4680   26.9544 C   0  0  0  0  0  0  0  0  0  0  0  0
   10.9530  -15.6500   27.2426 C   0  0  2  0  0  0  0  0  0  0  0  0
   10.8948  -16.6264   26.1528 N   0  0  0  0  0  0  0  0  0  0  0  0
   10.8356  -16.3514   28.5262 C   0  0  0  0  0  0  0  0  0  0  0  0
   10.3601  -17.5133   28.5863 O   0  0  0  0  0  0  0  0  0  0  0  0
   11.2394  -15.7636   29.6967 O   0  0  0  0  0  0  0  0  0  0  0  0
  2  1  1  0
  3  2  2  0
  4  3  1  0
  5  4  2  0
  5 11  1  0
  6  5  1  0
  7  8  1  1
  7  6  1  0
  9  7  1  0
 10  9  2  0
 11 12  2  0
 12  2  1  0
 13  9  1  0
 14 18  1  0
 14 13  1  0
 14 15  1  6
 16 15  1  0
 17 16  2  0
 18 19  2  0
 20 16  1  0
 22 21  1  0
 23 24  1  1
 23 22  1  0
 25 23  1  0
 25 26  1  6
 26 18  1  0
 27 29  1  0
 27 25  1  0
 28 27  2  0
M  END
$$$$
