YDI.pdb
     RDKit          3D

 29 29  0  0  1  0  0  0  0  0999 V2000
   11.3684  -19.4574   32.8049 O   0  0  0  0  0  0  0  0  0  0  0  0
   11.4575  -18.7986   31.5714 C   0  0  0  0  0  0  0  0  0  0  0  0
   11.0544  -19.4072   30.4009 C   0  0  0  0  0  0  0  0  0  0  0  0
   11.1475  -18.7471   29.1920 C   0  0  0  0  0  0  0  0  0  0  0  0
   11.6404  -17.4637   29.0887 C   0  0  0  0  0  0  0  0  0  0  0  0
   11.7435  -16.7403   27.7893 C   0  0  0  0  0  0  0  0  0  0  0  0
   12.5148  -17.5537   26.7701 C   0  0  2  0  0  0  0  0  0  0  0  0
   13.8942  -17.6777   27.1821 N   0  0  0  0  0  0  0  0  0  0  0  0
   12.3984  -16.9819   25.3960 C   0  0  0  0  0  0  0  0  0  0  0  0
   13.1886  -16.0529   25.1214 O   0  0  0  0  0  0  0  0  0  0  0  0
   12.0449  -16.8534   30.2667 C   0  0  0  0  0  0  0  0  0  0  0  0
   11.9526  -17.5139   31.4815 C   0  0  0  0  0  0  0  0  0  0  0  0
   11.4809  -17.4270   24.4491 N   0  0  0  0  0  0  0  0  0  0  0  0
   10.5878  -16.5956   23.6385 C   0  0  1  0  0  0  0  0  0  0  0  0
   10.4558  -17.2078   22.2893 C   0  0  0  0  0  0  0  0  0  0  0  0
    9.6005  -16.4480   21.3669 C   0  0  0  0  0  0  0  0  0  0  0  0
    8.4390  -16.8015   21.1111 O   0  0  0  0  0  0  0  0  0  0  0  0
    9.3858  -16.2636   24.3347 C   0  0  0  0  0  0  0  0  0  0  0  0
    8.7932  -17.1821   25.0047 O   0  0  0  0  0  0  0  0  0  0  0  0
   10.0783  -15.2813   20.7354 O   0  0  0  0  0  0  0  0  0  0  0  0
    6.3015  -11.3115   26.3458 C   0  0  0  0  0  0  0  0  0  0  0  0
    6.2989  -12.8151   26.1748 C   0  0  0  0  0  0  0  0  0  0  0  0
    7.3338  -13.2544   25.1604 C   0  0  2  0  0  0  0  0  0  0  0  0
    7.0069  -12.7447   23.7889 C   0  0  0  0  0  0  0  0  0  0  0  0
    7.6072  -14.7321   25.2112 C   0  0  2  0  0  0  0  0  0  0  0  0
    8.7740  -15.0020   24.3683 N   0  0  0  0  0  0  0  0  0  0  0  0
    6.4374  -15.4179   24.6503 C   0  0  0  0  0  0  0  0  0  0  0  0
    6.4446  -15.8461   23.4687 O   0  0  0  0  0  0  0  0  0  0  0  0
    5.3031  -15.6124   25.3948 O   0  0  0  0  0  0  0  0  0  0  0  0
  2  1  1  0
  3  2  2  0
  4  3  1  0
  5  4  2  0
  5 11  1  0
  6  5  1  0
  7  8  1  1
  7  6  1  0
  9  7  1  0
 10  9  2  0
 11 12  2  0
 12  2  1  0
 13  9  1  0
 14 18  1  0
 14 13  1  0
 14 15  1  6
 16 15  1  0
 17 16  2  0
 18 19  2  0
 20 16  1  0
 22 21  1  0
 23 24  1  6
 23 22  1  0
 25 23  1  0
 25 26  1  6
 26 18  1  0
 27 29  1  0
 27 25  1  0
 28 27  2  0
M  END
$$$$
