YDI.pdb
     RDKit          3D

 29 29  0  0  1  0  0  0  0  0999 V2000
    8.5219  -12.8148   16.6482 O   0  0  0  0  0  0  0  0  0  0  0  0
    8.1944  -13.2913   17.9246 C   0  0  0  0  0  0  0  0  0  0  0  0
    6.9632  -13.0371   18.4924 C   0  0  0  0  0  0  0  0  0  0  0  0
    6.6530  -13.5124   19.7509 C   0  0  0  0  0  0  0  0  0  0  0  0
    7.5418  -14.2556   20.4982 C   0  0  0  0  0  0  0  0  0  0  0  0
    7.2172  -14.7758   21.8570 C   0  0  0  0  0  0  0  0  0  0  0  0
    7.1791  -16.2903   21.8682 C   0  0  2  0  0  0  0  0  0  0  0  0
    5.9108  -16.7540   21.3544 N   0  0  0  0  0  0  0  0  0  0  0  0
    7.4613  -16.8457   23.2248 C   0  0  0  0  0  0  0  0  0  0  0  0
    6.5924  -16.6277   24.0968 O   0  0  0  0  0  0  0  0  0  0  0  0
    8.7791  -14.5103   19.9254 C   0  0  0  0  0  0  0  0  0  0  0  0
    9.0930  -14.0342   18.6623 C   0  0  0  0  0  0  0  0  0  0  0  0
    8.6084  -17.5674   23.5409 N   0  0  0  0  0  0  0  0  0  0  0  0
    9.0632  -17.9437   24.8817 C   0  0  1  0  0  0  0  0  0  0  0  0
    9.8278  -19.2162   24.7892 C   0  0  0  0  0  0  0  0  0  0  0  0
   10.2660  -19.7483   26.0871 C   0  0  0  0  0  0  0  0  0  0  0  0
    9.9199  -19.2264   27.1582 O   0  0  0  0  0  0  0  0  0  0  0  0
    9.6778  -16.8508   25.5655 C   0  0  0  0  0  0  0  0  0  0  0  0
   10.7500  -16.3474   25.0751 O   0  0  0  0  0  0  0  0  0  0  0  0
   11.1038  -20.8804   26.1571 O   0  0  0  0  0  0  0  0  0  0  0  0
    7.4740  -12.4374   26.4173 C   0  0  0  0  0  0  0  0  0  0  0  0
    8.5580  -13.4766   26.2299 C   0  0  0  0  0  0  0  0  0  0  0  0
    9.0528  -14.0006   27.5617 C   0  0  2  0  0  0  0  0  0  0  0  0
    9.6197  -12.8996   28.4068 C   0  0  0  0  0  0  0  0  0  0  0  0
    9.9644  -15.1876   27.4172 C   0  0  2  0  0  0  0  0  0  0  0  0
    9.2140  -16.2507   26.7452 N   0  0  0  0  0  0  0  0  0  0  0  0
   10.3285  -15.6327   28.7672 C   0  0  0  0  0  0  0  0  0  0  0  0
    9.7248  -16.5880   29.3172 O   0  0  0  0  0  0  0  0  0  0  0  0
   11.3355  -15.0227   29.4690 O   0  0  0  0  0  0  0  0  0  0  0  0
  2  1  1  0
  3  2  2  0
  4  3  1  0
  5  4  2  0
  5 11  1  0
  6  5  1  0
  7  8  1  1
  7  6  1  0
  9  7  1  0
 10  9  2  0
 11 12  2  0
 12  2  1  0
 13  9  1  0
 14 18  1  0
 14 13  1  0
 14 15  1  6
 16 15  1  0
 17 16  2  0
 18 19  2  0
 20 16  1  0
 22 21  1  0
 23 24  1  6
 23 22  1  0
 25 23  1  0
 25 26  1  1
 26 18  1  0
 27 29  1  0
 27 25  1  0
 28 27  2  0
M  END
$$$$
