YDI.pdb
     RDKit          3D

 29 29  0  0  1  0  0  0  0  0999 V2000
    9.4688  -12.2176   19.3050 O   0  0  0  0  0  0  0  0  0  0  0  0
    8.6072  -13.1059   19.9623 C   0  0  0  0  0  0  0  0  0  0  0  0
    7.9303  -14.0917   19.2746 C   0  0  0  0  0  0  0  0  0  0  0  0
    7.0841  -14.9605   19.9342 C   0  0  0  0  0  0  0  0  0  0  0  0
    6.8719  -14.8927   21.2947 C   0  0  0  0  0  0  0  0  0  0  0  0
    5.9625  -15.8267   22.0179 C   0  0  0  0  0  0  0  0  0  0  0  0
    6.5820  -17.2032   22.1470 C   0  0  2  0  0  0  0  0  0  0  0  0
    5.5522  -18.1837   22.4038 N   0  0  0  0  0  0  0  0  0  0  0  0
    7.6505  -17.2390   23.1889 C   0  0  0  0  0  0  0  0  0  0  0  0
    7.2600  -17.3792   24.3682 O   0  0  0  0  0  0  0  0  0  0  0  0
    7.5536  -13.9011   21.9844 C   0  0  0  0  0  0  0  0  0  0  0  0
    8.4035  -13.0275   21.3246 C   0  0  0  0  0  0  0  0  0  0  0  0
    9.0086  -17.1270   22.9070 N   0  0  0  0  0  0  0  0  0  0  0  0
   10.1085  -17.1642   23.8740 C   0  0  1  0  0  0  0  0  0  0  0  0
   11.3761  -17.4441   23.1479 C   0  0  0  0  0  0  0  0  0  0  0  0
   11.3391  -18.6600   22.3232 C   0  0  0  0  0  0  0  0  0  0  0  0
   10.8899  -19.7316   22.7582 O   0  0  0  0  0  0  0  0  0  0  0  0
   10.0853  -16.0408   24.7556 C   0  0  0  0  0  0  0  0  0  0  0  0
   10.4160  -14.8922   24.2918 O   0  0  0  0  0  0  0  0  0  0  0  0
   11.8195  -18.6475   20.9976 O   0  0  0  0  0  0  0  0  0  0  0  0
    6.4937  -13.3372   26.4336 C   0  0  0  0  0  0  0  0  0  0  0  0
    7.8775  -13.8387   26.0818 C   0  0  0  0  0  0  0  0  0  0  0  0
    8.6233  -14.3034   27.3152 C   0  0  2  0  0  0  0  0  0  0  0  0
    8.6881  -13.2248   28.3545 C   0  0  0  0  0  0  0  0  0  0  0  0
    9.9572  -14.9171   26.9912 C   0  0  2  0  0  0  0  0  0  0  0  0
    9.7220  -16.0629   26.1100 N   0  0  0  0  0  0  0  0  0  0  0  0
   10.5446  -15.3890   28.2504 C   0  0  0  0  0  0  0  0  0  0  0  0
   11.0520  -14.5818   29.0691 O   0  0  0  0  0  0  0  0  0  0  0  0
   10.5585  -16.7212   28.5726 O   0  0  0  0  0  0  0  0  0  0  0  0
  2  1  1  0
  3  2  2  0
  4  3  1  0
  5  4  2  0
  5 11  1  0
  6  5  1  0
  7  8  1  1
  7  6  1  0
  9  7  1  0
 10  9  2  0
 11 12  2  0
 12  2  1  0
 13  9  1  0
 14 18  1  0
 14 13  1  0
 14 15  1  6
 16 15  1  0
 17 16  2  0
 18 19  2  0
 20 16  1  0
 22 21  1  0
 23 24  1  1
 23 22  1  0
 25 23  1  0
 25 26  1  6
 26 18  1  0
 27 29  1  0
 27 25  1  0
 28 27  2  0
M  END
$$$$
