YDI.pdb
     RDKit          3D

 29 29  0  0  1  0  0  0  0  0999 V2000
    9.9755  -23.6667   31.6677 O   0  0  0  0  0  0  0  0  0  0  0  0
   10.1599  -22.5069   30.9032 C   0  0  0  0  0  0  0  0  0  0  0  0
   11.1519  -21.5973   31.2054 C   0  0  0  0  0  0  0  0  0  0  0  0
   11.3230  -20.4584   30.4442 C   0  0  0  0  0  0  0  0  0  0  0  0
   10.5252  -20.1712   29.3572 C   0  0  0  0  0  0  0  0  0  0  0  0
   10.7020  -18.9459   28.5268 C   0  0  0  0  0  0  0  0  0  0  0  0
   11.3212  -19.2791   27.1848 C   0  0  2  0  0  0  0  0  0  0  0  0
   12.7250  -19.5778   27.3518 N   0  0  0  0  0  0  0  0  0  0  0  0
   11.1032  -18.1929   26.1843 C   0  0  0  0  0  0  0  0  0  0  0  0
   11.9517  -17.2748   26.1800 O   0  0  0  0  0  0  0  0  0  0  0  0
    9.5285  -21.0871   29.0548 C   0  0  0  0  0  0  0  0  0  0  0  0
    9.3545  -22.2311   29.8175 C   0  0  0  0  0  0  0  0  0  0  0  0
   10.0347  -18.1663   25.2933 N   0  0  0  0  0  0  0  0  0  0  0  0
    9.5271  -16.9972   24.5710 C   0  0  1  0  0  0  0  0  0  0  0  0
    9.2191  -17.3947   23.1712 C   0  0  0  0  0  0  0  0  0  0  0  0
    8.6702  -16.3094   22.3463 C   0  0  0  0  0  0  0  0  0  0  0  0
    7.4955  -16.3219   21.9468 O   0  0  0  0  0  0  0  0  0  0  0  0
    8.5090  -16.3147   25.3040 C   0  0  0  0  0  0  0  0  0  0  0  0
    7.6637  -17.0111   25.9704 O   0  0  0  0  0  0  0  0  0  0  0  0
    9.4699  -15.2082   21.9775 O   0  0  0  0  0  0  0  0  0  0  0  0
    6.9967  -10.8508   24.6126 C   0  0  0  0  0  0  0  0  0  0  0  0
    7.0813  -12.3600   24.6850 C   0  0  0  0  0  0  0  0  0  0  0  0
    7.4190  -12.8245   26.0862 C   0  0  2  0  0  0  0  0  0  0  0  0
    8.7206  -12.2473   26.5556 C   0  0  0  0  0  0  0  0  0  0  0  0
    7.3236  -14.3170   26.2427 C   0  0  2  0  0  0  0  0  0  0  0  0
    8.3376  -14.9247   25.3783 N   0  0  0  0  0  0  0  0  0  0  0  0
    5.9908  -14.7256   25.7843 C   0  0  0  0  0  0  0  0  0  0  0  0
    5.8421  -15.3469   24.7020 O   0  0  0  0  0  0  0  0  0  0  0  0
    4.8691  -14.4433   26.5198 O   0  0  0  0  0  0  0  0  0  0  0  0
  2  1  1  0
  3  2  2  0
  4  3  1  0
  5  4  2  0
  5 11  1  0
  6  5  1  0
  7  8  1  1
  7  6  1  0
  9  7  1  0
 10  9  2  0
 11 12  2  0
 12  2  1  0
 13  9  1  0
 14 18  1  0
 14 13  1  0
 14 15  1  6
 16 15  1  0
 17 16  2  0
 18 19  2  0
 20 16  1  0
 22 21  1  0
 23 24  1  6
 23 22  1  0
 25 23  1  0
 25 26  1  6
 26 18  1  0
 27 29  1  0
 27 25  1  0
 28 27  2  0
M  END
$$$$
