YDI.pdb
     RDKit          3D

 29 29  0  0  1  0  0  0  0  0999 V2000
    6.4577  -11.7700   27.0312 O   0  0  0  0  0  0  0  0  0  0  0  0
    6.5704  -12.6870   25.9777 C   0  0  0  0  0  0  0  0  0  0  0  0
    5.9216  -13.9039   26.0118 C   0  0  0  0  0  0  0  0  0  0  0  0
    6.0410  -14.7986   24.9672 C   0  0  0  0  0  0  0  0  0  0  0  0
    6.8026  -14.5302   23.8498 C   0  0  0  0  0  0  0  0  0  0  0  0
    6.9371  -15.4875   22.7150 C   0  0  0  0  0  0  0  0  0  0  0  0
    7.2588  -16.8824   23.2111 C   0  0  2  0  0  0  0  0  0  0  0  0
    6.2192  -17.3383   24.1050 N   0  0  0  0  0  0  0  0  0  0  0  0
    8.6059  -16.9504   23.8509 C   0  0  0  0  0  0  0  0  0  0  0  0
    8.6408  -17.4371   25.0019 O   0  0  0  0  0  0  0  0  0  0  0  0
    7.4539  -13.3061   23.8173 C   0  0  0  0  0  0  0  0  0  0  0  0
    7.3359  -12.4063   24.8647 C   0  0  0  0  0  0  0  0  0  0  0  0
    9.7753  -16.5104   23.2383 N   0  0  0  0  0  0  0  0  0  0  0  0
   11.1472  -16.7961   23.6654 C   0  0  1  0  0  0  0  0  0  0  0  0
   12.0735  -16.4825   22.5446 C   0  0  0  0  0  0  0  0  0  0  0  0
   13.3533  -17.2024   22.6049 C   0  0  0  0  0  0  0  0  0  0  0  0
   13.6064  -18.0112   23.5111 O   0  0  0  0  0  0  0  0  0  0  0  0
   11.4396  -16.2297   24.9434 C   0  0  0  0  0  0  0  0  0  0  0  0
   12.3941  -15.3784   25.0315 O   0  0  0  0  0  0  0  0  0  0  0  0
   14.3455  -16.9934   21.6250 O   0  0  0  0  0  0  0  0  0  0  0  0
    9.3604  -12.7699   27.6647 C   0  0  0  0  0  0  0  0  0  0  0  0
   10.4146  -13.7454   27.1882 C   0  0  0  0  0  0  0  0  0  0  0  0
   10.3766  -15.0299   27.9893 C   0  0  2  0  0  0  0  0  0  0  0  0
   10.5598  -14.7673   29.4540 C   0  0  0  0  0  0  0  0  0  0  0  0
   11.2970  -16.0848   27.4406 C   0  0  2  0  0  0  0  0  0  0  0  0
   10.7687  -16.5103   26.1427 N   0  0  0  0  0  0  0  0  0  0  0  0
   11.2706  -17.2211   28.3687 C   0  0  0  0  0  0  0  0  0  0  0  0
   10.4991  -18.1945   28.1765 O   0  0  0  0  0  0  0  0  0  0  0  0
   12.0840  -17.2570   29.4714 O   0  0  0  0  0  0  0  0  0  0  0  0
  2  1  1  0
  3  2  2  0
  4  3  1  0
  5  4  2  0
  5 11  1  0
  6  5  1  0
  7  8  1  1
  7  6  1  0
  9  7  1  0
 10  9  2  0
 11 12  2  0
 12  2  1  0
 13  9  1  0
 14 18  1  0
 14 13  1  0
 14 15  1  6
 16 15  1  0
 17 16  2  0
 18 19  2  0
 20 16  1  0
 22 21  1  0
 23 24  1  1
 23 22  1  0
 25 23  1  0
 25 26  1  6
 26 18  1  0
 27 29  1  0
 27 25  1  0
 28 27  2  0
M  END
$$$$
