YDI.pdb
     RDKit          3D

 29 29  0  0  1  0  0  0  0  0999 V2000
    7.3522  -11.8951   17.7554 O   0  0  0  0  0  0  0  0  0  0  0  0
    7.5923  -12.7003   18.8768 C   0  0  0  0  0  0  0  0  0  0  0  0
    8.8726  -12.9274   19.3375 C   0  0  0  0  0  0  0  0  0  0  0  0
    9.0956  -13.7228   20.4436 C   0  0  0  0  0  0  0  0  0  0  0  0
    8.0681  -14.3246   21.1383 C   0  0  0  0  0  0  0  0  0  0  0  0
    8.2966  -15.1836   22.3351 C   0  0  0  0  0  0  0  0  0  0  0  0
    8.7256  -16.5797   21.9326 C   0  0  2  0  0  0  0  0  0  0  0  0
    7.5711  -17.3547   21.5398 N   0  0  0  0  0  0  0  0  0  0  0  0
    9.5043  -17.2572   23.0111 C   0  0  0  0  0  0  0  0  0  0  0  0
    8.8309  -17.7912   23.9190 O   0  0  0  0  0  0  0  0  0  0  0  0
    6.7815  -14.0948   20.6738 C   0  0  0  0  0  0  0  0  0  0  0  0
    6.5550  -13.2969   19.5636 C   0  0  0  0  0  0  0  0  0  0  0  0
   10.8944  -17.3137   23.0414 N   0  0  0  0  0  0  0  0  0  0  0  0
   11.7278  -17.7463   24.1658 C   0  0  1  0  0  0  0  0  0  0  0  0
   13.0734  -18.1162   23.6511 C   0  0  0  0  0  0  0  0  0  0  0  0
   13.0507  -19.1277   22.5853 C   0  0  0  0  0  0  0  0  0  0  0  0
   12.3217  -20.1296   22.6502 O   0  0  0  0  0  0  0  0  0  0  0  0
   11.6669  -16.8317   25.2611 C   0  0  0  0  0  0  0  0  0  0  0  0
   12.1793  -15.6658   25.1137 O   0  0  0  0  0  0  0  0  0  0  0  0
   13.8667  -18.9911   21.4434 O   0  0  0  0  0  0  0  0  0  0  0  0
    9.9205  -12.5107   27.8268 C   0  0  0  0  0  0  0  0  0  0  0  0
   10.5286  -13.8103   28.3078 C   0  0  0  0  0  0  0  0  0  0  0  0
   10.4853  -14.8701   27.2270 C   0  0  2  0  0  0  0  0  0  0  0  0
    9.0867  -15.0943   26.7357 C   0  0  0  0  0  0  0  0  0  0  0  0
   11.2013  -16.1322   27.6214 C   0  0  2  0  0  0  0  0  0  0  0  0
   11.0832  -17.0807   26.5118 N   0  0  0  0  0  0  0  0  0  0  0  0
   10.5176  -16.6792   28.7989 C   0  0  0  0  0  0  0  0  0  0  0  0
   10.6947  -16.1802   29.9387 O   0  0  0  0  0  0  0  0  0  0  0  0
    9.6667  -17.7487   28.6935 O   0  0  0  0  0  0  0  0  0  0  0  0
  2  1  1  0
  3  2  2  0
  4  3  1  0
  5  4  2  0
  5 11  1  0
  6  5  1  0
  7  8  1  1
  7  6  1  0
  9  7  1  0
 10  9  2  0
 11 12  2  0
 12  2  1  0
 13  9  1  0
 14 18  1  0
 14 13  1  0
 14 15  1  6
 16 15  1  0
 17 16  2  0
 18 19  2  0
 20 16  1  0
 22 21  1  0
 23 24  1  1
 23 22  1  0
 25 23  1  0
 25 26  1  6
 26 18  1  0
 27 29  1  0
 27 25  1  0
 28 27  2  0
M  END
$$$$
