YDI.pdb
     RDKit          3D

 29 29  0  0  1  0  0  0  0  0999 V2000
   11.0263  -17.0174   31.0917 O   0  0  0  0  0  0  0  0  0  0  0  0
   11.2641  -16.5250   29.8016 C   0  0  0  0  0  0  0  0  0  0  0  0
   11.8121  -15.2753   29.5992 C   0  0  0  0  0  0  0  0  0  0  0  0
   12.0414  -14.8018   28.3228 C   0  0  0  0  0  0  0  0  0  0  0  0
   11.7405  -15.5394   27.1976 C   0  0  0  0  0  0  0  0  0  0  0  0
   11.9856  -15.0394   25.8148 C   0  0  0  0  0  0  0  0  0  0  0  0
   12.5577  -16.1299   24.9322 C   0  0  2  0  0  0  0  0  0  0  0  0
   13.9922  -15.9843   24.8383 N   0  0  0  0  0  0  0  0  0  0  0  0
   11.9157  -16.1516   23.5846 C   0  0  0  0  0  0  0  0  0  0  0  0
   12.1995  -15.1977   22.8281 O   0  0  0  0  0  0  0  0  0  0  0  0
   11.1898  -16.7957   27.4032 C   0  0  0  0  0  0  0  0  0  0  0  0
   10.9585  -17.2732   28.6835 C   0  0  0  0  0  0  0  0  0  0  0  0
   11.0493  -17.1533   23.1577 N   0  0  0  0  0  0  0  0  0  0  0  0
    9.6403  -16.9929   22.7901 C   0  0  1  0  0  0  0  0  0  0  0  0
    9.2105  -18.1823   22.0071 C   0  0  0  0  0  0  0  0  0  0  0  0
    7.8397  -18.0933   21.4849 C   0  0  0  0  0  0  0  0  0  0  0  0
    7.1263  -17.0985   21.6873 O   0  0  0  0  0  0  0  0  0  0  0  0
    8.8356  -16.6094   23.9059 C   0  0  0  0  0  0  0  0  0  0  0  0
    8.8714  -17.3330   24.9636 O   0  0  0  0  0  0  0  0  0  0  0  0
    7.2851  -19.1476   20.7305 O   0  0  0  0  0  0  0  0  0  0  0  0
    7.1637  -11.4084   24.3838 C   0  0  0  0  0  0  0  0  0  0  0  0
    7.7588  -12.7487   24.7573 C   0  0  0  0  0  0  0  0  0  0  0  0
    6.6775  -13.7774   25.0140 C   0  0  2  0  0  0  0  0  0  0  0  0
    5.7697  -13.3510   26.1285 C   0  0  0  0  0  0  0  0  0  0  0  0
    7.2248  -15.1688   25.1737 C   0  0  2  0  0  0  0  0  0  0  0  0
    7.9933  -15.4897   23.9690 N   0  0  0  0  0  0  0  0  0  0  0  0
    6.0827  -16.0844   25.2759 C   0  0  0  0  0  0  0  0  0  0  0  0
    5.4438  -16.4371   24.2528 O   0  0  0  0  0  0  0  0  0  0  0  0
    5.6776  -16.5824   26.4870 O   0  0  0  0  0  0  0  0  0  0  0  0
  2  1  1  0
  3  2  2  0
  4  3  1  0
  5  4  2  0
  5 11  1  0
  6  5  1  0
  7  8  1  6
  7  6  1  0
  9  7  1  0
 10  9  2  0
 11 12  2  0
 12  2  1  0
 13  9  1  0
 14 18  1  0
 14 13  1  0
 14 15  1  1
 16 15  1  0
 17 16  2  0
 18 19  2  0
 20 16  1  0
 22 21  1  0
 23 24  1  1
 23 22  1  0
 25 23  1  0
 25 26  1  6
 26 18  1  0
 27 29  1  0
 27 25  1  0
 28 27  2  0
M  END
$$$$
