YDI.pdb
     RDKit          3D

 29 29  0  0  1  0  0  0  0  0999 V2000
    7.1117  -11.9500   17.3373 O   0  0  0  0  0  0  0  0  0  0  0  0
    7.4573  -12.7204   18.4556 C   0  0  0  0  0  0  0  0  0  0  0  0
    8.7730  -12.8837   18.8368 C   0  0  0  0  0  0  0  0  0  0  0  0
    9.1002  -13.6454   19.9407 C   0  0  0  0  0  0  0  0  0  0  0  0
    8.1460  -14.2750   20.7113 C   0  0  0  0  0  0  0  0  0  0  0  0
    8.4872  -15.0980   21.9065 C   0  0  0  0  0  0  0  0  0  0  0  0
    8.9897  -16.4687   21.5015 C   0  0  2  0  0  0  0  0  0  0  0  0
    7.9405  -17.1970   20.8259 N   0  0  0  0  0  0  0  0  0  0  0  0
    9.5299  -17.2315   22.6655 C   0  0  0  0  0  0  0  0  0  0  0  0
    8.6879  -17.8489   23.3531 O   0  0  0  0  0  0  0  0  0  0  0  0
    6.8237  -14.1093   20.3265 C   0  0  0  0  0  0  0  0  0  0  0  0
    6.4926  -13.3453   19.2187 C   0  0  0  0  0  0  0  0  0  0  0  0
   10.8801  -17.2787   22.9988 N   0  0  0  0  0  0  0  0  0  0  0  0
   11.4540  -17.7630   24.2567 C   0  0  1  0  0  0  0  0  0  0  0  0
   12.7132  -18.4962   23.9584 C   0  0  0  0  0  0  0  0  0  0  0  0
   13.3617  -18.0892   22.7040 C   0  0  0  0  0  0  0  0  0  0  0  0
   12.9700  -17.1074   22.0542 O   0  0  0  0  0  0  0  0  0  0  0  0
   11.5041  -16.7399   25.2519 C   0  0  0  0  0  0  0  0  0  0  0  0
   12.2939  -15.7467   25.0692 O   0  0  0  0  0  0  0  0  0  0  0  0
   14.4604  -18.8101   22.1928 O   0  0  0  0  0  0  0  0  0  0  0  0
    8.8248  -12.4609   27.9363 C   0  0  0  0  0  0  0  0  0  0  0  0
    9.8847  -13.5010   28.2281 C   0  0  0  0  0  0  0  0  0  0  0  0
    9.8305  -14.6362   27.2274 C   0  0  2  0  0  0  0  0  0  0  0  0
    8.4600  -15.2401   27.1583 C   0  0  0  0  0  0  0  0  0  0  0  0
   10.9293  -15.6425   27.4297 C   0  0  2  0  0  0  0  0  0  0  0  0
   10.7540  -16.7043   26.4364 N   0  0  0  0  0  0  0  0  0  0  0  0
   10.7692  -16.2080   28.7743 C   0  0  0  0  0  0  0  0  0  0  0  0
   10.1959  -17.3131   28.9464 O   0  0  0  0  0  0  0  0  0  0  0  0
   11.2384  -15.5509   29.8819 O   0  0  0  0  0  0  0  0  0  0  0  0
  2  1  1  0
  3  2  2  0
  4  3  1  0
  5  4  2  0
  5 11  1  0
  6  5  1  0
  7  8  1  1
  7  6  1  0
  9  7  1  0
 10  9  2  0
 11 12  2  0
 12  2  1  0
 13  9  1  0
 14 18  1  0
 14 13  1  0
 14 15  1  6
 16 15  1  0
 17 16  2  0
 18 19  2  0
 20 16  1  0
 22 21  1  0
 23 24  1  1
 23 22  1  0
 25 23  1  0
 25 26  1  6
 26 18  1  0
 27 29  1  0
 27 25  1  0
 28 27  2  0
M  END
$$$$
