YDI.pdb
     RDKit          3D

 29 29  0  0  1  0  0  0  0  0999 V2000
    7.5620  -13.3106   15.0007 O   0  0  0  0  0  0  0  0  0  0  0  0
    7.5091  -13.6572   16.3573 C   0  0  0  0  0  0  0  0  0  0  0  0
    7.8607  -12.7582   17.3428 C   0  0  0  0  0  0  0  0  0  0  0  0
    7.8042  -13.1123   18.6760 C   0  0  0  0  0  0  0  0  0  0  0  0
    7.3998  -14.3636   19.0901 C   0  0  0  0  0  0  0  0  0  0  0  0
    7.3328  -14.7563   20.5266 C   0  0  0  0  0  0  0  0  0  0  0  0
    8.7164  -14.8257   21.1400 C   0  0  2  0  0  0  0  0  0  0  0  0
    9.6286  -15.4706   20.2237 N   0  0  0  0  0  0  0  0  0  0  0  0
    8.7034  -15.4997   22.4719 C   0  0  0  0  0  0  0  0  0  0  0  0
    7.8112  -15.1276   23.2646 O   0  0  0  0  0  0  0  0  0  0  0  0
    7.0465  -15.2659   18.0978 C   0  0  0  0  0  0  0  0  0  0  0  0
    7.1025  -14.9130   16.7588 C   0  0  0  0  0  0  0  0  0  0  0  0
    9.6102  -16.4862   22.8474 N   0  0  0  0  0  0  0  0  0  0  0  0
    9.6934  -17.1466   24.1524 C   0  0  1  0  0  0  0  0  0  0  0  0
   10.4878  -18.3958   24.0080 C   0  0  0  0  0  0  0  0  0  0  0  0
   10.7554  -19.0866   25.2772 C   0  0  0  0  0  0  0  0  0  0  0  0
    9.8384  -19.5245   25.9891 O   0  0  0  0  0  0  0  0  0  0  0  0
   10.0699  -16.2394   25.1892 C   0  0  0  0  0  0  0  0  0  0  0  0
   11.2077  -15.6544   25.1070 O   0  0  0  0  0  0  0  0  0  0  0  0
   12.0769  -19.2745   25.7317 O   0  0  0  0  0  0  0  0  0  0  0  0
    7.2334  -12.2965   26.2878 C   0  0  0  0  0  0  0  0  0  0  0  0
    8.4519  -13.1856   26.1659 C   0  0  0  0  0  0  0  0  0  0  0  0
    8.7582  -13.8803   27.4761 C   0  0  2  0  0  0  0  0  0  0  0  0
    9.0727  -12.8924   28.5592 C   0  0  0  0  0  0  0  0  0  0  0  0
    9.7836  -14.9703   27.3304 C   0  0  2  0  0  0  0  0  0  0  0  0
    9.3008  -15.9078   26.3142 N   0  0  0  0  0  0  0  0  0  0  0  0
    9.8789  -15.6634   28.6203 C   0  0  0  0  0  0  0  0  0  0  0  0
   10.4341  -15.1182   29.6072 O   0  0  0  0  0  0  0  0  0  0  0  0
    9.3671  -16.9237   28.7892 O   0  0  0  0  0  0  0  0  0  0  0  0
  2  1  1  0
  3  2  2  0
  4  3  1  0
  5  4  2  0
  5 11  1  0
  6  5  1  0
  7  8  1  6
  7  6  1  0
  9  7  1  0
 10  9  2  0
 11 12  2  0
 12  2  1  0
 13  9  1  0
 14 18  1  0
 14 13  1  0
 14 15  1  6
 16 15  1  0
 17 16  2  0
 18 19  2  0
 20 16  1  0
 22 21  1  0
 23 24  1  1
 23 22  1  0
 25 23  1  0
 25 26  1  6
 26 18  1  0
 27 29  1  0
 27 25  1  0
 28 27  2  0
M  END
$$$$
