YDI.pdb
     RDKit          3D

 29 29  0  0  1  0  0  0  0  0999 V2000
    7.3002  -12.7267   15.8304 O   0  0  0  0  0  0  0  0  0  0  0  0
    7.3444  -13.2505   17.1292 C   0  0  0  0  0  0  0  0  0  0  0  0
    6.8147  -14.4900   17.4226 C   0  0  0  0  0  0  0  0  0  0  0  0
    6.8647  -14.9946   18.7067 C   0  0  0  0  0  0  0  0  0  0  0  0
    7.4376  -14.2995   19.7504 C   0  0  0  0  0  0  0  0  0  0  0  0
    7.4993  -14.8351   21.1401 C   0  0  0  0  0  0  0  0  0  0  0  0
    8.9300  -15.1044   21.5596 C   0  0  2  0  0  0  0  0  0  0  0  0
    9.6276  -15.8051   20.5060 N   0  0  0  0  0  0  0  0  0  0  0  0
    9.0023  -15.8424   22.8553 C   0  0  0  0  0  0  0  0  0  0  0  0
    8.2139  -15.4604   23.7471 O   0  0  0  0  0  0  0  0  0  0  0  0
    7.9700  -13.0536   19.4532 C   0  0  0  0  0  0  0  0  0  0  0  0
    7.9209  -12.5447   18.1651 C   0  0  0  0  0  0  0  0  0  0  0  0
    9.8786  -16.8961   23.0964 N   0  0  0  0  0  0  0  0  0  0  0  0
   10.1060  -17.5688   24.3777 C   0  0  1  0  0  0  0  0  0  0  0  0
   10.9232  -18.7887   24.1406 C   0  0  0  0  0  0  0  0  0  0  0  0
   11.2376  -19.5465   25.3599 C   0  0  0  0  0  0  0  0  0  0  0  0
   10.3766  -19.7872   26.2203 O   0  0  0  0  0  0  0  0  0  0  0  0
   10.5490  -16.6618   25.3880 C   0  0  0  0  0  0  0  0  0  0  0  0
   11.6484  -16.0288   25.2025 O   0  0  0  0  0  0  0  0  0  0  0  0
   12.5420  -20.0281   25.5939 O   0  0  0  0  0  0  0  0  0  0  0  0
    7.7854  -12.7761   26.7124 C   0  0  0  0  0  0  0  0  0  0  0  0
    8.9580  -13.7056   26.4859 C   0  0  0  0  0  0  0  0  0  0  0  0
    9.4047  -14.3518   27.7805 C   0  0  2  0  0  0  0  0  0  0  0  0
    9.8095  -13.3240   28.7942 C   0  0  0  0  0  0  0  0  0  0  0  0
   10.4282  -15.4327   27.5679 C   0  0  2  0  0  0  0  0  0  0  0  0
    9.8854  -16.3788   26.5907 N   0  0  0  0  0  0  0  0  0  0  0  0
   10.6191  -16.1196   28.8505 C   0  0  0  0  0  0  0  0  0  0  0  0
    9.9737  -17.1618   29.1275 O   0  0  0  0  0  0  0  0  0  0  0  0
   11.5046  -15.6477   29.7843 O   0  0  0  0  0  0  0  0  0  0  0  0
  2  1  1  0
  3  2  2  0
  4  3  1  0
  5  4  2  0
  5 11  1  0
  6  5  1  0
  7  8  1  6
  7  6  1  0
  9  7  1  0
 10  9  2  0
 11 12  2  0
 12  2  1  0
 13  9  1  0
 14 18  1  0
 14 13  1  0
 14 15  1  6
 16 15  1  0
 17 16  2  0
 18 19  2  0
 20 16  1  0
 22 21  1  0
 23 24  1  1
 23 22  1  0
 25 23  1  0
 25 26  1  6
 26 18  1  0
 27 29  1  0
 27 25  1  0
 28 27  2  0
M  END
$$$$
