YDI.pdb
     RDKit          3D

 29 29  0  0  1  0  0  0  0  0999 V2000
    7.8266  -12.5595   16.3646 O   0  0  0  0  0  0  0  0  0  0  0  0
    7.8094  -13.0558   17.6749 C   0  0  0  0  0  0  0  0  0  0  0  0
    8.8669  -13.7819   18.1822 C   0  0  0  0  0  0  0  0  0  0  0  0
    8.8374  -14.2653   19.4750 C   0  0  0  0  0  0  0  0  0  0  0  0
    7.7671  -14.0527   20.3175 C   0  0  0  0  0  0  0  0  0  0  0  0
    7.7251  -14.5678   21.7158 C   0  0  0  0  0  0  0  0  0  0  0  0
    7.7504  -16.0824   21.7419 C   0  0  2  0  0  0  0  0  0  0  0  0
    6.4370  -16.6013   21.4364 N   0  0  0  0  0  0  0  0  0  0  0  0
    8.2640  -16.6098   23.0405 C   0  0  0  0  0  0  0  0  0  0  0  0
    7.4282  -16.6920   23.9665 O   0  0  0  0  0  0  0  0  0  0  0  0
    6.7050  -13.3221   19.8057 C   0  0  0  0  0  0  0  0  0  0  0  0
    6.7320  -12.8359   18.5082 C   0  0  0  0  0  0  0  0  0  0  0  0
    9.5842  -16.9974   23.2491 N   0  0  0  0  0  0  0  0  0  0  0  0
   10.1875  -17.3970   24.5228 C   0  0  1  0  0  0  0  0  0  0  0  0
   11.3982  -18.2149   24.2443 C   0  0  0  0  0  0  0  0  0  0  0  0
   11.9510  -18.8902   25.4268 C   0  0  0  0  0  0  0  0  0  0  0  0
   11.3918  -18.8336   26.5330 O   0  0  0  0  0  0  0  0  0  0  0  0
   10.3261  -16.2942   25.4196 C   0  0  0  0  0  0  0  0  0  0  0  0
   11.0020  -15.2747   25.0358 O   0  0  0  0  0  0  0  0  0  0  0  0
   13.1479  -19.6307   25.3412 O   0  0  0  0  0  0  0  0  0  0  0  0
    6.7370  -13.1538   26.8544 C   0  0  0  0  0  0  0  0  0  0  0  0
    8.1410  -13.6626   26.6097 C   0  0  0  0  0  0  0  0  0  0  0  0
    8.6822  -14.3870   27.8243 C   0  0  2  0  0  0  0  0  0  0  0  0
    8.6643  -13.5084   29.0390 C   0  0  0  0  0  0  0  0  0  0  0  0
   10.0111  -15.0417   27.5666 C   0  0  2  0  0  0  0  0  0  0  0  0
    9.7792  -16.2053   26.7080 N   0  0  0  0  0  0  0  0  0  0  0  0
   10.5400  -15.4930   28.8588 C   0  0  0  0  0  0  0  0  0  0  0  0
   10.9916  -14.6705   29.6949 O   0  0  0  0  0  0  0  0  0  0  0  0
   10.5583  -16.8219   29.1941 O   0  0  0  0  0  0  0  0  0  0  0  0
  2  1  1  0
  3  2  2  0
  4  3  1  0
  5  4  2  0
  5 11  1  0
  6  5  1  0
  7  8  1  1
  7  6  1  0
  9  7  1  0
 10  9  2  0
 11 12  2  0
 12  2  1  0
 13  9  1  0
 14 18  1  0
 14 13  1  0
 14 15  1  6
 16 15  1  0
 17 16  2  0
 18 19  2  0
 20 16  1  0
 22 21  1  0
 23 24  1  1
 23 22  1  0
 25 23  1  0
 25 26  1  6
 26 18  1  0
 27 29  1  0
 27 25  1  0
 28 27  2  0
M  END
$$$$
