LYS.pdb
     RDKit          3D

 27 27  0  0  1  0  0  0  0  0999 V2000
    7.4188  -12.1291   19.5641 C   0  0  0  0  0  0  0  0  0  0  0  0
    8.0178  -13.5118   19.6704 C   0  0  2  0  0  0  0  0  0  0  0  0
    8.3188  -13.9627   18.2322 C   0  0  0  0  0  0  0  0  0  0  0  0
    7.1128  -14.5400   20.2416 C   0  0  0  0  0  0  0  0  0  0  0  0
    7.7610  -15.7183   20.8909 C   0  0  2  0  0  0  0  0  0  0  0  0
    6.8749  -16.7384   21.3518 N   0  0  0  0  0  0  0  0  0  0  0  0
    8.7342  -15.3510   21.9352 C   0  0  0  0  0  0  0  0  0  0  0  0
    9.8468  -14.8977   21.5993 O   0  0  0  0  0  0  0  0  0  0  0  0
   11.0329  -15.2144   30.6485 O   0  0  0  0  0  0  0  0  0  0  0  0
   10.3976  -15.2053   29.3995 C   0  0  0  0  0  0  0  0  0  0  0  0
    9.9088  -16.3463   28.8298 C   0  0  0  0  0  0  0  0  0  0  0  0
    9.2871  -16.3108   27.5983 C   0  0  0  0  0  0  0  0  0  0  0  0
    9.1254  -15.1463   26.8848 C   0  0  0  0  0  0  0  0  0  0  0  0
    8.4660  -15.1188   25.5864 C   0  0  0  0  0  0  0  0  0  0  0  0
    9.3545  -15.2239   24.3766 C   0  0  2  0  0  0  0  0  0  0  0  0
    8.3945  -15.5170   23.2792 N   0  0  0  0  0  0  0  0  0  0  0  0
   10.2787  -16.3680   24.3741 C   0  0  0  0  0  0  0  0  0  0  0  0
    9.8712  -17.5754   24.2204 O   0  0  0  0  0  0  0  0  0  0  0  0
    9.6228  -13.9907   27.4664 C   0  0  0  0  0  0  0  0  0  0  0  0
   10.2501  -14.0188   28.7060 C   0  0  0  0  0  0  0  0  0  0  0  0
   14.6050  -18.2492   23.4501 O   0  0  0  0  0  0  0  0  0  0  0  0
   13.7603  -17.1691   23.5350 C   0  0  0  0  0  0  0  0  0  0  0  0
   12.5673  -17.4135   24.4382 C   0  0  2  0  0  0  0  0  0  0  0  0
   11.7044  -16.2823   24.5324 N   0  0  0  0  0  0  0  0  0  0  0  0
   13.0569  -17.9607   25.7100 C   0  0  0  0  0  0  0  0  0  0  0  0
   13.8209  -19.1343   25.7064 O   0  0  0  0  0  0  0  0  0  0  0  0
   12.7791  -17.3628   26.7760 O   0  0  0  0  0  0  0  0  0  0  0  0
  2  1  1  6
  3  2  1  0
  4  2  1  0
  4  5  1  0
  5  6  1  1
  7  5  1  0
  7  8  2  0
  9 10  1  0
 10 11  2  0
 11 12  1  0
 13 14  1  0
 13 12  2  0
 15 14  1  1
 15 16  1  0
 16  7  1  0
 17 15  1  0
 18 17  2  0
 19 13  1  0
 20 19  2  0
 20 10  1  0
 21 22  1  0
 23 22  1  6
 23 25  1  0
 23 24  1  0
 24 17  1  0
 25 26  1  0
 27 25  2  0
M  END
$$$$
