LYS.pdb
     RDKit          3D

 27 27  0  0  1  0  0  0  0  0999 V2000
    8.2718  -14.3777   18.0199 C   0  0  0  0  0  0  0  0  0  0  0  0
    7.6340  -13.7697   19.2469 C   0  0  2  0  0  0  0  0  0  0  0  0
    7.4767  -12.2694   18.9522 C   0  0  0  0  0  0  0  0  0  0  0  0
    8.4503  -13.8613   20.4829 C   0  0  0  0  0  0  0  0  0  0  0  0
    8.6481  -15.2258   21.0567 C   0  0  2  0  0  0  0  0  0  0  0  0
    7.5393  -16.1169   20.9352 N   0  0  0  0  0  0  0  0  0  0  0  0
    9.1679  -15.2126   22.4359 C   0  0  0  0  0  0  0  0  0  0  0  0
   10.1423  -14.4847   22.7131 O   0  0  0  0  0  0  0  0  0  0  0  0
    6.1604  -10.6763   27.2368 O   0  0  0  0  0  0  0  0  0  0  0  0
    6.5253  -11.9652   26.8255 C   0  0  0  0  0  0  0  0  0  0  0  0
    5.5973  -12.8889   26.4370 C   0  0  0  0  0  0  0  0  0  0  0  0
    5.9825  -14.1519   26.0362 C   0  0  0  0  0  0  0  0  0  0  0  0
    7.2989  -14.5484   26.0044 C   0  0  0  0  0  0  0  0  0  0  0  0
    7.6957  -15.8834   25.5780 C   0  0  0  0  0  0  0  0  0  0  0  0
    8.9956  -15.9930   24.8281 C   0  0  2  0  0  0  0  0  0  0  0  0
    8.5621  -16.0138   23.4056 N   0  0  0  0  0  0  0  0  0  0  0  0
    9.7212  -17.2591   25.0115 C   0  0  0  0  0  0  0  0  0  0  0  0
    9.1188  -18.3916   25.0580 O   0  0  0  0  0  0  0  0  0  0  0  0
    8.2375  -13.6082   26.3995 C   0  0  0  0  0  0  0  0  0  0  0  0
    7.8571  -12.3344   26.8044 C   0  0  0  0  0  0  0  0  0  0  0  0
   12.3597  -18.9744   22.0770 O   0  0  0  0  0  0  0  0  0  0  0  0
   11.6314  -18.1140   22.8623 C   0  0  0  0  0  0  0  0  0  0  0  0
   11.9335  -18.2548   24.3414 C   0  0  2  0  0  0  0  0  0  0  0  0
   11.1458  -17.3854   25.1516 N   0  0  0  0  0  0  0  0  0  0  0  0
   13.3880  -18.1680   24.5247 C   0  0  0  0  0  0  0  0  0  0  0  0
   13.9566  -16.9655   24.9627 O   0  0  0  0  0  0  0  0  0  0  0  0
   14.0921  -19.1767   24.2840 O   0  0  0  0  0  0  0  0  0  0  0  0
  2  1  1  6
  3  2  1  0
  4  2  1  0
  4  5  1  0
  5  6  1  1
  7  5  1  0
  7  8  2  0
  9 10  1  0
 10 11  2  0
 11 12  1  0
 13 14  1  0
 13 12  2  0
 15 14  1  1
 15 16  1  0
 16  7  1  0
 17 15  1  0
 18 17  2  0
 19 13  1  0
 20 19  2  0
 20 10  1  0
 21 22  1  0
 23 22  1  6
 23 25  1  0
 23 24  1  0
 24 17  1  0
 25 26  1  0
 27 25  2  0
M  END
$$$$
