LYS.pdb
     RDKit          3D

 27 27  0  0  1  0  0  0  0  0999 V2000
    7.5828  -14.4012   17.9738 C   0  0  0  0  0  0  0  0  0  0  0  0
    7.2009  -13.6720   19.2406 C   0  0  2  0  0  0  0  0  0  0  0  0
    7.0341  -12.1940   18.8533 C   0  0  0  0  0  0  0  0  0  0  0  0
    8.2293  -13.7021   20.3102 C   0  0  0  0  0  0  0  0  0  0  0  0
    8.4769  -15.0207   20.9660 C   0  0  2  0  0  0  0  0  0  0  0  0
    7.3127  -15.7818   21.2884 N   0  0  0  0  0  0  0  0  0  0  0  0
    9.3925  -14.9402   22.1183 C   0  0  0  0  0  0  0  0  0  0  0  0
   10.5112  -14.4080   21.9718 O   0  0  0  0  0  0  0  0  0  0  0  0
   10.8808  -15.2798   30.9672 O   0  0  0  0  0  0  0  0  0  0  0  0
   10.3867  -15.2403   29.6565 C   0  0  0  0  0  0  0  0  0  0  0  0
    9.9226  -16.3593   29.0257 C   0  0  0  0  0  0  0  0  0  0  0  0
    9.4411  -16.2938   27.7342 C   0  0  0  0  0  0  0  0  0  0  0  0
    9.4003  -15.1202   27.0187 C   0  0  0  0  0  0  0  0  0  0  0  0
    8.8883  -15.0610   25.6564 C   0  0  0  0  0  0  0  0  0  0  0  0
    9.8610  -15.3876   24.5558 C   0  0  2  0  0  0  0  0  0  0  0  0
    8.9926  -15.4603   23.3507 N   0  0  0  0  0  0  0  0  0  0  0  0
   10.4839  -16.7171   24.6428 C   0  0  0  0  0  0  0  0  0  0  0  0
    9.8101  -17.7988   24.4907 O   0  0  0  0  0  0  0  0  0  0  0  0
    9.8721  -13.9869   27.6623 C   0  0  0  0  0  0  0  0  0  0  0  0
   10.3586  -14.0451   28.9627 C   0  0  0  0  0  0  0  0  0  0  0  0
   13.8897  -17.4028   23.2333 O   0  0  0  0  0  0  0  0  0  0  0  0
   13.7273  -18.3979   24.1664 C   0  0  0  0  0  0  0  0  0  0  0  0
   12.4362  -18.2752   24.9519 C   0  0  2  0  0  0  0  0  0  0  0  0
   11.8768  -16.9650   24.8947 N   0  0  0  0  0  0  0  0  0  0  0  0
   12.6605  -18.8243   26.2953 C   0  0  0  0  0  0  0  0  0  0  0  0
   13.1579  -20.1260   26.4334 O   0  0  0  0  0  0  0  0  0  0  0  0
   12.4005  -18.1126   27.2939 O   0  0  0  0  0  0  0  0  0  0  0  0
  2  1  1  6
  3  2  1  0
  4  2  1  0
  4  5  1  0
  5  6  1  1
  7  5  1  0
  7  8  2  0
  9 10  1  0
 10 11  2  0
 11 12  1  0
 13 14  1  0
 13 12  2  0
 15 14  1  1
 15 16  1  0
 16  7  1  0
 17 15  1  0
 18 17  2  0
 19 13  1  0
 20 19  2  0
 20 10  1  0
 21 22  1  0
 23 22  1  1
 23 25  1  0
 23 24  1  0
 24 17  1  0
 25 26  1  0
 27 25  2  0
M  END
$$$$
