LYS.pdb
     RDKit          3D

 27 27  0  0  1  0  0  0  0  0999 V2000
    7.6431  -14.3390   17.8218 C   0  0  0  0  0  0  0  0  0  0  0  0
    6.9401  -13.8472   19.0652 C   0  0  2  0  0  0  0  0  0  0  0  0
    6.4616  -12.4201   18.7536 C   0  0  0  0  0  0  0  0  0  0  0  0
    7.8045  -13.7366   20.2665 C   0  0  0  0  0  0  0  0  0  0  0  0
    8.3408  -15.0128   20.8268 C   0  0  2  0  0  0  0  0  0  0  0  0
    7.3697  -16.0153   21.1272 N   0  0  0  0  0  0  0  0  0  0  0  0
    9.2642  -14.8144   21.9585 C   0  0  0  0  0  0  0  0  0  0  0  0
   10.3012  -14.1421   21.7884 O   0  0  0  0  0  0  0  0  0  0  0  0
   11.0719  -15.3483   30.7544 O   0  0  0  0  0  0  0  0  0  0  0  0
   10.5271  -15.2863   29.4648 C   0  0  0  0  0  0  0  0  0  0  0  0
   10.2678  -14.0962   28.8470 C   0  0  0  0  0  0  0  0  0  0  0  0
    9.7309  -14.0621   27.5763 C   0  0  0  0  0  0  0  0  0  0  0  0
    9.4307  -15.2028   26.8694 C   0  0  0  0  0  0  0  0  0  0  0  0
    8.8659  -15.1565   25.5276 C   0  0  0  0  0  0  0  0  0  0  0  0
    9.8421  -15.1981   24.3834 C   0  0  2  0  0  0  0  0  0  0  0  0
    8.9628  -15.3816   23.1981 N   0  0  0  0  0  0  0  0  0  0  0  0
   10.7368  -16.3653   24.3637 C   0  0  0  0  0  0  0  0  0  0  0  0
   10.2971  -17.5608   24.2052 O   0  0  0  0  0  0  0  0  0  0  0  0
    9.6953  -16.4085   27.4998 C   0  0  0  0  0  0  0  0  0  0  0  0
   10.2358  -16.4507   28.7793 C   0  0  0  0  0  0  0  0  0  0  0  0
   14.9645  -16.1287   24.2778 O   0  0  0  0  0  0  0  0  0  0  0  0
   14.3291  -17.2771   23.8720 C   0  0  0  0  0  0  0  0  0  0  0  0
   12.9844  -17.4839   24.5412 C   0  0  2  0  0  0  0  0  0  0  0  0
   12.1656  -16.3171   24.5089 N   0  0  0  0  0  0  0  0  0  0  0  0
   13.2151  -18.0754   25.8654 C   0  0  0  0  0  0  0  0  0  0  0  0
   13.9125  -19.2854   25.9675 O   0  0  0  0  0  0  0  0  0  0  0  0
   12.7807  -17.4815   26.8803 O   0  0  0  0  0  0  0  0  0  0  0  0
  2  1  1  6
  3  2  1  0
  4  2  1  0
  4  5  1  0
  5  6  1  1
  7  5  1  0
  7  8  2  0
  9 10  1  0
 10 11  2  0
 11 12  1  0
 13 14  1  0
 13 12  2  0
 15 14  1  1
 15 16  1  0
 16  7  1  0
 17 15  1  0
 18 17  2  0
 19 13  1  0
 20 19  2  0
 20 10  1  0
 21 22  1  0
 23 22  1  1
 23 25  1  0
 23 24  1  0
 24 17  1  0
 25 26  1  0
 27 25  2  0
M  END
$$$$
