LYS.pdb
     RDKit          3D

 27 27  0  0  1  0  0  0  0  0999 V2000
    8.3678  -15.0212   16.6699 C   0  0  0  0  0  0  0  0  0  0  0  0
    8.1404  -14.1507   17.8834 C   0  0  2  0  0  0  0  0  0  0  0  0
    7.9966  -12.7124   17.3611 C   0  0  0  0  0  0  0  0  0  0  0  0
    9.2656  -14.1251   18.8508 C   0  0  0  0  0  0  0  0  0  0  0  0
    9.3633  -15.2765   19.7968 C   0  0  2  0  0  0  0  0  0  0  0  0
    8.3328  -16.2585   19.6879 N   0  0  0  0  0  0  0  0  0  0  0  0
    9.5594  -14.8682   21.1995 C   0  0  0  0  0  0  0  0  0  0  0  0
   10.5721  -14.2076   21.5061 O   0  0  0  0  0  0  0  0  0  0  0  0
    6.3590  -11.7376   28.8287 O   0  0  0  0  0  0  0  0  0  0  0  0
    6.5960  -12.3354   27.5837 C   0  0  0  0  0  0  0  0  0  0  0  0
    7.2837  -11.6933   26.5937 C   0  0  0  0  0  0  0  0  0  0  0  0
    7.5039  -12.3040   25.3760 C   0  0  0  0  0  0  0  0  0  0  0  0
    7.0526  -13.5716   25.0919 C   0  0  0  0  0  0  0  0  0  0  0  0
    7.2917  -14.2084   23.8040 C   0  0  0  0  0  0  0  0  0  0  0  0
    8.6800  -14.7348   23.5596 C   0  0  2  0  0  0  0  0  0  0  0  0
    8.6104  -15.2279   22.1583 N   0  0  0  0  0  0  0  0  0  0  0  0
    9.0505  -15.9187   24.3497 C   0  0  0  0  0  0  0  0  0  0  0  0
    8.8836  -15.9714   25.6212 O   0  0  0  0  0  0  0  0  0  0  0  0
    6.3551  -14.2197   26.0991 C   0  0  0  0  0  0  0  0  0  0  0  0
    6.1295  -13.6111   27.3279 C   0  0  0  0  0  0  0  0  0  0  0  0
   11.1134  -19.3172   22.7865 O   0  0  0  0  0  0  0  0  0  0  0  0
   10.2350  -19.4982   23.8272 C   0  0  0  0  0  0  0  0  0  0  0  0
    9.9929  -18.2355   24.6308 C   0  0  2  0  0  0  0  0  0  0  0  0
    9.6209  -17.1253   23.8171 N   0  0  0  0  0  0  0  0  0  0  0  0
   11.1425  -18.0283   25.5207 C   0  0  0  0  0  0  0  0  0  0  0  0
   11.5604  -19.0685   26.3600 O   0  0  0  0  0  0  0  0  0  0  0  0
   11.7275  -16.9198   25.5096 O   0  0  0  0  0  0  0  0  0  0  0  0
  2  1  1  6
  3  2  1  0
  4  2  1  0
  4  5  1  0
  5  6  1  1
  7  5  1  0
  7  8  2  0
  9 10  1  0
 10 11  2  0
 11 12  1  0
 13 14  1  0
 13 12  2  0
 15 14  1  1
 15 16  1  0
 16  7  1  0
 17 15  1  0
 18 17  2  0
 19 13  1  0
 20 19  2  0
 20 10  1  0
 21 22  1  0
 23 22  1  6
 23 25  1  0
 23 24  1  0
 24 17  1  0
 25 26  1  0
 27 25  2  0
M  END
$$$$
