LYS.pdb
     RDKit          3D

 27 27  0  0  1  0  0  0  0  0999 V2000
    7.5818  -14.4076   17.9772 C   0  0  0  0  0  0  0  0  0  0  0  0
    7.0300  -13.7559   19.2233 C   0  0  2  0  0  0  0  0  0  0  0  0
    6.7656  -12.2861   18.8598 C   0  0  0  0  0  0  0  0  0  0  0  0
    7.9621  -13.7315   20.3779 C   0  0  0  0  0  0  0  0  0  0  0  0
    8.3083  -15.0495   20.9887 C   0  0  2  0  0  0  0  0  0  0  0  0
    7.2021  -15.8856   21.3288 N   0  0  0  0  0  0  0  0  0  0  0  0
    9.2574  -14.9447   22.1115 C   0  0  0  0  0  0  0  0  0  0  0  0
   10.3545  -14.3790   21.9314 O   0  0  0  0  0  0  0  0  0  0  0  0
   10.9544  -15.2634   30.9245 O   0  0  0  0  0  0  0  0  0  0  0  0
   10.4368  -15.1976   29.6240 C   0  0  0  0  0  0  0  0  0  0  0  0
   10.3757  -14.0229   28.9298 C   0  0  0  0  0  0  0  0  0  0  0  0
    9.8613  -13.9847   27.6499 C   0  0  0  0  0  0  0  0  0  0  0  0
    9.3885  -15.1057   27.0090 C   0  0  0  0  0  0  0  0  0  0  0  0
    8.8491  -15.0554   25.6570 C   0  0  0  0  0  0  0  0  0  0  0  0
    9.8062  -15.3634   24.5374 C   0  0  2  0  0  0  0  0  0  0  0  0
    8.9127  -15.4797   23.3542 N   0  0  0  0  0  0  0  0  0  0  0  0
   10.4748  -16.6704   24.6250 C   0  0  0  0  0  0  0  0  0  0  0  0
    9.8245  -17.7758   24.5718 O   0  0  0  0  0  0  0  0  0  0  0  0
    9.4523  -16.2957   27.7168 C   0  0  0  0  0  0  0  0  0  0  0  0
    9.9689  -16.3420   29.0060 C   0  0  0  0  0  0  0  0  0  0  0  0
   14.5047  -17.0775   24.0270 O   0  0  0  0  0  0  0  0  0  0  0  0
   13.7705  -18.2382   23.9963 C   0  0  0  0  0  0  0  0  0  0  0  0
   12.4951  -18.1598   24.8124 C   0  0  2  0  0  0  0  0  0  0  0  0
   11.8906  -16.8692   24.7706 N   0  0  0  0  0  0  0  0  0  0  0  0
   12.7697  -18.7021   26.1492 C   0  0  0  0  0  0  0  0  0  0  0  0
   13.2817  -19.9994   26.2747 O   0  0  0  0  0  0  0  0  0  0  0  0
   12.5387  -17.9886   27.1536 O   0  0  0  0  0  0  0  0  0  0  0  0
  2  1  1  6
  3  2  1  0
  4  2  1  0
  4  5  1  0
  5  6  1  1
  7  5  1  0
  7  8  2  0
  9 10  1  0
 10 11  2  0
 11 12  1  0
 13 14  1  0
 13 12  2  0
 15 14  1  1
 15 16  1  0
 16  7  1  0
 17 15  1  0
 18 17  2  0
 19 13  1  0
 20 19  2  0
 20 10  1  0
 21 22  1  0
 23 22  1  6
 23 25  1  0
 23 24  1  0
 24 17  1  0
 25 26  1  0
 27 25  2  0
M  END
$$$$
