LYS.pdb
     RDKit          3D

 27 27  0  0  1  0  0  0  0  0999 V2000
    7.6455  -14.3165   17.9077 C   0  0  0  0  0  0  0  0  0  0  0  0
    7.3720  -13.4768   19.1333 C   0  0  2  0  0  0  0  0  0  0  0  0
    7.4085  -12.0120   18.6690 C   0  0  0  0  0  0  0  0  0  0  0  0
    8.3903  -13.5921   20.2068 C   0  0  0  0  0  0  0  0  0  0  0  0
    8.4660  -14.9010   20.9219 C   0  0  2  0  0  0  0  0  0  0  0  0
    7.2134  -15.5009   21.2526 N   0  0  0  0  0  0  0  0  0  0  0  0
    9.3677  -14.8813   22.0877 C   0  0  0  0  0  0  0  0  0  0  0  0
   10.5248  -14.4341   21.9558 O   0  0  0  0  0  0  0  0  0  0  0  0
   10.6196  -15.2440   30.9797 O   0  0  0  0  0  0  0  0  0  0  0  0
   10.1522  -15.1898   29.6597 C   0  0  0  0  0  0  0  0  0  0  0  0
   10.1211  -14.0221   28.9521 C   0  0  0  0  0  0  0  0  0  0  0  0
    9.6559  -13.9953   27.6532 C   0  0  0  0  0  0  0  0  0  0  0  0
    9.2046  -15.1215   27.0059 C   0  0  0  0  0  0  0  0  0  0  0  0
    8.7173  -15.0833   25.6338 C   0  0  0  0  0  0  0  0  0  0  0  0
    9.7403  -15.2858   24.5492 C   0  0  2  0  0  0  0  0  0  0  0  0
    8.9120  -15.3629   23.3163 N   0  0  0  0  0  0  0  0  0  0  0  0
   10.4565  -16.5697   24.5936 C   0  0  0  0  0  0  0  0  0  0  0  0
    9.8683  -17.6885   24.3705 O   0  0  0  0  0  0  0  0  0  0  0  0
    9.2378  -16.3045   27.7274 C   0  0  0  0  0  0  0  0  0  0  0  0
    9.7047  -16.3392   29.0357 C   0  0  0  0  0  0  0  0  0  0  0  0
   13.7839  -17.3750   22.9184 O   0  0  0  0  0  0  0  0  0  0  0  0
   13.8482  -17.9631   24.1584 C   0  0  0  0  0  0  0  0  0  0  0  0
   12.5121  -17.9947   24.8743 C   0  0  2  0  0  0  0  0  0  0  0  0
   11.8563  -16.7286   24.8769 N   0  0  0  0  0  0  0  0  0  0  0  0
   12.7075  -18.6242   26.1866 C   0  0  0  0  0  0  0  0  0  0  0  0
   13.2889  -19.8960   26.2609 O   0  0  0  0  0  0  0  0  0  0  0  0
   12.3479  -18.0067   27.2164 O   0  0  0  0  0  0  0  0  0  0  0  0
  2  1  1  6
  3  2  1  0
  4  2  1  0
  4  5  1  0
  5  6  1  1
  7  5  1  0
  7  8  2  0
  9 10  1  0
 10 11  2  0
 11 12  1  0
 13 14  1  0
 13 12  2  0
 15 14  1  1
 15 16  1  0
 16  7  1  0
 17 15  1  0
 18 17  2  0
 19 13  1  0
 20 19  2  0
 20 10  1  0
 21 22  1  0
 23 22  1  1
 23 25  1  0
 23 24  1  0
 24 17  1  0
 25 26  1  0
 27 25  2  0
M  END
$$$$
