LYS.pdb
     RDKit          3D

 27 27  0  0  1  0  0  0  0  0999 V2000
    7.3908  -21.8828   28.0246 C   0  0  0  0  0  0  0  0  0  0  0  0
    6.0832  -21.3301   27.5080 C   0  0  2  0  0  0  0  0  0  0  0  0
    5.2535  -22.5410   27.0524 C   0  0  0  0  0  0  0  0  0  0  0  0
    6.2061  -20.4473   26.3213 C   0  0  0  0  0  0  0  0  0  0  0  0
    7.0872  -19.2501   26.4641 C   0  0  2  0  0  0  0  0  0  0  0  0
    6.6170  -18.2358   27.3520 N   0  0  0  0  0  0  0  0  0  0  0  0
    7.5053  -18.6722   25.1742 C   0  0  0  0  0  0  0  0  0  0  0  0
    7.7324  -19.4317   24.2111 O   0  0  0  0  0  0  0  0  0  0  0  0
    7.6994  -12.0916   19.1590 O   0  0  0  0  0  0  0  0  0  0  0  0
    7.5389  -12.9382   20.2641 C   0  0  0  0  0  0  0  0  0  0  0  0
    8.0511  -12.6281   21.4916 C   0  0  0  0  0  0  0  0  0  0  0  0
    7.8792  -13.4790   22.5643 C   0  0  0  0  0  0  0  0  0  0  0  0
    7.1948  -14.6675   22.4633 C   0  0  0  0  0  0  0  0  0  0  0  0
    7.0170  -15.5581   23.6020 C   0  0  0  0  0  0  0  0  0  0  0  0
    8.0443  -16.6438   23.7755 C   0  0  2  0  0  0  0  0  0  0  0  0
    7.6399  -17.2878   25.0536 N   0  0  0  0  0  0  0  0  0  0  0  0
    9.4177  -16.1758   24.0162 C   0  0  0  0  0  0  0  0  0  0  0  0
    9.8195  -15.8045   25.1773 O   0  0  0  0  0  0  0  0  0  0  0  0
    6.6766  -14.9785   21.2159 C   0  0  0  0  0  0  0  0  0  0  0  0
    6.8457  -14.1266   20.1312 C   0  0  0  0  0  0  0  0  0  0  0  0
   13.2483  -18.1418   24.1926 O   0  0  0  0  0  0  0  0  0  0  0  0
   11.9431  -17.7886   23.9496 C   0  0  0  0  0  0  0  0  0  0  0  0
   11.8061  -16.4412   23.2680 C   0  0  2  0  0  0  0  0  0  0  0  0
   10.4486  -16.0830   23.0194 N   0  0  0  0  0  0  0  0  0  0  0  0
   12.7036  -16.4196   22.1058 C   0  0  0  0  0  0  0  0  0  0  0  0
   14.0593  -16.1198   22.2878 O   0  0  0  0  0  0  0  0  0  0  0  0
   12.2345  -16.6712   20.9709 O   0  0  0  0  0  0  0  0  0  0  0  0
  2  1  1  6
  3  2  1  0
  4  2  1  0
  4  5  1  0
  5  6  1  1
  7  5  1  0
  7  8  2  0
  9 10  1  0
 10 11  2  0
 11 12  1  0
 13 14  1  0
 13 12  2  0
 15 14  1  1
 15 16  1  0
 16  7  1  0
 17 15  1  0
 18 17  2  0
 19 13  1  0
 20 19  2  0
 20 10  1  0
 21 22  1  0
 23 22  1  6
 23 25  1  0
 23 24  1  0
 24 17  1  0
 25 26  1  0
 27 25  2  0
M  END
$$$$
