LYS.pdb
     RDKit          3D

 27 27  0  0  1  0  0  0  0  0999 V2000
    8.0354  -15.2074   16.2697 C   0  0  0  0  0  0  0  0  0  0  0  0
    7.7649  -14.5179   17.5863 C   0  0  2  0  0  0  0  0  0  0  0  0
    7.4230  -13.0585   17.2462 C   0  0  0  0  0  0  0  0  0  0  0  0
    8.9252  -14.4626   18.5100 C   0  0  0  0  0  0  0  0  0  0  0  0
    9.0326  -15.5585   19.5187 C   0  0  2  0  0  0  0  0  0  0  0  0
    7.9255  -16.4580   19.5781 N   0  0  0  0  0  0  0  0  0  0  0  0
    9.4012  -15.0833   20.8644 C   0  0  0  0  0  0  0  0  0  0  0  0
   10.4032  -14.3526   20.9995 O   0  0  0  0  0  0  0  0  0  0  0  0
    6.5025  -11.7604   28.5641 O   0  0  0  0  0  0  0  0  0  0  0  0
    6.7116  -12.4150   27.3428 C   0  0  0  0  0  0  0  0  0  0  0  0
    7.2266  -11.7680   26.2558 C   0  0  0  0  0  0  0  0  0  0  0  0
    7.4230  -12.4354   25.0640 C   0  0  0  0  0  0  0  0  0  0  0  0
    7.1177  -13.7665   24.9028 C   0  0  0  0  0  0  0  0  0  0  0  0
    7.3305  -14.4626   23.6412 C   0  0  0  0  0  0  0  0  0  0  0  0
    8.7547  -14.7922   23.2849 C   0  0  2  0  0  0  0  0  0  0  0  0
    8.6243  -15.4590   21.9619 N   0  0  0  0  0  0  0  0  0  0  0  0
    9.4000  -15.7974   24.1430 C   0  0  0  0  0  0  0  0  0  0  0  0
    9.6764  -15.5681   25.3752 O   0  0  0  0  0  0  0  0  0  0  0  0
    6.5953  -14.4194   26.0082 C   0  0  0  0  0  0  0  0  0  0  0  0
    6.3947  -13.7539   27.2115 C   0  0  0  0  0  0  0  0  0  0  0  0
   12.8689  -18.5594   25.0876 O   0  0  0  0  0  0  0  0  0  0  0  0
   12.0735  -17.6671   24.4103 C   0  0  0  0  0  0  0  0  0  0  0  0
   10.5943  -17.9799   24.5239 C   0  0  2  0  0  0  0  0  0  0  0  0
    9.7843  -17.1182   23.7274 N   0  0  0  0  0  0  0  0  0  0  0  0
   10.2481  -18.0577   25.9490 C   0  0  0  0  0  0  0  0  0  0  0  0
   10.8691  -19.0178   26.7574 O   0  0  0  0  0  0  0  0  0  0  0  0
    9.4005  -17.2593   26.4129 O   0  0  0  0  0  0  0  0  0  0  0  0
  2  1  1  6
  3  2  1  0
  4  2  1  0
  4  5  1  0
  5  6  1  1
  7  5  1  0
  7  8  2  0
  9 10  1  0
 10 11  2  0
 11 12  1  0
 13 14  1  0
 13 12  2  0
 15 14  1  1
 15 16  1  0
 16  7  1  0
 17 15  1  0
 18 17  2  0
 19 13  1  0
 20 19  2  0
 20 10  1  0
 21 22  1  0
 23 22  1  1
 23 25  1  0
 23 24  1  0
 24 17  1  0
 25 26  1  0
 27 25  2  0
M  END
$$$$
