LYS.pdb
     RDKit          3D

 27 27  0  0  1  0  0  0  0  0999 V2000
    6.9514  -18.7131   16.8819 C   0  0  0  0  0  0  0  0  0  0  0  0
    8.1568  -17.8038   16.8342 C   0  0  2  0  0  0  0  0  0  0  0  0
    8.4277  -17.5252   15.3471 C   0  0  0  0  0  0  0  0  0  0  0  0
    9.4054  -18.3966   17.3744 C   0  0  0  0  0  0  0  0  0  0  0  0
    9.4162  -18.7262   18.8310 C   0  0  2  0  0  0  0  0  0  0  0  0
    8.1603  -19.1130   19.3890 N   0  0  0  0  0  0  0  0  0  0  0  0
   10.0698  -17.6979   19.6604 C   0  0  0  0  0  0  0  0  0  0  0  0
   11.2067  -17.2926   19.3452 O   0  0  0  0  0  0  0  0  0  0  0  0
    7.5328  -11.4184   18.1947 O   0  0  0  0  0  0  0  0  0  0  0  0
    7.8947  -12.3744   19.1532 C   0  0  0  0  0  0  0  0  0  0  0  0
    9.1912  -12.5481   19.5460 C   0  0  0  0  0  0  0  0  0  0  0  0
    9.5217  -13.4967   20.4921 C   0  0  0  0  0  0  0  0  0  0  0  0
    8.5831  -14.3085   21.0847 C   0  0  0  0  0  0  0  0  0  0  0  0
    8.9417  -15.3058   22.0838 C   0  0  0  0  0  0  0  0  0  0  0  0
   10.0579  -16.2488   21.7247 C   0  0  2  0  0  0  0  0  0  0  0  0
    9.4064  -17.1970   20.7821 N   0  0  0  0  0  0  0  0  0  0  0  0
   10.5421  -17.0962   22.8250 C   0  0  0  0  0  0  0  0  0  0  0  0
    9.7915  -17.9636   23.4009 O   0  0  0  0  0  0  0  0  0  0  0  0
    7.2686  -14.1292   20.6833 C   0  0  0  0  0  0  0  0  0  0  0  0
    6.9283  -13.1759   19.7312 C   0  0  0  0  0  0  0  0  0  0  0  0
   13.8119  -18.8577   22.6932 O   0  0  0  0  0  0  0  0  0  0  0  0
   13.6561  -18.6085   24.0352 C   0  0  0  0  0  0  0  0  0  0  0  0
   12.3210  -17.9747   24.3738 C   0  0  2  0  0  0  0  0  0  0  0  0
   11.8707  -17.0657   23.3718 N   0  0  0  0  0  0  0  0  0  0  0  0
   12.3965  -17.4442   25.7410 C   0  0  0  0  0  0  0  0  0  0  0  0
   12.7264  -18.3037   26.7962 O   0  0  0  0  0  0  0  0  0  0  0  0
   12.1629  -16.2280   25.9348 O   0  0  0  0  0  0  0  0  0  0  0  0
  2  1  1  6
  3  2  1  0
  4  2  1  0
  4  5  1  0
  5  6  1  1
  7  5  1  0
  7  8  2  0
  9 10  1  0
 10 11  2  0
 11 12  1  0
 13 14  1  0
 13 12  2  0
 15 14  1  1
 15 16  1  0
 16  7  1  0
 17 15  1  0
 18 17  2  0
 19 13  1  0
 20 19  2  0
 20 10  1  0
 21 22  1  0
 23 22  1  6
 23 25  1  0
 23 24  1  0
 24 17  1  0
 25 26  1  0
 27 25  2  0
M  END
$$$$
