LYS.pdb
     RDKit          3D

 27 27  0  0  1  0  0  0  0  0999 V2000
    8.1748  -12.3543   18.8200 C   0  0  0  0  0  0  0  0  0  0  0  0
    7.6875  -13.7671   19.0405 C   0  0  2  0  0  0  0  0  0  0  0  0
    6.6785  -13.6991   20.1979 C   0  0  0  0  0  0  0  0  0  0  0  0
    8.7356  -14.7277   19.4662 C   0  0  0  0  0  0  0  0  0  0  0  0
    9.8711  -14.9444   18.5207 C   0  0  2  0  0  0  0  0  0  0  0  0
    9.5213  -15.4733   17.2416 N   0  0  0  0  0  0  0  0  0  0  0  0
   10.9939  -15.6927   19.1139 C   0  0  0  0  0  0  0  0  0  0  0  0
   11.3524  -16.7681   18.5932 O   0  0  0  0  0  0  0  0  0  0  0  0
   17.5649  -14.0793   16.8536 O   0  0  0  0  0  0  0  0  0  0  0  0
   16.6255  -14.2407   17.8808 C   0  0  0  0  0  0  0  0  0  0  0  0
   15.3925  -13.6554   17.8301 C   0  0  0  0  0  0  0  0  0  0  0  0
   14.4851  -13.8298   18.8550 C   0  0  0  0  0  0  0  0  0  0  0  0
   14.7627  -14.5891   19.9675 C   0  0  0  0  0  0  0  0  0  0  0  0
   13.7974  -14.7688   21.0432 C   0  0  0  0  0  0  0  0  0  0  0  0
   12.7942  -15.8769   20.8707 C   0  0  2  0  0  0  0  0  0  0  0  0
   11.6346  -15.1861   20.2462 N   0  0  0  0  0  0  0  0  0  0  0  0
   12.2596  -16.4398   22.1199 C   0  0  0  0  0  0  0  0  0  0  0  0
   11.7830  -15.6997   23.0541 O   0  0  0  0  0  0  0  0  0  0  0  0
   16.0150  -15.1813   20.0151 C   0  0  0  0  0  0  0  0  0  0  0  0
   16.9340  -15.0101   18.9869 C   0  0  0  0  0  0  0  0  0  0  0  0
   11.7381  -20.6515   22.9820 O   0  0  0  0  0  0  0  0  0  0  0  0
   10.9350  -19.6583   23.4880 C   0  0  0  0  0  0  0  0  0  0  0  0
   11.6571  -18.3364   23.6609 C   0  0  2  0  0  0  0  0  0  0  0  0
   12.2002  -17.8395   22.4398 N   0  0  0  0  0  0  0  0  0  0  0  0
   12.5982  -18.4687   24.7805 C   0  0  0  0  0  0  0  0  0  0  0  0
   12.1146  -18.8046   26.0510 O   0  0  0  0  0  0  0  0  0  0  0  0
   13.8196  -18.2770   24.5736 O   0  0  0  0  0  0  0  0  0  0  0  0
  2  1  1  1
  3  2  1  0
  4  2  1  0
  4  5  1  0
  5  6  1  6
  7  5  1  0
  7  8  2  0
  9 10  1  0
 10 11  2  0
 11 12  1  0
 13 14  1  0
 13 12  2  0
 15 14  1  1
 15 16  1  0
 16  7  1  0
 17 15  1  0
 18 17  2  0
 19 13  1  0
 20 19  2  0
 20 10  1  0
 21 22  1  0
 23 22  1  6
 23 25  1  0
 23 24  1  0
 24 17  1  0
 25 26  1  0
 27 25  2  0
M  END
$$$$
