LYS.pdb
     RDKit          3D

 27 27  0  0  1  0  0  0  0  0999 V2000
    9.0121  -12.7387   20.3885 C   0  0  0  0  0  0  0  0  0  0  0  0
    7.9740  -13.4160   19.5250 C   0  0  2  0  0  0  0  0  0  0  0  0
    6.9769  -12.3217   19.1118 C   0  0  0  0  0  0  0  0  0  0  0  0
    7.1751  -14.4593   20.2148 C   0  0  0  0  0  0  0  0  0  0  0  0
    7.9251  -15.6356   20.7478 C   0  0  2  0  0  0  0  0  0  0  0  0
    7.1326  -16.7708   21.0966 N   0  0  0  0  0  0  0  0  0  0  0  0
    8.8627  -15.2914   21.8318 C   0  0  0  0  0  0  0  0  0  0  0  0
    9.9570  -14.7648   21.5467 O   0  0  0  0  0  0  0  0  0  0  0  0
   10.8058  -14.8812   30.6246 O   0  0  0  0  0  0  0  0  0  0  0  0
   10.2268  -14.9650   29.3512 C   0  0  0  0  0  0  0  0  0  0  0  0
    9.9103  -16.1644   28.7796 C   0  0  0  0  0  0  0  0  0  0  0  0
    9.3407  -16.2201   27.5239 C   0  0  0  0  0  0  0  0  0  0  0  0
    9.0629  -15.0926   26.7871 C   0  0  0  0  0  0  0  0  0  0  0  0
    8.4597  -15.1617   25.4632 C   0  0  0  0  0  0  0  0  0  0  0  0
    9.4050  -15.2203   24.2939 C   0  0  2  0  0  0  0  0  0  0  0  0
    8.5105  -15.5609   23.1556 N   0  0  0  0  0  0  0  0  0  0  0  0
   10.3854  -16.3158   24.3337 C   0  0  0  0  0  0  0  0  0  0  0  0
   10.0369  -17.5483   24.2502 O   0  0  0  0  0  0  0  0  0  0  0  0
    9.3856  -13.8776   27.3707 C   0  0  0  0  0  0  0  0  0  0  0  0
    9.9594  -13.8137   28.6347 C   0  0  0  0  0  0  0  0  0  0  0  0
   14.6642  -15.8035   24.1917 O   0  0  0  0  0  0  0  0  0  0  0  0
   13.9981  -16.8611   23.6215 C   0  0  0  0  0  0  0  0  0  0  0  0
   12.7282  -17.2354   24.3605 C   0  0  2  0  0  0  0  0  0  0  0  0
   11.8073  -16.1515   24.4611 N   0  0  0  0  0  0  0  0  0  0  0  0
   13.1042  -17.8835   25.6235 C   0  0  0  0  0  0  0  0  0  0  0  0
   13.9328  -19.0122   25.5987 O   0  0  0  0  0  0  0  0  0  0  0  0
   12.6734  -17.4102   26.7013 O   0  0  0  0  0  0  0  0  0  0  0  0
  2  1  1  1
  3  2  1  0
  4  2  1  0
  4  5  1  0
  5  6  1  1
  7  5  1  0
  7  8  2  0
  9 10  1  0
 10 11  2  0
 11 12  1  0
 13 14  1  0
 13 12  2  0
 15 14  1  1
 15 16  1  0
 16  7  1  0
 17 15  1  0
 18 17  2  0
 19 13  1  0
 20 19  2  0
 20 10  1  0
 21 22  1  0
 23 22  1  1
 23 25  1  0
 23 24  1  0
 24 17  1  0
 25 26  1  0
 27 25  2  0
M  END
$$$$
