LYS.pdb
     RDKit          3D

 27 27  0  0  1  0  0  0  0  0999 V2000
    8.1403  -13.9399   17.5735 C   0  0  0  0  0  0  0  0  0  0  0  0
    7.5961  -13.5618   18.9310 C   0  0  2  0  0  0  0  0  0  0  0  0
    7.1788  -12.0858   18.8321 C   0  0  0  0  0  0  0  0  0  0  0  0
    8.5806  -13.6362   20.0391 C   0  0  0  0  0  0  0  0  0  0  0  0
    8.6591  -14.9298   20.7811 C   0  0  2  0  0  0  0  0  0  0  0  0
    7.4092  -15.5561   21.0705 N   0  0  0  0  0  0  0  0  0  0  0  0
    9.5101  -14.8661   21.9828 C   0  0  0  0  0  0  0  0  0  0  0  0
   10.6865  -14.4651   21.8761 O   0  0  0  0  0  0  0  0  0  0  0  0
   10.5332  -15.3188   30.9145 O   0  0  0  0  0  0  0  0  0  0  0  0
   10.0928  -15.2521   29.5858 C   0  0  0  0  0  0  0  0  0  0  0  0
    9.6748  -16.3612   28.9073 C   0  0  0  0  0  0  0  0  0  0  0  0
    9.2457  -16.2690   27.5990 C   0  0  0  0  0  0  0  0  0  0  0  0
    9.2139  -15.0774   26.9133 C   0  0  0  0  0  0  0  0  0  0  0  0
    8.7575  -14.9900   25.5329 C   0  0  0  0  0  0  0  0  0  0  0  0
    9.7936  -15.2135   24.4649 C   0  0  2  0  0  0  0  0  0  0  0  0
    8.9858  -15.2555   23.2168 N   0  0  0  0  0  0  0  0  0  0  0  0
   10.4708  -16.5183   24.5105 C   0  0  0  0  0  0  0  0  0  0  0  0
    9.8420  -17.6215   24.3234 O   0  0  0  0  0  0  0  0  0  0  0  0
    9.6390  -13.9543   27.6054 C   0  0  0  0  0  0  0  0  0  0  0  0
   10.0724  -14.0394   28.9230 C   0  0  0  0  0  0  0  0  0  0  0  0
   14.5940  -17.0577   24.0334 O   0  0  0  0  0  0  0  0  0  0  0  0
   13.6903  -18.0710   23.8237 C   0  0  0  0  0  0  0  0  0  0  0  0
   12.4903  -18.0016   24.7478 C   0  0  2  0  0  0  0  0  0  0  0  0
   11.8727  -16.7165   24.7562 N   0  0  0  0  0  0  0  0  0  0  0  0
   12.8852  -18.5376   26.0567 C   0  0  0  0  0  0  0  0  0  0  0  0
   13.4088  -19.8336   26.1409 O   0  0  0  0  0  0  0  0  0  0  0  0
   12.7445  -17.8200   27.0748 O   0  0  0  0  0  0  0  0  0  0  0  0
  2  1  1  6
  3  2  1  0
  4  2  1  0
  4  5  1  0
  5  6  1  1
  7  5  1  0
  7  8  2  0
  9 10  1  0
 10 11  2  0
 11 12  1  0
 13 14  1  0
 13 12  2  0
 15 14  1  1
 15 16  1  0
 16  7  1  0
 17 15  1  0
 18 17  2  0
 19 13  1  0
 20 19  2  0
 20 10  1  0
 21 22  1  0
 23 22  1  6
 23 25  1  0
 23 24  1  0
 24 17  1  0
 25 26  1  0
 27 25  2  0
M  END
$$$$
