LYS.pdb
     RDKit          3D

 27 27  0  0  1  0  0  0  0  0999 V2000
    8.6893  -15.1443   16.0865 C   0  0  0  0  0  0  0  0  0  0  0  0
    7.7713  -14.3758   17.0077 C   0  0  2  0  0  0  0  0  0  0  0  0
    7.4989  -13.0290   16.3191 C   0  0  0  0  0  0  0  0  0  0  0  0
    8.3518  -14.0483   18.3337 C   0  0  0  0  0  0  0  0  0  0  0  0
    8.6010  -15.1941   19.2585 C   0  0  2  0  0  0  0  0  0  0  0  0
    7.5881  -16.1998   19.2877 N   0  0  0  0  0  0  0  0  0  0  0  0
    8.9724  -14.7771   20.6225 C   0  0  0  0  0  0  0  0  0  0  0  0
    9.9996  -14.0898   20.7914 O   0  0  0  0  0  0  0  0  0  0  0  0
    7.1839  -12.3321   28.9673 O   0  0  0  0  0  0  0  0  0  0  0  0
    7.1814  -12.8123   27.6509 C   0  0  0  0  0  0  0  0  0  0  0  0
    6.6718  -14.0383   27.3305 C   0  0  0  0  0  0  0  0  0  0  0  0
    6.6812  -14.4883   26.0261 C   0  0  0  0  0  0  0  0  0  0  0  0
    7.1944  -13.7433   24.9903 C   0  0  0  0  0  0  0  0  0  0  0  0
    7.1980  -14.2264   23.6163 C   0  0  0  0  0  0  0  0  0  0  0  0
    8.4984  -14.7801   23.0998 C   0  0  2  0  0  0  0  0  0  0  0  0
    8.1698  -15.1583   21.6995 N   0  0  0  0  0  0  0  0  0  0  0  0
    8.9396  -16.0350   23.7272 C   0  0  0  0  0  0  0  0  0  0  0  0
    8.1108  -16.9429   24.0964 O   0  0  0  0  0  0  0  0  0  0  0  0
    7.7106  -12.4999   25.3196 C   0  0  0  0  0  0  0  0  0  0  0  0
    7.7047  -12.0400   26.6309 C   0  0  0  0  0  0  0  0  0  0  0  0
   12.9023  -17.4845   23.5546 O   0  0  0  0  0  0  0  0  0  0  0  0
   11.8121  -18.3062   23.7088 C   0  0  0  0  0  0  0  0  0  0  0  0
   10.6907  -17.6673   24.5045 C   0  0  2  0  0  0  0  0  0  0  0  0
   10.3057  -16.3935   23.9924 N   0  0  0  0  0  0  0  0  0  0  0  0
   11.0531  -17.7096   25.9270 C   0  0  0  0  0  0  0  0  0  0  0  0
   11.3564  -18.9392   26.5244 O   0  0  0  0  0  0  0  0  0  0  0  0
   11.0832  -16.6391   26.5785 O   0  0  0  0  0  0  0  0  0  0  0  0
  2  1  1  6
  3  2  1  0
  4  2  1  0
  4  5  1  0
  5  6  1  1
  7  5  1  0
  7  8  2  0
  9 10  1  0
 10 11  2  0
 11 12  1  0
 13 14  1  0
 13 12  2  0
 15 14  1  1
 15 16  1  0
 16  7  1  0
 17 15  1  0
 18 17  2  0
 19 13  1  0
 20 19  2  0
 20 10  1  0
 21 22  1  0
 23 22  1  6
 23 25  1  0
 23 24  1  0
 24 17  1  0
 25 26  1  0
 27 25  2  0
M  END
$$$$
