LYS.pdb
     RDKit          3D

 27 27  0  0  1  0  0  0  0  0999 V2000
    7.7309  -14.4864   17.9790 C   0  0  0  0  0  0  0  0  0  0  0  0
    7.1386  -13.8364   19.2074 C   0  0  2  0  0  0  0  0  0  0  0  0
    6.8449  -12.3774   18.8235 C   0  0  0  0  0  0  0  0  0  0  0  0
    8.0470  -13.7772   20.3795 C   0  0  0  0  0  0  0  0  0  0  0  0
    8.4699  -15.0832   20.9673 C   0  0  2  0  0  0  0  0  0  0  0  0
    7.4151  -15.9915   21.2848 N   0  0  0  0  0  0  0  0  0  0  0  0
    9.4055  -14.9425   22.0975 C   0  0  0  0  0  0  0  0  0  0  0  0
   10.4733  -14.3195   21.9309 O   0  0  0  0  0  0  0  0  0  0  0  0
   11.0040  -15.4355   30.9379 O   0  0  0  0  0  0  0  0  0  0  0  0
   10.4918  -15.4059   29.6338 C   0  0  0  0  0  0  0  0  0  0  0  0
   10.1364  -16.5463   28.9717 C   0  0  0  0  0  0  0  0  0  0  0  0
    9.6342  -16.4903   27.6876 C   0  0  0  0  0  0  0  0  0  0  0  0
    9.4647  -15.3052   27.0108 C   0  0  0  0  0  0  0  0  0  0  0  0
    8.9321  -15.2563   25.6560 C   0  0  0  0  0  0  0  0  0  0  0  0
    9.9341  -15.3170   24.5351 C   0  0  2  0  0  0  0  0  0  0  0  0
    9.0809  -15.5082   23.3320 N   0  0  0  0  0  0  0  0  0  0  0  0
   10.8210  -16.4902   24.5489 C   0  0  0  0  0  0  0  0  0  0  0  0
   10.3918  -17.6744   24.3023 O   0  0  0  0  0  0  0  0  0  0  0  0
    9.8266  -14.1502   27.6862 C   0  0  0  0  0  0  0  0  0  0  0  0
   10.3330  -14.1988   28.9793 C   0  0  0  0  0  0  0  0  0  0  0  0
   14.2782  -16.7861   22.8949 O   0  0  0  0  0  0  0  0  0  0  0  0
   14.3915  -17.3834   24.1269 C   0  0  0  0  0  0  0  0  0  0  0  0
   13.0540  -17.6241   24.7992 C   0  0  2  0  0  0  0  0  0  0  0  0
   12.2309  -16.4602   24.8250 N   0  0  0  0  0  0  0  0  0  0  0  0
   13.2994  -18.2713   26.0944 C   0  0  0  0  0  0  0  0  0  0  0  0
   13.9915  -19.4879   26.1365 O   0  0  0  0  0  0  0  0  0  0  0  0
   12.8820  -17.7181   27.1389 O   0  0  0  0  0  0  0  0  0  0  0  0
  2  1  1  6
  3  2  1  0
  4  2  1  0
  4  5  1  0
  5  6  1  1
  7  5  1  0
  7  8  2  0
  9 10  1  0
 10 11  2  0
 11 12  1  0
 13 14  1  0
 13 12  2  0
 15 14  1  1
 15 16  1  0
 16  7  1  0
 17 15  1  0
 18 17  2  0
 19 13  1  0
 20 19  2  0
 20 10  1  0
 21 22  1  0
 23 22  1  1
 23 25  1  0
 23 24  1  0
 24 17  1  0
 25 26  1  0
 27 25  2  0
M  END
$$$$
