MEP.pdb
     RDKit          3D

 25 25  0  0  1  0  0  0  0  0999 V2000
   12.8764  -11.3734  -17.1947 C   0  0  0  0  0  0  0  0  0  0  0  0
   14.3460  -10.4747  -16.6486 S   0  0  0  0  0  0  0  0  0  0  0  0
   15.4201  -11.6231  -15.7489 C   0  0  0  0  0  0  0  0  0  0  0  0
   16.6861  -10.9073  -15.2756 C   0  0  0  0  0  0  0  0  0  0  0  0
   17.7476  -11.1140  -16.2940 C   0  0  2  0  0  0  0  0  0  0  0  0
   18.1659  -12.4834  -16.3449 N   0  0  0  0  0  0  0  0  0  0  0  0
   18.8993  -10.1959  -16.1607 C   0  0  0  0  0  0  0  0  0  0  0  0
   19.7009  -10.3290  -15.2076 O   0  0  0  0  0  0  0  0  0  0  0  0
   19.1649   -9.1375  -17.0735 N   0  0  0  0  0  0  0  0  0  0  0  0
   20.2582   -8.1794  -16.9138 C   0  0  1  0  0  0  0  0  0  0  0  0
   20.8389   -7.8111  -18.2249 C   0  0  0  0  0  0  0  0  0  0  0  0
   21.5503   -8.9179  -18.9128 C   0  0  0  0  0  0  0  0  0  0  0  0
   22.1262   -8.4956  -20.2013 C   0  0  0  0  0  0  0  0  0  0  0  0
   22.7214   -9.2129  -21.0297 O   0  0  0  0  0  0  0  0  0  0  0  0
   19.9618   -7.0582  -16.0362 C   0  0  0  0  0  0  0  0  0  0  0  0
   18.7748   -6.5547  -16.1138 O   0  0  0  0  0  0  0  0  0  0  0  0
   22.0040   -7.1453  -20.5559 O   0  0  0  0  0  0  0  0  0  0  0  0
   20.8032   -6.4220  -15.0871 N   0  0  0  0  0  0  0  0  0  0  0  0
   22.1470   -6.7865  -14.7863 C   0  0  0  0  0  0  0  0  0  0  0  0
   22.6321   -5.7452  -13.7776 C   0  0  0  0  0  0  0  0  0  0  0  0
   21.3213   -5.3101  -13.1025 C   0  0  0  0  0  0  0  0  0  0  0  0
   20.4172   -5.2893  -14.2923 C   0  0  1  0  0  0  0  0  0  0  0  0
   20.5111   -4.0146  -15.0407 C   0  0  0  0  0  0  0  0  0  0  0  0
   20.0677   -2.9727  -14.5248 O   0  0  0  0  0  0  0  0  0  0  0  0
   21.0796   -3.9976  -16.2807 O   0  0  0  0  0  0  0  0  0  0  0  0
  2  3  1  0
  2  1  1  0
  4  3  1  0
  5  7  1  0
  5  4  1  0
  5  6  1  1
  7  8  2  0
  9 10  1  0
  9  7  1  0
 10 11  1  6
 11 12  1  0
 12 13  1  0
 13 14  2  0
 15 18  1  0
 15 10  1  0
 16 15  2  0
 17 13  1  0
 18 19  1  0
 19 20  1  0
 21 20  1  0
 22 21  1  0
 22 18  1  0
 22 23  1  6
 24 23  2  0
 25 23  1  0
M  END
$$$$
