MEP.pdb
     RDKit          3D

 25 25  0  0  1  0  0  0  0  0999 V2000
   28.4446  -10.8842  -17.1175 C   0  0  0  0  0  0  0  0  0  0  0  0
   27.4919  -11.8436  -15.9186 S   0  0  0  0  0  0  0  0  0  0  0  0
   25.9900  -12.4490  -16.7310 C   0  0  0  0  0  0  0  0  0  0  0  0
   25.0995  -13.1806  -15.7256 C   0  0  0  0  0  0  0  0  0  0  0  0
   23.8550  -13.5976  -16.4214 C   0  0  2  0  0  0  0  0  0  0  0  0
   24.1420  -14.3985  -17.5742 N   0  0  0  0  0  0  0  0  0  0  0  0
   22.9415  -12.4809  -16.7461 C   0  0  0  0  0  0  0  0  0  0  0  0
   22.9962  -11.9321  -17.8707 O   0  0  0  0  0  0  0  0  0  0  0  0
   21.9737  -11.9727  -15.8356 N   0  0  0  0  0  0  0  0  0  0  0  0
   21.0579  -10.8763  -16.1485 C   0  0  1  0  0  0  0  0  0  0  0  0
   19.6769  -11.1986  -15.7233 C   0  0  0  0  0  0  0  0  0  0  0  0
   19.0450  -12.3074  -16.4819 C   0  0  0  0  0  0  0  0  0  0  0  0
   17.6922  -12.6204  -15.9900 C   0  0  0  0  0  0  0  0  0  0  0  0
   16.6355  -12.0160  -16.2604 O   0  0  0  0  0  0  0  0  0  0  0  0
   21.5299   -9.5578  -15.7560 C   0  0  0  0  0  0  0  0  0  0  0  0
   22.1387   -9.4707  -14.6201 O   0  0  0  0  0  0  0  0  0  0  0  0
   17.5531  -13.7121  -15.1223 O   0  0  0  0  0  0  0  0  0  0  0  0
   21.4169   -8.3265  -16.4521 N   0  0  0  0  0  0  0  0  0  0  0  0
   20.8640   -8.1510  -17.7530 C   0  0  0  0  0  0  0  0  0  0  0  0
   20.8909   -6.6431  -18.0035 C   0  0  0  0  0  0  0  0  0  0  0  0
   22.0641   -6.1870  -17.1209 C   0  0  0  0  0  0  0  0  0  0  0  0
   21.8373   -7.0571  -15.9272 C   0  0  1  0  0  0  0  0  0  0  0  0
   20.8458   -6.4745  -14.9937 C   0  0  0  0  0  0  0  0  0  0  0  0
   21.1342   -5.4369  -14.3703 O   0  0  0  0  0  0  0  0  0  0  0  0
   19.6340   -7.0790  -14.8291 O   0  0  0  0  0  0  0  0  0  0  0  0
  2  3  1  0
  2  1  1  0
  4  3  1  0
  5  7  1  0
  5  4  1  0
  5  6  1  6
  7  8  2  0
  9 10  1  0
  9  7  1  0
 10 11  1  1
 11 12  1  0
 12 13  1  0
 13 14  2  0
 15 18  1  0
 15 10  1  0
 16 15  2  0
 17 13  1  0
 18 19  1  0
 19 20  1  0
 21 20  1  0
 22 21  1  0
 22 18  1  0
 22 23  1  1
 24 23  2  0
 25 23  1  0
M  END
$$$$
