MEP.pdb
     RDKit          3D

 25 25  0  0  1  0  0  0  0  0999 V2000
   28.8083  -19.3439   -5.9450 C   0  0  0  0  0  0  0  0  0  0  0  0
   27.1108  -18.9766   -5.4457 S   0  0  0  0  0  0  0  0  0  0  0  0
   25.9857  -19.6562   -6.6925 C   0  0  0  0  0  0  0  0  0  0  0  0
   26.6878  -19.7497   -8.0480 C   0  0  0  0  0  0  0  0  0  0  0  0
   25.7903  -20.4667   -8.9899 C   0  0  2  0  0  0  0  0  0  0  0  0
   25.4725  -21.7803   -8.5142 N   0  0  0  0  0  0  0  0  0  0  0  0
   26.2782  -20.4948  -10.3857 C   0  0  0  0  0  0  0  0  0  0  0  0
   27.5080  -20.4665  -10.6213 O   0  0  0  0  0  0  0  0  0  0  0  0
   25.4144  -20.5536  -11.5145 N   0  0  0  0  0  0  0  0  0  0  0  0
   25.8826  -20.5416  -12.8999 C   0  0  1  0  0  0  0  0  0  0  0  0
   25.7537  -21.8811  -13.5170 C   0  0  0  0  0  0  0  0  0  0  0  0
   26.2620  -21.9660  -14.9094 C   0  0  0  0  0  0  0  0  0  0  0  0
   26.1864  -23.3348  -15.4487 C   0  0  0  0  0  0  0  0  0  0  0  0
   25.7980  -24.3579  -14.8508 O   0  0  0  0  0  0  0  0  0  0  0  0
   25.3738  -19.4424  -13.7051 C   0  0  0  0  0  0  0  0  0  0  0  0
   24.1120  -19.1839  -13.6081 O   0  0  0  0  0  0  0  0  0  0  0  0
   26.5897  -23.5329  -16.7762 O   0  0  0  0  0  0  0  0  0  0  0  0
   26.0748  -18.5945  -14.6013 N   0  0  0  0  0  0  0  0  0  0  0  0
   27.4445  -18.7213  -14.9713 C   0  0  0  0  0  0  0  0  0  0  0  0
   27.6828  -17.6330  -16.0181 C   0  0  0  0  0  0  0  0  0  0  0  0
   26.6292  -16.5796  -15.6388 C   0  0  0  0  0  0  0  0  0  0  0  0
   25.4873  -17.4774  -15.2872 C   0  0  1  0  0  0  0  0  0  0  0  0
   24.7149  -17.8896  -16.4819 C   0  0  0  0  0  0  0  0  0  0  0  0
   24.7078  -19.0878  -16.8175 O   0  0  0  0  0  0  0  0  0  0  0  0
   24.0236  -16.9557  -17.1968 O   0  0  0  0  0  0  0  0  0  0  0  0
  2  3  1  0
  2  1  1  0
  4  3  1  0
  5  7  1  0
  5  4  1  0
  5  6  1  1
  7  8  2  0
  9 10  1  0
  9  7  1  0
 10 11  1  6
 11 12  1  0
 12 13  1  0
 13 14  2  0
 15 18  1  0
 15 10  1  0
 16 15  2  0
 17 13  1  0
 18 19  1  0
 19 20  1  0
 21 20  1  0
 22 21  1  0
 22 18  1  0
 22 23  1  6
 24 23  2  0
 25 23  1  0
M  END
$$$$
