MEP.pdb
     RDKit          3D

 25 25  0  0  1  0  0  0  0  0999 V2000
   29.0606  -19.7077   -4.4112 C   0  0  0  0  0  0  0  0  0  0  0  0
   28.7805  -19.9450   -6.1805 S   0  0  0  0  0  0  0  0  0  0  0  0
   27.1038  -20.5901   -6.4151 C   0  0  0  0  0  0  0  0  0  0  0  0
   26.9682  -21.2283   -7.7983 C   0  0  0  0  0  0  0  0  0  0  0  0
   26.1621  -20.3203   -8.6542 C   0  0  2  0  0  0  0  0  0  0  0  0
   24.9550  -19.9149   -7.9974 N   0  0  0  0  0  0  0  0  0  0  0  0
   25.8954  -20.8472  -10.0101 C   0  0  0  0  0  0  0  0  0  0  0  0
   26.8118  -21.4014  -10.6595 O   0  0  0  0  0  0  0  0  0  0  0  0
   24.6253  -20.7630  -10.6455 N   0  0  0  0  0  0  0  0  0  0  0  0
   24.4189  -20.9494  -12.0812 C   0  0  1  0  0  0  0  0  0  0  0  0
   22.9775  -21.0530  -12.4027 C   0  0  0  0  0  0  0  0  0  0  0  0
   22.6830  -21.2328  -13.8468 C   0  0  0  0  0  0  0  0  0  0  0  0
   22.3636  -22.6314  -14.1813 C   0  0  0  0  0  0  0  0  0  0  0  0
   21.3845  -23.2943  -13.7852 O   0  0  0  0  0  0  0  0  0  0  0  0
   25.1737  -20.0392  -12.9281 C   0  0  0  0  0  0  0  0  0  0  0  0
   24.9624  -18.7761  -12.7603 O   0  0  0  0  0  0  0  0  0  0  0  0
   23.2415  -23.3114  -15.0364 O   0  0  0  0  0  0  0  0  0  0  0  0
   26.1282  -20.3414  -13.9337 N   0  0  0  0  0  0  0  0  0  0  0  0
   26.5185  -21.6470  -14.3485 C   0  0  0  0  0  0  0  0  0  0  0  0
   27.4911  -21.4289  -15.5076 C   0  0  0  0  0  0  0  0  0  0  0  0
   28.0718  -20.0415  -15.1890 C   0  0  0  0  0  0  0  0  0  0  0  0
   26.8372  -19.3553  -14.7007 C   0  0  1  0  0  0  0  0  0  0  0  0
   26.0245  -18.8127  -15.8139 C   0  0  0  0  0  0  0  0  0  0  0  0
   24.9128  -19.3163  -16.0566 O   0  0  0  0  0  0  0  0  0  0  0  0
   26.5018  -17.7725  -16.5564 O   0  0  0  0  0  0  0  0  0  0  0  0
  2  3  1  0
  2  1  1  0
  4  3  1  0
  5  7  1  0
  5  4  1  0
  5  6  1  1
  7  8  2  0
  9 10  1  0
  9  7  1  0
 10 11  1  1
 11 12  1  0
 12 13  1  0
 13 14  2  0
 15 18  1  0
 15 10  1  0
 16 15  2  0
 17 13  1  0
 18 19  1  0
 19 20  1  0
 21 20  1  0
 22 21  1  0
 22 18  1  0
 22 23  1  6
 24 23  2  0
 25 23  1  0
M  END
$$$$
