MEP.pdb
     RDKit          3D

 25 25  0  0  1  0  0  0  0  0999 V2000
   28.9743  -20.4173   -6.7953 C   0  0  0  0  0  0  0  0  0  0  0  0
   27.5045  -19.6425   -6.0848 S   0  0  0  0  0  0  0  0  0  0  0  0
   26.1684  -19.7181   -7.3060 C   0  0  0  0  0  0  0  0  0  0  0  0
   26.7108  -20.1779   -8.6601 C   0  0  0  0  0  0  0  0  0  0  0  0
   25.6052  -20.1181   -9.6504 C   0  0  2  0  0  0  0  0  0  0  0  0
   24.4574  -20.8476   -9.1995 N   0  0  0  0  0  0  0  0  0  0  0  0
   25.9993  -20.5127  -11.0201 C   0  0  0  0  0  0  0  0  0  0  0  0
   27.0915  -20.1249  -11.4951 O   0  0  0  0  0  0  0  0  0  0  0  0
   25.1934  -21.3300  -11.8605 N   0  0  0  0  0  0  0  0  0  0  0  0
   25.5084  -21.6206  -13.2587 C   0  0  1  0  0  0  0  0  0  0  0  0
   24.6521  -22.7090  -13.7822 C   0  0  0  0  0  0  0  0  0  0  0  0
   24.9383  -23.0919  -15.1878 C   0  0  0  0  0  0  0  0  0  0  0  0
   25.9756  -24.1336  -15.2824 C   0  0  0  0  0  0  0  0  0  0  0  0
   26.8777  -24.2204  -16.1390 O   0  0  0  0  0  0  0  0  0  0  0  0
   25.6078  -20.4503  -14.1165 C   0  0  0  0  0  0  0  0  0  0  0  0
   24.5851  -19.6620  -14.1481 O   0  0  0  0  0  0  0  0  0  0  0  0
   25.9676  -25.1478  -14.3152 O   0  0  0  0  0  0  0  0  0  0  0  0
   26.6861  -20.0386  -14.9418 N   0  0  0  0  0  0  0  0  0  0  0  0
   27.9376  -20.7059  -15.0744 C   0  0  0  0  0  0  0  0  0  0  0  0
   28.7032  -19.9210  -16.1397 C   0  0  0  0  0  0  0  0  0  0  0  0
   28.0947  -18.5153  -16.0090 C   0  0  0  0  0  0  0  0  0  0  0  0
   26.6618  -18.8781  -15.7882 C   0  0  1  0  0  0  0  0  0  0  0  0
   25.9464  -19.1218  -17.0620 C   0  0  0  0  0  0  0  0  0  0  0  0
   25.7328  -18.1674  -17.8314 O   0  0  0  0  0  0  0  0  0  0  0  0
   25.5321  -20.3832  -17.3754 O   0  0  0  0  0  0  0  0  0  0  0  0
  2  3  1  0
  2  1  1  0
  4  3  1  0
  5  7  1  0
  5  4  1  0
  5  6  1  1
  7  8  2  0
  9 10  1  0
  9  7  1  0
 10 11  1  6
 11 12  1  0
 12 13  1  0
 13 14  2  0
 15 18  1  0
 15 10  1  0
 16 15  2  0
 17 13  1  0
 18 19  1  0
 19 20  1  0
 21 20  1  0
 22 21  1  0
 22 18  1  0
 22 23  1  6
 24 23  2  0
 25 23  1  0
M  END
$$$$
