MEP.pdb
     RDKit          3D

 25 25  0  0  1  0  0  0  0  0999 V2000
   17.7414  -18.0685  -12.2358 C   0  0  0  0  0  0  0  0  0  0  0  0
   18.1255  -17.2644  -13.8078 S   0  0  0  0  0  0  0  0  0  0  0  0
   18.8762  -18.4896  -14.9112 C   0  0  0  0  0  0  0  0  0  0  0  0
   19.6232  -19.5492  -14.0998 C   0  0  0  0  0  0  0  0  0  0  0  0
   20.1957  -20.5425  -15.0443 C   0  0  2  0  0  0  0  0  0  0  0  0
   19.2585  -21.5848  -15.3410 N   0  0  0  0  0  0  0  0  0  0  0  0
   21.5051  -21.0884  -14.6263 C   0  0  0  0  0  0  0  0  0  0  0  0
   21.5706  -21.9074  -13.6810 O   0  0  0  0  0  0  0  0  0  0  0  0
   22.7345  -20.7327  -15.2475 N   0  0  0  0  0  0  0  0  0  0  0  0
   24.0486  -21.1073  -14.7263 C   0  0  1  0  0  0  0  0  0  0  0  0
   25.0548  -21.1639  -15.8108 C   0  0  0  0  0  0  0  0  0  0  0  0
   26.4252  -21.5125  -15.3579 C   0  0  0  0  0  0  0  0  0  0  0  0
   27.3929  -21.5285  -16.4684 C   0  0  0  0  0  0  0  0  0  0  0  0
   27.1606  -21.2960  -17.6713 O   0  0  0  0  0  0  0  0  0  0  0  0
   24.4642  -20.3759  -13.5399 C   0  0  0  0  0  0  0  0  0  0  0  0
   24.3056  -19.0942  -13.5596 O   0  0  0  0  0  0  0  0  0  0  0  0
   28.7259  -21.8358  -16.1637 O   0  0  0  0  0  0  0  0  0  0  0  0
   25.0310  -20.8741  -12.3382 N   0  0  0  0  0  0  0  0  0  0  0  0
   25.2555  -22.2460  -12.0274 C   0  0  0  0  0  0  0  0  0  0  0  0
   25.9622  -22.2428  -10.6718 C   0  0  0  0  0  0  0  0  0  0  0  0
   25.4602  -20.9315  -10.0456 C   0  0  0  0  0  0  0  0  0  0  0  0
   25.4816  -20.0494  -11.2518 C   0  0  1  0  0  0  0  0  0  0  0  0
   26.8244  -19.4743  -11.4972 C   0  0  0  0  0  0  0  0  0  0  0  0
   27.4781  -19.8564  -12.4846 O   0  0  0  0  0  0  0  0  0  0  0  0
   27.3263  -18.5372  -10.6422 O   0  0  0  0  0  0  0  0  0  0  0  0
  2  3  1  0
  2  1  1  0
  4  3  1  0
  5  7  1  0
  5  4  1  0
  5  6  1  1
  7  8  2  0
  9 10  1  0
  9  7  1  0
 10 11  1  6
 11 12  1  0
 12 13  1  0
 13 14  2  0
 15 18  1  0
 15 10  1  0
 16 15  2  0
 17 13  1  0
 18 19  1  0
 19 20  1  0
 21 20  1  0
 22 21  1  0
 22 18  1  0
 22 23  1  6
 24 23  2  0
 25 23  1  0
M  END
$$$$
