MEP.pdb
     RDKit          3D

 25 25  0  0  1  0  0  0  0  0999 V2000
   28.0319  -17.6974   -6.9629 C   0  0  0  0  0  0  0  0  0  0  0  0
   27.3001  -19.0263   -5.9810 S   0  0  0  0  0  0  0  0  0  0  0  0
   26.7694  -20.3449   -7.1042 C   0  0  0  0  0  0  0  0  0  0  0  0
   26.3015  -19.7538   -8.4349 C   0  0  0  0  0  0  0  0  0  0  0  0
   25.9683  -20.8741   -9.3518 C   0  0  2  0  0  0  0  0  0  0  0  0
   27.0746  -21.7712   -9.5074 N   0  0  0  0  0  0  0  0  0  0  0  0
   25.4262  -20.4440  -10.6588 C   0  0  0  0  0  0  0  0  0  0  0  0
   24.7376  -19.4009  -10.7400 O   0  0  0  0  0  0  0  0  0  0  0  0
   25.6426  -21.1604  -11.8687 N   0  0  0  0  0  0  0  0  0  0  0  0
   25.0945  -20.7570  -13.1632 C   0  0  1  0  0  0  0  0  0  0  0  0
   25.9070  -21.2969  -14.2767 C   0  0  0  0  0  0  0  0  0  0  0  0
   27.2701  -20.7173  -14.3780 C   0  0  0  0  0  0  0  0  0  0  0  0
   28.0647  -21.3432  -15.4489 C   0  0  0  0  0  0  0  0  0  0  0  0
   28.5396  -22.4963  -15.4565 O   0  0  0  0  0  0  0  0  0  0  0  0
   23.6591  -20.9456  -13.3020 C   0  0  0  0  0  0  0  0  0  0  0  0
   23.1612  -22.0251  -12.7969 O   0  0  0  0  0  0  0  0  0  0  0  0
   28.3283  -20.5787  -16.5935 O   0  0  0  0  0  0  0  0  0  0  0  0
   22.7047  -20.1001  -13.9249 N   0  0  0  0  0  0  0  0  0  0  0  0
   22.9918  -18.9014  -14.6388 C   0  0  0  0  0  0  0  0  0  0  0  0
   21.6460  -18.4238  -15.1844 C   0  0  0  0  0  0  0  0  0  0  0  0
   20.6546  -19.0133  -14.1680 C   0  0  0  0  0  0  0  0  0  0  0  0
   21.2896  -20.3464  -13.9374 C   0  0  1  0  0  0  0  0  0  0  0  0
   20.8966  -21.3359  -14.9672 C   0  0  0  0  0  0  0  0  0  0  0  0
   21.7343  -21.6982  -15.8130 O   0  0  0  0  0  0  0  0  0  0  0  0
   19.6274  -21.8360  -14.9763 O   0  0  0  0  0  0  0  0  0  0  0  0
  2  3  1  0
  2  1  1  0
  4  3  1  0
  5  7  1  0
  5  4  1  0
  5  6  1  6
  7  8  2  0
  9 10  1  0
  9  7  1  0
 10 11  1  6
 11 12  1  0
 12 13  1  0
 13 14  2  0
 15 18  1  0
 15 10  1  0
 16 15  2  0
 17 13  1  0
 18 19  1  0
 19 20  1  0
 21 20  1  0
 22 21  1  0
 22 18  1  0
 22 23  1  6
 24 23  2  0
 25 23  1  0
M  END
$$$$
