MEP.pdb
     RDKit          3D

 25 25  0  0  1  0  0  0  0  0999 V2000
   28.7902  -18.3646  -17.7715 C   0  0  0  0  0  0  0  0  0  0  0  0
   28.3697  -16.8767  -18.7067 S   0  0  0  0  0  0  0  0  0  0  0  0
   27.5087  -15.7279  -17.6016 C   0  0  0  0  0  0  0  0  0  0  0  0
   27.1454  -16.4240  -16.2892 C   0  0  0  0  0  0  0  0  0  0  0  0
   25.7308  -16.1045  -15.9675 C   0  0  2  0  0  0  0  0  0  0  0  0
   25.5802  -14.7373  -15.5660 N   0  0  0  0  0  0  0  0  0  0  0  0
   25.1084  -17.0302  -14.9965 C   0  0  0  0  0  0  0  0  0  0  0  0
   25.4207  -16.9720  -13.7850 O   0  0  0  0  0  0  0  0  0  0  0  0
   24.1475  -18.0142  -15.3602 N   0  0  0  0  0  0  0  0  0  0  0  0
   23.5966  -18.9981  -14.4289 C   0  0  1  0  0  0  0  0  0  0  0  0
   22.2220  -19.3871  -14.8172 C   0  0  0  0  0  0  0  0  0  0  0  0
   21.6114  -20.4268  -13.9508 C   0  0  0  0  0  0  0  0  0  0  0  0
   20.2952  -20.8643  -14.4469 C   0  0  0  0  0  0  0  0  0  0  0  0
   19.2717  -20.1646  -14.5805 O   0  0  0  0  0  0  0  0  0  0  0  0
   24.4850  -20.1072  -14.1191 C   0  0  0  0  0  0  0  0  0  0  0  0
   25.0974  -20.6591  -15.1135 O   0  0  0  0  0  0  0  0  0  0  0  0
   20.1542  -22.2093  -14.8149 O   0  0  0  0  0  0  0  0  0  0  0  0
   24.7838  -20.6849  -12.8580 N   0  0  0  0  0  0  0  0  0  0  0  0
   24.1687  -20.3470  -11.6184 C   0  0  0  0  0  0  0  0  0  0  0  0
   24.7705  -21.3082  -10.5933 C   0  0  0  0  0  0  0  0  0  0  0  0
   26.1417  -21.6269  -11.2112 C   0  0  0  0  0  0  0  0  0  0  0  0
   25.7553  -21.7228  -12.6516 C   0  0  1  0  0  0  0  0  0  0  0  0
   25.2328  -23.0643  -12.9999 C   0  0  0  0  0  0  0  0  0  0  0  0
   24.0317  -23.1898  -13.2995 O   0  0  0  0  0  0  0  0  0  0  0  0
   26.0703  -24.1411  -12.9882 O   0  0  0  0  0  0  0  0  0  0  0  0
  2  3  1  0
  2  1  1  0
  4  3  1  0
  5  7  1  0
  5  4  1  0
  5  6  1  1
  7  8  2  0
  9 10  1  0
  9  7  1  0
 10 11  1  6
 11 12  1  0
 12 13  1  0
 13 14  2  0
 15 18  1  0
 15 10  1  0
 16 15  2  0
 17 13  1  0
 18 19  1  0
 19 20  1  0
 21 20  1  0
 22 21  1  0
 22 18  1  0
 22 23  1  1
 24 23  2  0
 25 23  1  0
M  END
$$$$
