MEP.pdb
     RDKit          3D

 25 25  0  0  1  0  0  0  0  0999 V2000
    9.6435  -10.1886   -8.3189 C   0  0  0  0  0  0  0  0  0  0  0  0
   11.2290   -9.4349   -7.8904 S   0  0  0  0  0  0  0  0  0  0  0  0
   12.4599   -9.9508   -9.1155 C   0  0  0  0  0  0  0  0  0  0  0  0
   13.7927   -9.2454   -8.8600 C   0  0  0  0  0  0  0  0  0  0  0  0
   14.7836   -9.7488   -9.8456 C   0  0  2  0  0  0  0  0  0  0  0  0
   15.1047  -11.1251   -9.6101 N   0  0  0  0  0  0  0  0  0  0  0  0
   16.0005   -8.9158   -9.9577 C   0  0  0  0  0  0  0  0  0  0  0  0
   16.8390   -8.9015   -9.0275 O   0  0  0  0  0  0  0  0  0  0  0  0
   16.2902   -8.1037  -11.0892 N   0  0  0  0  0  0  0  0  0  0  0  0
   17.4953   -7.2850  -11.2171 C   0  0  1  0  0  0  0  0  0  0  0  0
   18.4646   -7.9065  -12.1476 C   0  0  0  0  0  0  0  0  0  0  0  0
   19.6918   -7.1039  -12.3804 C   0  0  0  0  0  0  0  0  0  0  0  0
   20.6057   -7.7471  -13.3402 C   0  0  0  0  0  0  0  0  0  0  0  0
   20.5790   -8.9331  -13.7245 O   0  0  0  0  0  0  0  0  0  0  0  0
   17.2487   -5.8694  -11.4417 C   0  0  0  0  0  0  0  0  0  0  0  0
   16.5897   -5.5540  -12.5069 O   0  0  0  0  0  0  0  0  0  0  0  0
   21.6238   -6.9599  -13.8951 O   0  0  0  0  0  0  0  0  0  0  0  0
   17.6344   -4.7598  -10.6457 N   0  0  0  0  0  0  0  0  0  0  0  0
   18.3642   -4.8226   -9.4240 C   0  0  0  0  0  0  0  0  0  0  0  0
   18.6002   -3.3676   -9.0189 C   0  0  0  0  0  0  0  0  0  0  0  0
   17.4109   -2.6491   -9.6770 C   0  0  0  0  0  0  0  0  0  0  0  0
   17.3522   -3.3900  -10.9736 C   0  0  1  0  0  0  0  0  0  0  0  0
   18.2985   -2.8408  -11.9721 C   0  0  0  0  0  0  0  0  0  0  0  0
   19.2815   -3.5215  -12.3166 O   0  0  0  0  0  0  0  0  0  0  0  0
   18.0825   -1.6013  -12.4995 O   0  0  0  0  0  0  0  0  0  0  0  0
  2  3  1  0
  2  1  1  0
  4  3  1  0
  5  7  1  0
  5  4  1  0
  5  6  1  1
  7  8  2  0
  9 10  1  0
  9  7  1  0
 10 11  1  6
 11 12  1  0
 12 13  1  0
 13 14  2  0
 15 18  1  0
 15 10  1  0
 16 15  2  0
 17 13  1  0
 18 19  1  0
 19 20  1  0
 21 20  1  0
 22 21  1  0
 22 18  1  0
 22 23  1  6
 24 23  2  0
 25 23  1  0
M  END
$$$$
