MEP.pdb
     RDKit          3D

 25 25  0  0  1  0  0  0  0  0999 V2000
   19.6945  -16.8188  -14.7939 C   0  0  0  0  0  0  0  0  0  0  0  0
   20.3866  -15.1498  -14.7672 S   0  0  0  0  0  0  0  0  0  0  0  0
   19.4213  -14.1097  -15.8934 C   0  0  0  0  0  0  0  0  0  0  0  0
   20.0161  -12.7022  -15.9590 C   0  0  0  0  0  0  0  0  0  0  0  0
   19.2331  -11.9099  -16.9418 C   0  0  2  0  0  0  0  0  0  0  0  0
   19.3047  -12.4827  -18.2532 N   0  0  0  0  0  0  0  0  0  0  0  0
   19.5644  -10.4687  -16.9567 C   0  0  0  0  0  0  0  0  0  0  0  0
   20.5066  -10.0487  -17.6671 O   0  0  0  0  0  0  0  0  0  0  0  0
   18.8606   -9.4970  -16.1924 N   0  0  0  0  0  0  0  0  0  0  0  0
   19.1307   -8.0610  -16.2534 C   0  0  1  0  0  0  0  0  0  0  0  0
   17.8788   -7.2787  -16.1416 C   0  0  0  0  0  0  0  0  0  0  0  0
   18.0622   -5.8095  -16.2517 C   0  0  0  0  0  0  0  0  0  0  0  0
   16.7953   -5.0752  -16.0911 C   0  0  0  0  0  0  0  0  0  0  0  0
   16.6486   -3.8401  -16.0003 O   0  0  0  0  0  0  0  0  0  0  0  0
   20.2165   -7.6088  -15.3978 C   0  0  0  0  0  0  0  0  0  0  0  0
   20.2029   -8.0183  -14.1729 O   0  0  0  0  0  0  0  0  0  0  0  0
   15.6130   -5.8253  -16.0313 O   0  0  0  0  0  0  0  0  0  0  0  0
   21.3117   -6.7651  -15.7177 N   0  0  0  0  0  0  0  0  0  0  0  0
   21.5497   -6.1490  -16.9798 C   0  0  0  0  0  0  0  0  0  0  0  0
   22.7912   -5.2802  -16.7776 C   0  0  0  0  0  0  0  0  0  0  0  0
   23.5180   -6.0108  -15.6367 C   0  0  0  0  0  0  0  0  0  0  0  0
   22.3457   -6.3934  -14.7924 C   0  0  1  0  0  0  0  0  0  0  0  0
   21.9286   -5.2963  -13.8888 C   0  0  0  0  0  0  0  0  0  0  0  0
   20.8846   -4.6670  -14.1384 O   0  0  0  0  0  0  0  0  0  0  0  0
   22.6901   -4.9902  -12.7991 O   0  0  0  0  0  0  0  0  0  0  0  0
  2  3  1  0
  2  1  1  0
  4  3  1  0
  5  7  1  0
  5  4  1  0
  5  6  1  6
  7  8  2  0
  9 10  1  0
  9  7  1  0
 10 11  1  1
 11 12  1  0
 12 13  1  0
 13 14  2  0
 15 18  1  0
 15 10  1  0
 16 15  2  0
 17 13  1  0
 18 19  1  0
 19 20  1  0
 21 20  1  0
 22 21  1  0
 22 18  1  0
 22 23  1  6
 24 23  2  0
 25 23  1  0
M  END
$$$$
