NKL.pdb
     RDKit          3D

 26 25  0  0  1  0  0  0  0  0999 V2000
   29.1379  -18.7942  -17.5562 N   0  0  0  0  0  0  0  0  0  0  0  0
   27.7620  -18.7063  -17.8835 C   0  0  0  0  0  0  0  0  0  0  0  0
   27.3645  -17.9514  -18.7976 O   0  0  0  0  0  0  0  0  0  0  0  0
   26.7983  -19.5160  -17.1339 C   0  0  0  0  0  0  0  0  0  0  0  0
   27.5142  -20.3573  -16.1286 C   0  0  2  0  0  0  0  0  0  0  0  0
   28.0766  -21.5461  -16.6747 N   0  0  0  0  0  0  0  0  0  0  0  0
   26.4758  -20.7749  -15.1033 C   0  0  0  0  0  0  0  0  0  0  0  0
   25.4923  -21.4061  -15.5252 O   0  0  0  0  0  0  0  0  0  0  0  0
   26.6319  -20.4562  -13.7444 N   0  0  0  0  0  0  0  0  0  0  0  0
   25.6568  -20.6909  -12.7233 C   0  0  1  0  0  0  0  0  0  0  0  0
   26.1641  -20.4723  -11.3132 C   0  0  0  0  0  0  0  0  0  0  0  0
   25.1893  -20.9163  -10.2523 C   0  0  0  0  0  0  0  0  0  0  0  0
   25.7627  -20.7157   -8.8612 C   0  0  0  0  0  0  0  0  0  0  0  0
   24.8125  -21.1989   -7.7832 C   0  0  0  0  0  0  0  0  0  0  0  0
   25.4509  -20.9519   -6.4981 N   0  0  0  0  0  0  0  0  0  0  0  0
   24.3793  -20.0525  -13.0226 C   0  0  0  0  0  0  0  0  0  0  0  0
   24.3870  -18.8633  -13.5089 O   0  0  0  0  0  0  0  0  0  0  0  0
   20.8260  -21.6346  -16.7473 C   0  0  0  0  0  0  0  0  0  0  0  0
   21.5233  -20.3851  -16.2780 C   0  0  1  0  0  0  0  0  0  0  0  0
   20.4770  -19.4106  -15.7374 C   0  0  0  0  0  0  0  0  0  0  0  0
   22.4751  -20.6709  -15.1890 C   0  0  0  0  0  0  0  0  0  0  0  0
   22.0470  -20.4282  -13.7873 C   0  0  2  0  0  0  0  0  0  0  0  0
   23.1138  -20.6205  -12.8280 N   0  0  0  0  0  0  0  0  0  0  0  0
   20.8574  -21.1500  -13.3169 C   0  0  0  0  0  0  0  0  0  0  0  0
   19.7122  -20.6348  -13.4021 O   0  0  0  0  0  0  0  0  0  0  0  0
   20.9141  -22.4201  -12.7609 O   0  0  0  0  0  0  0  0  0  0  0  0
  2  3  2  0
  2  1  1  0
  4  2  1  0
  5  4  1  0
  5  6  1  6
  7  5  1  0
  7  8  2  0
  9  7  1  0
 10  9  1  0
 11 12  1  0
 10 11  1  1
 12 13  1  0
 13 14  1  0
 14 15  1  0
 16 10  1  0
 17 16  2  0
 19 18  1  1
 19 21  1  0
 20 19  1  0
 22 21  1  6
 22 23  1  0
 22 24  1  0
 23 16  1  0
 24 26  1  0
 25 24  2  0
M  END
$$$$
