NKL.pdb
     RDKit          3D

 26 25  0  0  1  0  0  0  0  0999 V2000
   21.2624  -16.0796  -17.0723 N   0  0  0  0  0  0  0  0  0  0  0  0
   20.1562  -15.3343  -16.5939 C   0  0  0  0  0  0  0  0  0  0  0  0
   19.1549  -15.9064  -16.1105 O   0  0  0  0  0  0  0  0  0  0  0  0
   20.1955  -13.8719  -16.6712 C   0  0  0  0  0  0  0  0  0  0  0  0
   18.9527  -13.3637  -17.3256 C   0  0  2  0  0  0  0  0  0  0  0  0
   18.8784  -13.6572  -18.7171 N   0  0  0  0  0  0  0  0  0  0  0  0
   18.9801  -11.8530  -17.1804 C   0  0  0  0  0  0  0  0  0  0  0  0
   19.9525  -11.2589  -17.6753 O   0  0  0  0  0  0  0  0  0  0  0  0
   17.9477  -11.1714  -16.5154 N   0  0  0  0  0  0  0  0  0  0  0  0
   17.8715   -9.7526  -16.3428 C   0  0  1  0  0  0  0  0  0  0  0  0
   16.4833   -9.2355  -16.0280 C   0  0  0  0  0  0  0  0  0  0  0  0
   16.3959   -7.7305  -16.0125 C   0  0  0  0  0  0  0  0  0  0  0  0
   15.0246   -7.2648  -15.5577 C   0  0  0  0  0  0  0  0  0  0  0  0
   14.8871   -5.7568  -15.6306 C   0  0  0  0  0  0  0  0  0  0  0  0
   13.4647   -5.4475  -15.5965 N   0  0  0  0  0  0  0  0  0  0  0  0
   18.9282   -9.2444  -15.4743 C   0  0  0  0  0  0  0  0  0  0  0  0
   19.0073   -9.6979  -14.2748 O   0  0  0  0  0  0  0  0  0  0  0  0
   23.8588  -10.3124  -15.5727 C   0  0  0  0  0  0  0  0  0  0  0  0
   22.4984   -9.9010  -15.0751 C   0  0  1  0  0  0  0  0  0  0  0  0
   22.4129  -10.1924  -13.5769 C   0  0  0  0  0  0  0  0  0  0  0  0
   22.2641   -8.4579  -15.2655 C   0  0  0  0  0  0  0  0  0  0  0  0
   20.9358   -7.8987  -14.9053 C   0  0  2  0  0  0  0  0  0  0  0  0
   19.8890   -8.2879  -15.8261 N   0  0  0  0  0  0  0  0  0  0  0  0
   20.8567   -6.4476  -14.6913 C   0  0  0  0  0  0  0  0  0  0  0  0
   21.6098   -5.8739  -13.8619 O   0  0  0  0  0  0  0  0  0  0  0  0
   19.9680   -5.6298  -15.3746 O   0  0  0  0  0  0  0  0  0  0  0  0
  2  3  2  0
  2  1  1  0
  4  2  1  0
  5  4  1  0
  5  6  1  6
  7  5  1  0
  7  8  2  0
  9  7  1  0
 10  9  1  0
 11 12  1  0
 10 11  1  1
 12 13  1  0
 13 14  1  0
 14 15  1  0
 16 10  1  0
 17 16  2  0
 19 18  1  1
 19 21  1  0
 20 19  1  0
 22 21  1  6
 22 23  1  0
 22 24  1  0
 23 16  1  0
 24 26  1  0
 25 24  2  0
M  END
$$$$
