NKL.pdb
     RDKit          3D

 26 25  0  0  1  0  0  0  0  0999 V2000
   13.7225  -23.1869    3.0640 N   0  0  0  0  0  0  0  0  0  0  0  0
   13.7148  -21.8531    3.5425 C   0  0  0  0  0  0  0  0  0  0  0  0
   12.6397  -21.2445    3.7354 O   0  0  0  0  0  0  0  0  0  0  0  0
   14.9907  -21.1856    3.8122 C   0  0  0  0  0  0  0  0  0  0  0  0
   15.0888  -19.9318    3.0066 C   0  0  2  0  0  0  0  0  0  0  0  0
   15.2032  -20.1599    1.6056 N   0  0  0  0  0  0  0  0  0  0  0  0
   16.3575  -19.2314    3.4582 C   0  0  0  0  0  0  0  0  0  0  0  0
   17.4204  -19.6000    2.9311 O   0  0  0  0  0  0  0  0  0  0  0  0
   16.3173  -18.2159    4.4276 N   0  0  0  0  0  0  0  0  0  0  0  0
   17.4581  -17.5293    4.9528 C   0  0  1  0  0  0  0  0  0  0  0  0
   17.1981  -16.0868    5.3338 C   0  0  0  0  0  0  0  0  0  0  0  0
   18.4410  -15.3488    5.7619 C   0  0  0  0  0  0  0  0  0  0  0  0
   18.1429  -13.8867    6.0406 C   0  0  0  0  0  0  0  0  0  0  0  0
   19.3850  -13.1274    6.4636 C   0  0  0  0  0  0  0  0  0  0  0  0
   18.9909  -11.7459    6.7002 N   0  0  0  0  0  0  0  0  0  0  0  0
   18.1584  -18.3151    5.9634 C   0  0  0  0  0  0  0  0  0  0  0  0
   17.4794  -18.8081    6.9363 O   0  0  0  0  0  0  0  0  0  0  0  0
   20.4849  -22.7664    5.1503 C   0  0  0  0  0  0  0  0  0  0  0  0
   19.7517  -21.6999    5.9201 C   0  0  1  0  0  0  0  0  0  0  0  0
   19.0196  -22.3536    7.0921 C   0  0  0  0  0  0  0  0  0  0  0  0
   20.6785  -20.6959    6.4740 C   0  0  0  0  0  0  0  0  0  0  0  0
   20.1184  -19.4270    7.0062 C   0  0  2  0  0  0  0  0  0  0  0  0
   19.5313  -18.5926    5.9795 N   0  0  0  0  0  0  0  0  0  0  0  0
   21.0063  -18.5988    7.8328 C   0  0  0  0  0  0  0  0  0  0  0  0
   21.5881  -19.0801    8.8399 O   0  0  0  0  0  0  0  0  0  0  0  0
   21.2591  -17.2610    7.5647 O   0  0  0  0  0  0  0  0  0  0  0  0
  2  3  2  0
  2  1  1  0
  4  2  1  0
  5  4  1  0
  5  6  1  6
  7  5  1  0
  7  8  2  0
  9  7  1  0
 10  9  1  0
 11 12  1  0
 10 11  1  1
 12 13  1  0
 13 14  1  0
 14 15  1  0
 16 10  1  0
 17 16  2  0
 19 18  1  1
 19 21  1  0
 20 19  1  0
 22 21  1  6
 22 23  1  0
 22 24  1  0
 23 16  1  0
 24 26  1  0
 25 24  2  0
M  END
$$$$
