NKL.pdb
     RDKit          3D

 26 25  0  0  1  0  0  0  0  0999 V2000
   23.0126  -21.8045   -7.6653 N   0  0  0  0  0  0  0  0  0  0  0  0
   22.0208  -21.2536   -8.5143 C   0  0  0  0  0  0  0  0  0  0  0  0
   20.8161  -21.2494   -8.1791 O   0  0  0  0  0  0  0  0  0  0  0  0
   22.4226  -20.6827   -9.8023 C   0  0  0  0  0  0  0  0  0  0  0  0
   23.8793  -20.9198  -10.0312 C   0  0  2  0  0  0  0  0  0  0  0  0
   24.7220  -20.2267   -9.1162 N   0  0  0  0  0  0  0  0  0  0  0  0
   24.1854  -20.3914  -11.4209 C   0  0  0  0  0  0  0  0  0  0  0  0
   23.9702  -19.1845  -11.6227 O   0  0  0  0  0  0  0  0  0  0  0  0
   24.6881  -21.2382  -12.4224 N   0  0  0  0  0  0  0  0  0  0  0  0
   25.0611  -20.8271  -13.7416 C   0  0  1  0  0  0  0  0  0  0  0  0
   26.0731  -21.7306  -14.4146 C   0  0  0  0  0  0  0  0  0  0  0  0
   26.5192  -21.2271  -15.7638 C   0  0  0  0  0  0  0  0  0  0  0  0
   27.4688  -22.2069  -16.4290 C   0  0  0  0  0  0  0  0  0  0  0  0
   28.0606  -21.6420  -17.7054 C   0  0  0  0  0  0  0  0  0  0  0  0
   28.9870  -22.6345  -18.2317 N   0  0  0  0  0  0  0  0  0  0  0  0
   23.9035  -20.4836  -14.5608 C   0  0  0  0  0  0  0  0  0  0  0  0
   22.7613  -20.9819  -14.2483 O   0  0  0  0  0  0  0  0  0  0  0  0
   19.9719  -16.8939  -14.7061 C   0  0  0  0  0  0  0  0  0  0  0  0
   20.6637  -17.6611  -15.8017 C   0  0  1  0  0  0  0  0  0  0  0  0
   21.0093  -16.6964  -16.9361 C   0  0  0  0  0  0  0  0  0  0  0  0
   21.9220  -18.2670  -15.3292 C   0  0  0  0  0  0  0  0  0  0  0  0
   22.6831  -19.1425  -16.2572 C   0  0  2  0  0  0  0  0  0  0  0  0
   23.9130  -19.6439  -15.6820 N   0  0  0  0  0  0  0  0  0  0  0  0
   22.9742  -18.6075  -17.5938 C   0  0  0  0  0  0  0  0  0  0  0  0
   22.0729  -18.5260  -18.4686 O   0  0  0  0  0  0  0  0  0  0  0  0
   24.2332  -18.1644  -17.9732 O   0  0  0  0  0  0  0  0  0  0  0  0
  2  3  2  0
  2  1  1  0
  4  2  1  0
  5  4  1  0
  5  6  1  1
  7  5  1  0
  7  8  2  0
  9  7  1  0
 10  9  1  0
 11 12  1  0
 10 11  1  6
 12 13  1  0
 13 14  1  0
 14 15  1  0
 16 10  1  0
 17 16  2  0
 19 18  1  1
 19 21  1  0
 20 19  1  0
 22 21  1  1
 22 23  1  0
 22 24  1  0
 23 16  1  0
 24 26  1  0
 25 24  2  0
M  END
$$$$
