NKL.pdb
     RDKit          3D

 26 25  0  0  1  0  0  0  0  0999 V2000
   27.9238  -11.4382  -15.7464 N   0  0  0  0  0  0  0  0  0  0  0  0
   26.6379  -12.0010  -15.9405 C   0  0  0  0  0  0  0  0  0  0  0  0
   26.4810  -13.2395  -16.0112 O   0  0  0  0  0  0  0  0  0  0  0  0
   25.4809  -11.1102  -16.0588 C   0  0  0  0  0  0  0  0  0  0  0  0
   24.5410  -11.6326  -17.0955 C   0  0  2  0  0  0  0  0  0  0  0  0
   25.0558  -11.5622  -18.4213 N   0  0  0  0  0  0  0  0  0  0  0  0
   23.3081  -10.7490  -17.0390 C   0  0  0  0  0  0  0  0  0  0  0  0
   23.4234   -9.5950  -17.4844 O   0  0  0  0  0  0  0  0  0  0  0  0
   22.0997  -11.2264  -16.5056 N   0  0  0  0  0  0  0  0  0  0  0  0
   20.8589  -10.5129  -16.5019 C   0  0  1  0  0  0  0  0  0  0  0  0
   19.6361  -11.3876  -16.3200 C   0  0  0  0  0  0  0  0  0  0  0  0
   19.4897  -12.4396  -17.3900 C   0  0  0  0  0  0  0  0  0  0  0  0
   18.2487  -13.2839  -17.1637 C   0  0  0  0  0  0  0  0  0  0  0  0
   18.0838  -14.3443  -18.2345 C   0  0  0  0  0  0  0  0  0  0  0  0
   16.9939  -15.2160  -17.8193 N   0  0  0  0  0  0  0  0  0  0  0  0
   20.9033   -9.3328  -15.6450 C   0  0  0  0  0  0  0  0  0  0  0  0
   21.6157   -9.3769  -14.5767 O   0  0  0  0  0  0  0  0  0  0  0  0
   21.8565   -4.0851  -15.0664 C   0  0  0  0  0  0  0  0  0  0  0  0
   22.3904   -5.3420  -14.4320 C   0  0  1  0  0  0  0  0  0  0  0  0
   21.8477   -5.4432  -13.0064 C   0  0  0  0  0  0  0  0  0  0  0  0
   21.9564   -6.5462  -15.1636 C   0  0  0  0  0  0  0  0  0  0  0  0
   20.5252   -6.9396  -15.1018 C   0  0  2  0  0  0  0  0  0  0  0  0
   20.2301   -8.1264  -15.8761 N   0  0  0  0  0  0  0  0  0  0  0  0
   19.5330   -5.9071  -15.4293 C   0  0  0  0  0  0  0  0  0  0  0  0
   19.0412   -5.8258  -16.5850 O   0  0  0  0  0  0  0  0  0  0  0  0
   19.0802   -4.9740  -14.5075 O   0  0  0  0  0  0  0  0  0  0  0  0
  2  3  2  0
  2  1  1  0
  4  2  1  0
  5  4  1  0
  5  6  1  6
  7  5  1  0
  7  8  2  0
  9  7  1  0
 10  9  1  0
 11 12  1  0
 10 11  1  1
 12 13  1  0
 13 14  1  0
 14 15  1  0
 16 10  1  0
 17 16  2  0
 19 18  1  6
 19 21  1  0
 20 19  1  0
 22 21  1  6
 22 23  1  0
 22 24  1  0
 23 16  1  0
 24 26  1  0
 25 24  2  0
M  END
$$$$
