NKL.pdb
     RDKit          3D

 26 25  0  0  1  0  0  0  0  0999 V2000
   22.6260  -18.0162  -16.4372 N   0  0  0  0  0  0  0  0  0  0  0  0
   23.0831  -17.4052  -17.6312 C   0  0  0  0  0  0  0  0  0  0  0  0
   23.6716  -18.0711  -18.5108 O   0  0  0  0  0  0  0  0  0  0  0  0
   22.8580  -15.9712  -17.8290 C   0  0  0  0  0  0  0  0  0  0  0  0
   22.0868  -15.4141  -16.6776 C   0  0  2  0  0  0  0  0  0  0  0  0
   20.7520  -15.9031  -16.5935 N   0  0  0  0  0  0  0  0  0  0  0  0
   22.0084  -13.9147  -16.9008 C   0  0  0  0  0  0  0  0  0  0  0  0
   23.0211  -13.3620  -17.3618 O   0  0  0  0  0  0  0  0  0  0  0  0
   20.8395  -13.1981  -16.5962 N   0  0  0  0  0  0  0  0  0  0  0  0
   20.6281  -11.8086  -16.8666 C   0  0  1  0  0  0  0  0  0  0  0  0
   19.1773  -11.4263  -17.0733 C   0  0  0  0  0  0  0  0  0  0  0  0
   18.5051  -12.2065  -18.1743 C   0  0  0  0  0  0  0  0  0  0  0  0
   17.3445  -13.0246  -17.6378 C   0  0  0  0  0  0  0  0  0  0  0  0
   16.6754  -13.8386  -18.7279 C   0  0  0  0  0  0  0  0  0  0  0  0
   15.6119  -14.6119  -18.1026 N   0  0  0  0  0  0  0  0  0  0  0  0
   21.3650  -10.9488  -15.9464 C   0  0  0  0  0  0  0  0  0  0  0  0
   21.1649  -11.0865  -14.6848 O   0  0  0  0  0  0  0  0  0  0  0  0
   26.6821   -9.9841  -16.3896 C   0  0  0  0  0  0  0  0  0  0  0  0
   25.2635  -10.3157  -16.0087 C   0  0  1  0  0  0  0  0  0  0  0  0
   25.2825  -11.2090  -14.7683 C   0  0  0  0  0  0  0  0  0  0  0  0
   24.4928   -9.1034  -15.6767 C   0  0  0  0  0  0  0  0  0  0  0  0
   23.0598   -9.2482  -15.3129 C   0  0  2  0  0  0  0  0  0  0  0  0
   22.2919   -9.9635  -16.3098 N   0  0  0  0  0  0  0  0  0  0  0  0
   22.3343   -8.0231  -14.9520 C   0  0  0  0  0  0  0  0  0  0  0  0
   21.6179   -7.4232  -15.7953 O   0  0  0  0  0  0  0  0  0  0  0  0
   22.3872   -7.4580  -13.6858 O   0  0  0  0  0  0  0  0  0  0  0  0
  2  3  2  0
  2  1  1  0
  4  2  1  0
  5  4  1  0
  5  6  1  6
  7  5  1  0
  7  8  2  0
  9  7  1  0
 10  9  1  0
 11 12  1  0
 10 11  1  1
 12 13  1  0
 13 14  1  0
 14 15  1  0
 16 10  1  0
 17 16  2  0
 19 18  1  1
 19 21  1  0
 20 19  1  0
 22 21  1  6
 22 23  1  0
 22 24  1  0
 23 16  1  0
 24 26  1  0
 25 24  2  0
M  END
$$$$
