NKL.pdb
     RDKit          3D

 26 25  0  0  1  0  0  0  0  0999 V2000
   25.6551  -21.8891  -21.0326 N   0  0  0  0  0  0  0  0  0  0  0  0
   26.4502  -21.9088  -19.8599 C   0  0  0  0  0  0  0  0  0  0  0  0
   27.6857  -21.7252  -19.9164 O   0  0  0  0  0  0  0  0  0  0  0  0
   25.8058  -22.1486  -18.5663 C   0  0  0  0  0  0  0  0  0  0  0  0
   26.2191  -21.0969  -17.5896 C   0  0  2  0  0  0  0  0  0  0  0  0
   27.5623  -21.2334  -17.1368 N   0  0  0  0  0  0  0  0  0  0  0  0
   25.3138  -21.2556  -16.3816 C   0  0  0  0  0  0  0  0  0  0  0  0
   24.1575  -21.6567  -16.5953 O   0  0  0  0  0  0  0  0  0  0  0  0
   25.7746  -20.9592  -15.0883 N   0  0  0  0  0  0  0  0  0  0  0  0
   24.9854  -21.0197  -13.8959 C   0  0  1  0  0  0  0  0  0  0  0  0
   25.7676  -20.8017  -12.6175 C   0  0  0  0  0  0  0  0  0  0  0  0
   24.9141  -20.8682  -11.3765 C   0  0  0  0  0  0  0  0  0  0  0  0
   25.7612  -20.7622  -10.1213 C   0  0  0  0  0  0  0  0  0  0  0  0
   24.9254  -20.8905   -8.8630 C   0  0  0  0  0  0  0  0  0  0  0  0
   25.8417  -20.9042   -7.7316 N   0  0  0  0  0  0  0  0  0  0  0  0
   23.7579  -20.2385  -14.0060 C   0  0  0  0  0  0  0  0  0  0  0  0
   23.8342  -19.0357  -14.4511 O   0  0  0  0  0  0  0  0  0  0  0  0
   20.3816  -17.6344  -16.2629 C   0  0  0  0  0  0  0  0  0  0  0  0
   20.1844  -19.1271  -16.2851 C   0  0  1  0  0  0  0  0  0  0  0  0
   20.1100  -19.5926  -17.7393 C   0  0  0  0  0  0  0  0  0  0  0  0
   21.3094  -19.8331  -15.6452 C   0  0  0  0  0  0  0  0  0  0  0  0
   21.2906  -20.0133  -14.1707 C   0  0  2  0  0  0  0  0  0  0  0  0
   22.4725  -20.6796  -13.6665 N   0  0  0  0  0  0  0  0  0  0  0  0
   20.1051  -20.6583  -13.5908 C   0  0  0  0  0  0  0  0  0  0  0  0
   20.1358  -21.8636  -13.2298 O   0  0  0  0  0  0  0  0  0  0  0  0
   18.8994  -19.9971  -13.4047 O   0  0  0  0  0  0  0  0  0  0  0  0
  2  3  2  0
  2  1  1  0
  4  2  1  0
  5  4  1  0
  5  6  1  1
  7  5  1  0
  7  8  2  0
  9  7  1  0
 10  9  1  0
 11 12  1  0
 10 11  1  1
 12 13  1  0
 13 14  1  0
 14 15  1  0
 16 10  1  0
 17 16  2  0
 19 18  1  6
 19 21  1  0
 20 19  1  0
 22 21  1  6
 22 23  1  0
 22 24  1  0
 23 16  1  0
 24 26  1  0
 25 24  2  0
M  END
$$$$
