NKL.pdb
     RDKit          3D

 26 25  0  0  1  0  0  0  0  0999 V2000
   15.8808  -15.4533  -15.0048 N   0  0  0  0  0  0  0  0  0  0  0  0
   16.7056  -15.3702  -16.1540 C   0  0  0  0  0  0  0  0  0  0  0  0
   16.8420  -16.3484  -16.9208 O   0  0  0  0  0  0  0  0  0  0  0  0
   17.4049  -14.1150  -16.4397 C   0  0  0  0  0  0  0  0  0  0  0  0
   16.4183  -13.0559  -16.8083 C   0  0  2  0  0  0  0  0  0  0  0  0
   15.8497  -13.2297  -18.1022 N   0  0  0  0  0  0  0  0  0  0  0  0
   17.1830  -11.7447  -16.8202 C   0  0  0  0  0  0  0  0  0  0  0  0
   18.3540  -11.7813  -17.2337 O   0  0  0  0  0  0  0  0  0  0  0  0
   16.5827  -10.5531  -16.3814 N   0  0  0  0  0  0  0  0  0  0  0  0
   17.2055   -9.2645  -16.3838 C   0  0  1  0  0  0  0  0  0  0  0  0
   16.2487   -8.1080  -16.1822 C   0  0  0  0  0  0  0  0  0  0  0  0
   15.0794   -8.1275  -17.1336 C   0  0  0  0  0  0  0  0  0  0  0  0
   13.7725   -7.8796  -16.4024 C   0  0  0  0  0  0  0  0  0  0  0  0
   12.5879   -7.8742  -17.3485 C   0  0  0  0  0  0  0  0  0  0  0  0
   11.3935   -7.6418  -16.5489 N   0  0  0  0  0  0  0  0  0  0  0  0
   18.3999   -9.2270  -15.5464 C   0  0  0  0  0  0  0  0  0  0  0  0
   18.3495   -9.7667  -14.3816 O   0  0  0  0  0  0  0  0  0  0  0  0
   22.8694  -10.5652  -13.4245 C   0  0  0  0  0  0  0  0  0  0  0  0
   23.0554   -9.8026  -14.7095 C   0  0  1  0  0  0  0  0  0  0  0  0
   24.0613  -10.5501  -15.5848 C   0  0  0  0  0  0  0  0  0  0  0  0
   21.7942   -9.6969  -15.4657 C   0  0  0  0  0  0  0  0  0  0  0  0
   20.7710   -8.7206  -15.0109 C   0  0  2  0  0  0  0  0  0  0  0  0
   19.6266   -8.6469  -15.8940 N   0  0  0  0  0  0  0  0  0  0  0  0
   21.2304   -7.3554  -14.7234 C   0  0  0  0  0  0  0  0  0  0  0  0
   22.0161   -7.1250  -13.7674 O   0  0  0  0  0  0  0  0  0  0  0  0
   20.8395   -6.2530  -15.4700 O   0  0  0  0  0  0  0  0  0  0  0  0
  2  3  2  0
  2  1  1  0
  4  2  1  0
  5  4  1  0
  5  6  1  6
  7  5  1  0
  7  8  2  0
  9  7  1  0
 10  9  1  0
 11 12  1  0
 10 11  1  1
 12 13  1  0
 13 14  1  0
 14 15  1  0
 16 10  1  0
 17 16  2  0
 19 18  1  1
 19 21  1  0
 20 19  1  0
 22 21  1  6
 22 23  1  0
 22 24  1  0
 23 16  1  0
 24 26  1  0
 25 24  2  0
M  END
$$$$
