NKL.pdb
     RDKit          3D

 26 25  0  0  1  0  0  0  0  0999 V2000
   17.6057  -16.9611  -15.0363 N   0  0  0  0  0  0  0  0  0  0  0  0
   18.2838  -17.8226  -15.9341 C   0  0  0  0  0  0  0  0  0  0  0  0
   17.6621  -18.4454  -16.8224 O   0  0  0  0  0  0  0  0  0  0  0  0
   19.7352  -17.9795  -15.8116 C   0  0  0  0  0  0  0  0  0  0  0  0
   20.0908  -19.4301  -15.8017 C   0  0  2  0  0  0  0  0  0  0  0  0
   19.7892  -20.0842  -14.5733 N   0  0  0  0  0  0  0  0  0  0  0  0
   21.5941  -19.5032  -15.9986 C   0  0  0  0  0  0  0  0  0  0  0  0
   22.3028  -19.0506  -15.0841 O   0  0  0  0  0  0  0  0  0  0  0  0
   22.1448  -20.0592  -17.1650 N   0  0  0  0  0  0  0  0  0  0  0  0
   23.5401  -20.1022  -17.4807 C   0  0  1  0  0  0  0  0  0  0  0  0
   23.9293  -21.2067  -18.4410 C   0  0  0  0  0  0  0  0  0  0  0  0
   25.4083  -21.2532  -18.7300 C   0  0  0  0  0  0  0  0  0  0  0  0
   26.1479  -22.0613  -17.6793 C   0  0  0  0  0  0  0  0  0  0  0  0
   27.6465  -22.0492  -17.9086 C   0  0  0  0  0  0  0  0  0  0  0  0
   28.2385  -22.9870  -16.9650 N   0  0  0  0  0  0  0  0  0  0  0  0
   24.0722  -18.7845  -17.8117 C   0  0  0  0  0  0  0  0  0  0  0  0
   23.3777  -18.0157  -18.5716 O   0  0  0  0  0  0  0  0  0  0  0  0
   25.9611  -14.6366  -14.6423 C   0  0  0  0  0  0  0  0  0  0  0  0
   25.2682  -15.3870  -15.7489 C   0  0  1  0  0  0  0  0  0  0  0  0
   24.5628  -14.3818  -16.6592 C   0  0  0  0  0  0  0  0  0  0  0  0
   26.2267  -16.1442  -16.5745 C   0  0  0  0  0  0  0  0  0  0  0  0
   25.7116  -16.9213  -17.7310 C   0  0  2  0  0  0  0  0  0  0  0  0
   25.2948  -18.2604  -17.3729 N   0  0  0  0  0  0  0  0  0  0  0  0
   26.5704  -16.9995  -18.9201 C   0  0  0  0  0  0  0  0  0  0  0  0
   26.7695  -15.9880  -19.6421 O   0  0  0  0  0  0  0  0  0  0  0  0
   27.2071  -18.1666  -19.3177 O   0  0  0  0  0  0  0  0  0  0  0  0
  2  3  2  0
  2  1  1  0
  4  2  1  0
  5  4  1  0
  5  6  1  1
  7  5  1  0
  7  8  2  0
  9  7  1  0
 10  9  1  0
 11 12  1  0
 10 11  1  6
 12 13  1  0
 13 14  1  0
 14 15  1  0
 16 10  1  0
 17 16  2  0
 19 18  1  1
 19 21  1  0
 20 19  1  0
 22 21  1  1
 22 23  1  0
 22 24  1  0
 23 16  1  0
 24 26  1  0
 25 24  2  0
M  END
$$$$
