NKL.pdb
     RDKit          3D

 26 25  0  0  1  0  0  0  0  0999 V2000
   18.3924  -18.4544  -14.9184 N   0  0  0  0  0  0  0  0  0  0  0  0
   19.6738  -17.9921  -15.3084 C   0  0  0  0  0  0  0  0  0  0  0  0
   19.8040  -16.9444  -15.9784 O   0  0  0  0  0  0  0  0  0  0  0  0
   20.8580  -18.7600  -14.9159 C   0  0  0  0  0  0  0  0  0  0  0  0
   21.7996  -18.8680  -16.0703 C   0  0  2  0  0  0  0  0  0  0  0  0
   21.2904  -19.6403  -17.1529 N   0  0  0  0  0  0  0  0  0  0  0  0
   23.0363  -19.5767  -15.5485 C   0  0  0  0  0  0  0  0  0  0  0  0
   22.9368  -20.7968  -15.3361 O   0  0  0  0  0  0  0  0  0  0  0  0
   24.2309  -18.8740  -15.3209 N   0  0  0  0  0  0  0  0  0  0  0  0
   25.3642  -19.3798  -14.6079 C   0  0  1  0  0  0  0  0  0  0  0  0
   26.6138  -18.5346  -14.7408 C   0  0  0  0  0  0  0  0  0  0  0  0
   27.8642  -19.2411  -14.2822 C   0  0  0  0  0  0  0  0  0  0  0  0
   28.1572  -20.4546  -15.1456 C   0  0  0  0  0  0  0  0  0  0  0  0
   29.4453  -21.1415  -14.7364 C   0  0  0  0  0  0  0  0  0  0  0  0
   29.5907  -22.3260  -15.5706 N   0  0  0  0  0  0  0  0  0  0  0  0
   25.0284  -19.7696  -13.2425 C   0  0  0  0  0  0  0  0  0  0  0  0
   24.4063  -18.9262  -12.4992 O   0  0  0  0  0  0  0  0  0  0  0  0
   26.6000  -21.4267   -8.2804 C   0  0  0  0  0  0  0  0  0  0  0  0
   25.7874  -20.3363   -8.9271 C   0  0  1  0  0  0  0  0  0  0  0  0
   26.2509  -18.9862   -8.3800 C   0  0  0  0  0  0  0  0  0  0  0  0
   25.9732  -20.3153  -10.3896 C   0  0  0  0  0  0  0  0  0  0  0  0
   25.1378  -21.2147  -11.2263 C   0  0  2  0  0  0  0  0  0  0  0  0
   25.3236  -21.0020  -12.6459 N   0  0  0  0  0  0  0  0  0  0  0  0
   23.6972  -21.2464  -10.9413 C   0  0  0  0  0  0  0  0  0  0  0  0
   23.2682  -21.6095   -9.8151 O   0  0  0  0  0  0  0  0  0  0  0  0
   22.7340  -20.8849  -11.8725 O   0  0  0  0  0  0  0  0  0  0  0  0
  2  3  2  0
  2  1  1  0
  4  2  1  0
  5  4  1  0
  5  6  1  6
  7  5  1  0
  7  8  2  0
  9  7  1  0
 10  9  1  0
 11 12  1  0
 10 11  1  1
 12 13  1  0
 13 14  1  0
 14 15  1  0
 16 10  1  0
 17 16  2  0
 19 18  1  1
 19 21  1  0
 20 19  1  0
 22 21  1  1
 22 23  1  0
 22 24  1  0
 23 16  1  0
 24 26  1  0
 25 24  2  0
M  END
$$$$
