NKL.pdb
     RDKit          3D

 26 25  0  0  1  0  0  0  0  0999 V2000
   12.1780  -13.1312  -13.8718 N   0  0  0  0  0  0  0  0  0  0  0  0
   12.0358  -12.5154  -12.6035 C   0  0  0  0  0  0  0  0  0  0  0  0
   10.9256  -12.4715  -12.0299 O   0  0  0  0  0  0  0  0  0  0  0  0
   13.2129  -11.9240  -11.9628 C   0  0  0  0  0  0  0  0  0  0  0  0
   14.4156  -12.1233  -12.8257 C   0  0  2  0  0  0  0  0  0  0  0  0
   14.9221  -13.4540  -12.8019 N   0  0  0  0  0  0  0  0  0  0  0  0
   15.4969  -11.2153  -12.2687 C   0  0  0  0  0  0  0  0  0  0  0  0
   15.9166  -11.4757  -11.1288 O   0  0  0  0  0  0  0  0  0  0  0  0
   15.9908  -10.1347  -13.0177 N   0  0  0  0  0  0  0  0  0  0  0  0
   16.9805   -9.2027  -12.5701 C   0  0  1  0  0  0  0  0  0  0  0  0
   18.0505   -8.8877  -13.5945 C   0  0  0  0  0  0  0  0  0  0  0  0
   19.0833   -7.9084  -13.0975 C   0  0  0  0  0  0  0  0  0  0  0  0
   20.0882   -7.5715  -14.1841 C   0  0  0  0  0  0  0  0  0  0  0  0
   21.1862   -6.6584  -13.6750 C   0  0  0  0  0  0  0  0  0  0  0  0
   22.1665   -6.5196  -14.7427 N   0  0  0  0  0  0  0  0  0  0  0  0
   16.3882   -8.0372  -11.9220 C   0  0  0  0  0  0  0  0  0  0  0  0
   15.5246   -7.3452  -12.5748 O   0  0  0  0  0  0  0  0  0  0  0  0
   14.1635   -7.6089   -6.8854 C   0  0  0  0  0  0  0  0  0  0  0  0
   14.4386   -7.5185   -8.3631 C   0  0  1  0  0  0  0  0  0  0  0  0
   13.2142   -6.9211   -9.0565 C   0  0  0  0  0  0  0  0  0  0  0  0
   15.5885   -6.6412   -8.6488 C   0  0  0  0  0  0  0  0  0  0  0  0
   15.9953   -6.4385  -10.0631 C   0  0  2  0  0  0  0  0  0  0  0  0
   16.6739   -7.5859  -10.6271 N   0  0  0  0  0  0  0  0  0  0  0  0
   16.7785   -5.2338  -10.3677 C   0  0  0  0  0  0  0  0  0  0  0  0
   17.9950   -5.3148  -10.6804 O   0  0  0  0  0  0  0  0  0  0  0  0
   16.2422   -3.9545  -10.3336 O   0  0  0  0  0  0  0  0  0  0  0  0
  2  3  2  0
  2  1  1  0
  4  2  1  0
  5  4  1  0
  5  6  1  1
  7  5  1  0
  7  8  2  0
  9  7  1  0
 10  9  1  0
 11 12  1  0
 10 11  1  6
 12 13  1  0
 13 14  1  0
 14 15  1  0
 16 10  1  0
 17 16  2  0
 19 18  1  1
 19 21  1  0
 20 19  1  0
 22 21  1  1
 22 23  1  0
 22 24  1  0
 23 16  1  0
 24 26  1  0
 25 24  2  0
M  END
$$$$
