NKL.pdb
     RDKit          3D

 26 25  0  0  1  0  0  0  0  0999 V2000
   18.8073  -31.3652   -8.0929 N   0  0  0  0  0  0  0  0  0  0  0  0
   18.8693  -31.5265   -6.6864 C   0  0  0  0  0  0  0  0  0  0  0  0
   18.0473  -30.9566   -5.9361 O   0  0  0  0  0  0  0  0  0  0  0  0
   19.9158  -32.3757   -6.1122 C   0  0  0  0  0  0  0  0  0  0  0  0
   20.7268  -32.9920   -7.2046 C   0  0  2  0  0  0  0  0  0  0  0  0
   20.0931  -34.1035   -7.8295 N   0  0  0  0  0  0  0  0  0  0  0  0
   22.0013  -33.5009   -6.5559 C   0  0  0  0  0  0  0  0  0  0  0  0
   21.8985  -34.4985   -5.8226 O   0  0  0  0  0  0  0  0  0  0  0  0
   23.2326  -32.8643   -6.7828 N   0  0  0  0  0  0  0  0  0  0  0  0
   24.4686  -33.2053   -6.1469 C   0  0  1  0  0  0  0  0  0  0  0  0
   25.6812  -32.5036   -6.7220 C   0  0  0  0  0  0  0  0  0  0  0  0
   26.9841  -32.9869   -6.1373 C   0  0  0  0  0  0  0  0  0  0  0  0
   27.3731  -34.3394   -6.7064 C   0  0  0  0  0  0  0  0  0  0  0  0
   28.6634  -34.8569   -6.1016 C   0  0  0  0  0  0  0  0  0  0  0  0
   29.0245  -36.0706   -6.8202 N   0  0  0  0  0  0  0  0  0  0  0  0
   24.3696  -33.1677   -4.6916 C   0  0  0  0  0  0  0  0  0  0  0  0
   23.7732  -32.1707   -4.1430 O   0  0  0  0  0  0  0  0  0  0  0  0
   21.5552  -33.9510   -0.2048 C   0  0  0  0  0  0  0  0  0  0  0  0
   23.0202  -34.1560   -0.4864 C   0  0  1  0  0  0  0  0  0  0  0  0
   23.4355  -35.5299    0.0397 C   0  0  0  0  0  0  0  0  0  0  0  0
   23.3047  -34.1248   -1.9327 C   0  0  0  0  0  0  0  0  0  0  0  0
   24.7165  -33.9997   -2.3780 C   0  0  2  0  0  0  0  0  0  0  0  0
   24.8723  -34.1338   -3.8107 N   0  0  0  0  0  0  0  0  0  0  0  0
   25.7053  -34.8607   -1.7159 C   0  0  0  0  0  0  0  0  0  0  0  0
   26.1371  -35.9008   -2.2780 O   0  0  0  0  0  0  0  0  0  0  0  0
   26.2197  -34.5910   -0.4557 O   0  0  0  0  0  0  0  0  0  0  0  0
  2  3  2  0
  2  1  1  0
  4  2  1  0
  5  4  1  0
  5  6  1  1
  7  5  1  0
  7  8  2  0
  9  7  1  0
 10  9  1  0
 11 12  1  0
 10 11  1  6
 12 13  1  0
 13 14  1  0
 14 15  1  0
 16 10  1  0
 17 16  2  0
 19 18  1  6
 19 21  1  0
 20 19  1  0
 22 21  1  6
 22 23  1  0
 22 24  1  0
 23 16  1  0
 24 26  1  0
 25 24  2  0
M  END
$$$$
