AWT.pdb
     RDKit          3D

 27 28  0  0  1  0  0  0  0  0999 V2000
   27.9750  -20.3605  -15.6313 C   0  0  0  0  0  0  0  0  0  0  0  0
   28.7004  -20.9780  -14.4781 C   0  0  2  0  0  0  0  0  0  0  0  0
   29.2325  -22.2542  -14.9022 N   0  0  0  0  0  0  0  0  0  0  0  0
   27.8223  -21.1934  -13.2885 C   0  0  0  0  0  0  0  0  0  0  0  0
   26.9893  -22.1625  -13.3253 O   0  0  0  0  0  0  0  0  0  0  0  0
   27.9151  -20.3491  -12.1618 N   0  0  0  0  0  0  0  0  0  0  0  0
   27.1099  -20.5805  -11.0148 C   0  0  1  0  0  0  0  0  0  0  0  0
   27.4667  -19.7045   -9.8431 C   0  0  0  0  0  0  0  0  0  0  0  0
   26.8192  -20.1142   -8.5930 C   0  0  0  0  0  0  0  0  0  0  0  0
   25.5829  -20.6829   -8.4504 C   0  0  0  0  0  0  0  0  0  0  0  0
   25.3411  -20.9143   -7.1511 N   0  0  0  0  0  0  0  0  0  0  0  0
   26.4125  -20.5013   -6.4303 C   0  0  0  0  0  0  0  0  0  0  0  0
   26.6656  -20.5171   -5.0605 C   0  0  0  0  0  0  0  0  0  0  0  0
   27.8498  -20.0324   -4.5625 C   0  0  0  0  0  0  0  0  0  0  0  0
   28.7764  -19.5324   -5.4475 C   0  0  0  0  0  0  0  0  0  0  0  0
   28.5287  -19.5160   -6.7980 C   0  0  0  0  0  0  0  0  0  0  0  0
   27.3322  -20.0033   -7.3289 C   0  0  0  0  0  0  0  0  0  0  0  0
   25.6669  -20.2784  -11.3347 C   0  0  0  0  0  0  0  0  0  0  0  0
   25.2849  -19.1068  -11.6034 O   0  0  0  0  0  0  0  0  0  0  0  0
   21.6270  -22.3149  -13.3746 C   0  0  0  0  0  0  0  0  0  0  0  0
   23.0140  -22.3502  -12.8319 C   0  0  1  0  0  0  0  0  0  0  0  0
   23.9455  -22.4762  -13.8467 O   0  0  0  0  0  0  0  0  0  0  0  0
   23.3988  -21.1480  -12.0055 C   0  0  2  0  0  0  0  0  0  0  0  0
   24.6808  -21.2958  -11.3472 N   0  0  0  0  0  0  0  0  0  0  0  0
   22.3605  -20.7425  -11.0523 C   0  0  0  0  0  0  0  0  0  0  0  0
   21.2523  -19.9956  -11.3538 O   0  0  0  0  0  0  0  0  0  0  0  0
   22.4846  -21.1068   -9.8382 O   0  0  0  0  0  0  0  0  0  0  0  0
  2  1  1  6
  2  3  1  0
  4  5  2  0
  4  2  1  0
  6  4  1  0
  7  6  1  0
  8  9  1  0
  7  8  1  1
  9 17  1  0
 10  9  2  0
 10 11  1  0
 11 12  1  0
 12 13  1  0
 13 14  2  0
 15 14  1  0
 16 15  2  0
 17 12  2  0
 17 16  1  0
 18  7  1  0
 18 19  2  0
 21 20  1  6
 22 21  1  0
 23 24  1  1
 23 21  1  0
 24 18  1  0
 25 23  1  0
 26 25  1  0
 27 25  2  0
M  END
$$$$
