AWT.pdb
     RDKit          3D

 27 28  0  0  1  0  0  0  0  0999 V2000
   10.3395  -13.9333    6.0851 C   0  0  0  0  0  0  0  0  0  0  0  0
   10.5527  -14.2793    4.6456 C   0  0  2  0  0  0  0  0  0  0  0  0
    9.3912  -14.9985    4.1707 N   0  0  0  0  0  0  0  0  0  0  0  0
   11.7656  -15.1237    4.4253 C   0  0  0  0  0  0  0  0  0  0  0  0
   11.5936  -16.3402    4.0721 O   0  0  0  0  0  0  0  0  0  0  0  0
   13.0587  -14.5880    4.6032 N   0  0  0  0  0  0  0  0  0  0  0  0
   14.2114  -15.3661    4.3142 C   0  0  1  0  0  0  0  0  0  0  0  0
   15.2920  -14.5977    3.6005 C   0  0  0  0  0  0  0  0  0  0  0  0
   16.3468  -15.4543    3.0496 C   0  0  0  0  0  0  0  0  0  0  0  0
   16.2809  -16.8012    2.8181 C   0  0  0  0  0  0  0  0  0  0  0  0
   17.4465  -17.2280    2.3088 N   0  0  0  0  0  0  0  0  0  0  0  0
   18.2863  -16.1691    2.2011 C   0  0  0  0  0  0  0  0  0  0  0  0
   19.5965  -16.0731    1.7378 C   0  0  0  0  0  0  0  0  0  0  0  0
   20.2479  -14.8644    1.7278 C   0  0  0  0  0  0  0  0  0  0  0  0
   19.5761  -13.7548    2.1855 C   0  0  0  0  0  0  0  0  0  0  0  0
   18.2846  -13.8476    2.6425 C   0  0  0  0  0  0  0  0  0  0  0  0
   17.6008  -15.0653    2.6625 C   0  0  0  0  0  0  0  0  0  0  0  0
   14.8308  -15.8576    5.5989 C   0  0  0  0  0  0  0  0  0  0  0  0
   15.1636  -15.0579    6.5158 O   0  0  0  0  0  0  0  0  0  0  0  0
   13.8829  -19.4292    7.6893 C   0  0  0  0  0  0  0  0  0  0  0  0
   15.3064  -19.1884    7.3214 C   0  0  1  0  0  0  0  0  0  0  0  0
   15.6653  -19.9202    6.2039 O   0  0  0  0  0  0  0  0  0  0  0  0
   15.6529  -17.7448    7.0526 C   0  0  2  0  0  0  0  0  0  0  0  0
   15.0648  -17.2357    5.8304 N   0  0  0  0  0  0  0  0  0  0  0  0
   17.0940  -17.4760    7.0959 C   0  0  0  0  0  0  0  0  0  0  0  0
   17.9323  -17.4574    6.0124 O   0  0  0  0  0  0  0  0  0  0  0  0
   17.6268  -17.2382    8.2280 O   0  0  0  0  0  0  0  0  0  0  0  0
  2  1  1  1
  2  3  1  0
  4  5  2  0
  4  2  1  0
  6  4  1  0
  7  6  1  0
  8  9  1  0
  7  8  1  1
  9 17  1  0
 10  9  2  0
 10 11  1  0
 11 12  1  0
 12 13  1  0
 13 14  2  0
 15 14  1  0
 16 15  2  0
 17 12  2  0
 17 16  1  0
 18  7  1  0
 18 19  2  0
 21 20  1  6
 22 21  1  0
 23 24  1  6
 23 21  1  0
 24 18  1  0
 25 23  1  0
 26 25  1  0
 27 25  2  0
M  END
$$$$
