AWT.pdb
     RDKit          3D

 27 28  0  0  1  0  0  0  0  0999 V2000
   27.1104  -21.4270  -17.2815 C   0  0  0  0  0  0  0  0  0  0  0  0
   27.9297  -21.6418  -16.0486 C   0  0  2  0  0  0  0  0  0  0  0  0
   28.7020  -22.8530  -16.2173 N   0  0  0  0  0  0  0  0  0  0  0  0
   27.0979  -21.7687  -14.8140 C   0  0  0  0  0  0  0  0  0  0  0  0
   26.5115  -22.8839  -14.5977 O   0  0  0  0  0  0  0  0  0  0  0  0
   26.9680  -20.6865  -13.9180 N   0  0  0  0  0  0  0  0  0  0  0  0
   26.1727  -20.8066  -12.7473 C   0  0  1  0  0  0  0  0  0  0  0  0
   26.5882  -19.8747  -11.6399 C   0  0  0  0  0  0  0  0  0  0  0  0
   27.6367  -20.4283  -10.7774 C   0  0  0  0  0  0  0  0  0  0  0  0
   28.7651  -21.0942  -11.1716 C   0  0  0  0  0  0  0  0  0  0  0  0
   29.4801  -21.4466  -10.0923 N   0  0  0  0  0  0  0  0  0  0  0  0
   28.8305  -21.0170   -8.9826 C   0  0  0  0  0  0  0  0  0  0  0  0
   29.1433  -21.1250   -7.6295 C   0  0  0  0  0  0  0  0  0  0  0  0
   28.3092  -20.5980   -6.6746 C   0  0  0  0  0  0  0  0  0  0  0  0
   27.1608  -19.9631   -7.0868 C   0  0  0  0  0  0  0  0  0  0  0  0
   26.8508  -19.8556   -8.4201 C   0  0  0  0  0  0  0  0  0  0  0  0
   27.6830  -20.3832   -9.4101 C   0  0  0  0  0  0  0  0  0  0  0  0
   24.7395  -20.4596  -13.0659 C   0  0  0  0  0  0  0  0  0  0  0  0
   24.4328  -19.3568  -13.5957 O   0  0  0  0  0  0  0  0  0  0  0  0
   21.9165  -23.6056  -13.7695 C   0  0  0  0  0  0  0  0  0  0  0  0
   21.9101  -22.2067  -14.2819 C   0  0  1  0  0  0  0  0  0  0  0  0
   20.6595  -21.8528  -14.7553 O   0  0  0  0  0  0  0  0  0  0  0  0
   22.3291  -21.1642  -13.2750 C   0  0  2  0  0  0  0  0  0  0  0  0
   23.6787  -21.3557  -12.7845 N   0  0  0  0  0  0  0  0  0  0  0  0
   21.3815  -21.0147  -12.1657 C   0  0  0  0  0  0  0  0  0  0  0  0
   20.0372  -20.7834  -12.2939 O   0  0  0  0  0  0  0  0  0  0  0  0
   21.8296  -21.1045  -10.9768 O   0  0  0  0  0  0  0  0  0  0  0  0
  2  1  1  6
  2  3  1  0
  4  5  2  0
  4  2  1  0
  6  4  1  0
  7  6  1  0
  8  9  1  0
  7  8  1  1
  9 17  1  0
 10  9  2  0
 10 11  1  0
 11 12  1  0
 12 13  1  0
 13 14  2  0
 15 14  1  0
 16 15  2  0
 17 12  2  0
 17 16  1  0
 18  7  1  0
 18 19  2  0
 21 20  1  1
 22 21  1  0
 23 24  1  1
 23 21  1  0
 24 18  1  0
 25 23  1  0
 26 25  1  0
 27 25  2  0
M  END
$$$$
