AWT.pdb
     RDKit          3D

 27 28  0  0  1  0  0  0  0  0999 V2000
   17.3647   -8.9794  -17.6926 C   0  0  0  0  0  0  0  0  0  0  0  0
   18.8465   -9.0215  -17.4933 C   0  0  2  0  0  0  0  0  0  0  0  0
   19.2378  -10.3934  -17.2557 N   0  0  0  0  0  0  0  0  0  0  0  0
   19.3012   -8.1845  -16.3422 C   0  0  0  0  0  0  0  0  0  0  0  0
   18.7195   -8.3472  -15.2154 O   0  0  0  0  0  0  0  0  0  0  0  0
   20.3418   -7.2449  -16.5008 N   0  0  0  0  0  0  0  0  0  0  0  0
   20.8047   -6.4828  -15.3951 C   0  0  1  0  0  0  0  0  0  0  0  0
   22.2671   -6.6829  -15.0970 C   0  0  0  0  0  0  0  0  0  0  0  0
   22.5623   -7.9804  -14.4812 C   0  0  0  0  0  0  0  0  0  0  0  0
   23.1507   -9.0629  -15.0763 C   0  0  0  0  0  0  0  0  0  0  0  0
   23.2509  -10.0648  -14.1896 N   0  0  0  0  0  0  0  0  0  0  0  0
   22.7311   -9.6515  -13.0076 C   0  0  0  0  0  0  0  0  0  0  0  0
   22.5944  -10.2994  -11.7820 C   0  0  0  0  0  0  0  0  0  0  0  0
   22.0233   -9.6569  -10.7113 C   0  0  0  0  0  0  0  0  0  0  0  0
   21.5912   -8.3620  -10.8792 C   0  0  0  0  0  0  0  0  0  0  0  0
   21.7252   -7.7217  -12.0865 C   0  0  0  0  0  0  0  0  0  0  0  0
   22.3027   -8.3537  -13.1902 C   0  0  0  0  0  0  0  0  0  0  0  0
   20.6373   -5.0115  -15.6833 C   0  0  0  0  0  0  0  0  0  0  0  0
   20.8719   -4.5353  -16.8275 O   0  0  0  0  0  0  0  0  0  0  0  0
   18.7751   -0.5935  -14.3228 C   0  0  0  0  0  0  0  0  0  0  0  0
   18.9334   -2.0628  -14.1346 C   0  0  1  0  0  0  0  0  0  0  0  0
   17.7752   -2.7386  -14.4743 O   0  0  0  0  0  0  0  0  0  0  0  0
   20.0677   -2.6802  -14.9146 C   0  0  2  0  0  0  0  0  0  0  0  0
   20.2103   -4.1032  -14.6832 N   0  0  0  0  0  0  0  0  0  0  0  0
   21.3458   -1.9854  -14.7284 C   0  0  0  0  0  0  0  0  0  0  0  0
   21.8094   -0.9528  -15.5003 O   0  0  0  0  0  0  0  0  0  0  0  0
   22.1003   -2.3614  -13.7736 O   0  0  0  0  0  0  0  0  0  0  0  0
  2  1  1  1
  2  3  1  0
  4  5  2  0
  4  2  1  0
  6  4  1  0
  7  6  1  0
  8  9  1  0
  7  8  1  6
  9 17  1  0
 10  9  2  0
 10 11  1  0
 11 12  1  0
 12 13  1  0
 13 14  2  0
 15 14  1  0
 16 15  2  0
 17 12  2  0
 17 16  1  0
 18  7  1  0
 18 19  2  0
 21 20  1  6
 22 21  1  0
 23 24  1  1
 23 21  1  0
 24 18  1  0
 25 23  1  0
 26 25  1  0
 27 25  2  0
M  END
$$$$
