AWT.pdb
     RDKit          3D

 27 28  0  0  1  0  0  0  0  0999 V2000
   44.1281   -9.4454   -8.1386 C   0  0  0  0  0  0  0  0  0  0  0  0
   42.8061   -9.4733   -7.4392 C   0  0  2  0  0  0  0  0  0  0  0  0
   42.6935  -10.7245   -6.7227 N   0  0  0  0  0  0  0  0  0  0  0  0
   41.6504   -9.3499   -8.3780 C   0  0  0  0  0  0  0  0  0  0  0  0
   41.5890  -10.1613   -9.3640 O   0  0  0  0  0  0  0  0  0  0  0  0
   40.6600   -8.3653   -8.1764 N   0  0  0  0  0  0  0  0  0  0  0  0
   39.5281   -8.2905   -9.0313 C   0  0  1  0  0  0  0  0  0  0  0  0
   38.2149   -8.3533   -8.2971 C   0  0  0  0  0  0  0  0  0  0  0  0
   37.9098   -9.6851   -7.7652 C   0  0  0  0  0  0  0  0  0  0  0  0
   37.9100  -10.0708   -6.4524 C   0  0  0  0  0  0  0  0  0  0  0  0
   37.5806  -11.3684   -6.3644 N   0  0  0  0  0  0  0  0  0  0  0  0
   37.3616  -11.8460   -7.6142 C   0  0  0  0  0  0  0  0  0  0  0  0
   36.9991  -13.1119   -8.0687 C   0  0  0  0  0  0  0  0  0  0  0  0
   36.8345  -13.3526   -9.4104 C   0  0  0  0  0  0  0  0  0  0  0  0
   37.0361  -12.3157  -10.2912 C   0  0  0  0  0  0  0  0  0  0  0  0
   37.3934  -11.0672   -9.8451 C   0  0  0  0  0  0  0  0  0  0  0  0
   37.5668  -10.7973   -8.4857 C   0  0  0  0  0  0  0  0  0  0  0  0
   39.5299   -6.9732   -9.7666 C   0  0  0  0  0  0  0  0  0  0  0  0
   39.9742   -5.9218   -9.2299 O   0  0  0  0  0  0  0  0  0  0  0  0
   40.4084   -6.5858  -13.7697 C   0  0  0  0  0  0  0  0  0  0  0  0
   39.1858   -5.8524  -13.3373 C   0  0  1  0  0  0  0  0  0  0  0  0
   38.0382   -6.5074  -13.7465 O   0  0  0  0  0  0  0  0  0  0  0  0
   39.0778   -5.6283  -11.8492 C   0  0  2  0  0  0  0  0  0  0  0  0
   39.0339   -6.8608  -11.0891 N   0  0  0  0  0  0  0  0  0  0  0  0
   37.9736   -4.7386  -11.4748 C   0  0  0  0  0  0  0  0  0  0  0  0
   37.8739   -3.4127  -11.8051 O   0  0  0  0  0  0  0  0  0  0  0  0
   37.0194   -5.2233  -10.7844 O   0  0  0  0  0  0  0  0  0  0  0  0
  2  1  1  6
  2  3  1  0
  4  5  2  0
  4  2  1  0
  6  4  1  0
  7  6  1  0
  8  9  1  0
  7  8  1  1
  9 17  1  0
 10  9  2  0
 10 11  1  0
 11 12  1  0
 12 13  1  0
 13 14  2  0
 15 14  1  0
 16 15  2  0
 17 12  2  0
 17 16  1  0
 18  7  1  0
 18 19  2  0
 21 20  1  1
 22 21  1  0
 23 24  1  1
 23 21  1  0
 24 18  1  0
 25 23  1  0
 26 25  1  0
 27 25  2  0
M  END
$$$$
