AWT.pdb
     RDKit          3D

 27 28  0  0  1  0  0  0  0  0999 V2000
   28.5382  -22.5145  -16.1119 C   0  0  0  0  0  0  0  0  0  0  0  0
   27.6656  -21.4036  -15.6200 C   0  0  2  0  0  0  0  0  0  0  0  0
   28.4574  -20.1952  -15.5521 N   0  0  0  0  0  0  0  0  0  0  0  0
   27.0852  -21.6759  -14.2704 C   0  0  0  0  0  0  0  0  0  0  0  0
   26.3355  -22.7026  -14.1358 O   0  0  0  0  0  0  0  0  0  0  0  0
   27.3604  -20.8215  -13.1817 N   0  0  0  0  0  0  0  0  0  0  0  0
   26.7084  -21.0057  -11.9334 C   0  0  1  0  0  0  0  0  0  0  0  0
   27.4715  -20.4364  -10.7667 C   0  0  0  0  0  0  0  0  0  0  0  0
   26.7206  -20.4729   -9.5079 C   0  0  0  0  0  0  0  0  0  0  0  0
   25.4222  -20.8666   -9.3311 C   0  0  0  0  0  0  0  0  0  0  0  0
   25.0917  -20.7592   -8.0352 N   0  0  0  0  0  0  0  0  0  0  0  0
   26.1661  -20.2955   -7.3506 C   0  0  0  0  0  0  0  0  0  0  0  0
   26.3477  -20.0120   -5.9989 C   0  0  0  0  0  0  0  0  0  0  0  0
   27.5532  -19.5428   -5.5386 C   0  0  0  0  0  0  0  0  0  0  0  0
   28.5732  -19.3603   -6.4430 C   0  0  0  0  0  0  0  0  0  0  0  0
   28.3961  -19.6393   -7.7757 C   0  0  0  0  0  0  0  0  0  0  0  0
   27.1797  -20.1175   -8.2683 C   0  0  0  0  0  0  0  0  0  0  0  0
   25.3765  -20.2972  -11.9436 C   0  0  0  0  0  0  0  0  0  0  0  0
   25.3006  -19.0426  -12.0496 O   0  0  0  0  0  0  0  0  0  0  0  0
   22.6017  -22.5713  -13.8874 C   0  0  0  0  0  0  0  0  0  0  0  0
   22.6662  -21.0853  -13.8019 C   0  0  1  0  0  0  0  0  0  0  0  0
   21.5036  -20.5056  -14.2769 O   0  0  0  0  0  0  0  0  0  0  0  0
   22.9134  -20.5434  -12.4157 C   0  0  2  0  0  0  0  0  0  0  0  0
   24.1563  -21.0091  -11.8351 N   0  0  0  0  0  0  0  0  0  0  0  0
   21.7895  -20.7602  -11.4988 C   0  0  0  0  0  0  0  0  0  0  0  0
   21.8582  -21.4160  -10.2979 O   0  0  0  0  0  0  0  0  0  0  0  0
   20.6467  -20.3072  -11.8319 O   0  0  0  0  0  0  0  0  0  0  0  0
  2  1  1  1
  2  3  1  0
  4  5  2  0
  4  2  1  0
  6  4  1  0
  7  6  1  0
  8  9  1  0
  7  8  1  1
  9 17  1  0
 10  9  2  0
 10 11  1  0
 11 12  1  0
 12 13  1  0
 13 14  2  0
 15 14  1  0
 16 15  2  0
 17 12  2  0
 17 16  1  0
 18  7  1  0
 18 19  2  0
 21 20  1  1
 22 21  1  0
 23 24  1  1
 23 21  1  0
 24 18  1  0
 25 23  1  0
 26 25  1  0
 27 25  2  0
M  END
$$$$
