AWT.pdb
     RDKit          3D

 27 28  0  0  1  0  0  0  0  0999 V2000
   43.9884  -12.5634   -9.5377 C   0  0  0  0  0  0  0  0  0  0  0  0
   43.3532  -13.8910   -9.8049 C   0  0  2  0  0  0  0  0  0  0  0  0
   41.9812  -13.8421   -9.3500 N   0  0  0  0  0  0  0  0  0  0  0  0
   44.0501  -15.0174   -9.1134 C   0  0  0  0  0  0  0  0  0  0  0  0
   43.6777  -15.3156   -7.9274 O   0  0  0  0  0  0  0  0  0  0  0  0
   45.0870  -15.7264   -9.7560 N   0  0  0  0  0  0  0  0  0  0  0  0
   45.7344  -16.8108   -9.1059 C   0  0  1  0  0  0  0  0  0  0  0  0
   45.9184  -18.0173   -9.9879 C   0  0  0  0  0  0  0  0  0  0  0  0
   44.7523  -18.9059  -10.0077 C   0  0  0  0  0  0  0  0  0  0  0  0
   43.9434  -19.1843  -11.0754 C   0  0  0  0  0  0  0  0  0  0  0  0
   42.9819  -20.0416  -10.7003 N   0  0  0  0  0  0  0  0  0  0  0  0
   43.1495  -20.3336   -9.3870 C   0  0  0  0  0  0  0  0  0  0  0  0
   42.4312  -21.1600   -8.5258 C   0  0  0  0  0  0  0  0  0  0  0  0
   42.8052  -21.2941   -7.2115 C   0  0  0  0  0  0  0  0  0  0  0  0
   43.9030  -20.5940   -6.7685 C   0  0  0  0  0  0  0  0  0  0  0  0
   44.6123  -19.7790   -7.6159 C   0  0  0  0  0  0  0  0  0  0  0  0
   44.2520  -19.6261   -8.9567 C   0  0  0  0  0  0  0  0  0  0  0  0
   47.1196  -16.3952   -8.6766 C   0  0  0  0  0  0  0  0  0  0  0  0
   47.8966  -15.7880   -9.4630 O   0  0  0  0  0  0  0  0  0  0  0  0
   47.8918  -14.5176   -5.3196 C   0  0  0  0  0  0  0  0  0  0  0  0
   48.8477  -15.6457   -5.5015 C   0  0  1  0  0  0  0  0  0  0  0  0
   48.5629  -16.6875   -4.6373 O   0  0  0  0  0  0  0  0  0  0  0  0
   48.8964  -16.2120   -6.8990 C   0  0  2  0  0  0  0  0  0  0  0  0
   47.6062  -16.6684   -7.3743 N   0  0  0  0  0  0  0  0  0  0  0  0
   49.9182  -17.2503   -7.0693 C   0  0  0  0  0  0  0  0  0  0  0  0
   51.2723  -17.0509   -7.0084 O   0  0  0  0  0  0  0  0  0  0  0  0
   49.5311  -18.4429   -7.2935 O   0  0  0  0  0  0  0  0  0  0  0  0
  2  1  1  1
  2  3  1  0
  4  5  2  0
  4  2  1  0
  6  4  1  0
  7  6  1  0
  8  9  1  0
  7  8  1  6
  9 17  1  0
 10  9  2  0
 10 11  1  0
 11 12  1  0
 12 13  1  0
 13 14  2  0
 15 14  1  0
 16 15  2  0
 17 12  2  0
 17 16  1  0
 18  7  1  0
 18 19  2  0
 21 20  1  6
 22 21  1  0
 23 24  1  1
 23 21  1  0
 24 18  1  0
 25 23  1  0
 26 25  1  0
 27 25  2  0
M  END
$$$$
