AWT.pdb
     RDKit          3D

 27 28  0  0  1  0  0  0  0  0999 V2000
   31.0700  -22.2731  -10.7532 C   0  0  0  0  0  0  0  0  0  0  0  0
   30.0451  -21.4688  -11.4882 C   0  0  2  0  0  0  0  0  0  0  0  0
   30.4517  -20.0810  -11.4682 N   0  0  0  0  0  0  0  0  0  0  0  0
   28.6811  -21.5800  -10.8888 C   0  0  0  0  0  0  0  0  0  0  0  0
   28.1296  -22.7330  -10.8624 O   0  0  0  0  0  0  0  0  0  0  0  0
   28.0272  -20.4428  -10.3692 N   0  0  0  0  0  0  0  0  0  0  0  0
   26.7069  -20.5383   -9.8540 C   0  0  1  0  0  0  0  0  0  0  0  0
   26.4262  -19.5694   -8.7361 C   0  0  0  0  0  0  0  0  0  0  0  0
   26.4602  -20.1893   -7.4078 C   0  0  0  0  0  0  0  0  0  0  0  0
   25.6556  -21.1940   -6.9438 C   0  0  0  0  0  0  0  0  0  0  0  0
   25.9905  -21.4911   -5.6789 N   0  0  0  0  0  0  0  0  0  0  0  0
   27.0148  -20.6871   -5.3013 C   0  0  0  0  0  0  0  0  0  0  0  0
   27.7211  -20.5920   -4.1044 C   0  0  0  0  0  0  0  0  0  0  0  0
   28.7375  -19.6798   -3.9628 C   0  0  0  0  0  0  0  0  0  0  0  0
   29.0392  -18.8650   -5.0290 C   0  0  0  0  0  0  0  0  0  0  0  0
   28.3441  -18.9573   -6.2096 C   0  0  0  0  0  0  0  0  0  0  0  0
   27.3065  -19.8770   -6.3783 C   0  0  0  0  0  0  0  0  0  0  0  0
   25.7105  -20.2184  -10.9406 C   0  0  0  0  0  0  0  0  0  0  0  0
   25.7491  -19.1235  -11.5657 O   0  0  0  0  0  0  0  0  0  0  0  0
   22.9651  -22.0693  -14.5682 C   0  0  0  0  0  0  0  0  0  0  0  0
   23.8543  -22.1797  -13.3780 C   0  0  1  0  0  0  0  0  0  0  0  0
   25.1618  -22.4328  -13.7517 O   0  0  0  0  0  0  0  0  0  0  0  0
   23.8622  -20.9661  -12.4817 C   0  0  2  0  0  0  0  0  0  0  0  0
   24.6908  -21.1321  -11.3050 N   0  0  0  0  0  0  0  0  0  0  0  0
   22.5185  -20.5036  -12.1191 C   0  0  0  0  0  0  0  0  0  0  0  0
   21.7420  -19.6548  -12.8632 O   0  0  0  0  0  0  0  0  0  0  0  0
   22.0167  -20.9159  -11.0235 O   0  0  0  0  0  0  0  0  0  0  0  0
  2  1  1  1
  2  3  1  0
  4  5  2  0
  4  2  1  0
  6  4  1  0
  7  6  1  0
  8  9  1  0
  7  8  1  1
  9 17  1  0
 10  9  2  0
 10 11  1  0
 11 12  1  0
 12 13  1  0
 13 14  2  0
 15 14  1  0
 16 15  2  0
 17 12  2  0
 17 16  1  0
 18  7  1  0
 18 19  2  0
 21 20  1  6
 22 21  1  0
 23 24  1  1
 23 21  1  0
 24 18  1  0
 25 23  1  0
 26 25  1  0
 27 25  2  0
M  END
$$$$
