AWT.pdb
     RDKit          3D

 27 28  0  0  1  0  0  0  0  0999 V2000
   28.9500  -21.9119  -15.2821 C   0  0  0  0  0  0  0  0  0  0  0  0
   27.9759  -20.8683  -14.8355 C   0  0  2  0  0  0  0  0  0  0  0  0
   28.6843  -19.6167  -14.6815 N   0  0  0  0  0  0  0  0  0  0  0  0
   27.3132  -21.2094  -13.5406 C   0  0  0  0  0  0  0  0  0  0  0  0
   26.5629  -22.2438  -13.5049 O   0  0  0  0  0  0  0  0  0  0  0  0
   27.5138  -20.4097  -12.3956 N   0  0  0  0  0  0  0  0  0  0  0  0
   26.8619  -20.7193  -11.1722 C   0  0  1  0  0  0  0  0  0  0  0  0
   27.5062  -20.0824   -9.9695 C   0  0  0  0  0  0  0  0  0  0  0  0
   26.8718  -20.4595   -8.7025 C   0  0  0  0  0  0  0  0  0  0  0  0
   25.6823  -21.1149   -8.5368 C   0  0  0  0  0  0  0  0  0  0  0  0
   25.4373  -21.2789   -7.2278 N   0  0  0  0  0  0  0  0  0  0  0  0
   26.4601  -20.7347   -6.5237 C   0  0  0  0  0  0  0  0  0  0  0  0
   26.6900  -20.6400   -5.1530 C   0  0  0  0  0  0  0  0  0  0  0  0
   27.8233  -20.0301   -4.6746 C   0  0  0  0  0  0  0  0  0  0  0  0
   28.7225  -19.5168   -5.5800 C   0  0  0  0  0  0  0  0  0  0  0  0
   28.4975  -19.6093   -6.9314 C   0  0  0  0  0  0  0  0  0  0  0  0
   27.3527  -20.2249   -7.4426 C   0  0  0  0  0  0  0  0  0  0  0  0
   25.4441  -20.2048  -11.2048 C   0  0  0  0  0  0  0  0  0  0  0  0
   25.1946  -18.9722  -11.3020 O   0  0  0  0  0  0  0  0  0  0  0  0
   21.2497  -21.4003  -13.3378 C   0  0  0  0  0  0  0  0  0  0  0  0
   22.6279  -21.6368  -12.8237 C   0  0  1  0  0  0  0  0  0  0  0  0
   23.5702  -21.4696  -13.8225 O   0  0  0  0  0  0  0  0  0  0  0  0
   23.0289  -20.7568  -11.6657 C   0  0  2  0  0  0  0  0  0  0  0  0
   24.3342  -21.0821  -11.1280 N   0  0  0  0  0  0  0  0  0  0  0  0
   22.0200  -20.7010  -10.6026 C   0  0  0  0  0  0  0  0  0  0  0  0
   21.0853  -19.7119  -10.4446 O   0  0  0  0  0  0  0  0  0  0  0  0
   21.9975  -21.6433   -9.7460 O   0  0  0  0  0  0  0  0  0  0  0  0
  2  1  1  1
  2  3  1  0
  4  5  2  0
  4  2  1  0
  6  4  1  0
  7  6  1  0
  8  9  1  0
  7  8  1  1
  9 17  1  0
 10  9  2  0
 10 11  1  0
 11 12  1  0
 12 13  1  0
 13 14  2  0
 15 14  1  0
 16 15  2  0
 17 12  2  0
 17 16  1  0
 18  7  1  0
 18 19  2  0
 21 20  1  6
 22 21  1  0
 23 24  1  1
 23 21  1  0
 24 18  1  0
 25 23  1  0
 26 25  1  0
 27 25  2  0
M  END
$$$$
