AWT.pdb
     RDKit          3D

 27 28  0  0  1  0  0  0  0  0999 V2000
   27.1921  -21.2621  -17.2153 C   0  0  0  0  0  0  0  0  0  0  0  0
   27.7817  -22.1069  -16.1307 C   0  0  2  0  0  0  0  0  0  0  0  0
   27.8306  -23.4765  -16.5927 N   0  0  0  0  0  0  0  0  0  0  0  0
   26.9948  -22.0542  -14.8617 C   0  0  0  0  0  0  0  0  0  0  0  0
   25.9505  -22.7861  -14.7725 O   0  0  0  0  0  0  0  0  0  0  0  0
   27.3981  -21.2197  -13.7977 N   0  0  0  0  0  0  0  0  0  0  0  0
   26.7069  -21.2426  -12.5570 C   0  0  1  0  0  0  0  0  0  0  0  0
   27.4728  -20.6014  -11.4302 C   0  0  0  0  0  0  0  0  0  0  0  0
   26.7723  -20.6614  -10.1435 C   0  0  0  0  0  0  0  0  0  0  0  0
   25.4330  -20.8536   -9.9399 C   0  0  0  0  0  0  0  0  0  0  0  0
   25.1723  -20.8464   -8.6237 N   0  0  0  0  0  0  0  0  0  0  0  0
   26.3338  -20.6500   -7.9526 C   0  0  0  0  0  0  0  0  0  0  0  0
   26.6093  -20.5613   -6.5900 C   0  0  0  0  0  0  0  0  0  0  0  0
   27.8928  -20.3548   -6.1480 C   0  0  0  0  0  0  0  0  0  0  0  0
   28.8959  -20.2379   -7.0817 C   0  0  0  0  0  0  0  0  0  0  0  0
   28.6262  -20.3251   -8.4253 C   0  0  0  0  0  0  0  0  0  0  0  0
   27.3294  -20.5349   -8.8996 C   0  0  0  0  0  0  0  0  0  0  0  0
   25.4179  -20.4678  -12.6764 C   0  0  0  0  0  0  0  0  0  0  0  0
   25.4160  -19.2224  -12.8757 O   0  0  0  0  0  0  0  0  0  0  0  0
   23.2093  -20.3470  -15.3597 C   0  0  0  0  0  0  0  0  0  0  0  0
   22.3496  -20.7669  -14.2177 C   0  0  1  0  0  0  0  0  0  0  0  0
   22.1050  -22.1280  -14.2493 O   0  0  0  0  0  0  0  0  0  0  0  0
   22.9044  -20.4342  -12.8548 C   0  0  2  0  0  0  0  0  0  0  0  0
   24.1567  -21.1047  -12.5700 N   0  0  0  0  0  0  0  0  0  0  0  0
   21.9391  -20.6376  -11.7696 C   0  0  0  0  0  0  0  0  0  0  0  0
   20.7922  -19.9127  -11.5793 O   0  0  0  0  0  0  0  0  0  0  0  0
   22.1716  -21.5616  -10.9243 O   0  0  0  0  0  0  0  0  0  0  0  0
  2  1  1  6
  2  3  1  0
  4  5  2  0
  4  2  1  0
  6  4  1  0
  7  6  1  0
  8  9  1  0
  7  8  1  1
  9 17  1  0
 10  9  2  0
 10 11  1  0
 11 12  1  0
 12 13  1  0
 13 14  2  0
 15 14  1  0
 16 15  2  0
 17 12  2  0
 17 16  1  0
 18  7  1  0
 18 19  2  0
 21 20  1  6
 22 21  1  0
 23 24  1  1
 23 21  1  0
 24 18  1  0
 25 23  1  0
 26 25  1  0
 27 25  2  0
M  END
$$$$
