AWT.pdb
     RDKit          3D

 27 28  0  0  1  0  0  0  0  0999 V2000
   22.5219  -22.3794  -12.7750 C   0  0  0  0  0  0  0  0  0  0  0  0
   22.8040  -21.7865  -11.4310 C   0  0  2  0  0  0  0  0  0  0  0  0
   21.6855  -20.9499  -11.0556 N   0  0  0  0  0  0  0  0  0  0  0  0
   24.0503  -20.9627  -11.4102 C   0  0  0  0  0  0  0  0  0  0  0  0
   23.9675  -19.7403  -11.7752 O   0  0  0  0  0  0  0  0  0  0  0  0
   25.2781  -21.5232  -10.9988 N   0  0  0  0  0  0  0  0  0  0  0  0
   26.4782  -20.7662  -11.0640 C   0  0  1  0  0  0  0  0  0  0  0  0
   27.4784  -21.1320   -9.9995 C   0  0  0  0  0  0  0  0  0  0  0  0
   27.2375  -20.4584   -8.7197 C   0  0  0  0  0  0  0  0  0  0  0  0
   26.2207  -19.5935   -8.4195 C   0  0  0  0  0  0  0  0  0  0  0  0
   26.3379  -19.1853   -7.1468 N   0  0  0  0  0  0  0  0  0  0  0  0
   27.4290  -19.7763   -6.6005 C   0  0  0  0  0  0  0  0  0  0  0  0
   27.9848  -19.6905   -5.3262 C   0  0  0  0  0  0  0  0  0  0  0  0
   29.1166  -20.3998   -5.0077 C   0  0  0  0  0  0  0  0  0  0  0  0
   29.6854  -21.1942   -5.9756 C   0  0  0  0  0  0  0  0  0  0  0  0
   29.1388  -21.2801   -7.2323 C   0  0  0  0  0  0  0  0  0  0  0  0
   27.9884  -20.5687   -7.5806 C   0  0  0  0  0  0  0  0  0  0  0  0
   27.1668  -21.0136  -12.3833 C   0  0  0  0  0  0  0  0  0  0  0  0
   27.9170  -22.0128  -12.5556 O   0  0  0  0  0  0  0  0  0  0  0  0
   25.1769  -20.5225  -15.8187 C   0  0  0  0  0  0  0  0  0  0  0  0
   26.4980  -21.1921  -15.6574 C   0  0  1  0  0  0  0  0  0  0  0  0
   27.0893  -21.4347  -16.8840 O   0  0  0  0  0  0  0  0  0  0  0  0
   27.4915  -20.4322  -14.8137 C   0  0  2  0  0  0  0  0  0  0  0  0
   27.0006  -20.1361  -13.4833 N   0  0  0  0  0  0  0  0  0  0  0  0
   28.0036  -19.2234  -15.4676 C   0  0  0  0  0  0  0  0  0  0  0  0
   28.8951  -19.1990  -16.5077 O   0  0  0  0  0  0  0  0  0  0  0  0
   27.5957  -18.0933  -15.0450 O   0  0  0  0  0  0  0  0  0  0  0  0
  2  1  1  6
  2  3  1  0
  4  5  2  0
  4  2  1  0
  6  4  1  0
  7  6  1  0
  8  9  1  0
  7  8  1  1
  9 17  1  0
 10  9  2  0
 10 11  1  0
 11 12  1  0
 12 13  1  0
 13 14  2  0
 15 14  1  0
 16 15  2  0
 17 12  2  0
 17 16  1  0
 18  7  1  0
 18 19  2  0
 21 20  1  6
 22 21  1  0
 23 24  1  1
 23 21  1  0
 24 18  1  0
 25 23  1  0
 26 25  1  0
 27 25  2  0
M  END
$$$$
