AWT.pdb
     RDKit          3D

 27 28  0  0  1  0  0  0  0  0999 V2000
   27.4943  -18.5796  -15.0855 C   0  0  0  0  0  0  0  0  0  0  0  0
   28.1248  -19.5989  -14.1906 C   0  0  2  0  0  0  0  0  0  0  0  0
   28.9543  -20.4663  -14.9976 N   0  0  0  0  0  0  0  0  0  0  0  0
   27.1209  -20.4326  -13.4630 C   0  0  0  0  0  0  0  0  0  0  0  0
   26.6906  -21.4907  -14.0370 O   0  0  0  0  0  0  0  0  0  0  0  0
   26.6659  -20.0576  -12.1811 N   0  0  0  0  0  0  0  0  0  0  0  0
   25.7051  -20.8464  -11.4938 C   0  0  1  0  0  0  0  0  0  0  0  0
   25.7211  -20.6481  -10.0012 C   0  0  0  0  0  0  0  0  0  0  0  0
   27.0441  -20.8502   -9.4024 C   0  0  0  0  0  0  0  0  0  0  0  0
   28.0970  -21.5406   -9.9380 C   0  0  0  0  0  0  0  0  0  0  0  0
   29.1371  -21.5036   -9.0912 N   0  0  0  0  0  0  0  0  0  0  0  0
   28.7785  -20.7911   -7.9949 C   0  0  0  0  0  0  0  0  0  0  0  0
   29.4808  -20.4605   -6.8381 C   0  0  0  0  0  0  0  0  0  0  0  0
   28.8885  -19.7134   -5.8500 C   0  0  0  0  0  0  0  0  0  0  0  0
   27.5889  -19.3013   -6.0308 C   0  0  0  0  0  0  0  0  0  0  0  0
   26.8951  -19.6261   -7.1704 C   0  0  0  0  0  0  0  0  0  0  0  0
   27.4754  -20.3847   -8.1896 C   0  0  0  0  0  0  0  0  0  0  0  0
   24.3166  -20.4698  -11.9477 C   0  0  0  0  0  0  0  0  0  0  0  0
   23.9869  -19.2651  -12.1234 O   0  0  0  0  0  0  0  0  0  0  0  0
   22.2719  -23.5013  -14.1486 C   0  0  0  0  0  0  0  0  0  0  0  0
   22.2416  -22.0240  -14.3387 C   0  0  1  0  0  0  0  0  0  0  0  0
   21.1657  -21.6417  -15.1195 O   0  0  0  0  0  0  0  0  0  0  0  0
   22.1852  -21.2245  -13.0605 C   0  0  2  0  0  0  0  0  0  0  0  0
   23.3252  -21.4513  -12.1957 N   0  0  0  0  0  0  0  0  0  0  0  0
   20.9261  -21.3906  -12.3270 C   0  0  0  0  0  0  0  0  0  0  0  0
   19.6732  -21.1827  -12.8409 O   0  0  0  0  0  0  0  0  0  0  0  0
   20.9846  -21.7583  -11.1090 O   0  0  0  0  0  0  0  0  0  0  0  0
  2  1  1  6
  2  3  1  0
  4  5  2  0
  4  2  1  0
  6  4  1  0
  7  6  1  0
  8  9  1  0
  7  8  1  1
  9 17  1  0
 10  9  2  0
 10 11  1  0
 11 12  1  0
 12 13  1  0
 13 14  2  0
 15 14  1  0
 16 15  2  0
 17 12  2  0
 17 16  1  0
 18  7  1  0
 18 19  2  0
 21 20  1  1
 22 21  1  0
 23 24  1  1
 23 21  1  0
 24 18  1  0
 25 23  1  0
 26 25  1  0
 27 25  2  0
M  END
$$$$
