AWT.pdb
     RDKit          3D

 27 28  0  0  1  0  0  0  0  0999 V2000
   27.8483  -20.3930  -15.5028 C   0  0  0  0  0  0  0  0  0  0  0  0
   28.2440  -21.5009  -14.5791 C   0  0  2  0  0  0  0  0  0  0  0  0
   28.1010  -22.7566  -15.2824 N   0  0  0  0  0  0  0  0  0  0  0  0
   27.4132  -21.5464  -13.3381 C   0  0  0  0  0  0  0  0  0  0  0  0
   26.3087  -22.1890  -13.3788 O   0  0  0  0  0  0  0  0  0  0  0  0
   27.8407  -20.8977  -12.1603 N   0  0  0  0  0  0  0  0  0  0  0  0
   27.0813  -20.9938  -10.9638 C   0  0  1  0  0  0  0  0  0  0  0  0
   27.7959  -20.4540   -9.7532 C   0  0  0  0  0  0  0  0  0  0  0  0
   27.0158  -20.5723   -8.5173 C   0  0  0  0  0  0  0  0  0  0  0  0
   25.7355  -21.0378   -8.3895 C   0  0  0  0  0  0  0  0  0  0  0  0
   25.3667  -20.9923   -7.1002 N   0  0  0  0  0  0  0  0  0  0  0  0
   26.3976  -20.4983   -6.3714 C   0  0  0  0  0  0  0  0  0  0  0  0
   26.5294  -20.2529   -5.0065 C   0  0  0  0  0  0  0  0  0  0  0  0
   27.6967  -19.7389   -4.4980 C   0  0  0  0  0  0  0  0  0  0  0  0
   28.7288  -19.4734   -5.3675 C   0  0  0  0  0  0  0  0  0  0  0  0
   28.6007  -19.7147   -6.7131 C   0  0  0  0  0  0  0  0  0  0  0  0
   27.4239  -20.2371   -7.2545 C   0  0  0  0  0  0  0  0  0  0  0  0
   25.8164  -20.1823  -11.0953 C   0  0  0  0  0  0  0  0  0  0  0  0
   25.8517  -18.9309  -11.2489 O   0  0  0  0  0  0  0  0  0  0  0  0
   24.0587  -19.7265  -13.8618 C   0  0  0  0  0  0  0  0  0  0  0  0
   23.0316  -20.2972  -12.9458 C   0  0  1  0  0  0  0  0  0  0  0  0
   22.8533  -21.6497  -13.1744 O   0  0  0  0  0  0  0  0  0  0  0  0
   23.3264  -20.1172  -11.4772 C   0  0  2  0  0  0  0  0  0  0  0  0
   24.5371  -20.7898  -11.0523 N   0  0  0  0  0  0  0  0  0  0  0  0
   22.1964  -20.4690  -10.6110 C   0  0  0  0  0  0  0  0  0  0  0  0
   20.9638  -19.8712  -10.6297 O   0  0  0  0  0  0  0  0  0  0  0  0
   22.3578  -21.4069   -9.7645 O   0  0  0  0  0  0  0  0  0  0  0  0
  2  1  1  6
  2  3  1  0
  4  5  2  0
  4  2  1  0
  6  4  1  0
  7  6  1  0
  8  9  1  0
  7  8  1  1
  9 17  1  0
 10  9  2  0
 10 11  1  0
 11 12  1  0
 12 13  1  0
 13 14  2  0
 15 14  1  0
 16 15  2  0
 17 12  2  0
 17 16  1  0
 18  7  1  0
 18 19  2  0
 21 20  1  6
 22 21  1  0
 23 24  1  1
 23 21  1  0
 24 18  1  0
 25 23  1  0
 26 25  1  0
 27 25  2  0
M  END
$$$$
