AWT.pdb
     RDKit          3D

 27 28  0  0  1  0  0  0  0  0999 V2000
   25.4879  -18.4519  -14.7175 C   0  0  0  0  0  0  0  0  0  0  0  0
   26.6723  -19.2183  -14.2202 C   0  0  2  0  0  0  0  0  0  0  0  0
   27.0392  -20.1948  -15.2220 N   0  0  0  0  0  0  0  0  0  0  0  0
   26.4060  -19.9264  -12.9318 C   0  0  0  0  0  0  0  0  0  0  0  0
   26.0439  -21.1513  -12.9841 O   0  0  0  0  0  0  0  0  0  0  0  0
   26.5519  -19.2574  -11.6981 N   0  0  0  0  0  0  0  0  0  0  0  0
   26.3567  -19.9476  -10.4721 C   0  0  1  0  0  0  0  0  0  0  0  0
   27.0912  -19.3307   -9.3113 C   0  0  0  0  0  0  0  0  0  0  0  0
   27.0734  -20.1628   -8.1042 C   0  0  0  0  0  0  0  0  0  0  0  0
   26.7323  -21.4849   -8.0167 C   0  0  0  0  0  0  0  0  0  0  0  0
   26.8390  -21.8941   -6.7433 N   0  0  0  0  0  0  0  0  0  0  0  0
   27.2497  -20.8482   -5.9848 C   0  0  0  0  0  0  0  0  0  0  0  0
   27.5103  -20.7431   -4.6204 C   0  0  0  0  0  0  0  0  0  0  0  0
   27.9236  -19.5517   -4.0771 C   0  0  0  0  0  0  0  0  0  0  0  0
   28.0730  -18.4685   -4.9114 C   0  0  0  0  0  0  0  0  0  0  0  0
   27.8166  -18.5702   -6.2565 C   0  0  0  0  0  0  0  0  0  0  0  0
   27.3954  -19.7708   -6.8329 C   0  0  0  0  0  0  0  0  0  0  0  0
   24.8951  -19.9223  -10.0991 C   0  0  0  0  0  0  0  0  0  0  0  0
   24.2980  -18.8385   -9.8552 O   0  0  0  0  0  0  0  0  0  0  0  0
   22.1357  -21.1957  -12.3890 C   0  0  0  0  0  0  0  0  0  0  0  0
   22.0318  -21.8669  -11.0630 C   0  0  1  0  0  0  0  0  0  0  0  0
   22.5787  -23.1369  -11.1006 O   0  0  0  0  0  0  0  0  0  0  0  0
   22.6856  -21.1216   -9.9258 C   0  0  2  0  0  0  0  0  0  0  0  0
   24.1320  -21.1126  -10.0072 N   0  0  0  0  0  0  0  0  0  0  0  0
   22.2350  -21.5688   -8.6036 C   0  0  0  0  0  0  0  0  0  0  0  0
   20.9481  -21.5037   -8.1382 O   0  0  0  0  0  0  0  0  0  0  0  0
   23.1002  -22.0612   -7.8091 O   0  0  0  0  0  0  0  0  0  0  0  0
  2  1  1  6
  2  3  1  0
  4  5  2  0
  4  2  1  0
  6  4  1  0
  7  6  1  0
  8  9  1  0
  7  8  1  1
  9 17  1  0
 10  9  2  0
 10 11  1  0
 11 12  1  0
 12 13  1  0
 13 14  2  0
 15 14  1  0
 16 15  2  0
 17 12  2  0
 17 16  1  0
 18  7  1  0
 18 19  2  0
 21 20  1  6
 22 21  1  0
 23 24  1  1
 23 21  1  0
 24 18  1  0
 25 23  1  0
 26 25  1  0
 27 25  2  0
M  END
$$$$
