AWT.pdb
     RDKit          3D

 27 28  0  0  1  0  0  0  0  0999 V2000
   28.0119  -20.4800  -16.0517 C   0  0  0  0  0  0  0  0  0  0  0  0
   28.5575  -21.1691  -14.8414 C   0  0  2  0  0  0  0  0  0  0  0  0
   29.1681  -22.4120  -15.2584 N   0  0  0  0  0  0  0  0  0  0  0  0
   27.5079  -21.4666  -13.8204 C   0  0  0  0  0  0  0  0  0  0  0  0
   26.8178  -22.5332  -13.9628 O   0  0  0  0  0  0  0  0  0  0  0  0
   27.2904  -20.5924  -12.7344 N   0  0  0  0  0  0  0  0  0  0  0  0
   26.2925  -20.8764  -11.7644 C   0  0  1  0  0  0  0  0  0  0  0  0
   26.4793  -20.1263  -10.4721 C   0  0  0  0  0  0  0  0  0  0  0  0
   27.6294  -20.5921   -9.6911 C   0  0  0  0  0  0  0  0  0  0  0  0
   28.6599  -21.3798  -10.1267 C   0  0  0  0  0  0  0  0  0  0  0  0
   29.5211  -21.5919   -9.1199 N   0  0  0  0  0  0  0  0  0  0  0  0
   29.0662  -20.9477   -8.0171 C   0  0  0  0  0  0  0  0  0  0  0  0
   29.5811  -20.8503   -6.7264 C   0  0  0  0  0  0  0  0  0  0  0  0
   28.9233  -20.1247   -5.7641 C   0  0  0  0  0  0  0  0  0  0  0  0
   27.7471  -19.4988   -6.1057 C   0  0  0  0  0  0  0  0  0  0  0  0
   27.2381  -19.5937   -7.3775 C   0  0  0  0  0  0  0  0  0  0  0  0
   27.8885  -20.3255   -8.3737 C   0  0  0  0  0  0  0  0  0  0  0  0
   24.9388  -20.4672  -12.2898 C   0  0  0  0  0  0  0  0  0  0  0  0
   24.7522  -19.3354  -12.8142 O   0  0  0  0  0  0  0  0  0  0  0  0
   20.7233  -21.9176  -14.3552 C   0  0  0  0  0  0  0  0  0  0  0  0
   22.0440  -22.1697  -13.7135 C   0  0  1  0  0  0  0  0  0  0  0  0
   23.0167  -22.4393  -14.6592 O   0  0  0  0  0  0  0  0  0  0  0  0
   22.5495  -21.0431  -12.8466 C   0  0  2  0  0  0  0  0  0  0  0  0
   23.8211  -21.3351  -12.2170 N   0  0  0  0  0  0  0  0  0  0  0  0
   21.5662  -20.5836  -11.8602 C   0  0  0  0  0  0  0  0  0  0  0  0
   20.4742  -19.8017  -12.1308 O   0  0  0  0  0  0  0  0  0  0  0  0
   21.7264  -20.9315  -10.6455 O   0  0  0  0  0  0  0  0  0  0  0  0
  2  1  1  6
  2  3  1  0
  4  5  2  0
  4  2  1  0
  6  4  1  0
  7  6  1  0
  8  9  1  0
  7  8  1  1
  9 17  1  0
 10  9  2  0
 10 11  1  0
 11 12  1  0
 12 13  1  0
 13 14  2  0
 15 14  1  0
 16 15  2  0
 17 12  2  0
 17 16  1  0
 18  7  1  0
 18 19  2  0
 21 20  1  6
 22 21  1  0
 23 24  1  1
 23 21  1  0
 24 18  1  0
 25 23  1  0
 26 25  1  0
 27 25  2  0
M  END
$$$$
