ARQ.pdb
     RDKit          3D

 26 25  0  0  1  0  0  0  0  0999 V2000
    9.5096  -20.1801   19.2246 C   0  0  0  0  0  0  0  0  0  0  0  0
    9.1259  -18.7578   18.7948 C   0  0  2  0  0  0  0  0  0  0  0  0
    9.8265  -18.5189   17.5500 N   0  0  0  0  0  0  0  0  0  0  0  0
    9.5367  -17.7826   19.8093 C   0  0  0  0  0  0  0  0  0  0  0  0
   10.7479  -17.3691   19.7702 O   0  0  0  0  0  0  0  0  0  0  0  0
    7.6758  -11.6805   19.9073 N   0  0  0  0  0  0  0  0  0  0  0  0
    7.9169  -12.8473   19.1285 C   0  0  0  0  0  0  0  0  0  0  0  0
    8.4763  -12.7832   17.9834 N   0  0  0  0  0  0  0  0  0  0  0  0
    7.5182  -14.1076   19.6544 N   0  0  0  0  0  0  0  0  0  0  0  0
    6.8610  -14.2109   20.9406 C   0  0  0  0  0  0  0  0  0  0  0  0
    7.8945  -14.1811   22.0758 C   0  0  0  0  0  0  0  0  0  0  0  0
    8.0966  -15.6072   22.5164 C   0  0  0  0  0  0  0  0  0  0  0  0
    9.1494  -16.3265   21.7310 C   0  0  2  0  0  0  0  0  0  0  0  0
    8.6521  -17.2910   20.8147 N   0  0  0  0  0  0  0  0  0  0  0  0
    9.9978  -17.0638   22.7356 C   0  0  0  0  0  0  0  0  0  0  0  0
    9.6515  -18.1952   23.1939 O   0  0  0  0  0  0  0  0  0  0  0  0
    8.6754  -13.6509   17.4559 N   0  0  0  0  0  0  0  0  0  0  0  0
   16.0909  -15.9410   23.1117 C   0  0  0  0  0  0  0  0  0  0  0  0
   15.8929  -16.7034   24.2903 O   0  0  0  0  0  0  0  0  0  0  0  0
   16.8881  -16.9608   25.0117 C   0  0  0  0  0  0  0  0  0  0  0  0
   14.5596  -17.1647   24.6457 C   0  0  0  0  0  0  0  0  0  0  0  0
   13.4324  -16.7152   23.8137 C   0  0  1  0  0  0  0  0  0  0  0  0
   12.0643  -17.1928   24.1129 N   0  0  0  0  0  0  0  0  0  0  0  0
   11.1905  -16.4664   23.1574 C   0  0  0  0  0  0  0  0  0  0  0  0
   11.5467  -17.0850   25.4648 O   0  0  0  0  0  0  0  0  0  0  0  0
   10.9254  -16.0868   25.8963 O   0  0  0  0  0  0  0  0  0  0  0  0
  2  1  1  1
  2  3  1  0
  4  2  1  0
  5  4  2  0
  6  7  1  0
  7  9  1  0
  7  8  2  0
  9 10  1  0
 10 11  1  0
 11 12  1  0
 13 12  1  1
 13 14  1  0
 14  4  1  0
 15 13  1  0
 15 16  2  0
 17 18  1  0
 18 20  1  0
 19 18  2  0
 20 21  1  0
 22 21  1  6
 22 23  1  0
 23 15  1  0
 24 22  1  0
 25 24  2  0
 26 24  1  0
M  END
$$$$
