ARQ.pdb
     RDKit          3D

 26 25  0  0  1  0  0  0  0  0999 V2000
    8.5640  -12.0298   19.9729 C   0  0  0  0  0  0  0  0  0  0  0  0
    8.4728  -13.4326   19.3574 C   0  0  2  0  0  0  0  0  0  0  0  0
    7.3029  -13.4140   18.5039 N   0  0  0  0  0  0  0  0  0  0  0  0
    8.3271  -14.4481   20.4045 C   0  0  0  0  0  0  0  0  0  0  0  0
    7.1398  -14.7159   20.8020 O   0  0  0  0  0  0  0  0  0  0  0  0
   11.9397  -18.0918   17.5315 N   0  0  0  0  0  0  0  0  0  0  0  0
   10.8971  -19.0516   17.6652 C   0  0  0  0  0  0  0  0  0  0  0  0
   10.0649  -19.2707   16.7229 N   0  0  0  0  0  0  0  0  0  0  0  0
   10.7945  -19.7754   18.8856 N   0  0  0  0  0  0  0  0  0  0  0  0
   10.9168  -19.1102   20.1660 C   0  0  0  0  0  0  0  0  0  0  0  0
    9.9437  -17.9256   20.2510 C   0  0  0  0  0  0  0  0  0  0  0  0
    9.9932  -17.4242   21.6705 C   0  0  0  0  0  0  0  0  0  0  0  0
    9.1755  -16.1892   21.8917 C   0  0  2  0  0  0  0  0  0  0  0  0
    9.4387  -15.1314   20.9813 N   0  0  0  0  0  0  0  0  0  0  0  0
    9.5285  -15.6884   23.2691 C   0  0  0  0  0  0  0  0  0  0  0  0
   10.6430  -15.1309   23.5072 O   0  0  0  0  0  0  0  0  0  0  0  0
    9.2953  -19.9486   16.8601 N   0  0  0  0  0  0  0  0  0  0  0  0
    5.1993  -13.0580   26.4253 C   0  0  0  0  0  0  0  0  0  0  0  0
    6.4069  -12.3294   26.2836 O   0  0  0  0  0  0  0  0  0  0  0  0
    6.3628  -11.0764   26.3557 C   0  0  0  0  0  0  0  0  0  0  0  0
    7.6622  -13.0322   26.0663 C   0  0  0  0  0  0  0  0  0  0  0  0
    7.6173  -14.4980   25.9468 C   0  0  2  0  0  0  0  0  0  0  0  0
    8.8522  -15.2450   25.6207 N   0  0  0  0  0  0  0  0  0  0  0  0
    8.5889  -15.8536   24.2924 C   0  0  0  0  0  0  0  0  0  0  0  0
    9.3550  -16.2402   26.5501 O   0  0  0  0  0  0  0  0  0  0  0  0
    9.1362  -17.4687   26.4424 O   0  0  0  0  0  0  0  0  0  0  0  0
  2  1  1  1
  2  3  1  0
  4  2  1  0
  5  4  2  0
  6  7  1  0
  7  9  1  0
  7  8  2  0
  9 10  1  0
 10 11  1  0
 11 12  1  0
 13 12  1  6
 13 14  1  0
 14  4  1  0
 15 13  1  0
 15 16  2  0
 17 18  1  0
 18 20  1  0
 19 18  2  0
 20 21  1  0
 22 21  1  6
 22 23  1  0
 23 15  1  0
 24 22  1  0
 25 24  2  0
 26 24  1  0
M  END
$$$$
