ARQ.pdb
     RDKit          3D

 26 25  0  0  1  0  0  0  0  0999 V2000
   10.2744  -18.5328   16.1466 C   0  0  0  0  0  0  0  0  0  0  0  0
   10.6811  -19.1455   17.4936 C   0  0  2  0  0  0  0  0  0  0  0  0
    9.5808  -20.0015   17.8863 N   0  0  0  0  0  0  0  0  0  0  0  0
   10.8966  -18.0964   18.4947 C   0  0  0  0  0  0  0  0  0  0  0  0
   11.9122  -17.3329   18.3362 O   0  0  0  0  0  0  0  0  0  0  0  0
    7.3837  -12.9154   19.2858 N   0  0  0  0  0  0  0  0  0  0  0  0
    7.3452  -12.7496   20.6990 C   0  0  0  0  0  0  0  0  0  0  0  0
    7.5215  -11.6092   21.2437 N   0  0  0  0  0  0  0  0  0  0  0  0
    7.1032  -13.8936   21.5093 N   0  0  0  0  0  0  0  0  0  0  0  0
    6.8345  -15.1886   20.9196 C   0  0  0  0  0  0  0  0  0  0  0  0
    8.0461  -15.6717   20.1095 C   0  0  0  0  0  0  0  0  0  0  0  0
    9.0414  -16.2162   21.1002 C   0  0  0  0  0  0  0  0  0  0  0  0
   10.2680  -16.7851   20.4563 C   0  0  2  0  0  0  0  0  0  0  0  0
   10.0322  -17.9032   19.6130 N   0  0  0  0  0  0  0  0  0  0  0  0
   11.1570  -17.2550   21.5795 C   0  0  0  0  0  0  0  0  0  0  0  0
   10.9700  -18.3723   22.1510 O   0  0  0  0  0  0  0  0  0  0  0  0
    7.4624  -11.5128   22.2722 N   0  0  0  0  0  0  0  0  0  0  0  0
   17.1235  -15.8299   21.4727 C   0  0  0  0  0  0  0  0  0  0  0  0
   16.0829  -14.8693   21.4126 O   0  0  0  0  0  0  0  0  0  0  0  0
   16.3384  -13.7383   20.9302 C   0  0  0  0  0  0  0  0  0  0  0  0
   14.7523  -15.2034   21.8973 C   0  0  0  0  0  0  0  0  0  0  0  0
   14.5180  -16.5768   22.3704 C   0  0  1  0  0  0  0  0  0  0  0  0
   13.2063  -16.9379   22.9520 N   0  0  0  0  0  0  0  0  0  0  0  0
   12.2061  -16.4223   21.9836 C   0  0  0  0  0  0  0  0  0  0  0  0
   12.8791  -16.5146   24.3014 O   0  0  0  0  0  0  0  0  0  0  0  0
   11.9277  -15.7497   24.5811 O   0  0  0  0  0  0  0  0  0  0  0  0
  2  1  1  6
  2  3  1  0
  4  2  1  0
  5  4  2  0
  6  7  1  0
  7  9  1  0
  7  8  2  0
  9 10  1  0
 10 11  1  0
 11 12  1  0
 13 12  1  1
 13 14  1  0
 14  4  1  0
 15 13  1  0
 15 16  2  0
 17 18  1  0
 18 20  1  0
 19 18  2  0
 20 21  1  0
 22 21  1  6
 22 23  1  0
 23 15  1  0
 24 22  1  0
 25 24  2  0
 26 24  1  0
M  END
$$$$
