ARQ.pdb
     RDKit          3D

 26 25  0  0  1  0  0  0  0  0999 V2000
    7.2476  -11.8980   27.3414 C   0  0  0  0  0  0  0  0  0  0  0  0
    6.1718  -12.1214   26.2701 C   0  0  2  0  0  0  0  0  0  0  0  0
    4.9744  -12.5076   26.9875 N   0  0  0  0  0  0  0  0  0  0  0  0
    6.5779  -13.1817   25.3428 C   0  0  0  0  0  0  0  0  0  0  0  0
    6.3221  -14.3893   25.6830 O   0  0  0  0  0  0  0  0  0  0  0  0
    7.7397  -12.7332   18.2894 N   0  0  0  0  0  0  0  0  0  0  0  0
    8.0337  -14.0502   17.8365 C   0  0  0  0  0  0  0  0  0  0  0  0
    7.5806  -14.4934   16.7290 N   0  0  0  0  0  0  0  0  0  0  0  0
    8.8543  -14.8795   18.6506 N   0  0  0  0  0  0  0  0  0  0  0  0
    9.2478  -14.4709   19.9830 C   0  0  0  0  0  0  0  0  0  0  0  0
    8.1837  -14.8869   21.0087 C   0  0  0  0  0  0  0  0  0  0  0  0
    7.9142  -13.6798   21.8684 C   0  0  0  0  0  0  0  0  0  0  0  0
    7.6010  -14.0240   23.2917 C   0  0  2  0  0  0  0  0  0  0  0  0
    7.2332  -12.9181   24.1034 N   0  0  0  0  0  0  0  0  0  0  0  0
    8.8644  -14.6032   23.8756 C   0  0  0  0  0  0  0  0  0  0  0  0
    9.7614  -13.8630   24.3829 O   0  0  0  0  0  0  0  0  0  0  0  0
    7.8369  -15.4433   16.4085 N   0  0  0  0  0  0  0  0  0  0  0  0
    8.7974  -19.4621   27.3394 C   0  0  0  0  0  0  0  0  0  0  0  0
    9.7252  -18.4797   27.7677 O   0  0  0  0  0  0  0  0  0  0  0  0
   10.1072  -18.4972   28.9639 C   0  0  0  0  0  0  0  0  0  0  0  0
   10.2194  -17.4840   26.8289 C   0  0  0  0  0  0  0  0  0  0  0  0
    9.7539  -17.5628   25.4353 C   0  0  2  0  0  0  0  0  0  0  0  0
   10.2523  -16.5881   24.4399 N   0  0  0  0  0  0  0  0  0  0  0  0
    9.0291  -15.9923   23.8458 C   0  0  0  0  0  0  0  0  0  0  0  0
   11.1653  -17.0276   23.4006 O   0  0  0  0  0  0  0  0  0  0  0  0
   10.7955  -17.4777   22.2919 O   0  0  0  0  0  0  0  0  0  0  0  0
  2  1  1  1
  2  3  1  0
  4  2  1  0
  5  4  2  0
  6  7  1  0
  7  9  1  0
  7  8  2  0
  9 10  1  0
 10 11  1  0
 11 12  1  0
 13 12  1  6
 13 14  1  0
 14  4  1  0
 15 13  1  0
 15 16  2  0
 17 18  1  0
 18 20  1  0
 19 18  2  0
 20 21  1  0
 22 21  1  1
 22 23  1  0
 23 15  1  0
 24 22  1  0
 25 24  2  0
 26 24  1  0
M  END
$$$$
