ARQ.pdb
     RDKit          3D

 26 25  0  0  1  0  0  0  0  0999 V2000
   13.1516  -19.5682   20.7519 C   0  0  0  0  0  0  0  0  0  0  0  0
   12.7145  -18.2446   20.1099 C   0  0  2  0  0  0  0  0  0  0  0  0
   13.9150  -17.6648   19.5441 N   0  0  0  0  0  0  0  0  0  0  0  0
   12.1374  -17.3479   21.1159 C   0  0  0  0  0  0  0  0  0  0  0  0
   12.9500  -16.6395   21.8067 O   0  0  0  0  0  0  0  0  0  0  0  0
    8.1217  -14.9410   18.1699 N   0  0  0  0  0  0  0  0  0  0  0  0
    7.5301  -13.6891   18.4994 C   0  0  0  0  0  0  0  0  0  0  0  0
    7.5258  -12.7140   17.6763 N   0  0  0  0  0  0  0  0  0  0  0  0
    6.9334  -13.5381   19.7821 N   0  0  0  0  0  0  0  0  0  0  0  0
    7.1887  -14.4870   20.8457 C   0  0  0  0  0  0  0  0  0  0  0  0
    8.6771  -14.8617   20.8855 C   0  0  0  0  0  0  0  0  0  0  0  0
    8.8534  -15.8176   22.0361 C   0  0  0  0  0  0  0  0  0  0  0  0
   10.2750  -16.2410   22.2424 C   0  0  2  0  0  0  0  0  0  0  0  0
   10.7333  -17.2414   21.3445 N   0  0  0  0  0  0  0  0  0  0  0  0
   10.3463  -16.8236   23.6310 C   0  0  0  0  0  0  0  0  0  0  0  0
   10.4024  -18.0764   23.8232 O   0  0  0  0  0  0  0  0  0  0  0  0
    7.1819  -11.7854   17.9765 N   0  0  0  0  0  0  0  0  0  0  0  0
   10.2213  -13.0156   28.6718 C   0  0  0  0  0  0  0  0  0  0  0  0
   10.3296  -14.2959   29.2706 O   0  0  0  0  0  0  0  0  0  0  0  0
   10.3245  -14.3736   30.5240 C   0  0  0  0  0  0  0  0  0  0  0  0
   10.4370  -15.4843   28.4380 C   0  0  0  0  0  0  0  0  0  0  0  0
   10.4094  -15.3053   26.9779 C   0  0  1  0  0  0  0  0  0  0  0  0
   10.4525  -16.4905   26.0931 N   0  0  0  0  0  0  0  0  0  0  0  0
   10.3495  -15.9419   24.7174 C   0  0  0  0  0  0  0  0  0  0  0  0
    9.4982  -17.5666   26.2888 O   0  0  0  0  0  0  0  0  0  0  0  0
    8.3433  -17.5714   25.8042 O   0  0  0  0  0  0  0  0  0  0  0  0
  2  1  1  1
  2  3  1  0
  4  2  1  0
  5  4  2  0
  6  7  1  0
  7  9  1  0
  7  8  2  0
  9 10  1  0
 10 11  1  0
 11 12  1  0
 13 12  1  6
 13 14  1  0
 14  4  1  0
 15 13  1  0
 15 16  2  0
 17 18  1  0
 18 20  1  0
 19 18  2  0
 20 21  1  0
 22 21  1  6
 22 23  1  0
 23 15  1  0
 24 22  1  0
 25 24  2  0
 26 24  1  0
M  END
$$$$
