ARQ.pdb
     RDKit          3D

 26 25  0  0  1  0  0  0  0  0999 V2000
    7.2664  -18.8002   27.6206 C   0  0  0  0  0  0  0  0  0  0  0  0
    6.6463  -19.1923   26.2728 C   0  0  2  0  0  0  0  0  0  0  0  0
    6.7838  -20.6309   26.1785 N   0  0  0  0  0  0  0  0  0  0  0  0
    7.3529  -18.5366   25.1683 C   0  0  0  0  0  0  0  0  0  0  0  0
    8.3829  -19.1315   24.6943 O   0  0  0  0  0  0  0  0  0  0  0  0
    8.1996  -12.2338   20.1424 N   0  0  0  0  0  0  0  0  0  0  0  0
    7.7108  -13.2171   19.2367 C   0  0  0  0  0  0  0  0  0  0  0  0
    8.0172  -13.1967   17.9981 N   0  0  0  0  0  0  0  0  0  0  0  0
    6.8610  -14.2404   19.7411 N   0  0  0  0  0  0  0  0  0  0  0  0
    7.3998  -15.3840   20.4475 C   0  0  0  0  0  0  0  0  0  0  0  0
    7.9648  -14.9565   21.8097 C   0  0  0  0  0  0  0  0  0  0  0  0
    7.0801  -15.5750   22.8600 C   0  0  0  0  0  0  0  0  0  0  0  0
    7.7225  -16.7236   23.5747 C   0  0  2  0  0  0  0  0  0  0  0  0
    6.9401  -17.2870   24.6176 N   0  0  0  0  0  0  0  0  0  0  0  0
    8.9793  -16.1805   24.2056 C   0  0  0  0  0  0  0  0  0  0  0  0
    8.9916  -15.7547   25.4007 O   0  0  0  0  0  0  0  0  0  0  0  0
    7.6325  -13.9134   17.3585 N   0  0  0  0  0  0  0  0  0  0  0  0
   11.4897  -19.6789   26.6567 C   0  0  0  0  0  0  0  0  0  0  0  0
   11.7043  -18.4116   27.2545 O   0  0  0  0  0  0  0  0  0  0  0  0
   11.8821  -18.3572   28.4964 C   0  0  0  0  0  0  0  0  0  0  0  0
   11.7215  -17.2107   26.4331 C   0  0  0  0  0  0  0  0  0  0  0  0
   11.4262  -17.3548   24.9989 C   0  0  2  0  0  0  0  0  0  0  0  0
   11.4646  -16.1654   24.1196 N   0  0  0  0  0  0  0  0  0  0  0  0
   10.1471  -16.1558   23.4354 C   0  0  0  0  0  0  0  0  0  0  0  0
   12.5425  -16.0185   23.1585 O   0  0  0  0  0  0  0  0  0  0  0  0
   12.4222  -16.2534   21.9342 O   0  0  0  0  0  0  0  0  0  0  0  0
  2  1  1  1
  2  3  1  0
  4  2  1  0
  5  4  2  0
  6  7  1  0
  7  9  1  0
  7  8  2  0
  9 10  1  0
 10 11  1  0
 11 12  1  0
 13 12  1  1
 13 14  1  0
 14  4  1  0
 15 13  1  0
 15 16  2  0
 17 18  1  0
 18 20  1  0
 19 18  2  0
 20 21  1  0
 22 21  1  1
 22 23  1  0
 23 15  1  0
 24 22  1  0
 25 24  2  0
 26 24  1  0
M  END
$$$$
