ARQ.pdb
     RDKit          3D

 26 25  0  0  1  0  0  0  0  0999 V2000
    5.7211  -20.6467   24.7598 C   0  0  0  0  0  0  0  0  0  0  0  0
    6.8383  -19.7326   25.2804 C   0  0  2  0  0  0  0  0  0  0  0  0
    6.2077  -18.8400   26.2307 N   0  0  0  0  0  0  0  0  0  0  0  0
    7.4370  -18.9701   24.1807 C   0  0  0  0  0  0  0  0  0  0  0  0
    8.1327  -19.6209   23.3252 O   0  0  0  0  0  0  0  0  0  0  0  0
    8.2589  -11.6105   19.7619 N   0  0  0  0  0  0  0  0  0  0  0  0
    8.0956  -12.6757   18.8320 C   0  0  0  0  0  0  0  0  0  0  0  0
    8.5835  -12.6162   17.6544 N   0  0  0  0  0  0  0  0  0  0  0  0
    7.3681  -13.8275   19.2418 N   0  0  0  0  0  0  0  0  0  0  0  0
    7.0298  -14.0469   20.6326 C   0  0  0  0  0  0  0  0  0  0  0  0
    7.9784  -15.0785   21.2599 C   0  0  0  0  0  0  0  0  0  0  0  0
    7.1961  -15.7928   22.3306 C   0  0  0  0  0  0  0  0  0  0  0  0
    7.9557  -16.9125   22.9723 C   0  0  2  0  0  0  0  0  0  0  0  0
    7.2735  -17.5603   24.0363 N   0  0  0  0  0  0  0  0  0  0  0  0
    9.2045  -16.2993   23.5531 C   0  0  0  0  0  0  0  0  0  0  0  0
   10.0480  -15.6942   22.8237 O   0  0  0  0  0  0  0  0  0  0  0  0
    8.4316  -13.3964   16.9919 N   0  0  0  0  0  0  0  0  0  0  0  0
    9.6720  -14.7711   29.5643 C   0  0  0  0  0  0  0  0  0  0  0  0
    9.0614  -14.0748   28.4912 O   0  0  0  0  0  0  0  0  0  0  0  0
    8.2408  -13.1625   28.7584 C   0  0  0  0  0  0  0  0  0  0  0  0
    9.3933  -14.4168   27.1164 C   0  0  0  0  0  0  0  0  0  0  0  0
   10.3469  -15.5146   26.8924 C   0  0  2  0  0  0  0  0  0  0  0  0
   10.6900  -15.9168   25.5104 N   0  0  0  0  0  0  0  0  0  0  0  0
    9.4162  -16.4130   24.9314 C   0  0  0  0  0  0  0  0  0  0  0  0
   11.7611  -16.8705   25.2861 O   0  0  0  0  0  0  0  0  0  0  0  0
   12.9580  -16.5466   25.1098 O   0  0  0  0  0  0  0  0  0  0  0  0
  2  1  1  6
  2  3  1  0
  4  2  1  0
  5  4  2  0
  6  7  1  0
  7  9  1  0
  7  8  2  0
  9 10  1  0
 10 11  1  0
 11 12  1  0
 13 12  1  1
 13 14  1  0
 14  4  1  0
 15 13  1  0
 15 16  2  0
 17 18  1  0
 18 20  1  0
 19 18  2  0
 20 21  1  0
 22 21  1  6
 22 23  1  0
 23 15  1  0
 24 22  1  0
 25 24  2  0
 26 24  1  0
M  END
$$$$
