ARQ.pdb
     RDKit          3D

 26 25  0  0  1  0  0  0  0  0999 V2000
    3.9945  -19.1305   23.0398 C   0  0  0  0  0  0  0  0  0  0  0  0
    4.7122  -18.7755   21.7306 C   0  0  2  0  0  0  0  0  0  0  0  0
    4.9997  -20.0385   21.0829 N   0  0  0  0  0  0  0  0  0  0  0  0
    5.9537  -18.0452   22.0032 C   0  0  0  0  0  0  0  0  0  0  0  0
    6.9970  -18.7385   22.2686 O   0  0  0  0  0  0  0  0  0  0  0  0
    9.8942  -13.5229   18.6788 N   0  0  0  0  0  0  0  0  0  0  0  0
    8.6611  -13.1000   18.1073 C   0  0  0  0  0  0  0  0  0  0  0  0
    8.4009  -13.2786   16.8709 N   0  0  0  0  0  0  0  0  0  0  0  0
    7.7067  -12.4641   18.9491 N   0  0  0  0  0  0  0  0  0  0  0  0
    7.6102  -12.7914   20.3564 C   0  0  0  0  0  0  0  0  0  0  0  0
    7.6284  -14.3136   20.5564 C   0  0  0  0  0  0  0  0  0  0  0  0
    7.3764  -14.5620   22.0205 C   0  0  0  0  0  0  0  0  0  0  0  0
    7.2621  -16.0151   22.3640 C   0  0  2  0  0  0  0  0  0  0  0  0
    6.0354  -16.6211   21.9829 N   0  0  0  0  0  0  0  0  0  0  0  0
    7.3540  -16.1040   23.8661 C   0  0  0  0  0  0  0  0  0  0  0  0
    6.3187  -16.0607   24.5982 O   0  0  0  0  0  0  0  0  0  0  0  0
    7.5166  -12.9190   16.4715 N   0  0  0  0  0  0  0  0  0  0  0  0
    6.5007  -20.3592   26.0934 C   0  0  0  0  0  0  0  0  0  0  0  0
    7.1272  -19.8735   27.2686 O   0  0  0  0  0  0  0  0  0  0  0  0
    7.0367  -20.5533   28.3207 C   0  0  0  0  0  0  0  0  0  0  0  0
    7.8604  -18.6171   27.2388 C   0  0  0  0  0  0  0  0  0  0  0  0
    7.9363  -17.8959   25.9586 C   0  0  1  0  0  0  0  0  0  0  0  0
    8.7287  -16.6499   25.8652 N   0  0  0  0  0  0  0  0  0  0  0  0
    8.6216  -16.2369   24.4432 C   0  0  0  0  0  0  0  0  0  0  0  0
   10.1146  -16.6473   26.2968 O   0  0  0  0  0  0  0  0  0  0  0  0
   11.0894  -16.5921   25.5124 O   0  0  0  0  0  0  0  0  0  0  0  0
  2  1  1  1
  2  3  1  0
  4  2  1  0
  5  4  2  0
  6  7  1  0
  7  9  1  0
  7  8  2  0
  9 10  1  0
 10 11  1  0
 11 12  1  0
 13 12  1  1
 13 14  1  0
 14  4  1  0
 15 13  1  0
 15 16  2  0
 17 18  1  0
 18 20  1  0
 19 18  2  0
 20 21  1  0
 22 21  1  1
 22 23  1  0
 23 15  1  0
 24 22  1  0
 25 24  2  0
 26 24  1  0
M  END
$$$$
