ARQ.pdb
     RDKit          3D

 26 25  0  0  1  0  0  0  0  0999 V2000
    6.7394  -18.6499   25.5009 C   0  0  0  0  0  0  0  0  0  0  0  0
    6.2481  -18.6469   24.0471 C   0  0  2  0  0  0  0  0  0  0  0  0
    6.2030  -20.0368   23.6426 N   0  0  0  0  0  0  0  0  0  0  0  0
    7.1699  -17.8939   23.1914 C   0  0  0  0  0  0  0  0  0  0  0  0
    8.1632  -18.5310   22.6944 O   0  0  0  0  0  0  0  0  0  0  0  0
    9.2630  -14.2433   17.9584 N   0  0  0  0  0  0  0  0  0  0  0  0
    8.0768  -13.7744   17.3265 C   0  0  0  0  0  0  0  0  0  0  0  0
    7.9084  -13.8700   16.0652 N   0  0  0  0  0  0  0  0  0  0  0  0
    7.0644  -13.1876   18.1356 N   0  0  0  0  0  0  0  0  0  0  0  0
    7.1569  -13.1993   19.5806 C   0  0  0  0  0  0  0  0  0  0  0  0
    7.7779  -14.5160   20.0685 C   0  0  0  0  0  0  0  0  0  0  0  0
    7.6231  -14.5401   21.5665 C   0  0  0  0  0  0  0  0  0  0  0  0
    8.0299  -15.8426   22.1835 C   0  0  2  0  0  0  0  0  0  0  0  0
    7.0004  -16.5074   22.9013 N   0  0  0  0  0  0  0  0  0  0  0  0
    9.1233  -15.5208   23.1704 C   0  0  0  0  0  0  0  0  0  0  0  0
    8.8639  -15.0354   24.3135 O   0  0  0  0  0  0  0  0  0  0  0  0
    7.0611  -13.4711   15.6251 N   0  0  0  0  0  0  0  0  0  0  0  0
   10.0401  -18.8257   26.6332 C   0  0  0  0  0  0  0  0  0  0  0  0
   11.2215  -18.1142   26.9612 O   0  0  0  0  0  0  0  0  0  0  0  0
   11.8233  -18.4090   28.0232 C   0  0  0  0  0  0  0  0  0  0  0  0
   11.7164  -17.0727   26.0737 C   0  0  0  0  0  0  0  0  0  0  0  0
   10.9493  -16.7907   24.8503 C   0  0  2  0  0  0  0  0  0  0  0  0
   11.4940  -15.8531   23.8435 N   0  0  0  0  0  0  0  0  0  0  0  0
   10.4472  -15.7719   22.7939 C   0  0  0  0  0  0  0  0  0  0  0  0
   12.7941  -16.1119   23.2519 O   0  0  0  0  0  0  0  0  0  0  0  0
   12.9562  -16.5945   22.1077 O   0  0  0  0  0  0  0  0  0  0  0  0
  2  1  1  1
  2  3  1  0
  4  2  1  0
  5  4  2  0
  6  7  1  0
  7  9  1  0
  7  8  2  0
  9 10  1  0
 10 11  1  0
 11 12  1  0
 13 12  1  1
 13 14  1  0
 14  4  1  0
 15 13  1  0
 15 16  2  0
 17 18  1  0
 18 20  1  0
 19 18  2  0
 20 21  1  0
 22 21  1  1
 22 23  1  0
 23 15  1  0
 24 22  1  0
 25 24  2  0
 26 24  1  0
M  END
$$$$
