ARQ.pdb
     RDKit          3D

 26 25  0  0  1  0  0  0  0  0999 V2000
    7.8063  -11.9352   18.8406 C   0  0  0  0  0  0  0  0  0  0  0  0
    8.3871  -13.3552   18.8761 C   0  0  2  0  0  0  0  0  0  0  0  0
    7.3542  -14.2177   18.3406 N   0  0  0  0  0  0  0  0  0  0  0  0
    8.7180  -13.7442   20.2502 C   0  0  0  0  0  0  0  0  0  0  0  0
    9.8281  -13.3226   20.7290 O   0  0  0  0  0  0  0  0  0  0  0  0
    7.0468  -19.2026   23.3846 N   0  0  0  0  0  0  0  0  0  0  0  0
    7.4996  -19.3356   24.7275 C   0  0  0  0  0  0  0  0  0  0  0  0
    8.0691  -20.4007   25.1389 N   0  0  0  0  0  0  0  0  0  0  0  0
    7.3044  -18.2447   25.6197 N   0  0  0  0  0  0  0  0  0  0  0  0
    6.7595  -16.9850   25.1581 C   0  0  0  0  0  0  0  0  0  0  0  0
    7.8552  -16.1351   24.4989 C   0  0  0  0  0  0  0  0  0  0  0  0
    7.3234  -15.7066   23.1565 C   0  0  0  0  0  0  0  0  0  0  0  0
    8.3163  -14.9331   22.3450 C   0  0  2  0  0  0  0  0  0  0  0  0
    7.8637  -14.5580   21.0521 N   0  0  0  0  0  0  0  0  0  0  0  0
    9.5055  -15.8398   22.1539 C   0  0  0  0  0  0  0  0  0  0  0  0
    9.6180  -16.5801   21.1297 O   0  0  0  0  0  0  0  0  0  0  0  0
    8.3352  -20.4933   26.1345 N   0  0  0  0  0  0  0  0  0  0  0  0
   13.1971  -14.1067   19.4089 C   0  0  0  0  0  0  0  0  0  0  0  0
   14.1038  -15.0027   20.0289 O   0  0  0  0  0  0  0  0  0  0  0  0
   15.2205  -15.1953   19.4876 C   0  0  0  0  0  0  0  0  0  0  0  0
   13.7367  -15.6716   21.2678 C   0  0  0  0  0  0  0  0  0  0  0  0
   12.3668  -15.4833   21.7706 C   0  0  1  0  0  0  0  0  0  0  0  0
   11.8391  -16.3875   22.8161 N   0  0  0  0  0  0  0  0  0  0  0  0
   10.4952  -15.8476   23.1428 C   0  0  0  0  0  0  0  0  0  0  0  0
   12.6094  -16.6119   24.0258 O   0  0  0  0  0  0  0  0  0  0  0  0
   13.6647  -17.2851   24.0659 O   0  0  0  0  0  0  0  0  0  0  0  0
  2  1  1  1
  2  3  1  0
  4  2  1  0
  5  4  2  0
  6  7  1  0
  7  9  1  0
  7  8  2  0
  9 10  1  0
 10 11  1  0
 11 12  1  0
 13 12  1  6
 13 14  1  0
 14  4  1  0
 15 13  1  0
 15 16  2  0
 17 18  1  0
 18 20  1  0
 19 18  2  0
 20 21  1  0
 22 21  1  6
 22 23  1  0
 23 15  1  0
 24 22  1  0
 25 24  2  0
 26 24  1  0
M  END
$$$$
