ARQ.pdb
     RDKit          3D

 26 25  0  0  1  0  0  0  0  0999 V2000
    6.6059  -18.7471   25.9905 C   0  0  0  0  0  0  0  0  0  0  0  0
    6.2429  -18.7458   24.4995 C   0  0  2  0  0  0  0  0  0  0  0  0
    6.2520  -20.1348   24.0896 N   0  0  0  0  0  0  0  0  0  0  0  0
    7.2254  -17.9777   23.7288 C   0  0  0  0  0  0  0  0  0  0  0  0
    8.2800  -18.5928   23.3429 O   0  0  0  0  0  0  0  0  0  0  0  0
    7.8627  -13.4997   16.4082 N   0  0  0  0  0  0  0  0  0  0  0  0
    8.0935  -13.3830   17.8079 C   0  0  0  0  0  0  0  0  0  0  0  0
    9.2728  -13.4000   18.2950 N   0  0  0  0  0  0  0  0  0  0  0  0
    6.9709  -13.2447   18.6707 N   0  0  0  0  0  0  0  0  0  0  0  0
    7.1212  -13.2802   20.1106 C   0  0  0  0  0  0  0  0  0  0  0  0
    7.6942  -14.6326   20.5577 C   0  0  0  0  0  0  0  0  0  0  0  0
    7.6732  -14.6363   22.0638 C   0  0  0  0  0  0  0  0  0  0  0  0
    8.0704  -15.9519   22.6588 C   0  0  2  0  0  0  0  0  0  0  0  0
    7.0489  -16.6002   23.4027 N   0  0  0  0  0  0  0  0  0  0  0  0
    9.1997  -15.6611   23.6143 C   0  0  0  0  0  0  0  0  0  0  0  0
    8.9806  -15.2880   24.8070 O   0  0  0  0  0  0  0  0  0  0  0  0
    9.4095  -13.3599   19.3199 N   0  0  0  0  0  0  0  0  0  0  0  0
    9.6316  -17.2964   27.2082 C   0  0  0  0  0  0  0  0  0  0  0  0
   10.9718  -17.7576   27.2297 O   0  0  0  0  0  0  0  0  0  0  0  0
   11.4997  -18.0137   28.3401 C   0  0  0  0  0  0  0  0  0  0  0  0
   11.7040  -17.9312   25.9844 C   0  0  0  0  0  0  0  0  0  0  0  0
   11.0777  -17.4441   24.7454 C   0  0  2  0  0  0  0  0  0  0  0  0
   11.5752  -16.2032   24.1114 N   0  0  0  0  0  0  0  0  0  0  0  0
   10.5113  -15.8135   23.1520 C   0  0  0  0  0  0  0  0  0  0  0  0
   12.8750  -16.1994   23.4650 O   0  0  0  0  0  0  0  0  0  0  0  0
   13.0561  -16.4932   22.2611 O   0  0  0  0  0  0  0  0  0  0  0  0
  2  1  1  1
  2  3  1  0
  4  2  1  0
  5  4  2  0
  6  7  1  0
  7  9  1  0
  7  8  2  0
  9 10  1  0
 10 11  1  0
 11 12  1  0
 13 12  1  1
 13 14  1  0
 14  4  1  0
 15 13  1  0
 15 16  2  0
 17 18  1  0
 18 20  1  0
 19 18  2  0
 20 21  1  0
 22 21  1  1
 22 23  1  0
 23 15  1  0
 24 22  1  0
 25 24  2  0
 26 24  1  0
M  END
$$$$
