ARQ.pdb
     RDKit          3D

 26 25  0  0  1  0  0  0  0  0999 V2000
    7.1250  -12.5165   19.2782 C   0  0  0  0  0  0  0  0  0  0  0  0
    8.3310  -13.2979   19.8166 C   0  0  2  0  0  0  0  0  0  0  0  0
    8.7178  -14.2064   18.7571 N   0  0  0  0  0  0  0  0  0  0  0  0
    7.9660  -14.0447   21.0241 C   0  0  0  0  0  0  0  0  0  0  0  0
    7.5386  -13.3704   22.0251 O   0  0  0  0  0  0  0  0  0  0  0  0
    7.0375  -22.5763   23.1229 N   0  0  0  0  0  0  0  0  0  0  0  0
    5.8826  -21.8094   23.4454 C   0  0  0  0  0  0  0  0  0  0  0  0
    4.7368  -22.3529   23.5868 N   0  0  0  0  0  0  0  0  0  0  0  0
    6.0268  -20.4037   23.6106 N   0  0  0  0  0  0  0  0  0  0  0  0
    7.2931  -19.7448   23.3671 C   0  0  0  0  0  0  0  0  0  0  0  0
    7.1517  -18.2264   23.5463 C   0  0  0  0  0  0  0  0  0  0  0  0
    7.6270  -17.5921   22.2656 C   0  0  0  0  0  0  0  0  0  0  0  0
    7.5772  -16.0956   22.2913 C   0  0  2  0  0  0  0  0  0  0  0  0
    8.0690  -15.4645   21.1179 N   0  0  0  0  0  0  0  0  0  0  0  0
    8.4609  -15.6618   23.4330 C   0  0  0  0  0  0  0  0  0  0  0  0
    9.7038  -15.4637   23.2722 O   0  0  0  0  0  0  0  0  0  0  0  0
    3.9175  -21.7738   23.8397 N   0  0  0  0  0  0  0  0  0  0  0  0
    7.0539  -10.9333   26.6067 C   0  0  0  0  0  0  0  0  0  0  0  0
    6.2865  -12.0709   26.9622 O   0  0  0  0  0  0  0  0  0  0  0  0
    5.1463  -11.8937   27.4579 C   0  0  0  0  0  0  0  0  0  0  0  0
    6.8192  -13.4074   26.7456 C   0  0  0  0  0  0  0  0  0  0  0  0
    8.0745  -13.5324   25.9882 C   0  0  1  0  0  0  0  0  0  0  0  0
    8.6750  -14.8686   25.7802 N   0  0  0  0  0  0  0  0  0  0  0  0
    7.8739  -15.4799   24.6899 C   0  0  0  0  0  0  0  0  0  0  0  0
    8.7968  -15.7826   26.9013 O   0  0  0  0  0  0  0  0  0  0  0  0
    9.4520  -15.5309   27.9385 O   0  0  0  0  0  0  0  0  0  0  0  0
  2  1  1  6
  2  3  1  0
  4  2  1  0
  5  4  2  0
  6  7  1  0
  7  9  1  0
  7  8  2  0
  9 10  1  0
 10 11  1  0
 11 12  1  0
 13 12  1  6
 13 14  1  0
 14  4  1  0
 15 13  1  0
 15 16  2  0
 17 18  1  0
 18 20  1  0
 19 18  2  0
 20 21  1  0
 22 21  1  6
 22 23  1  0
 23 15  1  0
 24 22  1  0
 25 24  2  0
 26 24  1  0
M  END
$$$$
