ARQ.pdb
     RDKit          3D

 26 25  0  0  1  0  0  0  0  0999 V2000
    6.7568  -13.1038   18.9096 C   0  0  0  0  0  0  0  0  0  0  0  0
    8.1323  -13.2954   19.5622 C   0  0  2  0  0  0  0  0  0  0  0  0
    9.0282  -13.6774   18.4903 N   0  0  0  0  0  0  0  0  0  0  0  0
    8.0782  -14.3457   20.5835 C   0  0  0  0  0  0  0  0  0  0  0  0
    7.2272  -14.2021   21.5293 O   0  0  0  0  0  0  0  0  0  0  0  0
   10.5583  -18.7952   17.0759 N   0  0  0  0  0  0  0  0  0  0  0  0
    9.7757  -19.9718   17.2464 C   0  0  0  0  0  0  0  0  0  0  0  0
    9.3835  -20.6646   16.2492 N   0  0  0  0  0  0  0  0  0  0  0  0
    9.4311  -20.3710   18.5678 N   0  0  0  0  0  0  0  0  0  0  0  0
    9.8806  -19.6192   19.7209 C   0  0  0  0  0  0  0  0  0  0  0  0
    8.9512  -18.4247   19.9791 C   0  0  0  0  0  0  0  0  0  0  0  0
    9.3996  -17.7976   21.2730 C   0  0  0  0  0  0  0  0  0  0  0  0
    8.7346  -16.4864   21.5579 C   0  0  2  0  0  0  0  0  0  0  0  0
    8.9228  -15.4951   20.5584 N   0  0  0  0  0  0  0  0  0  0  0  0
    9.3576  -15.9622   22.8267 C   0  0  0  0  0  0  0  0  0  0  0  0
   10.4772  -15.3655   22.8192 O   0  0  0  0  0  0  0  0  0  0  0  0
    8.8273  -21.5236   16.4031 N   0  0  0  0  0  0  0  0  0  0  0  0
    6.0216  -12.3724   25.7531 C   0  0  0  0  0  0  0  0  0  0  0  0
    7.0355  -12.4818   26.7377 O   0  0  0  0  0  0  0  0  0  0  0  0
    7.0066  -11.6967   27.7174 C   0  0  0  0  0  0  0  0  0  0  0  0
    8.0758  -13.4904   26.6051 C   0  0  0  0  0  0  0  0  0  0  0  0
    8.0038  -14.4047   25.4546 C   0  0  1  0  0  0  0  0  0  0  0  0
    9.0865  -15.3882   25.2312 N   0  0  0  0  0  0  0  0  0  0  0  0
    8.6658  -16.1500   24.0283 C   0  0  0  0  0  0  0  0  0  0  0  0
    9.4678  -16.2908   26.3022 O   0  0  0  0  0  0  0  0  0  0  0  0
    9.0509  -17.4673   26.4045 O   0  0  0  0  0  0  0  0  0  0  0  0
  2  1  1  6
  2  3  1  0
  4  2  1  0
  5  4  2  0
  6  7  1  0
  7  9  1  0
  7  8  2  0
  9 10  1  0
 10 11  1  0
 11 12  1  0
 13 12  1  6
 13 14  1  0
 14  4  1  0
 15 13  1  0
 15 16  2  0
 17 18  1  0
 18 20  1  0
 19 18  2  0
 20 21  1  0
 22 21  1  6
 22 23  1  0
 23 15  1  0
 24 22  1  0
 25 24  2  0
 26 24  1  0
M  END
$$$$
