CFW.pdb
     RDKit          3D

 32 34  0  0  1  0  0  0  0  0999 V2000
   28.5259  -21.4842  -16.1594 N   0  0  0  0  0  0  0  0  0  0  0  0
   28.7957  -20.6632  -15.0175 C   0  0  1  0  0  0  0  0  0  0  0  0
   28.6522  -19.1971  -15.3467 C   0  0  0  0  0  0  0  0  0  0  0  0
   26.8912  -18.8669  -15.6651 S   0  0  0  0  0  0  0  0  0  0  0  0
   27.9588  -21.0892  -13.8901 C   0  0  0  0  0  0  0  0  0  0  0  0
   26.8950  -21.7155  -14.1117 O   0  0  0  0  0  0  0  0  0  0  0  0
   28.2850  -20.8305  -12.5262 N   0  0  0  0  0  0  0  0  0  0  0  0
   27.4347  -21.2739  -11.4241 C   0  0  1  0  0  0  0  0  0  0  0  0
   28.2046  -21.4254  -10.1511 C   0  0  0  0  0  0  0  0  0  0  0  0
   27.4636  -20.8960   -8.9717 C   0  0  0  0  0  0  0  0  0  0  0  0
   26.3791  -21.5860   -8.4640 C   0  0  0  0  0  0  0  0  0  0  0  0
   25.6712  -21.1259   -7.3726 C   0  0  0  0  0  0  0  0  0  0  0  0
   26.0154  -19.9517   -6.7366 C   0  0  0  0  0  0  0  0  0  0  0  0
   27.0972  -19.2569   -7.2378 C   0  0  0  0  0  0  0  0  0  0  0  0
   27.8018  -19.7228   -8.3306 C   0  0  0  0  0  0  0  0  0  0  0  0
   26.2988  -20.3178  -11.2856 C   0  0  0  0  0  0  0  0  0  0  0  0
   26.4949  -19.0908  -11.5048 O   0  0  0  0  0  0  0  0  0  0  0  0
   25.0107  -20.7302  -10.9184 N   0  0  0  0  0  0  0  0  0  0  0  0
   23.7832  -20.1153  -11.4841 C   0  0  1  0  0  0  0  0  0  0  0  0
   23.8123  -20.4933  -12.9354 C   0  0  0  0  0  0  0  0  0  0  0  0
   22.6763  -20.0872  -13.7571 C   0  0  0  0  0  0  0  0  0  0  0  0
   22.2531  -18.7644  -13.8920 C   0  0  0  0  0  0  0  0  0  0  0  0
   21.1703  -18.7577  -14.6810 N   0  0  0  0  0  0  0  0  0  0  0  0
   20.8930  -20.0083  -15.0486 C   0  0  0  0  0  0  0  0  0  0  0  0
   19.9120  -20.5597  -15.8570 C   0  0  0  0  0  0  0  0  0  0  0  0
   19.8231  -21.9038  -16.1204 C   0  0  0  0  0  0  0  0  0  0  0  0
   20.7694  -22.7291  -15.5400 C   0  0  0  0  0  0  0  0  0  0  0  0
   21.7537  -22.2369  -14.7369 C   0  0  0  0  0  0  0  0  0  0  0  0
   21.8185  -20.8738  -14.4876 C   0  0  0  0  0  0  0  0  0  0  0  0
   22.5924  -20.6334  -10.8157 C   0  0  0  0  0  0  0  0  0  0  0  0
   22.5775  -21.8796  -10.5156 O   0  0  0  0  0  0  0  0  0  0  0  0
   21.4771  -19.9302  -10.4633 O   0  0  0  0  0  0  0  0  0  0  0  0
  2  1  1  6
  3  2  1  0
  4  3  1  0
  5  2  1  0
  6  5  2  0
  7  5  1  0
  8  7  1  0
  8  9  1  1
 10  9  1  0
 11 10  2  0
 12 11  1  0
 13 12  2  0
 13 14  1  0
 14 15  2  0
 15 10  1  0
 16 18  1  0
 16  8  1  0
 17 16  2  0
 19 18  1  0
 19 30  1  0
 19 20  1  6
 21 22  2  0
 21 20  1  0
 23 22  1  0
 24 29  2  0
 24 23  1  0
 25 24  1  0
 26 27  1  0
 26 25  2  0
 27 28  2  0
 28 29  1  0
 29 21  1  0
 30 32  1  0
 31 30  2  0
M  END
$$$$
