CFW.pdb
     RDKit          3D

 32 34  0  0  1  0  0  0  0  0999 V2000
   23.9129  -13.4849  -18.0830 N   0  0  0  0  0  0  0  0  0  0  0  0
   23.0117  -14.2200  -17.2475 C   0  0  1  0  0  0  0  0  0  0  0  0
   21.6150  -14.2316  -17.8197 C   0  0  0  0  0  0  0  0  0  0  0  0
   20.8988  -12.5765  -17.5759 S   0  0  0  0  0  0  0  0  0  0  0  0
   23.5479  -15.5630  -16.9988 C   0  0  0  0  0  0  0  0  0  0  0  0
   24.0318  -16.2215  -17.9503 O   0  0  0  0  0  0  0  0  0  0  0  0
   23.5541  -16.1824  -15.7144 N   0  0  0  0  0  0  0  0  0  0  0  0
   24.0403  -17.5445  -15.5085 C   0  0  1  0  0  0  0  0  0  0  0  0
   25.1755  -17.5911  -14.5362 C   0  0  0  0  0  0  0  0  0  0  0  0
   26.3966  -16.9124  -15.0544 C   0  0  0  0  0  0  0  0  0  0  0  0
   27.2804  -17.5957  -15.8682 C   0  0  0  0  0  0  0  0  0  0  0  0
   28.4196  -16.9981  -16.3669 C   0  0  0  0  0  0  0  0  0  0  0  0
   28.7292  -15.6864  -16.0745 C   0  0  0  0  0  0  0  0  0  0  0  0
   27.8516  -14.9975  -15.2624 C   0  0  0  0  0  0  0  0  0  0  0  0
   26.7128  -15.6014  -14.7664 C   0  0  0  0  0  0  0  0  0  0  0  0
   22.8954  -18.3983  -15.0797 C   0  0  0  0  0  0  0  0  0  0  0  0
   22.2218  -18.0637  -14.0666 O   0  0  0  0  0  0  0  0  0  0  0  0
   22.5338  -19.5678  -15.7620 N   0  0  0  0  0  0  0  0  0  0  0  0
   21.2598  -20.2842  -15.5004 C   0  0  1  0  0  0  0  0  0  0  0  0
   20.1979  -19.2483  -15.7227 C   0  0  0  0  0  0  0  0  0  0  0  0
   18.8100  -19.7006  -15.7257 C   0  0  0  0  0  0  0  0  0  0  0  0
   18.0990  -20.0224  -14.5690 C   0  0  0  0  0  0  0  0  0  0  0  0
   16.8782  -20.4331  -14.9377 N   0  0  0  0  0  0  0  0  0  0  0  0
   16.7866  -20.3846  -16.2664 C   0  0  0  0  0  0  0  0  0  0  0  0
   15.7634  -20.6766  -17.1539 C   0  0  0  0  0  0  0  0  0  0  0  0
   15.8841  -20.5332  -18.5136 C   0  0  0  0  0  0  0  0  0  0  0  0
   17.0951  -20.0733  -18.9991 C   0  0  0  0  0  0  0  0  0  0  0  0
   18.1325  -19.7729  -18.1688 C   0  0  0  0  0  0  0  0  0  0  0  0
   17.9821  -19.9284  -16.7985 C   0  0  0  0  0  0  0  0  0  0  0  0
   21.1085  -21.4157  -16.4113 C   0  0  0  0  0  0  0  0  0  0  0  0
   20.3566  -22.3828  -16.0337 O   0  0  0  0  0  0  0  0  0  0  0  0
   21.6812  -21.5617  -17.6415 O   0  0  0  0  0  0  0  0  0  0  0  0
  2  1  1  6
  3  2  1  0
  4  3  1  0
  5  2  1  0
  6  5  2  0
  7  5  1  0
  8  7  1  0
  8  9  1  1
 10  9  1  0
 11 10  2  0
 12 11  1  0
 13 12  2  0
 13 14  1  0
 14 15  2  0
 15 10  1  0
 16 18  1  0
 16  8  1  0
 17 16  2  0
 19 18  1  0
 19 30  1  0
 19 20  1  6
 21 22  2  0
 21 20  1  0
 23 22  1  0
 24 29  2  0
 24 23  1  0
 25 24  1  0
 26 27  1  0
 26 25  2  0
 27 28  2  0
 28 29  1  0
 29 21  1  0
 30 32  1  0
 31 30  2  0
M  END
$$$$
