CFW.pdb
     RDKit          3D

 32 34  0  0  1  0  0  0  0  0999 V2000
   27.6698  -21.7458  -18.0793 N   0  0  0  0  0  0  0  0  0  0  0  0
   27.3317  -20.6540  -17.2166 C   0  0  1  0  0  0  0  0  0  0  0  0
   25.9840  -20.0715  -17.5672 C   0  0  0  0  0  0  0  0  0  0  0  0
   24.7730  -21.4299  -17.5694 S   0  0  0  0  0  0  0  0  0  0  0  0
   27.4339  -21.0774  -15.8155 C   0  0  0  0  0  0  0  0  0  0  0  0
   27.3029  -22.2906  -15.5251 O   0  0  0  0  0  0  0  0  0  0  0  0
   27.6781  -20.1769  -14.7371 N   0  0  0  0  0  0  0  0  0  0  0  0
   27.7237  -20.6211  -13.3461 C   0  0  1  0  0  0  0  0  0  0  0  0
   28.1905  -19.5364  -12.4287 C   0  0  0  0  0  0  0  0  0  0  0  0
   28.1399  -19.9422  -10.9959 C   0  0  0  0  0  0  0  0  0  0  0  0
   29.1911  -20.6409  -10.4328 C   0  0  0  0  0  0  0  0  0  0  0  0
   29.1784  -21.0309   -9.1094 C   0  0  0  0  0  0  0  0  0  0  0  0
   28.1115  -20.7400   -8.2852 C   0  0  0  0  0  0  0  0  0  0  0  0
   27.0580  -20.0428   -8.8402 C   0  0  0  0  0  0  0  0  0  0  0  0
   27.0768  -19.6550  -10.1658 C   0  0  0  0  0  0  0  0  0  0  0  0
   26.3772  -21.1385  -12.9680 C   0  0  0  0  0  0  0  0  0  0  0  0
   26.2878  -22.2429  -12.3643 O   0  0  0  0  0  0  0  0  0  0  0  0
   25.1963  -20.4420  -13.2586 N   0  0  0  0  0  0  0  0  0  0  0  0
   23.8711  -20.8639  -12.7382 C   0  0  1  0  0  0  0  0  0  0  0  0
   23.4360  -19.7268  -11.8620 C   0  0  0  0  0  0  0  0  0  0  0  0
   22.0818  -19.7782  -11.3197 C   0  0  0  0  0  0  0  0  0  0  0  0
   21.7692  -20.3135  -10.0696 C   0  0  0  0  0  0  0  0  0  0  0  0
   20.4414  -20.2347   -9.9090 N   0  0  0  0  0  0  0  0  0  0  0  0
   19.9051  -19.6768  -10.9940 C   0  0  0  0  0  0  0  0  0  0  0  0
   18.6047  -19.3501  -11.3434 C   0  0  0  0  0  0  0  0  0  0  0  0
   18.2743  -18.7495  -12.5325 C   0  0  0  0  0  0  0  0  0  0  0  0
   19.3059  -18.4658  -13.4093 C   0  0  0  0  0  0  0  0  0  0  0  0
   20.6011  -18.7674  -13.1137 C   0  0  0  0  0  0  0  0  0  0  0  0
   20.9055  -19.3751  -11.9043 C   0  0  0  0  0  0  0  0  0  0  0  0
   22.9341  -21.0879  -13.8359 C   0  0  0  0  0  0  0  0  0  0  0  0
   21.9158  -21.8306  -13.6022 O   0  0  0  0  0  0  0  0  0  0  0  0
   23.0169  -20.5846  -15.1018 O   0  0  0  0  0  0  0  0  0  0  0  0
  2  1  1  6
  3  2  1  0
  4  3  1  0
  5  2  1  0
  6  5  2  0
  7  5  1  0
  8  7  1  0
  8  9  1  1
 10  9  1  0
 11 10  2  0
 12 11  1  0
 13 12  2  0
 13 14  1  0
 14 15  2  0
 15 10  1  0
 16 18  1  0
 16  8  1  0
 17 16  2  0
 19 18  1  0
 19 30  1  0
 19 20  1  1
 21 22  2  0
 21 20  1  0
 23 22  1  0
 24 29  2  0
 24 23  1  0
 25 24  1  0
 26 27  1  0
 26 25  2  0
 27 28  2  0
 28 29  1  0
 29 21  1  0
 30 32  1  0
 31 30  2  0
M  END
$$$$
