CFW.pdb
     RDKit          3D

 32 34  0  0  1  0  0  0  0  0999 V2000
   23.4500  -18.9352  -14.9316 N   0  0  0  0  0  0  0  0  0  0  0  0
   23.4073  -19.2163  -13.5281 C   0  0  1  0  0  0  0  0  0  0  0  0
   22.0826  -19.8182  -13.1266 C   0  0  0  0  0  0  0  0  0  0  0  0
   20.8048  -18.5382  -13.3278 S   0  0  0  0  0  0  0  0  0  0  0  0
   24.5586  -20.0445  -13.1517 C   0  0  0  0  0  0  0  0  0  0  0  0
   24.6630  -21.2054  -13.6151 O   0  0  0  0  0  0  0  0  0  0  0  0
   25.5908  -19.6040  -12.2719 N   0  0  0  0  0  0  0  0  0  0  0  0
   26.7290  -20.4498  -11.9209 C   0  0  1  0  0  0  0  0  0  0  0  0
   28.0323  -19.7464  -12.1287 C   0  0  0  0  0  0  0  0  0  0  0  0
   28.1941  -19.2488  -13.5238 C   0  0  0  0  0  0  0  0  0  0  0  0
   27.7315  -17.9943  -13.8734 C   0  0  0  0  0  0  0  0  0  0  0  0
   27.8659  -17.5012  -15.1550 C   0  0  0  0  0  0  0  0  0  0  0  0
   28.4707  -18.2413  -16.1493 C   0  0  0  0  0  0  0  0  0  0  0  0
   28.9351  -19.4950  -15.8080 C   0  0  0  0  0  0  0  0  0  0  0  0
   28.7975  -19.9829  -14.5232 C   0  0  0  0  0  0  0  0  0  0  0  0
   26.5585  -20.9170  -10.5152 C   0  0  0  0  0  0  0  0  0  0  0  0
   27.4296  -21.6752  -10.0070 O   0  0  0  0  0  0  0  0  0  0  0  0
   25.4600  -20.5451   -9.7283 N   0  0  0  0  0  0  0  0  0  0  0  0
   25.1410  -21.2067   -8.4378 C   0  0  1  0  0  0  0  0  0  0  0  0
   25.2151  -20.1025   -7.4251 C   0  0  0  0  0  0  0  0  0  0  0  0
   26.5344  -19.5539   -7.1264 C   0  0  0  0  0  0  0  0  0  0  0  0
   27.1201  -18.5123   -7.8468 C   0  0  0  0  0  0  0  0  0  0  0  0
   28.3366  -18.2894   -7.3319 N   0  0  0  0  0  0  0  0  0  0  0  0
   28.5439  -19.1373   -6.3247 C   0  0  0  0  0  0  0  0  0  0  0  0
   29.6038  -19.3270   -5.4527 C   0  0  0  0  0  0  0  0  0  0  0  0
   29.5960  -20.2685   -4.4539 C   0  0  0  0  0  0  0  0  0  0  0  0
   28.4647  -21.0549   -4.3307 C   0  0  0  0  0  0  0  0  0  0  0  0
   27.3961  -20.9088   -5.1631 C   0  0  0  0  0  0  0  0  0  0  0  0
   27.4323  -19.9492   -6.1643 C   0  0  0  0  0  0  0  0  0  0  0  0
   23.8113  -21.8090   -8.4825 C   0  0  0  0  0  0  0  0  0  0  0  0
   23.0789  -21.5509   -9.5024 O   0  0  0  0  0  0  0  0  0  0  0  0
   23.2514  -22.6332   -7.5498 O   0  0  0  0  0  0  0  0  0  0  0  0
  2  1  1  6
  3  2  1  0
  4  3  1  0
  5  2  1  0
  6  5  2  0
  7  5  1  0
  8  7  1  0
  8  9  1  1
 10  9  1  0
 11 10  2  0
 12 11  1  0
 13 12  2  0
 13 14  1  0
 14 15  2  0
 15 10  1  0
 16 18  1  0
 16  8  1  0
 17 16  2  0
 19 18  1  0
 19 30  1  0
 19 20  1  1
 21 22  2  0
 21 20  1  0
 23 22  1  0
 24 29  2  0
 24 23  1  0
 25 24  1  0
 26 27  1  0
 26 25  2  0
 27 28  2  0
 28 29  1  0
 29 21  1  0
 30 32  1  0
 31 30  2  0
M  END
$$$$
