CFW.pdb
     RDKit          3D

 32 34  0  0  1  0  0  0  0  0999 V2000
   28.5882  -22.7754  -16.9883 N   0  0  0  0  0  0  0  0  0  0  0  0
   28.2015  -21.4786  -16.5200 C   0  0  1  0  0  0  0  0  0  0  0  0
   27.1984  -20.8347  -17.4462 C   0  0  0  0  0  0  0  0  0  0  0  0
   28.1209  -20.0095  -18.7802 S   0  0  0  0  0  0  0  0  0  0  0  0
   27.7342  -21.5702  -15.1322 C   0  0  0  0  0  0  0  0  0  0  0  0
   26.8883  -22.4425  -14.8209 O   0  0  0  0  0  0  0  0  0  0  0  0
   28.1905  -20.7107  -14.0898 N   0  0  0  0  0  0  0  0  0  0  0  0
   27.6530  -20.7780  -12.7331 C   0  0  1  0  0  0  0  0  0  0  0  0
   28.5043  -20.0296  -11.7576 C   0  0  0  0  0  0  0  0  0  0  0  0
   27.9189  -20.0128  -10.3875 C   0  0  0  0  0  0  0  0  0  0  0  0
   28.3048  -20.9561   -9.4541 C   0  0  0  0  0  0  0  0  0  0  0  0
   27.7846  -20.9692   -8.1762 C   0  0  0  0  0  0  0  0  0  0  0  0
   26.8520  -20.0375   -7.7710 C   0  0  0  0  0  0  0  0  0  0  0  0
   26.4615  -19.0924   -8.6974 C   0  0  0  0  0  0  0  0  0  0  0  0
   26.9860  -19.0845   -9.9751 C   0  0  0  0  0  0  0  0  0  0  0  0
   26.2477  -20.2796  -12.7533 C   0  0  0  0  0  0  0  0  0  0  0  0
   25.9418  -19.3273  -13.5224 O   0  0  0  0  0  0  0  0  0  0  0  0
   25.2438  -20.8306  -11.9453 N   0  0  0  0  0  0  0  0  0  0  0  0
   23.8363  -20.3597  -11.9870 C   0  0  1  0  0  0  0  0  0  0  0  0
   23.3045  -20.8904  -13.2853 C   0  0  0  0  0  0  0  0  0  0  0  0
   21.9037  -20.6222  -13.5960 C   0  0  0  0  0  0  0  0  0  0  0  0
   20.8396  -21.3465  -13.0572 C   0  0  0  0  0  0  0  0  0  0  0  0
   19.7057  -20.8631  -13.5820 N   0  0  0  0  0  0  0  0  0  0  0  0
   20.0037  -19.8721  -14.4218 C   0  0  0  0  0  0  0  0  0  0  0  0
   19.2283  -19.0322  -15.2049 C   0  0  0  0  0  0  0  0  0  0  0  0
   19.7564  -18.0448  -15.9986 C   0  0  0  0  0  0  0  0  0  0  0  0
   21.1320  -17.8992  -16.0012 C   0  0  0  0  0  0  0  0  0  0  0  0
   21.9388  -18.6997  -15.2499 C   0  0  0  0  0  0  0  0  0  0  0  0
   21.3771  -19.6903  -14.4576 C   0  0  0  0  0  0  0  0  0  0  0  0
   23.0861  -20.8766  -10.8455 C   0  0  0  0  0  0  0  0  0  0  0  0
   23.5267  -21.9394  -10.2803 O   0  0  0  0  0  0  0  0  0  0  0  0
   21.9536  -20.3460  -10.2989 O   0  0  0  0  0  0  0  0  0  0  0  0
  2  1  1  6
  3  2  1  0
  4  3  1  0
  5  2  1  0
  6  5  2  0
  7  5  1  0
  8  7  1  0
  8  9  1  1
 10  9  1  0
 11 10  2  0
 12 11  1  0
 13 12  2  0
 13 14  1  0
 14 15  2  0
 15 10  1  0
 16 18  1  0
 16  8  1  0
 17 16  2  0
 19 18  1  0
 19 30  1  0
 19 20  1  6
 21 22  2  0
 21 20  1  0
 23 22  1  0
 24 29  2  0
 24 23  1  0
 25 24  1  0
 26 27  1  0
 26 25  2  0
 27 28  2  0
 28 29  1  0
 29 21  1  0
 30 32  1  0
 31 30  2  0
M  END
$$$$
