CFW.pdb
     RDKit          3D

 32 34  0  0  1  0  0  0  0  0999 V2000
   15.2896  -10.2143  -14.9680 N   0  0  0  0  0  0  0  0  0  0  0  0
   16.0062   -9.4800  -15.9670 C   0  0  1  0  0  0  0  0  0  0  0  0
   15.2719   -8.2204  -16.3576 C   0  0  0  0  0  0  0  0  0  0  0  0
   13.9097   -8.6909  -17.4687 S   0  0  0  0  0  0  0  0  0  0  0  0
   17.3797   -9.2338  -15.5134 C   0  0  0  0  0  0  0  0  0  0  0  0
   17.5823   -8.8437  -14.3386 O   0  0  0  0  0  0  0  0  0  0  0  0
   18.5262   -9.4137  -16.3420 N   0  0  0  0  0  0  0  0  0  0  0  0
   19.8822   -9.1589  -15.8619 C   0  0  1  0  0  0  0  0  0  0  0  0
   20.7940  -10.3146  -16.1251 C   0  0  0  0  0  0  0  0  0  0  0  0
   22.1968  -10.0398  -15.7044 C   0  0  0  0  0  0  0  0  0  0  0  0
   22.6443  -10.4508  -14.4631 C   0  0  0  0  0  0  0  0  0  0  0  0
   23.9368  -10.2146  -14.0418 C   0  0  0  0  0  0  0  0  0  0  0  0
   24.8442   -9.5548  -14.8438 C   0  0  0  0  0  0  0  0  0  0  0  0
   24.4048   -9.1412  -16.0847 C   0  0  0  0  0  0  0  0  0  0  0  0
   23.1096   -9.3807  -16.5007 C   0  0  0  0  0  0  0  0  0  0  0  0
   20.3774   -7.8972  -16.4837 C   0  0  0  0  0  0  0  0  0  0  0  0
   20.3271   -7.7662  -17.7376 O   0  0  0  0  0  0  0  0  0  0  0  0
   20.9012   -6.8415  -15.7253 N   0  0  0  0  0  0  0  0  0  0  0  0
   21.4027   -5.5869  -16.3413 C   0  0  1  0  0  0  0  0  0  0  0  0
   20.2181   -4.6668  -16.3289 C   0  0  0  0  0  0  0  0  0  0  0  0
   20.4227   -3.3037  -16.8095 C   0  0  0  0  0  0  0  0  0  0  0  0
   21.4277   -2.9430  -17.7077 C   0  0  0  0  0  0  0  0  0  0  0  0
   21.3514   -1.6194  -17.9002 N   0  0  0  0  0  0  0  0  0  0  0  0
   20.3495   -1.1313  -17.1694 C   0  0  0  0  0  0  0  0  0  0  0  0
   19.8310    0.1436  -17.0093 C   0  0  0  0  0  0  0  0  0  0  0  0
   18.7573    0.4222  -16.2009 C   0  0  0  0  0  0  0  0  0  0  0  0
   18.1808   -0.6367  -15.5228 C   0  0  0  0  0  0  0  0  0  0  0  0
   18.6532   -1.9086  -15.6453 C   0  0  0  0  0  0  0  0  0  0  0  0
   19.7406   -2.1605  -16.4691 C   0  0  0  0  0  0  0  0  0  0  0  0
   22.5162   -5.0428  -15.5687 C   0  0  0  0  0  0  0  0  0  0  0  0
   22.4830   -5.1940  -14.2962 O   0  0  0  0  0  0  0  0  0  0  0  0
   23.6091   -4.3855  -16.0546 O   0  0  0  0  0  0  0  0  0  0  0  0
  2  1  1  1
  3  2  1  0
  4  3  1  0
  5  2  1  0
  6  5  2  0
  7  5  1  0
  8  7  1  0
  8  9  1  6
 10  9  1  0
 11 10  2  0
 12 11  1  0
 13 12  2  0
 13 14  1  0
 14 15  2  0
 15 10  1  0
 16 18  1  0
 16  8  1  0
 17 16  2  0
 19 18  1  0
 19 30  1  0
 19 20  1  1
 21 22  2  0
 21 20  1  0
 23 22  1  0
 24 29  2  0
 24 23  1  0
 25 24  1  0
 26 27  1  0
 26 25  2  0
 27 28  2  0
 28 29  1  0
 29 21  1  0
 30 32  1  0
 31 30  2  0
M  END
$$$$
