CFW.pdb
     RDKit          3D

 32 34  0  0  1  0  0  0  0  0999 V2000
   28.3905  -22.3772  -18.2641 N   0  0  0  0  0  0  0  0  0  0  0  0
   28.2200  -21.1609  -17.5278 C   0  0  1  0  0  0  0  0  0  0  0  0
   27.5180  -20.1105  -18.3538 C   0  0  0  0  0  0  0  0  0  0  0  0
   28.6365  -19.6239  -19.7043 S   0  0  0  0  0  0  0  0  0  0  0  0
   27.5486  -21.4411  -16.2535 C   0  0  0  0  0  0  0  0  0  0  0  0
   26.7154  -22.3764  -16.1862 O   0  0  0  0  0  0  0  0  0  0  0  0
   27.7880  -20.7009  -15.0585 N   0  0  0  0  0  0  0  0  0  0  0  0
   26.9875  -20.8901  -13.8512 C   0  0  1  0  0  0  0  0  0  0  0  0
   27.6868  -20.3794  -12.6320 C   0  0  0  0  0  0  0  0  0  0  0  0
   26.8372  -20.4650  -11.4110 C   0  0  0  0  0  0  0  0  0  0  0  0
   26.5898  -21.6894  -10.8195 C   0  0  0  0  0  0  0  0  0  0  0  0
   25.8092  -21.8054   -9.6877 C   0  0  0  0  0  0  0  0  0  0  0  0
   25.2381  -20.6998   -9.0930 C   0  0  0  0  0  0  0  0  0  0  0  0
   25.4804  -19.4737   -9.6778 C   0  0  0  0  0  0  0  0  0  0  0  0
   26.2628  -19.3643  -10.8108 C   0  0  0  0  0  0  0  0  0  0  0  0
   25.6608  -20.2402  -14.0537 C   0  0  0  0  0  0  0  0  0  0  0  0
   25.6141  -19.0412  -14.4437 O   0  0  0  0  0  0  0  0  0  0  0  0
   24.4525  -20.9130  -13.8265 N   0  0  0  0  0  0  0  0  0  0  0  0
   23.1296  -20.2834  -14.0681 C   0  0  1  0  0  0  0  0  0  0  0  0
   23.1299  -19.9676  -15.5345 C   0  0  0  0  0  0  0  0  0  0  0  0
   21.8829  -19.4800  -16.1157 C   0  0  0  0  0  0  0  0  0  0  0  0
   21.0984  -18.4815  -15.5373 C   0  0  0  0  0  0  0  0  0  0  0  0
   20.0164  -18.3102  -16.3085 N   0  0  0  0  0  0  0  0  0  0  0  0
   20.0821  -19.1497  -17.3415 C   0  0  0  0  0  0  0  0  0  0  0  0
   19.2533  -19.3764  -18.4285 C   0  0  0  0  0  0  0  0  0  0  0  0
   19.5314  -20.2989  -19.4061 C   0  0  0  0  0  0  0  0  0  0  0  0
   20.7014  -21.0259  -19.2795 C   0  0  0  0  0  0  0  0  0  0  0  0
   21.5497  -20.8415  -18.2295 C   0  0  0  0  0  0  0  0  0  0  0  0
   21.2424  -19.9025  -17.2557 C   0  0  0  0  0  0  0  0  0  0  0  0
   22.0500  -21.2012  -13.7144 C   0  0  0  0  0  0  0  0  0  0  0  0
   20.9208  -20.6889  -13.3889 O   0  0  0  0  0  0  0  0  0  0  0  0
   22.1045  -22.5648  -13.6954 O   0  0  0  0  0  0  0  0  0  0  0  0
  2  1  1  6
  3  2  1  0
  4  3  1  0
  5  2  1  0
  6  5  2  0
  7  5  1  0
  8  7  1  0
  8  9  1  1
 10  9  1  0
 11 10  2  0
 12 11  1  0
 13 12  2  0
 13 14  1  0
 14 15  2  0
 15 10  1  0
 16 18  1  0
 16  8  1  0
 17 16  2  0
 19 18  1  0
 19 30  1  0
 19 20  1  6
 21 22  2  0
 21 20  1  0
 23 22  1  0
 24 29  2  0
 24 23  1  0
 25 24  1  0
 26 27  1  0
 26 25  2  0
 27 28  2  0
 28 29  1  0
 29 21  1  0
 30 32  1  0
 31 30  2  0
M  END
$$$$
