CFW.pdb
     RDKit          3D

 32 34  0  0  1  0  0  0  0  0999 V2000
   28.7242  -20.8878  -17.8315 N   0  0  0  0  0  0  0  0  0  0  0  0
   28.4439  -21.7717  -16.7403 C   0  0  1  0  0  0  0  0  0  0  0  0
   29.5048  -22.8372  -16.6078 C   0  0  0  0  0  0  0  0  0  0  0  0
   28.7857  -24.4125  -17.1674 S   0  0  0  0  0  0  0  0  0  0  0  0
   28.2441  -20.9960  -15.5110 C   0  0  0  0  0  0  0  0  0  0  0  0
   29.1360  -20.2007  -15.1299 O   0  0  0  0  0  0  0  0  0  0  0  0
   27.0733  -21.0906  -14.7023 N   0  0  0  0  0  0  0  0  0  0  0  0
   26.8611  -20.2373  -13.5357 C   0  0  1  0  0  0  0  0  0  0  0  0
   25.8444  -19.1730  -13.8000 C   0  0  0  0  0  0  0  0  0  0  0  0
   26.4105  -18.0204  -14.5557 C   0  0  0  0  0  0  0  0  0  0  0  0
   26.2389  -17.9336  -15.9243 C   0  0  0  0  0  0  0  0  0  0  0  0
   26.7481  -16.8799  -16.6552 C   0  0  0  0  0  0  0  0  0  0  0  0
   27.4544  -15.8614  -16.0503 C   0  0  0  0  0  0  0  0  0  0  0  0
   27.6300  -15.9411  -14.6840 C   0  0  0  0  0  0  0  0  0  0  0  0
   27.1178  -16.9985  -13.9579 C   0  0  0  0  0  0  0  0  0  0  0  0
   26.4869  -21.0994  -12.3780 C   0  0  0  0  0  0  0  0  0  0  0  0
   25.9723  -22.2313  -12.5924 O   0  0  0  0  0  0  0  0  0  0  0  0
   26.6850  -20.7000  -11.0493 N   0  0  0  0  0  0  0  0  0  0  0  0
   26.3888  -21.5867   -9.8957 C   0  0  1  0  0  0  0  0  0  0  0  0
   27.5668  -21.4159   -8.9828 C   0  0  0  0  0  0  0  0  0  0  0  0
   27.5026  -20.3392   -7.9994 C   0  0  0  0  0  0  0  0  0  0  0  0
   26.6308  -19.2540   -8.0966 C   0  0  0  0  0  0  0  0  0  0  0  0
   26.8639  -18.4449   -7.0546 N   0  0  0  0  0  0  0  0  0  0  0  0
   27.8367  -18.9671   -6.3082 C   0  0  0  0  0  0  0  0  0  0  0  0
   28.4468  -18.5607   -5.1324 C   0  0  0  0  0  0  0  0  0  0  0  0
   29.4384  -19.2796   -4.5128 C   0  0  0  0  0  0  0  0  0  0  0  0
   29.8317  -20.4642   -5.1090 C   0  0  0  0  0  0  0  0  0  0  0  0
   29.2642  -20.9075   -6.2655 C   0  0  0  0  0  0  0  0  0  0  0  0
   28.2644  -20.1595   -6.8700 C   0  0  0  0  0  0  0  0  0  0  0  0
   25.1420  -21.1892   -9.2472 C   0  0  0  0  0  0  0  0  0  0  0  0
   24.5484  -20.1453   -9.6958 O   0  0  0  0  0  0  0  0  0  0  0  0
   24.5232  -21.8151   -8.2041 O   0  0  0  0  0  0  0  0  0  0  0  0
  2  1  1  6
  3  2  1  0
  4  3  1  0
  5  2  1  0
  6  5  2  0
  7  5  1  0
  8  7  1  0
  8  9  1  6
 10  9  1  0
 11 10  2  0
 12 11  1  0
 13 12  2  0
 13 14  1  0
 14 15  2  0
 15 10  1  0
 16 18  1  0
 16  8  1  0
 17 16  2  0
 19 18  1  0
 19 30  1  0
 19 20  1  1
 21 22  2  0
 21 20  1  0
 23 22  1  0
 24 29  2  0
 24 23  1  0
 25 24  1  0
 26 27  1  0
 26 25  2  0
 27 28  2  0
 28 29  1  0
 29 21  1  0
 30 32  1  0
 31 30  2  0
M  END
$$$$
