CFW.pdb
     RDKit          3D

 32 34  0  0  1  0  0  0  0  0999 V2000
   19.2410  -15.1006   12.2414 N   0  0  0  0  0  0  0  0  0  0  0  0
   19.1289  -16.0946   11.2167 C   0  0  1  0  0  0  0  0  0  0  0  0
   18.4375  -17.3359   11.7263 C   0  0  0  0  0  0  0  0  0  0  0  0
   19.6177  -18.2407   12.7750 S   0  0  0  0  0  0  0  0  0  0  0  0
   18.4845  -15.5167   10.0319 C   0  0  0  0  0  0  0  0  0  0  0  0
   17.4721  -14.7894   10.1716 O   0  0  0  0  0  0  0  0  0  0  0  0
   18.9460  -15.7340    8.7003 N   0  0  0  0  0  0  0  0  0  0  0  0
   18.3032  -15.1174    7.5424 C   0  0  1  0  0  0  0  0  0  0  0  0
   19.2551  -14.2684    6.7618 C   0  0  0  0  0  0  0  0  0  0  0  0
   19.7888  -13.1298    7.5611 C   0  0  0  0  0  0  0  0  0  0  0  0
   19.0957  -11.9356    7.6204 C   0  0  0  0  0  0  0  0  0  0  0  0
   19.5597  -10.8615    8.3518 C   0  0  0  0  0  0  0  0  0  0  0  0
   20.7412  -10.9316    9.0597 C   0  0  0  0  0  0  0  0  0  0  0  0
   21.4392  -12.1207    9.0052 C   0  0  0  0  0  0  0  0  0  0  0  0
   20.9693  -13.1923    8.2713 C   0  0  0  0  0  0  0  0  0  0  0  0
   17.6930  -16.1927    6.7088 C   0  0  0  0  0  0  0  0  0  0  0  0
   16.9345  -15.8757    5.7516 O   0  0  0  0  0  0  0  0  0  0  0  0
   17.9297  -17.5533    6.9472 N   0  0  0  0  0  0  0  0  0  0  0  0
   17.3927  -18.6236    6.0693 C   0  0  1  0  0  0  0  0  0  0  0  0
   18.1296  -18.4479    4.7746 C   0  0  0  0  0  0  0  0  0  0  0  0
   17.7017  -17.3587    3.9020 C   0  0  0  0  0  0  0  0  0  0  0  0
   16.4128  -16.8244    3.9072 C   0  0  0  0  0  0  0  0  0  0  0  0
   16.3573  -15.8755    2.9631 N   0  0  0  0  0  0  0  0  0  0  0  0
   17.5456  -15.7865    2.3664 C   0  0  0  0  0  0  0  0  0  0  0  0
   18.0364  -14.9765    1.3550 C   0  0  0  0  0  0  0  0  0  0  0  0
   19.3291  -15.0441    0.8985 C   0  0  0  0  0  0  0  0  0  0  0  0
   20.1646  -15.9735    1.4916 C   0  0  0  0  0  0  0  0  0  0  0  0
   19.7308  -16.7939    2.4890 C   0  0  0  0  0  0  0  0  0  0  0  0
   18.4185  -16.7037    2.9297 C   0  0  0  0  0  0  0  0  0  0  0  0
   17.6359  -19.9398    6.6538 C   0  0  0  0  0  0  0  0  0  0  0  0
   17.2387  -20.9635    5.9923 O   0  0  0  0  0  0  0  0  0  0  0  0
   18.2527  -20.2098    7.8410 O   0  0  0  0  0  0  0  0  0  0  0  0
  2  1  1  1
  3  2  1  0
  4  3  1  0
  5  2  1  0
  6  5  2  0
  7  5  1  0
  8  7  1  0
  8  9  1  6
 10  9  1  0
 11 10  2  0
 12 11  1  0
 13 12  2  0
 13 14  1  0
 14 15  2  0
 15 10  1  0
 16 18  1  0
 16  8  1  0
 17 16  2  0
 19 18  1  0
 19 30  1  0
 19 20  1  6
 21 22  2  0
 21 20  1  0
 23 22  1  0
 24 29  2  0
 24 23  1  0
 25 24  1  0
 26 27  1  0
 26 25  2  0
 27 28  2  0
 28 29  1  0
 29 21  1  0
 30 32  1  0
 31 30  2  0
M  END
$$$$
