CFW.pdb
     RDKit          3D

 32 34  0  0  1  0  0  0  0  0999 V2000
   27.9507  -24.2609  -19.7493 N   0  0  0  0  0  0  0  0  0  0  0  0
   27.3353  -25.3202  -19.0080 C   0  0  1  0  0  0  0  0  0  0  0  0
   26.1344  -25.8758  -19.7344 C   0  0  0  0  0  0  0  0  0  0  0  0
   25.3798  -27.1471  -18.6733 S   0  0  0  0  0  0  0  0  0  0  0  0
   28.3356  -26.3410  -18.6758 C   0  0  0  0  0  0  0  0  0  0  0  0
   29.1368  -26.7317  -19.5583 O   0  0  0  0  0  0  0  0  0  0  0  0
   28.4583  -26.9315  -17.3836 N   0  0  0  0  0  0  0  0  0  0  0  0
   29.4743  -27.9361  -17.0793 C   0  0  1  0  0  0  0  0  0  0  0  0
   30.3637  -27.5081  -15.9558 C   0  0  0  0  0  0  0  0  0  0  0  0
   31.2927  -26.4125  -16.3514 C   0  0  0  0  0  0  0  0  0  0  0  0
   32.4573  -26.7010  -17.0373 C   0  0  0  0  0  0  0  0  0  0  0  0
   33.3393  -25.7116  -17.4205 C   0  0  0  0  0  0  0  0  0  0  0  0
   33.0975  -24.3842  -17.1348 C   0  0  0  0  0  0  0  0  0  0  0  0
   31.9367  -24.0880  -16.4500 C   0  0  0  0  0  0  0  0  0  0  0  0
   31.0577  -25.0832  -16.0693 C   0  0  0  0  0  0  0  0  0  0  0  0
   28.7922  -29.2315  -16.7962 C   0  0  0  0  0  0  0  0  0  0  0  0
   27.7773  -29.2435  -16.0467 O   0  0  0  0  0  0  0  0  0  0  0  0
   29.2365  -30.4473  -17.3333 N   0  0  0  0  0  0  0  0  0  0  0  0
   28.5035  -31.7235  -17.1361 C   0  0  1  0  0  0  0  0  0  0  0  0
   27.1346  -31.4557  -17.6880 C   0  0  0  0  0  0  0  0  0  0  0  0
   26.1759  -32.5562  -17.6668 C   0  0  0  0  0  0  0  0  0  0  0  0
   25.4216  -32.9033  -16.5454 C   0  0  0  0  0  0  0  0  0  0  0  0
   24.6807  -33.9732  -16.8633 N   0  0  0  0  0  0  0  0  0  0  0  0
   24.9310  -34.3148  -18.1270 C   0  0  0  0  0  0  0  0  0  0  0  0
   24.4381  -35.3141  -18.9507 C   0  0  0  0  0  0  0  0  0  0  0  0
   24.8313  -35.4742  -20.2559 C   0  0  0  0  0  0  0  0  0  0  0  0
   25.7659  -34.5831  -20.7519 C   0  0  0  0  0  0  0  0  0  0  0  0
   26.2820  -33.5838  -19.9831 C   0  0  0  0  0  0  0  0  0  0  0  0
   25.8666  -33.4465  -18.6666 C   0  0  0  0  0  0  0  0  0  0  0  0
   29.1671  -32.8138  -17.8458 C   0  0  0  0  0  0  0  0  0  0  0  0
   29.7873  -32.5234  -18.9295 O   0  0  0  0  0  0  0  0  0  0  0  0
   29.2080  -34.1277  -17.4787 O   0  0  0  0  0  0  0  0  0  0  0  0
  2  1  1  6
  3  2  1  0
  4  3  1  0
  5  2  1  0
  6  5  2  0
  7  5  1  0
  8  7  1  0
  8  9  1  1
 10  9  1  0
 11 10  2  0
 12 11  1  0
 13 12  2  0
 13 14  1  0
 14 15  2  0
 15 10  1  0
 16 18  1  0
 16  8  1  0
 17 16  2  0
 19 18  1  0
 19 30  1  0
 19 20  1  6
 21 22  2  0
 21 20  1  0
 23 22  1  0
 24 29  2  0
 24 23  1  0
 25 24  1  0
 26 27  1  0
 26 25  2  0
 27 28  2  0
 28 29  1  0
 29 21  1  0
 30 32  1  0
 31 30  2  0
M  END
$$$$
