CFW.pdb
     RDKit          3D

 32 34  0  0  1  0  0  0  0  0999 V2000
   28.7884  -20.7149  -14.6541 N   0  0  0  0  0  0  0  0  0  0  0  0
   28.2364  -19.8639  -13.6433 C   0  0  1  0  0  0  0  0  0  0  0  0
   27.9864  -18.4720  -14.1709 C   0  0  0  0  0  0  0  0  0  0  0  0
   26.6892  -18.5824  -15.4424 S   0  0  0  0  0  0  0  0  0  0  0  0
   27.0410  -20.4888  -13.0658 C   0  0  0  0  0  0  0  0  0  0  0  0
   26.5177  -21.4723  -13.6423 O   0  0  0  0  0  0  0  0  0  0  0  0
   26.4210  -20.0391  -11.8630 N   0  0  0  0  0  0  0  0  0  0  0  0
   25.4263  -20.8392  -11.1528 C   0  0  1  0  0  0  0  0  0  0  0  0
   25.4699  -20.6026   -9.6768 C   0  0  0  0  0  0  0  0  0  0  0  0
   26.8434  -20.7475   -9.1178 C   0  0  0  0  0  0  0  0  0  0  0  0
   27.2127  -20.0434   -7.9873 C   0  0  0  0  0  0  0  0  0  0  0  0
   28.4751  -20.1546   -7.4418 C   0  0  0  0  0  0  0  0  0  0  0  0
   29.4297  -20.9771   -8.0026 C   0  0  0  0  0  0  0  0  0  0  0  0
   29.0686  -21.6834   -9.1317 C   0  0  0  0  0  0  0  0  0  0  0  0
   27.8031  -21.5677   -9.6729 C   0  0  0  0  0  0  0  0  0  0  0  0
   24.0825  -20.5495  -11.7306 C   0  0  0  0  0  0  0  0  0  0  0  0
   23.4427  -19.5391  -11.3284 O   0  0  0  0  0  0  0  0  0  0  0  0
   23.4958  -21.3611  -12.7111 N   0  0  0  0  0  0  0  0  0  0  0  0
   22.1300  -21.1155  -13.2393 C   0  0  1  0  0  0  0  0  0  0  0  0
   22.2169  -19.7628  -13.8816 C   0  0  0  0  0  0  0  0  0  0  0  0
   23.0979  -19.6245  -15.0372 C   0  0  0  0  0  0  0  0  0  0  0  0
   23.1988  -20.5778  -16.0512 C   0  0  0  0  0  0  0  0  0  0  0  0
   24.1200  -20.1518  -16.9258 N   0  0  0  0  0  0  0  0  0  0  0  0
   24.6016  -18.9797  -16.5128 C   0  0  0  0  0  0  0  0  0  0  0  0
   25.5426  -18.1078  -17.0366 C   0  0  0  0  0  0  0  0  0  0  0  0
   25.8788  -16.9182  -16.4402 C   0  0  0  0  0  0  0  0  0  0  0  0
   25.2343  -16.5945  -15.2598 C   0  0  0  0  0  0  0  0  0  0  0  0
   24.3023  -17.4176  -14.7032 C   0  0  0  0  0  0  0  0  0  0  0  0
   23.9829  -18.6144  -15.3278 C   0  0  0  0  0  0  0  0  0  0  0  0
   21.7572  -22.1474  -14.2034 C   0  0  0  0  0  0  0  0  0  0  0  0
   20.5632  -22.1184  -14.6689 O   0  0  0  0  0  0  0  0  0  0  0  0
   22.5492  -23.1527  -14.6775 O   0  0  0  0  0  0  0  0  0  0  0  0
  2  1  1  6
  3  2  1  0
  4  3  1  0
  5  2  1  0
  6  5  2  0
  7  5  1  0
  8  7  1  0
  8  9  1  1
 10  9  1  0
 11 10  2  0
 12 11  1  0
 13 12  2  0
 13 14  1  0
 14 15  2  0
 15 10  1  0
 16 18  1  0
 16  8  1  0
 17 16  2  0
 19 18  1  0
 19 30  1  0
 19 20  1  6
 21 22  2  0
 21 20  1  0
 23 22  1  0
 24 29  2  0
 24 23  1  0
 25 24  1  0
 26 27  1  0
 26 25  2  0
 27 28  2  0
 28 29  1  0
 29 21  1  0
 30 32  1  0
 31 30  2  0
M  END
$$$$
