CFW.pdb
     RDKit          3D

 32 34  0  0  1  0  0  0  0  0999 V2000
   23.3377  -13.2539  -19.0819 N   0  0  0  0  0  0  0  0  0  0  0  0
   23.3797  -11.8266  -19.1901 C   0  0  1  0  0  0  0  0  0  0  0  0
   22.7073  -11.3498  -20.4547 C   0  0  0  0  0  0  0  0  0  0  0  0
   23.6389  -12.0188  -21.8676 S   0  0  0  0  0  0  0  0  0  0  0  0
   22.8260  -11.2194  -17.9745 C   0  0  0  0  0  0  0  0  0  0  0  0
   21.8951  -11.7970  -17.3637 O   0  0  0  0  0  0  0  0  0  0  0  0
   23.2891   -9.9854  -17.4301 N   0  0  0  0  0  0  0  0  0  0  0  0
   22.6257   -9.3329  -16.3039 C   0  0  1  0  0  0  0  0  0  0  0  0
   23.6052   -8.8520  -15.2813 C   0  0  0  0  0  0  0  0  0  0  0  0
   22.9420   -8.1682  -14.1357 C   0  0  0  0  0  0  0  0  0  0  0  0
   22.7256   -6.8036  -14.1702 C   0  0  0  0  0  0  0  0  0  0  0  0
   22.1132   -6.1382  -13.1281 C   0  0  0  0  0  0  0  0  0  0  0  0
   21.6876   -6.8078  -12.0000 C   0  0  0  0  0  0  0  0  0  0  0  0
   21.9003   -8.1706  -11.9580 C   0  0  0  0  0  0  0  0  0  0  0  0
   22.5139   -8.8309  -13.0046 C   0  0  0  0  0  0  0  0  0  0  0  0
   21.7721   -8.2290  -16.8297 C   0  0  0  0  0  0  0  0  0  0  0  0
   22.2399   -7.4513  -17.7062 O   0  0  0  0  0  0  0  0  0  0  0  0
   20.4596   -8.0181  -16.3859 N   0  0  0  0  0  0  0  0  0  0  0  0
   19.6478   -6.8521  -16.8174 C   0  0  1  0  0  0  0  0  0  0  0  0
   18.2862   -7.4236  -17.0812 C   0  0  0  0  0  0  0  0  0  0  0  0
   17.2232   -6.4879  -17.4349 C   0  0  0  0  0  0  0  0  0  0  0  0
   17.3669   -5.4779  -18.3869 C   0  0  0  0  0  0  0  0  0  0  0  0
   16.2191   -4.7886  -18.4315 N   0  0  0  0  0  0  0  0  0  0  0  0
   15.3622   -5.3147  -17.5568 C   0  0  0  0  0  0  0  0  0  0  0  0
   14.0554   -5.0079  -17.2132 C   0  0  0  0  0  0  0  0  0  0  0  0
   13.3398   -5.7110  -16.2764 C   0  0  0  0  0  0  0  0  0  0  0  0
   13.9741   -6.7735  -15.6582 C   0  0  0  0  0  0  0  0  0  0  0  0
   15.2579   -7.1156  -15.9597 C   0  0  0  0  0  0  0  0  0  0  0  0
   15.9573   -6.3864  -16.9102 C   0  0  0  0  0  0  0  0  0  0  0  0
   19.6117   -5.8340  -15.7709 C   0  0  0  0  0  0  0  0  0  0  0  0
   19.4192   -6.2297  -14.5669 O   0  0  0  0  0  0  0  0  0  0  0  0
   19.7670   -4.4874  -15.9297 O   0  0  0  0  0  0  0  0  0  0  0  0
  2  1  1  1
  3  2  1  0
  4  3  1  0
  5  2  1  0
  6  5  2  0
  7  5  1  0
  8  7  1  0
  8  9  1  1
 10  9  1  0
 11 10  2  0
 12 11  1  0
 13 12  2  0
 13 14  1  0
 14 15  2  0
 15 10  1  0
 16 18  1  0
 16  8  1  0
 17 16  2  0
 19 18  1  0
 19 30  1  0
 19 20  1  1
 21 22  2  0
 21 20  1  0
 23 22  1  0
 24 29  2  0
 24 23  1  0
 25 24  1  0
 26 27  1  0
 26 25  2  0
 27 28  2  0
 28 29  1  0
 29 21  1  0
 30 32  1  0
 31 30  2  0
M  END
$$$$
