CFW.pdb
     RDKit          3D

 32 34  0  0  1  0  0  0  0  0999 V2000
   29.0407  -19.8051  -14.2232 N   0  0  0  0  0  0  0  0  0  0  0  0
   27.9113  -19.2590  -13.5326 C   0  0  1  0  0  0  0  0  0  0  0  0
   26.9448  -18.6035  -14.4890 C   0  0  0  0  0  0  0  0  0  0  0  0
   27.1180  -16.8010  -14.3086 S   0  0  0  0  0  0  0  0  0  0  0  0
   27.2901  -20.2943  -12.6988 C   0  0  0  0  0  0  0  0  0  0  0  0
   27.2813  -21.4843  -13.0950 O   0  0  0  0  0  0  0  0  0  0  0  0
   26.6811  -20.0281  -11.4372 N   0  0  0  0  0  0  0  0  0  0  0  0
   26.0258  -21.0717  -10.6526 C   0  0  1  0  0  0  0  0  0  0  0  0
   25.8237  -20.6570   -9.2302 C   0  0  0  0  0  0  0  0  0  0  0  0
   27.1113  -20.4471   -8.5103 C   0  0  0  0  0  0  0  0  0  0  0  0
   28.1680  -21.3161   -8.7063 C   0  0  0  0  0  0  0  0  0  0  0  0
   29.3746  -21.1511   -8.0578 C   0  0  0  0  0  0  0  0  0  0  0  0
   29.5814  -20.1070   -7.1808 C   0  0  0  0  0  0  0  0  0  0  0  0
   28.5310  -19.2351   -6.9797 C   0  0  0  0  0  0  0  0  0  0  0  0
   27.3255  -19.4057   -7.6320 C   0  0  0  0  0  0  0  0  0  0  0  0
   24.7435  -21.4348  -11.3215 C   0  0  0  0  0  0  0  0  0  0  0  0
   23.9965  -22.3038  -10.7934 O   0  0  0  0  0  0  0  0  0  0  0  0
   24.3304  -20.8450  -12.5239 N   0  0  0  0  0  0  0  0  0  0  0  0
   23.0211  -21.1494  -13.1548 C   0  0  1  0  0  0  0  0  0  0  0  0
   22.0074  -20.6789  -12.1542 C   0  0  0  0  0  0  0  0  0  0  0  0
   20.6076  -20.6770  -12.5680 C   0  0  0  0  0  0  0  0  0  0  0  0
   20.1823  -20.9923  -13.8590 C   0  0  0  0  0  0  0  0  0  0  0  0
   18.8503  -20.8538  -13.8985 N   0  0  0  0  0  0  0  0  0  0  0  0
   18.4181  -20.4683  -12.6982 C   0  0  0  0  0  0  0  0  0  0  0  0
   17.1574  -20.2006  -12.1894 C   0  0  0  0  0  0  0  0  0  0  0  0
   16.9361  -19.8278  -10.8871 C   0  0  0  0  0  0  0  0  0  0  0  0
   18.0400  -19.7206  -10.0605 C   0  0  0  0  0  0  0  0  0  0  0  0
   19.3006  -19.9721  -10.5119 C   0  0  0  0  0  0  0  0  0  0  0  0
   19.4942  -20.3464  -11.8336 C   0  0  0  0  0  0  0  0  0  0  0  0
   22.8875  -20.4475  -14.4286 C   0  0  0  0  0  0  0  0  0  0  0  0
   22.2685  -21.0515  -15.3748 O   0  0  0  0  0  0  0  0  0  0  0  0
   23.3492  -19.1992  -14.7307 O   0  0  0  0  0  0  0  0  0  0  0  0
  2  1  1  6
  3  2  1  0
  4  3  1  0
  5  2  1  0
  6  5  2  0
  7  5  1  0
  8  7  1  0
  8  9  1  1
 10  9  1  0
 11 10  2  0
 12 11  1  0
 13 12  2  0
 13 14  1  0
 14 15  2  0
 15 10  1  0
 16 18  1  0
 16  8  1  0
 17 16  2  0
 19 18  1  0
 19 30  1  0
 19 20  1  1
 21 22  2  0
 21 20  1  0
 23 22  1  0
 24 29  2  0
 24 23  1  0
 25 24  1  0
 26 27  1  0
 26 25  2  0
 27 28  2  0
 28 29  1  0
 29 21  1  0
 30 32  1  0
 31 30  2  0
M  END
$$$$
