CFW.pdb
     RDKit          3D

 32 34  0  0  1  0  0  0  0  0999 V2000
   29.5924  -18.4958  -22.4005 N   0  0  0  0  0  0  0  0  0  0  0  0
   28.4319  -17.7478  -22.0208 C   0  0  1  0  0  0  0  0  0  0  0  0
   27.3359  -17.8700  -23.0515 C   0  0  0  0  0  0  0  0  0  0  0  0
   27.6515  -16.6346  -24.3499 S   0  0  0  0  0  0  0  0  0  0  0  0
   28.0066  -18.1404  -20.6725 C   0  0  0  0  0  0  0  0  0  0  0  0
   28.0943  -19.3415  -20.3217 O   0  0  0  0  0  0  0  0  0  0  0  0
   27.4874  -17.2225  -19.7126 N   0  0  0  0  0  0  0  0  0  0  0  0
   27.1982  -17.6155  -18.3356 C   0  0  1  0  0  0  0  0  0  0  0  0
   28.0070  -16.8336  -17.3503 C   0  0  0  0  0  0  0  0  0  0  0  0
   29.4637  -16.8588  -17.6626 C   0  0  0  0  0  0  0  0  0  0  0  0
   30.0298  -15.8540  -18.4242 C   0  0  0  0  0  0  0  0  0  0  0  0
   31.3750  -15.8449  -18.7311 C   0  0  0  0  0  0  0  0  0  0  0  0
   32.2189  -16.8425  -18.2899 C   0  0  0  0  0  0  0  0  0  0  0  0
   31.6611  -17.8494  -17.5290 C   0  0  0  0  0  0  0  0  0  0  0  0
   30.3137  -17.8528  -17.2251 C   0  0  0  0  0  0  0  0  0  0  0  0
   25.7326  -17.4756  -18.0991 C   0  0  0  0  0  0  0  0  0  0  0  0
   25.2622  -17.7511  -16.9612 O   0  0  0  0  0  0  0  0  0  0  0  0
   24.8482  -17.0468  -19.0982 N   0  0  0  0  0  0  0  0  0  0  0  0
   23.3732  -17.1041  -18.9381 C   0  0  1  0  0  0  0  0  0  0  0  0
   22.8896  -15.7871  -19.4690 C   0  0  0  0  0  0  0  0  0  0  0  0
   21.4465  -15.5978  -19.5799 C   0  0  0  0  0  0  0  0  0  0  0  0
   20.6243  -15.2697  -18.5013 C   0  0  0  0  0  0  0  0  0  0  0  0
   19.3628  -15.2121  -18.9486 N   0  0  0  0  0  0  0  0  0  0  0  0
   19.3514  -15.4865  -20.2527 C   0  0  0  0  0  0  0  0  0  0  0  0
   18.3386  -15.5474  -21.1963 C   0  0  0  0  0  0  0  0  0  0  0  0
   18.5606  -15.8368  -22.5195 C   0  0  0  0  0  0  0  0  0  0  0  0
   19.8668  -16.0756  -22.9073 C   0  0  0  0  0  0  0  0  0  0  0  0
   20.8982  -16.0287  -22.0185 C   0  0  0  0  0  0  0  0  0  0  0  0
   20.6439  -15.7345  -20.6869 C   0  0  0  0  0  0  0  0  0  0  0  0
   22.8165  -18.2257  -19.6898 C   0  0  0  0  0  0  0  0  0  0  0  0
   21.7499  -18.7719  -19.2344 O   0  0  0  0  0  0  0  0  0  0  0  0
   23.3068  -18.7648  -20.8438 O   0  0  0  0  0  0  0  0  0  0  0  0
  2  1  1  6
  3  2  1  0
  4  3  1  0
  5  2  1  0
  6  5  2  0
  7  5  1  0
  8  7  1  0
  8  9  1  1
 10  9  1  0
 11 10  2  0
 12 11  1  0
 13 12  2  0
 13 14  1  0
 14 15  2  0
 15 10  1  0
 16 18  1  0
 16  8  1  0
 17 16  2  0
 19 18  1  0
 19 30  1  0
 19 20  1  6
 21 22  2  0
 21 20  1  0
 23 22  1  0
 24 29  2  0
 24 23  1  0
 25 24  1  0
 26 27  1  0
 26 25  2  0
 27 28  2  0
 28 29  1  0
 29 21  1  0
 30 32  1  0
 31 30  2  0
M  END
$$$$
