NMS.pdb
     RDKit          3D

 23 22  0  0  1  0  0  0  0  0999 V2000
    7.5512  -17.9643   18.6938 N   0  0  0  0  0  0  0  0  0  0  0  0
    8.4118  -18.7183   19.5201 C   0  0  0  0  0  0  0  0  0  0  0  0
    8.7697  -19.8608   19.1630 O   0  0  0  0  0  0  0  0  0  0  0  0
    8.8805  -18.1531   20.7953 C   0  0  0  0  0  0  0  0  0  0  0  0
    8.6560  -16.6629   20.8029 C   0  0  2  0  0  0  0  0  0  0  0  0
    9.4768  -16.0324   19.7990 N   0  0  0  0  0  0  0  0  0  0  0  0
    8.9404  -16.1209   22.1580 C   0  0  0  0  0  0  0  0  0  0  0  0
   10.1440  -15.9956   22.5007 O   0  0  0  0  0  0  0  0  0  0  0  0
    7.6496  -11.6860   27.9684 C   0  0  0  0  0  0  0  0  0  0  0  0
    7.4637  -12.1179   26.2149 S   0  0  0  0  0  0  0  0  0  0  0  0
    7.0196  -13.8705   26.1685 C   0  0  0  0  0  0  0  0  0  0  0  0
    6.9167  -14.4209   24.7957 C   0  0  0  0  0  0  0  0  0  0  0  0
    8.1272  -15.1848   24.3281 C   0  0  2  0  0  0  0  0  0  0  0  0
    7.8920  -15.7637   23.0192 N   0  0  0  0  0  0  0  0  0  0  0  0
    8.5132  -16.2700   25.2706 C   0  0  0  0  0  0  0  0  0  0  0  0
    7.7128  -17.2152   25.4998 O   0  0  0  0  0  0  0  0  0  0  0  0
   12.3562  -17.1228   26.0136 O   0  0  0  0  0  0  0  0  0  0  0  0
   11.3786  -18.1094   26.1935 C   0  0  0  0  0  0  0  0  0  0  0  0
   10.1439  -17.4127   26.7155 C   0  0  2  0  0  0  0  0  0  0  0  0
    9.7719  -16.2763   25.9303 N   0  0  0  0  0  0  0  0  0  0  0  0
   10.3339  -16.9540   28.1169 C   0  0  0  0  0  0  0  0  0  0  0  0
   10.7362  -17.8916   29.0529 O   0  0  0  0  0  0  0  0  0  0  0  0
   10.1496  -15.7772   28.4835 O   0  0  0  0  0  0  0  0  0  0  0  0
  2  1  1  0
  2  3  2  0
  4  2  1  0
  5  4  1  0
  5  6  1  6
  7  5  1  0
  8  7  2  0
 10  9  1  0
 10 11  1  0
 11 12  1  0
 13 12  1  1
 13 14  1  0
 14  7  1  0
 15 13  1  0
 15 20  1  0
 16 15  2  0
 18 17  1  0
 19 18  1  6
 19 20  1  0
 19 21  1  0
 21 23  2  0
 21 22  1  0
M  END
$$$$
