NMS.pdb
     RDKit          3D

 23 22  0  0  1  0  0  0  0  0999 V2000
   11.1562  -19.2075   19.1342 N   0  0  0  0  0  0  0  0  0  0  0  0
   10.0834  -18.4232   19.6097 C   0  0  0  0  0  0  0  0  0  0  0  0
    9.1472  -18.1220   18.8393 O   0  0  0  0  0  0  0  0  0  0  0  0
   10.0762  -17.9667   21.0086 C   0  0  0  0  0  0  0  0  0  0  0  0
   10.1988  -16.4653   21.0532 C   0  0  2  0  0  0  0  0  0  0  0  0
   11.5061  -16.0606   20.5990 N   0  0  0  0  0  0  0  0  0  0  0  0
    9.9277  -15.9819   22.4329 C   0  0  0  0  0  0  0  0  0  0  0  0
   10.8852  -15.9624   23.2480 O   0  0  0  0  0  0  0  0  0  0  0  0
    6.7460  -11.3784   27.2250 C   0  0  0  0  0  0  0  0  0  0  0  0
    7.7743  -12.3627   26.0983 S   0  0  0  0  0  0  0  0  0  0  0  0
    6.6765  -13.5913   25.3524 C   0  0  0  0  0  0  0  0  0  0  0  0
    7.1513  -14.0934   24.0407 C   0  0  0  0  0  0  0  0  0  0  0  0
    8.3563  -14.9939   24.1066 C   0  0  2  0  0  0  0  0  0  0  0  0
    8.6410  -15.5630   22.8032 N   0  0  0  0  0  0  0  0  0  0  0  0
    8.1855  -16.1007   25.0867 C   0  0  0  0  0  0  0  0  0  0  0  0
    7.2724  -16.9519   24.9182 O   0  0  0  0  0  0  0  0  0  0  0  0
   10.5801  -19.5138   26.1834 O   0  0  0  0  0  0  0  0  0  0  0  0
   10.1880  -18.3016   25.6018 C   0  0  0  0  0  0  0  0  0  0  0  0
    9.4206  -17.5381   26.6556 C   0  0  2  0  0  0  0  0  0  0  0  0
    9.0294  -16.2320   26.2226 N   0  0  0  0  0  0  0  0  0  0  0  0
   10.2191  -17.3839   27.9002 C   0  0  0  0  0  0  0  0  0  0  0  0
   10.5910  -18.5348   28.5740 O   0  0  0  0  0  0  0  0  0  0  0  0
   10.5651  -16.2782   28.3595 O   0  0  0  0  0  0  0  0  0  0  0  0
  2  1  1  0
  2  3  2  0
  4  2  1  0
  5  4  1  0
  5  6  1  1
  7  5  1  0
  8  7  2  0
 10  9  1  0
 10 11  1  0
 11 12  1  0
 13 12  1  6
 13 14  1  0
 14  7  1  0
 15 13  1  0
 15 20  1  0
 16 15  2  0
 18 17  1  0
 19 18  1  6
 19 20  1  0
 19 21  1  0
 21 23  2  0
 21 22  1  0
M  END
$$$$
