NMS.pdb
     RDKit          3D

 23 22  0  0  1  0  0  0  0  0999 V2000
    8.6554  -19.1257   18.5957 N   0  0  0  0  0  0  0  0  0  0  0  0
    7.7882  -18.0831   18.9868 C   0  0  0  0  0  0  0  0  0  0  0  0
    6.9404  -17.6467   18.1796 O   0  0  0  0  0  0  0  0  0  0  0  0
    7.8896  -17.5184   20.3419 C   0  0  0  0  0  0  0  0  0  0  0  0
    8.0705  -16.0246   20.2571 C   0  0  2  0  0  0  0  0  0  0  0  0
    8.9542  -15.6930   19.1670 N   0  0  0  0  0  0  0  0  0  0  0  0
    8.5864  -15.5086   21.5526 C   0  0  0  0  0  0  0  0  0  0  0  0
    9.8330  -15.4402   21.7040 O   0  0  0  0  0  0  0  0  0  0  0  0
    6.9813  -11.3144   27.9583 C   0  0  0  0  0  0  0  0  0  0  0  0
    6.2173  -12.0756   26.4979 S   0  0  0  0  0  0  0  0  0  0  0  0
    7.4413  -13.2251   25.8260 C   0  0  0  0  0  0  0  0  0  0  0  0
    7.1251  -13.6955   24.4561 C   0  0  0  0  0  0  0  0  0  0  0  0
    8.1648  -14.5937   23.8400 C   0  0  2  0  0  0  0  0  0  0  0  0
    7.7019  -15.1133   22.5674 N   0  0  0  0  0  0  0  0  0  0  0  0
    8.5238  -15.7365   24.7231 C   0  0  0  0  0  0  0  0  0  0  0  0
    7.7303  -16.7070   24.8461 O   0  0  0  0  0  0  0  0  0  0  0  0
   11.8607  -18.6113   26.2467 O   0  0  0  0  0  0  0  0  0  0  0  0
   11.5272  -17.4560   25.5288 C   0  0  0  0  0  0  0  0  0  0  0  0
   10.1783  -17.0005   26.0337 C   0  0  2  0  0  0  0  0  0  0  0  0
    9.7488  -15.7706   25.4428 N   0  0  0  0  0  0  0  0  0  0  0  0
   10.1873  -16.8168   27.5091 C   0  0  0  0  0  0  0  0  0  0  0  0
   10.5149  -17.9102   28.2926 O   0  0  0  0  0  0  0  0  0  0  0  0
    9.9163  -15.7355   28.0664 O   0  0  0  0  0  0  0  0  0  0  0  0
  2  1  1  0
  2  3  2  0
  4  2  1  0
  5  4  1  0
  5  6  1  6
  7  5  1  0
  8  7  2  0
 10  9  1  0
 10 11  1  0
 11 12  1  0
 13 12  1  1
 13 14  1  0
 14  7  1  0
 15 13  1  0
 15 20  1  0
 16 15  2  0
 18 17  1  0
 19 18  1  6
 19 20  1  0
 19 21  1  0
 21 23  2  0
 21 22  1  0
M  END
$$$$
