NMS.pdb
     RDKit          3D

 23 22  0  0  1  0  0  0  0  0999 V2000
    8.4127  -12.4765   18.0962 N   0  0  0  0  0  0  0  0  0  0  0  0
    7.8659  -13.5655   18.8082 C   0  0  0  0  0  0  0  0  0  0  0  0
    7.3284  -14.5057   18.1853 O   0  0  0  0  0  0  0  0  0  0  0  0
    7.9331  -13.5850   20.2780 C   0  0  0  0  0  0  0  0  0  0  0  0
    8.6411  -14.8336   20.7373 C   0  0  2  0  0  0  0  0  0  0  0  0
    7.8049  -15.9875   20.5171 N   0  0  0  0  0  0  0  0  0  0  0  0
    9.0162  -14.6981   22.1697 C   0  0  0  0  0  0  0  0  0  0  0  0
   10.2037  -14.3840   22.4396 O   0  0  0  0  0  0  0  0  0  0  0  0
    7.1448  -11.5973   27.6808 C   0  0  0  0  0  0  0  0  0  0  0  0
    5.9981  -11.9827   26.3271 S   0  0  0  0  0  0  0  0  0  0  0  0
    6.9757  -12.8214   25.0575 C   0  0  0  0  0  0  0  0  0  0  0  0
    7.2702  -14.2393   25.3749 C   0  0  0  0  0  0  0  0  0  0  0  0
    8.4049  -14.8410   24.5889 C   0  0  2  0  0  0  0  0  0  0  0  0
    8.0677  -14.9160   23.1803 N   0  0  0  0  0  0  0  0  0  0  0  0
    8.7693  -16.2019   25.0684 C   0  0  0  0  0  0  0  0  0  0  0  0
    8.1122  -17.2019   24.6748 O   0  0  0  0  0  0  0  0  0  0  0  0
   11.8428  -19.4293   25.6223 O   0  0  0  0  0  0  0  0  0  0  0  0
   11.4679  -18.1233   25.2827 C   0  0  0  0  0  0  0  0  0  0  0  0
   10.3207  -17.7467   26.1906 C   0  0  2  0  0  0  0  0  0  0  0  0
    9.8486  -16.4148   25.9681 N   0  0  0  0  0  0  0  0  0  0  0  0
   10.7052  -17.8591   27.6224 C   0  0  0  0  0  0  0  0  0  0  0  0
   11.1410  -19.0918   28.0778 O   0  0  0  0  0  0  0  0  0  0  0  0
   10.6538  -16.9048   28.4224 O   0  0  0  0  0  0  0  0  0  0  0  0
  2  1  1  0
  2  3  2  0
  4  2  1  0
  5  4  1  0
  5  6  1  1
  7  5  1  0
  8  7  2  0
 10  9  1  0
 10 11  1  0
 11 12  1  0
 13 12  1  1
 13 14  1  0
 14  7  1  0
 15 13  1  0
 15 20  1  0
 16 15  2  0
 18 17  1  0
 19 18  1  6
 19 20  1  0
 19 21  1  0
 21 23  2  0
 21 22  1  0
M  END
$$$$
