NMS.pdb
     RDKit          3D

 23 22  0  0  1  0  0  0  0  0999 V2000
    7.2115  -13.3324   17.8899 N   0  0  0  0  0  0  0  0  0  0  0  0
    7.6974  -14.6064   18.2539 C   0  0  0  0  0  0  0  0  0  0  0  0
    7.7052  -15.5301   17.4128 O   0  0  0  0  0  0  0  0  0  0  0  0
    8.1909  -14.8368   19.6210 C   0  0  0  0  0  0  0  0  0  0  0  0
    8.0184  -13.5839   20.4407 C   0  0  2  0  0  0  0  0  0  0  0  0
    8.7872  -12.5067   19.8681 N   0  0  0  0  0  0  0  0  0  0  0  0
    8.4161  -13.8484   21.8487 C   0  0  0  0  0  0  0  0  0  0  0  0
    9.6083  -13.6182   22.1763 O   0  0  0  0  0  0  0  0  0  0  0  0
    6.7838  -10.6239   26.8999 C   0  0  0  0  0  0  0  0  0  0  0  0
    7.3991  -12.3084   26.6180 S   0  0  0  0  0  0  0  0  0  0  0  0
    6.3105  -13.0449   25.3756 C   0  0  0  0  0  0  0  0  0  0  0  0
    6.6442  -14.4530   25.0534 C   0  0  0  0  0  0  0  0  0  0  0  0
    7.8364  -14.6300   24.1509 C   0  0  2  0  0  0  0  0  0  0  0  0
    7.4832  -14.3392   22.7745 N   0  0  0  0  0  0  0  0  0  0  0  0
    8.4029  -16.0044   24.2209 C   0  0  0  0  0  0  0  0  0  0  0  0
    7.7073  -16.9885   23.8545 O   0  0  0  0  0  0  0  0  0  0  0  0
   12.2847  -16.7515   24.0230 O   0  0  0  0  0  0  0  0  0  0  0  0
   11.3889  -17.8035   23.7948 C   0  0  0  0  0  0  0  0  0  0  0  0
   10.2162  -17.5896   24.7229 C   0  0  2  0  0  0  0  0  0  0  0  0
    9.7207  -16.2480   24.6939 N   0  0  0  0  0  0  0  0  0  0  0  0
   10.5745  -17.9113   26.1296 C   0  0  0  0  0  0  0  0  0  0  0  0
   11.0456  -19.1849   26.3994 O   0  0  0  0  0  0  0  0  0  0  0  0
   10.4712  -17.0958   27.0664 O   0  0  0  0  0  0  0  0  0  0  0  0
  2  1  1  0
  2  3  2  0
  4  2  1  0
  5  4  1  0
  5  6  1  6
  7  5  1  0
  8  7  2  0
 10  9  1  0
 10 11  1  0
 11 12  1  0
 13 12  1  1
 13 14  1  0
 14  7  1  0
 15 13  1  0
 15 20  1  0
 16 15  2  0
 18 17  1  0
 19 18  1  6
 19 20  1  0
 19 21  1  0
 21 23  2  0
 21 22  1  0
M  END
$$$$
