NMS.pdb
     RDKit          3D

 23 22  0  0  1  0  0  0  0  0999 V2000
    7.4432  -16.7914   17.9332 N   0  0  0  0  0  0  0  0  0  0  0  0
    7.1728  -17.6427   19.0259 C   0  0  0  0  0  0  0  0  0  0  0  0
    6.4707  -18.6624   18.8581 O   0  0  0  0  0  0  0  0  0  0  0  0
    7.7198  -17.3225   20.3540 C   0  0  0  0  0  0  0  0  0  0  0  0
    8.4348  -15.9969   20.3023 C   0  0  2  0  0  0  0  0  0  0  0  0
    9.5550  -16.0724   19.3975 N   0  0  0  0  0  0  0  0  0  0  0  0
    8.8655  -15.6070   21.6710 C   0  0  0  0  0  0  0  0  0  0  0  0
   10.0724  -15.7802   21.9794 O   0  0  0  0  0  0  0  0  0  0  0  0
    6.9022  -11.6253   28.1773 C   0  0  0  0  0  0  0  0  0  0  0  0
    6.3738  -12.0457   26.4921 S   0  0  0  0  0  0  0  0  0  0  0  0
    7.5592  -13.2660   25.8783 C   0  0  0  0  0  0  0  0  0  0  0  0
    7.3314  -13.6574   24.4666 C   0  0  0  0  0  0  0  0  0  0  0  0
    8.3356  -14.6319   23.9104 C   0  0  2  0  0  0  0  0  0  0  0  0
    7.9467  -15.0639   22.5816 N   0  0  0  0  0  0  0  0  0  0  0  0
    8.5027  -15.8313   24.7755 C   0  0  0  0  0  0  0  0  0  0  0  0
    7.5342  -16.6175   24.9508 O   0  0  0  0  0  0  0  0  0  0  0  0
   12.0676  -17.5875   25.3858 O   0  0  0  0  0  0  0  0  0  0  0  0
   10.8677  -18.2959   25.5266 C   0  0  0  0  0  0  0  0  0  0  0  0
    9.8695  -17.3478   26.1484 C   0  0  2  0  0  0  0  0  0  0  0  0
    9.7351  -16.1242   25.4197 N   0  0  0  0  0  0  0  0  0  0  0  0
   10.2466  -17.0056   27.5453 C   0  0  0  0  0  0  0  0  0  0  0  0
   10.4298  -18.0485   28.4372 O   0  0  0  0  0  0  0  0  0  0  0  0
   10.4036  -15.8358   27.9454 O   0  0  0  0  0  0  0  0  0  0  0  0
  2  1  1  0
  2  3  2  0
  4  2  1  0
  5  4  1  0
  5  6  1  6
  7  5  1  0
  8  7  2  0
 10  9  1  0
 10 11  1  0
 11 12  1  0
 13 12  1  1
 13 14  1  0
 14  7  1  0
 15 13  1  0
 15 20  1  0
 16 15  2  0
 18 17  1  0
 19 18  1  6
 19 20  1  0
 19 21  1  0
 21 23  2  0
 21 22  1  0
M  END
$$$$
