NMS.pdb
     RDKit          3D

 23 22  0  0  1  0  0  0  0  0999 V2000
    8.7895  -12.4307   17.7839 N   0  0  0  0  0  0  0  0  0  0  0  0
    8.0391  -13.4067   18.4740 C   0  0  0  0  0  0  0  0  0  0  0  0
    7.4251  -14.2848   17.8315 O   0  0  0  0  0  0  0  0  0  0  0  0
    7.9859  -13.3824   19.9444 C   0  0  0  0  0  0  0  0  0  0  0  0
    8.3415  -14.7424   20.4877 C   0  0  2  0  0  0  0  0  0  0  0  0
    7.2180  -15.6371   20.3597 N   0  0  0  0  0  0  0  0  0  0  0  0
    8.7793  -14.6170   21.9031 C   0  0  0  0  0  0  0  0  0  0  0  0
    9.8611  -14.0184   22.1333 O   0  0  0  0  0  0  0  0  0  0  0  0
    6.6787  -10.7769   27.0496 C   0  0  0  0  0  0  0  0  0  0  0  0
    6.2133  -12.4838   26.6428 S   0  0  0  0  0  0  0  0  0  0  0  0
    7.5161  -13.1211   25.5622 C   0  0  0  0  0  0  0  0  0  0  0  0
    7.3434  -14.5488   25.2020 C   0  0  0  0  0  0  0  0  0  0  0  0
    8.4297  -15.1162   24.3270 C   0  0  2  0  0  0  0  0  0  0  0  0
    8.0027  -15.1530   22.9414 N   0  0  0  0  0  0  0  0  0  0  0  0
    8.8346  -16.4871   24.7411 C   0  0  0  0  0  0  0  0  0  0  0  0
    8.0926  -17.4684   24.4709 O   0  0  0  0  0  0  0  0  0  0  0  0
   12.4574  -17.8305   24.8556 O   0  0  0  0  0  0  0  0  0  0  0  0
   11.3907  -18.7291   24.9817 C   0  0  0  0  0  0  0  0  0  0  0  0
   10.3577  -18.0625   25.8596 C   0  0  2  0  0  0  0  0  0  0  0  0
   10.0473  -16.7303   25.4410 N   0  0  0  0  0  0  0  0  0  0  0  0
   10.8099  -18.0004   27.2746 C   0  0  0  0  0  0  0  0  0  0  0  0
   11.1116  -19.1941   27.9077 O   0  0  0  0  0  0  0  0  0  0  0  0
   10.9285  -16.9346   27.9096 O   0  0  0  0  0  0  0  0  0  0  0  0
  2  1  1  0
  2  3  2  0
  4  2  1  0
  5  4  1  0
  5  6  1  1
  7  5  1  0
  8  7  2  0
 10  9  1  0
 10 11  1  0
 11 12  1  0
 13 12  1  1
 13 14  1  0
 14  7  1  0
 15 13  1  0
 15 20  1  0
 16 15  2  0
 18 17  1  0
 19 18  1  6
 19 20  1  0
 19 21  1  0
 21 23  2  0
 21 22  1  0
M  END
$$$$
