NMS.pdb
     RDKit          3D

 23 22  0  0  1  0  0  0  0  0999 V2000
    8.6229  -19.6238   19.1795 N   0  0  0  0  0  0  0  0  0  0  0  0
    9.2386  -18.3550   19.1246 C   0  0  0  0  0  0  0  0  0  0  0  0
    9.4378  -17.8104   18.0181 O   0  0  0  0  0  0  0  0  0  0  0  0
    9.6408  -17.6839   20.3709 C   0  0  0  0  0  0  0  0  0  0  0  0
    8.8801  -16.3914   20.5197 C   0  0  2  0  0  0  0  0  0  0  0  0
    9.2399  -15.4794   19.4624 N   0  0  0  0  0  0  0  0  0  0  0  0
    9.1476  -15.8047   21.8595 C   0  0  0  0  0  0  0  0  0  0  0  0
   10.3328  -15.4887   22.1372 O   0  0  0  0  0  0  0  0  0  0  0  0
    7.6815  -11.6264   27.6993 C   0  0  0  0  0  0  0  0  0  0  0  0
    7.2349  -12.1223   26.0109 S   0  0  0  0  0  0  0  0  0  0  0  0
    7.1452  -13.9286   26.0197 C   0  0  0  0  0  0  0  0  0  0  0  0
    7.0305  -14.5241   24.6669 C   0  0  0  0  0  0  0  0  0  0  0  0
    8.3224  -15.0415   24.0919 C   0  0  2  0  0  0  0  0  0  0  0  0
    8.1037  -15.6140   22.7773 N   0  0  0  0  0  0  0  0  0  0  0  0
    8.9612  -16.0664   24.9615 C   0  0  0  0  0  0  0  0  0  0  0  0
    8.7895  -17.2903   24.7180 O   0  0  0  0  0  0  0  0  0  0  0  0
    9.2688  -17.8877   28.4971 O   0  0  0  0  0  0  0  0  0  0  0  0
    9.5245  -17.9096   27.1203 C   0  0  0  0  0  0  0  0  0  0  0  0
   10.4248  -16.7335   26.8231 C   0  0  2  0  0  0  0  0  0  0  0  0
    9.7698  -15.7063   26.0733 N   0  0  0  0  0  0  0  0  0  0  0  0
   11.6298  -17.1543   26.0606 C   0  0  0  0  0  0  0  0  0  0  0  0
   12.4683  -18.0885   26.6447 O   0  0  0  0  0  0  0  0  0  0  0  0
   11.9163  -16.7096   24.9322 O   0  0  0  0  0  0  0  0  0  0  0  0
  2  1  1  0
  2  3  2  0
  4  2  1  0
  5  4  1  0
  5  6  1  6
  7  5  1  0
  8  7  2  0
 10  9  1  0
 10 11  1  0
 11 12  1  0
 13 12  1  1
 13 14  1  0
 14  7  1  0
 15 13  1  0
 15 20  1  0
 16 15  2  0
 18 17  1  0
 19 18  1  6
 19 20  1  0
 19 21  1  0
 21 23  2  0
 21 22  1  0
M  END
$$$$
