NMS.pdb
     RDKit          3D

 23 22  0  0  1  0  0  0  0  0999 V2000
    8.7802  -16.0525   16.8188 N   0  0  0  0  0  0  0  0  0  0  0  0
    7.8420  -16.0651   17.8731 C   0  0  0  0  0  0  0  0  0  0  0  0
    6.7568  -16.6672   17.7297 O   0  0  0  0  0  0  0  0  0  0  0  0
    8.1493  -15.3689   19.1327 C   0  0  0  0  0  0  0  0  0  0  0  0
    8.2105  -16.3655   20.2615 C   0  0  2  0  0  0  0  0  0  0  0  0
    6.9238  -16.9908   20.4416 N   0  0  0  0  0  0  0  0  0  0  0  0
    8.6649  -15.6869   21.5040 C   0  0  0  0  0  0  0  0  0  0  0  0
    9.8509  -15.2708   21.5469 O   0  0  0  0  0  0  0  0  0  0  0  0
    6.9065  -10.9254   26.4449 C   0  0  0  0  0  0  0  0  0  0  0  0
    6.1629  -12.5792   26.5318 S   0  0  0  0  0  0  0  0  0  0  0  0
    7.4034  -13.7277   25.8891 C   0  0  0  0  0  0  0  0  0  0  0  0
    7.0925  -14.2398   24.5330 C   0  0  0  0  0  0  0  0  0  0  0  0
    8.2242  -14.9672   23.8566 C   0  0  2  0  0  0  0  0  0  0  0  0
    7.7902  -15.5212   22.5884 N   0  0  0  0  0  0  0  0  0  0  0  0
    8.7763  -16.0649   24.6962 C   0  0  0  0  0  0  0  0  0  0  0  0
    8.0539  -17.0545   24.9885 O   0  0  0  0  0  0  0  0  0  0  0  0
   12.2127  -17.5854   24.2279 O   0  0  0  0  0  0  0  0  0  0  0  0
   12.0847  -17.4232   25.6131 C   0  0  0  0  0  0  0  0  0  0  0  0
   10.6217  -17.1692   25.8912 C   0  0  2  0  0  0  0  0  0  0  0  0
   10.1099  -16.0343   25.1866 N   0  0  0  0  0  0  0  0  0  0  0  0
   10.3770  -16.9517   27.3414 C   0  0  0  0  0  0  0  0  0  0  0  0
   10.5786  -18.0217   28.1965 O   0  0  0  0  0  0  0  0  0  0  0  0
   10.0030  -15.8622   27.8172 O   0  0  0  0  0  0  0  0  0  0  0  0
  2  1  1  0
  2  3  2  0
  4  2  1  0
  5  4  1  0
  5  6  1  1
  7  5  1  0
  8  7  2  0
 10  9  1  0
 10 11  1  0
 11 12  1  0
 13 12  1  1
 13 14  1  0
 14  7  1  0
 15 13  1  0
 15 20  1  0
 16 15  2  0
 18 17  1  0
 19 18  1  1
 19 20  1  0
 19 21  1  0
 21 23  2  0
 21 22  1  0
M  END
$$$$
