NMS.pdb
     RDKit          3D

 23 22  0  0  1  0  0  0  0  0999 V2000
   10.9328  -16.1018   18.0938 N   0  0  0  0  0  0  0  0  0  0  0  0
    9.6416  -15.8011   18.5777 C   0  0  0  0  0  0  0  0  0  0  0  0
    8.6498  -15.9545   17.8337 O   0  0  0  0  0  0  0  0  0  0  0  0
    9.4738  -15.3093   19.9545 C   0  0  0  0  0  0  0  0  0  0  0  0
    9.3556  -16.4772   20.8997 C   0  0  2  0  0  0  0  0  0  0  0  0
    8.1390  -17.2056   20.6386 N   0  0  0  0  0  0  0  0  0  0  0  0
    9.4090  -15.9916   22.3041 C   0  0  0  0  0  0  0  0  0  0  0  0
   10.4951  -15.5133   22.7202 O   0  0  0  0  0  0  0  0  0  0  0  0
    7.2850  -11.1871   26.2782 C   0  0  0  0  0  0  0  0  0  0  0  0
    7.6374  -12.9622   26.4228 S   0  0  0  0  0  0  0  0  0  0  0  0
    6.8118  -13.7588   25.0247 C   0  0  0  0  0  0  0  0  0  0  0  0
    6.9713  -15.2326   25.0020 C   0  0  0  0  0  0  0  0  0  0  0  0
    8.3193  -15.7159   24.5364 C   0  0  2  0  0  0  0  0  0  0  0  0
    8.2778  -16.0694   23.1304 N   0  0  0  0  0  0  0  0  0  0  0  0
    8.8008  -16.8907   25.3128 C   0  0  0  0  0  0  0  0  0  0  0  0
    8.5311  -18.0561   24.9182 O   0  0  0  0  0  0  0  0  0  0  0  0
   12.3094  -19.1118   26.6430 O   0  0  0  0  0  0  0  0  0  0  0  0
   11.5469  -18.1069   26.0347 C   0  0  0  0  0  0  0  0  0  0  0  0
   10.3788  -17.8277   26.9512 C   0  0  2  0  0  0  0  0  0  0  0  0
    9.5655  -16.7404   26.5012 N   0  0  0  0  0  0  0  0  0  0  0  0
   10.8371  -17.5120   28.3299 C   0  0  0  0  0  0  0  0  0  0  0  0
   11.5521  -18.4834   29.0096 O   0  0  0  0  0  0  0  0  0  0  0  0
   10.6095  -16.4250   28.8953 O   0  0  0  0  0  0  0  0  0  0  0  0
  2  1  1  0
  2  3  2  0
  4  2  1  0
  5  4  1  0
  5  6  1  1
  7  5  1  0
  8  7  2  0
 10  9  1  0
 10 11  1  0
 11 12  1  0
 13 12  1  1
 13 14  1  0
 14  7  1  0
 15 13  1  0
 15 20  1  0
 16 15  2  0
 18 17  1  0
 19 18  1  6
 19 20  1  0
 19 21  1  0
 21 23  2  0
 21 22  1  0
M  END
$$$$
