NMS.pdb
     RDKit          3D

 23 22  0  0  1  0  0  0  0  0999 V2000
    7.5803  -12.5932   17.5697 N   0  0  0  0  0  0  0  0  0  0  0  0
    8.4000  -13.5872   18.1459 C   0  0  0  0  0  0  0  0  0  0  0  0
    8.7705  -14.5609   17.4565 O   0  0  0  0  0  0  0  0  0  0  0  0
    8.8115  -13.4688   19.5538 C   0  0  0  0  0  0  0  0  0  0  0  0
    8.4442  -14.7271   20.2974 C   0  0  2  0  0  0  0  0  0  0  0  0
    7.0322  -14.9875   20.1650 N   0  0  0  0  0  0  0  0  0  0  0  0
    8.8431  -14.5998   21.7241 C   0  0  0  0  0  0  0  0  0  0  0  0
   10.0700  -14.6394   21.9976 O   0  0  0  0  0  0  0  0  0  0  0  0
    6.6359  -10.6797   26.6317 C   0  0  0  0  0  0  0  0  0  0  0  0
    6.2476  -12.3639   27.1870 S   0  0  0  0  0  0  0  0  0  0  0  0
    7.4157  -13.4578   26.3445 C   0  0  0  0  0  0  0  0  0  0  0  0
    7.1695  -13.5804   24.8876 C   0  0  0  0  0  0  0  0  0  0  0  0
    8.2189  -14.3515   24.1315 C   0  0  2  0  0  0  0  0  0  0  0  0
    7.8736  -14.4408   22.7256 N   0  0  0  0  0  0  0  0  0  0  0  0
    8.4097  -15.7267   24.6673 C   0  0  0  0  0  0  0  0  0  0  0  0
    7.5408  -16.6116   24.4465 O   0  0  0  0  0  0  0  0  0  0  0  0
   11.8355  -17.5346   24.8146 O   0  0  0  0  0  0  0  0  0  0  0  0
   10.6186  -18.2234   24.8931 C   0  0  0  0  0  0  0  0  0  0  0  0
    9.7325  -17.4416   25.8343 C   0  0  2  0  0  0  0  0  0  0  0  0
    9.5550  -16.0808   25.4304 N   0  0  0  0  0  0  0  0  0  0  0  0
   10.2820  -17.4375   27.2158 C   0  0  0  0  0  0  0  0  0  0  0  0
   10.4901  -16.2107   27.8229 O   0  0  0  0  0  0  0  0  0  0  0  0
   10.5607  -18.4764   27.8452 O   0  0  0  0  0  0  0  0  0  0  0  0
  2  1  1  0
  2  3  2  0
  4  2  1  0
  5  4  1  0
  5  6  1  1
  7  5  1  0
  8  7  2  0
 10  9  1  0
 10 11  1  0
 11 12  1  0
 13 12  1  1
 13 14  1  0
 14  7  1  0
 15 13  1  0
 15 20  1  0
 16 15  2  0
 18 17  1  0
 19 18  1  6
 19 20  1  0
 19 21  1  0
 21 23  2  0
 21 22  1  0
M  END
$$$$
