NMS.pdb
     RDKit          3D

 23 22  0  0  1  0  0  0  0  0999 V2000
   11.6607  -17.1098   17.8754 N   0  0  0  0  0  0  0  0  0  0  0  0
   10.3890  -16.7864   18.3953 C   0  0  0  0  0  0  0  0  0  0  0  0
    9.3605  -17.1892   17.8116 O   0  0  0  0  0  0  0  0  0  0  0  0
   10.2848  -15.9778   19.6202 C   0  0  0  0  0  0  0  0  0  0  0  0
    9.4600  -16.7130   20.6451 C   0  0  2  0  0  0  0  0  0  0  0  0
    8.0796  -16.7587   20.2310 N   0  0  0  0  0  0  0  0  0  0  0  0
    9.6093  -16.0575   21.9713 C   0  0  0  0  0  0  0  0  0  0  0  0
   10.7715  -15.7759   22.3607 O   0  0  0  0  0  0  0  0  0  0  0  0
    7.2768  -11.6077   27.6191 C   0  0  0  0  0  0  0  0  0  0  0  0
    7.3284  -12.0448   25.8578 S   0  0  0  0  0  0  0  0  0  0  0  0
    7.2897  -13.8513   25.7821 C   0  0  0  0  0  0  0  0  0  0  0  0
    7.3413  -14.3891   24.4014 C   0  0  0  0  0  0  0  0  0  0  0  0
    8.5885  -15.1655   24.0711 C   0  0  2  0  0  0  0  0  0  0  0  0
    8.4828  -15.7667   22.7554 N   0  0  0  0  0  0  0  0  0  0  0  0
    8.8721  -16.2351   25.0663 C   0  0  0  0  0  0  0  0  0  0  0  0
    8.0815  -17.2088   25.1825 O   0  0  0  0  0  0  0  0  0  0  0  0
   12.1217  -18.9763   26.9120 O   0  0  0  0  0  0  0  0  0  0  0  0
   11.7866  -17.8838   26.1024 C   0  0  0  0  0  0  0  0  0  0  0  0
   10.4396  -17.3869   26.5726 C   0  0  2  0  0  0  0  0  0  0  0  0
   10.0208  -16.1947   25.9020 N   0  0  0  0  0  0  0  0  0  0  0  0
   10.4459  -17.1084   28.0330 C   0  0  0  0  0  0  0  0  0  0  0  0
   10.7814  -18.1464   28.8855 O   0  0  0  0  0  0  0  0  0  0  0  0
   10.1662  -15.9955   28.5193 O   0  0  0  0  0  0  0  0  0  0  0  0
  2  1  1  0
  2  3  2  0
  4  2  1  0
  5  4  1  0
  5  6  1  6
  7  5  1  0
  8  7  2  0
 10  9  1  0
 10 11  1  0
 11 12  1  0
 13 12  1  1
 13 14  1  0
 14  7  1  0
 15 13  1  0
 15 20  1  0
 16 15  2  0
 18 17  1  0
 19 18  1  6
 19 20  1  0
 19 21  1  0
 21 23  2  0
 21 22  1  0
M  END
$$$$
