NMS.pdb
     RDKit          3D

 23 22  0  0  1  0  0  0  0  0999 V2000
    8.7073  -12.8020   16.9645 N   0  0  0  0  0  0  0  0  0  0  0  0
    7.8252  -13.6829   17.6263 C   0  0  0  0  0  0  0  0  0  0  0  0
    7.2417  -14.5778   16.9787 O   0  0  0  0  0  0  0  0  0  0  0  0
    7.5999  -13.5402   19.0735 C   0  0  0  0  0  0  0  0  0  0  0  0
    8.0958  -14.7708   19.7881 C   0  0  2  0  0  0  0  0  0  0  0  0
    7.0356  -15.7418   19.8981 N   0  0  0  0  0  0  0  0  0  0  0  0
    8.6291  -14.3931   21.1237 C   0  0  0  0  0  0  0  0  0  0  0  0
    9.7000  -13.7349   21.1648 O   0  0  0  0  0  0  0  0  0  0  0  0
    7.0003  -11.9725   28.2553 C   0  0  0  0  0  0  0  0  0  0  0  0
    6.3482  -12.3806   26.6109 S   0  0  0  0  0  0  0  0  0  0  0  0
    7.6361  -13.3391   25.7781 C   0  0  0  0  0  0  0  0  0  0  0  0
    7.2977  -13.7000   24.3805 C   0  0  0  0  0  0  0  0  0  0  0  0
    8.4078  -14.3681   23.6132 C   0  0  2  0  0  0  0  0  0  0  0  0
    7.9513  -14.7643   22.2947 N   0  0  0  0  0  0  0  0  0  0  0  0
    8.9434  -15.5657   24.3158 C   0  0  0  0  0  0  0  0  0  0  0  0
    8.3096  -16.6534   24.2724 O   0  0  0  0  0  0  0  0  0  0  0  0
    9.7724  -17.9663   27.7018 O   0  0  0  0  0  0  0  0  0  0  0  0
    9.3522  -16.8883   26.9128 C   0  0  0  0  0  0  0  0  0  0  0  0
   10.4747  -16.5882   25.9474 C   0  0  2  0  0  0  0  0  0  0  0  0
   10.1628  -15.5235   25.0444 N   0  0  0  0  0  0  0  0  0  0  0  0
   10.8242  -17.7841   25.1362 C   0  0  0  0  0  0  0  0  0  0  0  0
   12.1309  -18.2387   25.1883 O   0  0  0  0  0  0  0  0  0  0  0  0
   10.0037  -18.3893   24.4194 O   0  0  0  0  0  0  0  0  0  0  0  0
  2  1  1  0
  2  3  2  0
  4  2  1  0
  5  4  1  0
  5  6  1  1
  7  5  1  0
  8  7  2  0
 10  9  1  0
 10 11  1  0
 11 12  1  0
 13 12  1  1
 13 14  1  0
 14  7  1  0
 15 13  1  0
 15 20  1  0
 16 15  2  0
 18 17  1  0
 19 18  1  1
 19 20  1  0
 19 21  1  0
 21 23  2  0
 21 22  1  0
M  END
$$$$
