NMS.pdb
     RDKit          3D

 23 22  0  0  1  0  0  0  0  0999 V2000
    6.1498  -17.8332   18.8627 N   0  0  0  0  0  0  0  0  0  0  0  0
    7.5600  -17.8903   18.8589 C   0  0  0  0  0  0  0  0  0  0  0  0
    8.1607  -18.3000   17.8430 O   0  0  0  0  0  0  0  0  0  0  0  0
    8.3114  -17.4669   20.0512 C   0  0  0  0  0  0  0  0  0  0  0  0
    8.0993  -15.9938   20.2881 C   0  0  2  0  0  0  0  0  0  0  0  0
    8.7042  -15.2284   19.2263 N   0  0  0  0  0  0  0  0  0  0  0  0
    8.6526  -15.6157   21.6154 C   0  0  0  0  0  0  0  0  0  0  0  0
    9.8637  -15.2817   21.6743 O   0  0  0  0  0  0  0  0  0  0  0  0
    6.4627  -10.7763   26.2051 C   0  0  0  0  0  0  0  0  0  0  0  0
    6.6138  -12.5627   26.4910 S   0  0  0  0  0  0  0  0  0  0  0  0
    6.9721  -13.3055   24.8815 C   0  0  0  0  0  0  0  0  0  0  0  0
    7.2147  -14.7669   24.9426 C   0  0  0  0  0  0  0  0  0  0  0  0
    8.3383  -15.2587   24.0691 C   0  0  2  0  0  0  0  0  0  0  0  0
    7.8407  -15.6342   22.7595 N   0  0  0  0  0  0  0  0  0  0  0  0
    9.0523  -16.4216   24.6630 C   0  0  0  0  0  0  0  0  0  0  0  0
    8.4527  -17.5206   24.8024 O   0  0  0  0  0  0  0  0  0  0  0  0
   13.0925  -18.7071   25.6620 O   0  0  0  0  0  0  0  0  0  0  0  0
   12.5661  -17.4859   25.2229 C   0  0  0  0  0  0  0  0  0  0  0  0
   11.0839  -17.5179   25.5134 C   0  0  2  0  0  0  0  0  0  0  0  0
   10.4067  -16.3332   25.0842 N   0  0  0  0  0  0  0  0  0  0  0  0
   10.8216  -17.6899   26.9667 C   0  0  0  0  0  0  0  0  0  0  0  0
   10.0493  -16.7310   27.6000 O   0  0  0  0  0  0  0  0  0  0  0  0
   11.2603  -18.6471   27.6334 O   0  0  0  0  0  0  0  0  0  0  0  0
  2  1  1  0
  2  3  2  0
  4  2  1  0
  5  4  1  0
  5  6  1  6
  7  5  1  0
  8  7  2  0
 10  9  1  0
 10 11  1  0
 11 12  1  0
 13 12  1  1
 13 14  1  0
 14  7  1  0
 15 13  1  0
 15 20  1  0
 16 15  2  0
 18 17  1  0
 19 18  1  1
 19 20  1  0
 19 21  1  0
 21 23  2  0
 21 22  1  0
M  END
$$$$
