NMS.pdb
     RDKit          3D

 23 22  0  0  1  0  0  0  0  0999 V2000
    7.9601  -15.3964   18.1645 N   0  0  0  0  0  0  0  0  0  0  0  0
    8.2905  -14.1101   18.6421 C   0  0  0  0  0  0  0  0  0  0  0  0
    8.3654  -13.1528   17.8428 O   0  0  0  0  0  0  0  0  0  0  0  0
    8.5441  -13.9067   20.0773 C   0  0  0  0  0  0  0  0  0  0  0  0
    8.4575  -15.2262   20.8000 C   0  0  2  0  0  0  0  0  0  0  0  0
    7.1112  -15.7388   20.7373 N   0  0  0  0  0  0  0  0  0  0  0  0
    8.9111  -15.0575   22.2059 C   0  0  0  0  0  0  0  0  0  0  0  0
   10.0938  -14.6769   22.4007 O   0  0  0  0  0  0  0  0  0  0  0  0
    6.3485  -10.5261   26.2394 C   0  0  0  0  0  0  0  0  0  0  0  0
    6.1805  -12.3154   26.4962 S   0  0  0  0  0  0  0  0  0  0  0  0
    7.3353  -13.1033   25.3486 C   0  0  0  0  0  0  0  0  0  0  0  0
    7.4147  -14.5756   25.5034 C   0  0  0  0  0  0  0  0  0  0  0  0
    8.4662  -15.2446   24.6583 C   0  0  2  0  0  0  0  0  0  0  0  0
    8.0393  -15.3174   23.2740 N   0  0  0  0  0  0  0  0  0  0  0  0
    8.7886  -16.6174   25.1340 C   0  0  0  0  0  0  0  0  0  0  0  0
    7.8977  -17.5078   25.1293 O   0  0  0  0  0  0  0  0  0  0  0  0
   12.4768  -18.1406   25.1162 O   0  0  0  0  0  0  0  0  0  0  0  0
   11.3823  -19.0084   25.2173 C   0  0  0  0  0  0  0  0  0  0  0  0
   10.3359  -18.2994   26.0447 C   0  0  2  0  0  0  0  0  0  0  0  0
   10.0859  -16.9630   25.6000 N   0  0  0  0  0  0  0  0  0  0  0  0
   10.7312  -18.2354   27.4765 C   0  0  0  0  0  0  0  0  0  0  0  0
   10.9908  -19.4294   28.1274 O   0  0  0  0  0  0  0  0  0  0  0  0
   10.8385  -17.1677   28.1104 O   0  0  0  0  0  0  0  0  0  0  0  0
  2  1  1  0
  2  3  2  0
  4  2  1  0
  5  4  1  0
  5  6  1  1
  7  5  1  0
  8  7  2  0
 10  9  1  0
 10 11  1  0
 11 12  1  0
 13 12  1  1
 13 14  1  0
 14  7  1  0
 15 13  1  0
 15 20  1  0
 16 15  2  0
 18 17  1  0
 19 18  1  6
 19 20  1  0
 19 21  1  0
 21 23  2  0
 21 22  1  0
M  END
$$$$
