NMS.pdb
     RDKit          3D

 23 22  0  0  1  0  0  0  0  0999 V2000
   10.9237  -17.4153   17.5061 N   0  0  0  0  0  0  0  0  0  0  0  0
    9.9016  -16.6231   18.0715 C   0  0  0  0  0  0  0  0  0  0  0  0
    8.8202  -16.4799   17.4625 O   0  0  0  0  0  0  0  0  0  0  0  0
   10.1177  -15.9722   19.3734 C   0  0  0  0  0  0  0  0  0  0  0  0
    9.3512  -16.7079   20.4422 C   0  0  2  0  0  0  0  0  0  0  0  0
    7.9498  -16.7529   20.1057 N   0  0  0  0  0  0  0  0  0  0  0  0
    9.5745  -16.0535   21.7585 C   0  0  0  0  0  0  0  0  0  0  0  0
   10.7590  -15.9409   22.1660 O   0  0  0  0  0  0  0  0  0  0  0  0
    6.4505  -11.9511   27.6985 C   0  0  0  0  0  0  0  0  0  0  0  0
    6.1398  -12.5727   26.0214 S   0  0  0  0  0  0  0  0  0  0  0  0
    7.5048  -13.6946   25.6353 C   0  0  0  0  0  0  0  0  0  0  0  0
    7.4608  -14.2300   24.2534 C   0  0  0  0  0  0  0  0  0  0  0  0
    8.6518  -15.0630   23.8596 C   0  0  2  0  0  0  0  0  0  0  0  0
    8.4912  -15.5801   22.5140 N   0  0  0  0  0  0  0  0  0  0  0  0
    8.8795  -16.2035   24.7882 C   0  0  0  0  0  0  0  0  0  0  0  0
    8.5227  -17.3645   24.4543 O   0  0  0  0  0  0  0  0  0  0  0  0
    7.6788  -17.7142   27.7254 O   0  0  0  0  0  0  0  0  0  0  0  0
    8.6677  -18.1903   26.8556 C   0  0  0  0  0  0  0  0  0  0  0  0
    9.7835  -17.1719   26.8612 C   0  0  2  0  0  0  0  0  0  0  0  0
    9.4945  -16.0249   26.0568 N   0  0  0  0  0  0  0  0  0  0  0  0
   11.0566  -17.7622   26.3700 C   0  0  0  0  0  0  0  0  0  0  0  0
   11.6814  -17.1464   25.2989 O   0  0  0  0  0  0  0  0  0  0  0  0
   11.5810  -18.7748   26.8728 O   0  0  0  0  0  0  0  0  0  0  0  0
  2  1  1  0
  2  3  2  0
  4  2  1  0
  5  4  1  0
  5  6  1  6
  7  5  1  0
  8  7  2  0
 10  9  1  0
 10 11  1  0
 11 12  1  0
 13 12  1  1
 13 14  1  0
 14  7  1  0
 15 13  1  0
 15 20  1  0
 16 15  2  0
 18 17  1  0
 19 18  1  6
 19 20  1  0
 19 21  1  0
 21 23  2  0
 21 22  1  0
M  END
$$$$
