HCL.pdb
     RDKit          3D

 25 25  0  0  1  0  0  0  0  0999 V2000
   15.4301  -12.2384  -13.8042 N   0  0  0  0  0  0  0  0  0  0  0  0
   15.6605  -11.3831  -14.9366 C   0  0  1  0  0  0  0  0  0  0  0  0
   14.3090  -10.8708  -15.3972 C   0  0  0  0  0  0  0  0  0  0  0  0
   13.5450  -12.0196  -15.9201 C   0  0  0  0  0  0  0  0  0  0  0  0
   12.3468  -12.5197  -15.4721 C   0  0  0  0  0  0  0  0  0  0  0  0
   12.0183  -13.5879  -16.2559 N   0  0  0  0  0  0  0  0  0  0  0  0
   12.9883  -13.7473  -17.1680 C   0  0  0  0  0  0  0  0  0  0  0  0
   13.9131  -12.7883  -16.9557 N   0  0  0  0  0  0  0  0  0  0  0  0
   16.5706  -10.2759  -14.5614 C   0  0  0  0  0  0  0  0  0  0  0  0
   16.3574   -9.6535  -13.4926 O   0  0  0  0  0  0  0  0  0  0  0  0
   17.6745   -9.8827  -15.3522 N   0  0  0  0  0  0  0  0  0  0  0  0
   18.4544   -8.7529  -14.9811 C   0  0  1  0  0  0  0  0  0  0  0  0
   19.8919   -8.8436  -15.4866 C   0  0  0  0  0  0  0  0  0  0  0  0
   20.8497   -7.4028  -14.9782 S   0  0  0  0  0  0  0  0  0  0  0  0
   17.8271   -7.4712  -15.4269 C   0  0  0  0  0  0  0  0  0  0  0  0
   17.3525   -7.3379  -16.5840 O   0  0  0  0  0  0  0  0  0  0  0  0
   14.5590   -3.5038  -15.8205 C   0  0  0  0  0  0  0  0  0  0  0  0
   15.2791   -3.5060  -14.5087 C   0  0  1  0  0  0  0  0  0  0  0  0
   14.2111   -3.3469  -13.4160 C   0  0  0  0  0  0  0  0  0  0  0  0
   15.9763   -4.7911  -14.2306 C   0  0  0  0  0  0  0  0  0  0  0  0
   17.2054   -5.0540  -15.0424 C   0  0  2  0  0  0  0  0  0  0  0  0
   17.7344   -6.3401  -14.5695 N   0  0  0  0  0  0  0  0  0  0  0  0
   18.2199   -3.9964  -14.9651 C   0  0  0  0  0  0  0  0  0  0  0  0
   19.2280   -4.0517  -14.2161 O   0  0  0  0  0  0  0  0  0  0  0  0
   18.0881   -2.8609  -15.7493 O   0  0  0  0  0  0  0  0  0  0  0  0
  2  1  1  1
  3  2  1  0
  3  4  1  0
  4  8  1  0
  5  4  2  0
  5  6  1  0
  6  7  1  0
  8  7  2  0
  9  2  1  0
  9 10  2  0
 11  9  1  0
 12 11  1  0
 12 15  1  0
 12 13  1  6
 14 13  1  0
 15 22  1  0
 16 15  2  0
 18 17  1  6
 18 19  1  0
 20 18  1  0
 21 20  1  1
 22 21  1  0
 23 25  1  0
 23 21  1  0
 24 23  2  0
M  END
$$$$
