HCL.pdb
     RDKit          3D

 25 25  0  0  1  0  0  0  0  0999 V2000
   19.8613  -13.2302  -15.6840 N   0  0  0  0  0  0  0  0  0  0  0  0
   19.4512  -12.2745  -16.6767 C   0  0  1  0  0  0  0  0  0  0  0  0
   18.2132  -12.8310  -17.3541 C   0  0  0  0  0  0  0  0  0  0  0  0
   18.6226  -14.0043  -18.1495 C   0  0  0  0  0  0  0  0  0  0  0  0
   18.5128  -15.3339  -17.8234 C   0  0  0  0  0  0  0  0  0  0  0  0
   19.0207  -16.0637  -18.8591 N   0  0  0  0  0  0  0  0  0  0  0  0
   19.4357  -15.2086  -19.8050 C   0  0  0  0  0  0  0  0  0  0  0  0
   19.1894  -13.9576  -19.3642 N   0  0  0  0  0  0  0  0  0  0  0  0
   19.1887  -10.9618  -16.0419 C   0  0  0  0  0  0  0  0  0  0  0  0
   18.4299  -10.9138  -15.0433 O   0  0  0  0  0  0  0  0  0  0  0  0
   19.7539   -9.7527  -16.5076 N   0  0  0  0  0  0  0  0  0  0  0  0
   19.4966   -8.5325  -15.8241 C   0  0  1  0  0  0  0  0  0  0  0  0
   20.0316   -8.5394  -14.3944 C   0  0  0  0  0  0  0  0  0  0  0  0
   21.7692   -9.0200  -14.3550 S   0  0  0  0  0  0  0  0  0  0  0  0
   20.0276   -7.3516  -16.5715 C   0  0  0  0  0  0  0  0  0  0  0  0
   21.1847   -7.3503  -17.0645 O   0  0  0  0  0  0  0  0  0  0  0  0
   16.6250   -4.2671  -19.5176 C   0  0  0  0  0  0  0  0  0  0  0  0
   17.8539   -4.9991  -19.0779 C   0  0  1  0  0  0  0  0  0  0  0  0
   18.7790   -5.0878  -20.3010 C   0  0  0  0  0  0  0  0  0  0  0  0
   18.6170   -4.2741  -18.0257 C   0  0  0  0  0  0  0  0  0  0  0  0
   19.7977   -4.9994  -17.4614 C   0  0  2  0  0  0  0  0  0  0  0  0
   19.2554   -6.1725  -16.7634 N   0  0  0  0  0  0  0  0  0  0  0  0
   20.6385   -4.1887  -16.5728 C   0  0  0  0  0  0  0  0  0  0  0  0
   20.7081   -4.3625  -15.3297 O   0  0  0  0  0  0  0  0  0  0  0  0
   21.4110   -3.1671  -17.1030 O   0  0  0  0  0  0  0  0  0  0  0  0
  2  1  1  1
  3  2  1  0
  3  4  1  0
  4  8  1  0
  5  4  2  0
  5  6  1  0
  6  7  1  0
  8  7  2  0
  9  2  1  0
  9 10  2  0
 11  9  1  0
 12 11  1  0
 12 15  1  0
 12 13  1  1
 14 13  1  0
 15 22  1  0
 16 15  2  0
 18 17  1  6
 18 19  1  0
 20 18  1  0
 21 20  1  1
 22 21  1  0
 23 25  1  0
 23 21  1  0
 24 23  2  0
M  END
$$$$
