HCL.pdb
     RDKit          3D

 25 25  0  0  1  0  0  0  0  0999 V2000
   16.1623  -13.3498  -14.4879 N   0  0  0  0  0  0  0  0  0  0  0  0
   15.3415  -12.1809  -14.3242 C   0  0  1  0  0  0  0  0  0  0  0  0
   14.0120  -12.6393  -13.7555 C   0  0  0  0  0  0  0  0  0  0  0  0
   13.2400  -13.2547  -14.8520 C   0  0  0  0  0  0  0  0  0  0  0  0
   12.7277  -12.6521  -15.9749 C   0  0  0  0  0  0  0  0  0  0  0  0
   12.0875  -13.6080  -16.7095 N   0  0  0  0  0  0  0  0  0  0  0  0
   12.1993  -14.7753  -16.0591 C   0  0  0  0  0  0  0  0  0  0  0  0
   12.9023  -14.5505  -14.9298 N   0  0  0  0  0  0  0  0  0  0  0  0
   16.0148  -11.2066  -13.4340 C   0  0  0  0  0  0  0  0  0  0  0  0
   16.3926  -11.5854  -12.2986 O   0  0  0  0  0  0  0  0  0  0  0  0
   16.2546   -9.8629  -13.8017 N   0  0  0  0  0  0  0  0  0  0  0  0
   16.9433   -8.9902  -12.9149 C   0  0  1  0  0  0  0  0  0  0  0  0
   18.0258   -8.1764  -13.6192 C   0  0  0  0  0  0  0  0  0  0  0  0
   19.3390   -9.2448  -14.2402 S   0  0  0  0  0  0  0  0  0  0  0  0
   16.0055   -8.0840  -12.1837 C   0  0  0  0  0  0  0  0  0  0  0  0
   15.0061   -7.5736  -12.7516 O   0  0  0  0  0  0  0  0  0  0  0  0
   13.1008   -6.3472   -7.8196 C   0  0  0  0  0  0  0  0  0  0  0  0
   14.5906   -6.2080   -7.7980 C   0  0  1  0  0  0  0  0  0  0  0  0
   15.0490   -6.5650   -6.3760 C   0  0  0  0  0  0  0  0  0  0  0  0
   15.2767   -7.1612   -8.7122 C   0  0  0  0  0  0  0  0  0  0  0  0
   15.3701   -6.7373  -10.1441 C   0  0  2  0  0  0  0  0  0  0  0  0
   16.1937   -7.7529  -10.8132 N   0  0  0  0  0  0  0  0  0  0  0  0
   15.9158   -5.3895  -10.3423 C   0  0  0  0  0  0  0  0  0  0  0  0
   17.1445   -5.1248  -10.3167 O   0  0  0  0  0  0  0  0  0  0  0  0
   15.0547   -4.3280  -10.5731 O   0  0  0  0  0  0  0  0  0  0  0  0
  2  1  1  1
  3  2  1  0
  3  4  1  0
  4  8  1  0
  5  4  2  0
  5  6  1  0
  6  7  1  0
  8  7  2  0
  9  2  1  0
  9 10  2  0
 11  9  1  0
 12 11  1  0
 12 15  1  0
 12 13  1  6
 14 13  1  0
 15 22  1  0
 16 15  2  0
 18 17  1  1
 18 19  1  0
 20 18  1  0
 21 20  1  1
 22 21  1  0
 23 25  1  0
 23 21  1  0
 24 23  2  0
M  END
$$$$
