HCL.pdb
     RDKit          3D

 25 25  0  0  1  0  0  0  0  0999 V2000
   22.3207  -13.0413  -18.0315 N   0  0  0  0  0  0  0  0  0  0  0  0
   22.7901  -12.2328  -16.9393 C   0  0  1  0  0  0  0  0  0  0  0  0
   24.2745  -12.0041  -17.1528 C   0  0  0  0  0  0  0  0  0  0  0  0
   24.9846  -13.2278  -16.7342 C   0  0  0  0  0  0  0  0  0  0  0  0
   24.7935  -14.5151  -17.1731 C   0  0  0  0  0  0  0  0  0  0  0  0
   25.6740  -15.3201  -16.5097 N   0  0  0  0  0  0  0  0  0  0  0  0
   26.3941  -14.5518  -15.6794 C   0  0  0  0  0  0  0  0  0  0  0  0
   25.9675  -13.2801  -15.8230 N   0  0  0  0  0  0  0  0  0  0  0  0
   22.0378  -10.9574  -16.8899 C   0  0  0  0  0  0  0  0  0  0  0  0
   21.7671  -10.3728  -17.9670 O   0  0  0  0  0  0  0  0  0  0  0  0
   21.6068  -10.3620  -15.6824 N   0  0  0  0  0  0  0  0  0  0  0  0
   20.7835   -9.2028  -15.7101 C   0  0  1  0  0  0  0  0  0  0  0  0
   19.4581   -9.4098  -14.9816 C   0  0  0  0  0  0  0  0  0  0  0  0
   18.4508  -10.6552  -15.8101 S   0  0  0  0  0  0  0  0  0  0  0  0
   21.4915   -8.0026  -15.1687 C   0  0  0  0  0  0  0  0  0  0  0  0
   22.2787   -8.0876  -14.1914 O   0  0  0  0  0  0  0  0  0  0  0  0
   22.7940   -2.3519  -17.2539 C   0  0  0  0  0  0  0  0  0  0  0  0
   22.6428   -3.2151  -16.0409 C   0  0  1  0  0  0  0  0  0  0  0  0
   21.6981   -2.4733  -15.0834 C   0  0  0  0  0  0  0  0  0  0  0  0
   21.9990   -4.5242  -16.3358 C   0  0  0  0  0  0  0  0  0  0  0  0
   22.0725   -5.5461  -15.2455 C   0  0  2  0  0  0  0  0  0  0  0  0
   21.3129   -6.7070  -15.7280 N   0  0  0  0  0  0  0  0  0  0  0  0
   21.5735   -5.0821  -13.9458 C   0  0  0  0  0  0  0  0  0  0  0  0
   20.3572   -5.0781  -13.6277 O   0  0  0  0  0  0  0  0  0  0  0  0
   22.4675   -4.6164  -12.9943 O   0  0  0  0  0  0  0  0  0  0  0  0
  2  1  1  6
  3  2  1  0
  3  4  1  0
  4  8  1  0
  5  4  2  0
  5  6  1  0
  6  7  1  0
  8  7  2  0
  9  2  1  0
  9 10  2  0
 11  9  1  0
 12 11  1  0
 12 15  1  0
 12 13  1  1
 14 13  1  0
 15 22  1  0
 16 15  2  0
 18 17  1  6
 18 19  1  0
 20 18  1  0
 21 20  1  6
 22 21  1  0
 23 25  1  0
 23 21  1  0
 24 23  2  0
M  END
$$$$
