HCL.pdb
     RDKit          3D

 25 25  0  0  1  0  0  0  0  0999 V2000
   27.3285  -21.4421  -17.3785 N   0  0  0  0  0  0  0  0  0  0  0  0
   26.8478  -22.1208  -16.2058 C   0  0  1  0  0  0  0  0  0  0  0  0
   27.7758  -23.2936  -15.9512 C   0  0  0  0  0  0  0  0  0  0  0  0
   27.0992  -24.5159  -16.4256 C   0  0  0  0  0  0  0  0  0  0  0  0
   26.4906  -25.4958  -15.6800 C   0  0  0  0  0  0  0  0  0  0  0  0
   26.0003  -26.4349  -16.5407 N   0  0  0  0  0  0  0  0  0  0  0  0
   26.2970  -26.0480  -17.7899 C   0  0  0  0  0  0  0  0  0  0  0  0
   26.9658  -24.8791  -17.7098 N   0  0  0  0  0  0  0  0  0  0  0  0
   26.8120  -21.1872  -15.0560 C   0  0  0  0  0  0  0  0  0  0  0  0
   27.1784  -19.9994  -15.2297 O   0  0  0  0  0  0  0  0  0  0  0  0
   26.3829  -21.5696  -13.7645 N   0  0  0  0  0  0  0  0  0  0  0  0
   25.9945  -20.5821  -12.8178 C   0  0  1  0  0  0  0  0  0  0  0  0
   24.8612  -19.6963  -13.3287 C   0  0  0  0  0  0  0  0  0  0  0  0
   23.4246  -20.6838  -13.7901 S   0  0  0  0  0  0  0  0  0  0  0  0
   25.6279  -21.1860  -11.5002 C   0  0  0  0  0  0  0  0  0  0  0  0
   24.9975  -22.2718  -11.4261 O   0  0  0  0  0  0  0  0  0  0  0  0
   27.7390  -19.1960   -6.4504 C   0  0  0  0  0  0  0  0  0  0  0  0
   26.5545  -19.5186   -7.3061 C   0  0  1  0  0  0  0  0  0  0  0  0
   26.4776  -18.4292   -8.3864 C   0  0  0  0  0  0  0  0  0  0  0  0
   26.6927  -20.8143   -8.0252 C   0  0  0  0  0  0  0  0  0  0  0  0
   25.5875  -21.1528   -8.9754 C   0  0  2  0  0  0  0  0  0  0  0  0
   25.9712  -20.5668  -10.2665 N   0  0  0  0  0  0  0  0  0  0  0  0
   24.2609  -20.6909   -8.5505 C   0  0  0  0  0  0  0  0  0  0  0  0
   23.6073  -19.8015   -9.1523 O   0  0  0  0  0  0  0  0  0  0  0  0
   23.6684  -21.2467   -7.4274 O   0  0  0  0  0  0  0  0  0  0  0  0
  2  1  1  6
  3  2  1  0
  3  4  1  0
  4  8  1  0
  5  4  2  0
  5  6  1  0
  6  7  1  0
  8  7  2  0
  9  2  1  0
  9 10  2  0
 11  9  1  0
 12 11  1  0
 12 15  1  0
 12 13  1  6
 14 13  1  0
 15 22  1  0
 16 15  2  0
 18 17  1  1
 18 19  1  0
 20 18  1  0
 21 20  1  1
 22 21  1  0
 23 25  1  0
 23 21  1  0
 24 23  2  0
M  END
$$$$
