HCL.pdb
     RDKit          3D

 25 25  0  0  1  0  0  0  0  0999 V2000
   19.5652  -17.2510  -18.3986 N   0  0  0  0  0  0  0  0  0  0  0  0
   19.6717  -16.4526  -17.2077 C   0  0  1  0  0  0  0  0  0  0  0  0
   20.6895  -17.1233  -16.3046 C   0  0  0  0  0  0  0  0  0  0  0  0
   20.1129  -18.4016  -15.8459 C   0  0  0  0  0  0  0  0  0  0  0  0
   20.5948  -19.6724  -16.0440 C   0  0  0  0  0  0  0  0  0  0  0  0
   19.7355  -20.5459  -15.4425 N   0  0  0  0  0  0  0  0  0  0  0  0
   18.7445  -19.8354  -14.8847 C   0  0  0  0  0  0  0  0  0  0  0  0
   18.9827  -18.5314  -15.1355 N   0  0  0  0  0  0  0  0  0  0  0  0
   20.0717  -15.0693  -17.5563 C   0  0  0  0  0  0  0  0  0  0  0  0
   21.0710  -14.8968  -18.2959 O   0  0  0  0  0  0  0  0  0  0  0  0
   19.3797  -13.9263  -17.0947 N   0  0  0  0  0  0  0  0  0  0  0  0
   19.7928  -12.6273  -17.5000 C   0  0  1  0  0  0  0  0  0  0  0  0
   18.6648  -11.8324  -18.1526 C   0  0  0  0  0  0  0  0  0  0  0  0
   17.4332  -12.9315  -18.8786 S   0  0  0  0  0  0  0  0  0  0  0  0
   20.3868  -11.8522  -16.3680 C   0  0  0  0  0  0  0  0  0  0  0  0
   19.8927  -11.8917  -15.2120 O   0  0  0  0  0  0  0  0  0  0  0  0
   23.9876  -10.4575  -12.8924 C   0  0  0  0  0  0  0  0  0  0  0  0
   24.3908  -10.1052  -14.2898 C   0  0  1  0  0  0  0  0  0  0  0  0
   25.8201  -10.6329  -14.4856 C   0  0  0  0  0  0  0  0  0  0  0  0
   23.5516  -10.7719  -15.3224 C   0  0  0  0  0  0  0  0  0  0  0  0
   22.1352  -10.2989  -15.4152 C   0  0  2  0  0  0  0  0  0  0  0  0
   21.5370  -11.0328  -16.5381 N   0  0  0  0  0  0  0  0  0  0  0  0
   21.9909   -8.8485  -15.5855 C   0  0  0  0  0  0  0  0  0  0  0  0
   22.0200   -8.2720  -16.7023 O   0  0  0  0  0  0  0  0  0  0  0  0
   21.8109   -8.0417  -14.4728 O   0  0  0  0  0  0  0  0  0  0  0  0
  2  1  1  6
  3  2  1  0
  3  4  1  0
  4  8  1  0
  5  4  2  0
  5  6  1  0
  6  7  1  0
  8  7  2  0
  9  2  1  0
  9 10  2  0
 11  9  1  0
 12 11  1  0
 12 15  1  0
 12 13  1  1
 14 13  1  0
 15 22  1  0
 16 15  2  0
 18 17  1  1
 18 19  1  0
 20 18  1  0
 21 20  1  6
 22 21  1  0
 23 25  1  0
 23 21  1  0
 24 23  2  0
M  END
$$$$
