HCL.pdb
     RDKit          3D

 25 25  0  0  1  0  0  0  0  0999 V2000
   17.5446   -9.3971  -15.1286 N   0  0  0  0  0  0  0  0  0  0  0  0
   18.5033   -8.6804  -15.9251 C   0  0  1  0  0  0  0  0  0  0  0  0
   17.8309   -8.3392  -17.2414 C   0  0  0  0  0  0  0  0  0  0  0  0
   17.7258   -9.5818  -18.0301 C   0  0  0  0  0  0  0  0  0  0  0  0
   18.6048  -10.0745  -18.9633 C   0  0  0  0  0  0  0  0  0  0  0  0
   18.0993  -11.2507  -19.4366 N   0  0  0  0  0  0  0  0  0  0  0  0
   16.9352  -11.4829  -18.8129 C   0  0  0  0  0  0  0  0  0  0  0  0
   16.7162  -10.4619  -17.9587 N   0  0  0  0  0  0  0  0  0  0  0  0
   18.9558   -7.4662  -15.2068 C   0  0  0  0  0  0  0  0  0  0  0  0
   18.1103   -6.7863  -14.5758 O   0  0  0  0  0  0  0  0  0  0  0  0
   20.3011   -7.0322  -15.1964 N   0  0  0  0  0  0  0  0  0  0  0  0
   20.6685   -5.8572  -14.4846 C   0  0  1  0  0  0  0  0  0  0  0  0
   22.0761   -5.9439  -13.9004 C   0  0  0  0  0  0  0  0  0  0  0  0
   22.5680   -4.3752  -13.1594 S   0  0  0  0  0  0  0  0  0  0  0  0
   20.5304   -4.6291  -15.3260 C   0  0  0  0  0  0  0  0  0  0  0  0
   21.0251   -4.5628  -16.4805 O   0  0  0  0  0  0  0  0  0  0  0  0
   16.1478   -2.2934  -16.6663 C   0  0  0  0  0  0  0  0  0  0  0  0
   17.6093   -2.6096  -16.7253 C   0  0  1  0  0  0  0  0  0  0  0  0
   18.0914   -2.2190  -18.1306 C   0  0  0  0  0  0  0  0  0  0  0  0
   18.4167   -1.8075  -15.7662 C   0  0  0  0  0  0  0  0  0  0  0  0
   19.8489   -2.2153  -15.6204 C   0  0  2  0  0  0  0  0  0  0  0  0
   19.8351   -3.4762  -14.8670 N   0  0  0  0  0  0  0  0  0  0  0  0
   20.7011   -1.2125  -14.9710 C   0  0  0  0  0  0  0  0  0  0  0  0
   21.2218   -1.3697  -13.8377 O   0  0  0  0  0  0  0  0  0  0  0  0
   20.9658   -0.0151  -15.6174 O   0  0  0  0  0  0  0  0  0  0  0  0
  2  1  1  1
  3  2  1  0
  3  4  1  0
  4  8  1  0
  5  4  2  0
  5  6  1  0
  6  7  1  0
  8  7  2  0
  9  2  1  0
  9 10  2  0
 11  9  1  0
 12 11  1  0
 12 15  1  0
 12 13  1  6
 14 13  1  0
 15 22  1  0
 16 15  2  0
 18 17  1  6
 18 19  1  0
 20 18  1  0
 21 20  1  1
 22 21  1  0
 23 25  1  0
 23 21  1  0
 24 23  2  0
M  END
$$$$
