HCL.pdb
     RDKit          3D

 25 25  0  0  1  0  0  0  0  0999 V2000
   14.9627  -26.5346   -3.2462 N   0  0  0  0  0  0  0  0  0  0  0  0
   15.9317  -27.2586   -2.4690 C   0  0  1  0  0  0  0  0  0  0  0  0
   17.2610  -27.1512   -3.1919 C   0  0  0  0  0  0  0  0  0  0  0  0
   17.1723  -27.9605   -4.4224 C   0  0  0  0  0  0  0  0  0  0  0  0
   17.1444  -29.3285   -4.5413 C   0  0  0  0  0  0  0  0  0  0  0  0
   17.0576  -29.6330   -5.8690 N   0  0  0  0  0  0  0  0  0  0  0  0
   17.0321  -28.4828   -6.5578 C   0  0  0  0  0  0  0  0  0  0  0  0
   17.1024  -27.4704   -5.6690 N   0  0  0  0  0  0  0  0  0  0  0  0
   16.0037  -26.7014   -1.0980 C   0  0  0  0  0  0  0  0  0  0  0  0
   16.1897  -25.4684   -0.9553 O   0  0  0  0  0  0  0  0  0  0  0  0
   15.8725  -27.4941    0.0650 N   0  0  0  0  0  0  0  0  0  0  0  0
   15.9110  -26.8892    1.3515 C   0  0  1  0  0  0  0  0  0  0  0  0
   14.7622  -27.3463    2.2467 C   0  0  0  0  0  0  0  0  0  0  0  0
   13.1666  -26.9290    1.5175 S   0  0  0  0  0  0  0  0  0  0  0  0
   17.2221  -27.1131    2.0342 C   0  0  0  0  0  0  0  0  0  0  0  0
   17.7590  -28.2498    2.0725 O   0  0  0  0  0  0  0  0  0  0  0  0
   21.3963  -24.7097    0.7626 C   0  0  0  0  0  0  0  0  0  0  0  0
   20.3695  -25.6295    1.3450 C   0  0  1  0  0  0  0  0  0  0  0  0
   20.8726  -27.0618    1.1099 C   0  0  0  0  0  0  0  0  0  0  0  0
   20.2182  -25.4739    2.8174 C   0  0  0  0  0  0  0  0  0  0  0  0
   19.1481  -26.3041    3.4532 C   0  0  2  0  0  0  0  0  0  0  0  0
   17.9280  -26.0566    2.6737 N   0  0  0  0  0  0  0  0  0  0  0  0
   18.9370  -26.0311    4.8796 C   0  0  0  0  0  0  0  0  0  0  0  0
   17.9302  -25.4293    5.3321 O   0  0  0  0  0  0  0  0  0  0  0  0
   19.8816  -26.4473    5.8048 O   0  0  0  0  0  0  0  0  0  0  0  0
  2  1  1  6
  3  2  1  0
  3  4  1  0
  4  8  1  0
  5  4  2  0
  5  6  1  0
  6  7  1  0
  8  7  2  0
  9  2  1  0
  9 10  2  0
 11  9  1  0
 12 11  1  0
 12 15  1  0
 12 13  1  1
 14 13  1  0
 15 22  1  0
 16 15  2  0
 18 17  1  1
 18 19  1  0
 20 18  1  0
 21 20  1  6
 22 21  1  0
 23 25  1  0
 23 21  1  0
 24 23  2  0
M  END
$$$$
