HCL.pdb
     RDKit          3D

 25 25  0  0  1  0  0  0  0  0999 V2000
   23.0274  -11.4586  -15.4523 N   0  0  0  0  0  0  0  0  0  0  0  0
   23.3706  -10.1683  -15.9854 C   0  0  1  0  0  0  0  0  0  0  0  0
   24.4096  -10.3896  -17.0683 C   0  0  0  0  0  0  0  0  0  0  0  0
   25.6357  -10.8944  -16.4212 C   0  0  0  0  0  0  0  0  0  0  0  0
   26.7012  -10.1749  -15.9381 C   0  0  0  0  0  0  0  0  0  0  0  0
   27.6067  -11.0583  -15.4256 N   0  0  0  0  0  0  0  0  0  0  0  0
   27.1160  -12.2958  -15.5864 C   0  0  0  0  0  0  0  0  0  0  0  0
   25.9161  -12.1861  -16.1932 N   0  0  0  0  0  0  0  0  0  0  0  0
   22.1598   -9.4968  -16.5127 C   0  0  0  0  0  0  0  0  0  0  0  0
   21.3608  -10.1582  -17.2196 O   0  0  0  0  0  0  0  0  0  0  0  0
   21.8571   -8.1397  -16.2579 N   0  0  0  0  0  0  0  0  0  0  0  0
   20.6140   -7.5924  -16.6792 C   0  0  1  0  0  0  0  0  0  0  0  0
   19.4213   -8.2589  -15.9985 C   0  0  0  0  0  0  0  0  0  0  0  0
   19.6590   -8.3450  -14.2130 S   0  0  0  0  0  0  0  0  0  0  0  0
   20.5620   -6.1110  -16.4842 C   0  0  0  0  0  0  0  0  0  0  0  0
   21.1538   -5.5518  -15.5256 O   0  0  0  0  0  0  0  0  0  0  0  0
   19.9888   -2.7370  -20.8441 C   0  0  0  0  0  0  0  0  0  0  0  0
   20.4468   -3.2823  -19.5279 C   0  0  1  0  0  0  0  0  0  0  0  0
   21.5987   -2.3842  -19.0522 C   0  0  0  0  0  0  0  0  0  0  0  0
   19.3982   -3.2141  -18.4740 C   0  0  0  0  0  0  0  0  0  0  0  0
   19.7649   -3.8094  -17.1512 C   0  0  2  0  0  0  0  0  0  0  0  0
   19.8434   -5.2599  -17.3689 N   0  0  0  0  0  0  0  0  0  0  0  0
   18.8386   -3.4807  -16.0614 C   0  0  0  0  0  0  0  0  0  0  0  0
   17.8963   -4.2295  -15.6986 O   0  0  0  0  0  0  0  0  0  0  0  0
   18.9846   -2.2858  -15.3741 O   0  0  0  0  0  0  0  0  0  0  0  0
  2  1  1  6
  3  2  1  0
  3  4  1  0
  4  8  1  0
  5  4  2  0
  5  6  1  0
  6  7  1  0
  8  7  2  0
  9  2  1  0
  9 10  2  0
 11  9  1  0
 12 11  1  0
 12 15  1  0
 12 13  1  1
 14 13  1  0
 15 22  1  0
 16 15  2  0
 18 17  1  6
 18 19  1  0
 20 18  1  0
 21 20  1  6
 22 21  1  0
 23 25  1  0
 23 21  1  0
 24 23  2  0
M  END
$$$$
