HCL.pdb
     RDKit          3D

 25 25  0  0  1  0  0  0  0  0999 V2000
   18.1658  -12.5502  -16.3529 N   0  0  0  0  0  0  0  0  0  0  0  0
   18.8169  -11.5304  -17.1294 C   0  0  1  0  0  0  0  0  0  0  0  0
   17.9026  -11.1971  -18.2932 C   0  0  0  0  0  0  0  0  0  0  0  0
   17.9353  -12.3340  -19.2330 C   0  0  0  0  0  0  0  0  0  0  0  0
   18.8332  -12.5774  -20.2435 C   0  0  0  0  0  0  0  0  0  0  0  0
   18.4738  -13.7451  -20.8523 N   0  0  0  0  0  0  0  0  0  0  0  0
   17.3800  -14.2152  -20.2354 C   0  0  0  0  0  0  0  0  0  0  0  0
   17.0597  -13.3498  -19.2513 N   0  0  0  0  0  0  0  0  0  0  0  0
   19.0891  -10.3437  -16.2853 C   0  0  0  0  0  0  0  0  0  0  0  0
   18.1617   -9.8780  -15.5795 O   0  0  0  0  0  0  0  0  0  0  0  0
   20.3494   -9.7053  -16.2348 N   0  0  0  0  0  0  0  0  0  0  0  0
   20.5319   -8.5443  -15.4341 C   0  0  1  0  0  0  0  0  0  0  0  0
   21.9664   -8.4000  -14.9325 C   0  0  0  0  0  0  0  0  0  0  0  0
   22.3463   -9.6479  -13.6874 S   0  0  0  0  0  0  0  0  0  0  0  0
   20.1037   -7.3019  -16.1470 C   0  0  0  0  0  0  0  0  0  0  0  0
   20.3824   -7.1084  -17.3581 O   0  0  0  0  0  0  0  0  0  0  0  0
   16.7505   -3.6191  -17.9336 C   0  0  0  0  0  0  0  0  0  0  0  0
   16.9731   -3.5508  -16.4554 C   0  0  1  0  0  0  0  0  0  0  0  0
   15.5908   -3.3876  -15.8055 C   0  0  0  0  0  0  0  0  0  0  0  0
   17.5548   -4.8017  -15.8968 C   0  0  0  0  0  0  0  0  0  0  0  0
   19.0065   -5.0276  -16.1799 C   0  0  2  0  0  0  0  0  0  0  0  0
   19.3617   -6.2779  -15.4958 N   0  0  0  0  0  0  0  0  0  0  0  0
   19.8826   -3.9245  -15.7687 C   0  0  0  0  0  0  0  0  0  0  0  0
   20.4103   -3.8411  -14.6307 O   0  0  0  0  0  0  0  0  0  0  0  0
   20.1636   -2.9022  -16.6618 O   0  0  0  0  0  0  0  0  0  0  0  0
  2  1  1  1
  3  2  1  0
  3  4  1  0
  4  8  1  0
  5  4  2  0
  5  6  1  0
  6  7  1  0
  8  7  2  0
  9  2  1  0
  9 10  2  0
 11  9  1  0
 12 11  1  0
 12 15  1  0
 12 13  1  6
 14 13  1  0
 15 22  1  0
 16 15  2  0
 18 17  1  6
 18 19  1  0
 20 18  1  0
 21 20  1  1
 22 21  1  0
 23 25  1  0
 23 21  1  0
 24 23  2  0
M  END
$$$$
