HCL.pdb
     RDKit          3D

 25 25  0  0  1  0  0  0  0  0999 V2000
   22.8981  -21.6673  -15.7695 N   0  0  0  0  0  0  0  0  0  0  0  0
   23.9113  -20.6501  -15.8442 C   0  0  1  0  0  0  0  0  0  0  0  0
   23.5224  -19.7079  -16.9678 C   0  0  0  0  0  0  0  0  0  0  0  0
   23.4209  -20.5014  -18.2076 C   0  0  0  0  0  0  0  0  0  0  0  0
   22.4206  -20.4858  -19.1485 C   0  0  0  0  0  0  0  0  0  0  0  0
   22.7476  -21.3828  -20.1240 N   0  0  0  0  0  0  0  0  0  0  0  0
   23.9219  -21.9417  -19.7971 C   0  0  0  0  0  0  0  0  0  0  0  0
   24.3239  -21.3990  -18.6293 N   0  0  0  0  0  0  0  0  0  0  0  0
   24.0206  -19.9440  -14.5463 C   0  0  0  0  0  0  0  0  0  0  0  0
   23.6074  -18.7617  -14.4643 O   0  0  0  0  0  0  0  0  0  0  0  0
   24.5705  -20.5392  -13.3880 N   0  0  0  0  0  0  0  0  0  0  0  0
   24.4640  -19.8868  -12.1289 C   0  0  1  0  0  0  0  0  0  0  0  0
   23.0143  -19.6941  -11.6913 C   0  0  0  0  0  0  0  0  0  0  0  0
   22.1663  -21.2786  -11.5419 S   0  0  0  0  0  0  0  0  0  0  0  0
   25.2373  -20.5977  -11.0650 C   0  0  0  0  0  0  0  0  0  0  0  0
   25.2252  -21.8516  -10.9687 O   0  0  0  0  0  0  0  0  0  0  0  0
   29.0826  -20.5585   -6.7833 C   0  0  0  0  0  0  0  0  0  0  0  0
   27.7520  -19.8737   -6.7829 C   0  0  1  0  0  0  0  0  0  0  0  0
   27.9311  -18.5566   -6.0128 C   0  0  0  0  0  0  0  0  0  0  0  0
   27.2891  -19.5026   -8.1478 C   0  0  0  0  0  0  0  0  0  0  0  0
   26.4388  -20.5172   -8.8452 C   0  0  2  0  0  0  0  0  0  0  0  0
   26.0241  -19.8960  -10.1100 N   0  0  0  0  0  0  0  0  0  0  0  0
   25.2810  -20.9743   -8.0680 C   0  0  0  0  0  0  0  0  0  0  0  0
   24.1862  -20.3581   -8.0213 O   0  0  0  0  0  0  0  0  0  0  0  0
   25.3673  -22.1472   -7.3341 O   0  0  0  0  0  0  0  0  0  0  0  0
  2  1  1  1
  3  2  1  0
  3  4  1  0
  4  8  1  0
  5  4  2  0
  5  6  1  0
  6  7  1  0
  8  7  2  0
  9  2  1  0
  9 10  2  0
 11  9  1  0
 12 11  1  0
 12 15  1  0
 12 13  1  1
 14 13  1  0
 15 22  1  0
 16 15  2  0
 18 17  1  6
 18 19  1  0
 20 18  1  0
 21 20  1  1
 22 21  1  0
 23 25  1  0
 23 21  1  0
 24 23  2  0
M  END
$$$$
