HCL.pdb
     RDKit          3D

 25 25  0  0  1  0  0  0  0  0999 V2000
   18.4889  -14.8513  -18.5626 N   0  0  0  0  0  0  0  0  0  0  0  0
   18.1898  -13.9895  -17.4514 C   0  0  1  0  0  0  0  0  0  0  0  0
   18.6094  -14.7190  -16.1892 C   0  0  0  0  0  0  0  0  0  0  0  0
   17.5322  -15.6624  -15.8337 C   0  0  0  0  0  0  0  0  0  0  0  0
   16.3443  -15.8832  -16.4869 C   0  0  0  0  0  0  0  0  0  0  0  0
   15.6596  -16.8437  -15.8000 N   0  0  0  0  0  0  0  0  0  0  0  0
   16.4037  -17.2105  -14.7465 C   0  0  0  0  0  0  0  0  0  0  0  0
   17.5414  -16.4862  -14.7753 N   0  0  0  0  0  0  0  0  0  0  0  0
   18.9000  -12.6981  -17.6031 C   0  0  0  0  0  0  0  0  0  0  0  0
   20.0491  -12.6955  -18.1080 O   0  0  0  0  0  0  0  0  0  0  0  0
   18.3446  -11.4606  -17.2052 N   0  0  0  0  0  0  0  0  0  0  0  0
   19.0397  -10.2475  -17.4653 C   0  0  1  0  0  0  0  0  0  0  0  0
   18.1442   -9.1847  -18.0965 C   0  0  0  0  0  0  0  0  0  0  0  0
   19.0313   -7.6281  -18.3015 S   0  0  0  0  0  0  0  0  0  0  0  0
   19.6992   -9.7080  -16.2368 C   0  0  0  0  0  0  0  0  0  0  0  0
   19.1016   -9.6712  -15.1308 O   0  0  0  0  0  0  0  0  0  0  0  0
   25.0676  -10.2172  -15.2639 C   0  0  0  0  0  0  0  0  0  0  0  0
   23.5887  -10.0984  -15.0689 C   0  0  1  0  0  0  0  0  0  0  0  0
   23.2970  -10.5174  -13.6200 C   0  0  0  0  0  0  0  0  0  0  0  0
   23.0943   -8.7017  -15.2098 C   0  0  0  0  0  0  0  0  0  0  0  0
   21.6135   -8.5205  -15.0954 C   0  0  2  0  0  0  0  0  0  0  0  0
   21.0315   -9.2100  -16.2545 N   0  0  0  0  0  0  0  0  0  0  0  0
   21.1778   -7.1207  -15.0305 C   0  0  0  0  0  0  0  0  0  0  0  0
   20.8095   -6.4586  -16.0337 O   0  0  0  0  0  0  0  0  0  0  0  0
   21.1597   -6.4638  -13.8099 O   0  0  0  0  0  0  0  0  0  0  0  0
  2  1  1  6
  3  2  1  0
  3  4  1  0
  4  8  1  0
  5  4  2  0
  5  6  1  0
  6  7  1  0
  8  7  2  0
  9  2  1  0
  9 10  2  0
 11  9  1  0
 12 11  1  0
 12 15  1  0
 12 13  1  1
 14 13  1  0
 15 22  1  0
 16 15  2  0
 18 17  1  1
 18 19  1  0
 20 18  1  0
 21 20  1  6
 22 21  1  0
 23 25  1  0
 23 21  1  0
 24 23  2  0
M  END
$$$$
