PYA.pdb
     RDKit          3D

 25 26  0  0  1  0  0  0  0  0999 V2000
    7.4720  -15.0239   20.5076 N   0  0  0  0  0  0  0  0  0  0  0  0
    7.2333  -14.4449   19.1786 C   0  0  0  0  0  0  0  0  0  0  0  0
    7.6824  -12.9842   19.2990 C   0  0  0  0  0  0  0  0  0  0  0  0
    8.3030  -12.9072   20.7021 C   0  0  0  0  0  0  0  0  0  0  0  0
    8.6910  -14.3583   20.8870 C   0  0  1  0  0  0  0  0  0  0  0  0
    9.1652  -14.6913   22.2297 C   0  0  0  0  0  0  0  0  0  0  0  0
   10.3155  -14.3141   22.5671 O   0  0  0  0  0  0  0  0  0  0  0  0
    6.8343  -10.1797   26.9831 O   0  0  0  0  0  0  0  0  0  0  0  0
    6.9587  -11.5052   26.5740 C   0  0  0  0  0  0  0  0  0  0  0  0
    5.8834  -12.2679   26.1948 C   0  0  0  0  0  0  0  0  0  0  0  0
    6.0461  -13.5722   25.7973 C   0  0  0  0  0  0  0  0  0  0  0  0
    7.2882  -14.1658   25.7629 C   0  0  0  0  0  0  0  0  0  0  0  0
    7.4370  -15.5954   25.3212 C   0  0  0  0  0  0  0  0  0  0  0  0
    8.6337  -15.6938   24.4603 C   0  0  2  0  0  0  0  0  0  0  0  0
    8.3009  -15.4252   23.0885 N   0  0  0  0  0  0  0  0  0  0  0  0
    9.3618  -16.9854   24.5371 C   0  0  0  0  0  0  0  0  0  0  0  0
    8.7447  -18.0243   24.1870 O   0  0  0  0  0  0  0  0  0  0  0  0
    8.3753  -13.4209   26.1379 C   0  0  0  0  0  0  0  0  0  0  0  0
    8.1987  -12.1136   26.5347 C   0  0  0  0  0  0  0  0  0  0  0  0
   12.8554  -18.1071   24.9297 C   0  0  0  0  0  0  0  0  0  0  0  0
   11.3514  -18.3620   25.0463 C   0  0  2  0  0  0  0  0  0  0  0  0
   10.6992  -17.0833   24.9819 N   0  0  0  0  0  0  0  0  0  0  0  0
   11.1365  -19.0267   26.3584 C   0  0  0  0  0  0  0  0  0  0  0  0
   11.6395  -20.1614   26.5529 O   0  0  0  0  0  0  0  0  0  0  0  0
   10.3859  -18.3588   27.3124 O   0  0  0  0  0  0  0  0  0  0  0  0
  1  2  1  0
  3  2  1  0
  4  5  1  0
  4  3  1  0
  5  6  1  1
  5  1  1  0
  6  7  2  0
  8  9  1  0
  9 19  2  0
  9 10  1  0
 10 11  2  0
 11 12  1  0
 12 13  1  0
 14 13  1  1
 15  6  1  0
 15 14  1  0
 16 14  1  0
 16 17  2  0
 18 12  2  0
 19 18  1  0
 21 20  1  1
 21 22  1  0
 21 23  1  0
 22 16  1  0
 23 24  2  0
 23 25  1  0
M  END
$$$$
