PYA.pdb
     RDKit          3D

 25 26  0  0  1  0  0  0  0  0999 V2000
    7.2129  -15.0299   20.5259 N   0  0  0  0  0  0  0  0  0  0  0  0
    6.7278  -14.6527   19.1914 C   0  0  0  0  0  0  0  0  0  0  0  0
    7.1496  -13.1892   19.0181 C   0  0  0  0  0  0  0  0  0  0  0  0
    8.0051  -12.9058   20.2622 C   0  0  0  0  0  0  0  0  0  0  0  0
    8.4604  -14.3133   20.5820 C   0  0  1  0  0  0  0  0  0  0  0  0
    9.1727  -14.4445   21.8524 C   0  0  0  0  0  0  0  0  0  0  0  0
   10.4163  -14.2644   21.8608 O   0  0  0  0  0  0  0  0  0  0  0  0
   10.8969  -14.9149   30.3459 O   0  0  0  0  0  0  0  0  0  0  0  0
   10.2210  -14.8146   29.1323 C   0  0  0  0  0  0  0  0  0  0  0  0
    9.5255  -15.8614   28.5825 C   0  0  0  0  0  0  0  0  0  0  0  0
    8.8712  -15.7239   27.3830 C   0  0  0  0  0  0  0  0  0  0  0  0
    8.8856  -14.5365   26.6860 C   0  0  0  0  0  0  0  0  0  0  0  0
    8.1583  -14.4138   25.3756 C   0  0  0  0  0  0  0  0  0  0  0  0
    9.0399  -14.9235   24.3052 C   0  0  2  0  0  0  0  0  0  0  0  0
    8.4229  -14.7690   23.0168 N   0  0  0  0  0  0  0  0  0  0  0  0
    9.4772  -16.3332   24.4658 C   0  0  0  0  0  0  0  0  0  0  0  0
    8.5852  -17.2055   24.6276 O   0  0  0  0  0  0  0  0  0  0  0  0
    9.5747  -13.4785   27.2181 C   0  0  0  0  0  0  0  0  0  0  0  0
   10.2269  -13.6293   28.4220 C   0  0  0  0  0  0  0  0  0  0  0  0
   12.2885  -18.2656   23.3483 C   0  0  0  0  0  0  0  0  0  0  0  0
   11.1959  -18.1097   24.4076 C   0  0  2  0  0  0  0  0  0  0  0  0
   10.8361  -16.7190   24.4431 N   0  0  0  0  0  0  0  0  0  0  0  0
   11.7881  -18.5604   25.6944 C   0  0  0  0  0  0  0  0  0  0  0  0
   12.1078  -19.7684   25.8245 O   0  0  0  0  0  0  0  0  0  0  0  0
   11.9609  -17.6202   26.6973 O   0  0  0  0  0  0  0  0  0  0  0  0
  1  2  1  0
  3  2  1  0
  4  5  1  0
  4  3  1  0
  5  6  1  1
  5  1  1  0
  6  7  2  0
  8  9  1  0
  9 19  2  0
  9 10  1  0
 10 11  2  0
 11 12  1  0
 12 13  1  0
 14 13  1  1
 15  6  1  0
 15 14  1  0
 16 14  1  0
 16 17  2  0
 18 12  2  0
 19 18  1  0
 21 20  1  6
 21 22  1  0
 21 23  1  0
 22 16  1  0
 23 24  2  0
 23 25  1  0
M  END
$$$$
