PYA.pdb
     RDKit          3D

 25 26  0  0  1  0  0  0  0  0999 V2000
    7.0089  -14.8143   20.3721 N   0  0  0  0  0  0  0  0  0  0  0  0
    6.5048  -14.3907   19.0587 C   0  0  0  0  0  0  0  0  0  0  0  0
    7.0004  -12.9496   18.8928 C   0  0  0  0  0  0  0  0  0  0  0  0
    7.9075  -12.7324   20.1134 C   0  0  0  0  0  0  0  0  0  0  0  0
    8.2948  -14.1672   20.3993 C   0  0  1  0  0  0  0  0  0  0  0  0
    9.0371  -14.3567   21.6449 C   0  0  0  0  0  0  0  0  0  0  0  0
   10.2887  -14.2473   21.6163 O   0  0  0  0  0  0  0  0  0  0  0  0
   10.8132  -15.2123   30.1274 O   0  0  0  0  0  0  0  0  0  0  0  0
   10.1312  -15.0476   28.9242 C   0  0  0  0  0  0  0  0  0  0  0  0
    9.4442  -16.0673   28.3161 C   0  0  0  0  0  0  0  0  0  0  0  0
    8.7834  -15.8661   27.1292 C   0  0  0  0  0  0  0  0  0  0  0  0
    8.7828  -14.6395   26.5035 C   0  0  0  0  0  0  0  0  0  0  0  0
    8.0488  -14.4472   25.2052 C   0  0  0  0  0  0  0  0  0  0  0  0
    8.9501  -14.8334   24.1001 C   0  0  2  0  0  0  0  0  0  0  0  0
    8.3061  -14.6548   22.8281 N   0  0  0  0  0  0  0  0  0  0  0  0
    9.4895  -16.2144   24.1791 C   0  0  0  0  0  0  0  0  0  0  0  0
    8.6668  -17.1651   24.1357 O   0  0  0  0  0  0  0  0  0  0  0  0
    9.4633  -13.6076   27.0947 C   0  0  0  0  0  0  0  0  0  0  0  0
   10.1221  -13.8225   28.2852 C   0  0  0  0  0  0  0  0  0  0  0  0
   12.3856  -17.9975   23.2362 C   0  0  0  0  0  0  0  0  0  0  0  0
   11.3389  -17.8472   24.3418 C   0  0  2  0  0  0  0  0  0  0  0  0
   10.8701  -16.4897   24.2991 N   0  0  0  0  0  0  0  0  0  0  0  0
   12.0301  -18.1534   25.6218 C   0  0  0  0  0  0  0  0  0  0  0  0
   12.4934  -19.3076   25.7997 O   0  0  0  0  0  0  0  0  0  0  0  0
   12.1316  -17.1441   26.5655 O   0  0  0  0  0  0  0  0  0  0  0  0
  1  2  1  0
  3  2  1  0
  4  5  1  0
  4  3  1  0
  5  6  1  1
  5  1  1  0
  6  7  2  0
  8  9  1  0
  9 19  2  0
  9 10  1  0
 10 11  2  0
 11 12  1  0
 12 13  1  0
 14 13  1  1
 15  6  1  0
 15 14  1  0
 16 14  1  0
 16 17  2  0
 18 12  2  0
 19 18  1  0
 21 20  1  6
 21 22  1  0
 21 23  1  0
 22 16  1  0
 23 24  2  0
 23 25  1  0
M  END
$$$$
