PYA.pdb
     RDKit          3D

 25 26  0  0  1  0  0  0  0  0999 V2000
    7.4706  -14.8662   20.2744 N   0  0  0  0  0  0  0  0  0  0  0  0
    7.2507  -14.2142   18.9764 C   0  0  0  0  0  0  0  0  0  0  0  0
    7.7657  -12.7824   19.1625 C   0  0  0  0  0  0  0  0  0  0  0  0
    8.3972  -12.8005   20.5628 C   0  0  0  0  0  0  0  0  0  0  0  0
    8.7206  -14.2746   20.6755 C   0  0  1  0  0  0  0  0  0  0  0  0
    9.1869  -14.6923   21.9971 C   0  0  0  0  0  0  0  0  0  0  0  0
   10.3574  -14.3898   22.3401 O   0  0  0  0  0  0  0  0  0  0  0  0
    6.4238  -10.1863   26.5183 O   0  0  0  0  0  0  0  0  0  0  0  0
    6.6274  -11.5108   26.1388 C   0  0  0  0  0  0  0  0  0  0  0  0
    5.8193  -12.1563   25.2377 C   0  0  0  0  0  0  0  0  0  0  0  0
    6.0522  -13.4637   24.8883 C   0  0  0  0  0  0  0  0  0  0  0  0
    7.1006  -14.1774   25.4246 C   0  0  0  0  0  0  0  0  0  0  0  0
    7.3332  -15.6075   25.0221 C   0  0  0  0  0  0  0  0  0  0  0  0
    8.5710  -15.6684   24.2176 C   0  0  2  0  0  0  0  0  0  0  0  0
    8.2926  -15.4199   22.8300 N   0  0  0  0  0  0  0  0  0  0  0  0
    9.3397  -16.9330   24.3374 C   0  0  0  0  0  0  0  0  0  0  0  0
    8.7647  -17.9993   23.9984 O   0  0  0  0  0  0  0  0  0  0  0  0
    7.9196  -13.5508   26.3267 C   0  0  0  0  0  0  0  0  0  0  0  0
    7.6753  -12.2390   26.6689 C   0  0  0  0  0  0  0  0  0  0  0  0
   12.8725  -17.8888   24.6781 C   0  0  0  0  0  0  0  0  0  0  0  0
   11.3885  -18.2204   24.8456 C   0  0  2  0  0  0  0  0  0  0  0  0
   10.6703  -16.9764   24.8107 N   0  0  0  0  0  0  0  0  0  0  0  0
   11.2537  -18.8997   26.1610 C   0  0  0  0  0  0  0  0  0  0  0  0
   10.5849  -18.3413   27.0661 O   0  0  0  0  0  0  0  0  0  0  0  0
   11.8766  -20.1259   26.3282 O   0  0  0  0  0  0  0  0  0  0  0  0
  1  2  1  0
  3  2  1  0
  4  5  1  0
  4  3  1  0
  5  6  1  1
  5  1  1  0
  6  7  2  0
  8  9  1  0
  9 19  2  0
  9 10  1  0
 10 11  2  0
 11 12  1  0
 12 13  1  0
 14 13  1  1
 15  6  1  0
 15 14  1  0
 16 14  1  0
 16 17  2  0
 18 12  2  0
 19 18  1  0
 21 20  1  1
 21 22  1  0
 21 23  1  0
 22 16  1  0
 23 24  2  0
 23 25  1  0
M  END
$$$$
