PYA.pdb
     RDKit          3D

 25 26  0  0  1  0  0  0  0  0999 V2000
    7.6792  -15.3023   18.7248 N   0  0  0  0  0  0  0  0  0  0  0  0
    7.5996  -15.0155   17.2861 C   0  0  0  0  0  0  0  0  0  0  0  0
    7.7730  -13.4963   17.1771 C   0  0  0  0  0  0  0  0  0  0  0  0
    8.1014  -13.0622   18.6136 C   0  0  0  0  0  0  0  0  0  0  0  0
    8.6809  -14.3562   19.1428 C   0  0  1  0  0  0  0  0  0  0  0  0
    8.9457  -14.3569   20.5809 C   0  0  0  0  0  0  0  0  0  0  0  0
   10.1124  -14.1033   20.9731 O   0  0  0  0  0  0  0  0  0  0  0  0
    7.5362  -12.8331   28.9775 O   0  0  0  0  0  0  0  0  0  0  0  0
    7.3537  -13.0516   27.6141 C   0  0  0  0  0  0  0  0  0  0  0  0
    7.7343  -12.1422   26.6602 C   0  0  0  0  0  0  0  0  0  0  0  0
    7.5376  -12.3936   25.3246 C   0  0  0  0  0  0  0  0  0  0  0  0
    6.9536  -13.5622   24.8894 C   0  0  0  0  0  0  0  0  0  0  0  0
    6.7525  -13.8119   23.4203 C   0  0  0  0  0  0  0  0  0  0  0  0
    7.9741  -14.4480   22.8854 C   0  0  2  0  0  0  0  0  0  0  0  0
    7.8697  -14.6439   21.4658 N   0  0  0  0  0  0  0  0  0  0  0  0
    8.3470  -15.7351   23.5248 C   0  0  0  0  0  0  0  0  0  0  0  0
    7.5471  -16.6988   23.4054 O   0  0  0  0  0  0  0  0  0  0  0  0
    6.5662  -14.4837   25.8265 C   0  0  0  0  0  0  0  0  0  0  0  0
    6.7690  -14.2195   27.1631 C   0  0  0  0  0  0  0  0  0  0  0  0
   11.3172  -17.5109   24.2968 C   0  0  0  0  0  0  0  0  0  0  0  0
    9.8980  -17.1991   24.7753 C   0  0  2  0  0  0  0  0  0  0  0  0
    9.5477  -15.9089   24.2488 N   0  0  0  0  0  0  0  0  0  0  0  0
    9.9448  -17.1958   26.2611 C   0  0  0  0  0  0  0  0  0  0  0  0
   10.2199  -18.2646   26.8615 O   0  0  0  0  0  0  0  0  0  0  0  0
    9.6808  -16.0053   26.9190 O   0  0  0  0  0  0  0  0  0  0  0  0
  1  2  1  0
  3  2  1  0
  4  5  1  0
  4  3  1  0
  5  6  1  1
  5  1  1  0
  6  7  2  0
  8  9  1  0
  9 19  2  0
  9 10  1  0
 10 11  2  0
 11 12  1  0
 12 13  1  0
 14 13  1  1
 15  6  1  0
 15 14  1  0
 16 14  1  0
 16 17  2  0
 18 12  2  0
 19 18  1  0
 21 20  1  6
 21 22  1  0
 21 23  1  0
 22 16  1  0
 23 24  2  0
 23 25  1  0
M  END
$$$$
