PYA.pdb
     RDKit          3D

 25 26  0  0  1  0  0  0  0  0999 V2000
    7.6698  -15.0047   20.1294 N   0  0  0  0  0  0  0  0  0  0  0  0
    7.4325  -14.5124   18.7657 C   0  0  0  0  0  0  0  0  0  0  0  0
    7.6890  -13.0030   18.8416 C   0  0  0  0  0  0  0  0  0  0  0  0
    8.2192  -12.7939   20.2682 C   0  0  0  0  0  0  0  0  0  0  0  0
    8.7745  -14.1759   20.5368 C   0  0  1  0  0  0  0  0  0  0  0  0
    9.2138  -14.3939   21.9144 C   0  0  0  0  0  0  0  0  0  0  0  0
   10.3082  -13.8946   22.2780 O   0  0  0  0  0  0  0  0  0  0  0  0
    6.3438  -10.3088   27.1724 O   0  0  0  0  0  0  0  0  0  0  0  0
    6.6324  -11.5562   26.6242 C   0  0  0  0  0  0  0  0  0  0  0  0
    7.7746  -11.8040   25.9062 C   0  0  0  0  0  0  0  0  0  0  0  0
    8.0242  -13.0480   25.3808 C   0  0  0  0  0  0  0  0  0  0  0  0
    7.1436  -14.0927   25.5518 C   0  0  0  0  0  0  0  0  0  0  0  0
    7.4437  -15.4451   24.9671 C   0  0  0  0  0  0  0  0  0  0  0  0
    8.6826  -15.3419   24.1688 C   0  0  2  0  0  0  0  0  0  0  0  0
    8.3806  -15.1599   22.7759 N   0  0  0  0  0  0  0  0  0  0  0  0
    9.6238  -16.4809   24.3145 C   0  0  0  0  0  0  0  0  0  0  0  0
   10.0348  -16.7533   25.4719 O   0  0  0  0  0  0  0  0  0  0  0  0
    5.9965  -13.8658   26.2660 C   0  0  0  0  0  0  0  0  0  0  0  0
    5.7578  -12.6134   26.7877 C   0  0  0  0  0  0  0  0  0  0  0  0
   10.6774  -19.3484   22.2498 C   0  0  0  0  0  0  0  0  0  0  0  0
   10.9085  -18.3972   23.4254 C   0  0  2  0  0  0  0  0  0  0  0  0
   10.0642  -17.2535   23.2166 N   0  0  0  0  0  0  0  0  0  0  0  0
   12.3494  -18.0331   23.3969 C   0  0  0  0  0  0  0  0  0  0  0  0
   13.2039  -18.9203   23.6443 O   0  0  0  0  0  0  0  0  0  0  0  0
   12.6850  -16.7229   23.0966 O   0  0  0  0  0  0  0  0  0  0  0  0
  1  2  1  0
  3  2  1  0
  4  5  1  0
  4  3  1  0
  5  6  1  1
  5  1  1  0
  6  7  2  0
  8  9  1  0
  9 19  2  0
  9 10  1  0
 10 11  2  0
 11 12  1  0
 12 13  1  0
 14 13  1  1
 15  6  1  0
 15 14  1  0
 16 14  1  0
 16 17  2  0
 18 12  2  0
 19 18  1  0
 21 20  1  6
 21 22  1  0
 21 23  1  0
 22 16  1  0
 23 24  2  0
 23 25  1  0
M  END
$$$$
