PYA.pdb
     RDKit          3D

 25 26  0  0  1  0  0  0  0  0999 V2000
    7.6471  -15.3544   18.7260 N   0  0  0  0  0  0  0  0  0  0  0  0
    7.5901  -15.1935   17.2668 C   0  0  0  0  0  0  0  0  0  0  0  0
    7.8859  -13.7093   17.0224 C   0  0  0  0  0  0  0  0  0  0  0  0
    8.2494  -13.1749   18.4161 C   0  0  0  0  0  0  0  0  0  0  0  0
    8.7224  -14.4584   19.0636 C   0  0  1  0  0  0  0  0  0  0  0  0
    8.9873  -14.3504   20.4977 C   0  0  0  0  0  0  0  0  0  0  0  0
   10.0764  -13.8437   20.8670 O   0  0  0  0  0  0  0  0  0  0  0  0
    7.2850  -12.5547   28.7682 O   0  0  0  0  0  0  0  0  0  0  0  0
    7.1541  -12.8967   27.4245 C   0  0  0  0  0  0  0  0  0  0  0  0
    6.5513  -14.0572   27.0103 C   0  0  0  0  0  0  0  0  0  0  0  0
    6.4410  -14.3598   25.6754 C   0  0  0  0  0  0  0  0  0  0  0  0
    6.9281  -13.5160   24.7023 C   0  0  0  0  0  0  0  0  0  0  0  0
    6.7916  -13.8719   23.2477 C   0  0  0  0  0  0  0  0  0  0  0  0
    8.0432  -14.5229   22.8090 C   0  0  2  0  0  0  0  0  0  0  0  0
    7.9990  -14.8236   21.4046 N   0  0  0  0  0  0  0  0  0  0  0  0
    8.4099  -15.7529   23.5553 C   0  0  0  0  0  0  0  0  0  0  0  0
    7.6182  -16.7287   23.4961 O   0  0  0  0  0  0  0  0  0  0  0  0
    7.5338  -12.3516   25.0952 C   0  0  0  0  0  0  0  0  0  0  0  0
    7.6382  -12.0596   26.4374 C   0  0  0  0  0  0  0  0  0  0  0  0
   11.4375  -17.3268   24.7146 C   0  0  0  0  0  0  0  0  0  0  0  0
    9.9425  -17.1026   24.9491 C   0  0  2  0  0  0  0  0  0  0  0  0
    9.5963  -15.8605   24.3151 N   0  0  0  0  0  0  0  0  0  0  0  0
    9.7504  -17.0437   26.4220 C   0  0  0  0  0  0  0  0  0  0  0  0
    9.4721  -15.9399   26.9535 O   0  0  0  0  0  0  0  0  0  0  0  0
    9.8884  -18.2177   27.1448 O   0  0  0  0  0  0  0  0  0  0  0  0
  1  2  1  0
  3  2  1  0
  4  5  1  0
  4  3  1  0
  5  6  1  1
  5  1  1  0
  6  7  2  0
  8  9  1  0
  9 19  2  0
  9 10  1  0
 10 11  2  0
 11 12  1  0
 12 13  1  0
 14 13  1  1
 15  6  1  0
 15 14  1  0
 16 14  1  0
 16 17  2  0
 18 12  2  0
 19 18  1  0
 21 20  1  1
 21 22  1  0
 21 23  1  0
 22 16  1  0
 23 24  2  0
 23 25  1  0
M  END
$$$$
