PYA.pdb
     RDKit          3D

 25 26  0  0  1  0  0  0  0  0999 V2000
    8.7217  -15.8335   19.1658 N   0  0  0  0  0  0  0  0  0  0  0  0
    7.7009  -16.2081   18.1779 C   0  0  0  0  0  0  0  0  0  0  0  0
    6.9195  -17.3525   18.8334 C   0  0  0  0  0  0  0  0  0  0  0  0
    7.4970  -17.4216   20.2553 C   0  0  0  0  0  0  0  0  0  0  0  0
    7.9927  -15.9986   20.3964 C   0  0  1  0  0  0  0  0  0  0  0  0
    8.7830  -15.7502   21.6015 C   0  0  0  0  0  0  0  0  0  0  0  0
   10.0269  -15.9197   21.5450 O   0  0  0  0  0  0  0  0  0  0  0  0
   10.4945  -14.6283   30.0979 O   0  0  0  0  0  0  0  0  0  0  0  0
    9.8808  -14.5611   28.8494 C   0  0  0  0  0  0  0  0  0  0  0  0
    9.9827  -13.4647   28.0314 C   0  0  0  0  0  0  0  0  0  0  0  0
    9.3628  -13.4358   26.8064 C   0  0  0  0  0  0  0  0  0  0  0  0
    8.6173  -14.4999   26.3504 C   0  0  0  0  0  0  0  0  0  0  0  0
    7.9511  -14.4416   25.0036 C   0  0  0  0  0  0  0  0  0  0  0  0
    8.7743  -15.2064   24.0443 C   0  0  2  0  0  0  0  0  0  0  0  0
    8.1051  -15.3281   22.7786 N   0  0  0  0  0  0  0  0  0  0  0  0
    9.1883  -16.5561   24.5039 C   0  0  0  0  0  0  0  0  0  0  0  0
    8.2878  -17.4205   24.6604 O   0  0  0  0  0  0  0  0  0  0  0  0
    8.5030  -15.6048   27.1526 C   0  0  0  0  0  0  0  0  0  0  0  0
    9.1297  -15.6214   28.3792 C   0  0  0  0  0  0  0  0  0  0  0  0
   12.0897  -18.6212   24.2183 C   0  0  0  0  0  0  0  0  0  0  0  0
   10.8934  -18.2462   25.0949 C   0  0  2  0  0  0  0  0  0  0  0  0
   10.5349  -16.8943   24.7660 N   0  0  0  0  0  0  0  0  0  0  0  0
   11.3479  -18.3702   26.5048 C   0  0  0  0  0  0  0  0  0  0  0  0
   11.5840  -17.3245   27.1599 O   0  0  0  0  0  0  0  0  0  0  0  0
   11.4910  -19.6425   27.0342 O   0  0  0  0  0  0  0  0  0  0  0  0
  1  2  1  0
  3  2  1  0
  4  5  1  0
  4  3  1  0
  5  6  1  1
  5  1  1  0
  6  7  2  0
  8  9  1  0
  9 19  2  0
  9 10  1  0
 10 11  2  0
 11 12  1  0
 12 13  1  0
 14 13  1  1
 15  6  1  0
 15 14  1  0
 16 14  1  0
 16 17  2  0
 18 12  2  0
 19 18  1  0
 21 20  1  6
 21 22  1  0
 21 23  1  0
 22 16  1  0
 23 24  2  0
 23 25  1  0
M  END
$$$$
