PYA.pdb
     RDKit          3D

 25 26  0  0  1  0  0  0  0  0999 V2000
    7.0693  -14.6736   20.4923 N   0  0  0  0  0  0  0  0  0  0  0  0
    6.5853  -14.1915   19.1917 C   0  0  0  0  0  0  0  0  0  0  0  0
    7.3304  -12.8723   18.9585 C   0  0  0  0  0  0  0  0  0  0  0  0
    8.3240  -12.8023   20.1280 C   0  0  0  0  0  0  0  0  0  0  0  0
    8.4526  -14.2778   20.4394 C   0  0  1  0  0  0  0  0  0  0  0  0
    9.2104  -14.5758   21.6540 C   0  0  0  0  0  0  0  0  0  0  0  0
   10.4433  -14.7950   21.5497 O   0  0  0  0  0  0  0  0  0  0  0  0
   11.1353  -15.1291   30.1439 O   0  0  0  0  0  0  0  0  0  0  0  0
   10.5253  -14.8443   28.9246 C   0  0  0  0  0  0  0  0  0  0  0  0
   11.1815  -14.9508   27.7247 C   0  0  0  0  0  0  0  0  0  0  0  0
   10.5459  -14.6611   26.5425 C   0  0  0  0  0  0  0  0  0  0  0  0
    9.2308  -14.2540   26.5120 C   0  0  0  0  0  0  0  0  0  0  0  0
    8.5592  -13.9454   25.2024 C   0  0  0  0  0  0  0  0  0  0  0  0
    9.1956  -14.7635   24.1496 C   0  0  2  0  0  0  0  0  0  0  0  0
    8.5148  -14.6025   22.8945 N   0  0  0  0  0  0  0  0  0  0  0  0
    9.3069  -16.2118   24.4568 C   0  0  0  0  0  0  0  0  0  0  0  0
    8.2436  -16.8409   24.6941 O   0  0  0  0  0  0  0  0  0  0  0  0
    8.5574  -14.1413   27.6999 C   0  0  0  0  0  0  0  0  0  0  0  0
    9.2064  -14.4348   28.8790 C   0  0  0  0  0  0  0  0  0  0  0  0
   11.3267  -18.9359   23.5344 C   0  0  0  0  0  0  0  0  0  0  0  0
   10.5869  -18.3109   24.7186 C   0  0  2  0  0  0  0  0  0  0  0  0
   10.5443  -16.8929   24.4904 N   0  0  0  0  0  0  0  0  0  0  0  0
   11.3718  -18.6518   25.9342 C   0  0  0  0  0  0  0  0  0  0  0  0
   11.1392  -19.7380   26.5211 O   0  0  0  0  0  0  0  0  0  0  0  0
   12.3300  -17.7491   26.3659 O   0  0  0  0  0  0  0  0  0  0  0  0
  1  2  1  0
  3  2  1  0
  4  5  1  0
  4  3  1  0
  5  6  1  1
  5  1  1  0
  6  7  2  0
  8  9  1  0
  9 19  2  0
  9 10  1  0
 10 11  2  0
 11 12  1  0
 12 13  1  0
 14 13  1  1
 15  6  1  0
 15 14  1  0
 16 14  1  0
 16 17  2  0
 18 12  2  0
 19 18  1  0
 21 20  1  6
 21 22  1  0
 21 23  1  0
 22 16  1  0
 23 24  2  0
 23 25  1  0
M  END
$$$$
