PYA.pdb
     RDKit          3D

 25 26  0  0  1  0  0  0  0  0999 V2000
    7.0485  -14.7102   20.4535 N   0  0  0  0  0  0  0  0  0  0  0  0
    6.5587  -14.1986   19.1664 C   0  0  0  0  0  0  0  0  0  0  0  0
    7.0815  -12.7596   19.0898 C   0  0  0  0  0  0  0  0  0  0  0  0
    7.9865  -12.6336   20.3248 C   0  0  0  0  0  0  0  0  0  0  0  0
    8.3460  -14.0900   20.5247 C   0  0  1  0  0  0  0  0  0  0  0  0
    9.0786  -14.3682   21.7593 C   0  0  0  0  0  0  0  0  0  0  0  0
   10.3291  -14.2439   21.7522 O   0  0  0  0  0  0  0  0  0  0  0  0
   10.7599  -15.2236   30.2420 O   0  0  0  0  0  0  0  0  0  0  0  0
   10.1012  -15.0387   29.0289 C   0  0  0  0  0  0  0  0  0  0  0  0
   10.0824  -13.8349   28.3716 C   0  0  0  0  0  0  0  0  0  0  0  0
    9.4215  -13.6915   27.1764 C   0  0  0  0  0  0  0  0  0  0  0  0
    8.7539  -14.7441   26.5911 C   0  0  0  0  0  0  0  0  0  0  0  0
    8.0403  -14.5589   25.2805 C   0  0  0  0  0  0  0  0  0  0  0  0
    8.9606  -14.9460   24.1914 C   0  0  2  0  0  0  0  0  0  0  0  0
    8.3399  -14.7652   22.9082 N   0  0  0  0  0  0  0  0  0  0  0  0
    9.4960  -16.3280   24.2790 C   0  0  0  0  0  0  0  0  0  0  0  0
    8.6694  -17.2761   24.2552 O   0  0  0  0  0  0  0  0  0  0  0  0
    8.7606  -15.9552   27.2318 C   0  0  0  0  0  0  0  0  0  0  0  0
    9.4272  -16.0859   28.4302 C   0  0  0  0  0  0  0  0  0  0  0  0
   12.6205  -18.0380   23.6038 C   0  0  0  0  0  0  0  0  0  0  0  0
   11.3412  -17.9659   24.4395 C   0  0  2  0  0  0  0  0  0  0  0  0
   10.8768  -16.6072   24.3861 N   0  0  0  0  0  0  0  0  0  0  0  0
   11.7160  -18.3682   25.8206 C   0  0  0  0  0  0  0  0  0  0  0  0
   11.6292  -17.5203   26.7437 O   0  0  0  0  0  0  0  0  0  0  0  0
   12.1466  -19.6688   26.0265 O   0  0  0  0  0  0  0  0  0  0  0  0
  1  2  1  0
  3  2  1  0
  4  5  1  0
  4  3  1  0
  5  6  1  1
  5  1  1  0
  6  7  2  0
  8  9  1  0
  9 19  2  0
  9 10  1  0
 10 11  2  0
 11 12  1  0
 12 13  1  0
 14 13  1  1
 15  6  1  0
 15 14  1  0
 16 14  1  0
 16 17  2  0
 18 12  2  0
 19 18  1  0
 21 20  1  6
 21 22  1  0
 21 23  1  0
 22 16  1  0
 23 24  2  0
 23 25  1  0
M  END
$$$$
