PYA.pdb
     RDKit          3D

 25 26  0  0  1  0  0  0  0  0999 V2000
    7.4856  -14.9410   20.3758 N   0  0  0  0  0  0  0  0  0  0  0  0
    7.1614  -14.3974   19.0500 C   0  0  0  0  0  0  0  0  0  0  0  0
    7.4990  -12.9050   19.1428 C   0  0  0  0  0  0  0  0  0  0  0  0
    8.1552  -12.7642   20.5247 C   0  0  0  0  0  0  0  0  0  0  0  0
    8.6605  -14.1786   20.7101 C   0  0  1  0  0  0  0  0  0  0  0  0
    9.2007  -14.4584   22.0399 C   0  0  0  0  0  0  0  0  0  0  0  0
   10.3157  -13.9666   22.3467 O   0  0  0  0  0  0  0  0  0  0  0  0
    6.3590  -10.3920   27.1503 O   0  0  0  0  0  0  0  0  0  0  0  0
    6.6440  -11.6630   26.6574 C   0  0  0  0  0  0  0  0  0  0  0  0
    5.6854  -12.4785   26.1116 C   0  0  0  0  0  0  0  0  0  0  0  0
    6.0053  -13.7263   25.6358 C   0  0  0  0  0  0  0  0  0  0  0  0
    7.2941  -14.2085   25.6862 C   0  0  0  0  0  0  0  0  0  0  0  0
    7.6161  -15.5781   25.1557 C   0  0  0  0  0  0  0  0  0  0  0  0
    8.8117  -15.4736   24.2940 C   0  0  2  0  0  0  0  0  0  0  0  0
    8.4374  -15.2731   22.9213 N   0  0  0  0  0  0  0  0  0  0  0  0
    9.7510  -16.6204   24.3763 C   0  0  0  0  0  0  0  0  0  0  0  0
   10.1682  -16.9518   25.5160 O   0  0  0  0  0  0  0  0  0  0  0  0
    8.2665  -13.4093   26.2277 C   0  0  0  0  0  0  0  0  0  0  0  0
    7.9327  -12.1597   26.7016 C   0  0  0  0  0  0  0  0  0  0  0  0
   10.8924  -19.3044   22.0860 C   0  0  0  0  0  0  0  0  0  0  0  0
   11.0077  -18.5049   23.3851 C   0  0  2  0  0  0  0  0  0  0  0  0
   10.1830  -17.3375   23.2382 N   0  0  0  0  0  0  0  0  0  0  0  0
   12.4436  -18.1518   23.5374 C   0  0  0  0  0  0  0  0  0  0  0  0
   13.2674  -19.0630   23.8010 O   0  0  0  0  0  0  0  0  0  0  0  0
   12.8088  -16.8245   23.3805 O   0  0  0  0  0  0  0  0  0  0  0  0
  1  2  1  0
  3  2  1  0
  4  5  1  0
  4  3  1  0
  5  6  1  1
  5  1  1  0
  6  7  2  0
  8  9  1  0
  9 19  2  0
  9 10  1  0
 10 11  2  0
 11 12  1  0
 12 13  1  0
 14 13  1  1
 15  6  1  0
 15 14  1  0
 16 14  1  0
 16 17  2  0
 18 12  2  0
 19 18  1  0
 21 20  1  6
 21 22  1  0
 21 23  1  0
 22 16  1  0
 23 24  2  0
 23 25  1  0
M  END
$$$$
