PYA.pdb
     RDKit          3D

 25 26  0  0  1  0  0  0  0  0999 V2000
    7.3679  -15.0824   20.2963 N   0  0  0  0  0  0  0  0  0  0  0  0
    6.8065  -14.7212   18.9876 C   0  0  0  0  0  0  0  0  0  0  0  0
    6.9834  -13.2017   18.8889 C   0  0  0  0  0  0  0  0  0  0  0  0
    7.8021  -12.8472   20.1395 C   0  0  0  0  0  0  0  0  0  0  0  0
    8.4840  -14.1767   20.3806 C   0  0  1  0  0  0  0  0  0  0  0  0
    9.2288  -14.2554   21.6366 C   0  0  0  0  0  0  0  0  0  0  0  0
   10.4269  -13.8765   21.6448 O   0  0  0  0  0  0  0  0  0  0  0  0
   10.8992  -14.7215   30.1623 O   0  0  0  0  0  0  0  0  0  0  0  0
   10.2347  -14.6883   28.9387 C   0  0  0  0  0  0  0  0  0  0  0  0
    9.9221  -13.5171   28.2966 C   0  0  0  0  0  0  0  0  0  0  0  0
    9.2657  -13.5249   27.0904 C   0  0  0  0  0  0  0  0  0  0  0  0
    8.8960  -14.7017   26.4785 C   0  0  0  0  0  0  0  0  0  0  0  0
    8.1799  -14.6804   25.1564 C   0  0  0  0  0  0  0  0  0  0  0  0
    9.1866  -14.7917   24.0807 C   0  0  2  0  0  0  0  0  0  0  0  0
    8.5604  -14.7564   22.7879 N   0  0  0  0  0  0  0  0  0  0  0  0
   10.0650  -15.9860   24.1598 C   0  0  0  0  0  0  0  0  0  0  0  0
   10.7988  -16.1039   25.1749 O   0  0  0  0  0  0  0  0  0  0  0  0
    9.1990  -15.8827   27.1037 C   0  0  0  0  0  0  0  0  0  0  0  0
    9.8576  -15.8613   28.3133 C   0  0  0  0  0  0  0  0  0  0  0  0
   10.3616  -19.2344   22.4249 C   0  0  0  0  0  0  0  0  0  0  0  0
   10.9562  -18.1224   23.2910 C   0  0  2  0  0  0  0  0  0  0  0  0
   10.1027  -16.9750   23.1515 N   0  0  0  0  0  0  0  0  0  0  0  0
   12.3221  -17.8626   22.7652 C   0  0  0  0  0  0  0  0  0  0  0  0
   13.2210  -18.7175   22.9637 O   0  0  0  0  0  0  0  0  0  0  0  0
   12.5414  -16.6810   22.0757 O   0  0  0  0  0  0  0  0  0  0  0  0
  1  2  1  0
  3  2  1  0
  4  5  1  0
  4  3  1  0
  5  6  1  1
  5  1  1  0
  6  7  2  0
  8  9  1  0
  9 19  2  0
  9 10  1  0
 10 11  2  0
 11 12  1  0
 12 13  1  0
 14 13  1  1
 15  6  1  0
 15 14  1  0
 16 14  1  0
 16 17  2  0
 18 12  2  0
 19 18  1  0
 21 20  1  6
 21 22  1  0
 21 23  1  0
 22 16  1  0
 23 24  2  0
 23 25  1  0
M  END
$$$$
