PYA.pdb
     RDKit          3D

 25 26  0  0  1  0  0  0  0  0999 V2000
   10.1176  -17.1164   18.7136 N   0  0  0  0  0  0  0  0  0  0  0  0
    9.6895  -18.0520   17.6649 C   0  0  0  0  0  0  0  0  0  0  0  0
    9.2362  -19.3077   18.4183 C   0  0  0  0  0  0  0  0  0  0  0  0
    9.3093  -18.8935   19.8958 C   0  0  0  0  0  0  0  0  0  0  0  0
    9.1542  -17.3955   19.7466 C   0  0  1  0  0  0  0  0  0  0  0  0
    9.3607  -16.6400   20.9815 C   0  0  0  0  0  0  0  0  0  0  0  0
   10.5256  -16.2612   21.2617 O   0  0  0  0  0  0  0  0  0  0  0  0
    7.6908  -12.0898   28.2207 O   0  0  0  0  0  0  0  0  0  0  0  0
    7.5498  -12.8003   27.0312 C   0  0  0  0  0  0  0  0  0  0  0  0
    8.1305  -14.0262   26.8268 C   0  0  0  0  0  0  0  0  0  0  0  0
    7.9685  -14.6967   25.6393 C   0  0  0  0  0  0  0  0  0  0  0  0
    7.2207  -14.1697   24.6101 C   0  0  0  0  0  0  0  0  0  0  0  0
    7.0585  -14.9272   23.3213 C   0  0  0  0  0  0  0  0  0  0  0  0
    8.3358  -15.6043   23.0162 C   0  0  2  0  0  0  0  0  0  0  0  0
    8.2326  -16.3702   21.8049 N   0  0  0  0  0  0  0  0  0  0  0  0
    8.8612  -16.4767   24.0965 C   0  0  0  0  0  0  0  0  0  0  0  0
    8.1173  -17.4023   24.5121 O   0  0  0  0  0  0  0  0  0  0  0  0
    6.6323  -12.9461   24.7943 C   0  0  0  0  0  0  0  0  0  0  0  0
    6.8025  -12.2837   25.9900 C   0  0  0  0  0  0  0  0  0  0  0  0
   12.2056  -17.2503   25.4081 C   0  0  0  0  0  0  0  0  0  0  0  0
   10.6834  -17.2924   25.5549 C   0  0  2  0  0  0  0  0  0  0  0  0
   10.1446  -16.3044   24.6616 N   0  0  0  0  0  0  0  0  0  0  0  0
   10.3875  -16.9728   26.9762 C   0  0  0  0  0  0  0  0  0  0  0  0
    9.8030  -15.8939   27.2460 O   0  0  0  0  0  0  0  0  0  0  0  0
   10.7729  -17.8864   27.9438 O   0  0  0  0  0  0  0  0  0  0  0  0
  1  2  1  0
  3  2  1  0
  4  5  1  0
  4  3  1  0
  5  6  1  1
  5  1  1  0
  6  7  2  0
  8  9  1  0
  9 19  2  0
  9 10  1  0
 10 11  2  0
 11 12  1  0
 12 13  1  0
 14 13  1  1
 15  6  1  0
 15 14  1  0
 16 14  1  0
 16 17  2  0
 18 12  2  0
 19 18  1  0
 21 20  1  1
 21 22  1  0
 21 23  1  0
 22 16  1  0
 23 24  2  0
 23 25  1  0
M  END
$$$$
