PYA.pdb
     RDKit          3D

 25 26  0  0  1  0  0  0  0  0999 V2000
    7.2729  -15.0929   20.4831 N   0  0  0  0  0  0  0  0  0  0  0  0
    6.7521  -14.6771   19.1738 C   0  0  0  0  0  0  0  0  0  0  0  0
    7.1850  -13.2142   19.0241 C   0  0  0  0  0  0  0  0  0  0  0  0
    8.0809  -12.9713   20.2483 C   0  0  0  0  0  0  0  0  0  0  0  0
    8.5296  -14.3911   20.5190 C   0  0  1  0  0  0  0  0  0  0  0  0
    9.2784  -14.5618   21.7634 C   0  0  0  0  0  0  0  0  0  0  0  0
   10.4903  -14.2298   21.7811 O   0  0  0  0  0  0  0  0  0  0  0  0
   10.6741  -14.8887   30.3428 O   0  0  0  0  0  0  0  0  0  0  0  0
   10.0554  -14.8764   29.0951 C   0  0  0  0  0  0  0  0  0  0  0  0
    9.8488  -13.7233   28.3815 C   0  0  0  0  0  0  0  0  0  0  0  0
    9.2348  -13.7515   27.1535 C   0  0  0  0  0  0  0  0  0  0  0  0
    8.8034  -14.9317   26.5902 C   0  0  0  0  0  0  0  0  0  0  0  0
    8.1359  -14.9331   25.2428 C   0  0  0  0  0  0  0  0  0  0  0  0
    9.1785  -15.0895   24.2077 C   0  0  2  0  0  0  0  0  0  0  0  0
    8.5982  -15.0948   22.8932 N   0  0  0  0  0  0  0  0  0  0  0  0
   10.0434  -16.2867   24.3591 C   0  0  0  0  0  0  0  0  0  0  0  0
   10.7010  -16.3999   25.4256 O   0  0  0  0  0  0  0  0  0  0  0  0
    9.0003  -16.0948   27.2870 C   0  0  0  0  0  0  0  0  0  0  0  0
    9.6175  -16.0530   28.5178 C   0  0  0  0  0  0  0  0  0  0  0  0
   10.6672  -19.4379   22.4744 C   0  0  0  0  0  0  0  0  0  0  0  0
   11.0142  -18.4146   23.5573 C   0  0  2  0  0  0  0  0  0  0  0  0
   10.1495  -17.2836   23.3635 N   0  0  0  0  0  0  0  0  0  0  0  0
   12.4436  -18.0581   23.3587 C   0  0  0  0  0  0  0  0  0  0  0  0
   12.7319  -16.8930   22.9873 O   0  0  0  0  0  0  0  0  0  0  0  0
   13.3978  -19.0345   23.5943 O   0  0  0  0  0  0  0  0  0  0  0  0
  1  2  1  0
  3  2  1  0
  4  5  1  0
  4  3  1  0
  5  6  1  1
  5  1  1  0
  6  7  2  0
  8  9  1  0
  9 19  2  0
  9 10  1  0
 10 11  2  0
 11 12  1  0
 12 13  1  0
 14 13  1  1
 15  6  1  0
 15 14  1  0
 16 14  1  0
 16 17  2  0
 18 12  2  0
 19 18  1  0
 21 20  1  6
 21 22  1  0
 21 23  1  0
 22 16  1  0
 23 24  2  0
 23 25  1  0
M  END
$$$$
