PYA.pdb
     RDKit          3D

 25 26  0  0  1  0  0  0  0  0999 V2000
    7.9738  -15.3909   18.7876 N   0  0  0  0  0  0  0  0  0  0  0  0
    7.9645  -15.2744   17.3232 C   0  0  0  0  0  0  0  0  0  0  0  0
    8.1603  -13.7795   17.0457 C   0  0  0  0  0  0  0  0  0  0  0  0
    8.4266  -13.1818   18.4356 C   0  0  0  0  0  0  0  0  0  0  0  0
    8.9658  -14.4084   19.1394 C   0  0  1  0  0  0  0  0  0  0  0  0
    9.1635  -14.2419   20.5787 C   0  0  0  0  0  0  0  0  0  0  0  0
   10.2426  -13.7371   20.9785 O   0  0  0  0  0  0  0  0  0  0  0  0
    7.1692  -12.4001   28.7951 O   0  0  0  0  0  0  0  0  0  0  0  0
    7.0650  -12.8067   27.4671 C   0  0  0  0  0  0  0  0  0  0  0  0
    6.3768  -13.9310   27.0879 C   0  0  0  0  0  0  0  0  0  0  0  0
    6.2963  -14.2998   25.7676 C   0  0  0  0  0  0  0  0  0  0  0  0
    6.8996  -13.5606   24.7746 C   0  0  0  0  0  0  0  0  0  0  0  0
    6.7933  -13.9869   23.3366 C   0  0  0  0  0  0  0  0  0  0  0  0
    8.1422  -14.3569   22.8605 C   0  0  2  0  0  0  0  0  0  0  0  0
    8.1243  -14.6590   21.4558 N   0  0  0  0  0  0  0  0  0  0  0  0
    8.7818  -15.4816   23.5887 C   0  0  0  0  0  0  0  0  0  0  0  0
    8.9452  -15.3549   24.8296 O   0  0  0  0  0  0  0  0  0  0  0  0
    7.5921  -12.4338   25.1326 C   0  0  0  0  0  0  0  0  0  0  0  0
    7.6654  -12.0748   26.4604 C   0  0  0  0  0  0  0  0  0  0  0  0
    9.7257  -18.9914   22.7966 C   0  0  0  0  0  0  0  0  0  0  0  0
    9.7165  -17.7671   23.7139 C   0  0  2  0  0  0  0  0  0  0  0  0
    9.2047  -16.6663   22.9454 N   0  0  0  0  0  0  0  0  0  0  0  0
   11.1253  -17.5421   24.1316 C   0  0  0  0  0  0  0  0  0  0  0  0
   11.6702  -18.3736   24.8998 O   0  0  0  0  0  0  0  0  0  0  0  0
   11.7761  -16.4175   23.6505 O   0  0  0  0  0  0  0  0  0  0  0  0
  1  2  1  0
  3  2  1  0
  4  5  1  0
  4  3  1  0
  5  6  1  1
  5  1  1  0
  6  7  2  0
  8  9  1  0
  9 19  2  0
  9 10  1  0
 10 11  2  0
 11 12  1  0
 12 13  1  0
 14 13  1  1
 15  6  1  0
 15 14  1  0
 16 14  1  0
 16 17  2  0
 18 12  2  0
 19 18  1  0
 21 20  1  6
 21 22  1  0
 21 23  1  0
 22 16  1  0
 23 24  2  0
 23 25  1  0
M  END
$$$$
