PYA.pdb
     RDKit          3D

 25 26  0  0  1  0  0  0  0  0999 V2000
    7.2095  -15.0618   20.2603 N   0  0  0  0  0  0  0  0  0  0  0  0
    6.7046  -14.6301   18.9499 C   0  0  0  0  0  0  0  0  0  0  0  0
    6.9550  -13.1183   18.9099 C   0  0  0  0  0  0  0  0  0  0  0  0
    7.7519  -12.8458   20.1947 C   0  0  0  0  0  0  0  0  0  0  0  0
    8.3636  -14.2136   20.4078 C   0  0  1  0  0  0  0  0  0  0  0  0
    9.0663  -14.3702   21.6806 C   0  0  0  0  0  0  0  0  0  0  0  0
   10.3198  -14.2816   21.6852 O   0  0  0  0  0  0  0  0  0  0  0  0
   10.6401  -15.0160   30.2139 O   0  0  0  0  0  0  0  0  0  0  0  0
    9.9997  -14.8266   28.9917 C   0  0  0  0  0  0  0  0  0  0  0  0
   10.0148  -13.6279   28.3249 C   0  0  0  0  0  0  0  0  0  0  0  0
    9.3711  -13.4799   27.1209 C   0  0  0  0  0  0  0  0  0  0  0  0
    8.6876  -14.5224   26.5359 C   0  0  0  0  0  0  0  0  0  0  0  0
    7.9935  -14.3323   25.2156 C   0  0  0  0  0  0  0  0  0  0  0  0
    8.9026  -14.7863   24.1430 C   0  0  2  0  0  0  0  0  0  0  0  0
    8.2966  -14.6147   22.8515 N   0  0  0  0  0  0  0  0  0  0  0  0
    9.3797  -16.1864   24.2708 C   0  0  0  0  0  0  0  0  0  0  0  0
    8.5134  -17.0986   24.2856 O   0  0  0  0  0  0  0  0  0  0  0  0
    8.6604  -15.7281   27.1860 C   0  0  0  0  0  0  0  0  0  0  0  0
    9.3100  -15.8637   28.3932 C   0  0  0  0  0  0  0  0  0  0  0  0
   12.2207  -18.0597   23.2956 C   0  0  0  0  0  0  0  0  0  0  0  0
   11.1610  -17.8971   24.3869 C   0  0  2  0  0  0  0  0  0  0  0  0
   10.7485  -16.5208   24.3744 N   0  0  0  0  0  0  0  0  0  0  0  0
   11.8157  -18.2663   25.6694 C   0  0  0  0  0  0  0  0  0  0  0  0
   12.0275  -17.3687   26.5225 O   0  0  0  0  0  0  0  0  0  0  0  0
   12.1642  -19.5929   25.8651 O   0  0  0  0  0  0  0  0  0  0  0  0
  1  2  1  0
  3  2  1  0
  4  5  1  0
  4  3  1  0
  5  6  1  1
  5  1  1  0
  6  7  2  0
  8  9  1  0
  9 19  2  0
  9 10  1  0
 10 11  2  0
 11 12  1  0
 12 13  1  0
 14 13  1  1
 15  6  1  0
 15 14  1  0
 16 14  1  0
 16 17  2  0
 18 12  2  0
 19 18  1  0
 21 20  1  6
 21 22  1  0
 21 23  1  0
 22 16  1  0
 23 24  2  0
 23 25  1  0
M  END
$$$$
