QDI.pdb
     RDKit          3D

 26 25  0  0  1  0  0  0  0  0999 V2000
    7.5369  -15.6570   16.3921 N   0  0  0  0  0  0  0  0  0  0  0  0
    7.8855  -14.3596   15.8988 C   0  0  0  0  0  0  0  0  0  0  0  0
    8.0814  -14.2270   14.6688 O   0  0  0  0  0  0  0  0  0  0  0  0
    8.0164  -13.1956   16.7835 C   0  0  0  0  0  0  0  0  0  0  0  0
    7.6354  -13.4717   18.1917 C   0  0  0  0  0  0  0  0  0  0  0  0
    8.7701  -13.4571   19.1563 C   0  0  2  0  0  0  0  0  0  0  0  0
    9.7389  -14.4374   18.6804 N   0  0  0  0  0  0  0  0  0  0  0  0
    8.2772  -13.9791   20.4921 C   0  0  0  0  0  0  0  0  0  0  0  0
    7.4446  -13.3217   21.1364 O   0  0  0  0  0  0  0  0  0  0  0  0
    8.7541  -15.2028   21.0104 N   0  0  0  0  0  0  0  0  0  0  0  0
    8.4382  -15.8674   22.2258 C   0  0  1  0  0  0  0  0  0  0  0  0
    8.7226  -17.3639   22.2567 C   0  0  0  0  0  0  0  0  0  0  0  0
   10.0976  -17.6087   21.7979 C   0  0  0  0  0  0  0  0  0  0  0  0
   10.3999  -17.4750   20.5972 O   0  0  0  0  0  0  0  0  0  0  0  0
    8.9193  -15.2636   23.4564 C   0  0  0  0  0  0  0  0  0  0  0  0
   10.1130  -14.7862   23.5086 O   0  0  0  0  0  0  0  0  0  0  0  0
   11.0321  -17.9941   22.7696 O   0  0  0  0  0  0  0  0  0  0  0  0
    5.6062  -12.4142   26.9622 C   0  0  0  0  0  0  0  0  0  0  0  0
    6.4118  -13.5681   26.4475 C   0  0  0  0  0  0  0  0  0  0  0  0
    7.8403  -13.2390   26.1529 C   0  0  2  0  0  0  0  0  0  0  0  0
    7.9460  -12.2297   25.0583 C   0  0  0  0  0  0  0  0  0  0  0  0
    8.6836  -14.4553   25.8308 C   0  0  2  0  0  0  0  0  0  0  0  0
    8.1704  -15.1433   24.6558 N   0  0  0  0  0  0  0  0  0  0  0  0
    8.6076  -15.3521   27.0080 C   0  0  0  0  0  0  0  0  0  0  0  0
    9.1736  -15.0677   28.2411 O   0  0  0  0  0  0  0  0  0  0  0  0
    7.9938  -16.4399   26.8891 O   0  0  0  0  0  0  0  0  0  0  0  0
  2  1  1  0
  3  2  2  0
  4  2  1  0
  5  4  1  0
  6  5  1  0
  6  8  1  0
  6  7  1  6
  8  9  2  0
 10  8  1  0
 10 11  1  0
 11 15  1  0
 11 12  1  6
 13 12  1  0
 14 13  2  0
 15 16  2  0
 17 13  1  0
 19 18  1  0
 19 20  1  0
 20 22  1  0
 20 21  1  6
 22 24  1  0
 22 23  1  6
 23 15  1  0
 24 26  2  0
 24 25  1  0
M  END
$$$$
