QDI.pdb
     RDKit          3D

 26 25  0  0  1  0  0  0  0  0999 V2000
    4.9232  -19.0531   19.1858 N   0  0  0  0  0  0  0  0  0  0  0  0
    6.1360  -18.6499   18.5419 C   0  0  0  0  0  0  0  0  0  0  0  0
    6.4071  -19.1481   17.4251 O   0  0  0  0  0  0  0  0  0  0  0  0
    7.0576  -17.6804   19.1464 C   0  0  0  0  0  0  0  0  0  0  0  0
    6.4228  -16.3785   19.4730 C   0  0  0  0  0  0  0  0  0  0  0  0
    7.3314  -15.3883   20.1149 C   0  0  2  0  0  0  0  0  0  0  0  0
    8.5909  -15.4369   19.3820 N   0  0  0  0  0  0  0  0  0  0  0  0
    7.6522  -15.8639   21.5187 C   0  0  0  0  0  0  0  0  0  0  0  0
    6.7542  -15.8932   22.3750 O   0  0  0  0  0  0  0  0  0  0  0  0
    8.9591  -16.2733   21.8621 N   0  0  0  0  0  0  0  0  0  0  0  0
    9.4711  -16.7632   23.0936 C   0  0  1  0  0  0  0  0  0  0  0  0
   10.6442  -17.7296   22.9866 C   0  0  0  0  0  0  0  0  0  0  0  0
   10.9256  -18.3036   24.3103 C   0  0  0  0  0  0  0  0  0  0  0  0
   10.1983  -18.0377   25.2856 O   0  0  0  0  0  0  0  0  0  0  0  0
    9.7494  -15.7862   24.1319 C   0  0  0  0  0  0  0  0  0  0  0  0
   10.7449  -14.9816   24.0005 O   0  0  0  0  0  0  0  0  0  0  0  0
   12.0378  -19.1513   24.4114 O   0  0  0  0  0  0  0  0  0  0  0  0
    6.1951  -12.3872   25.6672 C   0  0  0  0  0  0  0  0  0  0  0  0
    7.4900  -13.0966   25.4118 C   0  0  0  0  0  0  0  0  0  0  0  0
    8.0733  -13.7658   26.6149 C   0  0  2  0  0  0  0  0  0  0  0  0
    8.3713  -12.7751   27.6910 C   0  0  0  0  0  0  0  0  0  0  0  0
    9.3037  -14.5933   26.3056 C   0  0  2  0  0  0  0  0  0  0  0  0
    8.9994  -15.6251   25.3259 N   0  0  0  0  0  0  0  0  0  0  0  0
    9.7270  -15.2223   27.5788 C   0  0  0  0  0  0  0  0  0  0  0  0
   10.6215  -14.6502   28.4701 O   0  0  0  0  0  0  0  0  0  0  0  0
    9.2500  -16.3440   27.8762 O   0  0  0  0  0  0  0  0  0  0  0  0
  2  1  1  0
  3  2  2  0
  4  2  1  0
  5  4  1  0
  6  5  1  0
  6  8  1  0
  6  7  1  6
  8  9  2  0
 10  8  1  0
 10 11  1  0
 11 15  1  0
 11 12  1  6
 13 12  1  0
 14 13  2  0
 15 16  2  0
 17 13  1  0
 19 18  1  0
 19 20  1  0
 20 22  1  0
 20 21  1  1
 22 24  1  0
 22 23  1  6
 23 15  1  0
 24 26  2  0
 24 25  1  0
M  END
$$$$
