QDI.pdb
     RDKit          3D

 26 25  0  0  1  0  0  0  0  0999 V2000
    9.0823  -13.5330   16.1106 N   0  0  0  0  0  0  0  0  0  0  0  0
    7.7566  -13.4737   16.6466 C   0  0  0  0  0  0  0  0  0  0  0  0
    6.8179  -13.1763   15.8724 O   0  0  0  0  0  0  0  0  0  0  0  0
    7.4712  -13.7499   18.0598 C   0  0  0  0  0  0  0  0  0  0  0  0
    8.6893  -13.9074   18.8940 C   0  0  0  0  0  0  0  0  0  0  0  0
    9.0276  -15.3160   19.2391 C   0  0  2  0  0  0  0  0  0  0  0  0
    8.1483  -16.1661   18.4453 N   0  0  0  0  0  0  0  0  0  0  0  0
    8.6470  -15.5653   20.6857 C   0  0  0  0  0  0  0  0  0  0  0  0
    7.5245  -15.2238   21.0906 O   0  0  0  0  0  0  0  0  0  0  0  0
    9.5537  -16.1807   21.5760 N   0  0  0  0  0  0  0  0  0  0  0  0
    9.3568  -16.6545   22.9009 C   0  0  1  0  0  0  0  0  0  0  0  0
   10.0998  -17.9339   23.2649 C   0  0  0  0  0  0  0  0  0  0  0  0
    9.8951  -18.9345   22.2077 C   0  0  0  0  0  0  0  0  0  0  0  0
    8.7483  -19.2128   21.8099 O   0  0  0  0  0  0  0  0  0  0  0  0
    9.5055  -15.6919   23.9786 C   0  0  0  0  0  0  0  0  0  0  0  0
   10.4955  -14.8701   23.9678 O   0  0  0  0  0  0  0  0  0  0  0  0
   11.0419  -19.5467   21.6822 O   0  0  0  0  0  0  0  0  0  0  0  0
    5.7227  -12.4567   25.8344 C   0  0  0  0  0  0  0  0  0  0  0  0
    7.0044  -13.1433   25.4720 C   0  0  0  0  0  0  0  0  0  0  0  0
    7.6262  -13.9168   26.5904 C   0  0  2  0  0  0  0  0  0  0  0  0
    7.8867  -13.0416   27.7711 C   0  0  0  0  0  0  0  0  0  0  0  0
    8.8905  -14.6467   26.1868 C   0  0  2  0  0  0  0  0  0  0  0  0
    8.6291  -15.5634   25.0874 N   0  0  0  0  0  0  0  0  0  0  0  0
    9.3428  -15.4076   27.3752 C   0  0  0  0  0  0  0  0  0  0  0  0
   10.2003  -14.9047   28.3414 O   0  0  0  0  0  0  0  0  0  0  0  0
    8.9276  -16.5822   27.5235 O   0  0  0  0  0  0  0  0  0  0  0  0
  2  1  1  0
  3  2  2  0
  4  2  1  0
  5  4  1  0
  6  5  1  0
  6  8  1  0
  6  7  1  6
  8  9  2  0
 10  8  1  0
 10 11  1  0
 11 15  1  0
 11 12  1  1
 13 12  1  0
 14 13  2  0
 15 16  2  0
 17 13  1  0
 19 18  1  0
 19 20  1  0
 20 22  1  0
 20 21  1  1
 22 24  1  0
 22 23  1  6
 23 15  1  0
 24 26  2  0
 24 25  1  0
M  END
$$$$
