QDI.pdb
     RDKit          3D

 26 25  0  0  1  0  0  0  0  0999 V2000
    8.3806  -12.4273   18.3507 N   0  0  0  0  0  0  0  0  0  0  0  0
    8.7749  -12.9960   19.6034 C   0  0  0  0  0  0  0  0  0  0  0  0
    9.9865  -13.2617   19.7776 O   0  0  0  0  0  0  0  0  0  0  0  0
    7.8108  -13.2710   20.6756 C   0  0  0  0  0  0  0  0  0  0  0  0
    6.8592  -14.3647   20.3550 C   0  0  0  0  0  0  0  0  0  0  0  0
    7.4560  -15.7291   20.3623 C   0  0  2  0  0  0  0  0  0  0  0  0
    6.4205  -16.6434   19.8958 N   0  0  0  0  0  0  0  0  0  0  0  0
    7.7403  -16.1259   21.7981 C   0  0  0  0  0  0  0  0  0  0  0  0
    6.7946  -16.3667   22.5652 O   0  0  0  0  0  0  0  0  0  0  0  0
    9.0668  -16.2243   22.2717 N   0  0  0  0  0  0  0  0  0  0  0  0
    9.5633  -16.7198   23.5073 C   0  0  1  0  0  0  0  0  0  0  0  0
   10.7389  -17.6842   23.4108 C   0  0  0  0  0  0  0  0  0  0  0  0
   10.3253  -18.8847   22.6700 C   0  0  0  0  0  0  0  0  0  0  0  0
   10.7700  -19.1118   21.5292 O   0  0  0  0  0  0  0  0  0  0  0  0
    9.8270  -15.7475   24.5540 C   0  0  0  0  0  0  0  0  0  0  0  0
   10.8259  -14.9443   24.4416 O   0  0  0  0  0  0  0  0  0  0  0  0
    9.4190  -19.7436   23.3079 O   0  0  0  0  0  0  0  0  0  0  0  0
    6.0563  -12.6036   26.3054 C   0  0  0  0  0  0  0  0  0  0  0  0
    7.3534  -13.2651   25.9514 C   0  0  0  0  0  0  0  0  0  0  0  0
    8.1029  -13.8167   27.1217 C   0  0  2  0  0  0  0  0  0  0  0  0
    8.4281  -12.7440   28.1074 C   0  0  0  0  0  0  0  0  0  0  0  0
    9.3571  -14.5710   26.7315 C   0  0  2  0  0  0  0  0  0  0  0  0
    9.0585  -15.5900   25.7366 N   0  0  0  0  0  0  0  0  0  0  0  0
    9.8715  -15.2120   27.9645 C   0  0  0  0  0  0  0  0  0  0  0  0
    9.7734  -16.5679   28.2360 O   0  0  0  0  0  0  0  0  0  0  0  0
   10.4328  -14.4884   28.8221 O   0  0  0  0  0  0  0  0  0  0  0  0
  2  1  1  0
  3  2  2  0
  4  2  1  0
  5  4  1  0
  6  5  1  0
  6  8  1  0
  6  7  1  1
  8  9  2  0
 10  8  1  0
 10 11  1  0
 11 15  1  0
 11 12  1  6
 13 12  1  0
 14 13  2  0
 15 16  2  0
 17 13  1  0
 19 18  1  0
 19 20  1  0
 20 22  1  0
 20 21  1  1
 22 24  1  0
 22 23  1  6
 23 15  1  0
 24 26  2  0
 24 25  1  0
M  END
$$$$
