QDI.pdb
     RDKit          3D

 26 25  0  0  1  0  0  0  0  0999 V2000
   10.4744  -13.0997   18.7038 N   0  0  0  0  0  0  0  0  0  0  0  0
    9.3314  -12.7951   17.8983 C   0  0  0  0  0  0  0  0  0  0  0  0
    9.5228  -12.3783   16.7327 O   0  0  0  0  0  0  0  0  0  0  0  0
    7.9593  -12.9571   18.3942 C   0  0  0  0  0  0  0  0  0  0  0  0
    7.8743  -13.6887   19.6834 C   0  0  0  0  0  0  0  0  0  0  0  0
    8.3174  -15.1092   19.6216 C   0  0  2  0  0  0  0  0  0  0  0  0
    7.3103  -15.8307   18.8527 N   0  0  0  0  0  0  0  0  0  0  0  0
    8.2661  -15.6940   21.0199 C   0  0  0  0  0  0  0  0  0  0  0  0
    7.1739  -15.7965   21.6006 O   0  0  0  0  0  0  0  0  0  0  0  0
    9.4451  -16.1227   21.6678 N   0  0  0  0  0  0  0  0  0  0  0  0
    9.6327  -16.6453   22.9756 C   0  0  1  0  0  0  0  0  0  0  0  0
   10.7252  -17.6977   23.1188 C   0  0  0  0  0  0  0  0  0  0  0  0
   10.5275  -18.7466   22.1080 C   0  0  0  0  0  0  0  0  0  0  0  0
    9.4905  -19.4362   22.1025 O   0  0  0  0  0  0  0  0  0  0  0  0
    9.7452  -15.6883   24.0626 C   0  0  0  0  0  0  0  0  0  0  0  0
   10.7487  -14.8841   24.1033 O   0  0  0  0  0  0  0  0  0  0  0  0
   11.5527  -18.9240   21.1681 O   0  0  0  0  0  0  0  0  0  0  0  0
    6.8789  -11.5274   27.2560 C   0  0  0  0  0  0  0  0  0  0  0  0
    7.9442  -12.5796   27.3126 C   0  0  0  0  0  0  0  0  0  0  0  0
    7.7783  -13.6784   26.3122 C   0  0  2  0  0  0  0  0  0  0  0  0
    6.5622  -14.4934   26.6038 C   0  0  0  0  0  0  0  0  0  0  0  0
    8.9952  -14.5724   26.1931 C   0  0  2  0  0  0  0  0  0  0  0  0
    8.8177  -15.5472   25.1275 N   0  0  0  0  0  0  0  0  0  0  0  0
    9.1404  -15.2719   27.4913 C   0  0  0  0  0  0  0  0  0  0  0  0
    9.7505  -14.7219   28.6080 O   0  0  0  0  0  0  0  0  0  0  0  0
    8.6849  -16.4364   27.5944 O   0  0  0  0  0  0  0  0  0  0  0  0
  2  1  1  0
  3  2  2  0
  4  2  1  0
  5  4  1  0
  6  5  1  0
  6  8  1  0
  6  7  1  6
  8  9  2  0
 10  8  1  0
 10 11  1  0
 11 15  1  0
 11 12  1  6
 13 12  1  0
 14 13  2  0
 15 16  2  0
 17 13  1  0
 19 18  1  0
 19 20  1  0
 20 22  1  0
 20 21  1  1
 22 24  1  0
 22 23  1  6
 23 15  1  0
 24 26  2  0
 24 25  1  0
M  END
$$$$
