QDI.pdb
     RDKit          3D

 26 25  0  0  1  0  0  0  0  0999 V2000
    7.5415  -15.6686   16.9475 N   0  0  0  0  0  0  0  0  0  0  0  0
    7.5483  -14.2864   16.5764 C   0  0  0  0  0  0  0  0  0  0  0  0
    7.5548  -14.0011   15.3567 O   0  0  0  0  0  0  0  0  0  0  0  0
    7.5463  -13.2088   17.5731 C   0  0  0  0  0  0  0  0  0  0  0  0
    7.3908  -13.6890   18.9694 C   0  0  0  0  0  0  0  0  0  0  0  0
    8.5545  -13.4086   19.8556 C   0  0  2  0  0  0  0  0  0  0  0  0
    9.7346  -13.9324   19.1782 N   0  0  0  0  0  0  0  0  0  0  0  0
    8.4076  -14.2293   21.1224 C   0  0  0  0  0  0  0  0  0  0  0  0
    7.4396  -14.0285   21.8728 O   0  0  0  0  0  0  0  0  0  0  0  0
    9.3583  -15.2180   21.4574 N   0  0  0  0  0  0  0  0  0  0  0  0
    9.4208  -16.0843   22.5818 C   0  0  1  0  0  0  0  0  0  0  0  0
   10.3315  -17.2970   22.4348 C   0  0  0  0  0  0  0  0  0  0  0  0
   10.0663  -17.9528   21.1462 C   0  0  0  0  0  0  0  0  0  0  0  0
    9.0032  -18.5729   20.9559 O   0  0  0  0  0  0  0  0  0  0  0  0
    9.6460  -15.4716   23.8795 C   0  0  0  0  0  0  0  0  0  0  0  0
   10.7546  -14.8618   24.1134 O   0  0  0  0  0  0  0  0  0  0  0  0
   11.0587  -17.8432   20.1618 O   0  0  0  0  0  0  0  0  0  0  0  0
    6.6726  -11.8877   25.9845 C   0  0  0  0  0  0  0  0  0  0  0  0
    7.7866  -12.8343   25.6553 C   0  0  0  0  0  0  0  0  0  0  0  0
    8.0153  -13.8970   26.6819 C   0  0  2  0  0  0  0  0  0  0  0  0
    8.3800  -13.3018   28.0014 C   0  0  0  0  0  0  0  0  0  0  0  0
    9.0471  -14.9244   26.2646 C   0  0  2  0  0  0  0  0  0  0  0  0
    8.7245  -15.4794   24.9588 N   0  0  0  0  0  0  0  0  0  0  0  0
    9.0180  -15.9984   27.2851 C   0  0  0  0  0  0  0  0  0  0  0  0
    9.7622  -15.9812   28.4546 O   0  0  0  0  0  0  0  0  0  0  0  0
    8.2752  -16.9896   27.0854 O   0  0  0  0  0  0  0  0  0  0  0  0
  2  1  1  0
  3  2  2  0
  4  2  1  0
  5  4  1  0
  6  5  1  0
  6  8  1  0
  6  7  1  6
  8  9  2  0
 10  8  1  0
 10 11  1  0
 11 15  1  0
 11 12  1  6
 13 12  1  0
 14 13  2  0
 15 16  2  0
 17 13  1  0
 19 18  1  0
 19 20  1  0
 20 22  1  0
 20 21  1  1
 22 24  1  0
 22 23  1  6
 23 15  1  0
 24 26  2  0
 24 25  1  0
M  END
$$$$
