QDI.pdb
     RDKit          3D

 26 25  0  0  1  0  0  0  0  0999 V2000
    4.3762  -19.5239   19.6879 N   0  0  0  0  0  0  0  0  0  0  0  0
    5.6442  -18.9395   19.3734 C   0  0  0  0  0  0  0  0  0  0  0  0
    6.5885  -19.7036   19.0676 O   0  0  0  0  0  0  0  0  0  0  0  0
    5.8644  -17.4884   19.3979 C   0  0  0  0  0  0  0  0  0  0  0  0
    7.2764  -17.0959   19.1603 C   0  0  0  0  0  0  0  0  0  0  0  0
    7.7380  -15.9253   19.9569 C   0  0  2  0  0  0  0  0  0  0  0  0
    9.1594  -15.7607   19.6773 N   0  0  0  0  0  0  0  0  0  0  0  0
    7.6449  -16.2745   21.4297 C   0  0  0  0  0  0  0  0  0  0  0  0
    6.5447  -16.2250   22.0021 O   0  0  0  0  0  0  0  0  0  0  0  0
    8.7942  -16.6550   22.1563 N   0  0  0  0  0  0  0  0  0  0  0  0
    8.9283  -17.0583   23.5121 C   0  0  1  0  0  0  0  0  0  0  0  0
    9.7354  -18.3286   23.7494 C   0  0  0  0  0  0  0  0  0  0  0  0
    9.6865  -18.6781   25.1764 C   0  0  0  0  0  0  0  0  0  0  0  0
    9.9336  -17.8241   26.0484 O   0  0  0  0  0  0  0  0  0  0  0  0
    9.3395  -16.0448   24.4681 C   0  0  0  0  0  0  0  0  0  0  0  0
   10.5537  -15.6191   24.4638 O   0  0  0  0  0  0  0  0  0  0  0  0
    9.3525  -20.0021   25.4948 O   0  0  0  0  0  0  0  0  0  0  0  0
    6.1471  -11.8932   25.8378 C   0  0  0  0  0  0  0  0  0  0  0  0
    7.3265  -12.7687   25.5416 C   0  0  0  0  0  0  0  0  0  0  0  0
    7.8895  -13.4686   26.7370 C   0  0  2  0  0  0  0  0  0  0  0  0
    8.3777  -12.4907   27.7535 C   0  0  0  0  0  0  0  0  0  0  0  0
    8.9813  -14.4610   26.3942 C   0  0  2  0  0  0  0  0  0  0  0  0
    8.4981  -15.4533   25.4460 N   0  0  0  0  0  0  0  0  0  0  0  0
    9.3673  -15.1264   27.6607 C   0  0  0  0  0  0  0  0  0  0  0  0
   10.3114  -14.6284   28.5453 O   0  0  0  0  0  0  0  0  0  0  0  0
    8.8087  -16.2096   27.9585 O   0  0  0  0  0  0  0  0  0  0  0  0
  2  1  1  0
  3  2  2  0
  4  2  1  0
  5  4  1  0
  6  5  1  0
  6  8  1  0
  6  7  1  6
  8  9  2  0
 10  8  1  0
 10 11  1  0
 11 15  1  0
 11 12  1  6
 13 12  1  0
 14 13  2  0
 15 16  2  0
 17 13  1  0
 19 18  1  0
 19 20  1  0
 20 22  1  0
 20 21  1  1
 22 24  1  0
 22 23  1  6
 23 15  1  0
 24 26  2  0
 24 25  1  0
M  END
$$$$
