QDI.pdb
     RDKit          3D

 26 25  0  0  1  0  0  0  0  0999 V2000
    8.7755  -12.6798   17.8862 N   0  0  0  0  0  0  0  0  0  0  0  0
    7.8802  -13.6916   17.4141 C   0  0  0  0  0  0  0  0  0  0  0  0
    7.8158  -13.8961   16.1800 O   0  0  0  0  0  0  0  0  0  0  0  0
    7.0477  -14.4864   18.3252 C   0  0  0  0  0  0  0  0  0  0  0  0
    7.2064  -14.1153   19.7540 C   0  0  0  0  0  0  0  0  0  0  0  0
    8.5729  -14.3342   20.3042 C   0  0  2  0  0  0  0  0  0  0  0  0
    9.1844  -15.3885   19.5039 N   0  0  0  0  0  0  0  0  0  0  0  0
    8.4461  -14.9007   21.7052 C   0  0  0  0  0  0  0  0  0  0  0  0
    7.6055  -14.4242   22.4842 O   0  0  0  0  0  0  0  0  0  0  0  0
    9.2723  -15.9628   22.1330 N   0  0  0  0  0  0  0  0  0  0  0  0
    9.3512  -16.6101   23.3953 C   0  0  1  0  0  0  0  0  0  0  0  0
   10.1125  -17.9297   23.4174 C   0  0  0  0  0  0  0  0  0  0  0  0
   11.4057  -17.7582   22.7399 C   0  0  0  0  0  0  0  0  0  0  0  0
   11.4552  -17.4499   21.5343 O   0  0  0  0  0  0  0  0  0  0  0  0
    9.7616  -15.8020   24.5306 C   0  0  0  0  0  0  0  0  0  0  0  0
   10.8132  -15.0658   24.4428 O   0  0  0  0  0  0  0  0  0  0  0  0
   12.5587  -17.9577   23.5123 O   0  0  0  0  0  0  0  0  0  0  0  0
    6.4340  -12.4637   26.4697 C   0  0  0  0  0  0  0  0  0  0  0  0
    7.6833  -13.2089   26.1101 C   0  0  0  0  0  0  0  0  0  0  0  0
    8.3062  -13.9521   27.2482 C   0  0  2  0  0  0  0  0  0  0  0  0
    8.7118  -13.0210   28.3420 C   0  0  0  0  0  0  0  0  0  0  0  0
    9.4775  -14.8177   26.8321 C   0  0  2  0  0  0  0  0  0  0  0  0
    9.0879  -15.7422   25.7782 N   0  0  0  0  0  0  0  0  0  0  0  0
    9.8959  -15.5772   28.0337 C   0  0  0  0  0  0  0  0  0  0  0  0
    9.6036  -16.9150   28.2498 O   0  0  0  0  0  0  0  0  0  0  0  0
   10.5571  -14.9786   28.9162 O   0  0  0  0  0  0  0  0  0  0  0  0
  2  1  1  0
  3  2  2  0
  4  2  1  0
  5  4  1  0
  6  5  1  0
  6  8  1  0
  6  7  1  6
  8  9  2  0
 10  8  1  0
 10 11  1  0
 11 15  1  0
 11 12  1  6
 13 12  1  0
 14 13  2  0
 15 16  2  0
 17 13  1  0
 19 18  1  0
 19 20  1  0
 20 22  1  0
 20 21  1  1
 22 24  1  0
 22 23  1  6
 23 15  1  0
 24 26  2  0
 24 25  1  0
M  END
$$$$
