QDI.pdb
     RDKit          3D

 26 25  0  0  1  0  0  0  0  0999 V2000
    6.3526  -14.0499   16.5404 N   0  0  0  0  0  0  0  0  0  0  0  0
    7.5856  -14.7421   16.7612 C   0  0  0  0  0  0  0  0  0  0  0  0
    7.9101  -15.6447   15.9556 O   0  0  0  0  0  0  0  0  0  0  0  0
    8.4688  -14.4259   17.8902 C   0  0  0  0  0  0  0  0  0  0  0  0
    7.9274  -13.3815   18.7960 C   0  0  0  0  0  0  0  0  0  0  0  0
    8.7893  -13.0699   19.9698 C   0  0  2  0  0  0  0  0  0  0  0  0
   10.1712  -13.1935   19.5212 N   0  0  0  0  0  0  0  0  0  0  0  0
    8.5961  -14.1527   21.0138 C   0  0  0  0  0  0  0  0  0  0  0  0
    7.4756  -14.3214   21.5203 O   0  0  0  0  0  0  0  0  0  0  0  0
    9.6750  -14.9701   21.4157 N   0  0  0  0  0  0  0  0  0  0  0  0
    9.7532  -15.9385   22.4524 C   0  0  1  0  0  0  0  0  0  0  0  0
   10.7765  -17.0486   22.2470 C   0  0  0  0  0  0  0  0  0  0  0  0
   10.3923  -17.8564   21.0805 C   0  0  0  0  0  0  0  0  0  0  0  0
    9.1952  -18.1122   20.8514 O   0  0  0  0  0  0  0  0  0  0  0  0
    9.8498  -15.4451   23.8152 C   0  0  0  0  0  0  0  0  0  0  0  0
   10.9963  -15.1069   24.2915 O   0  0  0  0  0  0  0  0  0  0  0  0
   11.4296  -18.3145   20.2559 O   0  0  0  0  0  0  0  0  0  0  0  0
    6.2683  -11.9707   25.5991 C   0  0  0  0  0  0  0  0  0  0  0  0
    7.4750  -12.8179   25.3315 C   0  0  0  0  0  0  0  0  0  0  0  0
    7.7679  -13.8262   26.3961 C   0  0  2  0  0  0  0  0  0  0  0  0
    8.0116  -13.1650   27.7119 C   0  0  0  0  0  0  0  0  0  0  0  0
    8.9175  -14.7497   26.0499 C   0  0  2  0  0  0  0  0  0  0  0  0
    8.7583  -15.2925   24.7093 N   0  0  0  0  0  0  0  0  0  0  0  0
    8.8944  -15.8511   27.0410 C   0  0  0  0  0  0  0  0  0  0  0  0
    9.6434  -15.8645   28.2074 O   0  0  0  0  0  0  0  0  0  0  0  0
    8.1522  -16.8377   26.8175 O   0  0  0  0  0  0  0  0  0  0  0  0
  2  1  1  0
  3  2  2  0
  4  2  1  0
  5  4  1  0
  6  5  1  0
  6  8  1  0
  6  7  1  6
  8  9  2  0
 10  8  1  0
 10 11  1  0
 11 15  1  0
 11 12  1  6
 13 12  1  0
 14 13  2  0
 15 16  2  0
 17 13  1  0
 19 18  1  0
 19 20  1  0
 20 22  1  0
 20 21  1  1
 22 24  1  0
 22 23  1  6
 23 15  1  0
 24 26  2  0
 24 25  1  0
M  END
$$$$
