QDI.pdb
     RDKit          3D

 26 25  0  0  1  0  0  0  0  0999 V2000
    7.0499  -15.2779   15.9613 N   0  0  0  0  0  0  0  0  0  0  0  0
    8.0232  -14.3912   16.5223 C   0  0  0  0  0  0  0  0  0  0  0  0
    9.2313  -14.5993   16.2653 O   0  0  0  0  0  0  0  0  0  0  0  0
    7.6485  -13.2589   17.3781 C   0  0  0  0  0  0  0  0  0  0  0  0
    7.4341  -13.6315   18.7992 C   0  0  0  0  0  0  0  0  0  0  0  0
    8.6620  -13.6003   19.6414 C   0  0  2  0  0  0  0  0  0  0  0  0
    9.6669  -14.3984   18.9492 N   0  0  0  0  0  0  0  0  0  0  0  0
    8.3777  -14.3306   20.9397 C   0  0  0  0  0  0  0  0  0  0  0  0
    7.4656  -13.9300   21.6801 O   0  0  0  0  0  0  0  0  0  0  0  0
    9.1379  -15.4595   21.3155 N   0  0  0  0  0  0  0  0  0  0  0  0
    9.0685  -16.2616   22.4861 C   0  0  1  0  0  0  0  0  0  0  0  0
    9.8021  -17.5954   22.4207 C   0  0  0  0  0  0  0  0  0  0  0  0
    9.5189  -18.3681   23.6387 C   0  0  0  0  0  0  0  0  0  0  0  0
    8.3872  -18.3433   24.1579 O   0  0  0  0  0  0  0  0  0  0  0  0
    9.3651  -15.6142   23.7523 C   0  0  0  0  0  0  0  0  0  0  0  0
   10.5742  -15.2684   24.0242 O   0  0  0  0  0  0  0  0  0  0  0  0
   10.5744  -19.1206   24.1732 O   0  0  0  0  0  0  0  0  0  0  0  0
    6.0457  -11.8802   25.5837 C   0  0  0  0  0  0  0  0  0  0  0  0
    7.2002  -12.7727   25.2434 C   0  0  0  0  0  0  0  0  0  0  0  0
    7.6665  -13.6341   26.3731 C   0  0  2  0  0  0  0  0  0  0  0  0
    8.0971  -12.8073   27.5389 C   0  0  0  0  0  0  0  0  0  0  0  0
    8.7641  -14.6007   25.9791 C   0  0  2  0  0  0  0  0  0  0  0  0
    8.4121  -15.3127   24.7599 N   0  0  0  0  0  0  0  0  0  0  0  0
    8.9074  -15.5634   27.0964 C   0  0  0  0  0  0  0  0  0  0  0  0
    8.4933  -16.8854   27.0428 O   0  0  0  0  0  0  0  0  0  0  0  0
    9.4360  -15.1645   28.1620 O   0  0  0  0  0  0  0  0  0  0  0  0
  2  1  1  0
  3  2  2  0
  4  2  1  0
  5  4  1  0
  6  5  1  0
  6  8  1  0
  6  7  1  6
  8  9  2  0
 10  8  1  0
 10 11  1  0
 11 15  1  0
 11 12  1  6
 13 12  1  0
 14 13  2  0
 15 16  2  0
 17 13  1  0
 19 18  1  0
 19 20  1  0
 20 22  1  0
 20 21  1  1
 22 24  1  0
 22 23  1  6
 23 15  1  0
 24 26  2  0
 24 25  1  0
M  END
$$$$
