QDI.pdb
     RDKit          3D

 26 25  0  0  1  0  0  0  0  0999 V2000
    9.8155  -13.3657   19.7938 N   0  0  0  0  0  0  0  0  0  0  0  0
    8.7841  -13.0855   18.8420 C   0  0  0  0  0  0  0  0  0  0  0  0
    9.0908  -12.4513   17.8063 O   0  0  0  0  0  0  0  0  0  0  0  0
    7.3955  -13.5169   19.0435 C   0  0  0  0  0  0  0  0  0  0  0  0
    7.1903  -14.3033   20.2861 C   0  0  0  0  0  0  0  0  0  0  0  0
    7.5631  -15.7412   20.1796 C   0  0  2  0  0  0  0  0  0  0  0  0
    6.6583  -16.3390   19.2050 N   0  0  0  0  0  0  0  0  0  0  0  0
    7.2548  -16.4207   21.4998 C   0  0  0  0  0  0  0  0  0  0  0  0
    6.3440  -17.2620   21.5570 O   0  0  0  0  0  0  0  0  0  0  0  0
    7.9912  -16.1078   22.6631 N   0  0  0  0  0  0  0  0  0  0  0  0
    8.1698  -16.8506   23.8610 C   0  0  1  0  0  0  0  0  0  0  0  0
    8.6371  -18.2901   23.6853 C   0  0  0  0  0  0  0  0  0  0  0  0
    8.6217  -18.9705   24.9883 C   0  0  0  0  0  0  0  0  0  0  0  0
    8.7487  -18.3230   26.0445 O   0  0  0  0  0  0  0  0  0  0  0  0
    8.9397  -16.2239   24.9216 C   0  0  0  0  0  0  0  0  0  0  0  0
   10.2233  -16.3126   24.9160 O   0  0  0  0  0  0  0  0  0  0  0  0
    8.4592  -20.3631   24.9756 O   0  0  0  0  0  0  0  0  0  0  0  0
    6.5003  -11.7966   26.8855 C   0  0  0  0  0  0  0  0  0  0  0  0
    7.4537  -12.8140   26.3367 C   0  0  0  0  0  0  0  0  0  0  0  0
    8.3231  -13.4617   27.3664 C   0  0  2  0  0  0  0  0  0  0  0  0
    9.1682  -12.4523   28.0701 C   0  0  0  0  0  0  0  0  0  0  0  0
    9.1862  -14.5754   26.8106 C   0  0  2  0  0  0  0  0  0  0  0  0
    8.3919  -15.4927   26.0076 N   0  0  0  0  0  0  0  0  0  0  0  0
    9.7569  -15.2950   27.9735 C   0  0  0  0  0  0  0  0  0  0  0  0
   10.9749  -14.9858   28.5590 O   0  0  0  0  0  0  0  0  0  0  0  0
    9.1022  -16.2456   28.4653 O   0  0  0  0  0  0  0  0  0  0  0  0
  2  1  1  0
  3  2  2  0
  4  2  1  0
  5  4  1  0
  6  5  1  0
  6  8  1  0
  6  7  1  6
  8  9  2  0
 10  8  1  0
 10 11  1  0
 11 15  1  0
 11 12  1  6
 13 12  1  0
 14 13  2  0
 15 16  2  0
 17 13  1  0
 19 18  1  0
 19 20  1  0
 20 22  1  0
 20 21  1  6
 22 24  1  0
 22 23  1  1
 23 15  1  0
 24 26  2  0
 24 25  1  0
M  END
$$$$
