QDI.pdb
     RDKit          3D

 26 25  0  0  1  0  0  0  0  0999 V2000
    6.7249  -13.3877   16.0985 N   0  0  0  0  0  0  0  0  0  0  0  0
    7.7620  -14.3563   16.2845 C   0  0  0  0  0  0  0  0  0  0  0  0
    7.8428  -15.3014   15.4664 O   0  0  0  0  0  0  0  0  0  0  0  0
    8.7213  -14.2722   17.3923 C   0  0  0  0  0  0  0  0  0  0  0  0
    8.4255  -13.1813   18.3551 C   0  0  0  0  0  0  0  0  0  0  0  0
    9.3526  -13.1117   19.5186 C   0  0  2  0  0  0  0  0  0  0  0  0
   10.5875  -13.7718   19.1122 N   0  0  0  0  0  0  0  0  0  0  0  0
    8.7839  -13.9563   20.6425 C   0  0  0  0  0  0  0  0  0  0  0  0
    7.6603  -13.6915   21.0986 O   0  0  0  0  0  0  0  0  0  0  0  0
    9.5170  -15.0390   21.1751 N   0  0  0  0  0  0  0  0  0  0  0  0
    9.1981  -15.9258   22.2384 C   0  0  1  0  0  0  0  0  0  0  0  0
    9.6628  -17.3661   22.0627 C   0  0  0  0  0  0  0  0  0  0  0  0
    9.1907  -18.1728   23.1973 C   0  0  0  0  0  0  0  0  0  0  0  0
    9.5935  -17.9411   24.3527 O   0  0  0  0  0  0  0  0  0  0  0  0
    9.5093  -15.4839   23.5867 C   0  0  0  0  0  0  0  0  0  0  0  0
   10.7365  -15.3196   23.9369 O   0  0  0  0  0  0  0  0  0  0  0  0
    8.2787  -19.1986   22.9112 O   0  0  0  0  0  0  0  0  0  0  0  0
    5.7789  -12.8582   27.1010 C   0  0  0  0  0  0  0  0  0  0  0  0
    6.6013  -13.7753   26.2479 C   0  0  0  0  0  0  0  0  0  0  0  0
    8.0665  -13.4774   26.2586 C   0  0  2  0  0  0  0  0  0  0  0  0
    8.3877  -12.3212   25.3709 C   0  0  0  0  0  0  0  0  0  0  0  0
    8.9258  -14.6719   25.8990 C   0  0  2  0  0  0  0  0  0  0  0  0
    8.5528  -15.2033   24.5968 N   0  0  0  0  0  0  0  0  0  0  0  0
    8.6912  -15.6970   26.9430 C   0  0  0  0  0  0  0  0  0  0  0  0
    7.9869  -16.8728   26.7350 O   0  0  0  0  0  0  0  0  0  0  0  0
    9.1565  -15.4955   28.0906 O   0  0  0  0  0  0  0  0  0  0  0  0
  2  1  1  0
  3  2  2  0
  4  2  1  0
  5  4  1  0
  6  5  1  0
  6  8  1  0
  6  7  1  6
  8  9  2  0
 10  8  1  0
 10 11  1  0
 11 15  1  0
 11 12  1  6
 13 12  1  0
 14 13  2  0
 15 16  2  0
 17 13  1  0
 19 18  1  0
 19 20  1  0
 20 22  1  0
 20 21  1  6
 22 24  1  0
 22 23  1  6
 23 15  1  0
 24 26  2  0
 24 25  1  0
M  END
$$$$
