QDI.pdb
     RDKit          3D

 26 25  0  0  1  0  0  0  0  0999 V2000
    8.5406  -14.0185   15.5589 N   0  0  0  0  0  0  0  0  0  0  0  0
    7.6893  -14.2688   16.6819 C   0  0  0  0  0  0  0  0  0  0  0  0
    7.3233  -15.4474   16.8960 O   0  0  0  0  0  0  0  0  0  0  0  0
    7.2410  -13.1961   17.5780 C   0  0  0  0  0  0  0  0  0  0  0  0
    7.1718  -13.6015   19.0046 C   0  0  0  0  0  0  0  0  0  0  0  0
    8.4759  -13.5694   19.7231 C   0  0  2  0  0  0  0  0  0  0  0  0
    9.3971  -14.4028   18.9596 N   0  0  0  0  0  0  0  0  0  0  0  0
    8.3082  -14.2603   21.0626 C   0  0  0  0  0  0  0  0  0  0  0  0
    7.4628  -13.8380   21.8673 O   0  0  0  0  0  0  0  0  0  0  0  0
    9.1017  -15.3770   21.4044 N   0  0  0  0  0  0  0  0  0  0  0  0
    9.1569  -16.1263   22.6103 C   0  0  1  0  0  0  0  0  0  0  0  0
    9.9501  -17.4257   22.5480 C   0  0  0  0  0  0  0  0  0  0  0  0
    9.2459  -18.3863   21.6865 C   0  0  0  0  0  0  0  0  0  0  0  0
    8.1179  -18.1218   21.2298 O   0  0  0  0  0  0  0  0  0  0  0  0
    9.5105  -15.4077   23.8222 C   0  0  0  0  0  0  0  0  0  0  0  0
   10.7243  -15.0212   24.0036 O   0  0  0  0  0  0  0  0  0  0  0  0
    9.9028  -19.5944   21.4130 O   0  0  0  0  0  0  0  0  0  0  0  0
    5.8417  -12.5164   27.1374 C   0  0  0  0  0  0  0  0  0  0  0  0
    6.7117  -13.6210   26.6195 C   0  0  0  0  0  0  0  0  0  0  0  0
    8.1381  -13.2298   26.3998 C   0  0  2  0  0  0  0  0  0  0  0  0
    8.2533  -12.1868   25.3383 C   0  0  0  0  0  0  0  0  0  0  0  0
    9.0420  -14.4037   26.0848 C   0  0  2  0  0  0  0  0  0  0  0  0
    8.6108  -15.0758   24.8684 N   0  0  0  0  0  0  0  0  0  0  0  0
    8.9465  -15.3367   27.2320 C   0  0  0  0  0  0  0  0  0  0  0  0
    9.5030  -15.0969   28.4788 O   0  0  0  0  0  0  0  0  0  0  0  0
    8.3241  -16.4144   27.0728 O   0  0  0  0  0  0  0  0  0  0  0  0
  2  1  1  0
  3  2  2  0
  4  2  1  0
  5  4  1  0
  6  5  1  0
  6  8  1  0
  6  7  1  6
  8  9  2  0
 10  8  1  0
 10 11  1  0
 11 15  1  0
 11 12  1  6
 13 12  1  0
 14 13  2  0
 15 16  2  0
 17 13  1  0
 19 18  1  0
 19 20  1  0
 20 22  1  0
 20 21  1  6
 22 24  1  0
 22 23  1  6
 23 15  1  0
 24 26  2  0
 24 25  1  0
M  END
$$$$
