QDI.pdb
     RDKit          3D

 26 25  0  0  1  0  0  0  0  0999 V2000
    7.9210  -15.8138   17.0033 N   0  0  0  0  0  0  0  0  0  0  0  0
    7.9450  -14.4808   16.4832 C   0  0  0  0  0  0  0  0  0  0  0  0
    8.1227  -14.3287   15.2526 O   0  0  0  0  0  0  0  0  0  0  0  0
    7.7678  -13.3030   17.3413 C   0  0  0  0  0  0  0  0  0  0  0  0
    7.4183  -13.6360   18.7454 C   0  0  0  0  0  0  0  0  0  0  0  0
    8.4969  -13.3626   19.7352 C   0  0  2  0  0  0  0  0  0  0  0  0
    9.7262  -13.9181   19.1817 N   0  0  0  0  0  0  0  0  0  0  0  0
    8.2135  -14.1604   20.9933 C   0  0  0  0  0  0  0  0  0  0  0  0
    7.1593  -13.9637   21.6182 O   0  0  0  0  0  0  0  0  0  0  0  0
    9.1341  -15.1232   21.4614 N   0  0  0  0  0  0  0  0  0  0  0  0
    9.0469  -16.0120   22.5664 C   0  0  1  0  0  0  0  0  0  0  0  0
    9.7489  -17.3534   22.3956 C   0  0  0  0  0  0  0  0  0  0  0  0
   11.0922  -17.1338   21.8406 C   0  0  0  0  0  0  0  0  0  0  0  0
   11.3210  -16.1615   21.0968 O   0  0  0  0  0  0  0  0  0  0  0  0
    9.3597  -15.4721   23.8783 C   0  0  0  0  0  0  0  0  0  0  0  0
   10.4954  -14.9017   24.0791 O   0  0  0  0  0  0  0  0  0  0  0  0
   12.0829  -18.0629   22.1887 O   0  0  0  0  0  0  0  0  0  0  0  0
    6.2520  -12.0131   25.9942 C   0  0  0  0  0  0  0  0  0  0  0  0
    7.4106  -12.8974   25.6466 C   0  0  0  0  0  0  0  0  0  0  0  0
    7.7468  -13.9115   26.6927 C   0  0  2  0  0  0  0  0  0  0  0  0
    8.1077  -13.2546   27.9836 C   0  0  0  0  0  0  0  0  0  0  0  0
    8.8369  -14.8741   26.2690 C   0  0  2  0  0  0  0  0  0  0  0  0
    8.4993  -15.5132   25.0062 N   0  0  0  0  0  0  0  0  0  0  0  0
    8.9413  -15.8979   27.3352 C   0  0  0  0  0  0  0  0  0  0  0  0
    9.8091  -15.8138   28.4129 O   0  0  0  0  0  0  0  0  0  0  0  0
    8.2004  -16.9081   27.2651 O   0  0  0  0  0  0  0  0  0  0  0  0
  2  1  1  0
  3  2  2  0
  4  2  1  0
  5  4  1  0
  6  5  1  0
  6  8  1  0
  6  7  1  6
  8  9  2  0
 10  8  1  0
 10 11  1  0
 11 15  1  0
 11 12  1  6
 13 12  1  0
 14 13  2  0
 15 16  2  0
 17 13  1  0
 19 18  1  0
 19 20  1  0
 20 22  1  0
 20 21  1  1
 22 24  1  0
 22 23  1  6
 23 15  1  0
 24 26  2  0
 24 25  1  0
M  END
$$$$
