QDI.pdb
     RDKit          3D

 26 25  0  0  1  0  0  0  0  0999 V2000
    7.4912  -15.7550   17.5431 N   0  0  0  0  0  0  0  0  0  0  0  0
    7.5348  -14.3746   17.1681 C   0  0  0  0  0  0  0  0  0  0  0  0
    7.4847  -14.0905   15.9492 O   0  0  0  0  0  0  0  0  0  0  0  0
    7.6339  -13.2973   18.1603 C   0  0  0  0  0  0  0  0  0  0  0  0
    7.5611  -13.7724   19.5650 C   0  0  0  0  0  0  0  0  0  0  0  0
    8.8458  -13.6945   20.3143 C   0  0  2  0  0  0  0  0  0  0  0  0
    9.8397  -14.4064   19.5196 N   0  0  0  0  0  0  0  0  0  0  0  0
    8.7046  -14.4836   21.6016 C   0  0  0  0  0  0  0  0  0  0  0  0
    7.8085  -14.1854   22.4069 O   0  0  0  0  0  0  0  0  0  0  0  0
    9.5798  -15.5523   21.8940 N   0  0  0  0  0  0  0  0  0  0  0  0
    9.7040  -16.3380   23.0712 C   0  0  1  0  0  0  0  0  0  0  0  0
   10.6019  -17.5638   22.9588 C   0  0  0  0  0  0  0  0  0  0  0  0
   10.2055  -18.3525   21.7833 C   0  0  0  0  0  0  0  0  0  0  0  0
    9.0110  -18.6460   21.5886 O   0  0  0  0  0  0  0  0  0  0  0  0
   10.0040  -15.6372   24.3078 C   0  0  0  0  0  0  0  0  0  0  0  0
   11.1464  -15.0639   24.4552 O   0  0  0  0  0  0  0  0  0  0  0  0
   11.2285  -18.7487   20.9101 O   0  0  0  0  0  0  0  0  0  0  0  0
    6.5269  -12.2446   26.1312 C   0  0  0  0  0  0  0  0  0  0  0  0
    7.7451  -13.0553   25.8086 C   0  0  0  0  0  0  0  0  0  0  0  0
    8.3020  -13.8180   26.9678 C   0  0  2  0  0  0  0  0  0  0  0  0
    8.7066  -12.8995   28.0726 C   0  0  0  0  0  0  0  0  0  0  0  0
    9.4527  -14.7284   26.5919 C   0  0  2  0  0  0  0  0  0  0  0  0
    9.1236  -15.5175   25.4145 N   0  0  0  0  0  0  0  0  0  0  0  0
    9.6822  -15.6269   27.7476 C   0  0  0  0  0  0  0  0  0  0  0  0
   10.5121  -15.3245   28.8160 O   0  0  0  0  0  0  0  0  0  0  0  0
    9.0915  -16.7336   27.7679 O   0  0  0  0  0  0  0  0  0  0  0  0
  2  1  1  0
  3  2  2  0
  4  2  1  0
  5  4  1  0
  6  5  1  0
  6  8  1  0
  6  7  1  6
  8  9  2  0
 10  8  1  0
 10 11  1  0
 11 15  1  0
 11 12  1  6
 13 12  1  0
 14 13  2  0
 15 16  2  0
 17 13  1  0
 19 18  1  0
 19 20  1  0
 20 22  1  0
 20 21  1  1
 22 24  1  0
 22 23  1  6
 23 15  1  0
 24 26  2  0
 24 25  1  0
M  END
$$$$
