MQI.pdb
     RDKit          3D

 26 25  0  0  1  0  0  0  0  0999 V2000
   27.6134  -17.3124  -17.2940 C   0  0  0  0  0  0  0  0  0  0  0  0
   28.6195  -18.4378  -18.3178 S   0  0  0  0  0  0  0  0  0  0  0  0
   28.8348  -20.0368  -17.4777 C   0  0  0  0  0  0  0  0  0  0  0  0
   27.5194  -20.3685  -16.8111 C   0  0  0  0  0  0  0  0  0  0  0  0
   27.6398  -21.6385  -15.9669 C   0  0  2  0  0  0  0  0  0  0  0  0
   27.7109  -22.7354  -16.9106 N   0  0  0  0  0  0  0  0  0  0  0  0
   26.3924  -21.7217  -15.1654 C   0  0  0  0  0  0  0  0  0  0  0  0
   25.3822  -22.2628  -15.6789 O   0  0  0  0  0  0  0  0  0  0  0  0
   25.7764  -20.6779   -9.0091 N   0  0  0  0  0  0  0  0  0  0  0  0
   24.4144  -20.8583   -9.3745 C   0  0  0  0  0  0  0  0  0  0  0  0
   23.5540  -20.8450   -8.4645 O   0  0  0  0  0  0  0  0  0  0  0  0
   24.0968  -21.0495  -10.7977 C   0  0  0  0  0  0  0  0  0  0  0  0
   25.3877  -21.0497  -11.6108 C   0  0  0  0  0  0  0  0  0  0  0  0
   25.0707  -21.2524  -13.0928 C   0  0  2  0  0  0  0  0  0  0  0  0
   26.2978  -21.2138  -13.8419 N   0  0  0  0  0  0  0  0  0  0  0  0
   24.0896  -20.2480  -13.5374 C   0  0  0  0  0  0  0  0  0  0  0  0
   24.4150  -19.0283  -13.4915 O   0  0  0  0  0  0  0  0  0  0  0  0
   22.9179  -19.0979  -18.1452 C   0  0  0  0  0  0  0  0  0  0  0  0
   23.0419  -19.1341  -16.6470 C   0  0  0  0  0  0  0  0  0  0  0  0
   21.7679  -19.3926  -15.9284 C   0  0  2  0  0  0  0  0  0  0  0  0
   20.6902  -18.3752  -16.2929 C   0  0  0  0  0  0  0  0  0  0  0  0
   21.8366  -19.5434  -14.4570 C   0  0  2  0  0  0  0  0  0  0  0  0
   22.7914  -20.5474  -14.0188 N   0  0  0  0  0  0  0  0  0  0  0  0
   20.5337  -19.7568  -13.8207 C   0  0  0  0  0  0  0  0  0  0  0  0
   20.0925  -20.9094  -13.6540 O   0  0  0  0  0  0  0  0  0  0  0  0
   19.7839  -18.6783  -13.4021 O   0  0  0  0  0  0  0  0  0  0  0  0
  2  1  1  0
  3  2  1  0
  4  5  1  0
  4  3  1  0
  5  7  1  0
  5  6  1  6
  7  8  2  0
 10 12  1  0
 10  9  1  0
 11 10  2  0
 13 12  1  0
 14 13  1  1
 15 14  1  0
 15  7  1  0
 16 14  1  0
 16 17  2  0
 19 18  1  0
 19 20  1  0
 20 22  1  0
 20 21  1  1
 22 23  1  6
 22 24  1  0
 23 16  1  0
 24 25  2  0
 24 26  1  0
M  END
$$$$
