MQI.pdb
     RDKit          3D

 26 25  0  0  1  0  0  0  0  0999 V2000
   32.4104  -22.0988  -11.8141 C   0  0  0  0  0  0  0  0  0  0  0  0
   32.5582  -23.6093  -12.8258 S   0  0  0  0  0  0  0  0  0  0  0  0
   31.6196  -23.4298  -14.3735 C   0  0  0  0  0  0  0  0  0  0  0  0
   30.5392  -22.4032  -14.1208 C   0  0  0  0  0  0  0  0  0  0  0  0
   29.6343  -22.2500  -15.3446 C   0  0  2  0  0  0  0  0  0  0  0  0
   30.4443  -21.6035  -16.3569 N   0  0  0  0  0  0  0  0  0  0  0  0
   28.5194  -21.3630  -14.9256 C   0  0  0  0  0  0  0  0  0  0  0  0
   28.7228  -20.1249  -14.8726 O   0  0  0  0  0  0  0  0  0  0  0  0
   22.5589  -22.3039  -14.8602 N   0  0  0  0  0  0  0  0  0  0  0  0
   22.5629  -21.0083  -14.2752 C   0  0  0  0  0  0  0  0  0  0  0  0
   21.4766  -20.5495  -13.8533 O   0  0  0  0  0  0  0  0  0  0  0  0
   23.8408  -20.2843  -14.2000 C   0  0  0  0  0  0  0  0  0  0  0  0
   24.9431  -21.1329  -14.8265 C   0  0  0  0  0  0  0  0  0  0  0  0
   26.2214  -21.0247  -13.9944 C   0  0  2  0  0  0  0  0  0  0  0  0
   27.2333  -21.8601  -14.5831 N   0  0  0  0  0  0  0  0  0  0  0  0
   25.9354  -21.3644  -12.5902 C   0  0  0  0  0  0  0  0  0  0  0  0
   25.7985  -22.5818  -12.2820 O   0  0  0  0  0  0  0  0  0  0  0  0
   26.8689  -19.5838   -6.7662 C   0  0  0  0  0  0  0  0  0  0  0  0
   26.0608  -20.3967   -7.7395 C   0  0  0  0  0  0  0  0  0  0  0  0
   26.2417  -20.0135   -9.1630 C   0  0  2  0  0  0  0  0  0  0  0  0
   26.0509  -18.5147   -9.3795 C   0  0  0  0  0  0  0  0  0  0  0  0
   25.4652  -20.7677  -10.1733 C   0  0  2  0  0  0  0  0  0  0  0  0
   25.7999  -20.4192  -11.5438 N   0  0  0  0  0  0  0  0  0  0  0  0
   24.0151  -20.7170   -9.9667 C   0  0  0  0  0  0  0  0  0  0  0  0
   23.3043  -19.9602  -10.6545 O   0  0  0  0  0  0  0  0  0  0  0  0
   23.4259  -21.5089   -9.0042 O   0  0  0  0  0  0  0  0  0  0  0  0
  2  1  1  0
  3  2  1  0
  4  5  1  0
  4  3  1  0
  5  7  1  0
  5  6  1  6
  7  8  2  0
 10 12  1  0
 10  9  1  0
 11 10  2  0
 13 12  1  0
 14 13  1  6
 15 14  1  0
 15  7  1  0
 16 14  1  0
 16 17  2  0
 19 18  1  0
 19 20  1  0
 20 22  1  0
 20 21  1  1
 22 23  1  6
 22 24  1  0
 23 16  1  0
 24 25  2  0
 24 26  1  0
M  END
$$$$
