MQI.pdb
     RDKit          3D

 26 25  0  0  1  0  0  0  0  0999 V2000
   26.7943  -15.8492  -16.3636 C   0  0  0  0  0  0  0  0  0  0  0  0
   27.6776  -17.0237  -17.4438 S   0  0  0  0  0  0  0  0  0  0  0  0
   28.1124  -18.5298  -16.5211 C   0  0  0  0  0  0  0  0  0  0  0  0
   26.8157  -19.2096  -16.1450 C   0  0  0  0  0  0  0  0  0  0  0  0
   27.0720  -20.4024  -15.2222 C   0  0  2  0  0  0  0  0  0  0  0  0
   27.6668  -21.4269  -16.0561 N   0  0  0  0  0  0  0  0  0  0  0  0
   25.7400  -20.8391  -14.7318 C   0  0  0  0  0  0  0  0  0  0  0  0
   25.0674  -21.6286  -15.4397 O   0  0  0  0  0  0  0  0  0  0  0  0
   23.7762  -20.7436   -8.8256 N   0  0  0  0  0  0  0  0  0  0  0  0
   22.5870  -21.1820   -9.4693 C   0  0  0  0  0  0  0  0  0  0  0  0
   21.6259  -21.5396   -8.7503 O   0  0  0  0  0  0  0  0  0  0  0  0
   22.5557  -21.1897  -10.9396 C   0  0  0  0  0  0  0  0  0  0  0  0
   23.9212  -20.7751  -11.4791 C   0  0  0  0  0  0  0  0  0  0  0  0
   23.9285  -20.8654  -13.0055 C   0  0  2  0  0  0  0  0  0  0  0  0
   25.1981  -20.3991  -13.4943 N   0  0  0  0  0  0  0  0  0  0  0  0
   22.7860  -20.1175  -13.5572 C   0  0  0  0  0  0  0  0  0  0  0  0
   22.8250  -18.8551  -13.5315 O   0  0  0  0  0  0  0  0  0  0  0  0
   21.6853  -18.9821  -17.3504 C   0  0  0  0  0  0  0  0  0  0  0  0
   21.1172  -20.3550  -17.1188 C   0  0  0  0  0  0  0  0  0  0  0  0
   20.1106  -20.4305  -16.0292 C   0  0  2  0  0  0  0  0  0  0  0  0
   18.7917  -19.7714  -16.4236 C   0  0  0  0  0  0  0  0  0  0  0  0
   20.5247  -19.9584  -14.6883 C   0  0  2  0  0  0  0  0  0  0  0  0
   21.6307  -20.7117  -14.1219 N   0  0  0  0  0  0  0  0  0  0  0  0
   19.4223  -19.8581  -13.7278 C   0  0  0  0  0  0  0  0  0  0  0  0
   18.8696  -18.7632  -13.5113 O   0  0  0  0  0  0  0  0  0  0  0  0
   18.9890  -20.9797  -13.0532 O   0  0  0  0  0  0  0  0  0  0  0  0
  2  1  1  0
  3  2  1  0
  4  5  1  0
  4  3  1  0
  5  7  1  0
  5  6  1  6
  7  8  2  0
 10 12  1  0
 10  9  1  0
 11 10  2  0
 13 12  1  0
 14 13  1  1
 15 14  1  0
 15  7  1  0
 16 14  1  0
 16 17  2  0
 19 18  1  0
 19 20  1  0
 20 22  1  0
 20 21  1  6
 22 23  1  1
 22 24  1  0
 23 16  1  0
 24 25  2  0
 24 26  1  0
M  END
$$$$
