MQI.pdb
     RDKit          3D

 26 25  0  0  1  0  0  0  0  0999 V2000
   14.2466   -9.9252  -19.8045 C   0  0  0  0  0  0  0  0  0  0  0  0
   15.5221  -10.3223  -21.0464 S   0  0  0  0  0  0  0  0  0  0  0  0
   17.1406  -10.5399  -20.2455 C   0  0  0  0  0  0  0  0  0  0  0  0
   16.8785  -10.8099  -18.7815 C   0  0  0  0  0  0  0  0  0  0  0  0
   18.1889  -11.0315  -18.0238 C   0  0  2  0  0  0  0  0  0  0  0  0
   18.0881  -12.3524  -17.4373 N   0  0  0  0  0  0  0  0  0  0  0  0
   18.2334   -9.9933  -16.9630 C   0  0  0  0  0  0  0  0  0  0  0  0
   17.4751  -10.1151  -15.9696 O   0  0  0  0  0  0  0  0  0  0  0  0
   22.8526   -6.8483  -14.6276 N   0  0  0  0  0  0  0  0  0  0  0  0
   21.7982   -6.0152  -14.1640 C   0  0  0  0  0  0  0  0  0  0  0  0
   22.0890   -5.0713  -13.3939 O   0  0  0  0  0  0  0  0  0  0  0  0
   20.4301   -6.3106  -14.6154 C   0  0  0  0  0  0  0  0  0  0  0  0
   20.4605   -7.4750  -15.6007 C   0  0  0  0  0  0  0  0  0  0  0  0
   19.0413   -7.8005  -16.0677 C   0  0  2  0  0  0  0  0  0  0  0  0
   19.0999   -8.8692  -17.0283 N   0  0  0  0  0  0  0  0  0  0  0  0
   18.3954   -6.5854  -16.5925 C   0  0  0  0  0  0  0  0  0  0  0  0
   18.7219   -6.1804  -17.7436 O   0  0  0  0  0  0  0  0  0  0  0  0
   13.3266   -5.9790  -17.5360 C   0  0  0  0  0  0  0  0  0  0  0  0
   14.8230   -5.8346  -17.4997 C   0  0  0  0  0  0  0  0  0  0  0  0
   15.3182   -4.7691  -16.5911 C   0  0  2  0  0  0  0  0  0  0  0  0
   14.7089   -3.4091  -16.9204 C   0  0  0  0  0  0  0  0  0  0  0  0
   16.7848   -4.6361  -16.4363 C   0  0  2  0  0  0  0  0  0  0  0  0
   17.4233   -5.8250  -15.8972 N   0  0  0  0  0  0  0  0  0  0  0  0
   17.1972   -3.4444  -15.6894 C   0  0  0  0  0  0  0  0  0  0  0  0
   17.3356   -3.4896  -14.4526 O   0  0  0  0  0  0  0  0  0  0  0  0
   17.4340   -2.2599  -16.3539 O   0  0  0  0  0  0  0  0  0  0  0  0
  2  1  1  0
  3  2  1  0
  4  5  1  0
  4  3  1  0
  5  7  1  0
  5  6  1  1
  7  8  2  0
 10 12  1  0
 10  9  1  0
 11 10  2  0
 13 12  1  0
 14 13  1  6
 15 14  1  0
 15  7  1  0
 16 14  1  0
 16 17  2  0
 19 18  1  0
 19 20  1  0
 20 22  1  0
 20 21  1  6
 22 23  1  1
 22 24  1  0
 23 16  1  0
 24 25  2  0
 24 26  1  0
M  END
$$$$
