MQI.pdb
     RDKit          3D

 26 25  0  0  1  0  0  0  0  0999 V2000
   19.5435  -19.7924   -9.8751 C   0  0  0  0  0  0  0  0  0  0  0  0
   19.2727  -19.5348  -11.6603 S   0  0  0  0  0  0  0  0  0  0  0  0
   20.8574  -19.5662  -12.5528 C   0  0  0  0  0  0  0  0  0  0  0  0
   21.8490  -20.2897  -11.6708 C   0  0  0  0  0  0  0  0  0  0  0  0
   23.2503  -20.2574  -12.2836 C   0  0  2  0  0  0  0  0  0  0  0  0
   23.1576  -21.0033  -13.5221 N   0  0  0  0  0  0  0  0  0  0  0  0
   24.1387  -20.9562  -11.3205 C   0  0  0  0  0  0  0  0  0  0  0  0
   23.7933  -22.0855  -10.8935 O   0  0  0  0  0  0  0  0  0  0  0  0
   29.7969  -22.1632  -11.6883 N   0  0  0  0  0  0  0  0  0  0  0  0
   29.2199  -20.9564  -12.1695 C   0  0  0  0  0  0  0  0  0  0  0  0
   29.8490  -20.3079  -13.0368 O   0  0  0  0  0  0  0  0  0  0  0  0
   27.9200  -20.5414  -11.6210 C   0  0  0  0  0  0  0  0  0  0  0  0
   27.4636  -21.5534  -10.5745 C   0  0  0  0  0  0  0  0  0  0  0  0
   26.1895  -21.0574   -9.8899 C   0  0  2  0  0  0  0  0  0  0  0  0
   25.3629  -20.3976  -10.8644 N   0  0  0  0  0  0  0  0  0  0  0  0
   26.5375  -20.1954   -8.7475 C   0  0  0  0  0  0  0  0  0  0  0  0
   26.0973  -19.0115   -8.7317 O   0  0  0  0  0  0  0  0  0  0  0  0
   28.6097  -22.2403   -3.7487 C   0  0  0  0  0  0  0  0  0  0  0  0
   27.7385  -21.4738   -4.7051 C   0  0  0  0  0  0  0  0  0  0  0  0
   28.4437  -20.4106   -5.4656 C   0  0  2  0  0  0  0  0  0  0  0  0
   29.0797  -19.3746   -4.5428 C   0  0  0  0  0  0  0  0  0  0  0  0
   27.6862  -19.7269   -6.5386 C   0  0  2  0  0  0  0  0  0  0  0  0
   27.3386  -20.5962   -7.6501 N   0  0  0  0  0  0  0  0  0  0  0  0
   28.3209  -18.4978   -7.0228 C   0  0  0  0  0  0  0  0  0  0  0  0
   28.0141  -17.3934   -6.5359 O   0  0  0  0  0  0  0  0  0  0  0  0
   29.2648  -18.5563   -8.0260 O   0  0  0  0  0  0  0  0  0  0  0  0
  2  1  1  0
  3  2  1  0
  4  5  1  0
  4  3  1  0
  5  7  1  0
  5  6  1  6
  7  8  2  0
 10 12  1  0
 10  9  1  0
 11 10  2  0
 13 12  1  0
 14 13  1  6
 15 14  1  0
 15  7  1  0
 16 14  1  0
 16 17  2  0
 19 18  1  0
 19 20  1  0
 20 22  1  0
 20 21  1  1
 22 23  1  6
 22 24  1  0
 23 16  1  0
 24 25  2  0
 24 26  1  0
M  END
$$$$
