MQI.pdb
     RDKit          3D

 26 25  0  0  1  0  0  0  0  0999 V2000
   29.0378  -21.4053   -9.5299 C   0  0  0  0  0  0  0  0  0  0  0  0
   30.4408  -21.2502  -10.6851 S   0  0  0  0  0  0  0  0  0  0  0  0
   29.8769  -21.4713  -12.4003 C   0  0  0  0  0  0  0  0  0  0  0  0
   28.5615  -20.7385  -12.5328 C   0  0  0  0  0  0  0  0  0  0  0  0
   27.9377  -20.9804  -13.9085 C   0  0  2  0  0  0  0  0  0  0  0  0
   28.9293  -20.5511  -14.8735 N   0  0  0  0  0  0  0  0  0  0  0  0
   26.7357  -20.1110  -13.9758 C   0  0  0  0  0  0  0  0  0  0  0  0
   26.8941  -18.8778  -14.1516 O   0  0  0  0  0  0  0  0  0  0  0  0
   24.4007  -18.8204  -18.2837 N   0  0  0  0  0  0  0  0  0  0  0  0
   23.2612  -18.3548  -17.5725 C   0  0  0  0  0  0  0  0  0  0  0  0
   22.4296  -17.6503  -18.1893 O   0  0  0  0  0  0  0  0  0  0  0  0
   23.1266  -18.7275  -16.1562 C   0  0  0  0  0  0  0  0  0  0  0  0
   24.3565  -19.5176  -15.7196 C   0  0  0  0  0  0  0  0  0  0  0  0
   24.2596  -19.8534  -14.2310 C   0  0  2  0  0  0  0  0  0  0  0  0
   25.4151  -20.6198  -13.8494 N   0  0  0  0  0  0  0  0  0  0  0  0
   22.9892  -20.5457  -13.9552 C   0  0  0  0  0  0  0  0  0  0  0  0
   22.8667  -21.7472  -14.3253 O   0  0  0  0  0  0  0  0  0  0  0  0
   20.9375  -19.5965   -9.0324 C   0  0  0  0  0  0  0  0  0  0  0  0
   21.3989  -20.1981  -10.3311 C   0  0  0  0  0  0  0  0  0  0  0  0
   20.3598  -20.2489  -11.3911 C   0  0  2  0  0  0  0  0  0  0  0  0
   19.1194  -21.0146  -10.9386 C   0  0  0  0  0  0  0  0  0  0  0  0
   20.7785  -20.7215  -12.7305 C   0  0  2  0  0  0  0  0  0  0  0  0
   21.8788  -19.9608  -13.2983 N   0  0  0  0  0  0  0  0  0  0  0  0
   19.6776  -20.8336  -13.6914 C   0  0  0  0  0  0  0  0  0  0  0  0
   19.3715  -19.8694  -14.4178 O   0  0  0  0  0  0  0  0  0  0  0  0
   18.9693  -22.0117  -13.7968 O   0  0  0  0  0  0  0  0  0  0  0  0
  2  1  1  0
  3  2  1  0
  4  5  1  0
  4  3  1  0
  5  7  1  0
  5  6  1  6
  7  8  2  0
 10 12  1  0
 10  9  1  0
 11 10  2  0
 13 12  1  0
 14 13  1  6
 15 14  1  0
 15  7  1  0
 16 14  1  0
 16 17  2  0
 19 18  1  0
 19 20  1  0
 20 22  1  0
 20 21  1  1
 22 23  1  6
 22 24  1  0
 23 16  1  0
 24 25  2  0
 24 26  1  0
M  END
$$$$
