MQI.pdb
     RDKit          3D

 26 25  0  0  1  0  0  0  0  0999 V2000
   28.3321  -16.3983  -15.9942 C   0  0  0  0  0  0  0  0  0  0  0  0
   27.8026  -16.6600  -17.7199 S   0  0  0  0  0  0  0  0  0  0  0  0
   26.8921  -18.2273  -17.8727 C   0  0  0  0  0  0  0  0  0  0  0  0
   26.1203  -18.4193  -16.5873 C   0  0  0  0  0  0  0  0  0  0  0  0
   26.8902  -19.3167  -15.6167 C   0  0  2  0  0  0  0  0  0  0  0  0
   27.1212  -20.5590  -16.3254 N   0  0  0  0  0  0  0  0  0  0  0  0
   25.9900  -19.5390  -14.4568 C   0  0  0  0  0  0  0  0  0  0  0  0
   25.6433  -18.5493  -13.7659 O   0  0  0  0  0  0  0  0  0  0  0  0
   24.6483  -24.6647  -13.8676 N   0  0  0  0  0  0  0  0  0  0  0  0
   24.2246  -23.9076  -14.9937 C   0  0  0  0  0  0  0  0  0  0  0  0
   24.2966  -24.4426  -16.1238 O   0  0  0  0  0  0  0  0  0  0  0  0
   23.7274  -22.5425  -14.7654 C   0  0  0  0  0  0  0  0  0  0  0  0
   23.7347  -22.2426  -13.2695 C   0  0  0  0  0  0  0  0  0  0  0  0
   24.6194  -21.0283  -12.9851 C   0  0  2  0  0  0  0  0  0  0  0  0
   25.5061  -20.8261  -14.0992 N   0  0  0  0  0  0  0  0  0  0  0  0
   25.3282  -21.2130  -11.7074 C   0  0  0  0  0  0  0  0  0  0  0  0
   26.3092  -22.0081  -11.6736 O   0  0  0  0  0  0  0  0  0  0  0  0
   28.3193  -19.1733   -7.0831 C   0  0  0  0  0  0  0  0  0  0  0  0
   27.2099  -20.1299   -7.4227 C   0  0  0  0  0  0  0  0  0  0  0  0
   26.5619  -19.8820   -8.7360 C   0  0  2  0  0  0  0  0  0  0  0  0
   25.9541  -18.4843   -8.8180 C   0  0  0  0  0  0  0  0  0  0  0  0
   25.5788  -20.8836   -9.2080 C   0  0  2  0  0  0  0  0  0  0  0  0
   24.9907  -20.5594  -10.4968 N   0  0  0  0  0  0  0  0  0  0  0  0
   24.5351  -21.1984   -8.2284 C   0  0  0  0  0  0  0  0  0  0  0  0
   24.8282  -21.7283   -7.1402 O   0  0  0  0  0  0  0  0  0  0  0  0
   23.2160  -20.9104   -8.5070 O   0  0  0  0  0  0  0  0  0  0  0  0
  2  1  1  0
  3  2  1  0
  4  5  1  0
  4  3  1  0
  5  7  1  0
  5  6  1  6
  7  8  2  0
 10 12  1  0
 10  9  1  0
 11 10  2  0
 13 12  1  0
 14 13  1  6
 15 14  1  0
 15  7  1  0
 16 14  1  0
 16 17  2  0
 19 18  1  0
 19 20  1  0
 20 22  1  0
 20 21  1  1
 22 23  1  6
 22 24  1  0
 23 16  1  0
 24 25  2  0
 24 26  1  0
M  END
$$$$
