MQI.pdb
     RDKit          3D

 26 25  0  0  1  0  0  0  0  0999 V2000
   21.1687  -21.2493   -6.7531 C   0  0  0  0  0  0  0  0  0  0  0  0
   20.3925  -21.3456   -8.4008 S   0  0  0  0  0  0  0  0  0  0  0  0
   19.7264  -23.0131   -8.6912 C   0  0  0  0  0  0  0  0  0  0  0  0
   18.9635  -23.4089   -7.4478 C   0  0  0  0  0  0  0  0  0  0  0  0
   18.5112  -24.8682   -7.5257 C   0  0  2  0  0  0  0  0  0  0  0  0
   17.9193  -25.0292   -8.8382 N   0  0  0  0  0  0  0  0  0  0  0  0
   17.4839  -25.0395   -6.4672 C   0  0  0  0  0  0  0  0  0  0  0  0
   16.4197  -24.3779   -6.5487 O   0  0  0  0  0  0  0  0  0  0  0  0
   17.2843  -29.1823   -6.4092 N   0  0  0  0  0  0  0  0  0  0  0  0
   15.9544  -28.7458   -6.6577 C   0  0  0  0  0  0  0  0  0  0  0  0
   15.4211  -29.0712   -7.7431 O   0  0  0  0  0  0  0  0  0  0  0  0
   15.2844  -27.9389   -5.6267 C   0  0  0  0  0  0  0  0  0  0  0  0
   16.2540  -27.6745   -4.4788 C   0  0  0  0  0  0  0  0  0  0  0  0
   16.6052  -26.1873   -4.4244 C   0  0  2  0  0  0  0  0  0  0  0  0
   17.6581  -25.9219   -5.3673 N   0  0  0  0  0  0  0  0  0  0  0  0
   16.9532  -25.8047   -3.0454 C   0  0  0  0  0  0  0  0  0  0  0  0
   18.1745  -25.6961   -2.7417 O   0  0  0  0  0  0  0  0  0  0  0  0
   14.1071  -22.1295    0.0080 C   0  0  0  0  0  0  0  0  0  0  0  0
   15.1561  -22.9739   -0.6614 C   0  0  0  0  0  0  0  0  0  0  0  0
   15.4086  -24.2811   -0.0029 C   0  0  2  0  0  0  0  0  0  0  0  0
   15.7693  -24.1177    1.4711 C   0  0  0  0  0  0  0  0  0  0  0  0
   16.3733  -25.1952   -0.6558 C   0  0  2  0  0  0  0  0  0  0  0  0
   16.0119  -25.5456   -2.0190 N   0  0  0  0  0  0  0  0  0  0  0  0
   16.6724  -26.3988    0.1251 C   0  0  0  0  0  0  0  0  0  0  0  0
   17.6189  -26.4087    0.9344 O   0  0  0  0  0  0  0  0  0  0  0  0
   15.9055  -27.5336   -0.0330 O   0  0  0  0  0  0  0  0  0  0  0  0
  2  1  1  0
  3  2  1  0
  4  5  1  0
  4  3  1  0
  5  7  1  0
  5  6  1  6
  7  8  2  0
 10 12  1  0
 10  9  1  0
 11 10  2  0
 13 12  1  0
 14 13  1  1
 15 14  1  0
 15  7  1  0
 16 14  1  0
 16 17  2  0
 19 18  1  0
 19 20  1  0
 20 22  1  0
 20 21  1  1
 22 23  1  6
 22 24  1  0
 23 16  1  0
 24 25  2  0
 24 26  1  0
M  END
$$$$
