MQI.pdb
     RDKit          3D

 26 25  0  0  1  0  0  0  0  0999 V2000
   28.2153  -19.9217   -8.5596 C   0  0  0  0  0  0  0  0  0  0  0  0
   26.5179  -20.0430   -9.2161 S   0  0  0  0  0  0  0  0  0  0  0  0
   26.4709  -21.1631  -10.6485 C   0  0  0  0  0  0  0  0  0  0  0  0
   27.2713  -20.5078  -11.7507 C   0  0  0  0  0  0  0  0  0  0  0  0
   27.2160  -21.3387  -13.0339 C   0  0  2  0  0  0  0  0  0  0  0  0
   28.0306  -20.6296  -13.9996 N   0  0  0  0  0  0  0  0  0  0  0  0
   25.7934  -21.3473  -13.4597 C   0  0  0  0  0  0  0  0  0  0  0  0
   25.3823  -20.4228  -14.2035 O   0  0  0  0  0  0  0  0  0  0  0  0
   23.1742  -26.1600  -14.6826 N   0  0  0  0  0  0  0  0  0  0  0  0
   21.9426  -25.4590  -14.7957 C   0  0  0  0  0  0  0  0  0  0  0  0
   21.0742  -25.9165  -15.5736 O   0  0  0  0  0  0  0  0  0  0  0  0
   21.7614  -24.2397  -13.9937 C   0  0  0  0  0  0  0  0  0  0  0  0
   23.0532  -23.9278  -13.2443 C   0  0  0  0  0  0  0  0  0  0  0  0
   23.6890  -22.6563  -13.8073 C   0  0  2  0  0  0  0  0  0  0  0  0
   24.8807  -22.3598  -13.0589 N   0  0  0  0  0  0  0  0  0  0  0  0
   22.7086  -21.5574  -13.7936 C   0  0  0  0  0  0  0  0  0  0  0  0
   22.5461  -20.9101  -12.7210 O   0  0  0  0  0  0  0  0  0  0  0  0
   20.8667  -16.5865  -15.6572 C   0  0  0  0  0  0  0  0  0  0  0  0
   20.2502  -17.9145  -16.0000 C   0  0  0  0  0  0  0  0  0  0  0  0
   21.1892  -19.0639  -15.9427 C   0  0  2  0  0  0  0  0  0  0  0  0
   21.3182  -19.7637  -17.2929 C   0  0  0  0  0  0  0  0  0  0  0  0
   20.9689  -20.0685  -14.8775 C   0  0  2  0  0  0  0  0  0  0  0  0
   21.9227  -21.1645  -14.9047 N   0  0  0  0  0  0  0  0  0  0  0  0
   19.5964  -20.5793  -14.8180 C   0  0  0  0  0  0  0  0  0  0  0  0
   18.7565  -20.0498  -14.0663 O   0  0  0  0  0  0  0  0  0  0  0  0
   19.2251  -21.6552  -15.5960 O   0  0  0  0  0  0  0  0  0  0  0  0
  2  1  1  0
  3  2  1  0
  4  5  1  0
  4  3  1  0
  5  7  1  0
  5  6  1  6
  7  8  2  0
 10 12  1  0
 10  9  1  0
 11 10  2  0
 13 12  1  0
 14 13  1  1
 15 14  1  0
 15  7  1  0
 16 14  1  0
 16 17  2  0
 19 18  1  0
 19 20  1  0
 20 22  1  0
 20 21  1  6
 22 23  1  6
 22 24  1  0
 23 16  1  0
 24 25  2  0
 24 26  1  0
M  END
$$$$
