IRE.pdb
     RDKit          3D

 29 28  0  0  1  0  0  0  0  0999 V2000
    6.4483  -11.6237   28.0193 C   0  0  0  0  0  0  0  0  0  0  0  0
    5.9239  -12.7971   27.2324 C   0  0  0  0  0  0  0  0  0  0  0  0
    6.9815  -13.3323   26.2841 C   0  0  2  0  0  0  0  0  0  0  0  0
    7.4331  -12.1842   25.4480 C   0  0  0  0  0  0  0  0  0  0  0  0
    6.3286  -14.4601   25.5152 C   0  0  2  0  0  0  0  0  0  0  0  0
    6.1798  -15.5335   26.5196 N   0  0  0  0  0  0  0  0  0  0  0  0
    7.1833  -15.0382   24.4608 C   0  0  0  0  0  0  0  0  0  0  0  0
    7.9182  -16.0604   24.6265 O   0  0  0  0  0  0  0  0  0  0  0  0
    7.5097  -15.7618   16.3350 N   0  0  0  0  0  0  0  0  0  0  0  0
    8.2390  -14.5292   16.2652 C   0  0  0  0  0  0  0  0  0  0  0  0
    8.9594  -14.3204   15.2134 N   0  0  0  0  0  0  0  0  0  0  0  0
    8.1633  -13.5797   17.3230 N   0  0  0  0  0  0  0  0  0  0  0  0
    7.3378  -13.9089   18.4454 C   0  0  0  0  0  0  0  0  0  0  0  0
    8.1288  -14.6070   19.5618 C   0  0  0  0  0  0  0  0  0  0  0  0
    7.4853  -14.2474   20.8507 C   0  0  0  0  0  0  0  0  0  0  0  0
    7.9518  -15.0234   22.0604 C   0  0  2  0  0  0  0  0  0  0  0  0
    7.2012  -14.4364   23.1819 N   0  0  0  0  0  0  0  0  0  0  0  0
    9.3906  -14.9815   22.3109 C   0  0  0  0  0  0  0  0  0  0  0  0
    9.8615  -13.8761   22.7597 O   0  0  0  0  0  0  0  0  0  0  0  0
    9.5528  -13.4785   15.0967 N   0  0  0  0  0  0  0  0  0  0  0  0
   10.2774  -16.0375   22.1051 C   0  0  2  0  0  0  0  0  0  0  0  0
   11.6969  -15.9245   22.5059 C   0  0  0  0  0  0  0  0  0  0  0  0
   11.8011  -16.7648   23.7268 C   0  0  0  0  0  0  0  0  0  0  0  0
   11.9791  -18.2067   23.4399 C   0  0  0  0  0  0  0  0  0  0  0  0
   12.1578  -18.9779   24.6824 O   0  0  0  0  0  0  0  0  0  0  0  0
   12.2152  -18.3598   25.7870 C   0  0  0  0  0  0  0  0  0  0  0  0
   12.5139  -16.2007   21.3457 O   0  0  0  0  0  0  0  0  0  0  0  0
   13.8703  -15.8850   21.3371 O   0  0  0  0  0  0  0  0  0  0  0  0
   12.2645  -20.3694   24.6692 O   0  0  0  0  0  0  0  0  0  0  0  0
  1  2  1  0
  3  4  1  6
  3  2  1  0
  5  6  1  1
  5  3  1  0
  7  5  1  0
  8  7  2  0
  9 10  1  0
 10 12  1  0
 11 10  2  0
 12 13  1  0
 13 14  1  0
 14 15  1  0
 16 15  1  6
 16 18  1  0
 16 17  1  0
 17  7  1  0
 18 19  2  0
 20 21  1  0
 20 18  1  0
 22 23  1  0
 21 22  1  6
 24 25  2  0
 24 23  1  0
 26 27  1  0
 26 21  1  0
 28 24  1  0
 29 26  2  0
M  END
$$$$
