IRE.pdb
     RDKit          3D

 29 28  0  0  1  0  0  0  0  0999 V2000
    6.1137  -11.8129   27.8988 C   0  0  0  0  0  0  0  0  0  0  0  0
    5.7169  -12.8546   26.8845 C   0  0  0  0  0  0  0  0  0  0  0  0
    6.9240  -13.3396   26.1022 C   0  0  2  0  0  0  0  0  0  0  0  0
    7.5844  -12.1308   25.5331 C   0  0  0  0  0  0  0  0  0  0  0  0
    6.3975  -14.3185   25.0756 C   0  0  2  0  0  0  0  0  0  0  0  0
    5.8770  -15.4376   25.8880 N   0  0  0  0  0  0  0  0  0  0  0  0
    7.4456  -14.9165   24.2269 C   0  0  0  0  0  0  0  0  0  0  0  0
    8.0679  -15.9845   24.5176 O   0  0  0  0  0  0  0  0  0  0  0  0
    9.1501  -14.3597   16.0373 N   0  0  0  0  0  0  0  0  0  0  0  0
    7.9972  -14.4153   16.8880 C   0  0  0  0  0  0  0  0  0  0  0  0
    7.0785  -13.5251   16.7076 N   0  0  0  0  0  0  0  0  0  0  0  0
    7.8820  -15.4194   17.8903 N   0  0  0  0  0  0  0  0  0  0  0  0
    8.5930  -15.2114   19.1154 C   0  0  0  0  0  0  0  0  0  0  0  0
    8.1396  -13.9346   19.8390 C   0  0  0  0  0  0  0  0  0  0  0  0
    8.9916  -13.7844   21.0459 C   0  0  0  0  0  0  0  0  0  0  0  0
    8.8161  -14.8396   22.1131 C   0  0  2  0  0  0  0  0  0  0  0  0
    7.7944  -14.2814   23.0132 N   0  0  0  0  0  0  0  0  0  0  0  0
   10.0293  -15.1909   22.8475 C   0  0  0  0  0  0  0  0  0  0  0  0
   10.6613  -14.2240   23.4048 O   0  0  0  0  0  0  0  0  0  0  0  0
    6.2486  -13.4414   17.3229 N   0  0  0  0  0  0  0  0  0  0  0  0
   10.5430  -16.4793   22.9894 C   0  0  2  0  0  0  0  0  0  0  0  0
   11.8615  -16.7043   23.6215 C   0  0  0  0  0  0  0  0  0  0  0  0
   11.6645  -17.9155   24.4591 C   0  0  0  0  0  0  0  0  0  0  0  0
   10.7356  -17.7064   25.5934 C   0  0  0  0  0  0  0  0  0  0  0  0
   10.5916  -18.9337   26.3957 O   0  0  0  0  0  0  0  0  0  0  0  0
   10.0467  -19.9506   25.8718 C   0  0  0  0  0  0  0  0  0  0  0  0
   12.8670  -16.6783   22.5832 O   0  0  0  0  0  0  0  0  0  0  0  0
   14.2187  -16.5740   22.9019 O   0  0  0  0  0  0  0  0  0  0  0  0
   11.0409  -19.0002   27.7155 O   0  0  0  0  0  0  0  0  0  0  0  0
  1  2  1  0
  3  4  1  6
  3  2  1  0
  5  6  1  1
  5  3  1  0
  7  5  1  0
  8  7  2  0
  9 10  1  0
 10 12  1  0
 11 10  2  0
 12 13  1  0
 13 14  1  0
 14 15  1  0
 16 15  1  6
 16 18  1  0
 16 17  1  0
 17  7  1  0
 18 19  2  0
 20 21  1  0
 20 18  1  0
 22 23  1  0
 21 22  1  1
 24 25  2  0
 24 23  1  0
 26 27  1  0
 26 21  1  0
 28 24  1  0
 29 26  2  0
M  END
$$$$
