IRE.pdb
     RDKit          3D

 29 28  0  0  1  0  0  0  0  0999 V2000
    7.2918  -11.4034   27.6434 C   0  0  0  0  0  0  0  0  0  0  0  0
    6.4881  -12.4869   26.9715 C   0  0  0  0  0  0  0  0  0  0  0  0
    7.3829  -13.3986   26.1514 C   0  0  2  0  0  0  0  0  0  0  0  0
    8.1358  -12.5277   25.2048 C   0  0  0  0  0  0  0  0  0  0  0  0
    6.4686  -14.4094   25.4944 C   0  0  2  0  0  0  0  0  0  0  0  0
    5.8470  -15.1169   26.6330 N   0  0  0  0  0  0  0  0  0  0  0  0
    7.1807  -15.4556   24.7361 C   0  0  0  0  0  0  0  0  0  0  0  0
    7.6698  -16.5025   25.2627 O   0  0  0  0  0  0  0  0  0  0  0  0
    8.1441  -15.2726   16.1642 N   0  0  0  0  0  0  0  0  0  0  0  0
    7.9327  -13.9984   16.7868 C   0  0  0  0  0  0  0  0  0  0  0  0
    7.7894  -12.9729   16.0144 N   0  0  0  0  0  0  0  0  0  0  0  0
    7.8850  -13.8819   18.2047 N   0  0  0  0  0  0  0  0  0  0  0  0
    8.1774  -15.0548   18.9719 C   0  0  0  0  0  0  0  0  0  0  0  0
    8.0899  -14.7955   20.4834 C   0  0  0  0  0  0  0  0  0  0  0  0
    7.6078  -16.0476   21.1194 C   0  0  0  0  0  0  0  0  0  0  0  0
    8.0778  -16.2924   22.5345 C   0  0  2  0  0  0  0  0  0  0  0  0
    7.3396  -15.3062   23.3395 N   0  0  0  0  0  0  0  0  0  0  0  0
    9.5187  -16.1692   22.7427 C   0  0  0  0  0  0  0  0  0  0  0  0
    9.9539  -15.0047   23.0580 O   0  0  0  0  0  0  0  0  0  0  0  0
    7.6726  -12.0086   16.3765 N   0  0  0  0  0  0  0  0  0  0  0  0
   10.4428  -17.2070   22.6295 C   0  0  1  0  0  0  0  0  0  0  0  0
   11.8915  -16.9529   22.7888 C   0  0  0  0  0  0  0  0  0  0  0  0
   12.1433  -15.7401   21.9684 C   0  0  0  0  0  0  0  0  0  0  0  0
   13.5000  -15.1743   22.1486 C   0  0  0  0  0  0  0  0  0  0  0  0
   14.0140  -14.6134   20.8871 O   0  0  0  0  0  0  0  0  0  0  0  0
   14.1333  -13.3568   20.7762 C   0  0  0  0  0  0  0  0  0  0  0  0
   12.1965  -16.9668   24.2018 O   0  0  0  0  0  0  0  0  0  0  0  0
   13.5137  -17.0515   24.6462 O   0  0  0  0  0  0  0  0  0  0  0  0
   14.3712  -15.4331   19.8154 O   0  0  0  0  0  0  0  0  0  0  0  0
  1  2  1  0
  3  4  1  6
  3  2  1  0
  5  6  1  1
  5  3  1  0
  7  5  1  0
  8  7  2  0
  9 10  1  0
 10 12  1  0
 11 10  2  0
 12 13  1  0
 13 14  1  0
 14 15  1  0
 16 15  1  6
 16 18  1  0
 16 17  1  0
 17  7  1  0
 18 19  2  0
 20 21  1  0
 20 18  1  0
 22 23  1  0
 21 22  1  6
 24 25  2  0
 24 23  1  0
 26 27  1  0
 26 21  1  0
 28 24  1  0
 29 26  2  0
M  END
$$$$
