IRE.pdb
     RDKit          3D

 29 28  0  0  1  0  0  0  0  0999 V2000
    6.3223  -11.7464   27.9273 C   0  0  0  0  0  0  0  0  0  0  0  0
    5.7392  -12.8568   27.0917 C   0  0  0  0  0  0  0  0  0  0  0  0
    6.7889  -13.4544   26.1723 C   0  0  2  0  0  0  0  0  0  0  0  0
    7.4253  -12.3185   25.4470 C   0  0  0  0  0  0  0  0  0  0  0  0
    6.0629  -14.4452   25.2889 C   0  0  2  0  0  0  0  0  0  0  0  0
    5.7350  -15.5596   26.2020 N   0  0  0  0  0  0  0  0  0  0  0  0
    6.9107  -15.0455   24.2412 C   0  0  0  0  0  0  0  0  0  0  0  0
    7.5645  -16.1236   24.3913 O   0  0  0  0  0  0  0  0  0  0  0  0
    7.5328  -14.1533   15.7706 N   0  0  0  0  0  0  0  0  0  0  0  0
    8.7255  -14.5118   16.4813 C   0  0  0  0  0  0  0  0  0  0  0  0
    9.8168  -13.8973   16.1646 N   0  0  0  0  0  0  0  0  0  0  0  0
    8.6941  -15.5098   17.4958 N   0  0  0  0  0  0  0  0  0  0  0  0
    7.8795  -15.2547   18.6453 C   0  0  0  0  0  0  0  0  0  0  0  0
    8.4940  -14.1902   19.5665 C   0  0  0  0  0  0  0  0  0  0  0  0
    7.5857  -14.0357   20.7309 C   0  0  0  0  0  0  0  0  0  0  0  0
    7.8702  -14.9324   21.9134 C   0  0  2  0  0  0  0  0  0  0  0  0
    7.0166  -14.4008   22.9878 N   0  0  0  0  0  0  0  0  0  0  0  0
    9.2691  -14.9876   22.3313 C   0  0  0  0  0  0  0  0  0  0  0  0
    9.7463  -13.9285   22.8751 O   0  0  0  0  0  0  0  0  0  0  0  0
   10.7156  -14.0594   16.6549 N   0  0  0  0  0  0  0  0  0  0  0  0
   10.1118  -16.0891   22.1889 C   0  0  2  0  0  0  0  0  0  0  0  0
   11.4969  -16.0561   22.7074 C   0  0  0  0  0  0  0  0  0  0  0  0
   11.6383  -17.3313   23.4566 C   0  0  0  0  0  0  0  0  0  0  0  0
   13.0152  -17.5850   23.9393 C   0  0  0  0  0  0  0  0  0  0  0  0
   13.1101  -18.8918   24.6130 O   0  0  0  0  0  0  0  0  0  0  0  0
   12.1918  -19.2388   25.4142 C   0  0  0  0  0  0  0  0  0  0  0  0
   12.3804  -15.7426   21.6070 O   0  0  0  0  0  0  0  0  0  0  0  0
   13.6379  -15.1901   21.8372 O   0  0  0  0  0  0  0  0  0  0  0  0
   14.1854  -19.7527   24.3884 O   0  0  0  0  0  0  0  0  0  0  0  0
  1  2  1  0
  3  4  1  6
  3  2  1  0
  5  6  1  1
  5  3  1  0
  7  5  1  0
  8  7  2  0
  9 10  1  0
 10 12  1  0
 11 10  2  0
 12 13  1  0
 13 14  1  0
 14 15  1  0
 16 15  1  6
 16 18  1  0
 16 17  1  0
 17  7  1  0
 18 19  2  0
 20 21  1  0
 20 18  1  0
 22 23  1  0
 21 22  1  6
 24 25  2  0
 24 23  1  0
 26 27  1  0
 26 21  1  0
 28 24  1  0
 29 26  2  0
M  END
$$$$
