IRE.pdb
     RDKit          3D

 29 28  0  0  1  0  0  0  0  0999 V2000
    6.9409  -12.3352   28.1571 C   0  0  0  0  0  0  0  0  0  0  0  0
    6.3045  -13.3080   27.1979 C   0  0  0  0  0  0  0  0  0  0  0  0
    7.3366  -13.8908   26.2496 C   0  0  2  0  0  0  0  0  0  0  0  0
    8.1203  -12.7452   25.7066 C   0  0  0  0  0  0  0  0  0  0  0  0
    6.5634  -14.6787   25.2150 C   0  0  2  0  0  0  0  0  0  0  0  0
    5.9312  -15.7625   25.9953 N   0  0  0  0  0  0  0  0  0  0  0  0
    7.4162  -15.3659   24.2265 C   0  0  0  0  0  0  0  0  0  0  0  0
    7.9148  -16.5203   24.4027 O   0  0  0  0  0  0  0  0  0  0  0  0
    7.7283  -14.9695   15.5897 N   0  0  0  0  0  0  0  0  0  0  0  0
    7.7135  -13.9288   16.5759 C   0  0  0  0  0  0  0  0  0  0  0  0
    8.4560  -12.8934   16.3626 N   0  0  0  0  0  0  0  0  0  0  0  0
    6.9060  -14.0452   17.7424 N   0  0  0  0  0  0  0  0  0  0  0  0
    7.3891  -14.8849   18.7965 C   0  0  0  0  0  0  0  0  0  0  0  0
    7.2722  -14.2129   20.1727 C   0  0  0  0  0  0  0  0  0  0  0  0
    8.5870  -14.3560   20.8476 C   0  0  0  0  0  0  0  0  0  0  0  0
    8.6280  -15.3118   22.0172 C   0  0  2  0  0  0  0  0  0  0  0  0
    7.7089  -14.7211   23.0031 N   0  0  0  0  0  0  0  0  0  0  0  0
    9.9511  -15.5313   22.5966 C   0  0  0  0  0  0  0  0  0  0  0  0
   10.5058  -14.5194   23.1567 O   0  0  0  0  0  0  0  0  0  0  0  0
    8.5038  -12.0915   17.0178 N   0  0  0  0  0  0  0  0  0  0  0  0
   10.6454  -16.7403   22.5900 C   0  0  1  0  0  0  0  0  0  0  0  0
   11.9228  -16.8851   23.3220 C   0  0  0  0  0  0  0  0  0  0  0  0
   11.6019  -17.8097   24.4398 C   0  0  0  0  0  0  0  0  0  0  0  0
   12.7848  -18.2080   25.2370 C   0  0  0  0  0  0  0  0  0  0  0  0
   12.4173  -19.1735   26.2873 O   0  0  0  0  0  0  0  0  0  0  0  0
   11.2019  -19.5068   26.4186 C   0  0  0  0  0  0  0  0  0  0  0  0
   12.9543  -17.2128   22.3637 O   0  0  0  0  0  0  0  0  0  0  0  0
   14.3008  -17.0596   22.6847 O   0  0  0  0  0  0  0  0  0  0  0  0
   13.3755  -19.7273   27.1378 O   0  0  0  0  0  0  0  0  0  0  0  0
  1  2  1  0
  3  4  1  6
  3  2  1  0
  5  6  1  1
  5  3  1  0
  7  5  1  0
  8  7  2  0
  9 10  1  0
 10 12  1  0
 11 10  2  0
 12 13  1  0
 13 14  1  0
 14 15  1  0
 16 15  1  6
 16 18  1  0
 16 17  1  0
 17  7  1  0
 18 19  2  0
 20 21  1  0
 20 18  1  0
 22 23  1  0
 21 22  1  1
 24 25  2  0
 24 23  1  0
 26 27  1  0
 26 21  1  0
 28 24  1  0
 29 26  2  0
M  END
$$$$
