IRE.pdb
     RDKit          3D

 29 28  0  0  1  0  0  0  0  0999 V2000
    6.6465  -11.1584   26.9546 C   0  0  0  0  0  0  0  0  0  0  0  0
    6.2726  -12.3836   26.1607 C   0  0  0  0  0  0  0  0  0  0  0  0
    7.5105  -13.1157   25.6750 C   0  0  2  0  0  0  0  0  0  0  0  0
    8.3473  -12.1169   24.9514 C   0  0  0  0  0  0  0  0  0  0  0  0
    7.0159  -14.2652   24.8247 C   0  0  2  0  0  0  0  0  0  0  0  0
    6.3001  -15.1322   25.7834 N   0  0  0  0  0  0  0  0  0  0  0  0
    8.0937  -15.1098   24.2755 C   0  0  0  0  0  0  0  0  0  0  0  0
    8.5338  -16.1555   24.8459 O   0  0  0  0  0  0  0  0  0  0  0  0
    6.3438  -14.1530   19.1527 N   0  0  0  0  0  0  0  0  0  0  0  0
    7.3412  -14.4340   18.1616 C   0  0  0  0  0  0  0  0  0  0  0  0
    7.5084  -13.5658   17.2198 N   0  0  0  0  0  0  0  0  0  0  0  0
    8.1114  -15.6294   18.2251 N   0  0  0  0  0  0  0  0  0  0  0  0
    8.9276  -15.8260   19.3848 C   0  0  0  0  0  0  0  0  0  0  0  0
    9.1183  -14.5294   20.1860 C   0  0  0  0  0  0  0  0  0  0  0  0
   10.1637  -14.7907   21.2075 C   0  0  0  0  0  0  0  0  0  0  0  0
    9.7235  -15.5878   22.4134 C   0  0  2  0  0  0  0  0  0  0  0  0
    8.6865  -14.7545   23.0425 N   0  0  0  0  0  0  0  0  0  0  0  0
   10.7832  -15.9162   23.3641 C   0  0  0  0  0  0  0  0  0  0  0  0
   11.4245  -14.9276   23.8704 O   0  0  0  0  0  0  0  0  0  0  0  0
    8.1842  -13.6999   16.4453 N   0  0  0  0  0  0  0  0  0  0  0  0
   11.1430  -17.2039   23.7595 C   0  0  1  0  0  0  0  0  0  0  0  0
   12.3059  -17.4275   24.6462 C   0  0  0  0  0  0  0  0  0  0  0  0
   12.0219  -18.7300   25.3019 C   0  0  0  0  0  0  0  0  0  0  0  0
   11.5677  -18.5999   26.7055 C   0  0  0  0  0  0  0  0  0  0  0  0
   10.3880  -19.4440   26.9629 O   0  0  0  0  0  0  0  0  0  0  0  0
    9.2612  -19.0805   26.5115 C   0  0  0  0  0  0  0  0  0  0  0  0
   13.5080  -17.2386   23.8656 O   0  0  0  0  0  0  0  0  0  0  0  0
   13.4590  -17.2203   22.4739 O   0  0  0  0  0  0  0  0  0  0  0  0
   10.4843  -20.6313   27.6904 O   0  0  0  0  0  0  0  0  0  0  0  0
  1  2  1  0
  3  4  1  6
  3  2  1  0
  5  6  1  1
  5  3  1  0
  7  5  1  0
  8  7  2  0
  9 10  1  0
 10 12  1  0
 11 10  2  0
 12 13  1  0
 13 14  1  0
 14 15  1  0
 16 15  1  6
 16 18  1  0
 16 17  1  0
 17  7  1  0
 18 19  2  0
 20 21  1  0
 20 18  1  0
 22 23  1  0
 21 22  1  1
 24 25  2  0
 24 23  1  0
 26 27  1  0
 26 21  1  0
 28 24  1  0
 29 26  2  0
M  END
$$$$
