IRE.pdb
     RDKit          3D

 29 28  0  0  1  0  0  0  0  0999 V2000
    9.2346  -14.1126   29.4830 C   0  0  0  0  0  0  0  0  0  0  0  0
    8.2050  -14.8229   28.6423 C   0  0  0  0  0  0  0  0  0  0  0  0
    8.7318  -15.0844   27.2429 C   0  0  2  0  0  0  0  0  0  0  0  0
    9.2122  -13.7778   26.7108 C   0  0  0  0  0  0  0  0  0  0  0  0
    7.5885  -15.7037   26.4693 C   0  0  2  0  0  0  0  0  0  0  0  0
    7.3460  -16.9861   27.1621 N   0  0  0  0  0  0  0  0  0  0  0  0
    7.9358  -16.0762   25.0847 C   0  0  0  0  0  0  0  0  0  0  0  0
    8.4149  -17.2048   24.7543 O   0  0  0  0  0  0  0  0  0  0  0  0
    8.9956  -12.6024   18.0082 N   0  0  0  0  0  0  0  0  0  0  0  0
    8.0954  -13.5772   17.4648 C   0  0  0  0  0  0  0  0  0  0  0  0
    8.2970  -13.9638   16.2487 N   0  0  0  0  0  0  0  0  0  0  0  0
    7.0232  -14.0915   18.2472 N   0  0  0  0  0  0  0  0  0  0  0  0
    6.9178  -13.6356   19.6002 C   0  0  0  0  0  0  0  0  0  0  0  0
    8.0812  -14.1322   20.4715 C   0  0  0  0  0  0  0  0  0  0  0  0
    7.5586  -14.3039   21.8507 C   0  0  0  0  0  0  0  0  0  0  0  0
    8.2295  -15.3722   22.6825 C   0  0  2  0  0  0  0  0  0  0  0  0
    7.7314  -15.1381   24.0473 N   0  0  0  0  0  0  0  0  0  0  0  0
    9.6901  -15.3642   22.6468 C   0  0  0  0  0  0  0  0  0  0  0  0
   10.2808  -14.6639   23.5444 O   0  0  0  0  0  0  0  0  0  0  0  0
    7.6876  -14.6518   15.7694 N   0  0  0  0  0  0  0  0  0  0  0  0
   10.4793  -16.0524   21.7263 C   0  0  2  0  0  0  0  0  0  0  0  0
   11.8267  -16.5384   22.0966 C   0  0  0  0  0  0  0  0  0  0  0  0
   11.5837  -17.4592   23.2368 C   0  0  0  0  0  0  0  0  0  0  0  0
   12.7959  -18.1848   23.6808 C   0  0  0  0  0  0  0  0  0  0  0  0
   12.6292  -18.7132   25.0459 O   0  0  0  0  0  0  0  0  0  0  0  0
   12.1056  -19.8563   25.2033 C   0  0  0  0  0  0  0  0  0  0  0  0
   12.4809  -17.0052   20.8950 O   0  0  0  0  0  0  0  0  0  0  0  0
   13.8671  -17.1281   20.8395 O   0  0  0  0  0  0  0  0  0  0  0  0
   13.0340  -17.9847   26.1655 O   0  0  0  0  0  0  0  0  0  0  0  0
  1  2  1  0
  3  4  1  6
  3  2  1  0
  5  6  1  1
  5  3  1  0
  7  5  1  0
  8  7  2  0
  9 10  1  0
 10 12  1  0
 11 10  2  0
 12 13  1  0
 13 14  1  0
 14 15  1  0
 16 15  1  6
 16 18  1  0
 16 17  1  0
 17  7  1  0
 18 19  2  0
 20 21  1  0
 20 18  1  0
 22 23  1  0
 21 22  1  1
 24 25  2  0
 24 23  1  0
 26 27  1  0
 26 21  1  0
 28 24  1  0
 29 26  2  0
M  END
$$$$
