IRE.pdb
     RDKit          3D

 29 28  0  0  1  0  0  0  0  0999 V2000
    7.2281  -12.0778   28.4909 C   0  0  0  0  0  0  0  0  0  0  0  0
    6.4994  -13.1220   27.6848 C   0  0  0  0  0  0  0  0  0  0  0  0
    7.3906  -13.6862   26.5932 C   0  0  2  0  0  0  0  0  0  0  0  0
    7.9084  -12.5254   25.8149 C   0  0  0  0  0  0  0  0  0  0  0  0
    6.5327  -14.6494   25.8023 C   0  0  2  0  0  0  0  0  0  0  0  0
    6.2841  -15.7588   26.7460 N   0  0  0  0  0  0  0  0  0  0  0  0
    7.2283  -15.2687   24.6581 C   0  0  0  0  0  0  0  0  0  0  0  0
    7.7106  -16.4433   24.6743 O   0  0  0  0  0  0  0  0  0  0  0  0
   10.1126  -13.1719   17.7590 N   0  0  0  0  0  0  0  0  0  0  0  0
    9.0515  -13.6515   16.9225 C   0  0  0  0  0  0  0  0  0  0  0  0
    9.3298  -13.8926   15.6842 N   0  0  0  0  0  0  0  0  0  0  0  0
    7.7443  -13.8501   17.4497 N   0  0  0  0  0  0  0  0  0  0  0  0
    7.5196  -13.4725   18.8123 C   0  0  0  0  0  0  0  0  0  0  0  0
    8.1276  -14.4790   19.8006 C   0  0  0  0  0  0  0  0  0  0  0  0
    7.5418  -14.1966   21.1355 C   0  0  0  0  0  0  0  0  0  0  0  0
    7.9544  -15.1317   22.2484 C   0  0  2  0  0  0  0  0  0  0  0  0
    7.3783  -14.5307   23.4619 N   0  0  0  0  0  0  0  0  0  0  0  0
    9.3945  -15.3316   22.3928 C   0  0  0  0  0  0  0  0  0  0  0  0
   10.0556  -14.3689   22.9231 O   0  0  0  0  0  0  0  0  0  0  0  0
    8.6197  -14.2139   15.0008 N   0  0  0  0  0  0  0  0  0  0  0  0
   10.0941  -16.4740   22.0064 C   0  0  1  0  0  0  0  0  0  0  0  0
   11.5732  -16.4847   21.9808 C   0  0  0  0  0  0  0  0  0  0  0  0
   11.9331  -15.3380   21.1074 C   0  0  0  0  0  0  0  0  0  0  0  0
   13.1467  -14.6141   21.5503 C   0  0  0  0  0  0  0  0  0  0  0  0
   13.9784  -14.2174   20.4007 O   0  0  0  0  0  0  0  0  0  0  0  0
   15.2350  -14.1461   20.5462 C   0  0  0  0  0  0  0  0  0  0  0  0
   12.0449  -16.5517   23.3457 O   0  0  0  0  0  0  0  0  0  0  0  0
   13.3929  -16.7629   23.6248 O   0  0  0  0  0  0  0  0  0  0  0  0
   13.4141  -13.9198   19.1593 O   0  0  0  0  0  0  0  0  0  0  0  0
  1  2  1  0
  3  4  1  6
  3  2  1  0
  5  6  1  1
  5  3  1  0
  7  5  1  0
  8  7  2  0
  9 10  1  0
 10 12  1  0
 11 10  2  0
 12 13  1  0
 13 14  1  0
 14 15  1  0
 16 15  1  6
 16 18  1  0
 16 17  1  0
 17  7  1  0
 18 19  2  0
 20 21  1  0
 20 18  1  0
 22 23  1  0
 21 22  1  6
 24 25  2  0
 24 23  1  0
 26 27  1  0
 26 21  1  0
 28 24  1  0
 29 26  2  0
M  END
$$$$
