IRE.pdb
     RDKit          3D

 29 28  0  0  1  0  0  0  0  0999 V2000
    6.9034  -11.9982   28.2517 C   0  0  0  0  0  0  0  0  0  0  0  0
    6.1966  -12.9658   27.3376 C   0  0  0  0  0  0  0  0  0  0  0  0
    7.1485  -13.5235   26.2950 C   0  0  2  0  0  0  0  0  0  0  0  0
    7.7666  -12.3557   25.6054 C   0  0  0  0  0  0  0  0  0  0  0  0
    6.3202  -14.4223   25.4034 C   0  0  2  0  0  0  0  0  0  0  0  0
    5.9907  -15.5734   26.2693 N   0  0  0  0  0  0  0  0  0  0  0  0
    7.0708  -14.9975   24.2710 C   0  0  0  0  0  0  0  0  0  0  0  0
    7.7581  -16.0626   24.3455 O   0  0  0  0  0  0  0  0  0  0  0  0
    7.9408  -13.1697   16.6137 N   0  0  0  0  0  0  0  0  0  0  0  0
    8.6390  -14.4216   16.6500 C   0  0  0  0  0  0  0  0  0  0  0  0
    9.6656  -14.5553   15.8774 N   0  0  0  0  0  0  0  0  0  0  0  0
    8.2061  -15.4699   17.5102 N   0  0  0  0  0  0  0  0  0  0  0  0
    7.5203  -15.0961   18.7101 C   0  0  0  0  0  0  0  0  0  0  0  0
    8.2864  -14.0301   19.5075 C   0  0  0  0  0  0  0  0  0  0  0  0
    7.5521  -13.8178   20.7805 C   0  0  0  0  0  0  0  0  0  0  0  0
    7.7946  -14.8453   21.8616 C   0  0  2  0  0  0  0  0  0  0  0  0
    7.0375  -14.3423   23.0190 N   0  0  0  0  0  0  0  0  0  0  0  0
    9.1967  -15.0681   22.2064 C   0  0  0  0  0  0  0  0  0  0  0  0
    9.8226  -14.0770   22.7269 O   0  0  0  0  0  0  0  0  0  0  0  0
   10.2649  -15.4012   15.8804 N   0  0  0  0  0  0  0  0  0  0  0  0
    9.8952  -16.2600   22.0183 C   0  0  2  0  0  0  0  0  0  0  0  0
   11.3141  -16.3787   22.4199 C   0  0  0  0  0  0  0  0  0  0  0  0
   11.3127  -17.4375   23.4621 C   0  0  0  0  0  0  0  0  0  0  0  0
   12.6695  -17.8544   23.8846 C   0  0  0  0  0  0  0  0  0  0  0  0
   12.6082  -18.9735   24.8408 O   0  0  0  0  0  0  0  0  0  0  0  0
   13.2665  -18.8966   25.9207 C   0  0  0  0  0  0  0  0  0  0  0  0
   12.1091  -16.5216   21.2210 O   0  0  0  0  0  0  0  0  0  0  0  0
   13.4517  -16.1519   21.2073 O   0  0  0  0  0  0  0  0  0  0  0  0
   11.8432  -20.1123   24.5840 O   0  0  0  0  0  0  0  0  0  0  0  0
  1  2  1  0
  3  4  1  6
  3  2  1  0
  5  6  1  1
  5  3  1  0
  7  5  1  0
  8  7  2  0
  9 10  1  0
 10 12  1  0
 11 10  2  0
 12 13  1  0
 13 14  1  0
 14 15  1  0
 16 15  1  6
 16 18  1  0
 16 17  1  0
 17  7  1  0
 18 19  2  0
 20 21  1  0
 20 18  1  0
 22 23  1  0
 21 22  1  6
 24 25  2  0
 24 23  1  0
 26 27  1  0
 26 21  1  0
 28 24  1  0
 29 26  2  0
M  END
$$$$
