IRE.pdb
     RDKit          3D

 29 28  0  0  1  0  0  0  0  0999 V2000
    6.1076  -10.9154   27.7189 C   0  0  0  0  0  0  0  0  0  0  0  0
    5.5424  -12.1188   27.0091 C   0  0  0  0  0  0  0  0  0  0  0  0
    6.6243  -12.8536   26.2385 C   0  0  2  0  0  0  0  0  0  0  0  0
    7.2478  -11.8620   25.3169 C   0  0  0  0  0  0  0  0  0  0  0  0
    5.9401  -14.0157   25.5527 C   0  0  2  0  0  0  0  0  0  0  0  0
    5.3352  -14.7770   26.6652 N   0  0  0  0  0  0  0  0  0  0  0  0
    6.8706  -14.9594   24.9044 C   0  0  0  0  0  0  0  0  0  0  0  0
    7.5541  -15.8247   25.5341 O   0  0  0  0  0  0  0  0  0  0  0  0
   10.3078  -13.8554   18.5689 N   0  0  0  0  0  0  0  0  0  0  0  0
    8.9781  -13.3573   18.3700 C   0  0  0  0  0  0  0  0  0  0  0  0
    8.8498  -12.1196   18.0231 N   0  0  0  0  0  0  0  0  0  0  0  0
    7.8499  -14.2061   18.5516 N   0  0  0  0  0  0  0  0  0  0  0  0
    8.0993  -15.5521   18.9708 C   0  0  0  0  0  0  0  0  0  0  0  0
    8.6468  -15.6208   20.4043 C   0  0  0  0  0  0  0  0  0  0  0  0
    7.4800  -15.6876   21.3203 C   0  0  0  0  0  0  0  0  0  0  0  0
    7.7973  -15.9407   22.7758 C   0  0  2  0  0  0  0  0  0  0  0  0
    7.0267  -14.9173   23.5001 N   0  0  0  0  0  0  0  0  0  0  0  0
    9.2146  -15.8773   23.1248 C   0  0  0  0  0  0  0  0  0  0  0  0
    9.7112  -14.7067   23.2921 O   0  0  0  0  0  0  0  0  0  0  0  0
    7.9365  -11.6977   17.7732 N   0  0  0  0  0  0  0  0  0  0  0  0
   10.0555  -16.9770   23.2907 C   0  0  1  0  0  0  0  0  0  0  0  0
   11.4011  -16.8196   23.8849 C   0  0  0  0  0  0  0  0  0  0  0  0
   11.4418  -17.8304   24.9730 C   0  0  0  0  0  0  0  0  0  0  0  0
   12.7739  -17.9660   25.6058 C   0  0  0  0  0  0  0  0  0  0  0  0
   12.7764  -19.0397   26.6145 O   0  0  0  0  0  0  0  0  0  0  0  0
   12.8201  -18.7301   27.8424 C   0  0  0  0  0  0  0  0  0  0  0  0
   12.3707  -16.8469   22.8130 O   0  0  0  0  0  0  0  0  0  0  0  0
   13.6533  -16.3369   22.9985 O   0  0  0  0  0  0  0  0  0  0  0  0
   12.7317  -20.3858   26.2483 O   0  0  0  0  0  0  0  0  0  0  0  0
  1  2  1  0
  3  4  1  6
  3  2  1  0
  5  6  1  1
  5  3  1  0
  7  5  1  0
  8  7  2  0
  9 10  1  0
 10 12  1  0
 11 10  2  0
 12 13  1  0
 13 14  1  0
 14 15  1  0
 16 15  1  6
 16 18  1  0
 16 17  1  0
 17  7  1  0
 18 19  2  0
 20 21  1  0
 20 18  1  0
 22 23  1  0
 21 22  1  6
 24 25  2  0
 24 23  1  0
 26 27  1  0
 26 21  1  0
 28 24  1  0
 29 26  2  0
M  END
$$$$
