IRE.pdb
     RDKit          3D

 29 28  0  0  1  0  0  0  0  0999 V2000
    6.7802  -11.8811   27.8770 C   0  0  0  0  0  0  0  0  0  0  0  0
    6.1454  -12.9717   27.0529 C   0  0  0  0  0  0  0  0  0  0  0  0
    7.1583  -13.6052   26.1164 C   0  0  2  0  0  0  0  0  0  0  0  0
    7.7229  -12.5061   25.2830 C   0  0  0  0  0  0  0  0  0  0  0  0
    6.4113  -14.6695   25.3428 C   0  0  2  0  0  0  0  0  0  0  0  0
    5.9151  -15.5859   26.3903 N   0  0  0  0  0  0  0  0  0  0  0  0
    7.2753  -15.5018   24.4840 C   0  0  0  0  0  0  0  0  0  0  0  0
    7.7601  -16.6202   24.8396 O   0  0  0  0  0  0  0  0  0  0  0  0
    9.4208  -14.6080   17.7898 N   0  0  0  0  0  0  0  0  0  0  0  0
    8.5664  -13.5381   18.2155 C   0  0  0  0  0  0  0  0  0  0  0  0
    8.9816  -12.3299   18.0235 N   0  0  0  0  0  0  0  0  0  0  0  0
    7.3098  -13.8112   18.8259 N   0  0  0  0  0  0  0  0  0  0  0  0
    6.9103  -15.1824   18.9252 C   0  0  0  0  0  0  0  0  0  0  0  0
    6.9730  -15.7013   20.3696 C   0  0  0  0  0  0  0  0  0  0  0  0
    8.2744  -15.2684   20.9387 C   0  0  0  0  0  0  0  0  0  0  0  0
    8.5753  -15.7499   22.3390 C   0  0  2  0  0  0  0  0  0  0  0  0
    7.5958  -15.0484   23.1840 N   0  0  0  0  0  0  0  0  0  0  0  0
    9.9395  -15.5068   22.8019 C   0  0  0  0  0  0  0  0  0  0  0  0
   10.0921  -14.5745   23.6694 O   0  0  0  0  0  0  0  0  0  0  0  0
    8.4276  -11.4960   18.2920 N   0  0  0  0  0  0  0  0  0  0  0  0
   11.0715  -16.2034   22.3808 C   0  0  1  0  0  0  0  0  0  0  0  0
   12.2022  -16.4418   23.3046 C   0  0  0  0  0  0  0  0  0  0  0  0
   11.6020  -17.2048   24.4293 C   0  0  0  0  0  0  0  0  0  0  0  0
   12.5877  -17.6284   25.4502 C   0  0  0  0  0  0  0  0  0  0  0  0
   11.9499  -18.4431   26.4991 O   0  0  0  0  0  0  0  0  0  0  0  0
   11.8438  -17.9668   27.6684 C   0  0  0  0  0  0  0  0  0  0  0  0
   13.2984  -16.9916   22.5392 O   0  0  0  0  0  0  0  0  0  0  0  0
   14.6049  -16.9275   23.0173 O   0  0  0  0  0  0  0  0  0  0  0  0
   11.4617  -19.7234   26.2335 O   0  0  0  0  0  0  0  0  0  0  0  0
  1  2  1  0
  3  4  1  6
  3  2  1  0
  5  6  1  1
  5  3  1  0
  7  5  1  0
  8  7  2  0
  9 10  1  0
 10 12  1  0
 11 10  2  0
 12 13  1  0
 13 14  1  0
 14 15  1  0
 16 15  1  6
 16 18  1  0
 16 17  1  0
 17  7  1  0
 18 19  2  0
 20 21  1  0
 20 18  1  0
 22 23  1  0
 21 22  1  1
 24 25  2  0
 24 23  1  0
 26 27  1  0
 26 21  1  0
 28 24  1  0
 29 26  2  0
M  END
$$$$
