IRE.pdb
     RDKit          3D

 29 28  0  0  1  0  0  0  0  0999 V2000
    8.2277  -12.0166   27.6113 C   0  0  0  0  0  0  0  0  0  0  0  0
    7.6420  -13.3102   27.1065 C   0  0  0  0  0  0  0  0  0  0  0  0
    6.6218  -13.0549   26.0119 C   0  0  2  0  0  0  0  0  0  0  0  0
    5.5238  -12.2535   26.6229 C   0  0  0  0  0  0  0  0  0  0  0  0
    6.2047  -14.4149   25.4966 C   0  0  2  0  0  0  0  0  0  0  0  0
    6.0776  -15.2333   26.7203 N   0  0  0  0  0  0  0  0  0  0  0  0
    7.2379  -15.0912   24.6893 C   0  0  0  0  0  0  0  0  0  0  0  0
    7.9698  -16.0342   25.1224 O   0  0  0  0  0  0  0  0  0  0  0  0
    9.0401  -12.9369   18.2893 N   0  0  0  0  0  0  0  0  0  0  0  0
    8.1321  -13.6507   17.4397 C   0  0  0  0  0  0  0  0  0  0  0  0
    8.4591  -13.7875   16.1974 N   0  0  0  0  0  0  0  0  0  0  0  0
    6.9184  -14.1834   17.9588 N   0  0  0  0  0  0  0  0  0  0  0  0
    6.7375  -14.1471   19.3785 C   0  0  0  0  0  0  0  0  0  0  0  0
    7.5255  -15.2560   20.0918 C   0  0  0  0  0  0  0  0  0  0  0  0
    8.3215  -14.6111   21.1667 C   0  0  0  0  0  0  0  0  0  0  0  0
    8.4035  -15.3681   22.4719 C   0  0  2  0  0  0  0  0  0  0  0  0
    7.4431  -14.6830   23.3516 N   0  0  0  0  0  0  0  0  0  0  0  0
    9.7308  -15.4193   23.0803 C   0  0  0  0  0  0  0  0  0  0  0  0
   10.0960  -14.3850   23.7451 O   0  0  0  0  0  0  0  0  0  0  0  0
    7.8693  -14.2967   15.5138 N   0  0  0  0  0  0  0  0  0  0  0  0
   10.6167  -16.4927   22.9971 C   0  0  2  0  0  0  0  0  0  0  0  0
   11.9071  -16.4685   23.7202 C   0  0  0  0  0  0  0  0  0  0  0  0
   11.7605  -17.5130   24.7666 C   0  0  0  0  0  0  0  0  0  0  0  0
   13.0175  -17.8031   25.4940 C   0  0  0  0  0  0  0  0  0  0  0  0
   12.8203  -18.8686   26.4921 O   0  0  0  0  0  0  0  0  0  0  0  0
   11.6791  -19.4090   26.5976 C   0  0  0  0  0  0  0  0  0  0  0  0
   12.9701  -16.5439   22.7434 O   0  0  0  0  0  0  0  0  0  0  0  0
   12.6927  -16.8260   21.4080 O   0  0  0  0  0  0  0  0  0  0  0  0
   13.8595  -19.2942   27.3209 O   0  0  0  0  0  0  0  0  0  0  0  0
  1  2  1  0
  3  4  1  1
  3  2  1  0
  5  6  1  1
  5  3  1  0
  7  5  1  0
  8  7  2  0
  9 10  1  0
 10 12  1  0
 11 10  2  0
 12 13  1  0
 13 14  1  0
 14 15  1  0
 16 15  1  6
 16 18  1  0
 16 17  1  0
 17  7  1  0
 18 19  2  0
 20 21  1  0
 20 18  1  0
 22 23  1  0
 21 22  1  1
 24 25  2  0
 24 23  1  0
 26 27  1  0
 26 21  1  0
 28 24  1  0
 29 26  2  0
M  END
$$$$
