IRE.pdb
     RDKit          3D

 29 28  0  0  1  0  0  0  0  0999 V2000
    5.5236  -11.5053   26.9607 C   0  0  0  0  0  0  0  0  0  0  0  0
    6.1430  -12.7538   27.5342 C   0  0  0  0  0  0  0  0  0  0  0  0
    7.1556  -13.3495   26.5730 C   0  0  2  0  0  0  0  0  0  0  0  0
    7.9165  -12.2104   25.9860 C   0  0  0  0  0  0  0  0  0  0  0  0
    6.3628  -14.1652   25.5753 C   0  0  2  0  0  0  0  0  0  0  0  0
    5.8258  -15.2828   26.3789 N   0  0  0  0  0  0  0  0  0  0  0  0
    7.1898  -14.8049   24.5343 C   0  0  0  0  0  0  0  0  0  0  0  0
    7.8147  -15.8979   24.6992 O   0  0  0  0  0  0  0  0  0  0  0  0
    9.8797  -14.5474   17.3429 N   0  0  0  0  0  0  0  0  0  0  0  0
    8.6384  -14.2331   16.6977 C   0  0  0  0  0  0  0  0  0  0  0  0
    8.4831  -14.6274   15.4774 N   0  0  0  0  0  0  0  0  0  0  0  0
    7.6232  -13.5124   17.3880 N   0  0  0  0  0  0  0  0  0  0  0  0
    7.9012  -13.1088   18.7331 C   0  0  0  0  0  0  0  0  0  0  0  0
    7.9632  -14.3040   19.6959 C   0  0  0  0  0  0  0  0  0  0  0  0
    8.0468  -13.7576   21.0741 C   0  0  0  0  0  0  0  0  0  0  0  0
    8.1057  -14.7786   22.1864 C   0  0  2  0  0  0  0  0  0  0  0  0
    7.3080  -14.1833   23.2703 N   0  0  0  0  0  0  0  0  0  0  0  0
    9.4491  -15.1202   22.6482 C   0  0  0  0  0  0  0  0  0  0  0  0
    9.9458  -14.3744   23.5659 O   0  0  0  0  0  0  0  0  0  0  0  0
    7.6274  -14.4286   14.9271 N   0  0  0  0  0  0  0  0  0  0  0  0
   10.2198  -16.1818   22.1763 C   0  0  2  0  0  0  0  0  0  0  0  0
   11.4040  -16.6520   22.9281 C   0  0  0  0  0  0  0  0  0  0  0  0
   10.8381  -17.2642   24.1578 C   0  0  0  0  0  0  0  0  0  0  0  0
   11.8584  -17.8831   25.0348 C   0  0  0  0  0  0  0  0  0  0  0  0
   11.2331  -18.5450   26.1930 O   0  0  0  0  0  0  0  0  0  0  0  0
   10.1727  -19.2163   26.0192 C   0  0  0  0  0  0  0  0  0  0  0  0
   12.2283  -17.4266   22.0279 O   0  0  0  0  0  0  0  0  0  0  0  0
   13.5854  -17.6088   22.2821 O   0  0  0  0  0  0  0  0  0  0  0  0
   11.7816  -18.4491   27.4728 O   0  0  0  0  0  0  0  0  0  0  0  0
  1  2  1  0
  3  4  1  6
  3  2  1  0
  5  6  1  1
  5  3  1  0
  7  5  1  0
  8  7  2  0
  9 10  1  0
 10 12  1  0
 11 10  2  0
 12 13  1  0
 13 14  1  0
 14 15  1  0
 16 15  1  6
 16 18  1  0
 16 17  1  0
 17  7  1  0
 18 19  2  0
 20 21  1  0
 20 18  1  0
 22 23  1  0
 21 22  1  1
 24 25  2  0
 24 23  1  0
 26 27  1  0
 26 21  1  0
 28 24  1  0
 29 26  2  0
M  END
$$$$
