THK.pdb
     RDKit          3D

 27 27  0  0  1  0  0  0  0  0999 V2000
   10.7444  -19.5101   21.5138 C   0  0  0  0  0  0  0  0  0  0  0  0
   11.9141  -18.9771   20.7150 C   0  0  1  0  0  0  0  0  0  0  0  0
   12.5189  -19.9580   19.9451 O   0  0  0  0  0  0  0  0  0  0  0  0
   11.5128  -17.8331   19.8151 C   0  0  2  0  0  0  0  0  0  0  0  0
   12.5705  -17.3873   18.9570 N   0  0  0  0  0  0  0  0  0  0  0  0
   10.8894  -16.7198   20.5763 C   0  0  0  0  0  0  0  0  0  0  0  0
   11.6600  -15.8618   21.0862 O   0  0  0  0  0  0  0  0  0  0  0  0
    9.5140  -16.5656   20.7608 N   0  0  0  0  0  0  0  0  0  0  0  0
    8.9346  -15.4367   21.5766 C   0  0  1  0  0  0  0  0  0  0  0  0
    7.6298  -15.1778   20.9370 C   0  0  0  0  0  0  0  0  0  0  0  0
    7.5566  -14.5339   19.6439 C   0  0  0  0  0  0  0  0  0  0  0  0
    7.9602  -13.1801   19.5382 C   0  0  0  0  0  0  0  0  0  0  0  0
    7.8177  -12.7862   18.2871 N   0  0  0  0  0  0  0  0  0  0  0  0
    7.3425  -13.8184   17.5819 C   0  0  0  0  0  0  0  0  0  0  0  0
    7.1917  -14.8614   18.4152 N   0  0  0  0  0  0  0  0  0  0  0  0
    8.8171  -15.9383   22.9667 C   0  0  0  0  0  0  0  0  0  0  0  0
    8.5318  -17.1860   23.1100 O   0  0  0  0  0  0  0  0  0  0  0  0
    8.9865  -15.2078   24.1475 N   0  0  0  0  0  0  0  0  0  0  0  0
    8.8742  -15.8261   25.4797 C   0  0  1  0  0  0  0  0  0  0  0  0
    9.2087  -14.7401   26.4693 C   0  0  0  0  0  0  0  0  0  0  0  0
    9.0953  -15.1402   27.9035 C   0  0  0  0  0  0  0  0  0  0  0  0
   10.1464  -14.4908   28.7773 C   0  0  0  0  0  0  0  0  0  0  0  0
    9.9115  -14.8350   30.2249 C   0  0  0  0  0  0  0  0  0  0  0  0
   10.9185  -14.1727   31.0395 N   0  0  0  0  0  0  0  0  0  0  0  0
    7.5083  -16.3475   25.6780 C   0  0  0  0  0  0  0  0  0  0  0  0
    7.1857  -17.4057   26.4993 O   0  0  0  0  0  0  0  0  0  0  0  0
    6.5516  -15.8023   25.0607 O   0  0  0  0  0  0  0  0  0  0  0  0
  2  1  1  6
  2  3  1  0
  4  2  1  0
  4  5  1  1
  6  7  2  0
  6  4  1  0
  8  6  1  0
  9  8  1  0
  9 10  1  6
 11 10  1  0
 12 11  2  0
 13 14  1  0
 13 12  1  0
 14 15  2  0
 15 11  1  0
 16  9  1  0
 17 16  2  0
 18 16  1  0
 19 18  1  0
 19 20  1  1
 21 22  1  0
 21 20  1  0
 23 24  1  0
 23 22  1  0
 25 26  1  0
 25 19  1  0
 27 25  2  0
M  END
$$$$
