THK.pdb
     RDKit          3D

 27 27  0  0  1  0  0  0  0  0999 V2000
    9.6433  -12.7283   19.2668 C   0  0  0  0  0  0  0  0  0  0  0  0
    8.5332  -13.2532   18.3822 C   0  0  1  0  0  0  0  0  0  0  0  0
    8.5156  -12.6427   17.1382 O   0  0  0  0  0  0  0  0  0  0  0  0
    8.6209  -14.7479   18.1877 C   0  0  2  0  0  0  0  0  0  0  0  0
    7.6219  -15.2648   17.2995 N   0  0  0  0  0  0  0  0  0  0  0  0
    8.6630  -15.4750   19.4826 C   0  0  0  0  0  0  0  0  0  0  0  0
    7.5658  -15.6819   20.0686 O   0  0  0  0  0  0  0  0  0  0  0  0
    9.8329  -15.9402   20.0865 N   0  0  0  0  0  0  0  0  0  0  0  0
    9.8113  -16.7715   21.3451 C   0  0  1  0  0  0  0  0  0  0  0  0
   11.0772  -17.5282   21.2854 C   0  0  0  0  0  0  0  0  0  0  0  0
   11.4452  -18.4362   22.3493 C   0  0  0  0  0  0  0  0  0  0  0  0
   10.4988  -18.7028   23.3690 C   0  0  0  0  0  0  0  0  0  0  0  0
   11.0265  -19.5477   24.2341 N   0  0  0  0  0  0  0  0  0  0  0  0
   12.2652  -19.8386   23.8226 C   0  0  0  0  0  0  0  0  0  0  0  0
   12.4997  -19.1604   22.6867 N   0  0  0  0  0  0  0  0  0  0  0  0
    9.7507  -15.8183   22.4790 C   0  0  0  0  0  0  0  0  0  0  0  0
   10.5783  -14.8318   22.4511 O   0  0  0  0  0  0  0  0  0  0  0  0
    8.8889  -15.8656   23.5797 N   0  0  0  0  0  0  0  0  0  0  0  0
    8.9770  -14.9035   24.6915 C   0  0  1  0  0  0  0  0  0  0  0  0
    7.6236  -14.2469   24.7787 C   0  0  0  0  0  0  0  0  0  0  0  0
    7.4856  -13.2337   25.8669 C   0  0  0  0  0  0  0  0  0  0  0  0
    6.0954  -12.6404   25.9416 C   0  0  0  0  0  0  0  0  0  0  0  0
    6.0292  -11.5925   27.0217 C   0  0  0  0  0  0  0  0  0  0  0  0
    4.6600  -11.1144   27.1356 N   0  0  0  0  0  0  0  0  0  0  0  0
    9.3261  -15.6087   25.9397 C   0  0  0  0  0  0  0  0  0  0  0  0
    9.3755  -16.9788   26.0774 O   0  0  0  0  0  0  0  0  0  0  0  0
    9.6012  -14.9295   26.9675 O   0  0  0  0  0  0  0  0  0  0  0  0
  2  1  1  1
  2  3  1  0
  4  2  1  0
  4  5  1  6
  6  7  2  0
  6  4  1  0
  8  6  1  0
  9  8  1  0
  9 10  1  1
 11 10  1  0
 12 11  2  0
 13 14  1  0
 13 12  1  0
 14 15  2  0
 15 11  1  0
 16  9  1  0
 17 16  2  0
 18 16  1  0
 19 18  1  0
 19 20  1  1
 21 22  1  0
 21 20  1  0
 23 24  1  0
 23 22  1  0
 25 26  1  0
 25 19  1  0
 27 25  2  0
M  END
$$$$
