THK.pdb
     RDKit          3D

 27 27  0  0  1  0  0  0  0  0999 V2000
    7.1894  -16.4017   19.6525 C   0  0  0  0  0  0  0  0  0  0  0  0
    8.0500  -15.3960   18.9188 C   0  0  1  0  0  0  0  0  0  0  0  0
    7.8340  -15.4147   17.5500 O   0  0  0  0  0  0  0  0  0  0  0  0
    7.8360  -13.9896   19.4244 C   0  0  2  0  0  0  0  0  0  0  0  0
    8.3263  -12.9833   18.5294 N   0  0  0  0  0  0  0  0  0  0  0  0
    8.3417  -13.8144   20.8103 C   0  0  0  0  0  0  0  0  0  0  0  0
    9.5892  -13.7163   20.9654 O   0  0  0  0  0  0  0  0  0  0  0  0
    7.5279  -13.7521   21.9433 N   0  0  0  0  0  0  0  0  0  0  0  0
    8.0958  -13.6057   23.3331 C   0  0  1  0  0  0  0  0  0  0  0  0
    7.0329  -12.8960   24.0715 C   0  0  0  0  0  0  0  0  0  0  0  0
    7.1308  -12.7024   25.5015 C   0  0  0  0  0  0  0  0  0  0  0  0
    5.9537  -12.3869   26.2238 C   0  0  0  0  0  0  0  0  0  0  0  0
    6.2568  -12.2527   27.5008 N   0  0  0  0  0  0  0  0  0  0  0  0
    7.5700  -12.4659   27.6371 C   0  0  0  0  0  0  0  0  0  0  0  0
    8.0792  -12.7351   26.4233 N   0  0  0  0  0  0  0  0  0  0  0  0
    8.3418  -14.9790   23.8347 C   0  0  0  0  0  0  0  0  0  0  0  0
    7.4278  -15.8547   23.5972 O   0  0  0  0  0  0  0  0  0  0  0  0
    9.4623  -15.4359   24.5363 N   0  0  0  0  0  0  0  0  0  0  0  0
    9.5844  -16.8264   25.0069 C   0  0  1  0  0  0  0  0  0  0  0  0
   10.8859  -17.3398   24.4473 C   0  0  0  0  0  0  0  0  0  0  0  0
   11.2352  -18.7352   24.8479 C   0  0  0  0  0  0  0  0  0  0  0  0
   12.5304  -19.2150   24.2295 C   0  0  0  0  0  0  0  0  0  0  0  0
   12.8536  -20.6081   24.7026 C   0  0  0  0  0  0  0  0  0  0  0  0
   13.9804  -21.1194   23.9377 N   0  0  0  0  0  0  0  0  0  0  0  0
    9.5698  -16.8607   26.4819 C   0  0  0  0  0  0  0  0  0  0  0  0
    9.2209  -17.9597   27.2362 O   0  0  0  0  0  0  0  0  0  0  0  0
    9.8946  -15.8208   27.1195 O   0  0  0  0  0  0  0  0  0  0  0  0
  2  1  1  1
  2  3  1  0
  4  2  1  0
  4  5  1  6
  6  7  2  0
  6  4  1  0
  8  6  1  0
  9  8  1  0
  9 10  1  1
 11 10  1  0
 12 11  2  0
 13 14  1  0
 13 12  1  0
 14 15  2  0
 15 11  1  0
 16  9  1  0
 17 16  2  0
 18 16  1  0
 19 18  1  0
 19 20  1  1
 21 22  1  0
 21 20  1  0
 23 24  1  0
 23 22  1  0
 25 26  1  0
 25 19  1  0
 27 25  2  0
M  END
$$$$
