THK.pdb
     RDKit          3D

 27 27  0  0  1  0  0  0  0  0999 V2000
   14.0015  -17.6516   17.6324 C   0  0  0  0  0  0  0  0  0  0  0  0
   14.7694  -16.3680   17.4019 C   0  0  1  0  0  0  0  0  0  0  0  0
   15.4836  -16.3855   16.2143 O   0  0  0  0  0  0  0  0  0  0  0  0
   13.8668  -15.1577   17.4071 C   0  0  2  0  0  0  0  0  0  0  0  0
   14.5436  -13.9428   17.0609 N   0  0  0  0  0  0  0  0  0  0  0  0
   13.1006  -15.0415   18.6747 C   0  0  0  0  0  0  0  0  0  0  0  0
   13.6885  -14.5254   19.6636 O   0  0  0  0  0  0  0  0  0  0  0  0
   11.7801  -15.4650   18.8380 N   0  0  0  0  0  0  0  0  0  0  0  0
   11.0197  -15.2470   20.1225 C   0  0  1  0  0  0  0  0  0  0  0  0
    9.6057  -15.3610   19.7147 C   0  0  0  0  0  0  0  0  0  0  0  0
    8.8878  -14.2108   19.2113 C   0  0  0  0  0  0  0  0  0  0  0  0
    9.4067  -12.9198   19.4770 C   0  0  0  0  0  0  0  0  0  0  0  0
    8.6107  -12.0175   18.9356 N   0  0  0  0  0  0  0  0  0  0  0  0
    7.6052  -12.6628   18.3348 C   0  0  0  0  0  0  0  0  0  0  0  0
    7.7888  -13.9820   18.5112 N   0  0  0  0  0  0  0  0  0  0  0  0
   11.4497  -16.3175   21.0537 C   0  0  0  0  0  0  0  0  0  0  0  0
   11.2677  -17.5315   20.6642 O   0  0  0  0  0  0  0  0  0  0  0  0
   12.0385  -16.1584   22.3125 N   0  0  0  0  0  0  0  0  0  0  0  0
   12.4711  -17.3043   23.1307 C   0  0  1  0  0  0  0  0  0  0  0  0
   13.8985  -17.0190   23.5204 C   0  0  0  0  0  0  0  0  0  0  0  0
   14.5422  -18.0709   24.3623 C   0  0  0  0  0  0  0  0  0  0  0  0
   15.9755  -17.7402   24.7180 C   0  0  0  0  0  0  0  0  0  0  0  0
   16.6029  -18.8776   25.4808 C   0  0  0  0  0  0  0  0  0  0  0  0
   18.0341  -18.6418   25.5919 N   0  0  0  0  0  0  0  0  0  0  0  0
   11.5961  -17.4375   24.3112 C   0  0  0  0  0  0  0  0  0  0  0  0
   11.5000  -18.5694   25.0910 O   0  0  0  0  0  0  0  0  0  0  0  0
   10.8741  -16.4586   24.6489 O   0  0  0  0  0  0  0  0  0  0  0  0
  2  1  1  6
  2  3  1  0
  4  2  1  0
  4  5  1  1
  6  7  2  0
  6  4  1  0
  8  6  1  0
  9  8  1  0
  9 10  1  6
 11 10  1  0
 12 11  2  0
 13 14  1  0
 13 12  1  0
 14 15  2  0
 15 11  1  0
 16  9  1  0
 17 16  2  0
 18 16  1  0
 19 18  1  0
 19 20  1  1
 21 22  1  0
 21 20  1  0
 23 24  1  0
 23 22  1  0
 25 26  1  0
 25 19  1  0
 27 25  2  0
M  END
$$$$
