THK.pdb
     RDKit          3D

 27 27  0  0  1  0  0  0  0  0999 V2000
    4.9705  -18.6770   22.9266 C   0  0  0  0  0  0  0  0  0  0  0  0
    5.6852  -19.4503   21.8397 C   0  0  1  0  0  0  0  0  0  0  0  0
    4.8689  -20.3963   21.2402 O   0  0  0  0  0  0  0  0  0  0  0  0
    6.2422  -18.5425   20.7696 C   0  0  2  0  0  0  0  0  0  0  0  0
    6.7562  -19.2508   19.6347 N   0  0  0  0  0  0  0  0  0  0  0  0
    7.2171  -17.5665   21.3212 C   0  0  0  0  0  0  0  0  0  0  0  0
    8.4313  -17.9063   21.3410 O   0  0  0  0  0  0  0  0  0  0  0  0
    6.8753  -16.3061   21.8153 N   0  0  0  0  0  0  0  0  0  0  0  0
    7.9015  -15.3665   22.3983 C   0  0  1  0  0  0  0  0  0  0  0  0
    7.5541  -14.0596   21.8067 C   0  0  0  0  0  0  0  0  0  0  0  0
    7.9691  -13.7243   20.4623 C   0  0  0  0  0  0  0  0  0  0  0  0
    6.9840  -13.3050   19.5348 C   0  0  0  0  0  0  0  0  0  0  0  0
    7.5649  -13.0492   18.3781 N   0  0  0  0  0  0  0  0  0  0  0  0
    8.8746  -13.2828   18.5143 C   0  0  0  0  0  0  0  0  0  0  0  0
    9.0992  -13.6882   19.7754 N   0  0  0  0  0  0  0  0  0  0  0  0
    7.7250  -15.4099   23.8696 C   0  0  0  0  0  0  0  0  0  0  0  0
    6.5145  -15.4616   24.3064 O   0  0  0  0  0  0  0  0  0  0  0  0
    8.7292  -15.4060   24.8432 N   0  0  0  0  0  0  0  0  0  0  0  0
    8.6437  -16.2216   26.0669 C   0  0  1  0  0  0  0  0  0  0  0  0
    8.5362  -17.6516   25.6043 C   0  0  0  0  0  0  0  0  0  0  0  0
    8.4793  -18.6641   26.7004 C   0  0  0  0  0  0  0  0  0  0  0  0
    8.4180  -20.0847   26.1826 C   0  0  0  0  0  0  0  0  0  0  0  0
    8.4937  -21.0637   27.3250 C   0  0  0  0  0  0  0  0  0  0  0  0
    8.3318  -22.4127   26.8053 N   0  0  0  0  0  0  0  0  0  0  0  0
    9.8410  -16.0032   26.9009 C   0  0  0  0  0  0  0  0  0  0  0  0
    9.8782  -16.1479   28.2707 O   0  0  0  0  0  0  0  0  0  0  0  0
   10.9188  -15.6573   26.3422 O   0  0  0  0  0  0  0  0  0  0  0  0
  2  1  1  1
  2  3  1  0
  4  2  1  0
  4  5  1  6
  6  7  2  0
  6  4  1  0
  8  6  1  0
  9  8  1  0
  9 10  1  6
 11 10  1  0
 12 11  2  0
 13 14  1  0
 13 12  1  0
 14 15  2  0
 15 11  1  0
 16  9  1  0
 17 16  2  0
 18 16  1  0
 19 18  1  0
 19 20  1  6
 21 22  1  0
 21 20  1  0
 23 24  1  0
 23 22  1  0
 25 26  1  0
 25 19  1  0
 27 25  2  0
M  END
$$$$
