THK.pdb
     RDKit          3D

 27 27  0  0  1  0  0  0  0  0999 V2000
   10.3296  -24.0454   14.1491 C   0  0  0  0  0  0  0  0  0  0  0  0
   10.2716  -23.0979   12.9704 C   0  0  1  0  0  0  0  0  0  0  0  0
   10.0687  -23.7600   11.7698 O   0  0  0  0  0  0  0  0  0  0  0  0
    9.1954  -22.0519   13.1351 C   0  0  2  0  0  0  0  0  0  0  0  0
    8.9671  -21.2800   11.9494 N   0  0  0  0  0  0  0  0  0  0  0  0
    9.4249  -21.2026   14.3323 C   0  0  0  0  0  0  0  0  0  0  0  0
   10.3855  -20.3868   14.2903 O   0  0  0  0  0  0  0  0  0  0  0  0
    8.6491  -21.2509   15.4923 N   0  0  0  0  0  0  0  0  0  0  0  0
    8.8927  -20.3282   16.6606 C   0  0  1  0  0  0  0  0  0  0  0  0
    7.6440  -20.4180   17.4425 C   0  0  0  0  0  0  0  0  0  0  0  0
    7.5273  -19.7592   18.7248 C   0  0  0  0  0  0  0  0  0  0  0  0
    7.8693  -18.3875   18.8145 C   0  0  0  0  0  0  0  0  0  0  0  0
    7.6941  -17.9819   20.0577 N   0  0  0  0  0  0  0  0  0  0  0  0
    7.2566  -19.0236   20.7731 C   0  0  0  0  0  0  0  0  0  0  0  0
    7.1623  -20.0846   19.9542 N   0  0  0  0  0  0  0  0  0  0  0  0
   10.0745  -20.8615   17.3795 C   0  0  0  0  0  0  0  0  0  0  0  0
   10.1839  -22.1432   17.4433 O   0  0  0  0  0  0  0  0  0  0  0  0
   11.0930  -20.1270   17.9958 N   0  0  0  0  0  0  0  0  0  0  0  0
   12.1907  -20.7708   18.7376 C   0  0  1  0  0  0  0  0  0  0  0  0
   13.3953  -19.8864   18.5440 C   0  0  0  0  0  0  0  0  0  0  0  0
   14.6739  -20.4396   19.0817 C   0  0  0  0  0  0  0  0  0  0  0  0
   15.8731  -19.5831   18.7372 C   0  0  0  0  0  0  0  0  0  0  0  0
   17.1441  -20.2529   19.1901 C   0  0  0  0  0  0  0  0  0  0  0  0
   18.2802  -19.4460   18.7727 N   0  0  0  0  0  0  0  0  0  0  0  0
   11.8273  -20.8988   20.1619 C   0  0  0  0  0  0  0  0  0  0  0  0
   12.4326  -21.7611   21.0499 O   0  0  0  0  0  0  0  0  0  0  0  0
   10.8980  -20.1787   20.6214 O   0  0  0  0  0  0  0  0  0  0  0  0
  2  1  1  1
  2  3  1  0
  4  2  1  0
  4  5  1  6
  6  7  2  0
  6  4  1  0
  8  6  1  0
  9  8  1  0
  9 10  1  1
 11 10  1  0
 12 11  2  0
 13 14  1  0
 13 12  1  0
 14 15  2  0
 15 11  1  0
 16  9  1  0
 17 16  2  0
 18 16  1  0
 19 18  1  0
 19 20  1  1
 21 22  1  0
 21 20  1  0
 23 24  1  0
 23 22  1  0
 25 26  1  0
 25 19  1  0
 27 25  2  0
M  END
$$$$
