THK.pdb
     RDKit          3D

 27 27  0  0  1  0  0  0  0  0999 V2000
   14.8190  -14.1390   19.1408 C   0  0  0  0  0  0  0  0  0  0  0  0
   13.6882  -14.5080   18.2052 C   0  0  1  0  0  0  0  0  0  0  0  0
   14.1154  -14.6655   16.8963 O   0  0  0  0  0  0  0  0  0  0  0  0
   12.9807  -15.7692   18.6394 C   0  0  2  0  0  0  0  0  0  0  0  0
   12.2262  -16.3875   17.5896 N   0  0  0  0  0  0  0  0  0  0  0  0
   12.1768  -15.5592   19.8711 C   0  0  0  0  0  0  0  0  0  0  0  0
   12.7432  -14.9930   20.8450 O   0  0  0  0  0  0  0  0  0  0  0  0
   10.8432  -15.9467   20.0162 N   0  0  0  0  0  0  0  0  0  0  0  0
   10.0377  -15.6080   21.2459 C   0  0  1  0  0  0  0  0  0  0  0  0
    8.6590  -15.4774   20.7349 C   0  0  0  0  0  0  0  0  0  0  0  0
    8.2502  -14.2956   20.0083 C   0  0  0  0  0  0  0  0  0  0  0  0
    8.0427  -14.3985   18.6108 C   0  0  0  0  0  0  0  0  0  0  0  0
    7.6775  -13.2201   18.1432 N   0  0  0  0  0  0  0  0  0  0  0  0
    7.6394  -12.3635   19.1695 C   0  0  0  0  0  0  0  0  0  0  0  0
    7.9871  -13.0286   20.2838 N   0  0  0  0  0  0  0  0  0  0  0  0
   10.2094  -16.7402   22.1874 C   0  0  0  0  0  0  0  0  0  0  0  0
    9.9738  -17.9189   21.7249 O   0  0  0  0  0  0  0  0  0  0  0  0
   10.6052  -16.6744   23.5274 N   0  0  0  0  0  0  0  0  0  0  0  0
   10.9900  -17.8712   24.2951 C   0  0  1  0  0  0  0  0  0  0  0  0
   12.3821  -18.2251   23.8394 C   0  0  0  0  0  0  0  0  0  0  0  0
   12.9902  -19.4000   24.5319 C   0  0  0  0  0  0  0  0  0  0  0  0
   14.4126  -19.6682   24.0902 C   0  0  0  0  0  0  0  0  0  0  0  0
   15.0035  -20.8040   24.8838 C   0  0  0  0  0  0  0  0  0  0  0  0
   16.3890  -20.9926   24.4828 N   0  0  0  0  0  0  0  0  0  0  0  0
   10.9439  -17.5773   25.7403 C   0  0  0  0  0  0  0  0  0  0  0  0
   10.8879  -18.5321   26.7321 O   0  0  0  0  0  0  0  0  0  0  0  0
   10.9539  -16.3730   26.1185 O   0  0  0  0  0  0  0  0  0  0  0  0
  2  1  1  1
  2  3  1  0
  4  2  1  0
  4  5  1  6
  6  7  2  0
  6  4  1  0
  8  6  1  0
  9  8  1  0
  9 10  1  6
 11 10  1  0
 12 11  2  0
 13 14  1  0
 13 12  1  0
 14 15  2  0
 15 11  1  0
 16  9  1  0
 17 16  2  0
 18 16  1  0
 19 18  1  0
 19 20  1  6
 21 22  1  0
 21 20  1  0
 23 24  1  0
 23 22  1  0
 25 26  1  0
 25 19  1  0
 27 25  2  0
M  END
$$$$
