THK.pdb
     RDKit          3D

 27 27  0  0  1  0  0  0  0  0999 V2000
   10.8262  -20.6319   16.8261 C   0  0  0  0  0  0  0  0  0  0  0  0
   10.9617  -19.7052   18.0149 C   0  0  1  0  0  0  0  0  0  0  0  0
   12.0679  -20.0041   18.7944 O   0  0  0  0  0  0  0  0  0  0  0  0
   11.0387  -18.2558   17.5991 C   0  0  2  0  0  0  0  0  0  0  0  0
   12.1362  -17.9741   16.7216 N   0  0  0  0  0  0  0  0  0  0  0  0
   10.9942  -17.3396   18.7678 C   0  0  0  0  0  0  0  0  0  0  0  0
   12.0611  -16.7448   19.0806 O   0  0  0  0  0  0  0  0  0  0  0  0
    9.8532  -17.0978   19.5355 N   0  0  0  0  0  0  0  0  0  0  0  0
    9.8930  -16.2663   20.7936 C   0  0  1  0  0  0  0  0  0  0  0  0
    8.5003  -15.8031   20.9500 C   0  0  0  0  0  0  0  0  0  0  0  0
    8.0441  -14.6001   20.2892 C   0  0  0  0  0  0  0  0  0  0  0  0
    8.9825  -13.8341   19.5548 C   0  0  0  0  0  0  0  0  0  0  0  0
    8.3694  -12.7879   19.0349 N   0  0  0  0  0  0  0  0  0  0  0  0
    7.0833  -12.8418   19.3976 C   0  0  0  0  0  0  0  0  0  0  0  0
    6.9062  -13.9393   20.1522 N   0  0  0  0  0  0  0  0  0  0  0  0
   10.3363  -17.1699   21.8822 C   0  0  0  0  0  0  0  0  0  0  0  0
    9.8710  -18.3707   21.8637 O   0  0  0  0  0  0  0  0  0  0  0  0
   11.2114  -16.8667   22.9305 N   0  0  0  0  0  0  0  0  0  0  0  0
   11.6667  -17.8820   23.8956 C   0  0  1  0  0  0  0  0  0  0  0  0
   13.1430  -17.6437   24.0812 C   0  0  0  0  0  0  0  0  0  0  0  0
   13.8167  -18.5813   25.0281 C   0  0  0  0  0  0  0  0  0  0  0  0
   15.0135  -19.2744   24.4136 C   0  0  0  0  0  0  0  0  0  0  0  0
   15.6516  -20.2043   25.4122 C   0  0  0  0  0  0  0  0  0  0  0  0
   16.7547  -20.9037   24.7717 N   0  0  0  0  0  0  0  0  0  0  0  0
   10.9244  -17.7395   25.1627 C   0  0  0  0  0  0  0  0  0  0  0  0
   10.0352  -16.7239   25.4393 O   0  0  0  0  0  0  0  0  0  0  0  0
   11.1016  -18.5958   26.0731 O   0  0  0  0  0  0  0  0  0  0  0  0
  2  1  1  6
  2  3  1  0
  4  2  1  0
  4  5  1  1
  6  7  2  0
  6  4  1  0
  8  6  1  0
  9  8  1  0
  9 10  1  1
 11 10  1  0
 12 11  2  0
 13 14  1  0
 13 12  1  0
 14 15  2  0
 15 11  1  0
 16  9  1  0
 17 16  2  0
 18 16  1  0
 19 18  1  0
 19 20  1  1
 21 22  1  0
 21 20  1  0
 23 24  1  0
 23 22  1  0
 25 26  1  0
 25 19  1  0
 27 25  2  0
M  END
$$$$
