THK.pdb
     RDKit          3D

 27 27  0  0  1  0  0  0  0  0999 V2000
   10.4441  -20.6269   17.8964 C   0  0  0  0  0  0  0  0  0  0  0  0
   11.5299  -20.4485   16.8574 C   0  0  1  0  0  0  0  0  0  0  0  0
   11.5786  -21.5017   15.9579 O   0  0  0  0  0  0  0  0  0  0  0  0
   11.3724  -19.1597   16.0870 C   0  0  2  0  0  0  0  0  0  0  0  0
   12.3395  -19.0010   15.0413 N   0  0  0  0  0  0  0  0  0  0  0  0
   11.3075  -17.9791   16.9866 C   0  0  0  0  0  0  0  0  0  0  0  0
   12.3522  -17.6769   17.6248 O   0  0  0  0  0  0  0  0  0  0  0  0
   10.1704  -17.1893   17.1681 N   0  0  0  0  0  0  0  0  0  0  0  0
   10.0960  -16.1203   18.2300 C   0  0  1  0  0  0  0  0  0  0  0  0
    8.8329  -15.4179   17.9302 C   0  0  0  0  0  0  0  0  0  0  0  0
    8.2934  -14.4435   18.8529 C   0  0  0  0  0  0  0  0  0  0  0  0
    9.0012  -14.1826   20.0519 C   0  0  0  0  0  0  0  0  0  0  0  0
    8.3471  -13.2715   20.7468 N   0  0  0  0  0  0  0  0  0  0  0  0
    7.2537  -12.9326   20.0553 C   0  0  0  0  0  0  0  0  0  0  0  0
    7.2382  -13.6482   18.9183 N   0  0  0  0  0  0  0  0  0  0  0  0
   10.0808  -16.8231   19.5353 C   0  0  0  0  0  0  0  0  0  0  0  0
    9.3278  -17.8642   19.6237 O   0  0  0  0  0  0  0  0  0  0  0  0
   10.7990  -16.4853   20.6870 N   0  0  0  0  0  0  0  0  0  0  0  0
   10.6818  -17.2490   21.9411 C   0  0  1  0  0  0  0  0  0  0  0  0
   11.9365  -18.0778   22.0396 C   0  0  0  0  0  0  0  0  0  0  0  0
   12.0108  -18.9655   23.2380 C   0  0  0  0  0  0  0  0  0  0  0  0
   13.3039  -19.7485   23.3073 C   0  0  0  0  0  0  0  0  0  0  0  0
   13.2450  -20.7620   24.4201 C   0  0  0  0  0  0  0  0  0  0  0  0
   14.3981  -21.6433   24.3208 N   0  0  0  0  0  0  0  0  0  0  0  0
   10.5446  -16.3235   23.0820 C   0  0  0  0  0  0  0  0  0  0  0  0
    9.9717  -16.6512   24.2915 O   0  0  0  0  0  0  0  0  0  0  0  0
   10.9739  -15.1423   22.9643 O   0  0  0  0  0  0  0  0  0  0  0  0
  2  1  1  1
  2  3  1  0
  4  2  1  0
  4  5  1  6
  6  7  2  0
  6  4  1  0
  8  6  1  0
  9  8  1  0
  9 10  1  6
 11 10  1  0
 12 11  2  0
 13 14  1  0
 13 12  1  0
 14 15  2  0
 15 11  1  0
 16  9  1  0
 17 16  2  0
 18 16  1  0
 19 18  1  0
 19 20  1  1
 21 22  1  0
 21 20  1  0
 23 24  1  0
 23 22  1  0
 25 26  1  0
 25 19  1  0
 27 25  2  0
M  END
$$$$
