THK.pdb
     RDKit          3D

 27 27  0  0  1  0  0  0  0  0999 V2000
    8.4076  -11.5199   19.1390 C   0  0  0  0  0  0  0  0  0  0  0  0
    8.6206  -12.8147   19.8930 C   0  0  1  0  0  0  0  0  0  0  0  0
    7.5962  -13.0795   20.7880 O   0  0  0  0  0  0  0  0  0  0  0  0
    8.7697  -13.9950   18.9635 C   0  0  2  0  0  0  0  0  0  0  0  0
    7.6335  -14.1958   18.1134 N   0  0  0  0  0  0  0  0  0  0  0  0
    9.1615  -15.2294   19.6915 C   0  0  0  0  0  0  0  0  0  0  0  0
    8.2979  -16.1425   19.7936 O   0  0  0  0  0  0  0  0  0  0  0  0
   10.4170  -15.4399   20.2654 N   0  0  0  0  0  0  0  0  0  0  0  0
   10.7847  -16.7388   20.9388 C   0  0  1  0  0  0  0  0  0  0  0  0
   11.6700  -17.4006   19.9606 C   0  0  0  0  0  0  0  0  0  0  0  0
   11.1374  -18.3473   19.0056 C   0  0  0  0  0  0  0  0  0  0  0  0
   11.1220  -17.9898   17.6350 C   0  0  0  0  0  0  0  0  0  0  0  0
   10.6020  -18.9824   16.9384 N   0  0  0  0  0  0  0  0  0  0  0  0
   10.2819  -19.9610   17.7917 C   0  0  0  0  0  0  0  0  0  0  0  0
   10.6113  -19.5609   19.0312 N   0  0  0  0  0  0  0  0  0  0  0  0
   11.4720  -16.3787   22.2022 C   0  0  0  0  0  0  0  0  0  0  0  0
   12.3435  -15.4326   22.1381 O   0  0  0  0  0  0  0  0  0  0  0  0
   11.2771  -16.9494   23.4643 N   0  0  0  0  0  0  0  0  0  0  0  0
   12.0016  -16.4847   24.6596 C   0  0  1  0  0  0  0  0  0  0  0  0
   11.1224  -16.8258   25.8349 C   0  0  0  0  0  0  0  0  0  0  0  0
   11.6811  -16.4501   27.1677 C   0  0  0  0  0  0  0  0  0  0  0  0
   10.7657  -16.8246   28.3130 C   0  0  0  0  0  0  0  0  0  0  0  0
   11.2904  -16.2646   29.6092 C   0  0  0  0  0  0  0  0  0  0  0  0
   10.3531  -16.5797   30.6761 N   0  0  0  0  0  0  0  0  0  0  0  0
   13.3138  -17.1539   24.7436 C   0  0  0  0  0  0  0  0  0  0  0  0
   14.4356  -16.6074   25.3280 O   0  0  0  0  0  0  0  0  0  0  0  0
   13.4422  -18.3089   24.2505 O   0  0  0  0  0  0  0  0  0  0  0  0
  2  1  1  6
  2  3  1  0
  4  2  1  0
  4  5  1  1
  6  7  2  0
  6  4  1  0
  8  6  1  0
  9  8  1  0
  9 10  1  6
 11 10  1  0
 12 11  2  0
 13 14  1  0
 13 12  1  0
 14 15  2  0
 15 11  1  0
 16  9  1  0
 17 16  2  0
 18 16  1  0
 19 18  1  0
 19 20  1  1
 21 22  1  0
 21 20  1  0
 23 24  1  0
 23 22  1  0
 25 26  1  0
 25 19  1  0
 27 25  2  0
M  END
$$$$
