THK.pdb
     RDKit          3D

 27 27  0  0  1  0  0  0  0  0999 V2000
    6.2822  -21.2680   20.2040 C   0  0  0  0  0  0  0  0  0  0  0  0
    7.2503  -20.3183   20.8756 C   0  0  1  0  0  0  0  0  0  0  0  0
    8.2496  -20.9843   21.5673 O   0  0  0  0  0  0  0  0  0  0  0  0
    7.8912  -19.3703   19.8907 C   0  0  2  0  0  0  0  0  0  0  0  0
    8.6452  -20.0360   18.8698 N   0  0  0  0  0  0  0  0  0  0  0  0
    8.6714  -18.3053   20.5720 C   0  0  0  0  0  0  0  0  0  0  0  0
    9.8977  -18.5207   20.7712 O   0  0  0  0  0  0  0  0  0  0  0  0
    8.1355  -17.0898   21.0022 N   0  0  0  0  0  0  0  0  0  0  0  0
    8.9732  -16.0419   21.6921 C   0  0  1  0  0  0  0  0  0  0  0  0
    8.1128  -14.8426   21.6784 C   0  0  0  0  0  0  0  0  0  0  0  0
    7.9937  -14.0334   20.4855 C   0  0  0  0  0  0  0  0  0  0  0  0
    8.7907  -14.3632   19.3618 C   0  0  0  0  0  0  0  0  0  0  0  0
    8.5333  -13.5108   18.3881 N   0  0  0  0  0  0  0  0  0  0  0  0
    7.6106  -12.6488   18.8285 C   0  0  0  0  0  0  0  0  0  0  0  0
    7.2979  -12.9789   20.0927 N   0  0  0  0  0  0  0  0  0  0  0  0
    9.2464  -16.5521   23.0570 C   0  0  0  0  0  0  0  0  0  0  0  0
    8.2236  -16.7774   23.8066 O   0  0  0  0  0  0  0  0  0  0  0  0
   10.4955  -16.8229   23.6252 N   0  0  0  0  0  0  0  0  0  0  0  0
   10.6406  -17.3745   24.9833 C   0  0  1  0  0  0  0  0  0  0  0  0
   10.9307  -18.8424   24.8048 C   0  0  0  0  0  0  0  0  0  0  0  0
   11.1573  -19.5969   26.0733 C   0  0  0  0  0  0  0  0  0  0  0  0
   11.4774  -21.0570   25.8368 C   0  0  0  0  0  0  0  0  0  0  0  0
   11.5152  -21.8046   27.1440 C   0  0  0  0  0  0  0  0  0  0  0  0
   11.8298  -23.2007   26.8832 N   0  0  0  0  0  0  0  0  0  0  0  0
   11.7330  -16.6817   25.6930 C   0  0  0  0  0  0  0  0  0  0  0  0
   12.5486  -15.7241   25.1306 O   0  0  0  0  0  0  0  0  0  0  0  0
   11.9556  -16.9715   26.9012 O   0  0  0  0  0  0  0  0  0  0  0  0
  2  1  1  6
  2  3  1  0
  4  2  1  0
  4  5  1  6
  6  7  2  0
  6  4  1  0
  8  6  1  0
  9  8  1  0
  9 10  1  1
 11 10  1  0
 12 11  2  0
 13 14  1  0
 13 12  1  0
 14 15  2  0
 15 11  1  0
 16  9  1  0
 17 16  2  0
 18 16  1  0
 19 18  1  0
 19 20  1  6
 21 22  1  0
 21 20  1  0
 23 24  1  0
 23 22  1  0
 25 26  1  0
 25 19  1  0
 27 25  2  0
M  END
$$$$
