THK.pdb
     RDKit          3D

 27 27  0  0  1  0  0  0  0  0999 V2000
   19.8279  -22.6803   28.5537 C   0  0  0  0  0  0  0  0  0  0  0  0
   20.4947  -21.4824   27.9129 C   0  0  1  0  0  0  0  0  0  0  0  0
   21.4253  -21.8466   26.9526 O   0  0  0  0  0  0  0  0  0  0  0  0
   19.4930  -20.5430   27.2856 C   0  0  2  0  0  0  0  0  0  0  0  0
   20.0973  -19.4079   26.6529 N   0  0  0  0  0  0  0  0  0  0  0  0
   18.4190  -20.1595   28.2379 C   0  0  0  0  0  0  0  0  0  0  0  0
   18.6277  -19.1591   28.9766 O   0  0  0  0  0  0  0  0  0  0  0  0
   17.2023  -20.8327   28.3650 N   0  0  0  0  0  0  0  0  0  0  0  0
   16.1508  -20.4103   29.3609 C   0  0  1  0  0  0  0  0  0  0  0  0
   15.0648  -19.8757   28.5161 C   0  0  0  0  0  0  0  0  0  0  0  0
   13.7840  -19.5300   29.0921 C   0  0  0  0  0  0  0  0  0  0  0  0
   13.5960  -19.7143   30.4839 C   0  0  0  0  0  0  0  0  0  0  0  0
   12.3715  -19.3421   30.8046 N   0  0  0  0  0  0  0  0  0  0  0  0
   11.7616  -18.9272   29.6891 C   0  0  0  0  0  0  0  0  0  0  0  0
   12.6271  -19.0476   28.6686 N   0  0  0  0  0  0  0  0  0  0  0  0
   15.7651  -21.6303   30.1096 C   0  0  0  0  0  0  0  0  0  0  0  0
   15.4211  -22.6550   29.4093 O   0  0  0  0  0  0  0  0  0  0  0  0
   15.7367  -21.7980   31.4980 N   0  0  0  0  0  0  0  0  0  0  0  0
   15.3441  -23.0690   32.1304 C   0  0  1  0  0  0  0  0  0  0  0  0
   16.2695  -23.2495   33.3059 C   0  0  0  0  0  0  0  0  0  0  0  0
   17.7244  -23.1876   32.9755 C   0  0  0  0  0  0  0  0  0  0  0  0
   18.6086  -23.3486   34.1931 C   0  0  0  0  0  0  0  0  0  0  0  0
   20.0554  -23.4372   33.7832 C   0  0  0  0  0  0  0  0  0  0  0  0
   20.8866  -23.4519   34.9770 N   0  0  0  0  0  0  0  0  0  0  0  0
   13.9308  -23.0062   32.5494 C   0  0  0  0  0  0  0  0  0  0  0  0
   13.1412  -24.1054   32.8082 O   0  0  0  0  0  0  0  0  0  0  0  0
   13.3845  -21.8764   32.6855 O   0  0  0  0  0  0  0  0  0  0  0  0
  2  1  1  6
  2  3  1  0
  4  2  1  0
  4  5  1  1
  6  7  2  0
  6  4  1  0
  8  6  1  0
  9  8  1  0
  9 10  1  6
 11 10  1  0
 12 11  2  0
 13 14  1  0
 13 12  1  0
 14 15  2  0
 15 11  1  0
 16  9  1  0
 17 16  2  0
 18 16  1  0
 19 18  1  0
 19 20  1  1
 21 22  1  0
 21 20  1  0
 23 24  1  0
 23 22  1  0
 25 26  1  0
 25 19  1  0
 27 25  2  0
M  END
$$$$
