THK.pdb
     RDKit          3D

 27 27  0  0  1  0  0  0  0  0999 V2000
    8.5095  -20.1205   16.8722 C   0  0  0  0  0  0  0  0  0  0  0  0
    9.0220  -18.9560   17.6918 C   0  0  1  0  0  0  0  0  0  0  0  0
    8.4964  -17.7437   17.2737 O   0  0  0  0  0  0  0  0  0  0  0  0
    8.7340  -19.1275   19.1639 C   0  0  2  0  0  0  0  0  0  0  0  0
    7.3470  -19.3478   19.4496 N   0  0  0  0  0  0  0  0  0  0  0  0
    9.3149  -18.0270   19.9755 C   0  0  0  0  0  0  0  0  0  0  0  0
   10.5480  -17.7979   19.8457 O   0  0  0  0  0  0  0  0  0  0  0  0
    8.5860  -17.2365   20.8663 N   0  0  0  0  0  0  0  0  0  0  0  0
    9.2434  -16.2003   21.7438 C   0  0  1  0  0  0  0  0  0  0  0  0
    8.2202  -15.1430   21.8618 C   0  0  0  0  0  0  0  0  0  0  0  0
    7.9920  -14.2126   20.7781 C   0  0  0  0  0  0  0  0  0  0  0  0
    8.7951  -14.3174   19.6159 C   0  0  0  0  0  0  0  0  0  0  0  0
    8.4294  -13.3856   18.7563 N   0  0  0  0  0  0  0  0  0  0  0  0
    7.4313  -12.6862   19.3067 C   0  0  0  0  0  0  0  0  0  0  0  0
    7.1817  -13.1983   20.5234 N   0  0  0  0  0  0  0  0  0  0  0  0
    9.5467  -16.8694   23.0315 C   0  0  0  0  0  0  0  0  0  0  0  0
    8.5464  -17.3553   23.6813 O   0  0  0  0  0  0  0  0  0  0  0  0
   10.8032  -17.0386   23.6223 N   0  0  0  0  0  0  0  0  0  0  0  0
   10.9878  -17.7753   24.8844 C   0  0  1  0  0  0  0  0  0  0  0  0
   11.5872  -19.1044   24.5039 C   0  0  0  0  0  0  0  0  0  0  0  0
   11.8236  -20.0371   25.6457 C   0  0  0  0  0  0  0  0  0  0  0  0
   12.3588  -21.3814   25.2024 C   0  0  0  0  0  0  0  0  0  0  0  0
   12.5274  -22.2961   26.3873 C   0  0  0  0  0  0  0  0  0  0  0  0
   12.8364  -23.6359   25.9122 N   0  0  0  0  0  0  0  0  0  0  0  0
   11.8719  -17.0128   25.7865 C   0  0  0  0  0  0  0  0  0  0  0  0
   12.5573  -15.8716   25.4309 O   0  0  0  0  0  0  0  0  0  0  0  0
   12.0281  -17.4165   26.9723 O   0  0  0  0  0  0  0  0  0  0  0  0
  2  1  1  6
  2  3  1  0
  4  2  1  0
  4  5  1  6
  6  7  2  0
  6  4  1  0
  8  6  1  0
  9  8  1  0
  9 10  1  1
 11 10  1  0
 12 11  2  0
 13 14  1  0
 13 12  1  0
 14 15  2  0
 15 11  1  0
 16  9  1  0
 17 16  2  0
 18 16  1  0
 19 18  1  0
 19 20  1  6
 21 22  1  0
 21 20  1  0
 23 24  1  0
 23 22  1  0
 25 26  1  0
 25 19  1  0
 27 25  2  0
M  END
$$$$
