THK.pdb
     RDKit          3D

 27 27  0  0  1  0  0  0  0  0999 V2000
    9.2675  -20.6743   19.8476 C   0  0  0  0  0  0  0  0  0  0  0  0
    9.5498  -20.2173   18.4327 C   0  0  1  0  0  0  0  0  0  0  0  0
    9.0700  -21.1069   17.4845 O   0  0  0  0  0  0  0  0  0  0  0  0
    8.9725  -18.8509   18.1516 C   0  0  2  0  0  0  0  0  0  0  0  0
    9.1189  -18.4423   16.7858 N   0  0  0  0  0  0  0  0  0  0  0  0
    9.4714  -17.8295   19.1082 C   0  0  0  0  0  0  0  0  0  0  0  0
   10.6729  -17.4646   18.9942 O   0  0  0  0  0  0  0  0  0  0  0  0
    8.6985  -17.2528   20.1181 N   0  0  0  0  0  0  0  0  0  0  0  0
    9.2453  -16.1929   21.0420 C   0  0  1  0  0  0  0  0  0  0  0  0
    8.1349  -15.2278   21.1618 C   0  0  0  0  0  0  0  0  0  0  0  0
    7.7671  -14.3837   20.0464 C   0  0  0  0  0  0  0  0  0  0  0  0
    8.2261  -13.0437   20.0318 C   0  0  0  0  0  0  0  0  0  0  0  0
    7.7845  -12.4507   18.9390 N   0  0  0  0  0  0  0  0  0  0  0  0
    7.0643  -13.3418   18.2492 C   0  0  0  0  0  0  0  0  0  0  0  0
    7.0650  -14.4994   18.9311 N   0  0  0  0  0  0  0  0  0  0  0  0
    9.5712  -16.8735   22.3181 C   0  0  0  0  0  0  0  0  0  0  0  0
    8.6630  -17.6404   22.8139 O   0  0  0  0  0  0  0  0  0  0  0  0
   10.7615  -16.7811   23.0469 N   0  0  0  0  0  0  0  0  0  0  0  0
   11.0169  -17.5977   24.2458 C   0  0  1  0  0  0  0  0  0  0  0  0
   12.1318  -18.5409   23.8742 C   0  0  0  0  0  0  0  0  0  0  0  0
   12.5404  -19.4874   24.9543 C   0  0  0  0  0  0  0  0  0  0  0  0
   13.6606  -20.4121   24.5296 C   0  0  0  0  0  0  0  0  0  0  0  0
   13.9985  -21.3722   25.6401 C   0  0  0  0  0  0  0  0  0  0  0  0
   15.0685  -22.2524   25.1971 N   0  0  0  0  0  0  0  0  0  0  0  0
   11.3893  -16.7267   25.3771 C   0  0  0  0  0  0  0  0  0  0  0  0
   11.2938  -17.0835   26.7045 O   0  0  0  0  0  0  0  0  0  0  0  0
   11.8274  -15.5677   25.1360 O   0  0  0  0  0  0  0  0  0  0  0  0
  2  1  1  1
  2  3  1  0
  4  2  1  0
  4  5  1  6
  6  7  2  0
  6  4  1  0
  8  6  1  0
  9  8  1  0
  9 10  1  1
 11 10  1  0
 12 11  2  0
 13 14  1  0
 13 12  1  0
 14 15  2  0
 15 11  1  0
 16  9  1  0
 17 16  2  0
 18 16  1  0
 19 18  1  0
 19 20  1  6
 21 22  1  0
 21 20  1  0
 23 24  1  0
 23 22  1  0
 25 26  1  0
 25 19  1  0
 27 25  2  0
M  END
$$$$
