HER.pdb
     RDKit          3D

 31 31  0  0  1  0  0  0  0  0999 V2000
    7.6967  -17.4091   18.1695 N   0  0  0  0  0  0  0  0  0  0  0  0
    8.8125  -16.6458   18.6605 C   0  0  1  0  0  0  0  0  0  0  0  0
    8.3785  -15.3819   19.3682 C   0  0  0  0  0  0  0  0  0  0  0  0
    7.7630  -14.3909   18.4525 C   0  0  0  0  0  0  0  0  0  0  0  0
    7.5979  -14.4499   17.0879 C   0  0  0  0  0  0  0  0  0  0  0  0
    6.9923  -13.3371   16.6428 N   0  0  0  0  0  0  0  0  0  0  0  0
    6.7633  -12.5510   17.7287 C   0  0  0  0  0  0  0  0  0  0  0  0
    7.2297  -13.1903   18.8183 N   0  0  0  0  0  0  0  0  0  0  0  0
    9.5340  -17.4618   19.6909 C   0  0  0  0  0  0  0  0  0  0  0  0
    8.9748  -18.2215   20.4976 O   0  0  0  0  0  0  0  0  0  0  0  0
   10.9482  -17.3542   19.7420 N   0  0  0  0  0  0  0  0  0  0  0  0
   11.7260  -17.9718   20.7964 C   0  0  1  0  0  0  0  0  0  0  0  0
   12.9096  -18.7026   20.3036 C   0  0  0  0  0  0  0  0  0  0  0  0
   12.8053  -19.5350   19.1000 C   0  0  0  0  0  0  0  0  0  0  0  0
   13.9906  -20.0868   18.4774 C   0  0  0  0  0  0  0  0  0  0  0  0
   15.0550  -19.4683   18.3091 O   0  0  0  0  0  0  0  0  0  0  0  0
   11.8905  -17.0442   21.9176 C   0  0  0  0  0  0  0  0  0  0  0  0
   12.0694  -15.7907   21.7175 O   0  0  0  0  0  0  0  0  0  0  0  0
   14.0253  -21.4242   17.9957 O   0  0  0  0  0  0  0  0  0  0  0  0
   10.9699  -16.5329   29.5505 N   0  0  0  0  0  0  0  0  0  0  0  0
   10.4764  -15.2110   29.4830 C   0  0  0  0  0  0  0  0  0  0  0  0
   10.7723  -14.3802   30.4173 N   0  0  0  0  0  0  0  0  0  0  0  0
    9.6569  -14.7905   28.3962 N   0  0  0  0  0  0  0  0  0  0  0  0
    9.5767  -15.6145   27.2174 C   0  0  0  0  0  0  0  0  0  0  0  0
   10.8518  -15.6276   26.4393 C   0  0  0  0  0  0  0  0  0  0  0  0
   10.7938  -16.3787   25.1820 C   0  0  0  0  0  0  0  0  0  0  0  0
   12.0294  -16.4429   24.3752 C   0  0  2  0  0  0  0  0  0  0  0  0
   11.8596  -17.4420   23.2845 N   0  0  0  0  0  0  0  0  0  0  0  0
   13.3040  -16.7152   25.0201 C   0  0  0  0  0  0  0  0  0  0  0  0
   13.9981  -15.7433   25.7184 O   0  0  0  0  0  0  0  0  0  0  0  0
   13.8853  -17.8589   24.9941 O   0  0  0  0  0  0  0  0  0  0  0  0
  2  1  1  1
  2  9  1  0
  3  2  1  0
  3  4  1  0
  4  5  2  0
  4  8  1  0
  5  6  1  0
  6  7  1  0
  8  7  2  0
  9 10  2  0
 11  9  1  0
 11 12  1  0
 12 17  1  0
 12 13  1  6
 13 14  1  0
 15 19  1  0
 15 14  1  0
 16 15  2  0
 17 18  2  0
 20 21  1  0
 21 22  2  0
 23 21  1  0
 23 24  1  0
 24 25  1  0
 25 26  1  0
 27 26  1  1
 27 29  1  0
 28 27  1  0
 28 17  1  0
 29 31  2  0
 29 30  1  0
M  END
$$$$
