HER.pdb
     RDKit          3D

 31 31  0  0  1  0  0  0  0  0999 V2000
    7.6535  -17.1541   18.7301 N   0  0  0  0  0  0  0  0  0  0  0  0
    8.8019  -16.5899   19.3871 C   0  0  1  0  0  0  0  0  0  0  0  0
    8.4410  -15.4172   20.2709 C   0  0  0  0  0  0  0  0  0  0  0  0
    8.1209  -14.1914   19.5000 C   0  0  0  0  0  0  0  0  0  0  0  0
    8.8005  -12.9965   19.4410 C   0  0  0  0  0  0  0  0  0  0  0  0
    8.1689  -12.1408   18.6211 N   0  0  0  0  0  0  0  0  0  0  0  0
    7.0712  -12.7874   18.1451 C   0  0  0  0  0  0  0  0  0  0  0  0
    7.0459  -14.0240   18.6778 N   0  0  0  0  0  0  0  0  0  0  0  0
    9.3860  -17.6243   20.3018 C   0  0  0  0  0  0  0  0  0  0  0  0
    8.7427  -18.5643   20.7949 O   0  0  0  0  0  0  0  0  0  0  0  0
   10.7647  -17.5163   20.6207 N   0  0  0  0  0  0  0  0  0  0  0  0
   11.4043  -18.4066   21.5675 C   0  0  1  0  0  0  0  0  0  0  0  0
   12.4319  -19.2732   20.9586 C   0  0  0  0  0  0  0  0  0  0  0  0
   13.1702  -20.2278   21.7929 C   0  0  0  0  0  0  0  0  0  0  0  0
   14.2297  -21.0381   21.2288 C   0  0  0  0  0  0  0  0  0  0  0  0
   14.0759  -22.1791   20.7618 O   0  0  0  0  0  0  0  0  0  0  0  0
   11.7330  -17.6876   22.8002 C   0  0  0  0  0  0  0  0  0  0  0  0
   12.8175  -17.0117   22.9019 O   0  0  0  0  0  0  0  0  0  0  0  0
   15.5713  -20.5714   21.1653 O   0  0  0  0  0  0  0  0  0  0  0  0
    9.6211  -14.2594   28.2110 N   0  0  0  0  0  0  0  0  0  0  0  0
    9.9842  -14.9898   29.3644 C   0  0  0  0  0  0  0  0  0  0  0  0
   10.8353  -14.4876   30.1853 N   0  0  0  0  0  0  0  0  0  0  0  0
    9.4206  -16.2718   29.6263 N   0  0  0  0  0  0  0  0  0  0  0  0
    9.5997  -17.3277   28.6630 C   0  0  0  0  0  0  0  0  0  0  0  0
   10.6502  -17.0076   27.6502 C   0  0  0  0  0  0  0  0  0  0  0  0
   10.4267  -17.6004   26.3285 C   0  0  0  0  0  0  0  0  0  0  0  0
   11.4583  -17.3637   25.2982 C   0  0  2  0  0  0  0  0  0  0  0  0
   10.8983  -17.6725   23.9538 N   0  0  0  0  0  0  0  0  0  0  0  0
   12.7476  -18.0292   25.3958 C   0  0  0  0  0  0  0  0  0  0  0  0
   13.9090  -17.3427   25.7024 O   0  0  0  0  0  0  0  0  0  0  0  0
   12.9159  -19.2870   25.2058 O   0  0  0  0  0  0  0  0  0  0  0  0
  2  1  1  1
  2  9  1  0
  3  2  1  0
  3  4  1  0
  4  5  2  0
  4  8  1  0
  5  6  1  0
  6  7  1  0
  8  7  2  0
  9 10  2  0
 11  9  1  0
 11 12  1  0
 12 17  1  0
 12 13  1  6
 13 14  1  0
 15 19  1  0
 15 14  1  0
 16 15  2  0
 17 18  2  0
 20 21  1  0
 21 22  2  0
 23 21  1  0
 23 24  1  0
 24 25  1  0
 25 26  1  0
 27 26  1  1
 27 29  1  0
 28 27  1  0
 28 17  1  0
 29 31  2  0
 29 30  1  0
M  END
$$$$
