HER.pdb
     RDKit          3D

 31 31  0  0  1  0  0  0  0  0999 V2000
   10.5054  -15.0947   19.7958 N   0  0  0  0  0  0  0  0  0  0  0  0
    9.2807  -15.4164   20.4780 C   0  0  1  0  0  0  0  0  0  0  0  0
    8.1357  -15.6601   19.5209 C   0  0  0  0  0  0  0  0  0  0  0  0
    7.7703  -14.4534   18.7400 C   0  0  0  0  0  0  0  0  0  0  0  0
    8.3837  -13.2225   18.6996 C   0  0  0  0  0  0  0  0  0  0  0  0
    7.7296  -12.4027   17.8610 N   0  0  0  0  0  0  0  0  0  0  0  0
    6.6837  -13.1090   17.3541 C   0  0  0  0  0  0  0  0  0  0  0  0
    6.7118  -14.3455   17.8869 N   0  0  0  0  0  0  0  0  0  0  0  0
    9.4711  -16.7046   21.2212 C   0  0  0  0  0  0  0  0  0  0  0  0
    8.5748  -17.2855   21.8534 O   0  0  0  0  0  0  0  0  0  0  0  0
   10.7623  -17.2929   21.1963 N   0  0  0  0  0  0  0  0  0  0  0  0
   11.0508  -18.5371   21.8797 C   0  0  1  0  0  0  0  0  0  0  0  0
   11.5023  -19.6134   20.9767 C   0  0  0  0  0  0  0  0  0  0  0  0
   10.7241  -19.9332   19.7749 C   0  0  0  0  0  0  0  0  0  0  0  0
   11.1520  -20.9835   18.8744 C   0  0  0  0  0  0  0  0  0  0  0  0
   10.5878  -21.2732   17.8059 O   0  0  0  0  0  0  0  0  0  0  0  0
   11.8140  -18.2808   23.1030 C   0  0  0  0  0  0  0  0  0  0  0  0
   12.8393  -17.5113   23.0932 O   0  0  0  0  0  0  0  0  0  0  0  0
   12.2892  -21.7892   19.1562 O   0  0  0  0  0  0  0  0  0  0  0  0
    9.6669  -13.1162   27.9680 N   0  0  0  0  0  0  0  0  0  0  0  0
    9.6007  -14.3844   28.5870 C   0  0  0  0  0  0  0  0  0  0  0  0
    9.9656  -14.5063   29.8128 N   0  0  0  0  0  0  0  0  0  0  0  0
    9.1369  -15.5250   27.8703 N   0  0  0  0  0  0  0  0  0  0  0  0
    9.8838  -16.7543   27.9476 C   0  0  0  0  0  0  0  0  0  0  0  0
   10.7303  -16.9878   26.7392 C   0  0  0  0  0  0  0  0  0  0  0  0
   11.4348  -18.2730   26.7245 C   0  0  0  0  0  0  0  0  0  0  0  0
   12.3170  -18.5473   25.5721 C   0  0  2  0  0  0  0  0  0  0  0  0
   11.4885  -18.8416   24.3707 N   0  0  0  0  0  0  0  0  0  0  0  0
   13.3318  -19.5846   25.6655 C   0  0  0  0  0  0  0  0  0  0  0  0
   14.5938  -19.3361   26.1752 O   0  0  0  0  0  0  0  0  0  0  0  0
   13.1480  -20.7967   25.2867 O   0  0  0  0  0  0  0  0  0  0  0  0
  2  1  1  6
  2  9  1  0
  3  2  1  0
  3  4  1  0
  4  5  2  0
  4  8  1  0
  5  6  1  0
  6  7  1  0
  8  7  2  0
  9 10  2  0
 11  9  1  0
 11 12  1  0
 12 17  1  0
 12 13  1  6
 13 14  1  0
 15 19  1  0
 15 14  1  0
 16 15  2  0
 17 18  2  0
 20 21  1  0
 21 22  2  0
 23 21  1  0
 23 24  1  0
 24 25  1  0
 25 26  1  0
 27 26  1  1
 27 29  1  0
 28 27  1  0
 28 17  1  0
 29 31  2  0
 29 30  1  0
M  END
$$$$
