HER.pdb
     RDKit          3D

 31 31  0  0  1  0  0  0  0  0999 V2000
    7.3799  -17.3147   18.7287 N   0  0  0  0  0  0  0  0  0  0  0  0
    8.5133  -16.6686   19.3342 C   0  0  1  0  0  0  0  0  0  0  0  0
    8.1746  -15.2961   19.8710 C   0  0  0  0  0  0  0  0  0  0  0  0
    7.9456  -14.2980   18.7983 C   0  0  0  0  0  0  0  0  0  0  0  0
    8.0120  -14.4549   17.4331 C   0  0  0  0  0  0  0  0  0  0  0  0
    7.7358  -13.2945   16.8162 N   0  0  0  0  0  0  0  0  0  0  0  0
    7.4883  -12.3785   17.7906 C   0  0  0  0  0  0  0  0  0  0  0  0
    7.6160  -12.9879   18.9848 N   0  0  0  0  0  0  0  0  0  0  0  0
    8.9455  -17.4749   20.5221 C   0  0  0  0  0  0  0  0  0  0  0  0
    8.1914  -18.2093   21.1798 O   0  0  0  0  0  0  0  0  0  0  0  0
   10.3064  -17.3884   20.9151 N   0  0  0  0  0  0  0  0  0  0  0  0
   10.8382  -18.1698   22.0128 C   0  0  1  0  0  0  0  0  0  0  0  0
   12.1352  -18.8048   21.7090 C   0  0  0  0  0  0  0  0  0  0  0  0
   12.8371  -19.5660   22.7484 C   0  0  0  0  0  0  0  0  0  0  0  0
   14.1377  -20.1474   22.4882 C   0  0  0  0  0  0  0  0  0  0  0  0
   15.0625  -19.5736   21.8889 O   0  0  0  0  0  0  0  0  0  0  0  0
   10.6921  -17.4405   23.2743 C   0  0  0  0  0  0  0  0  0  0  0  0
   11.1084  -16.2337   23.3920 O   0  0  0  0  0  0  0  0  0  0  0  0
   14.4639  -21.4641   22.9145 O   0  0  0  0  0  0  0  0  0  0  0  0
    5.5319  -12.6120   26.4369 N   0  0  0  0  0  0  0  0  0  0  0  0
    6.9083  -12.2965   26.3949 C   0  0  0  0  0  0  0  0  0  0  0  0
    7.2700  -11.0657   26.3244 N   0  0  0  0  0  0  0  0  0  0  0  0
    7.8956  -13.3230   26.4285 N   0  0  0  0  0  0  0  0  0  0  0  0
    7.5414  -14.6214   26.9419 C   0  0  0  0  0  0  0  0  0  0  0  0
    8.7052  -15.5569   26.9875 C   0  0  0  0  0  0  0  0  0  0  0  0
    8.9054  -16.3445   25.7678 C   0  0  0  0  0  0  0  0  0  0  0  0
   10.0811  -17.2375   25.7250 C   0  0  2  0  0  0  0  0  0  0  0  0
   10.0875  -17.9900   24.4405 N   0  0  0  0  0  0  0  0  0  0  0  0
   10.3016  -18.1989   26.7935 C   0  0  0  0  0  0  0  0  0  0  0  0
   10.6700  -17.8101   28.0692 O   0  0  0  0  0  0  0  0  0  0  0  0
   10.1791  -19.4677   26.6463 O   0  0  0  0  0  0  0  0  0  0  0  0
  2  1  1  1
  2  9  1  0
  3  2  1  0
  3  4  1  0
  4  5  2  0
  4  8  1  0
  5  6  1  0
  6  7  1  0
  8  7  2  0
  9 10  2  0
 11  9  1  0
 11 12  1  0
 12 17  1  0
 12 13  1  6
 13 14  1  0
 15 19  1  0
 15 14  1  0
 16 15  2  0
 17 18  2  0
 20 21  1  0
 21 22  2  0
 23 21  1  0
 23 24  1  0
 24 25  1  0
 25 26  1  0
 27 26  1  1
 27 29  1  0
 28 27  1  0
 28 17  1  0
 29 31  2  0
 29 30  1  0
M  END
$$$$
