HER.pdb
     RDKit          3D

 31 31  0  0  1  0  0  0  0  0999 V2000
    9.2679  -17.3809   17.0262 N   0  0  0  0  0  0  0  0  0  0  0  0
    9.9345  -16.4167   17.8597 C   0  0  1  0  0  0  0  0  0  0  0  0
    8.9703  -15.4391   18.4932 C   0  0  0  0  0  0  0  0  0  0  0  0
    8.2697  -14.5929   17.4969 C   0  0  0  0  0  0  0  0  0  0  0  0
    8.5342  -13.2985   17.1127 C   0  0  0  0  0  0  0  0  0  0  0  0
    7.6553  -12.9004   16.1788 N   0  0  0  0  0  0  0  0  0  0  0  0
    6.8146  -13.9460   15.9565 C   0  0  0  0  0  0  0  0  0  0  0  0
    7.1886  -14.9650   16.7536 N   0  0  0  0  0  0  0  0  0  0  0  0
   10.5881  -17.1398   18.9990 C   0  0  0  0  0  0  0  0  0  0  0  0
   10.0572  -18.0622   19.6377 O   0  0  0  0  0  0  0  0  0  0  0  0
   11.8990  -16.7388   19.3662 N   0  0  0  0  0  0  0  0  0  0  0  0
   12.6546  -17.4334   20.3884 C   0  0  1  0  0  0  0  0  0  0  0  0
   13.8566  -18.1151   19.8705 C   0  0  0  0  0  0  0  0  0  0  0  0
   13.7228  -19.1453   18.8346 C   0  0  0  0  0  0  0  0  0  0  0  0
   14.8933  -19.7933   18.2803 C   0  0  0  0  0  0  0  0  0  0  0  0
   14.9780  -20.2297   17.1201 O   0  0  0  0  0  0  0  0  0  0  0  0
   12.7823  -16.5969   21.5836 C   0  0  0  0  0  0  0  0  0  0  0  0
   12.9766  -15.3333   21.4883 O   0  0  0  0  0  0  0  0  0  0  0  0
   16.0736  -19.9848   19.0498 O   0  0  0  0  0  0  0  0  0  0  0  0
    9.5641  -16.6267   30.0578 N   0  0  0  0  0  0  0  0  0  0  0  0
   10.3244  -15.5052   29.6578 C   0  0  0  0  0  0  0  0  0  0  0  0
   10.8820  -14.7713   30.5528 N   0  0  0  0  0  0  0  0  0  0  0  0
   10.4784  -15.1795   28.2795 N   0  0  0  0  0  0  0  0  0  0  0  0
   10.7628  -16.2310   27.3369 C   0  0  0  0  0  0  0  0  0  0  0  0
   11.8562  -15.8682   26.3860 C   0  0  0  0  0  0  0  0  0  0  0  0
   11.7788  -16.5331   25.0820 C   0  0  0  0  0  0  0  0  0  0  0  0
   12.8105  -16.1857   24.0838 C   0  0  2  0  0  0  0  0  0  0  0  0
   12.6973  -17.0989   22.9134 N   0  0  0  0  0  0  0  0  0  0  0  0
   14.2115  -16.1468   24.4713 C   0  0  0  0  0  0  0  0  0  0  0  0
   14.7418  -15.1055   25.2121 O   0  0  0  0  0  0  0  0  0  0  0  0
   15.0615  -17.0570   24.1618 O   0  0  0  0  0  0  0  0  0  0  0  0
  2  1  1  6
  2  9  1  0
  3  2  1  0
  3  4  1  0
  4  5  2  0
  4  8  1  0
  5  6  1  0
  6  7  1  0
  8  7  2  0
  9 10  2  0
 11  9  1  0
 11 12  1  0
 12 17  1  0
 12 13  1  6
 13 14  1  0
 15 19  1  0
 15 14  1  0
 16 15  2  0
 17 18  2  0
 20 21  1  0
 21 22  2  0
 23 21  1  0
 23 24  1  0
 24 25  1  0
 25 26  1  0
 27 26  1  1
 27 29  1  0
 28 27  1  0
 28 17  1  0
 29 31  2  0
 29 30  1  0
M  END
$$$$
