HER.pdb
     RDKit          3D

 31 31  0  0  1  0  0  0  0  0999 V2000
   12.6912  -15.4069   12.9782 N   0  0  0  0  0  0  0  0  0  0  0  0
   11.8891  -16.1902   13.8793 C   0  0  1  0  0  0  0  0  0  0  0  0
   12.4667  -17.5677   14.1146 C   0  0  0  0  0  0  0  0  0  0  0  0
   11.7057  -18.3476   15.1207 C   0  0  0  0  0  0  0  0  0  0  0  0
   10.4675  -18.9376   15.0118 C   0  0  0  0  0  0  0  0  0  0  0  0
   10.1396  -19.5493   16.1614 N   0  0  0  0  0  0  0  0  0  0  0  0
   11.1745  -19.3538   17.0218 C   0  0  0  0  0  0  0  0  0  0  0  0
   12.1171  -18.6284   16.3902 N   0  0  0  0  0  0  0  0  0  0  0  0
   11.8807  -15.5181   15.2196 C   0  0  0  0  0  0  0  0  0  0  0  0
   12.8981  -15.1165   15.8063 O   0  0  0  0  0  0  0  0  0  0  0  0
   10.6246  -15.3320   15.8534 N   0  0  0  0  0  0  0  0  0  0  0  0
   10.4891  -14.5667   17.0758 C   0  0  1  0  0  0  0  0  0  0  0  0
    9.1068  -14.1241   17.3427 C   0  0  0  0  0  0  0  0  0  0  0  0
    8.8094  -13.3453   18.5499 C   0  0  0  0  0  0  0  0  0  0  0  0
    7.4729  -12.8455   18.7971 C   0  0  0  0  0  0  0  0  0  0  0  0
    6.8063  -12.1775   17.9889 O   0  0  0  0  0  0  0  0  0  0  0  0
   11.2450  -15.1993   18.1589 C   0  0  0  0  0  0  0  0  0  0  0  0
   11.4584  -16.4634   18.1651 O   0  0  0  0  0  0  0  0  0  0  0  0
    6.8010  -13.0910   20.0260 O   0  0  0  0  0  0  0  0  0  0  0  0
   19.2600  -15.7128   23.4059 N   0  0  0  0  0  0  0  0  0  0  0  0
   18.3765  -15.0216   22.5472 C   0  0  0  0  0  0  0  0  0  0  0  0
   18.7837  -13.9618   21.9459 N   0  0  0  0  0  0  0  0  0  0  0  0
   17.0446  -15.4837   22.3420 N   0  0  0  0  0  0  0  0  0  0  0  0
   16.1740  -14.7481   21.4610 C   0  0  0  0  0  0  0  0  0  0  0  0
   14.7900  -15.3089   21.4230 C   0  0  0  0  0  0  0  0  0  0  0  0
   13.8955  -14.6658   20.4562 C   0  0  0  0  0  0  0  0  0  0  0  0
   12.5223  -15.1989   20.3472 C   0  0  2  0  0  0  0  0  0  0  0  0
   11.7969  -14.4854   19.2604 N   0  0  0  0  0  0  0  0  0  0  0  0
   11.6543  -15.2123   21.5138 C   0  0  0  0  0  0  0  0  0  0  0  0
   11.8516  -16.0861   22.5682 O   0  0  0  0  0  0  0  0  0  0  0  0
   10.6469  -14.4312   21.6608 O   0  0  0  0  0  0  0  0  0  0  0  0
  2  1  1  6
  2  9  1  0
  3  2  1  0
  3  4  1  0
  4  5  2  0
  4  8  1  0
  5  6  1  0
  6  7  1  0
  8  7  2  0
  9 10  2  0
 11  9  1  0
 11 12  1  0
 12 17  1  0
 12 13  1  1
 13 14  1  0
 15 19  1  0
 15 14  1  0
 16 15  2  0
 17 18  2  0
 20 21  1  0
 21 22  2  0
 23 21  1  0
 23 24  1  0
 24 25  1  0
 25 26  1  0
 27 26  1  1
 27 29  1  0
 28 27  1  0
 28 17  1  0
 29 31  2  0
 29 30  1  0
M  END
$$$$
