HER.pdb
     RDKit          3D

 31 31  0  0  1  0  0  0  0  0999 V2000
   12.8684  -22.7109   16.1807 N   0  0  0  0  0  0  0  0  0  0  0  0
   11.7911  -23.6615   16.1133 C   0  0  1  0  0  0  0  0  0  0  0  0
   11.9418  -24.6211   14.9544 C   0  0  0  0  0  0  0  0  0  0  0  0
   11.8622  -23.9485   13.6351 C   0  0  0  0  0  0  0  0  0  0  0  0
   10.7972  -23.8508   12.7694 C   0  0  0  0  0  0  0  0  0  0  0  0
   11.1476  -23.1549   11.6757 N   0  0  0  0  0  0  0  0  0  0  0  0
   12.4505  -22.7989   11.8348 C   0  0  0  0  0  0  0  0  0  0  0  0
   12.8778  -23.2796   13.0179 N   0  0  0  0  0  0  0  0  0  0  0  0
   11.8226  -24.5087   17.3499 C   0  0  0  0  0  0  0  0  0  0  0  0
   11.0213  -25.4261   17.5890 O   0  0  0  0  0  0  0  0  0  0  0  0
   12.8368  -24.2395   18.3053 N   0  0  0  0  0  0  0  0  0  0  0  0
   12.9525  -24.9972   19.5344 C   0  0  1  0  0  0  0  0  0  0  0  0
   14.2140  -25.7554   19.6417 C   0  0  0  0  0  0  0  0  0  0  0  0
   14.5707  -26.7303   18.6051 C   0  0  0  0  0  0  0  0  0  0  0  0
   15.8219  -27.4566   18.6719 C   0  0  0  0  0  0  0  0  0  0  0  0
   15.9951  -28.5112   19.3056 O   0  0  0  0  0  0  0  0  0  0  0  0
   12.5220  -24.1859   20.6750 C   0  0  0  0  0  0  0  0  0  0  0  0
   12.9229  -22.9762   20.8143 O   0  0  0  0  0  0  0  0  0  0  0  0
   16.9853  -27.0004   17.9936 O   0  0  0  0  0  0  0  0  0  0  0  0
    4.8170  -26.6534   22.9071 N   0  0  0  0  0  0  0  0  0  0  0  0
    6.0210  -26.5206   22.1801 C   0  0  0  0  0  0  0  0  0  0  0  0
    5.9766  -26.4362   20.8989 N   0  0  0  0  0  0  0  0  0  0  0  0
    7.2786  -26.4802   22.8483 N   0  0  0  0  0  0  0  0  0  0  0  0
    7.7941  -25.2128   23.2988 C   0  0  0  0  0  0  0  0  0  0  0  0
    9.0750  -24.8428   22.6251 C   0  0  0  0  0  0  0  0  0  0  0  0
   10.0926  -24.2755   23.5145 C   0  0  0  0  0  0  0  0  0  0  0  0
   11.3566  -23.8267   22.8961 C   0  0  2  0  0  0  0  0  0  0  0  0
   11.6425  -24.6544   21.6921 N   0  0  0  0  0  0  0  0  0  0  0  0
   12.5747  -23.7766   23.6888 C   0  0  0  0  0  0  0  0  0  0  0  0
   13.5856  -22.8686   23.4285 O   0  0  0  0  0  0  0  0  0  0  0  0
   12.8134  -24.5587   24.6777 O   0  0  0  0  0  0  0  0  0  0  0  0
  2  1  1  1
  2  9  1  0
  3  2  1  0
  3  4  1  0
  4  5  2  0
  4  8  1  0
  5  6  1  0
  6  7  1  0
  8  7  2  0
  9 10  2  0
 11  9  1  0
 11 12  1  0
 12 17  1  0
 12 13  1  1
 13 14  1  0
 15 19  1  0
 15 14  1  0
 16 15  2  0
 17 18  2  0
 20 21  1  0
 21 22  2  0
 23 21  1  0
 23 24  1  0
 24 25  1  0
 25 26  1  0
 27 26  1  1
 27 29  1  0
 28 27  1  0
 28 17  1  0
 29 31  2  0
 29 30  1  0
M  END
$$$$
