HER.pdb
     RDKit          3D

 31 31  0  0  1  0  0  0  0  0999 V2000
    9.6645  -16.3667   16.1875 N   0  0  0  0  0  0  0  0  0  0  0  0
    9.0606  -15.2662   16.8896 C   0  0  1  0  0  0  0  0  0  0  0  0
    7.7395  -14.8513   16.2822 C   0  0  0  0  0  0  0  0  0  0  0  0
    7.8820  -14.3043   14.9111 C   0  0  0  0  0  0  0  0  0  0  0  0
    8.9868  -14.2834   14.0913 C   0  0  0  0  0  0  0  0  0  0  0  0
    8.6903  -13.6895   12.9240 N   0  0  0  0  0  0  0  0  0  0  0  0
    7.3822  -13.3228   12.9886 C   0  0  0  0  0  0  0  0  0  0  0  0
    6.8984  -13.6953   14.1889 N   0  0  0  0  0  0  0  0  0  0  0  0
    8.7454  -15.7058   18.2879 C   0  0  0  0  0  0  0  0  0  0  0  0
    8.1051  -15.0268   19.1063 O   0  0  0  0  0  0  0  0  0  0  0  0
    9.2120  -16.9823   18.6964 N   0  0  0  0  0  0  0  0  0  0  0  0
    8.8475  -17.5586   19.9744 C   0  0  1  0  0  0  0  0  0  0  0  0
    9.0481  -19.0191   20.0399 C   0  0  0  0  0  0  0  0  0  0  0  0
    8.9289  -19.7158   21.3255 C   0  0  0  0  0  0  0  0  0  0  0  0
    9.1743  -21.1399   21.4206 C   0  0  0  0  0  0  0  0  0  0  0  0
    9.0479  -21.8123   22.4577 O   0  0  0  0  0  0  0  0  0  0  0  0
    9.3562  -16.7304   21.0698 C   0  0  0  0  0  0  0  0  0  0  0  0
   10.5786  -16.3447   21.0940 O   0  0  0  0  0  0  0  0  0  0  0  0
    9.5928  -21.9007   20.2945 O   0  0  0  0  0  0  0  0  0  0  0  0
    5.7720  -11.6711   28.3534 N   0  0  0  0  0  0  0  0  0  0  0  0
    6.1677  -11.6756   26.9973 C   0  0  0  0  0  0  0  0  0  0  0  0
    5.5843  -10.8857   26.1688 N   0  0  0  0  0  0  0  0  0  0  0  0
    7.2012  -12.5428   26.5395 N   0  0  0  0  0  0  0  0  0  0  0  0
    7.5718  -12.5201   25.1477 C   0  0  0  0  0  0  0  0  0  0  0  0
    8.5690  -13.5774   24.8026 C   0  0  0  0  0  0  0  0  0  0  0  0
    8.1799  -14.4449   23.6872 C   0  0  0  0  0  0  0  0  0  0  0  0
    9.1502  -15.4734   23.2602 C   0  0  2  0  0  0  0  0  0  0  0  0
    8.5594  -16.2902   22.1647 N   0  0  0  0  0  0  0  0  0  0  0  0
    9.7084  -16.3946   24.2372 C   0  0  0  0  0  0  0  0  0  0  0  0
    9.1754  -17.6535   24.4505 O   0  0  0  0  0  0  0  0  0  0  0  0
   10.7228  -16.1223   24.9744 O   0  0  0  0  0  0  0  0  0  0  0  0
  2  1  1  6
  2  9  1  0
  3  2  1  0
  3  4  1  0
  4  5  2  0
  4  8  1  0
  5  6  1  0
  6  7  1  0
  8  7  2  0
  9 10  2  0
 11  9  1  0
 11 12  1  0
 12 17  1  0
 12 13  1  1
 13 14  1  0
 15 19  1  0
 15 14  1  0
 16 15  2  0
 17 18  2  0
 20 21  1  0
 21 22  2  0
 23 21  1  0
 23 24  1  0
 24 25  1  0
 25 26  1  0
 27 26  1  1
 27 29  1  0
 28 27  1  0
 28 17  1  0
 29 31  2  0
 29 30  1  0
M  END
$$$$
