HER.pdb
     RDKit          3D

 31 31  0  0  1  0  0  0  0  0999 V2000
   12.6550  -14.4852   17.3507 N   0  0  0  0  0  0  0  0  0  0  0  0
   13.2858  -15.3436   18.3171 C   0  0  1  0  0  0  0  0  0  0  0  0
   14.3438  -14.6237   19.1227 C   0  0  0  0  0  0  0  0  0  0  0  0
   15.5866  -14.3771   18.3521 C   0  0  0  0  0  0  0  0  0  0  0  0
   15.9188  -14.7835   17.0803 C   0  0  0  0  0  0  0  0  0  0  0  0
   17.1474  -14.3480   16.7574 N   0  0  0  0  0  0  0  0  0  0  0  0
   17.6144  -13.6535   17.8294 C   0  0  0  0  0  0  0  0  0  0  0  0
   16.6699  -13.6735   18.7892 N   0  0  0  0  0  0  0  0  0  0  0  0
   12.2525  -15.7888   19.3082 C   0  0  0  0  0  0  0  0  0  0  0  0
   11.2217  -15.1517   19.5767 O   0  0  0  0  0  0  0  0  0  0  0  0
   12.4732  -17.0195   19.9795 N   0  0  0  0  0  0  0  0  0  0  0  0
   11.4747  -17.6083   20.8482 C   0  0  1  0  0  0  0  0  0  0  0  0
   11.5599  -19.0792   20.9304 C   0  0  0  0  0  0  0  0  0  0  0  0
   10.6443  -19.8161   21.8085 C   0  0  0  0  0  0  0  0  0  0  0  0
   10.7592  -21.2518   21.9594 C   0  0  0  0  0  0  0  0  0  0  0  0
   11.4180  -21.8198   22.8466 O   0  0  0  0  0  0  0  0  0  0  0  0
   11.3650  -16.8411   22.0908 C   0  0  0  0  0  0  0  0  0  0  0  0
   12.3948  -16.2927   22.6220 O   0  0  0  0  0  0  0  0  0  0  0  0
   10.1037  -22.1491   21.0722 O   0  0  0  0  0  0  0  0  0  0  0  0
    5.3432  -12.6012   28.1215 N   0  0  0  0  0  0  0  0  0  0  0  0
    5.7634  -12.3636   26.7939 C   0  0  0  0  0  0  0  0  0  0  0  0
    4.9272  -11.8820   25.9457 N   0  0  0  0  0  0  0  0  0  0  0  0
    7.0977  -12.6515   26.3861 N   0  0  0  0  0  0  0  0  0  0  0  0
    7.3152  -13.4236   25.1896 C   0  0  0  0  0  0  0  0  0  0  0  0
    8.5817  -14.2141   25.2398 C   0  0  0  0  0  0  0  0  0  0  0  0
    8.8468  -15.0217   24.0457 C   0  0  0  0  0  0  0  0  0  0  0  0
   10.0955  -15.8102   24.0263 C   0  0  2  0  0  0  0  0  0  0  0  0
   10.1413  -16.6387   22.7902 N   0  0  0  0  0  0  0  0  0  0  0  0
   10.4223  -16.6798   25.1452 C   0  0  0  0  0  0  0  0  0  0  0  0
   10.6125  -18.0412   24.9884 O   0  0  0  0  0  0  0  0  0  0  0  0
   10.5563  -16.2666   26.3526 O   0  0  0  0  0  0  0  0  0  0  0  0
  2  1  1  6
  2  9  1  0
  3  2  1  0
  3  4  1  0
  4  5  2  0
  4  8  1  0
  5  6  1  0
  6  7  1  0
  8  7  2  0
  9 10  2  0
 11  9  1  0
 11 12  1  0
 12 17  1  0
 12 13  1  1
 13 14  1  0
 15 19  1  0
 15 14  1  0
 16 15  2  0
 17 18  2  0
 20 21  1  0
 21 22  2  0
 23 21  1  0
 23 24  1  0
 24 25  1  0
 25 26  1  0
 27 26  1  1
 27 29  1  0
 28 27  1  0
 28 17  1  0
 29 31  2  0
 29 30  1  0
M  END
$$$$
