HER.pdb
     RDKit          3D

 31 31  0  0  1  0  0  0  0  0999 V2000
    9.3613  -16.6201   15.1106 N   0  0  0  0  0  0  0  0  0  0  0  0
    9.0019  -15.6429   16.1029 C   0  0  1  0  0  0  0  0  0  0  0  0
    7.8946  -14.7264   15.6335 C   0  0  0  0  0  0  0  0  0  0  0  0
    7.6499  -14.8186   14.1737 C   0  0  0  0  0  0  0  0  0  0  0  0
    8.2578  -15.6224   13.2371 C   0  0  0  0  0  0  0  0  0  0  0  0
    7.7414  -15.3921   12.0191 N   0  0  0  0  0  0  0  0  0  0  0  0
    6.7909  -14.4309   12.1686 C   0  0  0  0  0  0  0  0  0  0  0  0
    6.7389  -14.0877   13.4698 N   0  0  0  0  0  0  0  0  0  0  0  0
    8.4571  -16.3578   17.3030 C   0  0  0  0  0  0  0  0  0  0  0  0
    7.2775  -16.7255   17.4214 O   0  0  0  0  0  0  0  0  0  0  0  0
    9.3533  -16.6287   18.3694 N   0  0  0  0  0  0  0  0  0  0  0  0
    8.9352  -17.3404   19.5598 C   0  0  1  0  0  0  0  0  0  0  0  0
    8.4213  -18.6961   19.2848 C   0  0  0  0  0  0  0  0  0  0  0  0
    9.2720  -19.6744   18.5981 C   0  0  0  0  0  0  0  0  0  0  0  0
    9.1866  -21.0838   18.9199 C   0  0  0  0  0  0  0  0  0  0  0  0
    9.7278  -21.6197   19.9016 O   0  0  0  0  0  0  0  0  0  0  0  0
    9.9206  -17.1668   20.6291 C   0  0  0  0  0  0  0  0  0  0  0  0
   11.1638  -17.0039   20.3621 O   0  0  0  0  0  0  0  0  0  0  0  0
    8.4513  -21.9903   18.1079 O   0  0  0  0  0  0  0  0  0  0  0  0
    8.7173  -13.8173   28.8009 N   0  0  0  0  0  0  0  0  0  0  0  0
   10.0922  -14.1293   28.7115 C   0  0  0  0  0  0  0  0  0  0  0  0
   10.8188  -14.0804   29.7699 N   0  0  0  0  0  0  0  0  0  0  0  0
   10.6801  -14.4950   27.4664 N   0  0  0  0  0  0  0  0  0  0  0  0
    9.8452  -15.0486   26.4313 C   0  0  0  0  0  0  0  0  0  0  0  0
   10.6075  -15.3589   25.1847 C   0  0  0  0  0  0  0  0  0  0  0  0
    9.8155  -15.9878   24.1237 C   0  0  0  0  0  0  0  0  0  0  0  0
   10.5552  -16.6424   23.0255 C   0  0  2  0  0  0  0  0  0  0  0  0
    9.5914  -17.1573   22.0145 N   0  0  0  0  0  0  0  0  0  0  0  0
   11.4918  -17.7152   23.3197 C   0  0  0  0  0  0  0  0  0  0  0  0
   12.8120  -17.4692   23.6526 O   0  0  0  0  0  0  0  0  0  0  0  0
   11.1804  -18.9597   23.2925 O   0  0  0  0  0  0  0  0  0  0  0  0
  2  1  1  6
  2  9  1  0
  3  2  1  0
  3  4  1  0
  4  5  2  0
  4  8  1  0
  5  6  1  0
  6  7  1  0
  8  7  2  0
  9 10  2  0
 11  9  1  0
 11 12  1  0
 12 17  1  0
 12 13  1  6
 13 14  1  0
 15 19  1  0
 15 14  1  0
 16 15  2  0
 17 18  2  0
 20 21  1  0
 21 22  2  0
 23 21  1  0
 23 24  1  0
 24 25  1  0
 25 26  1  0
 27 26  1  1
 27 29  1  0
 28 27  1  0
 28 17  1  0
 29 31  2  0
 29 30  1  0
M  END
$$$$
