HER.pdb
     RDKit          3D

 31 31  0  0  1  0  0  0  0  0999 V2000
    9.9329  -19.7383   15.3795 N   0  0  0  0  0  0  0  0  0  0  0  0
   10.9733  -19.1439   16.1751 C   0  0  1  0  0  0  0  0  0  0  0  0
   11.3839  -17.7823   15.6614 C   0  0  0  0  0  0  0  0  0  0  0  0
   10.4456  -17.2414   14.6484 C   0  0  0  0  0  0  0  0  0  0  0  0
    9.0721  -17.3117   14.6069 C   0  0  0  0  0  0  0  0  0  0  0  0
    8.6062  -16.6912   13.5110 N   0  0  0  0  0  0  0  0  0  0  0  0
    9.6873  -16.2150   12.8372 C   0  0  0  0  0  0  0  0  0  0  0  0
   10.7949  -16.5490   13.5266 N   0  0  0  0  0  0  0  0  0  0  0  0
   10.4449  -18.9142   17.5594 C   0  0  0  0  0  0  0  0  0  0  0  0
    9.3667  -19.3634   17.9791 O   0  0  0  0  0  0  0  0  0  0  0  0
   11.2335  -18.1316   18.4423 N   0  0  0  0  0  0  0  0  0  0  0  0
   11.3036  -18.4136   19.8614 C   0  0  1  0  0  0  0  0  0  0  0  0
   11.3351  -19.8555   20.1739 C   0  0  0  0  0  0  0  0  0  0  0  0
   10.1111  -20.5347   20.6131 C   0  0  0  0  0  0  0  0  0  0  0  0
   10.1570  -21.8946   21.1087 C   0  0  0  0  0  0  0  0  0  0  0  0
   10.2846  -22.2084   22.3041 O   0  0  0  0  0  0  0  0  0  0  0  0
   12.2799  -17.5338   20.5075 C   0  0  0  0  0  0  0  0  0  0  0  0
   13.5304  -17.8160   20.5001 O   0  0  0  0  0  0  0  0  0  0  0  0
   10.0559  -23.0105   20.2332 O   0  0  0  0  0  0  0  0  0  0  0  0
    9.3207  -16.8596   28.2397 N   0  0  0  0  0  0  0  0  0  0  0  0
   10.6796  -16.5244   28.4315 C   0  0  0  0  0  0  0  0  0  0  0  0
   11.1186  -16.3336   29.6238 N   0  0  0  0  0  0  0  0  0  0  0  0
   11.5649  -16.3950   27.3229 N   0  0  0  0  0  0  0  0  0  0  0  0
   11.0424  -16.5313   25.9874 C   0  0  0  0  0  0  0  0  0  0  0  0
   12.0812  -16.3004   24.9390 C   0  0  0  0  0  0  0  0  0  0  0  0
   11.5682  -16.2659   23.5664 C   0  0  0  0  0  0  0  0  0  0  0  0
   12.5371  -15.9766   22.4897 C   0  0  2  0  0  0  0  0  0  0  0  0
   11.9351  -16.3231   21.1729 N   0  0  0  0  0  0  0  0  0  0  0  0
   13.8650  -16.5678   22.5301 C   0  0  0  0  0  0  0  0  0  0  0  0
   15.0116  -15.7977   22.6094 O   0  0  0  0  0  0  0  0  0  0  0  0
   14.0832  -17.8318   22.4927 O   0  0  0  0  0  0  0  0  0  0  0  0
  2  1  1  6
  2  9  1  0
  3  2  1  0
  3  4  1  0
  4  5  2  0
  4  8  1  0
  5  6  1  0
  6  7  1  0
  8  7  2  0
  9 10  2  0
 11  9  1  0
 11 12  1  0
 12 17  1  0
 12 13  1  6
 13 14  1  0
 15 19  1  0
 15 14  1  0
 16 15  2  0
 17 18  2  0
 20 21  1  0
 21 22  2  0
 23 21  1  0
 23 24  1  0
 24 25  1  0
 25 26  1  0
 27 26  1  1
 27 29  1  0
 28 27  1  0
 28 17  1  0
 29 31  2  0
 29 30  1  0
M  END
$$$$
