HER.pdb
     RDKit          3D

 31 31  0  0  1  0  0  0  0  0999 V2000
   10.2749  -16.4058   18.4990 N   0  0  0  0  0  0  0  0  0  0  0  0
    9.2925  -15.6146   19.1901 C   0  0  1  0  0  0  0  0  0  0  0  0
    7.9487  -15.6315   18.4970 C   0  0  0  0  0  0  0  0  0  0  0  0
    7.8717  -14.6757   17.3656 C   0  0  0  0  0  0  0  0  0  0  0  0
    8.8562  -13.8776   16.8302 C   0  0  0  0  0  0  0  0  0  0  0  0
    8.3670  -13.1545   15.8098 N   0  0  0  0  0  0  0  0  0  0  0  0
    7.0545  -13.4876   15.6835 C   0  0  0  0  0  0  0  0  0  0  0  0
    6.7597  -14.4055   16.6238 N   0  0  0  0  0  0  0  0  0  0  0  0
    9.0598  -16.2161   20.5436 C   0  0  0  0  0  0  0  0  0  0  0  0
    8.2782  -15.7527   21.3892 O   0  0  0  0  0  0  0  0  0  0  0  0
    9.7832  -17.3916   20.8735 N   0  0  0  0  0  0  0  0  0  0  0  0
    9.5943  -18.0791   22.1345 C   0  0  1  0  0  0  0  0  0  0  0  0
   10.0599  -19.4793   22.1168 C   0  0  0  0  0  0  0  0  0  0  0  0
   11.4289  -19.7992   22.5361 C   0  0  0  0  0  0  0  0  0  0  0  0
   11.8687  -21.1752   22.6382 C   0  0  0  0  0  0  0  0  0  0  0  0
   12.2137  -21.8814   21.6759 O   0  0  0  0  0  0  0  0  0  0  0  0
    9.9986  -17.2190   23.2487 C   0  0  0  0  0  0  0  0  0  0  0  0
   11.1304  -16.6171   23.2419 O   0  0  0  0  0  0  0  0  0  0  0  0
   11.9408  -21.8434   23.8913 O   0  0  0  0  0  0  0  0  0  0  0  0
    4.7684  -11.9842   26.6502 N   0  0  0  0  0  0  0  0  0  0  0  0
    6.1543  -11.8263   26.4265 C   0  0  0  0  0  0  0  0  0  0  0  0
    6.6347  -10.6463   26.2611 N   0  0  0  0  0  0  0  0  0  0  0  0
    7.0216  -12.9556   26.3813 N   0  0  0  0  0  0  0  0  0  0  0  0
    8.3665  -12.8286   26.8812 C   0  0  0  0  0  0  0  0  0  0  0  0
    9.1037  -14.1279   26.8801 C   0  0  0  0  0  0  0  0  0  0  0  0
    8.8251  -14.9885   25.7267 C   0  0  0  0  0  0  0  0  0  0  0  0
    9.7000  -16.1625   25.5323 C   0  0  2  0  0  0  0  0  0  0  0  0
    9.1908  -16.9794   24.3966 N   0  0  0  0  0  0  0  0  0  0  0  0
    9.9549  -17.0691   26.6403 C   0  0  0  0  0  0  0  0  0  0  0  0
    9.6244  -18.4115   26.5842 O   0  0  0  0  0  0  0  0  0  0  0  0
   10.4953  -16.7074   27.7466 O   0  0  0  0  0  0  0  0  0  0  0  0
  2  1  1  6
  2  9  1  0
  3  2  1  0
  3  4  1  0
  4  5  2  0
  4  8  1  0
  5  6  1  0
  6  7  1  0
  8  7  2  0
  9 10  2  0
 11  9  1  0
 11 12  1  0
 12 17  1  0
 12 13  1  6
 13 14  1  0
 15 19  1  0
 15 14  1  0
 16 15  2  0
 17 18  2  0
 20 21  1  0
 21 22  2  0
 23 21  1  0
 23 24  1  0
 24 25  1  0
 25 26  1  0
 27 26  1  1
 27 29  1  0
 28 27  1  0
 28 17  1  0
 29 31  2  0
 29 30  1  0
M  END
$$$$
