MDE.pdb
     RDKit          3D

 26 25  0  0  1  0  0  0  0  0999 V2000
    7.9893  -11.6352   20.9774 C   0  0  0  0  0  0  0  0  0  0  0  0
    7.3377  -12.5252   19.5870 S   0  0  0  0  0  0  0  0  0  0  0  0
    7.2132  -14.2825   19.7159 C   0  0  0  0  0  0  0  0  0  0  0  0
    8.4637  -15.0164   19.9988 C   0  0  0  0  0  0  0  0  0  0  0  0
    8.7489  -16.1637   19.1278 C   0  0  2  0  0  0  0  0  0  0  0  0
    7.7108  -17.1323   19.0670 N   0  0  0  0  0  0  0  0  0  0  0  0
   10.0236  -16.8245   19.5437 C   0  0  0  0  0  0  0  0  0  0  0  0
    9.9875  -17.7004   20.4243 O   0  0  0  0  0  0  0  0  0  0  0  0
   11.2416  -16.4652   18.9524 N   0  0  0  0  0  0  0  0  0  0  0  0
   12.4729  -17.1497   19.4282 C   0  0  1  0  0  0  0  0  0  0  0  0
   13.4218  -17.1663   18.2666 C   0  0  0  0  0  0  0  0  0  0  0  0
   14.7543  -17.6505   18.4392 C   0  0  0  0  0  0  0  0  0  0  0  0
   15.8427  -17.1516   18.1054 O   0  0  0  0  0  0  0  0  0  0  0  0
   12.9238  -16.3561   20.5917 C   0  0  0  0  0  0  0  0  0  0  0  0
   13.0216  -15.0838   20.4343 O   0  0  0  0  0  0  0  0  0  0  0  0
   14.9096  -18.9085   19.0981 O   0  0  0  0  0  0  0  0  0  0  0  0
   13.2603  -16.8150   21.8686 N   0  0  0  0  0  0  0  0  0  0  0  0
   13.6962  -15.9018   22.9216 C   0  0  1  0  0  0  0  0  0  0  0  0
   12.8202  -16.1376   24.1160 C   0  0  0  0  0  0  0  0  0  0  0  0
   12.8456  -17.5809   24.5382 C   0  0  0  0  0  0  0  0  0  0  0  0
   12.0525  -17.7196   25.7828 C   0  0  0  0  0  0  0  0  0  0  0  0
   11.5621  -16.7099   26.3252 O   0  0  0  0  0  0  0  0  0  0  0  0
   15.1113  -16.1050   23.2633 C   0  0  0  0  0  0  0  0  0  0  0  0
   15.7713  -15.2316   24.0997 O   0  0  0  0  0  0  0  0  0  0  0  0
   11.8345  -18.9473   26.3713 O   0  0  0  0  0  0  0  0  0  0  0  0
   15.7253  -17.0817   22.7902 O   0  0  0  0  0  0  0  0  0  0  0  0
  2  1  1  0
  3  2  1  0
  4  3  1  0
  4  5  1  0
  5  6  1  1
  5  7  1  0
  7  8  2  0
  9  7  1  0
  9 10  1  0
 11 12  1  0
 10 11  1  6
 12 16  1  0
 13 12  2  0
 14 10  1  0
 14 15  2  0
 17 14  1  0
 18 17  1  0
 18 23  1  0
 18 19  1  1
 20 19  1  0
 20 21  1  0
 21 25  1  0
 22 21  2  0
 23 24  1  0
 26 23  2  0
M  END
$$$$
