MDE.pdb
     RDKit          3D

 26 25  0  0  1  0  0  0  0  0999 V2000
    6.4422  -10.8694   27.1615 C   0  0  0  0  0  0  0  0  0  0  0  0
    6.8333  -12.5727   26.8527 S   0  0  0  0  0  0  0  0  0  0  0  0
    6.4215  -13.2411   25.2704 C   0  0  0  0  0  0  0  0  0  0  0  0
    7.0372  -14.5369   24.9178 C   0  0  0  0  0  0  0  0  0  0  0  0
    8.2495  -14.4711   24.0917 C   0  0  2  0  0  0  0  0  0  0  0  0
    8.0757  -13.8263   22.8373 N   0  0  0  0  0  0  0  0  0  0  0  0
    8.8025  -15.8428   23.8748 C   0  0  0  0  0  0  0  0  0  0  0  0
    8.4749  -16.7535   24.6540 O   0  0  0  0  0  0  0  0  0  0  0  0
    9.6763  -16.1017   22.8109 N   0  0  0  0  0  0  0  0  0  0  0  0
   10.2478  -17.4700   22.6992 C   0  0  1  0  0  0  0  0  0  0  0  0
   10.9355  -17.5323   21.3676 C   0  0  0  0  0  0  0  0  0  0  0  0
   11.6787  -18.6955   21.0010 C   0  0  0  0  0  0  0  0  0  0  0  0
   11.3897  -19.9004   21.0989 O   0  0  0  0  0  0  0  0  0  0  0  0
   11.1406  -17.6060   23.8702 C   0  0  0  0  0  0  0  0  0  0  0  0
   12.1142  -16.7722   23.9683 O   0  0  0  0  0  0  0  0  0  0  0  0
   12.9689  -18.4887   20.4235 O   0  0  0  0  0  0  0  0  0  0  0  0
   11.0616  -18.5378   24.9094 N   0  0  0  0  0  0  0  0  0  0  0  0
   12.0464  -18.5698   25.9873 C   0  0  1  0  0  0  0  0  0  0  0  0
   11.3291  -18.9651   27.2438 C   0  0  0  0  0  0  0  0  0  0  0  0
   12.1942  -19.8282   28.1205 C   0  0  0  0  0  0  0  0  0  0  0  0
   11.4418  -20.1423   29.3584 C   0  0  0  0  0  0  0  0  0  0  0  0
   10.2709  -19.7372   29.4958 O   0  0  0  0  0  0  0  0  0  0  0  0
   13.1407  -19.5063   25.6938 C   0  0  0  0  0  0  0  0  0  0  0  0
   14.3656  -19.3817   26.3118 O   0  0  0  0  0  0  0  0  0  0  0  0
   12.0015  -20.8794   30.3805 O   0  0  0  0  0  0  0  0  0  0  0  0
   12.9597  -20.4278   24.8736 O   0  0  0  0  0  0  0  0  0  0  0  0
  2  1  1  0
  3  2  1  0
  4  3  1  0
  4  5  1  0
  5  6  1  6
  5  7  1  0
  7  8  2  0
  9  7  1  0
  9 10  1  0
 11 12  1  0
 10 11  1  6
 12 16  1  0
 13 12  2  0
 14 10  1  0
 14 15  2  0
 17 14  1  0
 18 17  1  0
 18 23  1  0
 18 19  1  1
 20 19  1  0
 20 21  1  0
 21 25  1  0
 22 21  2  0
 23 24  1  0
 26 23  2  0
M  END
$$$$
