MDE.pdb
     RDKit          3D

 26 25  0  0  1  0  0  0  0  0999 V2000
    7.4490  -11.7869   21.5714 C   0  0  0  0  0  0  0  0  0  0  0  0
    6.8483  -12.0212   19.9179 S   0  0  0  0  0  0  0  0  0  0  0  0
    7.7444  -13.1169   18.8611 C   0  0  0  0  0  0  0  0  0  0  0  0
    8.9600  -13.7369   19.4271 C   0  0  0  0  0  0  0  0  0  0  0  0
    9.6792  -14.6665   18.5469 C   0  0  2  0  0  0  0  0  0  0  0  0
    8.9649  -15.0468   17.3787 N   0  0  0  0  0  0  0  0  0  0  0  0
   10.0820  -15.8900   19.3054 C   0  0  0  0  0  0  0  0  0  0  0  0
   10.0827  -15.8546   20.5474 O   0  0  0  0  0  0  0  0  0  0  0  0
   10.4530  -17.0602   18.6305 N   0  0  0  0  0  0  0  0  0  0  0  0
   10.7437  -18.2693   19.4458 C   0  0  1  0  0  0  0  0  0  0  0  0
   11.0381  -19.3728   18.4734 C   0  0  0  0  0  0  0  0  0  0  0  0
   11.3439  -20.6835   18.9512 C   0  0  0  0  0  0  0  0  0  0  0  0
   11.4174  -21.1212   20.1122 O   0  0  0  0  0  0  0  0  0  0  0  0
   11.8778  -17.8806   20.3115 C   0  0  0  0  0  0  0  0  0  0  0  0
   12.7710  -17.1095   19.8011 O   0  0  0  0  0  0  0  0  0  0  0  0
   11.6156  -21.6868   17.9713 O   0  0  0  0  0  0  0  0  0  0  0  0
   12.1099  -18.2442   21.6413 N   0  0  0  0  0  0  0  0  0  0  0  0
   13.1905  -17.6479   22.4220 C   0  0  1  0  0  0  0  0  0  0  0  0
   12.8037  -17.7332   23.8686 C   0  0  0  0  0  0  0  0  0  0  0  0
   11.3314  -17.4909   24.0577 C   0  0  0  0  0  0  0  0  0  0  0  0
   10.9871  -17.7745   25.4713 C   0  0  0  0  0  0  0  0  0  0  0  0
   11.8544  -18.2235   26.2460 O   0  0  0  0  0  0  0  0  0  0  0  0
   14.4712  -18.3285   22.1828 C   0  0  0  0  0  0  0  0  0  0  0  0
   15.6460  -17.8324   22.7038 O   0  0  0  0  0  0  0  0  0  0  0  0
    9.7195  -17.5552   25.9674 O   0  0  0  0  0  0  0  0  0  0  0  0
   14.4968  -19.3703   21.4981 O   0  0  0  0  0  0  0  0  0  0  0  0
  2  1  1  0
  3  2  1  0
  4  3  1  0
  4  5  1  0
  5  6  1  6
  5  7  1  0
  7  8  2  0
  9  7  1  0
  9 10  1  0
 11 12  1  0
 10 11  1  6
 12 16  1  0
 13 12  2  0
 14 10  1  0
 14 15  2  0
 17 14  1  0
 18 17  1  0
 18 23  1  0
 18 19  1  1
 20 19  1  0
 20 21  1  0
 21 25  1  0
 22 21  2  0
 23 24  1  0
 26 23  2  0
M  END
$$$$
