MDE.pdb
     RDKit          3D

 26 25  0  0  1  0  0  0  0  0999 V2000
    7.6907  -11.7695   27.1003 C   0  0  0  0  0  0  0  0  0  0  0  0
    6.7431  -12.6869   25.9128 S   0  0  0  0  0  0  0  0  0  0  0  0
    6.3296  -14.3599   26.3007 C   0  0  0  0  0  0  0  0  0  0  0  0
    7.0850  -15.4112   25.5891 C   0  0  0  0  0  0  0  0  0  0  0  0
    7.3764  -15.1498   24.1738 C   0  0  2  0  0  0  0  0  0  0  0  0
    6.2561  -15.2695   23.3077 N   0  0  0  0  0  0  0  0  0  0  0  0
    8.4730  -16.0468   23.6972 C   0  0  0  0  0  0  0  0  0  0  0  0
    8.7136  -17.0900   24.3279 O   0  0  0  0  0  0  0  0  0  0  0  0
    9.2198  -15.7205   22.5579 N   0  0  0  0  0  0  0  0  0  0  0  0
   10.2985  -16.6563   22.1433 C   0  0  1  0  0  0  0  0  0  0  0  0
   10.6283  -16.3157   20.7202 C   0  0  0  0  0  0  0  0  0  0  0  0
   11.7019  -16.9836   20.0560 C   0  0  0  0  0  0  0  0  0  0  0  0
   12.4120  -16.6183   19.1035 O   0  0  0  0  0  0  0  0  0  0  0  0
   11.3935  -16.4269   23.1103 C   0  0  0  0  0  0  0  0  0  0  0  0
   11.2910  -15.4057   23.8846 O   0  0  0  0  0  0  0  0  0  0  0  0
   12.0518  -18.2850   20.5301 O   0  0  0  0  0  0  0  0  0  0  0  0
   12.5474  -17.1925   23.3017 N   0  0  0  0  0  0  0  0  0  0  0  0
   13.1398  -17.3692   24.6248 C   0  0  1  0  0  0  0  0  0  0  0  0
   12.0923  -17.9726   25.5126 C   0  0  0  0  0  0  0  0  0  0  0  0
   12.6717  -18.3973   26.8339 C   0  0  0  0  0  0  0  0  0  0  0  0
   11.5878  -18.9911   27.6523 C   0  0  0  0  0  0  0  0  0  0  0  0
   10.8755  -18.2602   28.3681 O   0  0  0  0  0  0  0  0  0  0  0  0
   14.3356  -18.2226   24.5734 C   0  0  0  0  0  0  0  0  0  0  0  0
   14.6329  -18.9598   23.4483 O   0  0  0  0  0  0  0  0  0  0  0  0
   11.3358  -20.3467   27.6493 O   0  0  0  0  0  0  0  0  0  0  0  0
   15.0934  -18.2816   25.5619 O   0  0  0  0  0  0  0  0  0  0  0  0
  2  1  1  0
  3  2  1  0
  4  3  1  0
  4  5  1  0
  5  6  1  6
  5  7  1  0
  7  8  2  0
  9  7  1  0
  9 10  1  0
 11 12  1  0
 10 11  1  6
 12 16  1  0
 13 12  2  0
 14 10  1  0
 14 15  2  0
 17 14  1  0
 18 17  1  0
 18 23  1  0
 18 19  1  1
 20 19  1  0
 20 21  1  0
 21 25  1  0
 22 21  2  0
 23 24  1  0
 26 23  2  0
M  END
$$$$
