MDE.pdb
     RDKit          3D

 26 25  0  0  1  0  0  0  0  0999 V2000
    8.0711  -12.2191   27.3905 C   0  0  0  0  0  0  0  0  0  0  0  0
    6.7274  -11.7696   26.3219 S   0  0  0  0  0  0  0  0  0  0  0  0
    5.7482  -13.0693   25.6347 C   0  0  0  0  0  0  0  0  0  0  0  0
    6.4055  -13.9370   24.6361 C   0  0  0  0  0  0  0  0  0  0  0  0
    7.1365  -15.0939   25.1687 C   0  0  2  0  0  0  0  0  0  0  0  0
    8.1393  -14.7714   26.1225 N   0  0  0  0  0  0  0  0  0  0  0  0
    7.7447  -15.8801   24.0522 C   0  0  0  0  0  0  0  0  0  0  0  0
    6.9982  -16.3942   23.2023 O   0  0  0  0  0  0  0  0  0  0  0  0
    9.1338  -16.0368   23.9616 N   0  0  0  0  0  0  0  0  0  0  0  0
    9.6622  -16.9543   22.9175 C   0  0  1  0  0  0  0  0  0  0  0  0
   10.7380  -16.1974   22.1965 C   0  0  0  0  0  0  0  0  0  0  0  0
   11.4526  -16.8168   21.1261 C   0  0  0  0  0  0  0  0  0  0  0  0
   11.1097  -17.7208   20.3450 O   0  0  0  0  0  0  0  0  0  0  0  0
   10.1269  -18.1465   23.6587 C   0  0  0  0  0  0  0  0  0  0  0  0
   10.4564  -19.1787   22.9666 O   0  0  0  0  0  0  0  0  0  0  0  0
   12.7805  -16.3534   20.8756 O   0  0  0  0  0  0  0  0  0  0  0  0
   10.2630  -18.3017   25.0413 N   0  0  0  0  0  0  0  0  0  0  0  0
   11.1985  -19.2643   25.6166 C   0  0  1  0  0  0  0  0  0  0  0  0
   12.5718  -18.9059   25.1316 C   0  0  0  0  0  0  0  0  0  0  0  0
   13.6209  -19.7818   25.7594 C   0  0  0  0  0  0  0  0  0  0  0  0
   14.9399  -19.4143   25.1917 C   0  0  0  0  0  0  0  0  0  0  0  0
   15.9233  -19.2678   25.9438 O   0  0  0  0  0  0  0  0  0  0  0  0
   11.1457  -19.2597   27.0856 C   0  0  0  0  0  0  0  0  0  0  0  0
   11.8168  -20.2108   27.8223 O   0  0  0  0  0  0  0  0  0  0  0  0
   15.1201  -19.2256   23.8378 O   0  0  0  0  0  0  0  0  0  0  0  0
   10.4840  -18.3828   27.6756 O   0  0  0  0  0  0  0  0  0  0  0  0
  2  1  1  0
  3  2  1  0
  4  3  1  0
  4  5  1  0
  5  6  1  1
  5  7  1  0
  7  8  2  0
  9  7  1  0
  9 10  1  0
 11 12  1  0
 10 11  1  1
 12 16  1  0
 13 12  2  0
 14 10  1  0
 14 15  2  0
 17 14  1  0
 18 17  1  0
 18 23  1  0
 18 19  1  1
 20 19  1  0
 20 21  1  0
 21 25  1  0
 22 21  2  0
 23 24  1  0
 26 23  2  0
M  END
$$$$
