MDE.pdb
     RDKit          3D

 26 25  0  0  1  0  0  0  0  0999 V2000
    6.4041  -10.6402   26.7833 C   0  0  0  0  0  0  0  0  0  0  0  0
    7.0208  -11.8589   25.6501 S   0  0  0  0  0  0  0  0  0  0  0  0
    5.8896  -13.0751   25.0489 C   0  0  0  0  0  0  0  0  0  0  0  0
    6.4752  -14.2327   24.3420 C   0  0  0  0  0  0  0  0  0  0  0  0
    7.3934  -15.0693   25.1253 C   0  0  2  0  0  0  0  0  0  0  0  0
    8.2901  -14.3448   25.9561 N   0  0  0  0  0  0  0  0  0  0  0  0
    8.1699  -15.9713   24.2210 C   0  0  0  0  0  0  0  0  0  0  0  0
    7.5555  -16.7852   23.5110 O   0  0  0  0  0  0  0  0  0  0  0  0
    9.5682  -15.9033   24.1714 N   0  0  0  0  0  0  0  0  0  0  0  0
   10.2914  -16.9908   23.4606 C   0  0  1  0  0  0  0  0  0  0  0  0
   11.1236  -16.3243   22.4055 C   0  0  0  0  0  0  0  0  0  0  0  0
   11.9903  -17.1042   21.5806 C   0  0  0  0  0  0  0  0  0  0  0  0
   11.7471  -18.0857   20.8578 O   0  0  0  0  0  0  0  0  0  0  0  0
   11.0600  -17.6882   24.5140 C   0  0  0  0  0  0  0  0  0  0  0  0
   11.9233  -16.9964   25.1688 O   0  0  0  0  0  0  0  0  0  0  0  0
   13.3690  -16.7316   21.5496 O   0  0  0  0  0  0  0  0  0  0  0  0
   10.9667  -19.0275   24.9039 N   0  0  0  0  0  0  0  0  0  0  0  0
   11.7796  -19.5686   25.9898 C   0  0  1  0  0  0  0  0  0  0  0  0
   10.9535  -20.5963   26.7046 C   0  0  0  0  0  0  0  0  0  0  0  0
    9.8274  -19.9583   27.4706 C   0  0  0  0  0  0  0  0  0  0  0  0
    9.1376  -21.0108   28.2540 C   0  0  0  0  0  0  0  0  0  0  0  0
    9.6924  -21.5086   29.2532 O   0  0  0  0  0  0  0  0  0  0  0  0
   13.0291  -20.1590   25.4888 C   0  0  0  0  0  0  0  0  0  0  0  0
   14.0067  -20.5923   26.3573 O   0  0  0  0  0  0  0  0  0  0  0  0
    7.8824  -21.4661   27.9100 O   0  0  0  0  0  0  0  0  0  0  0  0
   13.2087  -20.2701   24.2600 O   0  0  0  0  0  0  0  0  0  0  0  0
  2  1  1  0
  3  2  1  0
  4  3  1  0
  4  5  1  0
  5  6  1  6
  5  7  1  0
  7  8  2  0
  9  7  1  0
  9 10  1  0
 11 12  1  0
 10 11  1  6
 12 16  1  0
 13 12  2  0
 14 10  1  0
 14 15  2  0
 17 14  1  0
 18 17  1  0
 18 23  1  0
 18 19  1  6
 20 19  1  0
 20 21  1  0
 21 25  1  0
 22 21  2  0
 23 24  1  0
 26 23  2  0
M  END
$$$$
