MDE.pdb
     RDKit          3D

 26 25  0  0  1  0  0  0  0  0999 V2000
    6.1334  -11.1837   26.9339 C   0  0  0  0  0  0  0  0  0  0  0  0
    6.9949  -12.5123   26.1326 S   0  0  0  0  0  0  0  0  0  0  0  0
    6.0421  -13.8778   25.5429 C   0  0  0  0  0  0  0  0  0  0  0  0
    6.7947  -15.0125   24.9695 C   0  0  0  0  0  0  0  0  0  0  0  0
    8.0767  -14.6809   24.3349 C   0  0  2  0  0  0  0  0  0  0  0  0
    7.9778  -13.7879   23.2339 N   0  0  0  0  0  0  0  0  0  0  0  0
    8.7782  -15.9284   23.9036 C   0  0  0  0  0  0  0  0  0  0  0  0
    8.6983  -16.9413   24.6188 O   0  0  0  0  0  0  0  0  0  0  0  0
    9.5147  -15.9595   22.7124 N   0  0  0  0  0  0  0  0  0  0  0  0
   10.2292  -17.2180   22.3706 C   0  0  1  0  0  0  0  0  0  0  0  0
   10.5506  -17.1364   20.9077 C   0  0  0  0  0  0  0  0  0  0  0  0
    9.5162  -17.3088   19.9382 C   0  0  0  0  0  0  0  0  0  0  0  0
    8.7145  -18.2442   19.7727 O   0  0  0  0  0  0  0  0  0  0  0  0
   11.4044  -17.2438   23.2677 C   0  0  0  0  0  0  0  0  0  0  0  0
   12.0712  -16.1521   23.3963 O   0  0  0  0  0  0  0  0  0  0  0  0
    9.3367  -16.2609   18.9840 O   0  0  0  0  0  0  0  0  0  0  0  0
   11.8941  -18.3195   24.0144 N   0  0  0  0  0  0  0  0  0  0  0  0
   13.0898  -18.1964   24.8436 C   0  0  1  0  0  0  0  0  0  0  0  0
   12.8508  -18.9780   26.1012 C   0  0  0  0  0  0  0  0  0  0  0  0
   11.6373  -18.4775   26.8354 C   0  0  0  0  0  0  0  0  0  0  0  0
   11.4927  -19.2565   28.0882 C   0  0  0  0  0  0  0  0  0  0  0  0
   11.2502  -20.4782   28.0381 O   0  0  0  0  0  0  0  0  0  0  0  0
   14.2868  -18.6852   24.1444 C   0  0  0  0  0  0  0  0  0  0  0  0
   15.5409  -18.5329   24.6939 O   0  0  0  0  0  0  0  0  0  0  0  0
   11.6194  -18.6667   29.3281 O   0  0  0  0  0  0  0  0  0  0  0  0
   14.1675  -19.2462   23.0372 O   0  0  0  0  0  0  0  0  0  0  0  0
  2  1  1  0
  3  2  1  0
  4  3  1  0
  4  5  1  0
  5  6  1  6
  5  7  1  0
  7  8  2  0
  9  7  1  0
  9 10  1  0
 11 12  1  0
 10 11  1  6
 12 16  1  0
 13 12  2  0
 14 10  1  0
 14 15  2  0
 17 14  1  0
 18 17  1  0
 18 23  1  0
 18 19  1  1
 20 19  1  0
 20 21  1  0
 21 25  1  0
 22 21  2  0
 23 24  1  0
 26 23  2  0
M  END
$$$$
