MDE.pdb
     RDKit          3D

 26 25  0  0  1  0  0  0  0  0999 V2000
    6.8310  -11.2130   24.9111 C   0  0  0  0  0  0  0  0  0  0  0  0
    6.5301  -12.5370   26.0540 S   0  0  0  0  0  0  0  0  0  0  0  0
    5.7232  -13.9858   25.4458 C   0  0  0  0  0  0  0  0  0  0  0  0
    6.5950  -15.0884   24.9911 C   0  0  0  0  0  0  0  0  0  0  0  0
    7.8885  -14.6934   24.4190 C   0  0  2  0  0  0  0  0  0  0  0  0
    7.7979  -13.8464   23.2816 N   0  0  0  0  0  0  0  0  0  0  0  0
    8.6937  -15.9051   24.0755 C   0  0  0  0  0  0  0  0  0  0  0  0
    8.6526  -16.8891   24.8331 O   0  0  0  0  0  0  0  0  0  0  0  0
    9.4829  -15.9351   22.9186 N   0  0  0  0  0  0  0  0  0  0  0  0
   10.1959  -17.1997   22.5972 C   0  0  1  0  0  0  0  0  0  0  0  0
   10.8288  -16.9969   21.2524 C   0  0  0  0  0  0  0  0  0  0  0  0
   11.5505  -18.0632   20.6342 C   0  0  0  0  0  0  0  0  0  0  0  0
   11.7854  -19.2160   21.0351 O   0  0  0  0  0  0  0  0  0  0  0  0
   11.1475  -17.3939   23.7123 C   0  0  0  0  0  0  0  0  0  0  0  0
   12.0045  -16.4594   23.9245 O   0  0  0  0  0  0  0  0  0  0  0  0
   12.1103  -17.8089   19.3447 O   0  0  0  0  0  0  0  0  0  0  0  0
   11.2373  -18.4797   24.5882 N   0  0  0  0  0  0  0  0  0  0  0  0
   12.3339  -18.6049   25.5446 C   0  0  1  0  0  0  0  0  0  0  0  0
   11.8442  -19.4443   26.6870 C   0  0  0  0  0  0  0  0  0  0  0  0
   11.6277  -18.6152   27.9231 C   0  0  0  0  0  0  0  0  0  0  0  0
   11.1798  -19.5108   29.0160 C   0  0  0  0  0  0  0  0  0  0  0  0
    9.9914  -19.8835   29.0688 O   0  0  0  0  0  0  0  0  0  0  0  0
   13.5249  -19.2062   24.9276 C   0  0  0  0  0  0  0  0  0  0  0  0
   13.4073  -20.1486   23.9296 O   0  0  0  0  0  0  0  0  0  0  0  0
   12.0465  -19.9533   29.9928 O   0  0  0  0  0  0  0  0  0  0  0  0
   14.6594  -18.8595   25.3118 O   0  0  0  0  0  0  0  0  0  0  0  0
  2  1  1  0
  3  2  1  0
  4  3  1  0
  4  5  1  0
  5  6  1  6
  5  7  1  0
  7  8  2  0
  9  7  1  0
  9 10  1  0
 11 12  1  0
 10 11  1  6
 12 16  1  0
 13 12  2  0
 14 10  1  0
 14 15  2  0
 17 14  1  0
 18 17  1  0
 18 23  1  0
 18 19  1  1
 20 19  1  0
 20 21  1  0
 21 25  1  0
 22 21  2  0
 23 24  1  0
 26 23  2  0
M  END
$$$$
