MDE.pdb
     RDKit          3D

 26 25  0  0  1  0  0  0  0  0999 V2000
    7.0105  -12.0798   19.6443 C   0  0  0  0  0  0  0  0  0  0  0  0
    7.1969  -13.0043   21.1477 S   0  0  0  0  0  0  0  0  0  0  0  0
    7.3201  -14.7623   21.0264 C   0  0  0  0  0  0  0  0  0  0  0  0
    7.3764  -15.3301   19.6637 C   0  0  0  0  0  0  0  0  0  0  0  0
    7.4823  -16.7922   19.5784 C   0  0  2  0  0  0  0  0  0  0  0  0
    6.5500  -17.5004   20.3838 N   0  0  0  0  0  0  0  0  0  0  0  0
    8.8700  -17.2310   19.9193 C   0  0  0  0  0  0  0  0  0  0  0  0
    9.0600  -17.8596   20.9741 O   0  0  0  0  0  0  0  0  0  0  0  0
    9.9420  -16.9407   19.0656 N   0  0  0  0  0  0  0  0  0  0  0  0
   11.2775  -17.4929   19.4156 C   0  0  1  0  0  0  0  0  0  0  0  0
   12.1235  -17.3633   18.1837 C   0  0  0  0  0  0  0  0  0  0  0  0
   11.9550  -18.2801   17.1016 C   0  0  0  0  0  0  0  0  0  0  0  0
   11.7768  -19.5102   17.1079 O   0  0  0  0  0  0  0  0  0  0  0  0
   11.7302  -16.6893   20.5715 C   0  0  0  0  0  0  0  0  0  0  0  0
   10.8985  -15.8391   21.0595 O   0  0  0  0  0  0  0  0  0  0  0  0
   11.9890  -17.7402   15.7794 O   0  0  0  0  0  0  0  0  0  0  0  0
   12.9674  -16.7361   21.2209 N   0  0  0  0  0  0  0  0  0  0  0  0
   13.1522  -16.1829   22.5597 C   0  0  1  0  0  0  0  0  0  0  0  0
   12.1640  -16.8537   23.4669 C   0  0  0  0  0  0  0  0  0  0  0  0
   12.3503  -16.4221   24.8955 C   0  0  0  0  0  0  0  0  0  0  0  0
   11.4033  -17.1847   25.7433 C   0  0  0  0  0  0  0  0  0  0  0  0
   10.6239  -18.0068   25.2229 O   0  0  0  0  0  0  0  0  0  0  0  0
   14.5255  -16.3833   23.0440 C   0  0  0  0  0  0  0  0  0  0  0  0
   15.2037  -15.3738   23.6910 O   0  0  0  0  0  0  0  0  0  0  0  0
   11.3536  -17.0136   27.1105 O   0  0  0  0  0  0  0  0  0  0  0  0
   15.0868  -17.4827   22.8673 O   0  0  0  0  0  0  0  0  0  0  0  0
  2  1  1  0
  3  2  1  0
  4  3  1  0
  4  5  1  0
  5  6  1  1
  5  7  1  0
  7  8  2  0
  9  7  1  0
  9 10  1  0
 11 12  1  0
 10 11  1  6
 12 16  1  0
 13 12  2  0
 14 10  1  0
 14 15  2  0
 17 14  1  0
 18 17  1  0
 18 23  1  0
 18 19  1  1
 20 19  1  0
 20 21  1  0
 21 25  1  0
 22 21  2  0
 23 24  1  0
 26 23  2  0
M  END
$$$$
