MDE.pdb
     RDKit          3D

 26 25  0  0  1  0  0  0  0  0999 V2000
    7.5046  -11.3537   25.8181 C   0  0  0  0  0  0  0  0  0  0  0  0
    6.3741  -12.7142   25.9622 S   0  0  0  0  0  0  0  0  0  0  0  0
    6.5296  -14.0431   24.8090 C   0  0  0  0  0  0  0  0  0  0  0  0
    7.1589  -13.7238   23.5111 C   0  0  0  0  0  0  0  0  0  0  0  0
    7.2536  -14.8308   22.5509 C   0  0  2  0  0  0  0  0  0  0  0  0
    6.0283  -15.5075   22.3061 N   0  0  0  0  0  0  0  0  0  0  0  0
    8.2864  -15.8152   22.9967 C   0  0  0  0  0  0  0  0  0  0  0  0
    7.9208  -16.9414   23.3735 O   0  0  0  0  0  0  0  0  0  0  0  0
    9.6459  -15.4776   22.9910 N   0  0  0  0  0  0  0  0  0  0  0  0
   10.6297  -16.5537   23.2833 C   0  0  1  0  0  0  0  0  0  0  0  0
   11.9571  -16.0558   22.7933 C   0  0  0  0  0  0  0  0  0  0  0  0
   13.0977  -16.9149   22.8233 C   0  0  0  0  0  0  0  0  0  0  0  0
   14.3084  -16.6506   22.7262 O   0  0  0  0  0  0  0  0  0  0  0  0
   10.5417  -16.7628   24.7446 C   0  0  0  0  0  0  0  0  0  0  0  0
   10.7335  -15.7392   25.4984 O   0  0  0  0  0  0  0  0  0  0  0  0
   12.8559  -18.3128   22.9909 O   0  0  0  0  0  0  0  0  0  0  0  0
   10.2670  -17.9501   25.4293 N   0  0  0  0  0  0  0  0  0  0  0  0
   10.3453  -18.0315   26.8854 C   0  0  1  0  0  0  0  0  0  0  0  0
    9.4783  -19.1749   27.3219 C   0  0  0  0  0  0  0  0  0  0  0  0
    8.1113  -19.0949   26.6999 C   0  0  0  0  0  0  0  0  0  0  0  0
    7.3285  -20.2765   27.1340 C   0  0  0  0  0  0  0  0  0  0  0  0
    7.8349  -21.1077   27.9128 O   0  0  0  0  0  0  0  0  0  0  0  0
   11.7291  -18.2207   27.3437 C   0  0  0  0  0  0  0  0  0  0  0  0
   12.0415  -18.1948   28.6852 O   0  0  0  0  0  0  0  0  0  0  0  0
    6.0380  -20.4916   26.6989 O   0  0  0  0  0  0  0  0  0  0  0  0
   12.6351  -18.4073   26.5076 O   0  0  0  0  0  0  0  0  0  0  0  0
  2  1  1  0
  3  2  1  0
  4  3  1  0
  4  5  1  0
  5  6  1  1
  5  7  1  0
  7  8  2  0
  9  7  1  0
  9 10  1  0
 11 12  1  0
 10 11  1  1
 12 16  1  0
 13 12  2  0
 14 10  1  0
 14 15  2  0
 17 14  1  0
 18 17  1  0
 18 23  1  0
 18 19  1  6
 20 19  1  0
 20 21  1  0
 21 25  1  0
 22 21  2  0
 23 24  1  0
 26 23  2  0
M  END
$$$$
