MDE.pdb
     RDKit          3D

 26 25  0  0  1  0  0  0  0  0999 V2000
    7.3077  -12.2615   27.4744 C   0  0  0  0  0  0  0  0  0  0  0  0
    6.4079  -11.9185   25.9836 S   0  0  0  0  0  0  0  0  0  0  0  0
    6.2069  -13.2318   24.8195 C   0  0  0  0  0  0  0  0  0  0  0  0
    7.3631  -14.1315   24.6295 C   0  0  0  0  0  0  0  0  0  0  0  0
    7.1934  -15.1981   23.6345 C   0  0  2  0  0  0  0  0  0  0  0  0
    6.0572  -16.0256   23.8431 N   0  0  0  0  0  0  0  0  0  0  0  0
    8.4228  -16.0460   23.5705 C   0  0  0  0  0  0  0  0  0  0  0  0
    8.4365  -17.1320   24.1741 O   0  0  0  0  0  0  0  0  0  0  0  0
    9.5436  -15.6269   22.8423 N   0  0  0  0  0  0  0  0  0  0  0  0
   10.6796  -16.5770   22.7085 C   0  0  1  0  0  0  0  0  0  0  0  0
   11.5466  -16.0451   21.6060 C   0  0  0  0  0  0  0  0  0  0  0  0
   11.3292  -16.4676   20.2591 C   0  0  0  0  0  0  0  0  0  0  0  0
   11.0700  -17.5929   19.7994 O   0  0  0  0  0  0  0  0  0  0  0  0
   11.3134  -16.6026   24.0443 C   0  0  0  0  0  0  0  0  0  0  0  0
   10.8204  -15.8288   24.9449 O   0  0  0  0  0  0  0  0  0  0  0  0
   11.4126  -15.4682   19.2417 O   0  0  0  0  0  0  0  0  0  0  0  0
   12.3976  -17.3768   24.4681 N   0  0  0  0  0  0  0  0  0  0  0  0
   12.6341  -17.6565   25.8818 C   0  0  1  0  0  0  0  0  0  0  0  0
   11.4027  -18.3192   26.4241 C   0  0  0  0  0  0  0  0  0  0  0  0
   11.6296  -18.8429   27.8155 C   0  0  0  0  0  0  0  0  0  0  0  0
   10.4707  -19.6860   28.1942 C   0  0  0  0  0  0  0  0  0  0  0  0
   10.4340  -20.8846   27.8536 O   0  0  0  0  0  0  0  0  0  0  0  0
   13.8149  -18.5104   26.0749 C   0  0  0  0  0  0  0  0  0  0  0  0
   14.3944  -19.1700   25.0133 O   0  0  0  0  0  0  0  0  0  0  0  0
    9.4139  -19.1819   28.9224 O   0  0  0  0  0  0  0  0  0  0  0  0
   14.3008  -18.6412   27.2158 O   0  0  0  0  0  0  0  0  0  0  0  0
  2  1  1  0
  3  2  1  0
  4  3  1  0
  4  5  1  0
  5  6  1  1
  5  7  1  0
  7  8  2  0
  9  7  1  0
  9 10  1  0
 11 12  1  0
 10 11  1  6
 12 16  1  0
 13 12  2  0
 14 10  1  0
 14 15  2  0
 17 14  1  0
 18 17  1  0
 18 23  1  0
 18 19  1  6
 20 19  1  0
 20 21  1  0
 21 25  1  0
 22 21  2  0
 23 24  1  0
 26 23  2  0
M  END
$$$$
