MDE.pdb
     RDKit          3D

 26 25  0  0  1  0  0  0  0  0999 V2000
    7.5315  -12.5645   27.7966 C   0  0  0  0  0  0  0  0  0  0  0  0
    6.9651  -11.9269   26.2402 S   0  0  0  0  0  0  0  0  0  0  0  0
    6.2300  -13.0599   25.1017 C   0  0  0  0  0  0  0  0  0  0  0  0
    6.9288  -14.3461   24.9025 C   0  0  0  0  0  0  0  0  0  0  0  0
    8.1611  -14.2936   24.1054 C   0  0  2  0  0  0  0  0  0  0  0  0
    7.9906  -13.7946   22.7858 N   0  0  0  0  0  0  0  0  0  0  0  0
    8.7986  -15.6445   24.0492 C   0  0  0  0  0  0  0  0  0  0  0  0
    8.7172  -16.3896   25.0401 O   0  0  0  0  0  0  0  0  0  0  0  0
    9.4775  -16.0677   22.8993 N   0  0  0  0  0  0  0  0  0  0  0  0
   10.0838  -17.4254   22.9113 C   0  0  1  0  0  0  0  0  0  0  0  0
   10.4114  -17.7535   21.4847 C   0  0  0  0  0  0  0  0  0  0  0  0
    9.3612  -18.0071   20.5506 C   0  0  0  0  0  0  0  0  0  0  0  0
    8.3028  -18.6456   20.6818 O   0  0  0  0  0  0  0  0  0  0  0  0
   11.2524  -17.3122   23.8103 C   0  0  0  0  0  0  0  0  0  0  0  0
   12.2990  -16.7282   23.3449 O   0  0  0  0  0  0  0  0  0  0  0  0
    9.5077  -17.4564   19.2407 O   0  0  0  0  0  0  0  0  0  0  0  0
   11.3709  -17.7611   25.1289 N   0  0  0  0  0  0  0  0  0  0  0  0
   12.6501  -17.7425   25.8334 C   0  0  1  0  0  0  0  0  0  0  0  0
   12.4586  -16.9596   27.0983 C   0  0  0  0  0  0  0  0  0  0  0  0
   11.2312  -17.4102   27.8415 C   0  0  0  0  0  0  0  0  0  0  0  0
   11.1405  -16.6426   29.1063 C   0  0  0  0  0  0  0  0  0  0  0  0
   10.0886  -16.0392   29.3951 O   0  0  0  0  0  0  0  0  0  0  0  0
   13.1264  -19.1017   26.1274 C   0  0  0  0  0  0  0  0  0  0  0  0
   12.3509  -20.2030   25.8383 O   0  0  0  0  0  0  0  0  0  0  0  0
   12.1971  -16.5716   29.9894 O   0  0  0  0  0  0  0  0  0  0  0  0
   14.2487  -19.2624   26.6465 O   0  0  0  0  0  0  0  0  0  0  0  0
  2  1  1  0
  3  2  1  0
  4  3  1  0
  4  5  1  0
  5  6  1  6
  5  7  1  0
  7  8  2  0
  9  7  1  0
  9 10  1  0
 11 12  1  0
 10 11  1  6
 12 16  1  0
 13 12  2  0
 14 10  1  0
 14 15  2  0
 17 14  1  0
 18 17  1  0
 18 23  1  0
 18 19  1  1
 20 19  1  0
 20 21  1  0
 21 25  1  0
 22 21  2  0
 23 24  1  0
 26 23  2  0
M  END
$$$$
