MDE.pdb
     RDKit          3D

 26 25  0  0  1  0  0  0  0  0999 V2000
    8.3287  -11.9256   27.2768 C   0  0  0  0  0  0  0  0  0  0  0  0
    6.6021  -12.0432   26.8833 S   0  0  0  0  0  0  0  0  0  0  0  0
    6.0512  -13.4717   26.0024 C   0  0  0  0  0  0  0  0  0  0  0  0
    7.0890  -14.2679   25.3157 C   0  0  0  0  0  0  0  0  0  0  0  0
    6.6261  -15.4900   24.6460 C   0  0  2  0  0  0  0  0  0  0  0  0
    5.9753  -16.4214   25.4994 N   0  0  0  0  0  0  0  0  0  0  0  0
    7.7661  -16.1624   23.9512 C   0  0  0  0  0  0  0  0  0  0  0  0
    8.2199  -17.2183   24.4236 O   0  0  0  0  0  0  0  0  0  0  0  0
    8.3167  -15.6145   22.7855 N   0  0  0  0  0  0  0  0  0  0  0  0
    9.4062  -16.3691   22.1112 C   0  0  1  0  0  0  0  0  0  0  0  0
    9.3759  -15.9557   20.6696 C   0  0  0  0  0  0  0  0  0  0  0  0
    8.3053  -16.3829   19.8262 C   0  0  0  0  0  0  0  0  0  0  0  0
    7.9370  -17.5267   19.5085 O   0  0  0  0  0  0  0  0  0  0  0  0
   10.6363  -15.9957   22.8422 C   0  0  0  0  0  0  0  0  0  0  0  0
   11.2238  -14.9080   22.4892 O   0  0  0  0  0  0  0  0  0  0  0  0
    7.5001  -15.3647   19.2298 O   0  0  0  0  0  0  0  0  0  0  0  0
   11.2554  -16.6807   23.8919 N   0  0  0  0  0  0  0  0  0  0  0  0
   12.5084  -16.2138   24.4790 C   0  0  1  0  0  0  0  0  0  0  0  0
   12.6458  -16.8603   25.8253 C   0  0  0  0  0  0  0  0  0  0  0  0
   11.4608  -16.5595   26.7014 C   0  0  0  0  0  0  0  0  0  0  0  0
   11.5956  -17.3374   27.9560 C   0  0  0  0  0  0  0  0  0  0  0  0
   10.9342  -18.3820   28.1158 O   0  0  0  0  0  0  0  0  0  0  0  0
   13.6603  -16.5362   23.6247 C   0  0  0  0  0  0  0  0  0  0  0  0
   13.5060  -17.2869   22.4799 O   0  0  0  0  0  0  0  0  0  0  0  0
   12.4413  -16.9391   28.9695 O   0  0  0  0  0  0  0  0  0  0  0  0
   14.7948  -16.1254   23.9392 O   0  0  0  0  0  0  0  0  0  0  0  0
  2  1  1  0
  3  2  1  0
  4  3  1  0
  4  5  1  0
  5  6  1  1
  5  7  1  0
  7  8  2  0
  9  7  1  0
  9 10  1  0
 11 12  1  0
 10 11  1  6
 12 16  1  0
 13 12  2  0
 14 10  1  0
 14 15  2  0
 17 14  1  0
 18 17  1  0
 18 23  1  0
 18 19  1  1
 20 19  1  0
 20 21  1  0
 21 25  1  0
 22 21  2  0
 23 24  1  0
 26 23  2  0
M  END
$$$$
