MDE.pdb
     RDKit          3D

 26 25  0  0  1  0  0  0  0  0999 V2000
    7.1875  -10.8246   25.7916 C   0  0  0  0  0  0  0  0  0  0  0  0
    6.9363  -12.3232   26.7087 S   0  0  0  0  0  0  0  0  0  0  0  0
    5.7549  -13.4817   26.0904 C   0  0  0  0  0  0  0  0  0  0  0  0
    6.2787  -14.7904   25.6487 C   0  0  0  0  0  0  0  0  0  0  0  0
    7.5989  -14.7728   25.0058 C   0  0  2  0  0  0  0  0  0  0  0  0
    7.6929  -13.9211   23.8721 N   0  0  0  0  0  0  0  0  0  0  0  0
    8.0063  -16.1591   24.6231 C   0  0  0  0  0  0  0  0  0  0  0  0
    7.8171  -17.0857   25.4290 O   0  0  0  0  0  0  0  0  0  0  0  0
    8.5920  -16.4140   23.3764 N   0  0  0  0  0  0  0  0  0  0  0  0
    8.9723  -17.8167   23.0618 C   0  0  1  0  0  0  0  0  0  0  0  0
    8.9697  -17.9290   21.5660 C   0  0  0  0  0  0  0  0  0  0  0  0
    7.8108  -18.4159   20.8880 C   0  0  0  0  0  0  0  0  0  0  0  0
    7.0688  -19.3782   21.1498 O   0  0  0  0  0  0  0  0  0  0  0  0
   10.2929  -18.0050   23.6999 C   0  0  0  0  0  0  0  0  0  0  0  0
   11.0889  -16.9955   23.7150 O   0  0  0  0  0  0  0  0  0  0  0  0
    7.4001  -17.7136   19.7137 O   0  0  0  0  0  0  0  0  0  0  0  0
   10.7995  -19.1583   24.3062 N   0  0  0  0  0  0  0  0  0  0  0  0
   12.1555  -19.2085   24.8461 C   0  0  1  0  0  0  0  0  0  0  0  0
   13.0346  -18.4023   23.9369 C   0  0  0  0  0  0  0  0  0  0  0  0
   13.8382  -17.3905   24.7066 C   0  0  0  0  0  0  0  0  0  0  0  0
   14.9228  -16.8879   23.8302 C   0  0  0  0  0  0  0  0  0  0  0  0
   15.2629  -15.6897   23.8840 O   0  0  0  0  0  0  0  0  0  0  0  0
   12.2109  -18.6905   26.2206 C   0  0  0  0  0  0  0  0  0  0  0  0
   13.3438  -18.8409   26.9899 O   0  0  0  0  0  0  0  0  0  0  0  0
   15.5797  -17.7134   22.9425 O   0  0  0  0  0  0  0  0  0  0  0  0
   11.2189  -18.1062   26.6993 O   0  0  0  0  0  0  0  0  0  0  0  0
  2  1  1  0
  3  2  1  0
  4  3  1  0
  4  5  1  0
  5  6  1  6
  5  7  1  0
  7  8  2  0
  9  7  1  0
  9 10  1  0
 11 12  1  0
 10 11  1  6
 12 16  1  0
 13 12  2  0
 14 10  1  0
 14 15  2  0
 17 14  1  0
 18 17  1  0
 18 23  1  0
 18 19  1  6
 20 19  1  0
 20 21  1  0
 21 25  1  0
 22 21  2  0
 23 24  1  0
 26 23  2  0
M  END
$$$$
