MDE.pdb
     RDKit          3D

 26 25  0  0  1  0  0  0  0  0999 V2000
    7.9307  -12.0187   26.9044 C   0  0  0  0  0  0  0  0  0  0  0  0
    6.5700  -12.7545   26.0345 S   0  0  0  0  0  0  0  0  0  0  0  0
    6.2812  -14.4822   26.2623 C   0  0  0  0  0  0  0  0  0  0  0  0
    7.3176  -15.4007   25.7479 C   0  0  0  0  0  0  0  0  0  0  0  0
    7.0038  -16.0859   24.4876 C   0  0  2  0  0  0  0  0  0  0  0  0
    5.8379  -16.8973   24.5303 N   0  0  0  0  0  0  0  0  0  0  0  0
    8.1688  -16.9101   24.0429 C   0  0  0  0  0  0  0  0  0  0  0  0
    8.4671  -17.9282   24.6898 O   0  0  0  0  0  0  0  0  0  0  0  0
    8.9150  -16.5443   22.9152 N   0  0  0  0  0  0  0  0  0  0  0  0
   10.0344  -17.4331   22.5052 C   0  0  1  0  0  0  0  0  0  0  0  0
   10.1931  -17.2555   21.0242 C   0  0  0  0  0  0  0  0  0  0  0  0
   11.1913  -16.3708   20.5136 C   0  0  0  0  0  0  0  0  0  0  0  0
   11.1478  -15.1484   20.2922 O   0  0  0  0  0  0  0  0  0  0  0  0
   11.1892  -16.9883   23.3149 C   0  0  0  0  0  0  0  0  0  0  0  0
   11.1894  -15.7681   23.7197 O   0  0  0  0  0  0  0  0  0  0  0  0
   12.4620  -16.9389   20.1919 O   0  0  0  0  0  0  0  0  0  0  0  0
   12.3019  -17.7361   23.7110 N   0  0  0  0  0  0  0  0  0  0  0  0
   12.6482  -17.9086   25.1192 C   0  0  1  0  0  0  0  0  0  0  0  0
   11.5119  -18.6316   25.7792 C   0  0  0  0  0  0  0  0  0  0  0  0
   11.7943  -18.8840   27.2348 C   0  0  0  0  0  0  0  0  0  0  0  0
   10.6104  -19.5441   27.8347 C   0  0  0  0  0  0  0  0  0  0  0  0
   10.2673  -20.6789   27.4493 O   0  0  0  0  0  0  0  0  0  0  0  0
   13.9052  -18.6533   25.2808 C   0  0  0  0  0  0  0  0  0  0  0  0
   14.2684  -19.6344   24.3845 O   0  0  0  0  0  0  0  0  0  0  0  0
    9.8627  -18.9362   28.8209 O   0  0  0  0  0  0  0  0  0  0  0  0
   14.6553  -18.3946   26.2427 O   0  0  0  0  0  0  0  0  0  0  0  0
  2  1  1  0
  3  2  1  0
  4  3  1  0
  4  5  1  0
  5  6  1  1
  5  7  1  0
  7  8  2  0
  9  7  1  0
  9 10  1  0
 11 12  1  0
 10 11  1  6
 12 16  1  0
 13 12  2  0
 14 10  1  0
 14 15  2  0
 17 14  1  0
 18 17  1  0
 18 23  1  0
 18 19  1  1
 20 19  1  0
 20 21  1  0
 21 25  1  0
 22 21  2  0
 23 24  1  0
 26 23  2  0
M  END
$$$$
