HPW.pdb
     RDKit          3D

 32 35  0  0  1  0  0  0  0  0999 V2000
   26.0963  -19.3832  -16.2310 N   0  0  0  0  0  0  0  0  0  0  0  0
   26.6100  -18.9829  -14.9072 C   0  0  1  0  0  0  0  0  0  0  0  0
   25.5020  -18.0734  -14.3612 C   0  0  0  0  0  0  0  0  0  0  0  0
   25.4206  -16.8102  -15.1375 C   0  0  0  0  0  0  0  0  0  0  0  0
   26.4084  -15.8392  -15.2810 C   0  0  0  0  0  0  0  0  0  0  0  0
   25.9668  -14.8591  -16.0482 N   0  0  0  0  0  0  0  0  0  0  0  0
   24.7032  -15.1578  -16.4186 C   0  0  0  0  0  0  0  0  0  0  0  0
   24.3897  -16.3398  -15.8596 N   0  0  0  0  0  0  0  0  0  0  0  0
   26.7459  -20.1906  -14.0336 C   0  0  0  0  0  0  0  0  0  0  0  0
   25.9830  -21.1706  -14.3739 O   0  0  0  0  0  0  0  0  0  0  0  0
   27.6108  -20.2924  -12.9323 N   0  0  0  0  0  0  0  0  0  0  0  0
   28.3832  -19.2193  -12.3743 C   0  0  0  0  0  0  0  0  0  0  0  0
   29.6940  -19.9248  -11.9939 C   0  0  0  0  0  0  0  0  0  0  0  0
   29.4238  -21.4002  -12.1311 C   0  0  0  0  0  0  0  0  0  0  0  0
   27.9154  -21.4518  -12.1713 C   0  0  1  0  0  0  0  0  0  0  0  0
   27.4063  -21.4444  -10.7744 C   0  0  0  0  0  0  0  0  0  0  0  0
   27.9138  -22.2855   -9.9904 O   0  0  0  0  0  0  0  0  0  0  0  0
   26.4118  -20.5784  -10.2722 N   0  0  0  0  0  0  0  0  0  0  0  0
   25.3547  -21.1300   -9.4180 C   0  0  1  0  0  0  0  0  0  0  0  0
   25.8738  -21.4460   -8.0648 C   0  0  0  0  0  0  0  0  0  0  0  0
   26.5880  -20.3363   -7.4143 C   0  0  0  0  0  0  0  0  0  0  0  0
   26.5668  -18.9924   -7.8063 C   0  0  0  0  0  0  0  0  0  0  0  0
   27.3744  -18.2987   -6.9959 N   0  0  0  0  0  0  0  0  0  0  0  0
   27.9304  -19.1066   -6.0870 C   0  0  0  0  0  0  0  0  0  0  0  0
   28.8073  -18.8578   -5.0384 C   0  0  0  0  0  0  0  0  0  0  0  0
   29.2174  -19.8801   -4.2177 C   0  0  0  0  0  0  0  0  0  0  0  0
   28.7349  -21.1358   -4.4698 C   0  0  0  0  0  0  0  0  0  0  0  0
   27.8689  -21.4124   -5.4976 C   0  0  0  0  0  0  0  0  0  0  0  0
   27.4547  -20.3745   -6.3296 C   0  0  0  0  0  0  0  0  0  0  0  0
   24.1304  -20.3356   -9.4127 C   0  0  0  0  0  0  0  0  0  0  0  0
   22.9922  -20.7495   -8.7317 O   0  0  0  0  0  0  0  0  0  0  0  0
   24.0123  -19.2293  -10.0245 O   0  0  0  0  0  0  0  0  0  0  0  0
  2  1  1  6
  3  2  1  0
  4  3  1  0
  4  5  2  0
  6  5  1  0
  7  6  1  0
  8  7  2  0
  8  4  1  0
  9 11  1  0
  9  2  1  0
 10  9  2  0
 11 15  1  0
 12 11  1  0
 12 13  1  0
 13 14  1  0
 15 14  1  0
 15 16  1  1
 16 18  1  0
 17 16  2  0
 18 19  1  0
 19 20  1  1
 21 20  1  0
 22 21  2  0
 23 22  1  0
 24 23  1  0
 24 29  2  0
 25 24  1  0
 26 25  2  0
 26 27  1  0
 27 28  2  0
 28 29  1  0
 29 21  1  0
 30 31  1  0
 30 19  1  0
 32 30  2  0
M  END
$$$$
