HPW.pdb
     RDKit          3D

 32 35  0  0  1  0  0  0  0  0999 V2000
   24.3266  -18.3536  -15.4257 N   0  0  0  0  0  0  0  0  0  0  0  0
   25.5605  -18.2163  -14.6289 C   0  0  1  0  0  0  0  0  0  0  0  0
   25.3507  -16.8929  -13.8821 C   0  0  0  0  0  0  0  0  0  0  0  0
   25.3648  -15.7440  -14.8226 C   0  0  0  0  0  0  0  0  0  0  0  0
   26.4767  -15.0600  -15.3074 C   0  0  0  0  0  0  0  0  0  0  0  0
   26.0906  -14.0969  -16.1246 N   0  0  0  0  0  0  0  0  0  0  0  0
   24.7425  -14.1255  -16.1936 C   0  0  0  0  0  0  0  0  0  0  0  0
   24.3210  -15.1266  -15.4011 N   0  0  0  0  0  0  0  0  0  0  0  0
   25.6521  -19.3404  -13.6448 C   0  0  0  0  0  0  0  0  0  0  0  0
   24.5438  -19.5996  -13.0425 O   0  0  0  0  0  0  0  0  0  0  0  0
   26.8172  -20.0735  -13.3684 N   0  0  0  0  0  0  0  0  0  0  0  0
   28.1364  -19.7525  -13.8333 C   0  0  0  0  0  0  0  0  0  0  0  0
   28.7260  -21.1410  -14.1247 C   0  0  0  0  0  0  0  0  0  0  0  0
   27.7600  -22.1327  -13.5314 C   0  0  0  0  0  0  0  0  0  0  0  0
   26.9321  -21.2688  -12.6107 C   0  0  1  0  0  0  0  0  0  0  0  0
   27.6533  -21.1322  -11.3177 C   0  0  0  0  0  0  0  0  0  0  0  0
   28.6560  -21.8725  -11.1565 O   0  0  0  0  0  0  0  0  0  0  0  0
   27.3009  -20.2486  -10.2755 N   0  0  0  0  0  0  0  0  0  0  0  0
   26.4008  -20.7205   -9.2179 C   0  0  1  0  0  0  0  0  0  0  0  0
   25.9557  -19.5977   -8.3568 C   0  0  0  0  0  0  0  0  0  0  0  0
   26.9962  -19.0717   -7.4593 C   0  0  0  0  0  0  0  0  0  0  0  0
   27.5296  -17.7773   -7.4755 C   0  0  0  0  0  0  0  0  0  0  0  0
   28.4818  -17.6964   -6.5392 N   0  0  0  0  0  0  0  0  0  0  0  0
   28.6105  -18.8645   -5.9013 C   0  0  0  0  0  0  0  0  0  0  0  0
   29.4353  -19.2649   -4.8575 C   0  0  0  0  0  0  0  0  0  0  0  0
   29.3529  -20.5413   -4.3567 C   0  0  0  0  0  0  0  0  0  0  0  0
   28.4390  -21.3912   -4.9183 C   0  0  0  0  0  0  0  0  0  0  0  0
   27.6116  -21.0251   -5.9499 C   0  0  0  0  0  0  0  0  0  0  0  0
   27.6973  -19.7303   -6.4573 C   0  0  0  0  0  0  0  0  0  0  0  0
   25.3121  -21.5611   -9.7058 C   0  0  0  0  0  0  0  0  0  0  0  0
   25.2883  -22.9319   -9.4806 O   0  0  0  0  0  0  0  0  0  0  0  0
   24.3252  -21.1127  -10.3672 O   0  0  0  0  0  0  0  0  0  0  0  0
  2  1  1  6
  3  2  1  0
  4  3  1  0
  4  5  2  0
  6  5  1  0
  7  6  1  0
  8  7  2  0
  8  4  1  0
  9 11  1  0
  9  2  1  0
 10  9  2  0
 11 15  1  0
 12 11  1  0
 12 13  1  0
 13 14  1  0
 15 14  1  0
 15 16  1  1
 16 18  1  0
 17 16  2  0
 18 19  1  0
 19 20  1  6
 21 20  1  0
 22 21  2  0
 23 22  1  0
 24 23  1  0
 24 29  2  0
 25 24  1  0
 26 25  2  0
 26 27  1  0
 27 28  2  0
 28 29  1  0
 29 21  1  0
 30 31  1  0
 30 19  1  0
 32 30  2  0
M  END
$$$$
