HPW.pdb
     RDKit          3D

 32 35  0  0  1  0  0  0  0  0999 V2000
   24.2105  -20.6414  -18.5624 N   0  0  0  0  0  0  0  0  0  0  0  0
   24.8365  -19.7062  -17.6085 C   0  0  1  0  0  0  0  0  0  0  0  0
   23.6445  -18.9068  -17.0671 C   0  0  0  0  0  0  0  0  0  0  0  0
   23.0415  -18.0653  -18.1317 C   0  0  0  0  0  0  0  0  0  0  0  0
   23.7056  -17.3648  -19.1354 C   0  0  0  0  0  0  0  0  0  0  0  0
   22.8307  -16.7318  -19.8958 N   0  0  0  0  0  0  0  0  0  0  0  0
   21.5960  -16.9966  -19.4180 C   0  0  0  0  0  0  0  0  0  0  0  0
   21.7422  -17.8036  -18.3525 N   0  0  0  0  0  0  0  0  0  0  0  0
   25.4742  -20.4755  -16.4941 C   0  0  0  0  0  0  0  0  0  0  0  0
   24.9907  -21.6578  -16.3314 O   0  0  0  0  0  0  0  0  0  0  0  0
   26.5066  -19.9941  -15.6733 N   0  0  0  0  0  0  0  0  0  0  0  0
   27.0664  -18.6736  -15.7225 C   0  0  0  0  0  0  0  0  0  0  0  0
   28.5565  -18.9414  -15.4606 C   0  0  0  0  0  0  0  0  0  0  0  0
   28.6461  -20.3779  -15.0165 C   0  0  0  0  0  0  0  0  0  0  0  0
   27.2137  -20.6987  -14.6635 C   0  0  1  0  0  0  0  0  0  0  0  0
   26.9570  -20.2395  -13.2728 C   0  0  0  0  0  0  0  0  0  0  0  0
   27.2081  -19.0328  -13.0277 O   0  0  0  0  0  0  0  0  0  0  0  0
   26.4615  -21.0448  -12.2253 N   0  0  0  0  0  0  0  0  0  0  0  0
   26.1956  -20.4293  -10.9208 C   0  0  1  0  0  0  0  0  0  0  0  0
   25.1580  -19.3749  -11.0306 C   0  0  0  0  0  0  0  0  0  0  0  0
   23.8609  -19.8504  -11.5367 C   0  0  0  0  0  0  0  0  0  0  0  0
   22.9603  -20.6820  -10.8603 C   0  0  0  0  0  0  0  0  0  0  0  0
   21.9190  -20.9266  -11.6640 N   0  0  0  0  0  0  0  0  0  0  0  0
   22.0771  -20.3033  -12.8364 C   0  0  0  0  0  0  0  0  0  0  0  0
   21.2726  -20.2374  -13.9672 C   0  0  0  0  0  0  0  0  0  0  0  0
   21.6607  -19.4924  -15.0539 C   0  0  0  0  0  0  0  0  0  0  0  0
   22.8542  -18.8266  -14.9801 C   0  0  0  0  0  0  0  0  0  0  0  0
   23.6700  -18.8730  -13.8778 C   0  0  0  0  0  0  0  0  0  0  0  0
   23.2753  -19.6299  -12.7768 C   0  0  0  0  0  0  0  0  0  0  0  0
   25.9483  -21.3957   -9.8555 C   0  0  0  0  0  0  0  0  0  0  0  0
   25.9011  -22.7621  -10.1031 O   0  0  0  0  0  0  0  0  0  0  0  0
   25.7542  -21.0668   -8.6445 O   0  0  0  0  0  0  0  0  0  0  0  0
  2  1  1  6
  3  2  1  0
  4  3  1  0
  4  5  2  0
  6  5  1  0
  7  6  1  0
  8  7  2  0
  8  4  1  0
  9 11  1  0
  9  2  1  0
 10  9  2  0
 11 15  1  0
 12 11  1  0
 12 13  1  0
 13 14  1  0
 15 14  1  0
 15 16  1  1
 16 18  1  0
 17 16  2  0
 18 19  1  0
 19 20  1  6
 21 20  1  0
 22 21  2  0
 23 22  1  0
 24 23  1  0
 24 29  2  0
 25 24  1  0
 26 25  2  0
 26 27  1  0
 27 28  2  0
 28 29  1  0
 29 21  1  0
 30 31  1  0
 30 19  1  0
 32 30  2  0
M  END
$$$$
