HPW.pdb
     RDKit          3D

 32 35  0  0  1  0  0  0  0  0999 V2000
   25.0540  -17.6710  -18.1115 N   0  0  0  0  0  0  0  0  0  0  0  0
   25.7149  -17.8111  -16.8000 C   0  0  1  0  0  0  0  0  0  0  0  0
   24.6714  -17.2591  -15.8204 C   0  0  0  0  0  0  0  0  0  0  0  0
   24.4504  -15.8075  -16.0416 C   0  0  0  0  0  0  0  0  0  0  0  0
   25.1838  -14.7489  -15.5122 C   0  0  0  0  0  0  0  0  0  0  0  0
   24.6872  -13.6013  -15.9372 N   0  0  0  0  0  0  0  0  0  0  0  0
   23.6363  -13.8746  -16.7396 C   0  0  0  0  0  0  0  0  0  0  0  0
   23.5078  -15.2120  -16.7915 N   0  0  0  0  0  0  0  0  0  0  0  0
   25.9594  -19.2593  -16.5115 C   0  0  0  0  0  0  0  0  0  0  0  0
   25.1854  -20.0593  -17.1589 O   0  0  0  0  0  0  0  0  0  0  0  0
   26.9305  -19.7489  -15.6237 N   0  0  0  0  0  0  0  0  0  0  0  0
   27.7912  -18.9472  -14.8014 C   0  0  0  0  0  0  0  0  0  0  0  0
   29.1110  -19.7323  -14.8486 C   0  0  0  0  0  0  0  0  0  0  0  0
   28.7804  -21.0581  -15.4824 C   0  0  0  0  0  0  0  0  0  0  0  0
   27.2752  -21.1036  -15.3741 C   0  0  1  0  0  0  0  0  0  0  0  0
   26.9151  -21.6103  -14.0235 C   0  0  0  0  0  0  0  0  0  0  0  0
   27.8473  -22.1173  -13.3502 O   0  0  0  0  0  0  0  0  0  0  0  0
   25.6258  -21.5659  -13.4517 N   0  0  0  0  0  0  0  0  0  0  0  0
   25.4983  -21.4546  -11.9947 C   0  0  1  0  0  0  0  0  0  0  0  0
   26.5397  -20.5585  -11.4356 C   0  0  0  0  0  0  0  0  0  0  0  0
   26.4824  -20.3992   -9.9741 C   0  0  0  0  0  0  0  0  0  0  0  0
   25.4206  -19.8585   -9.2390 C   0  0  0  0  0  0  0  0  0  0  0  0
   25.7617  -19.8421   -7.9454 N   0  0  0  0  0  0  0  0  0  0  0  0
   26.9906  -20.3425   -7.7798 C   0  0  0  0  0  0  0  0  0  0  0  0
   27.7621  -20.5491   -6.6429 C   0  0  0  0  0  0  0  0  0  0  0  0
   29.0102  -21.1136   -6.7430 C   0  0  0  0  0  0  0  0  0  0  0  0
   29.4579  -21.4600   -7.9891 C   0  0  0  0  0  0  0  0  0  0  0  0
   28.7196  -21.2679   -9.1297 C   0  0  0  0  0  0  0  0  0  0  0  0
   27.4541  -20.6942   -9.0264 C   0  0  0  0  0  0  0  0  0  0  0  0
   24.1449  -21.1428  -11.5463 C   0  0  0  0  0  0  0  0  0  0  0  0
   23.3799  -20.1572  -12.1578 O   0  0  0  0  0  0  0  0  0  0  0  0
   23.5764  -21.7332  -10.5765 O   0  0  0  0  0  0  0  0  0  0  0  0
  2  1  1  6
  3  2  1  0
  4  3  1  0
  4  5  2  0
  6  5  1  0
  7  6  1  0
  8  7  2  0
  8  4  1  0
  9 11  1  0
  9  2  1  0
 10  9  2  0
 11 15  1  0
 12 11  1  0
 12 13  1  0
 13 14  1  0
 15 14  1  0
 15 16  1  1
 16 18  1  0
 17 16  2  0
 18 19  1  0
 19 20  1  6
 21 20  1  0
 22 21  2  0
 23 22  1  0
 24 23  1  0
 24 29  2  0
 25 24  1  0
 26 25  2  0
 26 27  1  0
 27 28  2  0
 28 29  1  0
 29 21  1  0
 30 31  1  0
 30 19  1  0
 32 30  2  0
M  END
$$$$
