HPW.pdb
     RDKit          3D

 32 35  0  0  1  0  0  0  0  0999 V2000
   13.9246  -20.5649    1.3977 N   0  0  0  0  0  0  0  0  0  0  0  0
   14.8148  -21.0179    2.4834 C   0  0  1  0  0  0  0  0  0  0  0  0
   16.1438  -21.2769    1.7626 C   0  0  0  0  0  0  0  0  0  0  0  0
   16.0076  -22.3787    0.7764 C   0  0  0  0  0  0  0  0  0  0  0  0
   15.7611  -22.2670   -0.5895 C   0  0  0  0  0  0  0  0  0  0  0  0
   15.7077  -23.4681   -1.1361 N   0  0  0  0  0  0  0  0  0  0  0  0
   15.9135  -24.3785   -0.1605 C   0  0  0  0  0  0  0  0  0  0  0  0
   16.0929  -23.7028    0.9880 N   0  0  0  0  0  0  0  0  0  0  0  0
   14.9904  -19.9174    3.4827 C   0  0  0  0  0  0  0  0  0  0  0  0
   14.7217  -18.7453    3.0222 O   0  0  0  0  0  0  0  0  0  0  0  0
   15.4089  -20.0973    4.8108 N   0  0  0  0  0  0  0  0  0  0  0  0
   15.8788  -21.3283    5.3794 C   0  0  0  0  0  0  0  0  0  0  0  0
   15.2857  -21.2802    6.7959 C   0  0  0  0  0  0  0  0  0  0  0  0
   14.7575  -19.8811    6.9752 C   0  0  0  0  0  0  0  0  0  0  0  0
   15.4336  -19.1323    5.8520 C   0  0  1  0  0  0  0  0  0  0  0  0
   16.7895  -18.7250    6.3062 C   0  0  0  0  0  0  0  0  0  0  0  0
   17.6980  -19.5861    6.1946 O   0  0  0  0  0  0  0  0  0  0  0  0
   17.1260  -17.4650    6.8450 N   0  0  0  0  0  0  0  0  0  0  0  0
   18.4859  -17.2486    7.3502 C   0  0  1  0  0  0  0  0  0  0  0  0
   18.8521  -15.8122    7.2963 C   0  0  0  0  0  0  0  0  0  0  0  0
   18.5126  -15.1465    6.0289 C   0  0  0  0  0  0  0  0  0  0  0  0
   17.7126  -15.6685    5.0053 C   0  0  0  0  0  0  0  0  0  0  0  0
   17.6758  -14.7862    4.0003 N   0  0  0  0  0  0  0  0  0  0  0  0
   18.4061  -13.7066    4.2993 C   0  0  0  0  0  0  0  0  0  0  0  0
   18.6557  -12.5331    3.5986 C   0  0  0  0  0  0  0  0  0  0  0  0
   19.4375  -11.5474    4.1497 C   0  0  0  0  0  0  0  0  0  0  0  0
   19.9536  -11.7634    5.3988 C   0  0  0  0  0  0  0  0  0  0  0  0
   19.7253  -12.9116    6.1146 C   0  0  0  0  0  0  0  0  0  0  0  0
   18.9328  -13.9108    5.5536 C   0  0  0  0  0  0  0  0  0  0  0  0
   18.7384  -17.8766    8.6432 C   0  0  0  0  0  0  0  0  0  0  0  0
   19.9731  -17.7839    9.2735 O   0  0  0  0  0  0  0  0  0  0  0  0
   17.8666  -18.5491    9.2758 O   0  0  0  0  0  0  0  0  0  0  0  0
  2  1  1  6
  3  2  1  0
  4  3  1  0
  4  5  2  0
  6  5  1  0
  7  6  1  0
  8  7  2  0
  8  4  1  0
  9 11  1  0
  9  2  1  0
 10  9  2  0
 11 15  1  0
 12 11  1  0
 12 13  1  0
 13 14  1  0
 15 14  1  0
 15 16  1  1
 16 18  1  0
 17 16  2  0
 18 19  1  0
 19 20  1  1
 21 20  1  0
 22 21  2  0
 23 22  1  0
 24 23  1  0
 24 29  2  0
 25 24  1  0
 26 25  2  0
 26 27  1  0
 27 28  2  0
 28 29  1  0
 29 21  1  0
 30 31  1  0
 30 19  1  0
 32 30  2  0
M  END
$$$$
