HPW.pdb
     RDKit          3D

 32 35  0  0  1  0  0  0  0  0999 V2000
   27.2107  -20.0930  -16.5618 N   0  0  0  0  0  0  0  0  0  0  0  0
   26.8307  -19.6621  -15.2030 C   0  0  1  0  0  0  0  0  0  0  0  0
   26.1099  -18.3300  -15.4459 C   0  0  0  0  0  0  0  0  0  0  0  0
   27.0097  -17.3521  -16.1085 C   0  0  0  0  0  0  0  0  0  0  0  0
   28.3862  -17.4564  -16.2912 C   0  0  0  0  0  0  0  0  0  0  0  0
   28.8375  -16.3889  -16.9246 N   0  0  0  0  0  0  0  0  0  0  0  0
   27.7882  -15.5747  -17.1673 C   0  0  0  0  0  0  0  0  0  0  0  0
   26.6922  -16.1723  -16.6677 N   0  0  0  0  0  0  0  0  0  0  0  0
   25.8756  -20.6503  -14.6100 C   0  0  0  0  0  0  0  0  0  0  0  0
   25.3963  -21.4895  -15.4610 O   0  0  0  0  0  0  0  0  0  0  0  0
   25.5042  -20.6965  -13.2568 N   0  0  0  0  0  0  0  0  0  0  0  0
   25.9957  -19.8281  -12.2253 C   0  0  0  0  0  0  0  0  0  0  0  0
   26.1122  -20.7808  -11.0255 C   0  0  0  0  0  0  0  0  0  0  0  0
   25.4093  -22.0485  -11.4350 C   0  0  0  0  0  0  0  0  0  0  0  0
   24.6061  -21.6021  -12.6329 C   0  0  1  0  0  0  0  0  0  0  0  0
   23.3344  -21.0016  -12.1504 C   0  0  0  0  0  0  0  0  0  0  0  0
   23.4382  -19.9733  -11.4355 O   0  0  0  0  0  0  0  0  0  0  0  0
   22.0415  -21.4929  -12.4302 N   0  0  0  0  0  0  0  0  0  0  0  0
   20.8944  -20.5879  -12.3018 C   0  0  1  0  0  0  0  0  0  0  0  0
   21.1758  -19.2775  -12.9374 C   0  0  0  0  0  0  0  0  0  0  0  0
   21.4602  -19.3509  -14.3791 C   0  0  0  0  0  0  0  0  0  0  0  0
   21.0722  -20.3757  -15.2506 C   0  0  0  0  0  0  0  0  0  0  0  0
   21.5556  -20.1060  -16.4686 N   0  0  0  0  0  0  0  0  0  0  0  0
   22.2426  -18.9588  -16.4552 C   0  0  0  0  0  0  0  0  0  0  0  0
   22.9035  -18.2622  -17.4594 C   0  0  0  0  0  0  0  0  0  0  0  0
   23.5245  -17.0684  -17.1842 C   0  0  0  0  0  0  0  0  0  0  0  0
   23.4673  -16.5983  -15.9001 C   0  0  0  0  0  0  0  0  0  0  0  0
   22.8230  -17.2636  -14.8876 C   0  0  0  0  0  0  0  0  0  0  0  0
   22.1945  -18.4750  -15.1683 C   0  0  0  0  0  0  0  0  0  0  0  0
   19.6272  -21.1852  -12.7108 C   0  0  0  0  0  0  0  0  0  0  0  0
   18.4060  -20.6197  -12.3651 O   0  0  0  0  0  0  0  0  0  0  0  0
   19.5456  -22.2515  -13.3953 O   0  0  0  0  0  0  0  0  0  0  0  0
  2  1  1  6
  3  2  1  0
  4  3  1  0
  4  5  2  0
  6  5  1  0
  7  6  1  0
  8  7  2  0
  8  4  1  0
  9 11  1  0
  9  2  1  0
 10  9  2  0
 11 15  1  0
 12 11  1  0
 12 13  1  0
 13 14  1  0
 15 14  1  0
 15 16  1  1
 16 18  1  0
 17 16  2  0
 18 19  1  0
 19 20  1  6
 21 20  1  0
 22 21  2  0
 23 22  1  0
 24 23  1  0
 24 29  2  0
 25 24  1  0
 26 25  2  0
 26 27  1  0
 27 28  2  0
 28 29  1  0
 29 21  1  0
 30 31  1  0
 30 19  1  0
 32 30  2  0
M  END
$$$$
