HPW.pdb
     RDKit          3D

 32 35  0  0  1  0  0  0  0  0999 V2000
   24.0744  -20.2409  -18.3016 N   0  0  0  0  0  0  0  0  0  0  0  0
   24.8333  -19.3895  -17.3657 C   0  0  1  0  0  0  0  0  0  0  0  0
   23.7515  -18.4920  -16.7516 C   0  0  0  0  0  0  0  0  0  0  0  0
   23.2410  -17.5171  -17.7484 C   0  0  0  0  0  0  0  0  0  0  0  0
   21.9949  -17.5152  -18.3700 C   0  0  0  0  0  0  0  0  0  0  0  0
   21.9060  -16.4879  -19.1952 N   0  0  0  0  0  0  0  0  0  0  0  0
   23.0691  -15.8049  -19.1359 C   0  0  0  0  0  0  0  0  0  0  0  0
   23.8637  -16.4405  -18.2570 N   0  0  0  0  0  0  0  0  0  0  0  0
   25.4483  -20.2392  -16.2978 C   0  0  0  0  0  0  0  0  0  0  0  0
   24.9338  -21.4160  -16.2050 O   0  0  0  0  0  0  0  0  0  0  0  0
   26.4909  -19.8337  -15.4494 N   0  0  0  0  0  0  0  0  0  0  0  0
   27.1565  -18.5630  -15.4917 C   0  0  0  0  0  0  0  0  0  0  0  0
   28.6115  -18.9468  -15.1819 C   0  0  0  0  0  0  0  0  0  0  0  0
   28.5717  -20.3812  -14.7239 C   0  0  0  0  0  0  0  0  0  0  0  0
   27.1081  -20.5823  -14.4127 C   0  0  1  0  0  0  0  0  0  0  0  0
   26.8475  -20.0897  -13.0343 C   0  0  0  0  0  0  0  0  0  0  0  0
   26.8013  -18.8425  -12.8862 O   0  0  0  0  0  0  0  0  0  0  0  0
   26.6523  -20.9048  -11.8990 N   0  0  0  0  0  0  0  0  0  0  0  0
   26.2483  -20.2785  -10.6358 C   0  0  1  0  0  0  0  0  0  0  0  0
   25.0818  -19.3839  -10.8337 C   0  0  0  0  0  0  0  0  0  0  0  0
   23.8022  -20.0866  -11.0165 C   0  0  0  0  0  0  0  0  0  0  0  0
   23.0488  -20.7131  -10.0163 C   0  0  0  0  0  0  0  0  0  0  0  0
   21.9751  -21.2772  -10.5810 N   0  0  0  0  0  0  0  0  0  0  0  0
   21.9726  -21.0600  -11.9004 C   0  0  0  0  0  0  0  0  0  0  0  0
   21.0753  -21.4215  -12.8977 C   0  0  0  0  0  0  0  0  0  0  0  0
   21.2956  -21.0458  -14.2004 C   0  0  0  0  0  0  0  0  0  0  0  0
   22.4177  -20.3114  -14.4736 C   0  0  0  0  0  0  0  0  0  0  0  0
   23.3218  -19.9400  -13.5106 C   0  0  0  0  0  0  0  0  0  0  0  0
   23.0974  -20.3228  -12.1899 C   0  0  0  0  0  0  0  0  0  0  0  0
   26.0898  -21.2248   -9.5361 C   0  0  0  0  0  0  0  0  0  0  0  0
   26.1475  -22.5983   -9.7381 O   0  0  0  0  0  0  0  0  0  0  0  0
   25.8840  -20.8715   -8.3340 O   0  0  0  0  0  0  0  0  0  0  0  0
  2  1  1  6
  3  2  1  0
  4  3  1  0
  4  5  2  0
  6  5  1  0
  7  6  1  0
  8  7  2  0
  8  4  1  0
  9 11  1  0
  9  2  1  0
 10  9  2  0
 11 15  1  0
 12 11  1  0
 12 13  1  0
 13 14  1  0
 15 14  1  0
 15 16  1  1
 16 18  1  0
 17 16  2  0
 18 19  1  0
 19 20  1  6
 21 20  1  0
 22 21  2  0
 23 22  1  0
 24 23  1  0
 24 29  2  0
 25 24  1  0
 26 25  2  0
 26 27  1  0
 27 28  2  0
 28 29  1  0
 29 21  1  0
 30 31  1  0
 30 19  1  0
 32 30  2  0
M  END
$$$$
