HPW.pdb
     RDKit          3D

 32 35  0  0  1  0  0  0  0  0999 V2000
   24.0354  -19.5601  -16.5448 N   0  0  0  0  0  0  0  0  0  0  0  0
   24.9243  -19.0416  -15.4877 C   0  0  1  0  0  0  0  0  0  0  0  0
   23.9729  -18.2383  -14.5918 C   0  0  0  0  0  0  0  0  0  0  0  0
   23.4312  -17.0595  -15.3143 C   0  0  0  0  0  0  0  0  0  0  0  0
   22.1132  -16.8381  -15.7056 C   0  0  0  0  0  0  0  0  0  0  0  0
   22.0176  -15.6754  -16.3246 N   0  0  0  0  0  0  0  0  0  0  0  0
   23.2467  -15.1174  -16.3538 C   0  0  0  0  0  0  0  0  0  0  0  0
   24.0882  -15.9671  -15.7390 N   0  0  0  0  0  0  0  0  0  0  0  0
   25.5026  -20.1833  -14.7114 C   0  0  0  0  0  0  0  0  0  0  0  0
   24.8106  -21.2670  -14.7816 O   0  0  0  0  0  0  0  0  0  0  0  0
   26.6869  -20.1257  -13.9596 N   0  0  0  0  0  0  0  0  0  0  0  0
   27.5063  -18.9613  -13.7790 C   0  0  0  0  0  0  0  0  0  0  0  0
   28.9239  -19.5531  -13.8062 C   0  0  0  0  0  0  0  0  0  0  0  0
   28.7493  -21.0472  -13.7287 C   0  0  0  0  0  0  0  0  0  0  0  0
   27.3218  -21.1833  -13.2564 C   0  0  1  0  0  0  0  0  0  0  0  0
   27.3019  -21.0605  -11.7748 C   0  0  0  0  0  0  0  0  0  0  0  0
   27.7710  -19.9975  -11.2960 O   0  0  0  0  0  0  0  0  0  0  0  0
   26.8045  -22.0330  -10.8814 N   0  0  0  0  0  0  0  0  0  0  0  0
   26.5646  -21.6574   -9.4840 C   0  0  1  0  0  0  0  0  0  0  0  0
   27.8281  -21.2649   -8.8133 C   0  0  0  0  0  0  0  0  0  0  0  0
   27.6476  -20.3978   -7.6384 C   0  0  0  0  0  0  0  0  0  0  0  0
   26.5538  -19.5617   -7.3840 C   0  0  0  0  0  0  0  0  0  0  0  0
   26.7772  -18.9025   -6.2414 N   0  0  0  0  0  0  0  0  0  0  0  0
   27.9580  -19.2545   -5.7220 C   0  0  0  0  0  0  0  0  0  0  0  0
   28.6117  -18.8671   -4.5588 C   0  0  0  0  0  0  0  0  0  0  0  0
   29.8323  -19.4072   -4.2346 C   0  0  0  0  0  0  0  0  0  0  0  0
   30.3716  -20.3293   -5.0901 C   0  0  0  0  0  0  0  0  0  0  0  0
   29.7505  -20.7312   -6.2458 C   0  0  0  0  0  0  0  0  0  0  0  0
   28.5129  -20.1815   -6.5736 C   0  0  0  0  0  0  0  0  0  0  0  0
   25.4793  -20.6968   -9.3126 C   0  0  0  0  0  0  0  0  0  0  0  0
   24.7953  -20.5720   -8.1096 O   0  0  0  0  0  0  0  0  0  0  0  0
   25.0803  -19.9210  -10.2351 O   0  0  0  0  0  0  0  0  0  0  0  0
  2  1  1  6
  3  2  1  0
  4  3  1  0
  4  5  2  0
  6  5  1  0
  7  6  1  0
  8  7  2  0
  8  4  1  0
  9 11  1  0
  9  2  1  0
 10  9  2  0
 11 15  1  0
 12 11  1  0
 12 13  1  0
 13 14  1  0
 15 14  1  0
 15 16  1  1
 16 18  1  0
 17 16  2  0
 18 19  1  0
 19 20  1  6
 21 20  1  0
 22 21  2  0
 23 22  1  0
 24 23  1  0
 24 29  2  0
 25 24  1  0
 26 25  2  0
 26 27  1  0
 27 28  2  0
 28 29  1  0
 29 21  1  0
 30 31  1  0
 30 19  1  0
 32 30  2  0
M  END
$$$$
