HPW.pdb
     RDKit          3D

 32 35  0  0  1  0  0  0  0  0999 V2000
   26.8190  -22.5188  -17.3234 N   0  0  0  0  0  0  0  0  0  0  0  0
   26.4176  -21.4224  -16.4214 C   0  0  1  0  0  0  0  0  0  0  0  0
   24.8866  -21.4335  -16.5152 C   0  0  0  0  0  0  0  0  0  0  0  0
   24.3006  -20.2866  -15.7762 C   0  0  0  0  0  0  0  0  0  0  0  0
   24.7179  -18.9584  -15.8048 C   0  0  0  0  0  0  0  0  0  0  0  0
   23.9492  -18.2289  -15.0167 N   0  0  0  0  0  0  0  0  0  0  0  0
   23.0275  -19.0453  -14.4629 C   0  0  0  0  0  0  0  0  0  0  0  0
   23.2546  -20.2845  -14.9328 N   0  0  0  0  0  0  0  0  0  0  0  0
   26.8383  -21.7428  -15.0212 C   0  0  0  0  0  0  0  0  0  0  0  0
   26.7785  -22.9960  -14.7311 O   0  0  0  0  0  0  0  0  0  0  0  0
   27.2652  -20.7981  -14.0744 N   0  0  0  0  0  0  0  0  0  0  0  0
   27.2717  -19.3748  -14.2583 C   0  0  0  0  0  0  0  0  0  0  0  0
   28.5649  -18.9594  -13.5402 C   0  0  0  0  0  0  0  0  0  0  0  0
   29.0250  -20.1763  -12.7811 C   0  0  0  0  0  0  0  0  0  0  0  0
   27.7890  -21.0434  -12.7776 C   0  0  1  0  0  0  0  0  0  0  0  0
   26.9173  -20.6168  -11.6512 C   0  0  0  0  0  0  0  0  0  0  0  0
   26.0402  -19.7573  -11.9182 O   0  0  0  0  0  0  0  0  0  0  0  0
   27.0009  -21.0967  -10.3269 N   0  0  0  0  0  0  0  0  0  0  0  0
   25.7645  -21.4381   -9.6155 C   0  0  1  0  0  0  0  0  0  0  0  0
   25.9993  -21.5323   -8.1539 C   0  0  0  0  0  0  0  0  0  0  0  0
   26.6615  -20.3560   -7.5686 C   0  0  0  0  0  0  0  0  0  0  0  0
   26.4579  -19.0204   -7.9358 C   0  0  0  0  0  0  0  0  0  0  0  0
   27.2732  -18.2486   -7.2080 N   0  0  0  0  0  0  0  0  0  0  0  0
   28.0066  -18.9968   -6.3772 C   0  0  0  0  0  0  0  0  0  0  0  0
   28.9628  -18.6610   -5.4268 C   0  0  0  0  0  0  0  0  0  0  0  0
   29.5645  -19.6374   -4.6710 C   0  0  0  0  0  0  0  0  0  0  0  0
   29.1904  -20.9359   -4.8877 C   0  0  0  0  0  0  0  0  0  0  0  0
   28.2501  -21.2983   -5.8190 C   0  0  0  0  0  0  0  0  0  0  0  0
   27.6415  -20.3067   -6.5854 C   0  0  0  0  0  0  0  0  0  0  0  0
   24.6270  -20.5997   -9.9804 C   0  0  0  0  0  0  0  0  0  0  0  0
   23.3166  -21.0256   -9.8019 O   0  0  0  0  0  0  0  0  0  0  0  0
   24.7463  -19.4410  -10.4858 O   0  0  0  0  0  0  0  0  0  0  0  0
  2  1  1  6
  3  2  1  0
  4  3  1  0
  4  5  2  0
  6  5  1  0
  7  6  1  0
  8  7  2  0
  8  4  1  0
  9 11  1  0
  9  2  1  0
 10  9  2  0
 11 15  1  0
 12 11  1  0
 12 13  1  0
 13 14  1  0
 15 14  1  0
 15 16  1  1
 16 18  1  0
 17 16  2  0
 18 19  1  0
 19 20  1  1
 21 20  1  0
 22 21  2  0
 23 22  1  0
 24 23  1  0
 24 29  2  0
 25 24  1  0
 26 25  2  0
 26 27  1  0
 27 28  2  0
 28 29  1  0
 29 21  1  0
 30 31  1  0
 30 19  1  0
 32 30  2  0
M  END
$$$$
