HPW.pdb
     RDKit          3D

 32 35  0  0  1  0  0  0  0  0999 V2000
   24.5404  -18.7685  -16.4934 N   0  0  0  0  0  0  0  0  0  0  0  0
   24.9899  -19.9392  -15.7162 C   0  0  1  0  0  0  0  0  0  0  0  0
   26.4743  -20.0562  -16.0848 C   0  0  0  0  0  0  0  0  0  0  0  0
   26.6390  -20.4711  -17.5010 C   0  0  0  0  0  0  0  0  0  0  0  0
   26.9062  -19.6548  -18.5971 C   0  0  0  0  0  0  0  0  0  0  0  0
   26.9846  -20.3866  -19.6937 N   0  0  0  0  0  0  0  0  0  0  0  0
   26.7745  -21.6752  -19.3499 C   0  0  0  0  0  0  0  0  0  0  0  0
   26.5676  -21.7078  -18.0217 N   0  0  0  0  0  0  0  0  0  0  0  0
   24.8557  -19.6538  -14.2530 C   0  0  0  0  0  0  0  0  0  0  0  0
   25.1511  -18.4436  -13.9271 O   0  0  0  0  0  0  0  0  0  0  0  0
   24.4501  -20.5875  -13.2861 N   0  0  0  0  0  0  0  0  0  0  0  0
   24.1889  -21.9783  -13.5253 C   0  0  0  0  0  0  0  0  0  0  0  0
   22.9851  -22.2461  -12.6089 C   0  0  0  0  0  0  0  0  0  0  0  0
   22.8559  -21.0293  -11.7306 C   0  0  0  0  0  0  0  0  0  0  0  0
   24.1959  -20.3567  -11.9084 C   0  0  1  0  0  0  0  0  0  0  0  0
   25.1656  -20.9833  -10.9716 C   0  0  0  0  0  0  0  0  0  0  0  0
   24.9690  -22.1922  -10.6901 O   0  0  0  0  0  0  0  0  0  0  0  0
   26.2713  -20.3321  -10.3845 N   0  0  0  0  0  0  0  0  0  0  0  0
   26.6892  -20.7204   -9.0332 C   0  0  1  0  0  0  0  0  0  0  0  0
   27.6655  -19.7513   -8.4783 C   0  0  0  0  0  0  0  0  0  0  0  0
   28.2890  -20.1743   -7.2146 C   0  0  0  0  0  0  0  0  0  0  0  0
   28.8065  -21.4433   -6.9281 C   0  0  0  0  0  0  0  0  0  0  0  0
   29.2454  -21.4500   -5.6643 N   0  0  0  0  0  0  0  0  0  0  0  0
   29.0492  -20.2560   -5.0952 C   0  0  0  0  0  0  0  0  0  0  0  0
   29.3494  -19.7725   -3.8277 C   0  0  0  0  0  0  0  0  0  0  0  0
   29.0603  -18.4720   -3.4933 C   0  0  0  0  0  0  0  0  0  0  0  0
   28.4733  -17.6821   -4.4444 C   0  0  0  0  0  0  0  0  0  0  0  0
   28.1645  -18.1311   -5.7037 C   0  0  0  0  0  0  0  0  0  0  0  0
   28.4575  -19.4508   -6.0408 C   0  0  0  0  0  0  0  0  0  0  0  0
   25.5760  -21.0189   -8.1379 C   0  0  0  0  0  0  0  0  0  0  0  0
   24.6003  -20.0747   -7.8429 O   0  0  0  0  0  0  0  0  0  0  0  0
   25.4210  -22.1416   -7.5654 O   0  0  0  0  0  0  0  0  0  0  0  0
  2  1  1  6
  3  2  1  0
  4  3  1  0
  4  5  2  0
  6  5  1  0
  7  6  1  0
  8  7  2  0
  8  4  1  0
  9 11  1  0
  9  2  1  0
 10  9  2  0
 11 15  1  0
 12 11  1  0
 12 13  1  0
 13 14  1  0
 15 14  1  0
 15 16  1  1
 16 18  1  0
 17 16  2  0
 18 19  1  0
 19 20  1  1
 21 20  1  0
 22 21  2  0
 23 22  1  0
 24 23  1  0
 24 29  2  0
 25 24  1  0
 26 25  2  0
 26 27  1  0
 27 28  2  0
 28 29  1  0
 29 21  1  0
 30 31  1  0
 30 19  1  0
 32 30  2  0
M  END
$$$$
