HPW.pdb
     RDKit          3D

 32 35  0  0  1  0  0  0  0  0999 V2000
   25.2952  -17.6614  -17.5763 N   0  0  0  0  0  0  0  0  0  0  0  0
   25.6952  -17.7072  -16.1570 C   0  0  1  0  0  0  0  0  0  0  0  0
   24.3907  -17.3911  -15.4144 C   0  0  0  0  0  0  0  0  0  0  0  0
   23.9664  -15.9893  -15.6588 C   0  0  0  0  0  0  0  0  0  0  0  0
   24.6341  -14.8253  -15.2870 C   0  0  0  0  0  0  0  0  0  0  0  0
   23.9468  -13.7681  -15.6796 N   0  0  0  0  0  0  0  0  0  0  0  0
   22.8333  -14.2050  -16.3059 C   0  0  0  0  0  0  0  0  0  0  0  0
   22.8616  -15.5492  -16.2842 N   0  0  0  0  0  0  0  0  0  0  0  0
   26.1515  -19.0891  -15.8069 C   0  0  0  0  0  0  0  0  0  0  0  0
   25.5977  -20.0160  -16.5084 O   0  0  0  0  0  0  0  0  0  0  0  0
   27.0932  -19.3963  -14.8118 N   0  0  0  0  0  0  0  0  0  0  0  0
   27.7376  -18.4473  -13.9495 C   0  0  0  0  0  0  0  0  0  0  0  0
   29.1590  -19.0200  -13.8391 C   0  0  0  0  0  0  0  0  0  0  0  0
   29.0965  -20.3992  -14.4415 C   0  0  0  0  0  0  0  0  0  0  0  0
   27.6121  -20.6734  -14.4716 C   0  0  1  0  0  0  0  0  0  0  0  0
   27.2012  -21.1897  -13.1392 C   0  0  0  0  0  0  0  0  0  0  0  0
   27.8360  -22.1838  -12.7053 O   0  0  0  0  0  0  0  0  0  0  0  0
   26.1683  -20.6558  -12.3396 N   0  0  0  0  0  0  0  0  0  0  0  0
   25.2571  -21.5748  -11.6494 C   0  0  1  0  0  0  0  0  0  0  0  0
   25.8525  -22.0639  -10.3819 C   0  0  0  0  0  0  0  0  0  0  0  0
   26.1546  -21.0057   -9.4053 C   0  0  0  0  0  0  0  0  0  0  0  0
   25.2863  -19.9903   -8.9864 C   0  0  0  0  0  0  0  0  0  0  0  0
   25.9383  -19.1988   -8.1271 N   0  0  0  0  0  0  0  0  0  0  0  0
   27.1911  -19.6320   -7.9511 C   0  0  0  0  0  0  0  0  0  0  0  0
   28.2304  -19.1650   -7.1560 C   0  0  0  0  0  0  0  0  0  0  0  0
   29.4384  -19.8185   -7.1366 C   0  0  0  0  0  0  0  0  0  0  0  0
   29.5762  -20.9321   -7.9201 C   0  0  0  0  0  0  0  0  0  0  0  0
   28.5688  -21.4167   -8.7158 C   0  0  0  0  0  0  0  0  0  0  0  0
   27.3444  -20.7521   -8.7350 C   0  0  0  0  0  0  0  0  0  0  0  0
   23.8998  -21.0577  -11.5060 C   0  0  0  0  0  0  0  0  0  0  0  0
   23.5788  -19.7448  -11.8279 O   0  0  0  0  0  0  0  0  0  0  0  0
   22.9282  -21.7539  -11.0775 O   0  0  0  0  0  0  0  0  0  0  0  0
  2  1  1  6
  3  2  1  0
  4  3  1  0
  4  5  2  0
  6  5  1  0
  7  6  1  0
  8  7  2  0
  8  4  1  0
  9 11  1  0
  9  2  1  0
 10  9  2  0
 11 15  1  0
 12 11  1  0
 12 13  1  0
 13 14  1  0
 15 14  1  0
 15 16  1  1
 16 18  1  0
 17 16  2  0
 18 19  1  0
 19 20  1  1
 21 20  1  0
 22 21  2  0
 23 22  1  0
 24 23  1  0
 24 29  2  0
 25 24  1  0
 26 25  2  0
 26 27  1  0
 27 28  2  0
 28 29  1  0
 29 21  1  0
 30 31  1  0
 30 19  1  0
 32 30  2  0
M  END
$$$$
