NKC.pdb
     RDKit          3D

 24 23  0  0  1  0  0  0  0  0999 V2000
   11.6994  -14.8201   17.7171 N   0  0  0  0  0  0  0  0  0  0  0  0
   11.9330  -14.0217   18.8595 C   0  0  0  0  0  0  0  0  0  0  0  0
   13.0847  -13.6016   19.0753 O   0  0  0  0  0  0  0  0  0  0  0  0
   10.8413  -13.6855   19.7866 C   0  0  0  0  0  0  0  0  0  0  0  0
    9.5963  -14.3858   19.3455 C   0  0  2  0  0  0  0  0  0  0  0  0
    8.9182  -13.5263   18.3934 N   0  0  0  0  0  0  0  0  0  0  0  0
    8.6769  -14.6981   20.4660 C   0  0  0  0  0  0  0  0  0  0  0  0
    7.8396  -13.8410   20.8503 O   0  0  0  0  0  0  0  0  0  0  0  0
    8.6885  -15.9433   21.1482 N   0  0  0  0  0  0  0  0  0  0  0  0
    7.7632  -16.3197   22.1988 C   0  0  1  0  0  0  0  0  0  0  0  0
    7.5797  -17.8178   22.1404 C   0  0  0  0  0  0  0  0  0  0  0  0
    6.7238  -18.3451   23.2650 C   0  0  0  0  0  0  0  0  0  0  0  0
    6.4804  -19.8337   23.1464 C   0  0  0  0  0  0  0  0  0  0  0  0
    5.6176  -20.2514   24.3238 C   0  0  0  0  0  0  0  0  0  0  0  0
    5.4761  -21.6938   24.3254 N   0  0  0  0  0  0  0  0  0  0  0  0
    8.3844  -15.9212   23.5027 C   0  0  0  0  0  0  0  0  0  0  0  0
    9.5982  -16.1623   23.6441 O   0  0  0  0  0  0  0  0  0  0  0  0
    7.6490  -15.3025   24.5329 N   0  0  0  0  0  0  0  0  0  0  0  0
    8.2489  -14.9173   25.7885 C   0  0  1  0  0  0  0  0  0  0  0  0
    7.2077  -14.0856   26.5468 C   0  0  0  0  0  0  0  0  0  0  0  0
    6.7837  -12.6102   25.5691 S   0  0  0  0  0  0  0  0  0  0  0  0
    8.4860  -16.1455   26.6034 C   0  0  0  0  0  0  0  0  0  0  0  0
    9.1495  -16.1126   27.8140 O   0  0  0  0  0  0  0  0  0  0  0  0
    8.0794  -17.2792   26.2046 O   0  0  0  0  0  0  0  0  0  0  0  0
  2  3  2  0
  2  1  1  0
  4  2  1  0
  5  4  1  0
  5  6  1  6
  7  8  2  0
  7  5  1  0
  9  7  1  0
 10 11  1  1
 10  9  1  0
 11 12  1  0
 13 12  1  0
 13 14  1  0
 14 15  1  0
 16 10  1  0
 17 16  2  0
 18 16  1  0
 19 20  1  1
 19 18  1  0
 20 21  1  0
 22 23  1  0
 22 19  1  0
 24 22  2  0
M  END
$$$$
