NKC.pdb
     RDKit          3D

 24 23  0  0  1  0  0  0  0  0999 V2000
    9.8673  -14.0467   18.8512 N   0  0  0  0  0  0  0  0  0  0  0  0
    8.4669  -13.8674   18.7886 C   0  0  0  0  0  0  0  0  0  0  0  0
    7.9509  -13.5282   17.7078 O   0  0  0  0  0  0  0  0  0  0  0  0
    7.6214  -14.0751   19.9745 C   0  0  0  0  0  0  0  0  0  0  0  0
    7.8013  -15.4777   20.4597 C   0  0  2  0  0  0  0  0  0  0  0  0
    7.1527  -16.3618   19.5095 N   0  0  0  0  0  0  0  0  0  0  0  0
    7.2300  -15.7038   21.8092 C   0  0  0  0  0  0  0  0  0  0  0  0
    6.0594  -15.3219   22.0687 O   0  0  0  0  0  0  0  0  0  0  0  0
    7.9486  -16.3441   22.8529 N   0  0  0  0  0  0  0  0  0  0  0  0
    7.4740  -16.4913   24.2148 C   0  0  1  0  0  0  0  0  0  0  0  0
    7.8805  -17.8620   24.7020 C   0  0  0  0  0  0  0  0  0  0  0  0
    7.4938  -18.1088   26.1390 C   0  0  0  0  0  0  0  0  0  0  0  0
    8.0290  -19.4266   26.6550 C   0  0  0  0  0  0  0  0  0  0  0  0
    7.6478  -19.5326   28.1209 C   0  0  0  0  0  0  0  0  0  0  0  0
    8.3075  -20.6836   28.7047 N   0  0  0  0  0  0  0  0  0  0  0  0
    8.1390  -15.4284   25.0351 C   0  0  0  0  0  0  0  0  0  0  0  0
    9.3763  -15.3296   24.9308 O   0  0  0  0  0  0  0  0  0  0  0  0
    7.4183  -14.5711   25.8897 N   0  0  0  0  0  0  0  0  0  0  0  0
    8.0615  -13.5554   26.6895 C   0  0  1  0  0  0  0  0  0  0  0  0
    6.9505  -12.6811   27.2828 C   0  0  0  0  0  0  0  0  0  0  0  0
    5.8786  -12.0736   25.9433 S   0  0  0  0  0  0  0  0  0  0  0  0
    8.7445  -14.2138   27.8422 C   0  0  0  0  0  0  0  0  0  0  0  0
    8.6454  -15.5698   28.0836 O   0  0  0  0  0  0  0  0  0  0  0  0
    9.4504  -13.5387   28.6519 O   0  0  0  0  0  0  0  0  0  0  0  0
  2  3  2  0
  2  1  1  0
  4  2  1  0
  5  4  1  0
  5  6  1  6
  7  8  2  0
  7  5  1  0
  9  7  1  0
 10 11  1  1
 10  9  1  0
 11 12  1  0
 13 12  1  0
 13 14  1  0
 14 15  1  0
 16 10  1  0
 17 16  2  0
 18 16  1  0
 19 20  1  1
 19 18  1  0
 20 21  1  0
 22 23  1  0
 22 19  1  0
 24 22  2  0
M  END
$$$$
