NKC.pdb
     RDKit          3D

 24 23  0  0  1  0  0  0  0  0999 V2000
    7.1856  -12.8076   17.3428 N   0  0  0  0  0  0  0  0  0  0  0  0
    7.8392  -13.5531   18.3497 C   0  0  0  0  0  0  0  0  0  0  0  0
    8.6765  -14.4116   18.0159 O   0  0  0  0  0  0  0  0  0  0  0  0
    7.5440  -13.3279   19.7733 C   0  0  0  0  0  0  0  0  0  0  0  0
    8.4699  -14.1618   20.5994 C   0  0  2  0  0  0  0  0  0  0  0  0
    8.7492  -15.3784   19.8598 N   0  0  0  0  0  0  0  0  0  0  0  0
    7.9089  -14.5122   21.9264 C   0  0  0  0  0  0  0  0  0  0  0  0
    7.3513  -13.6281   22.6270 O   0  0  0  0  0  0  0  0  0  0  0  0
    7.9671  -15.8245   22.4654 N   0  0  0  0  0  0  0  0  0  0  0  0
    7.4512  -16.2088   23.7646 C   0  0  1  0  0  0  0  0  0  0  0  0
    7.6483  -17.6982   23.9198 C   0  0  0  0  0  0  0  0  0  0  0  0
    7.2262  -18.2044   25.2766 C   0  0  0  0  0  0  0  0  0  0  0  0
    7.4864  -19.6861   25.4386 C   0  0  0  0  0  0  0  0  0  0  0  0
    6.9737  -20.0936   26.8084 C   0  0  0  0  0  0  0  0  0  0  0  0
    7.2142  -21.5089   27.0076 N   0  0  0  0  0  0  0  0  0  0  0  0
    8.2462  -15.4677   24.7960 C   0  0  0  0  0  0  0  0  0  0  0  0
    9.4806  -15.4293   24.6337 O   0  0  0  0  0  0  0  0  0  0  0  0
    7.6463  -14.8375   25.9041 N   0  0  0  0  0  0  0  0  0  0  0  0
    8.3876  -13.9891   26.8072 C   0  0  1  0  0  0  0  0  0  0  0  0
    7.3612  -13.1609   27.5891 C   0  0  0  0  0  0  0  0  0  0  0  0
    6.1592  -12.4369   26.4301 S   0  0  0  0  0  0  0  0  0  0  0  0
    9.0886  -14.8489   27.8062 C   0  0  0  0  0  0  0  0  0  0  0  0
    9.9702  -14.3335   28.7357 O   0  0  0  0  0  0  0  0  0  0  0  0
    8.8947  -16.1024   27.8354 O   0  0  0  0  0  0  0  0  0  0  0  0
  2  3  2  0
  2  1  1  0
  4  2  1  0
  5  4  1  0
  5  6  1  6
  7  8  2  0
  7  5  1  0
  9  7  1  0
 10 11  1  1
 10  9  1  0
 11 12  1  0
 13 12  1  0
 13 14  1  0
 14 15  1  0
 16 10  1  0
 17 16  2  0
 18 16  1  0
 19 20  1  1
 19 18  1  0
 20 21  1  0
 22 23  1  0
 22 19  1  0
 24 22  2  0
M  END
$$$$
