NKC.pdb
     RDKit          3D

 24 23  0  0  1  0  0  0  0  0999 V2000
    8.1984  -12.2081   17.6897 N   0  0  0  0  0  0  0  0  0  0  0  0
    7.7363  -13.5142   17.9679 C   0  0  0  0  0  0  0  0  0  0  0  0
    7.8325  -14.3877   17.0863 O   0  0  0  0  0  0  0  0  0  0  0  0
    7.1489  -13.8492   19.2745 C   0  0  0  0  0  0  0  0  0  0  0  0
    8.2205  -14.3933   20.1638 C   0  0  2  0  0  0  0  0  0  0  0  0
    8.7594  -15.5828   19.5314 N   0  0  0  0  0  0  0  0  0  0  0  0
    7.7309  -14.7378   21.5203 C   0  0  0  0  0  0  0  0  0  0  0  0
    7.1513  -13.8671   22.2198 O   0  0  0  0  0  0  0  0  0  0  0  0
    7.8835  -16.0295   22.0895 N   0  0  0  0  0  0  0  0  0  0  0  0
    7.3277  -16.4433   23.3629 C   0  0  1  0  0  0  0  0  0  0  0  0
    7.2707  -17.9526   23.3756 C   0  0  0  0  0  0  0  0  0  0  0  0
    5.9291  -18.4896   22.9429 C   0  0  0  0  0  0  0  0  0  0  0  0
    5.8896  -20.0021   22.9547 C   0  0  0  0  0  0  0  0  0  0  0  0
    4.5142  -20.4275   22.4727 C   0  0  0  0  0  0  0  0  0  0  0  0
    4.4564  -21.8743   22.4079 N   0  0  0  0  0  0  0  0  0  0  0  0
    8.2511  -15.9478   24.4337 C   0  0  0  0  0  0  0  0  0  0  0  0
    9.4724  -16.0156   24.1984 O   0  0  0  0  0  0  0  0  0  0  0  0
    7.7816  -15.4264   25.6554 N   0  0  0  0  0  0  0  0  0  0  0  0
    8.6718  -14.9337   26.6800 C   0  0  1  0  0  0  0  0  0  0  0  0
    7.9510  -13.7770   27.3823 C   0  0  0  0  0  0  0  0  0  0  0  0
    7.5768  -12.4723   26.1698 S   0  0  0  0  0  0  0  0  0  0  0  0
    8.8600  -16.0017   27.7059 C   0  0  0  0  0  0  0  0  0  0  0  0
    9.7188  -15.8545   28.7772 O   0  0  0  0  0  0  0  0  0  0  0  0
    8.2269  -17.0984   27.6268 O   0  0  0  0  0  0  0  0  0  0  0  0
  2  3  2  0
  2  1  1  0
  4  2  1  0
  5  4  1  0
  5  6  1  6
  7  8  2  0
  7  5  1  0
  9  7  1  0
 10 11  1  6
 10  9  1  0
 11 12  1  0
 13 12  1  0
 13 14  1  0
 14 15  1  0
 16 10  1  0
 17 16  2  0
 18 16  1  0
 19 20  1  1
 19 18  1  0
 20 21  1  0
 22 23  1  0
 22 19  1  0
 24 22  2  0
M  END
$$$$
