NKC.pdb
     RDKit          3D

 24 23  0  0  1  0  0  0  0  0999 V2000
   15.5308  -16.2316   14.2068 N   0  0  0  0  0  0  0  0  0  0  0  0
   14.2006  -16.6959   14.3167 C   0  0  0  0  0  0  0  0  0  0  0  0
   13.7947  -17.5560   13.5137 O   0  0  0  0  0  0  0  0  0  0  0  0
   13.3000  -16.1790   15.3590 C   0  0  0  0  0  0  0  0  0  0  0  0
   13.3464  -17.0956   16.5392 C   0  0  2  0  0  0  0  0  0  0  0  0
   12.6662  -18.3239   16.1731 N   0  0  0  0  0  0  0  0  0  0  0  0
   12.7057  -16.5213   17.7467 C   0  0  0  0  0  0  0  0  0  0  0  0
   13.1389  -15.4466   18.2378 O   0  0  0  0  0  0  0  0  0  0  0  0
   11.6015  -17.1319   18.3976 N   0  0  0  0  0  0  0  0  0  0  0  0
   10.9146  -16.5842   19.5507 C   0  0  1  0  0  0  0  0  0  0  0  0
    9.5801  -17.2816   19.6701 C   0  0  0  0  0  0  0  0  0  0  0  0
    9.1744  -17.9866   18.3998 C   0  0  0  0  0  0  0  0  0  0  0  0
    7.9043  -18.7901   18.5744 C   0  0  0  0  0  0  0  0  0  0  0  0
    7.6244  -19.4948   17.2590 C   0  0  0  0  0  0  0  0  0  0  0  0
    6.3607  -20.1983   17.3527 N   0  0  0  0  0  0  0  0  0  0  0  0
   11.7623  -16.8723   20.7521 C   0  0  0  0  0  0  0  0  0  0  0  0
   12.1691  -18.0420   20.8856 O   0  0  0  0  0  0  0  0  0  0  0  0
   12.0953  -15.8824   21.6976 N   0  0  0  0  0  0  0  0  0  0  0  0
   12.2538  -16.1758   23.1025 C   0  0  1  0  0  0  0  0  0  0  0  0
   10.9291  -16.7762   23.5878 C   0  0  0  0  0  0  0  0  0  0  0  0
    9.9288  -15.4761   24.3762 S   0  0  0  0  0  0  0  0  0  0  0  0
   13.2852  -17.2442   23.2558 C   0  0  0  0  0  0  0  0  0  0  0  0
   13.7134  -17.6863   24.4920 O   0  0  0  0  0  0  0  0  0  0  0  0
   13.8115  -17.7909   22.2390 O   0  0  0  0  0  0  0  0  0  0  0  0
  2  3  2  0
  2  1  1  0
  4  2  1  0
  5  4  1  0
  5  6  1  6
  7  8  2  0
  7  5  1  0
  9  7  1  0
 10 11  1  1
 10  9  1  0
 11 12  1  0
 13 12  1  0
 13 14  1  0
 14 15  1  0
 16 10  1  0
 17 16  2  0
 18 16  1  0
 19 20  1  6
 19 18  1  0
 20 21  1  0
 22 23  1  0
 22 19  1  0
 24 22  2  0
M  END
$$$$
