NKC.pdb
     RDKit          3D

 24 23  0  0  1  0  0  0  0  0999 V2000
   15.0859  -16.1755   19.6595 N   0  0  0  0  0  0  0  0  0  0  0  0
   14.1309  -15.1999   19.2944 C   0  0  0  0  0  0  0  0  0  0  0  0
   14.3882  -14.4282   18.3522 O   0  0  0  0  0  0  0  0  0  0  0  0
   12.8494  -15.0878   20.0084 C   0  0  0  0  0  0  0  0  0  0  0  0
   12.8560  -16.0302   21.1690 C   0  0  2  0  0  0  0  0  0  0  0  0
   12.6042  -17.3645   20.6576 N   0  0  0  0  0  0  0  0  0  0  0  0
   11.8374  -15.6973   22.1938 C   0  0  0  0  0  0  0  0  0  0  0  0
   11.8115  -14.5477   22.7048 O   0  0  0  0  0  0  0  0  0  0  0  0
   10.8635  -16.6278   22.6429 N   0  0  0  0  0  0  0  0  0  0  0  0
    9.7777  -16.3152   23.5512 C   0  0  1  0  0  0  0  0  0  0  0  0
    8.8206  -17.4837   23.5495 C   0  0  0  0  0  0  0  0  0  0  0  0
    8.2330  -17.7546   22.1869 C   0  0  0  0  0  0  0  0  0  0  0  0
    7.3477  -18.9817   22.1816 C   0  0  0  0  0  0  0  0  0  0  0  0
    6.8499  -19.1804   20.7611 C   0  0  0  0  0  0  0  0  0  0  0  0
    6.1030  -20.4201   20.6850 N   0  0  0  0  0  0  0  0  0  0  0  0
   10.3752  -16.1331   24.9131 C   0  0  0  0  0  0  0  0  0  0  0  0
   11.3719  -16.8282   25.1872 O   0  0  0  0  0  0  0  0  0  0  0  0
    9.8507  -15.2249   25.8537 N   0  0  0  0  0  0  0  0  0  0  0  0
   10.4234  -15.0548   27.1683 C   0  0  1  0  0  0  0  0  0  0  0  0
    9.7181  -13.8559   27.8133 C   0  0  0  0  0  0  0  0  0  0  0  0
   10.3725  -13.6008   29.4923 S   0  0  0  0  0  0  0  0  0  0  0  0
   10.0795  -16.2466   27.9990 C   0  0  0  0  0  0  0  0  0  0  0  0
   10.9562  -16.7823   28.9217 O   0  0  0  0  0  0  0  0  0  0  0  0
    8.9519  -16.8166   27.8834 O   0  0  0  0  0  0  0  0  0  0  0  0
  2  3  2  0
  2  1  1  0
  4  2  1  0
  5  4  1  0
  5  6  1  6
  7  8  2  0
  7  5  1  0
  9  7  1  0
 10 11  1  1
 10  9  1  0
 11 12  1  0
 13 12  1  0
 13 14  1  0
 14 15  1  0
 16 10  1  0
 17 16  2  0
 18 16  1  0
 19 20  1  1
 19 18  1  0
 20 21  1  0
 22 23  1  0
 22 19  1  0
 24 22  2  0
M  END
$$$$
