NKC.pdb
     RDKit          3D

 24 23  0  0  1  0  0  0  0  0999 V2000
    7.5416  -12.3057   17.6292 N   0  0  0  0  0  0  0  0  0  0  0  0
    7.7544  -13.7011   17.6960 C   0  0  0  0  0  0  0  0  0  0  0  0
    8.1184  -14.3046   16.6700 O   0  0  0  0  0  0  0  0  0  0  0  0
    7.5524  -14.4404   18.9518 C   0  0  0  0  0  0  0  0  0  0  0  0
    8.7593  -14.2673   19.8169 C   0  0  2  0  0  0  0  0  0  0  0  0
    9.9096  -14.7466   19.0737 N   0  0  0  0  0  0  0  0  0  0  0  0
    8.6642  -15.0021   21.1012 C   0  0  0  0  0  0  0  0  0  0  0  0
    7.6717  -14.8263   21.8546 O   0  0  0  0  0  0  0  0  0  0  0  0
    9.6566  -15.9175   21.5406 N   0  0  0  0  0  0  0  0  0  0  0  0
    9.6113  -16.6496   22.7911 C   0  0  1  0  0  0  0  0  0  0  0  0
   10.6412  -17.7522   22.7206 C   0  0  0  0  0  0  0  0  0  0  0  0
   10.1095  -19.0069   22.0739 C   0  0  0  0  0  0  0  0  0  0  0  0
   11.1595  -20.0929   21.9878 C   0  0  0  0  0  0  0  0  0  0  0  0
   10.4918  -21.3305   21.4153 C   0  0  0  0  0  0  0  0  0  0  0  0
   11.4569  -22.4101   21.3549 N   0  0  0  0  0  0  0  0  0  0  0  0
    9.9551  -15.6845   23.8844 C   0  0  0  0  0  0  0  0  0  0  0  0
   10.8537  -14.8569   23.6417 O   0  0  0  0  0  0  0  0  0  0  0  0
    9.3056  -15.6955   25.1346 N   0  0  0  0  0  0  0  0  0  0  0  0
    9.6800  -14.8068   26.2093 C   0  0  1  0  0  0  0  0  0  0  0  0
    8.5297  -13.8089   26.3877 C   0  0  0  0  0  0  0  0  0  0  0  0
    8.9096  -12.6890   27.7712 S   0  0  0  0  0  0  0  0  0  0  0  0
    9.7599  -15.5930   27.4759 C   0  0  0  0  0  0  0  0  0  0  0  0
   10.4738  -15.1552   28.5738 O   0  0  0  0  0  0  0  0  0  0  0  0
    9.1648  -16.7079   27.5879 O   0  0  0  0  0  0  0  0  0  0  0  0
  2  3  2  0
  2  1  1  0
  4  2  1  0
  5  4  1  0
  5  6  1  6
  7  8  2  0
  7  5  1  0
  9  7  1  0
 10 11  1  6
 10  9  1  0
 11 12  1  0
 13 12  1  0
 13 14  1  0
 14 15  1  0
 16 10  1  0
 17 16  2  0
 18 16  1  0
 19 20  1  1
 19 18  1  0
 20 21  1  0
 22 23  1  0
 22 19  1  0
 24 22  2  0
M  END
$$$$
