NKC.pdb
     RDKit          3D

 24 23  0  0  1  0  0  0  0  0999 V2000
    8.3186  -12.3781   17.9888 N   0  0  0  0  0  0  0  0  0  0  0  0
    7.9456  -13.6886   18.3638 C   0  0  0  0  0  0  0  0  0  0  0  0
    8.1176  -14.6186   17.5546 O   0  0  0  0  0  0  0  0  0  0  0  0
    7.3624  -13.9625   19.6864 C   0  0  0  0  0  0  0  0  0  0  0  0
    8.4364  -14.4675   20.5957 C   0  0  2  0  0  0  0  0  0  0  0  0
    8.9240  -15.7212   20.0518 N   0  0  0  0  0  0  0  0  0  0  0  0
    7.9668  -14.6853   21.9851 C   0  0  0  0  0  0  0  0  0  0  0  0
    7.4119  -13.7482   22.6157 O   0  0  0  0  0  0  0  0  0  0  0  0
    8.1119  -15.9247   22.6623 N   0  0  0  0  0  0  0  0  0  0  0  0
    7.5729  -16.2179   23.9758 C   0  0  1  0  0  0  0  0  0  0  0  0
    7.5836  -17.7173   24.1574 C   0  0  0  0  0  0  0  0  0  0  0  0
    6.3225  -18.3750   23.6550 C   0  0  0  0  0  0  0  0  0  0  0  0
    6.5757  -19.7754   23.1411 C   0  0  0  0  0  0  0  0  0  0  0  0
    5.2349  -20.3657   22.7425 C   0  0  0  0  0  0  0  0  0  0  0  0
    5.4462  -21.6615   22.1285 N   0  0  0  0  0  0  0  0  0  0  0  0
    8.4714  -15.5648   24.9813 C   0  0  0  0  0  0  0  0  0  0  0  0
    9.6977  -15.6560   24.7825 O   0  0  0  0  0  0  0  0  0  0  0  0
    7.9740  -14.8757   26.1049 N   0  0  0  0  0  0  0  0  0  0  0  0
    8.8406  -14.2988   27.1055 C   0  0  1  0  0  0  0  0  0  0  0  0
    8.0185  -13.2461   27.8582 C   0  0  0  0  0  0  0  0  0  0  0  0
    7.3285  -12.0537   26.6689 S   0  0  0  0  0  0  0  0  0  0  0  0
    9.1924  -15.3540   28.1012 C   0  0  0  0  0  0  0  0  0  0  0  0
   10.0909  -15.1330   29.1262 O   0  0  0  0  0  0  0  0  0  0  0  0
    8.6692  -16.5081   28.0382 O   0  0  0  0  0  0  0  0  0  0  0  0
  2  3  2  0
  2  1  1  0
  4  2  1  0
  5  4  1  0
  5  6  1  6
  7  8  2  0
  7  5  1  0
  9  7  1  0
 10 11  1  1
 10  9  1  0
 11 12  1  0
 13 12  1  0
 13 14  1  0
 14 15  1  0
 16 10  1  0
 17 16  2  0
 18 16  1  0
 19 20  1  1
 19 18  1  0
 20 21  1  0
 22 23  1  0
 22 19  1  0
 24 22  2  0
M  END
$$$$
