NKC.pdb
     RDKit          3D

 24 23  0  0  1  0  0  0  0  0999 V2000
    7.9995  -12.2749   17.9933 N   0  0  0  0  0  0  0  0  0  0  0  0
    7.7283  -13.6503   18.1718 C   0  0  0  0  0  0  0  0  0  0  0  0
    7.7479  -14.4017   17.1796 O   0  0  0  0  0  0  0  0  0  0  0  0
    7.4263  -14.1977   19.5035 C   0  0  0  0  0  0  0  0  0  0  0  0
    8.7077  -14.4082   20.2443 C   0  0  2  0  0  0  0  0  0  0  0  0
    9.5134  -15.3414   19.4793 N   0  0  0  0  0  0  0  0  0  0  0  0
    8.5070  -14.9409   21.6133 C   0  0  0  0  0  0  0  0  0  0  0  0
    7.7561  -14.3343   22.4206 O   0  0  0  0  0  0  0  0  0  0  0  0
    9.1312  -16.1288   22.0771 N   0  0  0  0  0  0  0  0  0  0  0  0
    8.9875  -16.6712   23.4139 C   0  0  1  0  0  0  0  0  0  0  0  0
    9.5330  -18.0797   23.4040 C   0  0  0  0  0  0  0  0  0  0  0  0
    8.6799  -19.0303   22.6015 C   0  0  0  0  0  0  0  0  0  0  0  0
    9.3432  -20.3782   22.4214 C   0  0  0  0  0  0  0  0  0  0  0  0
    8.4193  -21.2329   21.5723 C   0  0  0  0  0  0  0  0  0  0  0  0
    9.0376  -22.5236   21.3433 N   0  0  0  0  0  0  0  0  0  0  0  0
    9.7940  -15.8066   24.3341 C   0  0  0  0  0  0  0  0  0  0  0  0
   10.4430  -14.8810   23.8109 O   0  0  0  0  0  0  0  0  0  0  0  0
    9.8306  -16.0130   25.7272 N   0  0  0  0  0  0  0  0  0  0  0  0
   10.0542  -14.9370   26.6637 C   0  0  1  0  0  0  0  0  0  0  0  0
    8.8391  -14.0062   26.5762 C   0  0  0  0  0  0  0  0  0  0  0  0
    8.9747  -12.7131   27.8497 S   0  0  0  0  0  0  0  0  0  0  0  0
   10.0597  -15.4985   28.0469 C   0  0  0  0  0  0  0  0  0  0  0  0
   10.8171  -14.9515   29.0638 O   0  0  0  0  0  0  0  0  0  0  0  0
    9.3573  -16.5137   28.3396 O   0  0  0  0  0  0  0  0  0  0  0  0
  2  3  2  0
  2  1  1  0
  4  2  1  0
  5  4  1  0
  5  6  1  6
  7  8  2  0
  7  5  1  0
  9  7  1  0
 10 11  1  6
 10  9  1  0
 11 12  1  0
 13 12  1  0
 13 14  1  0
 14 15  1  0
 16 10  1  0
 17 16  2  0
 18 16  1  0
 19 20  1  1
 19 18  1  0
 20 21  1  0
 22 23  1  0
 22 19  1  0
 24 22  2  0
M  END
$$$$
