NKC.pdb
     RDKit          3D

 24 23  0  0  1  0  0  0  0  0999 V2000
   12.6208  -18.2076   16.7033 N   0  0  0  0  0  0  0  0  0  0  0  0
   11.5318  -17.9237   17.5579 C   0  0  0  0  0  0  0  0  0  0  0  0
   10.5310  -18.6630   17.5240 O   0  0  0  0  0  0  0  0  0  0  0  0
   11.5679  -16.7759   18.4775 C   0  0  0  0  0  0  0  0  0  0  0  0
   10.8238  -17.1295   19.7251 C   0  0  2  0  0  0  0  0  0  0  0  0
    9.6128  -17.8274   19.3359 N   0  0  0  0  0  0  0  0  0  0  0  0
   10.4664  -15.9461   20.5439 C   0  0  0  0  0  0  0  0  0  0  0  0
   11.3701  -15.2706   21.1012 O   0  0  0  0  0  0  0  0  0  0  0  0
    9.1260  -15.5209   20.7397 N   0  0  0  0  0  0  0  0  0  0  0  0
    8.7339  -14.3296   21.4668 C   0  0  1  0  0  0  0  0  0  0  0  0
    7.3730  -13.9073   20.9657 C   0  0  0  0  0  0  0  0  0  0  0  0
    7.4377  -13.1739   19.6491 C   0  0  0  0  0  0  0  0  0  0  0  0
    7.9127  -14.0655   18.5227 C   0  0  0  0  0  0  0  0  0  0  0  0
    7.8923  -13.2415   17.2476 C   0  0  0  0  0  0  0  0  0  0  0  0
    8.2269  -14.0923   16.1229 N   0  0  0  0  0  0  0  0  0  0  0  0
    8.6640  -14.6966   22.9178 C   0  0  0  0  0  0  0  0  0  0  0  0
    8.3041  -13.8026   23.7070 O   0  0  0  0  0  0  0  0  0  0  0  0
    8.9857  -15.9850   23.3883 N   0  0  0  0  0  0  0  0  0  0  0  0
    8.8452  -16.3600   24.7755 C   0  0  1  0  0  0  0  0  0  0  0  0
    7.6489  -17.3149   24.8633 C   0  0  0  0  0  0  0  0  0  0  0  0
    6.4948  -16.7226   26.1399 S   0  0  0  0  0  0  0  0  0  0  0  0
   10.0467  -17.1465   25.1837 C   0  0  0  0  0  0  0  0  0  0  0  0
   11.0523  -17.4740   24.2958 O   0  0  0  0  0  0  0  0  0  0  0  0
   10.1865  -17.5471   26.3794 O   0  0  0  0  0  0  0  0  0  0  0  0
  2  3  2  0
  2  1  1  0
  4  2  1  0
  5  4  1  0
  5  6  1  6
  7  8  2  0
  7  5  1  0
  9  7  1  0
 10 11  1  6
 10  9  1  0
 11 12  1  0
 13 12  1  0
 13 14  1  0
 14 15  1  0
 16 10  1  0
 17 16  2  0
 18 16  1  0
 19 20  1  6
 19 18  1  0
 20 21  1  0
 22 23  1  0
 22 19  1  0
 24 22  2  0
M  END
$$$$
