NKC.pdb
     RDKit          3D

 24 23  0  0  1  0  0  0  0  0999 V2000
   12.0036  -17.1483   18.5722 N   0  0  0  0  0  0  0  0  0  0  0  0
   10.6898  -16.6562   18.4021 C   0  0  0  0  0  0  0  0  0  0  0  0
   10.3327  -16.2700   17.2740 O   0  0  0  0  0  0  0  0  0  0  0  0
    9.7497  -16.5960   19.5322 C   0  0  0  0  0  0  0  0  0  0  0  0
   10.4596  -17.0204   20.7777 C   0  0  2  0  0  0  0  0  0  0  0  0
   10.6715  -18.4536   20.7003 N   0  0  0  0  0  0  0  0  0  0  0  0
    9.7051  -16.7021   22.0139 C   0  0  0  0  0  0  0  0  0  0  0  0
    9.4719  -15.5033   22.3174 O   0  0  0  0  0  0  0  0  0  0  0  0
    9.2180  -17.7006   22.8979 N   0  0  0  0  0  0  0  0  0  0  0  0
    8.3564  -17.4487   24.0363 C   0  0  1  0  0  0  0  0  0  0  0  0
    7.7372  -18.7631   24.4491 C   0  0  0  0  0  0  0  0  0  0  0  0
    6.5448  -19.1373   23.6045 C   0  0  0  0  0  0  0  0  0  0  0  0
    5.9794  -20.4887   23.9832 C   0  0  0  0  0  0  0  0  0  0  0  0
    4.8370  -20.7901   23.0297 C   0  0  0  0  0  0  0  0  0  0  0  0
    4.2590  -22.0757   23.3670 N   0  0  0  0  0  0  0  0  0  0  0  0
    9.2190  -16.9105   25.1369 C   0  0  0  0  0  0  0  0  0  0  0  0
   10.3935  -17.3225   25.1830 O   0  0  0  0  0  0  0  0  0  0  0  0
    8.7442  -15.9824   26.0845 N   0  0  0  0  0  0  0  0  0  0  0  0
    9.5721  -15.4751   27.1533 C   0  0  1  0  0  0  0  0  0  0  0  0
    8.7567  -14.3994   27.8805 C   0  0  0  0  0  0  0  0  0  0  0  0
    9.3329  -12.7519   27.3647 S   0  0  0  0  0  0  0  0  0  0  0  0
    9.8053  -16.5704   28.1404 C   0  0  0  0  0  0  0  0  0  0  0  0
   10.9993  -16.7113   28.8197 O   0  0  0  0  0  0  0  0  0  0  0  0
    8.8997  -17.4225   28.3926 O   0  0  0  0  0  0  0  0  0  0  0  0
  2  3  2  0
  2  1  1  0
  4  2  1  0
  5  4  1  0
  5  6  1  6
  7  8  2  0
  7  5  1  0
  9  7  1  0
 10 11  1  1
 10  9  1  0
 11 12  1  0
 13 12  1  0
 13 14  1  0
 14 15  1  0
 16 10  1  0
 17 16  2  0
 18 16  1  0
 19 20  1  1
 19 18  1  0
 20 21  1  0
 22 23  1  0
 22 19  1  0
 24 22  2  0
M  END
$$$$
