NKC.pdb
     RDKit          3D

 24 23  0  0  1  0  0  0  0  0999 V2000
   14.1878  -18.8797   18.3198 N   0  0  0  0  0  0  0  0  0  0  0  0
   13.7995  -17.7470   17.5694 C   0  0  0  0  0  0  0  0  0  0  0  0
   14.2545  -17.6011   16.4200 O   0  0  0  0  0  0  0  0  0  0  0  0
   12.8731  -16.7489   18.1262 C   0  0  0  0  0  0  0  0  0  0  0  0
   12.5564  -17.1158   19.5405 C   0  0  2  0  0  0  0  0  0  0  0  0
   11.5839  -18.1922   19.5117 N   0  0  0  0  0  0  0  0  0  0  0  0
   12.0113  -15.9830   20.3268 C   0  0  0  0  0  0  0  0  0  0  0  0
   12.7842  -15.0917   20.7647 O   0  0  0  0  0  0  0  0  0  0  0  0
   10.6294  -15.8438   20.6212 N   0  0  0  0  0  0  0  0  0  0  0  0
   10.0594  -14.7893   21.4367 C   0  0  1  0  0  0  0  0  0  0  0  0
    8.7534  -14.3690   20.8050 C   0  0  0  0  0  0  0  0  0  0  0  0
    8.9172  -13.9075   19.3783 C   0  0  0  0  0  0  0  0  0  0  0  0
    7.5879  -13.7600   18.6707 C   0  0  0  0  0  0  0  0  0  0  0  0
    7.8776  -13.4365   17.2158 C   0  0  0  0  0  0  0  0  0  0  0  0
    6.6262  -13.3046   16.4967 N   0  0  0  0  0  0  0  0  0  0  0  0
    9.8182  -15.3622   22.8000 C   0  0  0  0  0  0  0  0  0  0  0  0
    8.6653  -15.2545   23.2591 O   0  0  0  0  0  0  0  0  0  0  0  0
   10.8326  -15.9963   23.5441 N   0  0  0  0  0  0  0  0  0  0  0  0
   10.5840  -16.6062   24.8291 C   0  0  1  0  0  0  0  0  0  0  0  0
    9.6237  -17.7776   24.5915 C   0  0  0  0  0  0  0  0  0  0  0  0
   10.4118  -18.9914   23.4879 S   0  0  0  0  0  0  0  0  0  0  0  0
   11.8584  -17.1979   25.3337 C   0  0  0  0  0  0  0  0  0  0  0  0
   11.9445  -17.8351   26.5557 O   0  0  0  0  0  0  0  0  0  0  0  0
   12.9224  -17.1342   24.6455 O   0  0  0  0  0  0  0  0  0  0  0  0
  2  3  2  0
  2  1  1  0
  4  2  1  0
  5  4  1  0
  5  6  1  6
  7  8  2  0
  7  5  1  0
  9  7  1  0
 10 11  1  6
 10  9  1  0
 11 12  1  0
 13 12  1  0
 13 14  1  0
 14 15  1  0
 16 10  1  0
 17 16  2  0
 18 16  1  0
 19 20  1  6
 19 18  1  0
 20 21  1  0
 22 23  1  0
 22 19  1  0
 24 22  2  0
M  END
$$$$
