NKC.pdb
     RDKit          3D

 24 23  0  0  1  0  0  0  0  0999 V2000
    8.0261  -12.5240   16.8843 N   0  0  0  0  0  0  0  0  0  0  0  0
    7.9688  -13.9104   17.1518 C   0  0  0  0  0  0  0  0  0  0  0  0
    8.3569  -14.7087   16.2792 O   0  0  0  0  0  0  0  0  0  0  0  0
    7.4608  -14.4150   18.4370 C   0  0  0  0  0  0  0  0  0  0  0  0
    8.5683  -14.3890   19.4410 C   0  0  2  0  0  0  0  0  0  0  0  0
    9.6628  -15.1823   18.9139 N   0  0  0  0  0  0  0  0  0  0  0  0
    8.1665  -14.9251   20.7638 C   0  0  0  0  0  0  0  0  0  0  0  0
    7.1869  -14.4240   21.3744 O   0  0  0  0  0  0  0  0  0  0  0  0
    8.8430  -16.0008   21.3971 N   0  0  0  0  0  0  0  0  0  0  0  0
    8.4871  -16.5565   22.6880 C   0  0  1  0  0  0  0  0  0  0  0  0
    9.1252  -17.9212   22.7972 C   0  0  0  0  0  0  0  0  0  0  0  0
    8.9684  -18.5305   24.1682 C   0  0  0  0  0  0  0  0  0  0  0  0
    9.6896  -19.8551   24.2891 C   0  0  0  0  0  0  0  0  0  0  0  0
    9.4425  -20.3841   25.6907 C   0  0  0  0  0  0  0  0  0  0  0  0
   10.1972  -21.6069   25.8804 N   0  0  0  0  0  0  0  0  0  0  0  0
    9.0390  -15.6380   23.7352 C   0  0  0  0  0  0  0  0  0  0  0  0
   10.2300  -15.2950   23.6111 O   0  0  0  0  0  0  0  0  0  0  0  0
    8.2652  -15.1727   24.8167 N   0  0  0  0  0  0  0  0  0  0  0  0
    8.7889  -14.2637   25.8089 C   0  0  1  0  0  0  0  0  0  0  0  0
    7.6743  -13.2619   26.1325 C   0  0  0  0  0  0  0  0  0  0  0  0
    8.1820  -12.2263   27.5404 S   0  0  0  0  0  0  0  0  0  0  0  0
    9.0527  -15.0255   27.0654 C   0  0  0  0  0  0  0  0  0  0  0  0
    9.9911  -14.6188   27.9932 O   0  0  0  0  0  0  0  0  0  0  0  0
    8.4130  -16.0895   27.3274 O   0  0  0  0  0  0  0  0  0  0  0  0
  2  3  2  0
  2  1  1  0
  4  2  1  0
  5  4  1  0
  5  6  1  6
  7  8  2  0
  7  5  1  0
  9  7  1  0
 10 11  1  1
 10  9  1  0
 11 12  1  0
 13 12  1  0
 13 14  1  0
 14 15  1  0
 16 10  1  0
 17 16  2  0
 18 16  1  0
 19 20  1  1
 19 18  1  0
 20 21  1  0
 22 23  1  0
 22 19  1  0
 24 22  2  0
M  END
$$$$
