NKC.pdb
     RDKit          3D

 24 23  0  0  1  0  0  0  0  0999 V2000
    8.1677  -12.4622   17.8229 N   0  0  0  0  0  0  0  0  0  0  0  0
    7.8076  -13.8048   18.0772 C   0  0  0  0  0  0  0  0  0  0  0  0
    8.0714  -14.6712   17.2232 O   0  0  0  0  0  0  0  0  0  0  0  0
    7.1315  -14.1856   19.3271 C   0  0  0  0  0  0  0  0  0  0  0  0
    8.1627  -14.5630   20.3417 C   0  0  2  0  0  0  0  0  0  0  0  0
    8.8246  -15.7665   19.8740 N   0  0  0  0  0  0  0  0  0  0  0  0
    7.5912  -14.8090   21.6876 C   0  0  0  0  0  0  0  0  0  0  0  0
    6.8531  -13.9432   22.2254 O   0  0  0  0  0  0  0  0  0  0  0  0
    7.8366  -15.9982   22.4234 N   0  0  0  0  0  0  0  0  0  0  0  0
    7.3998  -16.2331   23.7856 C   0  0  1  0  0  0  0  0  0  0  0  0
    7.5498  -17.7084   24.0729 C   0  0  0  0  0  0  0  0  0  0  0  0
    7.3949  -18.0366   25.5370 C   0  0  0  0  0  0  0  0  0  0  0  0
    7.4952  -19.5229   25.8018 C   0  0  0  0  0  0  0  0  0  0  0  0
    7.2280  -19.7431   27.2801 C   0  0  0  0  0  0  0  0  0  0  0  0
    7.2347  -21.1650   27.5607 N   0  0  0  0  0  0  0  0  0  0  0  0
    8.2941  -15.4340   24.6837 C   0  0  0  0  0  0  0  0  0  0  0  0
    9.5127  -15.4549   24.4267 O   0  0  0  0  0  0  0  0  0  0  0  0
    7.8010  -14.6877   25.7722 N   0  0  0  0  0  0  0  0  0  0  0  0
    8.6561  -13.8736   26.6034 C   0  0  1  0  0  0  0  0  0  0  0  0
    7.8467  -12.6336   27.0011 C   0  0  0  0  0  0  0  0  0  0  0  0
    6.1494  -13.1313   27.4299 S   0  0  0  0  0  0  0  0  0  0  0  0
    8.9440  -14.6153   27.8666 C   0  0  0  0  0  0  0  0  0  0  0  0
    9.7843  -14.1158   28.8419 O   0  0  0  0  0  0  0  0  0  0  0  0
    8.4179  -15.7480   28.0901 O   0  0  0  0  0  0  0  0  0  0  0  0
  2  3  2  0
  2  1  1  0
  4  2  1  0
  5  4  1  0
  5  6  1  6
  7  8  2  0
  7  5  1  0
  9  7  1  0
 10 11  1  1
 10  9  1  0
 11 12  1  0
 13 12  1  0
 13 14  1  0
 14 15  1  0
 16 10  1  0
 17 16  2  0
 18 16  1  0
 19 20  1  1
 19 18  1  0
 20 21  1  0
 22 23  1  0
 22 19  1  0
 24 22  2  0
M  END
$$$$
