SSA.pdb
     RDKit          3D

 18 17  0  0  1  0  0  0  0  0999 V2000
   13.5843   -6.4609   -9.4294 O   0  0  0  0  0  0  0  0  0  0  0  0
   14.9074   -6.6603   -9.7678 C   0  0  0  0  0  0  0  0  0  0  0  0
   15.1339   -8.1567   -9.9866 C   0  0  2  0  0  0  0  0  0  0  0  0
   15.0372   -8.7975   -8.6937 N   0  0  0  0  0  0  0  0  0  0  0  0
   16.5345   -8.2901  -10.4780 C   0  0  0  0  0  0  0  0  0  0  0  0
   17.4775   -8.5333   -9.6561 O   0  0  0  0  0  0  0  0  0  0  0  0
   17.2632   -9.1248  -14.3087 O   0  0  0  0  0  0  0  0  0  0  0  0
   18.2695   -9.3739  -13.3923 C   0  0  0  0  0  0  0  0  0  0  0  0
   18.2404   -8.3575  -12.2572 C   0  0  2  0  0  0  0  0  0  0  0  0
   16.8767   -8.1581  -11.8343 N   0  0  0  0  0  0  0  0  0  0  0  0
   18.8360   -7.0716  -12.7013 C   0  0  0  0  0  0  0  0  0  0  0  0
   18.1628   -6.1553  -13.2310 O   0  0  0  0  0  0  0  0  0  0  0  0
   22.3106   -5.5151  -12.5943 C   0  0  0  0  0  0  0  0  0  0  0  0
   20.8801   -5.6300  -13.0649 C   0  0  2  0  0  0  0  0  0  0  0  0
   20.2405   -6.8265  -12.5350 N   0  0  0  0  0  0  0  0  0  0  0  0
   20.8038   -5.5935  -14.5448 C   0  0  0  0  0  0  0  0  0  0  0  0
   20.7757   -6.6568  -15.2001 O   0  0  0  0  0  0  0  0  0  0  0  0
   20.7639   -4.3900  -15.1943 O   0  0  0  0  0  0  0  0  0  0  0  0
  1  2  1  0
  3  2  1  0
  3  4  1  1
  5  3  1  0
  6  5  2  0
  8  7  1  0
  9  8  1  6
  9 10  1  0
 10  5  1  0
 11  9  1  0
 11 15  1  0
 12 11  2  0
 14 15  1  0
 14 13  1  6
 16 14  1  0
 16 18  1  0
 17 16  2  0
M  END
$$$$
