SSA.pdb
     RDKit          3D

 18 17  0  0  1  0  0  0  0  0999 V2000
   15.9927  -12.0128  -11.8071 O   0  0  0  0  0  0  0  0  0  0  0  0
   15.8605  -10.6390  -11.8077 C   0  0  0  0  0  0  0  0  0  0  0  0
   15.3981  -10.1936  -10.4199 C   0  0  2  0  0  0  0  0  0  0  0  0
   14.1555  -10.8794  -10.1424 N   0  0  0  0  0  0  0  0  0  0  0  0
   15.1191   -8.7339  -10.5315 C   0  0  0  0  0  0  0  0  0  0  0  0
   14.0388   -8.3315  -11.0747 O   0  0  0  0  0  0  0  0  0  0  0  0
   17.2914   -6.0821   -8.3896 O   0  0  0  0  0  0  0  0  0  0  0  0
   16.0258   -5.6941   -8.7924 C   0  0  0  0  0  0  0  0  0  0  0  0
   15.6408   -6.3615  -10.1072 C   0  0  2  0  0  0  0  0  0  0  0  0
   16.0080   -7.7547  -10.0568 N   0  0  0  0  0  0  0  0  0  0  0  0
   16.3200   -5.6901  -11.2445 C   0  0  0  0  0  0  0  0  0  0  0  0
   17.5263   -5.8838  -11.5289 O   0  0  0  0  0  0  0  0  0  0  0  0
   15.2025   -3.3786  -14.0574 C   0  0  0  0  0  0  0  0  0  0  0  0
   16.2178   -4.1381  -13.2369 C   0  0  2  0  0  0  0  0  0  0  0  0
   15.5999   -4.7715  -12.0800 N   0  0  0  0  0  0  0  0  0  0  0  0
   17.3376   -3.2564  -12.8296 C   0  0  0  0  0  0  0  0  0  0  0  0
   17.4057   -2.8255  -11.6588 O   0  0  0  0  0  0  0  0  0  0  0  0
   18.2996   -2.9139  -13.7402 O   0  0  0  0  0  0  0  0  0  0  0  0
  1  2  1  0
  3  2  1  0
  3  4  1  6
  5  3  1  0
  6  5  2  0
  8  7  1  0
  9  8  1  1
  9 10  1  0
 10  5  1  0
 11  9  1  0
 11 15  1  0
 12 11  2  0
 14 15  1  0
 14 13  1  1
 16 14  1  0
 16 18  1  0
 17 16  2  0
M  END
$$$$
