SSA.pdb
     RDKit          3D

 18 17  0  0  1  0  0  0  0  0999 V2000
   18.3798  -10.8659  -18.8156 O   0  0  0  0  0  0  0  0  0  0  0  0
   18.9662  -10.5193  -17.6153 C   0  0  0  0  0  0  0  0  0  0  0  0
   20.3817  -11.0966  -17.5802 C   0  0  2  0  0  0  0  0  0  0  0  0
   20.2730  -12.4693  -17.1382 N   0  0  0  0  0  0  0  0  0  0  0  0
   21.1136  -10.3203  -16.5396 C   0  0  0  0  0  0  0  0  0  0  0  0
   20.8544  -10.5067  -15.3059 O   0  0  0  0  0  0  0  0  0  0  0  0
   24.6467   -8.3375  -17.2359 O   0  0  0  0  0  0  0  0  0  0  0  0
   24.2518   -8.7239  -15.9673 C   0  0  0  0  0  0  0  0  0  0  0  0
   22.7400   -8.6174  -15.8081 C   0  0  2  0  0  0  0  0  0  0  0  0
   22.0987   -9.3701  -16.8571 N   0  0  0  0  0  0  0  0  0  0  0  0
   22.3150   -7.1953  -15.8600 C   0  0  0  0  0  0  0  0  0  0  0  0
   22.1028   -6.5859  -16.9356 O   0  0  0  0  0  0  0  0  0  0  0  0
   21.2245   -4.5967  -13.3209 C   0  0  0  0  0  0  0  0  0  0  0  0
   21.7588   -5.0401  -14.6621 C   0  0  2  0  0  0  0  0  0  0  0  0
   22.1274   -6.4492  -14.6481 N   0  0  0  0  0  0  0  0  0  0  0  0
   22.8992   -4.1931  -15.0855 C   0  0  0  0  0  0  0  0  0  0  0  0
   24.0729   -4.5759  -14.8939 O   0  0  0  0  0  0  0  0  0  0  0  0
   22.6641   -2.9876  -15.6883 O   0  0  0  0  0  0  0  0  0  0  0  0
  1  2  1  0
  3  2  1  0
  3  4  1  1
  5  3  1  0
  6  5  2  0
  8  7  1  0
  9  8  1  6
  9 10  1  0
 10  5  1  0
 11  9  1  0
 11 15  1  0
 12 11  2  0
 14 15  1  0
 14 13  1  1
 16 14  1  0
 16 18  1  0
 17 16  2  0
M  END
$$$$
