SSA.pdb
     RDKit          3D

 18 17  0  0  1  0  0  0  0  0999 V2000
   23.5797  -11.3692  -20.3638 O   0  0  0  0  0  0  0  0  0  0  0  0
   22.5572  -10.5131  -20.0085 C   0  0  0  0  0  0  0  0  0  0  0  0
   21.6073  -11.2535  -19.0663 C   0  0  2  0  0  0  0  0  0  0  0  0
   20.6455  -11.9517  -19.8903 N   0  0  0  0  0  0  0  0  0  0  0  0
   20.8924  -10.1977  -18.2948 C   0  0  0  0  0  0  0  0  0  0  0  0
   19.9382   -9.5491  -18.8360 O   0  0  0  0  0  0  0  0  0  0  0  0
   18.9846  -10.4434  -15.2509 O   0  0  0  0  0  0  0  0  0  0  0  0
   19.9171   -9.4582  -14.9780 C   0  0  0  0  0  0  0  0  0  0  0  0
   20.4765   -8.8621  -16.2642 C   0  0  2  0  0  0  0  0  0  0  0  0
   21.2248   -9.8729  -16.9688 N   0  0  0  0  0  0  0  0  0  0  0  0
   21.3452   -7.6973  -15.9574 C   0  0  0  0  0  0  0  0  0  0  0  0
   22.5590   -7.8111  -15.6618 O   0  0  0  0  0  0  0  0  0  0  0  0
   20.9279   -3.9191  -16.0937 C   0  0  0  0  0  0  0  0  0  0  0  0
   21.6408   -5.1980  -15.7234 C   0  0  2  0  0  0  0  0  0  0  0  0
   20.8113   -6.3653  -15.9894 N   0  0  0  0  0  0  0  0  0  0  0  0
   22.0844   -5.1680  -14.3093 C   0  0  0  0  0  0  0  0  0  0  0  0
   21.4152   -5.7470  -13.4273 O   0  0  0  0  0  0  0  0  0  0  0  0
   23.2311   -4.5034  -13.9701 O   0  0  0  0  0  0  0  0  0  0  0  0
  1  2  1  0
  3  2  1  0
  3  4  1  6
  5  3  1  0
  6  5  2  0
  8  7  1  0
  9  8  1  1
  9 10  1  0
 10  5  1  0
 11  9  1  0
 11 15  1  0
 12 11  2  0
 14 15  1  0
 14 13  1  1
 16 14  1  0
 16 18  1  0
 17 16  2  0
M  END
$$$$
