SSA.pdb
     RDKit          3D

 18 17  0  0  1  0  0  0  0  0999 V2000
   26.0368  -12.7078  -16.0127 O   0  0  0  0  0  0  0  0  0  0  0  0
   25.2858  -11.5978  -16.3427 C   0  0  0  0  0  0  0  0  0  0  0  0
   23.8725  -12.0561  -16.7045 C   0  0  2  0  0  0  0  0  0  0  0  0
   23.9489  -12.6980  -17.9981 N   0  0  0  0  0  0  0  0  0  0  0  0
   23.0622  -10.8126  -16.8396 C   0  0  0  0  0  0  0  0  0  0  0  0
   23.0734  -10.1608  -17.9345 O   0  0  0  0  0  0  0  0  0  0  0  0
   20.0860   -9.9187  -14.2190 O   0  0  0  0  0  0  0  0  0  0  0  0
   20.0681   -9.3552  -15.4827 C   0  0  0  0  0  0  0  0  0  0  0  0
   21.4829   -9.1170  -15.9962 C   0  0  2  0  0  0  0  0  0  0  0  0
   22.2671  -10.3101  -15.7958 N   0  0  0  0  0  0  0  0  0  0  0  0
   22.1020   -7.9680  -15.2877 C   0  0  0  0  0  0  0  0  0  0  0  0
   22.7499   -8.0936  -14.2209 O   0  0  0  0  0  0  0  0  0  0  0  0
   22.4996   -4.2531  -16.0278 C   0  0  0  0  0  0  0  0  0  0  0  0
   22.6243   -5.4972  -15.1808 C   0  0  2  0  0  0  0  0  0  0  0  0
   21.9767   -6.6382  -15.8135 N   0  0  0  0  0  0  0  0  0  0  0  0
   22.0897   -5.2669  -13.8175 C   0  0  0  0  0  0  0  0  0  0  0  0
   20.9594   -5.6971  -13.5036 O   0  0  0  0  0  0  0  0  0  0  0  0
   22.8379   -4.5806  -12.9005 O   0  0  0  0  0  0  0  0  0  0  0  0
  1  2  1  0
  3  2  1  0
  3  4  1  6
  5  3  1  0
  6  5  2  0
  8  7  1  0
  9  8  1  1
  9 10  1  0
 10  5  1  0
 11  9  1  0
 11 15  1  0
 12 11  2  0
 14 15  1  0
 14 13  1  6
 16 14  1  0
 16 18  1  0
 17 16  2  0
M  END
$$$$
