SSA.pdb
     RDKit          3D

 18 17  0  0  1  0  0  0  0  0999 V2000
   14.9633   -8.8046  -12.9681 O   0  0  0  0  0  0  0  0  0  0  0  0
   16.1134   -8.0545  -12.8288 C   0  0  0  0  0  0  0  0  0  0  0  0
   17.2028   -8.9412  -12.2243 C   0  0  2  0  0  0  0  0  0  0  0  0
   16.9164   -9.0684  -10.8125 N   0  0  0  0  0  0  0  0  0  0  0  0
   18.4781   -8.1864  -12.3829 C   0  0  0  0  0  0  0  0  0  0  0  0
   18.8801   -7.4125  -11.4537 O   0  0  0  0  0  0  0  0  0  0  0  0
   21.9322   -9.5529  -13.4890 O   0  0  0  0  0  0  0  0  0  0  0  0
   21.5655   -8.4882  -14.2931 C   0  0  0  0  0  0  0  0  0  0  0  0
   20.5449   -7.5992  -13.5929 C   0  0  2  0  0  0  0  0  0  0  0  0
   19.2793   -8.2870  -13.5328 N   0  0  0  0  0  0  0  0  0  0  0  0
   20.3982   -6.3119  -14.3189 C   0  0  0  0  0  0  0  0  0  0  0  0
   19.6839   -6.1838  -15.3420 O   0  0  0  0  0  0  0  0  0  0  0  0
   21.3118   -2.7099  -13.6181 C   0  0  0  0  0  0  0  0  0  0  0  0
   20.9462   -3.8538  -14.5339 C   0  0  2  0  0  0  0  0  0  0  0  0
   21.0875   -5.1386  -13.8623 N   0  0  0  0  0  0  0  0  0  0  0  0
   21.7460   -3.8115  -15.7812 C   0  0  0  0  0  0  0  0  0  0  0  0
   22.7648   -4.5248  -15.9002 O   0  0  0  0  0  0  0  0  0  0  0  0
   21.3658   -2.9878  -16.8053 O   0  0  0  0  0  0  0  0  0  0  0  0
  1  2  1  0
  3  2  1  0
  3  4  1  1
  5  3  1  0
  6  5  2  0
  8  7  1  0
  9  8  1  6
  9 10  1  0
 10  5  1  0
 11  9  1  0
 11 15  1  0
 12 11  2  0
 14 15  1  0
 14 13  1  1
 16 14  1  0
 16 18  1  0
 17 16  2  0
M  END
$$$$
