SSA.pdb
     RDKit          3D

 18 17  0  0  1  0  0  0  0  0999 V2000
   20.9086  -12.0299  -15.5203 O   0  0  0  0  0  0  0  0  0  0  0  0
   19.5346  -12.0336  -15.3905 C   0  0  0  0  0  0  0  0  0  0  0  0
   18.9189  -11.5860  -16.7168 C   0  0  2  0  0  0  0  0  0  0  0  0
   19.5053  -12.4012  -17.7574 N   0  0  0  0  0  0  0  0  0  0  0  0
   19.3583  -10.1758  -16.9154 C   0  0  0  0  0  0  0  0  0  0  0  0
   20.2583   -9.9041  -17.7758 O   0  0  0  0  0  0  0  0  0  0  0  0
   17.5230   -6.9705  -14.9860 O   0  0  0  0  0  0  0  0  0  0  0  0
   18.0747   -6.8044  -16.2441 C   0  0  0  0  0  0  0  0  0  0  0  0
   19.2462   -7.7553  -16.4583 C   0  0  2  0  0  0  0  0  0  0  0  0
   18.8178   -9.1043  -16.1846 N   0  0  0  0  0  0  0  0  0  0  0  0
   20.3797   -7.3845  -15.5732 C   0  0  0  0  0  0  0  0  0  0  0  0
   20.5197   -7.8459  -14.4152 O   0  0  0  0  0  0  0  0  0  0  0  0
   23.4896   -5.2162  -15.9064 C   0  0  0  0  0  0  0  0  0  0  0  0
   22.4273   -5.9675  -15.1395 C   0  0  2  0  0  0  0  0  0  0  0  0
   21.3809   -6.4604  -16.0247 N   0  0  0  0  0  0  0  0  0  0  0  0
   21.8607   -5.1283  -14.0569 C   0  0  0  0  0  0  0  0  0  0  0  0
   20.7896   -4.5102  -14.2347 O   0  0  0  0  0  0  0  0  0  0  0  0
   22.5143   -5.0311  -12.8589 O   0  0  0  0  0  0  0  0  0  0  0  0
  1  2  1  0
  3  2  1  0
  3  4  1  6
  5  3  1  0
  6  5  2  0
  8  7  1  0
  9  8  1  1
  9 10  1  0
 10  5  1  0
 11  9  1  0
 11 15  1  0
 12 11  2  0
 14 15  1  0
 14 13  1  6
 16 14  1  0
 16 18  1  0
 17 16  2  0
M  END
$$$$
