SSA.pdb
     RDKit          3D

 18 17  0  0  1  0  0  0  0  0999 V2000
   15.5600   -9.5734  -16.6822 O   0  0  0  0  0  0  0  0  0  0  0  0
   16.6080   -9.5181  -15.7858 C   0  0  0  0  0  0  0  0  0  0  0  0
   17.6436  -10.5713  -16.1817 C   0  0  2  0  0  0  0  0  0  0  0  0
   17.2851  -11.7988  -15.5063 N   0  0  0  0  0  0  0  0  0  0  0  0
   18.9439  -10.0914  -15.6340 C   0  0  0  0  0  0  0  0  0  0  0  0
   19.0872   -9.9355  -14.3774 O   0  0  0  0  0  0  0  0  0  0  0  0
   22.7509  -10.8993  -16.8558 O   0  0  0  0  0  0  0  0  0  0  0  0
   22.4237   -9.5552  -16.8238 C   0  0  0  0  0  0  0  0  0  0  0  0
   21.2662   -9.2959  -15.8672 C   0  0  2  0  0  0  0  0  0  0  0  0
   20.0467   -9.7947  -16.4525 N   0  0  0  0  0  0  0  0  0  0  0  0
   21.1461   -7.8428  -15.5851 C   0  0  0  0  0  0  0  0  0  0  0  0
   20.5585   -7.0452  -16.3545 O   0  0  0  0  0  0  0  0  0  0  0  0
   21.6426   -5.7084  -12.5154 C   0  0  0  0  0  0  0  0  0  0  0  0
   21.4886   -5.8994  -14.0056 C   0  0  2  0  0  0  0  0  0  0  0  0
   21.7138   -7.2861  -14.3900 N   0  0  0  0  0  0  0  0  0  0  0  0
   22.3842   -4.9849  -14.7532 C   0  0  0  0  0  0  0  0  0  0  0  0
   22.2155   -3.7485  -14.6910 O   0  0  0  0  0  0  0  0  0  0  0  0
   23.3991   -5.4981  -15.5138 O   0  0  0  0  0  0  0  0  0  0  0  0
  1  2  1  0
  3  2  1  0
  3  4  1  1
  5  3  1  0
  6  5  2  0
  8  7  1  0
  9  8  1  6
  9 10  1  0
 10  5  1  0
 11  9  1  0
 11 15  1  0
 12 11  2  0
 14 15  1  0
 14 13  1  1
 16 14  1  0
 16 18  1  0
 17 16  2  0
M  END
$$$$
