SSA.pdb
     RDKit          3D

 18 17  0  0  1  0  0  0  0  0999 V2000
   18.5912   -9.4591  -19.1176 O   0  0  0  0  0  0  0  0  0  0  0  0
   18.0688  -10.0255  -17.9726 C   0  0  0  0  0  0  0  0  0  0  0  0
   19.1372  -10.9178  -17.3395 C   0  0  2  0  0  0  0  0  0  0  0  0
   18.4982  -12.1664  -16.9876 N   0  0  0  0  0  0  0  0  0  0  0  0
   19.5538  -10.2287  -16.0854 C   0  0  0  0  0  0  0  0  0  0  0  0
   18.7670  -10.1988  -15.0834 O   0  0  0  0  0  0  0  0  0  0  0  0
   23.4308   -9.4762  -15.0914 O   0  0  0  0  0  0  0  0  0  0  0  0
   22.4153   -9.4935  -14.1518 C   0  0  0  0  0  0  0  0  0  0  0  0
   21.1297   -8.9084  -14.7239 C   0  0  2  0  0  0  0  0  0  0  0  0
   20.8002   -9.5948  -15.9481 N   0  0  0  0  0  0  0  0  0  0  0  0
   21.2928   -7.4539  -14.9760 C   0  0  0  0  0  0  0  0  0  0  0  0
   21.9357   -6.9990  -15.9523 O   0  0  0  0  0  0  0  0  0  0  0  0
   19.6915   -4.2816  -13.7819 C   0  0  0  0  0  0  0  0  0  0  0  0
   20.8891   -5.0600  -14.2724 C   0  0  2  0  0  0  0  0  0  0  0  0
   20.7043   -6.4928  -14.0870 N   0  0  0  0  0  0  0  0  0  0  0  0
   22.1322   -4.5915  -13.6148 C   0  0  0  0  0  0  0  0  0  0  0  0
   22.6352   -5.2484  -12.6786 O   0  0  0  0  0  0  0  0  0  0  0  0
   22.7301   -3.4351  -14.0358 O   0  0  0  0  0  0  0  0  0  0  0  0
  1  2  1  0
  3  2  1  0
  3  4  1  1
  5  3  1  0
  6  5  2  0
  8  7  1  0
  9  8  1  6
  9 10  1  0
 10  5  1  0
 11  9  1  0
 11 15  1  0
 12 11  2  0
 14 15  1  0
 14 13  1  1
 16 14  1  0
 16 18  1  0
 17 16  2  0
M  END
$$$$
