SSA.pdb
     RDKit          3D

 18 17  0  0  1  0  0  0  0  0999 V2000
   17.9202   -8.9112  -17.7086 O   0  0  0  0  0  0  0  0  0  0  0  0
   18.5484  -10.1068  -17.9928 C   0  0  0  0  0  0  0  0  0  0  0  0
   18.6136  -10.9392  -16.7117 C   0  0  2  0  0  0  0  0  0  0  0  0
   17.2556  -11.1165  -16.2471 N   0  0  0  0  0  0  0  0  0  0  0  0
   19.3487  -10.1047  -15.7196 C   0  0  0  0  0  0  0  0  0  0  0  0
   18.7131   -9.5245  -14.7797 O   0  0  0  0  0  0  0  0  0  0  0  0
   23.4632   -9.4524  -15.9558 O   0  0  0  0  0  0  0  0  0  0  0  0
   22.8532   -9.3984  -14.7150 C   0  0  0  0  0  0  0  0  0  0  0  0
   21.3826   -9.0201  -14.8437 C   0  0  2  0  0  0  0  0  0  0  0  0
   20.7407   -9.9204  -15.7688 N   0  0  0  0  0  0  0  0  0  0  0  0
   21.2503   -7.6174  -15.3133 C   0  0  0  0  0  0  0  0  0  0  0  0
   21.0668   -7.3158  -16.5170 O   0  0  0  0  0  0  0  0  0  0  0  0
   19.9804   -4.5883  -15.0285 C   0  0  0  0  0  0  0  0  0  0  0  0
   21.3703   -5.1412  -14.8203 C   0  0  2  0  0  0  0  0  0  0  0  0
   21.3300   -6.5292  -14.3806 N   0  0  0  0  0  0  0  0  0  0  0  0
   22.1388   -4.3014  -13.8709 C   0  0  0  0  0  0  0  0  0  0  0  0
   22.3727   -4.7120  -12.7143 O   0  0  0  0  0  0  0  0  0  0  0  0
   22.5932   -3.0722  -14.2640 O   0  0  0  0  0  0  0  0  0  0  0  0
  1  2  1  0
  3  2  1  0
  3  4  1  1
  5  3  1  0
  6  5  2  0
  8  7  1  0
  9  8  1  6
  9 10  1  0
 10  5  1  0
 11  9  1  0
 11 15  1  0
 12 11  2  0
 14 15  1  0
 14 13  1  1
 16 14  1  0
 16 18  1  0
 17 16  2  0
M  END
$$$$
