QQI.pdb
     RDKit          3D

 27 26  0  0  1  0  0  0  0  0999 V2000
   14.2188  -14.6176  -14.3789 N   0  0  0  0  0  0  0  0  0  0  0  0
   15.2367  -14.6270  -15.3613 C   0  0  0  0  0  0  0  0  0  0  0  0
   15.4282  -15.6842  -16.0111 O   0  0  0  0  0  0  0  0  0  0  0  0
   16.0703  -13.4546  -15.6459 C   0  0  0  0  0  0  0  0  0  0  0  0
   15.7739  -12.2876  -14.7442 C   0  0  0  0  0  0  0  0  0  0  0  0
   15.7706  -11.0415  -15.5754 C   0  0  2  0  0  0  0  0  0  0  0  0
   16.3097  -11.2391  -16.8986 N   0  0  0  0  0  0  0  0  0  0  0  0
   16.4633   -9.9078  -14.9121 C   0  0  0  0  0  0  0  0  0  0  0  0
   16.1574   -9.6031  -13.7092 O   0  0  0  0  0  0  0  0  0  0  0  0
   22.7761   -7.7257  -16.4890 N   0  0  0  0  0  0  0  0  0  0  0  0
   21.7508   -7.8684  -15.5467 C   0  0  0  0  0  0  0  0  0  0  0  0
   22.1015   -8.0592  -14.3306 O   0  0  0  0  0  0  0  0  0  0  0  0
   20.3026   -7.8090  -15.8914 C   0  0  0  0  0  0  0  0  0  0  0  0
   19.5069   -8.1151  -14.6722 C   0  0  0  0  0  0  0  0  0  0  0  0
   18.0151   -7.9980  -14.8858 C   0  0  2  0  0  0  0  0  0  0  0  0
   17.4551   -9.1365  -15.5452 N   0  0  0  0  0  0  0  0  0  0  0  0
   17.8121   -6.7403  -15.6849 C   0  0  0  0  0  0  0  0  0  0  0  0
   17.8240   -6.8298  -16.9365 O   0  0  0  0  0  0  0  0  0  0  0  0
   13.5638   -4.0228  -15.4220 C   0  0  0  0  0  0  0  0  0  0  0  0
   14.8935   -4.4953  -15.8979 C   0  0  0  0  0  0  0  0  0  0  0  0
   16.0692   -3.6620  -15.5492 C   0  0  2  0  0  0  0  0  0  0  0  0
   15.8899   -2.1997  -15.8271 C   0  0  0  0  0  0  0  0  0  0  0  0
   17.3792   -4.2535  -15.8850 C   0  0  2  0  0  0  0  0  0  0  0  0
   17.6123   -5.4857  -15.0956 N   0  0  0  0  0  0  0  0  0  0  0  0
   18.5791   -3.4439  -15.7134 C   0  0  0  0  0  0  0  0  0  0  0  0
   18.9997   -2.5283  -16.6636 O   0  0  0  0  0  0  0  0  0  0  0  0
   19.2836   -3.5458  -14.6899 O   0  0  0  0  0  0  0  0  0  0  0  0
  2  1  1  0
  3  2  2  0
  4  2  1  0
  5  4  1  0
  6  8  1  0
  6  5  1  0
  6  7  1  6
  8 16  1  0
  8  9  2  0
 11 10  1  0
 11 13  1  0
 12 11  2  0
 14 13  1  0
 15 14  1  6
 16 15  1  0
 17 24  1  0
 17 15  1  0
 18 17  2  0
 19 20  1  0
 21 20  1  0
 21 22  1  6
 23 21  1  0
 23 24  1  1
 25 23  1  0
 26 25  1  0
 27 25  2  0
M  END
$$$$
