QQI.pdb
     RDKit          3D

 27 26  0  0  1  0  0  0  0  0999 V2000
   27.9693  -17.1784  -16.0028 N   0  0  0  0  0  0  0  0  0  0  0  0
   28.6495  -17.7307  -17.1135 C   0  0  0  0  0  0  0  0  0  0  0  0
   29.6068  -17.0854  -17.6073 O   0  0  0  0  0  0  0  0  0  0  0  0
   28.2793  -19.0207  -17.7046 C   0  0  0  0  0  0  0  0  0  0  0  0
   27.1542  -19.7023  -16.9749 C   0  0  0  0  0  0  0  0  0  0  0  0
   27.7315  -20.4379  -15.8048 C   0  0  2  0  0  0  0  0  0  0  0  0
   28.5349  -21.5733  -16.1870 N   0  0  0  0  0  0  0  0  0  0  0  0
   26.6980  -20.8577  -14.8246 C   0  0  0  0  0  0  0  0  0  0  0  0
   25.8961  -21.8061  -15.1261 O   0  0  0  0  0  0  0  0  0  0  0  0
   26.6741  -21.0011   -8.8444 N   0  0  0  0  0  0  0  0  0  0  0  0
   25.3042  -21.1457   -9.0939 C   0  0  0  0  0  0  0  0  0  0  0  0
   24.6104  -21.7429   -8.1994 O   0  0  0  0  0  0  0  0  0  0  0  0
   24.6356  -20.6456  -10.3277 C   0  0  0  0  0  0  0  0  0  0  0  0
   25.6759  -20.1539  -11.2708 C   0  0  0  0  0  0  0  0  0  0  0  0
   25.5117  -20.6885  -12.6751 C   0  0  2  0  0  0  0  0  0  0  0  0
   26.5496  -20.2592  -13.5600 N   0  0  0  0  0  0  0  0  0  0  0  0
   24.1602  -20.2188  -13.1380 C   0  0  0  0  0  0  0  0  0  0  0  0
   23.9993  -18.9895  -13.3327 O   0  0  0  0  0  0  0  0  0  0  0  0
   22.0395  -21.6142  -17.4843 C   0  0  0  0  0  0  0  0  0  0  0  0
   22.3552  -21.0037  -16.1632 C   0  0  0  0  0  0  0  0  0  0  0  0
   21.3668  -21.2018  -15.0759 C   0  0  2  0  0  0  0  0  0  0  0  0
   19.9394  -21.0461  -15.5074 C   0  0  0  0  0  0  0  0  0  0  0  0
   21.7418  -20.6179  -13.7732 C   0  0  2  0  0  0  0  0  0  0  0  0
   23.0846  -21.0880  -13.3586 N   0  0  0  0  0  0  0  0  0  0  0  0
   20.8733  -20.8478  -12.6253 C   0  0  0  0  0  0  0  0  0  0  0  0
   19.9601  -19.9047  -12.1840 O   0  0  0  0  0  0  0  0  0  0  0  0
   20.9195  -21.9177  -11.9870 O   0  0  0  0  0  0  0  0  0  0  0  0
  2  1  1  0
  3  2  2  0
  4  2  1  0
  5  4  1  0
  6  8  1  0
  6  5  1  0
  6  7  1  6
  8 16  1  0
  8  9  2  0
 11 10  1  0
 11 13  1  0
 12 11  2  0
 14 13  1  0
 15 14  1  1
 16 15  1  0
 17 24  1  0
 17 15  1  0
 18 17  2  0
 19 20  1  0
 21 20  1  0
 21 22  1  6
 23 21  1  0
 23 24  1  1
 25 23  1  0
 26 25  1  0
 27 25  2  0
M  END
$$$$
