QQI.pdb
     RDKit          3D

 27 26  0  0  1  0  0  0  0  0999 V2000
   28.9310  -16.9781  -17.3827 N   0  0  0  0  0  0  0  0  0  0  0  0
   28.4755  -18.2808  -17.6935 C   0  0  0  0  0  0  0  0  0  0  0  0
   28.5537  -18.6713  -18.8844 O   0  0  0  0  0  0  0  0  0  0  0  0
   27.9191  -19.1852  -16.6820 C   0  0  0  0  0  0  0  0  0  0  0  0
   27.9545  -18.6091  -15.2929 C   0  0  0  0  0  0  0  0  0  0  0  0
   28.0245  -19.7428  -14.3165 C   0  0  2  0  0  0  0  0  0  0  0  0
   27.7138  -21.0218  -14.9068 N   0  0  0  0  0  0  0  0  0  0  0  0
   27.1766  -19.5207  -13.1178 C   0  0  0  0  0  0  0  0  0  0  0  0
   27.2292  -18.3966  -12.5120 O   0  0  0  0  0  0  0  0  0  0  0  0
   21.3897  -21.4056  -12.4072 N   0  0  0  0  0  0  0  0  0  0  0  0
   21.6221  -20.6212  -11.2713 C   0  0  0  0  0  0  0  0  0  0  0  0
   20.6048  -20.3186  -10.5559 O   0  0  0  0  0  0  0  0  0  0  0  0
   22.9718  -20.1353  -10.8692 C   0  0  0  0  0  0  0  0  0  0  0  0
   23.9723  -20.6325  -11.8516 C   0  0  0  0  0  0  0  0  0  0  0  0
   25.3795  -20.1615  -11.5636 C   0  0  2  0  0  0  0  0  0  0  0  0
   26.3031  -20.4958  -12.6027 N   0  0  0  0  0  0  0  0  0  0  0  0
   25.7649  -20.7951  -10.2554 C   0  0  0  0  0  0  0  0  0  0  0  0
   26.0939  -22.0060  -10.2623 O   0  0  0  0  0  0  0  0  0  0  0  0
   29.2965  -18.6633   -7.1062 C   0  0  0  0  0  0  0  0  0  0  0  0
   28.3615  -19.6421   -7.7270 C   0  0  0  0  0  0  0  0  0  0  0  0
   27.0926  -19.9111   -7.0086 C   0  0  2  0  0  0  0  0  0  0  0  0
   27.2639  -20.2045   -5.5483 C   0  0  0  0  0  0  0  0  0  0  0  0
   26.1149  -20.7329   -7.7484 C   0  0  2  0  0  0  0  0  0  0  0  0
   25.7718  -20.0963   -9.0418 N   0  0  0  0  0  0  0  0  0  0  0  0
   24.8403  -21.0468   -7.1145 C   0  0  0  0  0  0  0  0  0  0  0  0
   24.7366  -21.9285   -6.0515 O   0  0  0  0  0  0  0  0  0  0  0  0
   23.7789  -20.5265   -7.5105 O   0  0  0  0  0  0  0  0  0  0  0  0
  2  1  1  0
  3  2  2  0
  4  2  1  0
  5  4  1  0
  6  8  1  0
  6  5  1  0
  6  7  1  6
  8 16  1  0
  8  9  2  0
 11 10  1  0
 11 13  1  0
 12 11  2  0
 14 13  1  0
 15 14  1  6
 16 15  1  0
 17 24  1  0
 17 15  1  0
 18 17  2  0
 19 20  1  0
 21 20  1  0
 21 22  1  1
 23 21  1  0
 23 24  1  6
 25 23  1  0
 26 25  1  0
 27 25  2  0
M  END
$$$$
