QQI.pdb
     RDKit          3D

 27 26  0  0  1  0  0  0  0  0999 V2000
   17.1091  -23.8193  -12.8004 N   0  0  0  0  0  0  0  0  0  0  0  0
   16.3519  -22.8127  -13.4444 C   0  0  0  0  0  0  0  0  0  0  0  0
   15.1747  -22.6122  -13.0564 O   0  0  0  0  0  0  0  0  0  0  0  0
   16.8889  -22.0007  -14.5412 C   0  0  0  0  0  0  0  0  0  0  0  0
   18.2827  -22.3996  -14.9423 C   0  0  0  0  0  0  0  0  0  0  0  0
   19.2524  -21.6021  -14.1254 C   0  0  2  0  0  0  0  0  0  0  0  0
   18.9030  -20.2058  -14.0311 N   0  0  0  0  0  0  0  0  0  0  0  0
   20.6526  -21.7413  -14.5999 C   0  0  0  0  0  0  0  0  0  0  0  0
   21.1265  -22.9072  -14.8221 O   0  0  0  0  0  0  0  0  0  0  0  0
   23.5116  -18.8463  -19.0260 N   0  0  0  0  0  0  0  0  0  0  0  0
   22.2653  -18.7031  -18.4049 C   0  0  0  0  0  0  0  0  0  0  0  0
   21.4141  -17.9389  -18.9791 O   0  0  0  0  0  0  0  0  0  0  0  0
   21.8965  -19.3866  -17.1336 C   0  0  0  0  0  0  0  0  0  0  0  0
   23.0882  -20.1112  -16.6158 C   0  0  0  0  0  0  0  0  0  0  0  0
   22.8277  -20.8422  -15.3187 C   0  0  2  0  0  0  0  0  0  0  0  0
   21.5018  -20.6419  -14.8223 N   0  0  0  0  0  0  0  0  0  0  0  0
   23.8630  -20.3413  -14.3498 C   0  0  0  0  0  0  0  0  0  0  0  0
   23.8116  -19.1359  -14.0047 O   0  0  0  0  0  0  0  0  0  0  0  0
   24.3836  -21.5353   -9.5682 C   0  0  0  0  0  0  0  0  0  0  0  0
   24.5836  -20.8981  -10.8993 C   0  0  0  0  0  0  0  0  0  0  0  0
   25.8582  -21.1861  -11.5997 C   0  0  2  0  0  0  0  0  0  0  0  0
   27.0743  -21.0846  -10.7287 C   0  0  0  0  0  0  0  0  0  0  0  0
   25.9623  -20.6347  -12.9649 C   0  0  2  0  0  0  0  0  0  0  0  0
   24.8720  -21.1565  -13.8221 N   0  0  0  0  0  0  0  0  0  0  0  0
   27.1919  -20.8518  -13.7173 C   0  0  0  0  0  0  0  0  0  0  0  0
   27.2414  -21.6568  -14.8432 O   0  0  0  0  0  0  0  0  0  0  0  0
   28.2619  -20.3138  -13.3713 O   0  0  0  0  0  0  0  0  0  0  0  0
  2  1  1  0
  3  2  2  0
  4  2  1  0
  5  4  1  0
  6  8  1  0
  6  5  1  0
  6  7  1  6
  8 16  1  0
  8  9  2  0
 11 10  1  0
 11 13  1  0
 12 11  2  0
 14 13  1  0
 15 14  1  6
 16 15  1  0
 17 24  1  0
 17 15  1  0
 18 17  2  0
 19 20  1  0
 21 20  1  0
 21 22  1  1
 23 21  1  0
 23 24  1  6
 25 23  1  0
 26 25  1  0
 27 25  2  0
M  END
$$$$
