QQI.pdb
     RDKit          3D

 27 26  0  0  1  0  0  0  0  0999 V2000
   22.0275  -21.1503  -11.2942 N   0  0  0  0  0  0  0  0  0  0  0  0
   21.9956  -20.9778   -9.8904 C   0  0  0  0  0  0  0  0  0  0  0  0
   21.0232  -21.4525   -9.2535 O   0  0  0  0  0  0  0  0  0  0  0  0
   23.0501  -20.2696   -9.1577 C   0  0  0  0  0  0  0  0  0  0  0  0
   24.1041  -19.6862  -10.0586 C   0  0  0  0  0  0  0  0  0  0  0  0
   25.1608  -20.7247  -10.2783 C   0  0  2  0  0  0  0  0  0  0  0  0
   26.0056  -20.9289   -9.1271 N   0  0  0  0  0  0  0  0  0  0  0  0
   25.9959  -20.4491  -11.4749 C   0  0  0  0  0  0  0  0  0  0  0  0
   26.8527  -19.5015  -11.4370 O   0  0  0  0  0  0  0  0  0  0  0  0
   27.5307  -23.9654  -16.4948 N   0  0  0  0  0  0  0  0  0  0  0  0
   27.9362  -22.6700  -16.8372 C   0  0  0  0  0  0  0  0  0  0  0  0
   28.5856  -22.5345  -17.9318 O   0  0  0  0  0  0  0  0  0  0  0  0
   27.6506  -21.4707  -16.0009 C   0  0  0  0  0  0  0  0  0  0  0  0
   26.9008  -21.8988  -14.7893 C   0  0  0  0  0  0  0  0  0  0  0  0
   26.5963  -20.7619  -13.8408 C   0  0  2  0  0  0  0  0  0  0  0  0
   25.8950  -21.1859  -12.6691 N   0  0  0  0  0  0  0  0  0  0  0  0
   25.7960  -19.7672  -14.6354 C   0  0  0  0  0  0  0  0  0  0  0  0
   24.5446  -19.8535  -14.5967 O   0  0  0  0  0  0  0  0  0  0  0  0
   24.2855  -14.6680  -15.9949 C   0  0  0  0  0  0  0  0  0  0  0  0
   25.5447  -15.2460  -16.5408 C   0  0  0  0  0  0  0  0  0  0  0  0
   26.1539  -16.3676  -15.7863 C   0  0  2  0  0  0  0  0  0  0  0  0
   27.6423  -16.2691  -15.6347 C   0  0  0  0  0  0  0  0  0  0  0  0
   25.5964  -17.7011  -16.0855 C   0  0  2  0  0  0  0  0  0  0  0  0
   26.3837  -18.7587  -15.4091 N   0  0  0  0  0  0  0  0  0  0  0  0
   25.4892  -18.1204  -17.4774 C   0  0  0  0  0  0  0  0  0  0  0  0
   26.4348  -18.9302  -18.0842 O   0  0  0  0  0  0  0  0  0  0  0  0
   24.5283  -17.7612  -18.1858 O   0  0  0  0  0  0  0  0  0  0  0  0
  2  1  1  0
  3  2  2  0
  4  2  1  0
  5  4  1  0
  6  8  1  0
  6  5  1  0
  6  7  1  1
  8 16  1  0
  8  9  2  0
 11 10  1  0
 11 13  1  0
 12 11  2  0
 14 13  1  0
 15 14  1  6
 16 15  1  0
 17 24  1  0
 17 15  1  0
 18 17  2  0
 19 20  1  0
 21 20  1  0
 21 22  1  6
 23 21  1  0
 23 24  1  1
 25 23  1  0
 26 25  1  0
 27 25  2  0
M  END
$$$$
