QQI.pdb
     RDKit          3D

 27 26  0  0  1  0  0  0  0  0999 V2000
   13.8694  -24.5171  -13.8802 N   0  0  0  0  0  0  0  0  0  0  0  0
   14.0444  -25.0886  -15.1624 C   0  0  0  0  0  0  0  0  0  0  0  0
   13.0346  -25.5400  -15.7567 O   0  0  0  0  0  0  0  0  0  0  0  0
   15.3536  -25.1722  -15.8177 C   0  0  0  0  0  0  0  0  0  0  0  0
   16.4678  -24.6011  -14.9838 C   0  0  0  0  0  0  0  0  0  0  0  0
   17.7095  -25.3941  -15.2534 C   0  0  2  0  0  0  0  0  0  0  0  0
   17.6231  -26.7592  -14.7954 N   0  0  0  0  0  0  0  0  0  0  0  0
   18.9304  -24.7530  -14.7024 C   0  0  0  0  0  0  0  0  0  0  0  0
   18.9172  -24.3033  -13.5062 O   0  0  0  0  0  0  0  0  0  0  0  0
   24.8648  -24.7189  -17.0339 N   0  0  0  0  0  0  0  0  0  0  0  0
   24.9458  -24.0357  -15.8147 C   0  0  0  0  0  0  0  0  0  0  0  0
   26.1129  -23.6908  -15.4182 O   0  0  0  0  0  0  0  0  0  0  0  0
   23.7589  -23.7011  -14.9789 C   0  0  0  0  0  0  0  0  0  0  0  0
   22.5452  -24.2777  -15.6174 C   0  0  0  0  0  0  0  0  0  0  0  0
   21.2791  -24.0294  -14.8299 C   0  0  2  0  0  0  0  0  0  0  0  0
   20.1220  -24.6107  -15.4366 N   0  0  0  0  0  0  0  0  0  0  0  0
   21.1527  -22.5353  -14.7158 C   0  0  0  0  0  0  0  0  0  0  0  0
   20.6290  -21.9142  -15.6722 O   0  0  0  0  0  0  0  0  0  0  0  0
   19.7731  -20.2049  -10.0487 C   0  0  0  0  0  0  0  0  0  0  0  0
   20.0170  -20.5128  -11.4852 C   0  0  0  0  0  0  0  0  0  0  0  0
   21.2338  -19.9318  -12.1018 C   0  0  2  0  0  0  0  0  0  0  0  0
   21.4670  -18.4906  -11.7608 C   0  0  0  0  0  0  0  0  0  0  0  0
   21.4864  -20.3409  -13.4973 C   0  0  2  0  0  0  0  0  0  0  0  0
   21.5910  -21.8156  -13.5972 N   0  0  0  0  0  0  0  0  0  0  0  0
   22.6626  -19.8163  -14.1802 C   0  0  0  0  0  0  0  0  0  0  0  0
   22.6251  -18.6607  -14.9426 O   0  0  0  0  0  0  0  0  0  0  0  0
   23.7636  -20.3959  -14.1033 O   0  0  0  0  0  0  0  0  0  0  0  0
  2  1  1  0
  3  2  2  0
  4  2  1  0
  5  4  1  0
  6  8  1  0
  6  5  1  0
  6  7  1  1
  8 16  1  0
  8  9  2  0
 11 10  1  0
 11 13  1  0
 12 11  2  0
 14 13  1  0
 15 14  1  6
 16 15  1  0
 17 24  1  0
 17 15  1  0
 18 17  2  0
 19 20  1  0
 21 20  1  0
 21 22  1  6
 23 21  1  0
 23 24  1  1
 25 23  1  0
 26 25  1  0
 27 25  2  0
M  END
$$$$
