QQI.pdb
     RDKit          3D

 27 26  0  0  1  0  0  0  0  0999 V2000
   12.9022  -11.9355  -13.9182 N   0  0  0  0  0  0  0  0  0  0  0  0
   13.4688  -13.1755  -14.2960 C   0  0  0  0  0  0  0  0  0  0  0  0
   12.7070  -14.1661  -14.4192 O   0  0  0  0  0  0  0  0  0  0  0  0
   14.9037  -13.3443  -14.5470 C   0  0  0  0  0  0  0  0  0  0  0  0
   15.7167  -12.1420  -14.1518 C   0  0  0  0  0  0  0  0  0  0  0  0
   15.8690  -11.2626  -15.3547 C   0  0  2  0  0  0  0  0  0  0  0  0
   16.5932  -11.8923  -16.4315 N   0  0  0  0  0  0  0  0  0  0  0  0
   16.4847   -9.9504  -15.0317 C   0  0  0  0  0  0  0  0  0  0  0  0
   17.6963   -9.7257  -15.3707 O   0  0  0  0  0  0  0  0  0  0  0  0
   13.8166   -4.3261  -14.3520 N   0  0  0  0  0  0  0  0  0  0  0  0
   15.1833   -4.0951  -14.1563 C   0  0  0  0  0  0  0  0  0  0  0  0
   15.5650   -2.8744  -14.1054 O   0  0  0  0  0  0  0  0  0  0  0  0
   16.1887   -5.1844  -14.0081 C   0  0  0  0  0  0  0  0  0  0  0  0
   15.5041   -6.4945  -14.1762 C   0  0  0  0  0  0  0  0  0  0  0  0
   16.4434   -7.6759  -14.0931 C   0  0  2  0  0  0  0  0  0  0  0  0
   15.7965   -8.9226  -14.3614 N   0  0  0  0  0  0  0  0  0  0  0  0
   17.0253   -7.6413  -12.7069 C   0  0  0  0  0  0  0  0  0  0  0  0
   16.3836   -8.2011  -11.7851 O   0  0  0  0  0  0  0  0  0  0  0  0
   22.1091   -8.8494  -12.3117 C   0  0  0  0  0  0  0  0  0  0  0  0
   20.6653   -8.5686  -12.0788 C   0  0  0  0  0  0  0  0  0  0  0  0
   20.3347   -7.3997  -11.2285 C   0  0  2  0  0  0  0  0  0  0  0  0
   21.1852   -7.2734  -10.0004 C   0  0  0  0  0  0  0  0  0  0  0  0
   18.8930   -7.1209  -11.0784 C   0  0  2  0  0  0  0  0  0  0  0  0
   18.2416   -7.0162  -12.4052 N   0  0  0  0  0  0  0  0  0  0  0  0
   18.4815   -5.9311  -10.3436 C   0  0  0  0  0  0  0  0  0  0  0  0
   18.2313   -5.9488   -8.9815 O   0  0  0  0  0  0  0  0  0  0  0  0
   18.3366   -4.8359  -10.9210 O   0  0  0  0  0  0  0  0  0  0  0  0
  2  1  1  0
  3  2  2  0
  4  2  1  0
  5  4  1  0
  6  8  1  0
  6  5  1  0
  6  7  1  6
  8 16  1  0
  8  9  2  0
 11 10  1  0
 11 13  1  0
 12 11  2  0
 14 13  1  0
 15 14  1  1
 16 15  1  0
 17 24  1  0
 17 15  1  0
 18 17  2  0
 19 20  1  0
 21 20  1  0
 21 22  1  1
 23 21  1  0
 23 24  1  6
 25 23  1  0
 26 25  1  0
 27 25  2  0
M  END
$$$$
