QQI.pdb
     RDKit          3D

 27 26  0  0  1  0  0  0  0  0999 V2000
   27.2481  -16.5885  -20.4203 N   0  0  0  0  0  0  0  0  0  0  0  0
   27.9372  -17.8228  -20.3665 C   0  0  0  0  0  0  0  0  0  0  0  0
   28.4157  -18.2853  -21.4314 O   0  0  0  0  0  0  0  0  0  0  0  0
   28.1114  -18.5764  -19.1206 C   0  0  0  0  0  0  0  0  0  0  0  0
   27.5217  -17.8814  -17.9240 C   0  0  0  0  0  0  0  0  0  0  0  0
   28.0973  -18.5036  -16.6891 C   0  0  2  0  0  0  0  0  0  0  0  0
   28.2307  -19.9368  -16.7837 N   0  0  0  0  0  0  0  0  0  0  0  0
   27.3418  -18.1469  -15.4614 C   0  0  0  0  0  0  0  0  0  0  0  0
   27.1152  -16.9167  -15.1997 O   0  0  0  0  0  0  0  0  0  0  0  0
   22.4505  -19.5576  -16.9034 N   0  0  0  0  0  0  0  0  0  0  0  0
   22.1014  -19.0758  -15.6363 C   0  0  0  0  0  0  0  0  0  0  0  0
   20.8644  -18.8168  -15.4335 O   0  0  0  0  0  0  0  0  0  0  0  0
   23.0857  -18.8568  -14.5397 C   0  0  0  0  0  0  0  0  0  0  0  0
   24.4553  -19.0919  -15.0710 C   0  0  0  0  0  0  0  0  0  0  0  0
   25.5333  -18.9829  -14.0170 C   0  0  2  0  0  0  0  0  0  0  0  0
   26.8528  -19.1046  -14.5542 N   0  0  0  0  0  0  0  0  0  0  0  0
   25.2407  -20.0670  -13.0167 C   0  0  0  0  0  0  0  0  0  0  0  0
   25.2069  -21.2525  -13.4267 O   0  0  0  0  0  0  0  0  0  0  0  0
   27.0745  -19.4311   -8.0241 C   0  0  0  0  0  0  0  0  0  0  0  0
   26.6140  -20.0894   -9.2781 C   0  0  0  0  0  0  0  0  0  0  0  0
   25.1924  -20.5065   -9.3375 C   0  0  2  0  0  0  0  0  0  0  0  0
   24.7561  -21.3663   -8.1895 C   0  0  0  0  0  0  0  0  0  0  0  0
   24.7036  -20.8794  -10.6794 C   0  0  2  0  0  0  0  0  0  0  0  0
   25.0067  -19.8105  -11.6600 N   0  0  0  0  0  0  0  0  0  0  0  0
   23.2878  -21.1807  -10.8515 C   0  0  0  0  0  0  0  0  0  0  0  0
   22.7796  -22.4622  -10.7183 O   0  0  0  0  0  0  0  0  0  0  0  0
   22.4679  -20.2838  -11.1294 O   0  0  0  0  0  0  0  0  0  0  0  0
  2  1  1  0
  3  2  2  0
  4  2  1  0
  5  4  1  0
  6  8  1  0
  6  5  1  0
  6  7  1  6
  8 16  1  0
  8  9  2  0
 11 10  1  0
 11 13  1  0
 12 11  2  0
 14 13  1  0
 15 14  1  6
 16 15  1  0
 17 24  1  0
 17 15  1  0
 18 17  2  0
 19 20  1  0
 21 20  1  0
 21 22  1  1
 23 21  1  0
 23 24  1  6
 25 23  1  0
 26 25  1  0
 27 25  2  0
M  END
$$$$
