QQI.pdb
     RDKit          3D

 27 26  0  0  1  0  0  0  0  0999 V2000
   31.4692  -24.6658  -15.0419 N   0  0  0  0  0  0  0  0  0  0  0  0
   31.4387  -24.6160  -16.4553 C   0  0  0  0  0  0  0  0  0  0  0  0
   32.2759  -25.2999  -17.0941 O   0  0  0  0  0  0  0  0  0  0  0  0
   30.4712  -23.8000  -17.1960 C   0  0  0  0  0  0  0  0  0  0  0  0
   29.4852  -23.0985  -16.3025 C   0  0  0  0  0  0  0  0  0  0  0  0
   28.5631  -22.2914  -17.1637 C   0  0  2  0  0  0  0  0  0  0  0  0
   29.2447  -21.5862  -18.2215 N   0  0  0  0  0  0  0  0  0  0  0  0
   27.7294  -21.3441  -16.3809 C   0  0  0  0  0  0  0  0  0  0  0  0
   28.2189  -20.2149  -16.0363 O   0  0  0  0  0  0  0  0  0  0  0  0
   22.8250  -18.0107  -16.0380 N   0  0  0  0  0  0  0  0  0  0  0  0
   23.6717  -18.3369  -17.1040 C   0  0  0  0  0  0  0  0  0  0  0  0
   23.7090  -17.5190  -18.0878 O   0  0  0  0  0  0  0  0  0  0  0  0
   24.5113  -19.5670  -17.1409 C   0  0  0  0  0  0  0  0  0  0  0  0
   24.3513  -20.2952  -15.8534 C   0  0  0  0  0  0  0  0  0  0  0  0
   25.6666  -20.6792  -15.2153 C   0  0  2  0  0  0  0  0  0  0  0  0
   26.4074  -21.6251  -15.9905 N   0  0  0  0  0  0  0  0  0  0  0  0
   25.3204  -21.2260  -13.8579 C   0  0  0  0  0  0  0  0  0  0  0  0
   24.9019  -22.4070  -13.7885 O   0  0  0  0  0  0  0  0  0  0  0  0
   28.2811  -21.0046   -9.4734 C   0  0  0  0  0  0  0  0  0  0  0  0
   27.2505  -21.2716  -10.5147 C   0  0  0  0  0  0  0  0  0  0  0  0
   25.9078  -20.6801  -10.3013 C   0  0  2  0  0  0  0  0  0  0  0  0
   25.4149  -20.7690   -8.8882 C   0  0  0  0  0  0  0  0  0  0  0  0
   24.9275  -20.9464  -11.3722 C   0  0  2  0  0  0  0  0  0  0  0  0
   25.4446  -20.4790  -12.6799 N   0  0  0  0  0  0  0  0  0  0  0  0
   23.5889  -20.3814  -11.2542 C   0  0  0  0  0  0  0  0  0  0  0  0
   22.5277  -21.0912  -10.7176 O   0  0  0  0  0  0  0  0  0  0  0  0
   23.3440  -19.2207  -11.6375 O   0  0  0  0  0  0  0  0  0  0  0  0
  2  1  1  0
  3  2  2  0
  4  2  1  0
  5  4  1  0
  6  8  1  0
  6  5  1  0
  6  7  1  6
  8 16  1  0
  8  9  2  0
 11 10  1  0
 11 13  1  0
 12 11  2  0
 14 13  1  0
 15 14  1  6
 16 15  1  0
 17 24  1  0
 17 15  1  0
 18 17  2  0
 19 20  1  0
 21 20  1  0
 21 22  1  1
 23 21  1  0
 23 24  1  6
 25 23  1  0
 26 25  1  0
 27 25  2  0
M  END
$$$$
