QQI.pdb
     RDKit          3D

 27 26  0  0  1  0  0  0  0  0999 V2000
   26.9822  -14.2332  -14.8387 N   0  0  0  0  0  0  0  0  0  0  0  0
   26.4607  -14.1769  -16.1525 C   0  0  0  0  0  0  0  0  0  0  0  0
   27.2630  -14.0251  -17.1063 O   0  0  0  0  0  0  0  0  0  0  0  0
   25.0267  -14.2887  -16.4383 C   0  0  0  0  0  0  0  0  0  0  0  0
   24.3882  -12.9691  -16.7756 C   0  0  0  0  0  0  0  0  0  0  0  0
   22.9176  -13.1911  -16.9529 C   0  0  2  0  0  0  0  0  0  0  0  0
   22.6055  -14.1034  -18.0258 N   0  0  0  0  0  0  0  0  0  0  0  0
   22.1637  -11.9243  -17.1320 C   0  0  0  0  0  0  0  0  0  0  0  0
   21.9890  -11.4596  -18.3096 O   0  0  0  0  0  0  0  0  0  0  0  0
   16.9069   -9.8719  -14.9928 N   0  0  0  0  0  0  0  0  0  0  0  0
   17.4302   -8.7452  -15.6380 C   0  0  0  0  0  0  0  0  0  0  0  0
   16.6200   -7.7835  -15.8769 O   0  0  0  0  0  0  0  0  0  0  0  0
   18.8569   -8.6209  -16.0486 C   0  0  0  0  0  0  0  0  0  0  0  0
   19.5357   -9.9255  -15.8233 C   0  0  0  0  0  0  0  0  0  0  0  0
   20.9728   -9.9414  -16.2919 C   0  0  2  0  0  0  0  0  0  0  0  0
   21.6214  -11.1942  -16.0586 N   0  0  0  0  0  0  0  0  0  0  0  0
   21.6559   -8.8195  -15.5597 C   0  0  0  0  0  0  0  0  0  0  0  0
   22.1399   -9.0640  -14.4280 O   0  0  0  0  0  0  0  0  0  0  0  0
   25.3144   -4.1654  -16.9890 C   0  0  0  0  0  0  0  0  0  0  0  0
   24.4271   -4.8247  -15.9911 C   0  0  0  0  0  0  0  0  0  0  0  0
   23.4914   -5.8565  -16.4992 C   0  0  2  0  0  0  0  0  0  0  0  0
   22.8467   -5.5103  -17.8077 C   0  0  0  0  0  0  0  0  0  0  0  0
   22.6354   -6.4861  -15.4748 C   0  0  2  0  0  0  0  0  0  0  0  0
   21.7731   -7.5262  -16.0837 N   0  0  0  0  0  0  0  0  0  0  0  0
   21.7403   -5.6418  -14.6931 C   0  0  0  0  0  0  0  0  0  0  0  0
   22.2024   -4.7651  -13.7257 O   0  0  0  0  0  0  0  0  0  0  0  0
   20.5064   -5.6768  -14.8675 O   0  0  0  0  0  0  0  0  0  0  0  0
  2  1  1  0
  3  2  2  0
  4  2  1  0
  5  4  1  0
  6  8  1  0
  6  5  1  0
  6  7  1  6
  8 16  1  0
  8  9  2  0
 11 10  1  0
 11 13  1  0
 12 11  2  0
 14 13  1  0
 15 14  1  1
 16 15  1  0
 17 24  1  0
 17 15  1  0
 18 17  2  0
 19 20  1  0
 21 20  1  0
 21 22  1  6
 23 21  1  0
 23 24  1  6
 25 23  1  0
 26 25  1  0
 27 25  2  0
M  END
$$$$
