QQI.pdb
     RDKit          3D

 27 26  0  0  1  0  0  0  0  0999 V2000
   13.8447  -15.6406  -13.2892 N   0  0  0  0  0  0  0  0  0  0  0  0
   14.1802  -15.1192  -14.5608 C   0  0  0  0  0  0  0  0  0  0  0  0
   13.9667  -15.8318  -15.5724 O   0  0  0  0  0  0  0  0  0  0  0  0
   14.7642  -13.7859  -14.7386 C   0  0  0  0  0  0  0  0  0  0  0  0
   14.9881  -13.0623  -13.4389 C   0  0  0  0  0  0  0  0  0  0  0  0
   14.8647  -11.5914  -13.6935 C   0  0  2  0  0  0  0  0  0  0  0  0
   15.1909  -11.2195  -15.0485 N   0  0  0  0  0  0  0  0  0  0  0  0
   15.6597  -10.7757  -12.7407 C   0  0  0  0  0  0  0  0  0  0  0  0
   15.5551  -10.9971  -11.4864 O   0  0  0  0  0  0  0  0  0  0  0  0
   20.8498   -7.3220  -13.8836 N   0  0  0  0  0  0  0  0  0  0  0  0
   20.6782   -7.2712  -12.4952 C   0  0  0  0  0  0  0  0  0  0  0  0
   21.5865   -6.6747  -11.8188 O   0  0  0  0  0  0  0  0  0  0  0  0
   19.5106   -7.8680  -11.7883 C   0  0  0  0  0  0  0  0  0  0  0  0
   18.6014   -8.4783  -12.7954 C   0  0  0  0  0  0  0  0  0  0  0  0
   17.3523   -9.0764  -12.1897 C   0  0  2  0  0  0  0  0  0  0  0  0
   16.5371   -9.7546  -13.1490 N   0  0  0  0  0  0  0  0  0  0  0  0
   16.6173   -7.9312  -11.5496 C   0  0  0  0  0  0  0  0  0  0  0  0
   16.1183   -7.0587  -12.3010 O   0  0  0  0  0  0  0  0  0  0  0  0
   12.6416   -8.5925   -8.4614 C   0  0  0  0  0  0  0  0  0  0  0  0
   13.5737   -7.8108   -9.3204 C   0  0  0  0  0  0  0  0  0  0  0  0
   14.6971   -7.1208   -8.6419 C   0  0  2  0  0  0  0  0  0  0  0  0
   14.2746   -6.1983   -7.5382 C   0  0  0  0  0  0  0  0  0  0  0  0
   15.7752   -6.6510   -9.5338 C   0  0  2  0  0  0  0  0  0  0  0  0
   16.4683   -7.7996  -10.1634 N   0  0  0  0  0  0  0  0  0  0  0  0
   16.8300   -5.8123   -8.9780 C   0  0  0  0  0  0  0  0  0  0  0  0
   18.1048   -6.2914   -8.7260 O   0  0  0  0  0  0  0  0  0  0  0  0
   16.6224   -4.6140   -8.7038 O   0  0  0  0  0  0  0  0  0  0  0  0
  2  1  1  0
  3  2  2  0
  4  2  1  0
  5  4  1  0
  6  8  1  0
  6  5  1  0
  6  7  1  6
  8 16  1  0
  8  9  2  0
 11 10  1  0
 11 13  1  0
 12 11  2  0
 14 13  1  0
 15 14  1  6
 16 15  1  0
 17 24  1  0
 17 15  1  0
 18 17  2  0
 19 20  1  0
 21 20  1  0
 21 22  1  6
 23 21  1  0
 23 24  1  1
 25 23  1  0
 26 25  1  0
 27 25  2  0
M  END
$$$$
