QQI.pdb
     RDKit          3D

 27 26  0  0  1  0  0  0  0  0999 V2000
   19.8596  -20.4841  -12.7952 N   0  0  0  0  0  0  0  0  0  0  0  0
   19.1435  -21.4653  -13.5203 C   0  0  0  0  0  0  0  0  0  0  0  0
   17.9216  -21.2732  -13.7363 O   0  0  0  0  0  0  0  0  0  0  0  0
   19.7727  -22.6900  -14.0251 C   0  0  0  0  0  0  0  0  0  0  0  0
   21.2487  -22.7540  -13.7424 C   0  0  0  0  0  0  0  0  0  0  0  0
   21.9682  -22.0289  -14.8379 C   0  0  2  0  0  0  0  0  0  0  0  0
   21.8937  -22.7034  -16.1108 N   0  0  0  0  0  0  0  0  0  0  0  0
   23.3856  -21.7413  -14.5010 C   0  0  0  0  0  0  0  0  0  0  0  0
   24.2843  -22.6060  -14.7801 O   0  0  0  0  0  0  0  0  0  0  0  0
   26.6347  -16.4434  -14.4554 N   0  0  0  0  0  0  0  0  0  0  0  0
   26.3616  -17.3187  -15.5132 C   0  0  0  0  0  0  0  0  0  0  0  0
   26.5718  -16.8822  -16.6979 O   0  0  0  0  0  0  0  0  0  0  0  0
   25.8487  -18.7044  -15.3227 C   0  0  0  0  0  0  0  0  0  0  0  0
   25.6613  -18.9501  -13.8674 C   0  0  0  0  0  0  0  0  0  0  0  0
   25.1790  -20.3479  -13.5534 C   0  0  2  0  0  0  0  0  0  0  0  0
   23.8017  -20.5491  -13.8808 N   0  0  0  0  0  0  0  0  0  0  0  0
   25.4344  -20.5504  -12.0854 C   0  0  0  0  0  0  0  0  0  0  0  0
   24.4428  -20.6153  -11.3190 O   0  0  0  0  0  0  0  0  0  0  0  0
   30.7573  -21.4929  -10.5091 C   0  0  0  0  0  0  0  0  0  0  0  0
   29.2876  -21.6331  -10.7047 C   0  0  0  0  0  0  0  0  0  0  0  0
   28.4100  -20.8475   -9.8042 C   0  0  2  0  0  0  0  0  0  0  0  0
   28.8084  -20.8987   -8.3598 C   0  0  0  0  0  0  0  0  0  0  0  0
   26.9674  -20.9291  -10.1061 C   0  0  2  0  0  0  0  0  0  0  0  0
   26.7204  -20.6685  -11.5438 N   0  0  0  0  0  0  0  0  0  0  0  0
   26.0494  -20.0560   -9.3850 C   0  0  0  0  0  0  0  0  0  0  0  0
   25.3068  -20.4924   -8.3005 O   0  0  0  0  0  0  0  0  0  0  0  0
   25.8949  -18.8657   -9.7215 O   0  0  0  0  0  0  0  0  0  0  0  0
  2  1  1  0
  3  2  2  0
  4  2  1  0
  5  4  1  0
  6  8  1  0
  6  5  1  0
  6  7  1  6
  8 16  1  0
  8  9  2  0
 11 10  1  0
 11 13  1  0
 12 11  2  0
 14 13  1  0
 15 14  1  1
 16 15  1  0
 17 24  1  0
 17 15  1  0
 18 17  2  0
 19 20  1  0
 21 20  1  0
 21 22  1  1
 23 21  1  0
 23 24  1  6
 25 23  1  0
 26 25  1  0
 27 25  2  0
M  END
$$$$
