QQI.pdb
     RDKit          3D

 27 26  0  0  1  0  0  0  0  0999 V2000
   21.5977  -18.9955  -15.3708 N   0  0  0  0  0  0  0  0  0  0  0  0
   20.7812  -19.0680  -16.5238 C   0  0  0  0  0  0  0  0  0  0  0  0
   20.2640  -20.1733  -16.8194 O   0  0  0  0  0  0  0  0  0  0  0  0
   20.5192  -17.9067  -17.3801 C   0  0  0  0  0  0  0  0  0  0  0  0
   21.3097  -16.6903  -16.9820 C   0  0  0  0  0  0  0  0  0  0  0  0
   20.3967  -15.7570  -16.2480 C   0  0  2  0  0  0  0  0  0  0  0  0
   19.0039  -16.1131  -16.3670 N   0  0  0  0  0  0  0  0  0  0  0  0
   20.5903  -14.3381  -16.6409 C   0  0  0  0  0  0  0  0  0  0  0  0
   21.5652  -14.0267  -17.4064 O   0  0  0  0  0  0  0  0  0  0  0  0
   16.5010   -9.5006  -16.5075 N   0  0  0  0  0  0  0  0  0  0  0  0
   17.7122   -8.9263  -16.9109 C   0  0  0  0  0  0  0  0  0  0  0  0
   17.6904   -7.6864  -17.2278 O   0  0  0  0  0  0  0  0  0  0  0  0
   18.9953   -9.6796  -16.9853 C   0  0  0  0  0  0  0  0  0  0  0  0
   18.7477  -11.0891  -16.5788 C   0  0  0  0  0  0  0  0  0  0  0  0
   19.9878  -11.9521  -16.6247 C   0  0  2  0  0  0  0  0  0  0  0  0
   19.7456  -13.2989  -16.2098 N   0  0  0  0  0  0  0  0  0  0  0  0
   20.9944  -11.2723  -15.7381 C   0  0  0  0  0  0  0  0  0  0  0  0
   20.8490  -11.3752  -14.4959 O   0  0  0  0  0  0  0  0  0  0  0  0
   26.8882  -10.6368  -15.0173 C   0  0  0  0  0  0  0  0  0  0  0  0
   25.5569   -9.9911  -14.8486 C   0  0  0  0  0  0  0  0  0  0  0  0
   24.4185  -10.5915  -15.5848 C   0  0  2  0  0  0  0  0  0  0  0  0
   24.7445  -11.0054  -16.9884 C   0  0  0  0  0  0  0  0  0  0  0  0
   23.1136   -9.9382  -15.3634 C   0  0  2  0  0  0  0  0  0  0  0  0
   22.0766  -10.5364  -16.2366 N   0  0  0  0  0  0  0  0  0  0  0  0
   23.0084   -8.4974  -15.5586 C   0  0  0  0  0  0  0  0  0  0  0  0
   22.2353   -7.9384  -16.5625 O   0  0  0  0  0  0  0  0  0  0  0  0
   23.6191   -7.7013  -14.8189 O   0  0  0  0  0  0  0  0  0  0  0  0
  2  1  1  0
  3  2  2  0
  4  2  1  0
  5  4  1  0
  6  8  1  0
  6  5  1  0
  6  7  1  6
  8 16  1  0
  8  9  2  0
 11 10  1  0
 11 13  1  0
 12 11  2  0
 14 13  1  0
 15 14  1  1
 16 15  1  0
 17 24  1  0
 17 15  1  0
 18 17  2  0
 19 20  1  0
 21 20  1  0
 21 22  1  6
 23 21  1  0
 23 24  1  6
 25 23  1  0
 26 25  1  0
 27 25  2  0
M  END
$$$$
