QQI.pdb
     RDKit          3D

 27 26  0  0  1  0  0  0  0  0999 V2000
   15.6652  -12.5217  -18.9650 N   0  0  0  0  0  0  0  0  0  0  0  0
   16.5452  -13.5539  -18.5630 C   0  0  0  0  0  0  0  0  0  0  0  0
   16.1192  -14.7351  -18.5659 O   0  0  0  0  0  0  0  0  0  0  0  0
   17.9271  -13.2956  -18.1459 C   0  0  0  0  0  0  0  0  0  0  0  0
   18.2872  -11.8353  -18.1707 C   0  0  0  0  0  0  0  0  0  0  0  0
   19.3261  -11.5904  -17.1199 C   0  0  2  0  0  0  0  0  0  0  0  0
   19.4202  -12.6573  -16.1536 N   0  0  0  0  0  0  0  0  0  0  0  0
   19.1417  -10.2924  -16.4224 C   0  0  0  0  0  0  0  0  0  0  0  0
   19.0991   -9.2135  -17.1062 O   0  0  0  0  0  0  0  0  0  0  0  0
   16.7469   -9.2882  -10.6979 N   0  0  0  0  0  0  0  0  0  0  0  0
   16.0380   -9.5196  -11.8827 C   0  0  0  0  0  0  0  0  0  0  0  0
   14.8217   -9.9010  -11.7672 O   0  0  0  0  0  0  0  0  0  0  0  0
   16.6258   -9.3448  -13.2404 C   0  0  0  0  0  0  0  0  0  0  0  0
   18.0651   -8.9959  -13.0981 C   0  0  0  0  0  0  0  0  0  0  0  0
   18.7926   -8.9051  -14.4200 C   0  0  2  0  0  0  0  0  0  0  0  0
   19.0090  -10.1820  -15.0262 N   0  0  0  0  0  0  0  0  0  0  0  0
   20.0905   -8.2043  -14.1272 C   0  0  0  0  0  0  0  0  0  0  0  0
   20.9784   -8.8429  -13.5119 O   0  0  0  0  0  0  0  0  0  0  0  0
   23.1672   -6.8992  -17.7714 C   0  0  0  0  0  0  0  0  0  0  0  0
   22.5217   -7.1312  -16.4496 C   0  0  0  0  0  0  0  0  0  0  0  0
   22.3184   -5.9464  -15.5816 C   0  0  2  0  0  0  0  0  0  0  0  0
   23.4743   -4.9917  -15.5647 C   0  0  0  0  0  0  0  0  0  0  0  0
   21.6546   -6.2200  -14.2920 C   0  0  2  0  0  0  0  0  0  0  0  0
   20.3466   -6.8816  -14.5092 N   0  0  0  0  0  0  0  0  0  0  0  0
   21.3868   -5.1060  -13.3907 C   0  0  0  0  0  0  0  0  0  0  0  0
   22.2743   -4.7231  -12.3988 O   0  0  0  0  0  0  0  0  0  0  0  0
   20.3332   -4.4455  -13.4790 O   0  0  0  0  0  0  0  0  0  0  0  0
  2  1  1  0
  3  2  2  0
  4  2  1  0
  5  4  1  0
  6  8  1  0
  6  5  1  0
  6  7  1  1
  8 16  1  0
  8  9  2  0
 11 10  1  0
 11 13  1  0
 12 11  2  0
 14 13  1  0
 15 14  1  1
 16 15  1  0
 17 24  1  0
 17 15  1  0
 18 17  2  0
 19 20  1  0
 21 20  1  0
 21 22  1  1
 23 21  1  0
 23 24  1  6
 25 23  1  0
 26 25  1  0
 27 25  2  0
M  END
$$$$
