QQI.pdb
     RDKit          3D

 27 26  0  0  1  0  0  0  0  0999 V2000
   17.6029  -21.9047  -12.5069 N   0  0  0  0  0  0  0  0  0  0  0  0
   17.6101  -21.1096  -13.6770 C   0  0  0  0  0  0  0  0  0  0  0  0
   16.7981  -21.3897  -14.5929 O   0  0  0  0  0  0  0  0  0  0  0  0
   18.5254  -19.9782  -13.8573 C   0  0  0  0  0  0  0  0  0  0  0  0
   19.3736  -19.7071  -12.6449 C   0  0  0  0  0  0  0  0  0  0  0  0
   20.2602  -20.8928  -12.4179 C   0  0  2  0  0  0  0  0  0  0  0  0
   20.0396  -21.5323  -11.1439 N   0  0  0  0  0  0  0  0  0  0  0  0
   21.7009  -20.5708  -12.5785 C   0  0  0  0  0  0  0  0  0  0  0  0
   22.2133  -19.6263  -11.8867 O   0  0  0  0  0  0  0  0  0  0  0  0
   26.0859  -21.9764  -11.4676 N   0  0  0  0  0  0  0  0  0  0  0  0
   26.8373  -21.6996  -12.6158 C   0  0  0  0  0  0  0  0  0  0  0  0
   28.0811  -21.4474  -12.4497 O   0  0  0  0  0  0  0  0  0  0  0  0
   26.2637  -21.6863  -13.9907 C   0  0  0  0  0  0  0  0  0  0  0  0
   24.8246  -22.0555  -13.9132 C   0  0  0  0  0  0  0  0  0  0  0  0
   23.9234  -20.8866  -13.5869 C   0  0  2  0  0  0  0  0  0  0  0  0
   22.5484  -21.2597  -13.4654 N   0  0  0  0  0  0  0  0  0  0  0  0
   24.1304  -19.8875  -14.6916 C   0  0  0  0  0  0  0  0  0  0  0  0
   23.2742  -19.8373  -15.6076 O   0  0  0  0  0  0  0  0  0  0  0  0
   25.5559  -14.6579  -16.2087 C   0  0  0  0  0  0  0  0  0  0  0  0
   26.5067  -15.8020  -16.2772 C   0  0  0  0  0  0  0  0  0  0  0  0
   26.2953  -16.9124  -15.3177 C   0  0  2  0  0  0  0  0  0  0  0  0
   27.5350  -17.3417  -14.5920 C   0  0  0  0  0  0  0  0  0  0  0  0
   25.3862  -17.9785  -15.7822 C   0  0  2  0  0  0  0  0  0  0  0  0
   25.2283  -19.0195  -14.7396 N   0  0  0  0  0  0  0  0  0  0  0  0
   25.7151  -18.6962  -17.0076 C   0  0  0  0  0  0  0  0  0  0  0  0
   25.1489  -18.3765  -18.2305 O   0  0  0  0  0  0  0  0  0  0  0  0
   26.5305  -19.6392  -17.0023 O   0  0  0  0  0  0  0  0  0  0  0  0
  2  1  1  0
  3  2  2  0
  4  2  1  0
  5  4  1  0
  6  8  1  0
  6  5  1  0
  6  7  1  1
  8 16  1  0
  8  9  2  0
 11 10  1  0
 11 13  1  0
 12 11  2  0
 14 13  1  0
 15 14  1  6
 16 15  1  0
 17 24  1  0
 17 15  1  0
 18 17  2  0
 19 20  1  0
 21 20  1  0
 21 22  1  6
 23 21  1  0
 23 24  1  1
 25 23  1  0
 26 25  1  0
 27 25  2  0
M  END
$$$$
