HRF.pdb
     RDKit          3D

 33 34  0  0  1  0  0  0  0  0999 V2000
   20.3282  -22.4057  -14.5070 N   0  0  0  0  0  0  0  0  0  0  0  0
   21.0237  -21.3732  -13.7759 C   0  0  1  0  0  0  0  0  0  0  0  0
   20.1216  -20.9009  -12.6568 C   0  0  0  0  0  0  0  0  0  0  0  0
   18.9528  -20.1974  -13.2403 C   0  0  0  0  0  0  0  0  0  0  0  0
   17.6622  -20.6573  -13.3981 C   0  0  0  0  0  0  0  0  0  0  0  0
   16.9263  -19.6896  -13.9721 N   0  0  0  0  0  0  0  0  0  0  0  0
   17.7187  -18.6301  -14.1811 C   0  0  0  0  0  0  0  0  0  0  0  0
   18.9429  -18.9412  -13.7372 N   0  0  0  0  0  0  0  0  0  0  0  0
   22.3358  -21.8535  -13.2369 C   0  0  0  0  0  0  0  0  0  0  0  0
   22.3272  -22.9350  -12.6179 O   0  0  0  0  0  0  0  0  0  0  0  0
   29.7757  -20.4069  -16.9738 N   0  0  0  0  0  0  0  0  0  0  0  0
   28.5323  -21.0959  -17.1560 C   0  0  0  0  0  0  0  0  0  0  0  0
   28.1378  -21.4475  -18.3277 N   0  0  0  0  0  0  0  0  0  0  0  0
   27.7429  -21.3905  -16.0238 N   0  0  0  0  0  0  0  0  0  0  0  0
   28.1817  -20.9882  -14.7171 C   0  0  0  0  0  0  0  0  0  0  0  0
   27.2173  -21.4280  -13.6446 C   0  0  0  0  0  0  0  0  0  0  0  0
   25.8135  -21.1169  -14.0539 C   0  0  0  0  0  0  0  0  0  0  0  0
   24.8095  -21.4692  -13.0056 C   0  0  2  0  0  0  0  0  0  0  0  0
   23.4708  -21.0574  -13.4658 N   0  0  0  0  0  0  0  0  0  0  0  0
   25.0457  -20.7577  -11.7401 C   0  0  0  0  0  0  0  0  0  0  0  0
   24.6128  -19.5476  -11.6587 O   0  0  0  0  0  0  0  0  0  0  0  0
   27.2117  -21.9168  -18.4125 N   0  0  0  0  0  0  0  0  0  0  0  0
   25.7004  -21.2847  -10.6034 C   0  0  2  0  0  0  0  0  0  0  0  0
   26.0094  -20.4383   -9.4499 C   0  0  0  0  0  0  0  0  0  0  0  0
   26.1406  -21.3080   -8.2207 C   0  0  0  0  0  0  0  0  0  0  0  0
   27.0871  -20.7726   -7.2409 C   0  0  0  0  0  0  0  0  0  0  0  0
   28.4627  -20.7872   -7.4172 C   0  0  0  0  0  0  0  0  0  0  0  0
   29.3394  -20.2757   -6.4863 C   0  0  0  0  0  0  0  0  0  0  0  0
   28.8021  -19.7292   -5.3336 C   0  0  0  0  0  0  0  0  0  0  0  0
   27.4454  -19.6859   -5.1017 C   0  0  0  0  0  0  0  0  0  0  0  0
   26.6030  -20.2082   -6.0582 C   0  0  0  0  0  0  0  0  0  0  0  0
   27.1950  -19.5992   -9.7114 O   0  0  0  0  0  0  0  0  0  0  0  0
   28.1192  -19.9706  -10.5143 O   0  0  0  0  0  0  0  0  0  0  0  0
  2  1  1  1
  2  3  1  0
  3  4  1  0
  4  8  1  0
  5  6  1  0
  5  4  2  0
  6  7  1  0
  7  8  2  0
  9  2  1  0
  9 10  2  0
 11 12  1  0
 12 14  1  0
 13 12  2  0
 14 15  1  0
 16 17  1  0
 16 15  1  0
 18 19  1  0
 18 17  1  6
 19  9  1  0
 20 18  1  0
 21 20  2  0
 22 20  1  0
 23 24  1  1
 23 22  1  0
 24 25  1  0
 25 30  2  0
 26 27  2  0
 26 25  1  0
 27 28  1  0
 28 29  2  0
 30 29  1  0
 31 33  1  0
 31 23  1  0
 32 31  2  0
M  END
$$$$
