HRF.pdb
     RDKit          3D

 33 34  0  0  1  0  0  0  0  0999 V2000
   27.1508  -26.8242  -16.3945 N   0  0  0  0  0  0  0  0  0  0  0  0
   25.7873  -26.3536  -16.4540 C   0  0  1  0  0  0  0  0  0  0  0  0
   24.9505  -27.2216  -15.5397 C   0  0  0  0  0  0  0  0  0  0  0  0
   24.7523  -28.5469  -16.1767 C   0  0  0  0  0  0  0  0  0  0  0  0
   25.5226  -29.6842  -16.0545 C   0  0  0  0  0  0  0  0  0  0  0  0
   24.9782  -30.6571  -16.8060 N   0  0  0  0  0  0  0  0  0  0  0  0
   23.8837  -30.1636  -17.3999 C   0  0  0  0  0  0  0  0  0  0  0  0
   23.7506  -28.8877  -17.0167 N   0  0  0  0  0  0  0  0  0  0  0  0
   25.6740  -24.9104  -16.0707 C   0  0  0  0  0  0  0  0  0  0  0  0
   26.2600  -24.5578  -15.0290 O   0  0  0  0  0  0  0  0  0  0  0  0
   29.5960  -22.2816  -16.6104 N   0  0  0  0  0  0  0  0  0  0  0  0
   29.6196  -21.7997  -17.9599 C   0  0  0  0  0  0  0  0  0  0  0  0
   30.6895  -21.8727  -18.6685 N   0  0  0  0  0  0  0  0  0  0  0  0
   28.4430  -21.2446  -18.5071 N   0  0  0  0  0  0  0  0  0  0  0  0
   27.1909  -21.3935  -17.8201 C   0  0  0  0  0  0  0  0  0  0  0  0
   26.1043  -21.8880  -18.7413 C   0  0  0  0  0  0  0  0  0  0  0  0
   24.7951  -21.9268  -18.0208 C   0  0  0  0  0  0  0  0  0  0  0  0
   24.8803  -22.6078  -16.6941 C   0  0  2  0  0  0  0  0  0  0  0  0
   24.9222  -24.0663  -16.9054 N   0  0  0  0  0  0  0  0  0  0  0  0
   23.7021  -22.3482  -15.8528 C   0  0  0  0  0  0  0  0  0  0  0  0
   22.6147  -22.9656  -16.1609 O   0  0  0  0  0  0  0  0  0  0  0  0
   30.6800  -21.4401  -19.6160 N   0  0  0  0  0  0  0  0  0  0  0  0
   23.6575  -21.4863  -14.7332 C   0  0  2  0  0  0  0  0  0  0  0  0
   22.4124  -21.2726  -13.9939 C   0  0  0  0  0  0  0  0  0  0  0  0
   22.7366  -20.6761  -12.6435 C   0  0  0  0  0  0  0  0  0  0  0  0
   21.5445  -20.2667  -11.8993 C   0  0  0  0  0  0  0  0  0  0  0  0
   20.7905  -21.1341  -11.1230 C   0  0  0  0  0  0  0  0  0  0  0  0
   19.6730  -20.7314  -10.4259 C   0  0  0  0  0  0  0  0  0  0  0  0
   19.3058  -19.4000  -10.5191 C   0  0  0  0  0  0  0  0  0  0  0  0
   20.0140  -18.4914  -11.2734 C   0  0  0  0  0  0  0  0  0  0  0  0
   21.1256  -18.9350  -11.9552 C   0  0  0  0  0  0  0  0  0  0  0  0
   21.4592  -20.4688  -14.7834 O   0  0  0  0  0  0  0  0  0  0  0  0
   20.1954  -20.6509  -14.7021 O   0  0  0  0  0  0  0  0  0  0  0  0
  2  1  1  1
  2  3  1  0
  3  4  1  0
  4  8  1  0
  5  6  1  0
  5  4  2  0
  6  7  1  0
  7  8  2  0
  9  2  1  0
  9 10  2  0
 11 12  1  0
 12 14  1  0
 13 12  2  0
 14 15  1  0
 16 17  1  0
 16 15  1  0
 18 19  1  0
 18 17  1  6
 19  9  1  0
 20 18  1  0
 21 20  2  0
 22 20  1  0
 23 24  1  1
 23 22  1  0
 24 25  1  0
 25 30  2  0
 26 27  2  0
 26 25  1  0
 27 28  1  0
 28 29  2  0
 30 29  1  0
 31 33  1  0
 31 23  1  0
 32 31  2  0
M  END
$$$$
