HRF.pdb
     RDKit          3D

 33 34  0  0  1  0  0  0  0  0999 V2000
   25.7886  -17.1494  -15.5347 N   0  0  0  0  0  0  0  0  0  0  0  0
   26.6921  -18.0296  -14.8322 C   0  0  1  0  0  0  0  0  0  0  0  0
   27.7480  -17.1797  -14.1599 C   0  0  0  0  0  0  0  0  0  0  0  0
   28.5591  -16.5007  -15.2004 C   0  0  0  0  0  0  0  0  0  0  0  0
   29.5908  -17.0137  -15.9582 C   0  0  0  0  0  0  0  0  0  0  0  0
   30.0439  -16.0503  -16.7792 N   0  0  0  0  0  0  0  0  0  0  0  0
   29.3249  -14.9417  -16.5596 C   0  0  0  0  0  0  0  0  0  0  0  0
   28.4283  -15.2182  -15.6045 N   0  0  0  0  0  0  0  0  0  0  0  0
   25.9783  -18.8847  -13.8313 C   0  0  0  0  0  0  0  0  0  0  0  0
   25.2079  -18.3032  -13.0431 O   0  0  0  0  0  0  0  0  0  0  0  0
   22.2342  -25.5491  -12.5165 N   0  0  0  0  0  0  0  0  0  0  0  0
   22.3830  -25.3382  -13.9263 C   0  0  0  0  0  0  0  0  0  0  0  0
   21.3611  -25.3426  -14.7060 N   0  0  0  0  0  0  0  0  0  0  0  0
   23.6746  -25.1187  -14.4510 N   0  0  0  0  0  0  0  0  0  0  0  0
   24.7860  -24.9170  -13.5645 C   0  0  0  0  0  0  0  0  0  0  0  0
   24.7134  -23.5782  -12.8743 C   0  0  0  0  0  0  0  0  0  0  0  0
   25.5115  -22.5645  -13.6294 C   0  0  0  0  0  0  0  0  0  0  0  0
   25.4568  -21.2044  -13.0144 C   0  0  2  0  0  0  0  0  0  0  0  0
   26.2266  -20.2675  -13.8529 N   0  0  0  0  0  0  0  0  0  0  0  0
   26.0757  -21.1658  -11.6807 C   0  0  0  0  0  0  0  0  0  0  0  0
   27.3563  -21.2898  -11.6253 O   0  0  0  0  0  0  0  0  0  0  0  0
   21.5293  -25.3384  -15.7340 N   0  0  0  0  0  0  0  0  0  0  0  0
   25.3917  -20.9993  -10.4547 C   0  0  2  0  0  0  0  0  0  0  0  0
   26.0883  -21.1453   -9.1757 C   0  0  0  0  0  0  0  0  0  0  0  0
   26.9746  -19.9408   -8.9563 C   0  0  0  0  0  0  0  0  0  0  0  0
   27.5523  -19.8942   -7.6122 C   0  0  0  0  0  0  0  0  0  0  0  0
   28.5239  -20.7771   -7.1649 C   0  0  0  0  0  0  0  0  0  0  0  0
   29.0596  -20.7170   -5.8975 C   0  0  0  0  0  0  0  0  0  0  0  0
   28.5931  -19.7255   -5.0517 C   0  0  0  0  0  0  0  0  0  0  0  0
   27.6301  -18.8202   -5.4382 C   0  0  0  0  0  0  0  0  0  0  0  0
   27.1204  -18.9148   -6.7144 C   0  0  0  0  0  0  0  0  0  0  0  0
   25.1328  -21.3859   -8.0769 O   0  0  0  0  0  0  0  0  0  0  0  0
   23.8923  -21.0930   -8.1868 O   0  0  0  0  0  0  0  0  0  0  0  0
  2  1  1  1
  2  3  1  0
  3  4  1  0
  4  8  1  0
  5  6  1  0
  5  4  2  0
  6  7  1  0
  7  8  2  0
  9  2  1  0
  9 10  2  0
 11 12  1  0
 12 14  1  0
 13 12  2  0
 14 15  1  0
 16 17  1  0
 16 15  1  0
 18 19  1  0
 18 17  1  6
 19  9  1  0
 20 18  1  0
 21 20  2  0
 22 20  1  0
 23 24  1  6
 23 22  1  0
 24 25  1  0
 25 30  2  0
 26 27  2  0
 26 25  1  0
 27 28  1  0
 28 29  2  0
 30 29  1  0
 31 33  1  0
 31 23  1  0
 32 31  2  0
M  END
$$$$
