HRF.pdb
     RDKit          3D

 33 34  0  0  1  0  0  0  0  0999 V2000
   21.4682  -16.1836  -18.2695 N   0  0  0  0  0  0  0  0  0  0  0  0
   20.9484  -15.3214  -17.2348 C   0  0  1  0  0  0  0  0  0  0  0  0
   21.3368  -15.9079  -15.8952 C   0  0  0  0  0  0  0  0  0  0  0  0
   20.6387  -17.2043  -15.7126 C   0  0  0  0  0  0  0  0  0  0  0  0
   21.1277  -18.4795  -15.9041 C   0  0  0  0  0  0  0  0  0  0  0  0
   20.1535  -19.3622  -15.6225 N   0  0  0  0  0  0  0  0  0  0  0  0
   19.0615  -18.6775  -15.2580 C   0  0  0  0  0  0  0  0  0  0  0  0
   19.3591  -17.3733  -15.3137 N   0  0  0  0  0  0  0  0  0  0  0  0
   21.4513  -13.9172  -17.3686 C   0  0  0  0  0  0  0  0  0  0  0  0
   22.6708  -13.7749  -17.5820 O   0  0  0  0  0  0  0  0  0  0  0  0
   18.5195   -7.2529  -21.7588 N   0  0  0  0  0  0  0  0  0  0  0  0
   19.2361   -8.2843  -22.4491 C   0  0  0  0  0  0  0  0  0  0  0  0
   19.5133   -8.1726  -23.6992 N   0  0  0  0  0  0  0  0  0  0  0  0
   19.6414   -9.4307  -21.7325 N   0  0  0  0  0  0  0  0  0  0  0  0
   19.4382   -9.5000  -20.3127 C   0  0  0  0  0  0  0  0  0  0  0  0
   19.9985  -10.7730  -19.7303 C   0  0  0  0  0  0  0  0  0  0  0  0
   19.7790  -10.8045  -18.2519 C   0  0  0  0  0  0  0  0  0  0  0  0
   20.8926  -11.4702  -17.5117 C   0  0  2  0  0  0  0  0  0  0  0  0
   20.5208  -12.8716  -17.2448 N   0  0  0  0  0  0  0  0  0  0  0  0
   21.1420  -10.8542  -16.1996 C   0  0  0  0  0  0  0  0  0  0  0  0
   20.2220  -10.9828  -15.3077 O   0  0  0  0  0  0  0  0  0  0  0  0
   20.0202   -8.9569  -24.1606 N   0  0  0  0  0  0  0  0  0  0  0  0
   22.3030  -10.1386  -15.8278 C   0  0  2  0  0  0  0  0  0  0  0  0
   22.3938   -9.4689  -14.5294 C   0  0  0  0  0  0  0  0  0  0  0  0
   23.5585  -10.0453  -13.7574 C   0  0  0  0  0  0  0  0  0  0  0  0
   24.6892  -10.4052  -14.6144 C   0  0  0  0  0  0  0  0  0  0  0  0
   25.4829   -9.4737  -15.2670 C   0  0  0  0  0  0  0  0  0  0  0  0
   26.5459   -9.8295  -16.0673 C   0  0  0  0  0  0  0  0  0  0  0  0
   26.8144  -11.1798  -16.2117 C   0  0  0  0  0  0  0  0  0  0  0  0
   26.0626  -12.1513  -15.5895 C   0  0  0  0  0  0  0  0  0  0  0  0
   25.0082  -11.7530  -14.7976 C   0  0  0  0  0  0  0  0  0  0  0  0
   22.4583   -8.0036  -14.6927 O   0  0  0  0  0  0  0  0  0  0  0  0
   22.6588   -7.4612  -15.8340 O   0  0  0  0  0  0  0  0  0  0  0  0
  2  1  1  6
  2  3  1  0
  3  4  1  0
  4  8  1  0
  5  6  1  0
  5  4  2  0
  6  7  1  0
  7  8  2  0
  9  2  1  0
  9 10  2  0
 11 12  1  0
 12 14  1  0
 13 12  2  0
 14 15  1  0
 16 17  1  0
 16 15  1  0
 18 19  1  0
 18 17  1  1
 19  9  1  0
 20 18  1  0
 21 20  2  0
 22 20  1  0
 23 24  1  1
 23 22  1  0
 24 25  1  0
 25 30  2  0
 26 27  2  0
 26 25  1  0
 27 28  1  0
 28 29  2  0
 30 29  1  0
 31 33  1  0
 31 23  1  0
 32 31  2  0
M  END
$$$$
