HRF.pdb
     RDKit          3D

 33 34  0  0  1  0  0  0  0  0999 V2000
   26.5547  -18.8938  -18.7892 N   0  0  0  0  0  0  0  0  0  0  0  0
   25.9687  -18.3209  -17.6006 C   0  0  1  0  0  0  0  0  0  0  0  0
   25.0429  -17.2021  -18.0255 C   0  0  0  0  0  0  0  0  0  0  0  0
   25.8538  -16.0676  -18.5322 C   0  0  0  0  0  0  0  0  0  0  0  0
   27.2257  -15.9661  -18.6294 C   0  0  0  0  0  0  0  0  0  0  0  0
   27.5342  -14.7631  -19.1445 N   0  0  0  0  0  0  0  0  0  0  0  0
   26.3923  -14.1020  -19.3752 C   0  0  0  0  0  0  0  0  0  0  0  0
   25.3789  -14.8941  -19.0038 N   0  0  0  0  0  0  0  0  0  0  0  0
   25.2340  -19.3422  -16.7884 C   0  0  0  0  0  0  0  0  0  0  0  0
   24.6250  -20.2288  -17.4178 O   0  0  0  0  0  0  0  0  0  0  0  0
   23.5859  -24.4085  -13.5854 N   0  0  0  0  0  0  0  0  0  0  0  0
   24.8312  -24.0217  -14.1800 C   0  0  0  0  0  0  0  0  0  0  0  0
   25.2647  -24.6024  -15.2415 N   0  0  0  0  0  0  0  0  0  0  0  0
   25.5789  -22.9836  -13.5838 N   0  0  0  0  0  0  0  0  0  0  0  0
   25.2690  -22.5484  -12.2510 C   0  0  0  0  0  0  0  0  0  0  0  0
   24.6026  -21.1958  -12.2464 C   0  0  0  0  0  0  0  0  0  0  0  0
   25.2826  -20.2823  -13.2149 C   0  0  0  0  0  0  0  0  0  0  0  0
   24.5504  -20.1579  -14.5108 C   0  0  2  0  0  0  0  0  0  0  0  0
   25.2838  -19.2281  -15.3888 N   0  0  0  0  0  0  0  0  0  0  0  0
   23.2043  -19.5892  -14.3429 C   0  0  0  0  0  0  0  0  0  0  0  0
   23.0950  -18.5584  -13.5788 O   0  0  0  0  0  0  0  0  0  0  0  0
   26.1467  -24.2487  -15.6681 N   0  0  0  0  0  0  0  0  0  0  0  0
   22.0209  -20.0691  -14.9493 C   0  0  2  0  0  0  0  0  0  0  0  0
   20.7305  -19.4240  -14.7016 C   0  0  0  0  0  0  0  0  0  0  0  0
   20.3350  -18.6266  -15.9232 C   0  0  0  0  0  0  0  0  0  0  0  0
   20.2466  -19.4438  -17.1344 C   0  0  0  0  0  0  0  0  0  0  0  0
   19.1730  -20.2733  -17.4223 C   0  0  0  0  0  0  0  0  0  0  0  0
   19.1041  -21.0332  -18.5689 C   0  0  0  0  0  0  0  0  0  0  0  0
   20.1628  -20.9496  -19.4567 C   0  0  0  0  0  0  0  0  0  0  0  0
   21.2559  -20.1444  -19.2263 C   0  0  0  0  0  0  0  0  0  0  0  0
   21.2855  -19.4005  -18.0674 C   0  0  0  0  0  0  0  0  0  0  0  0
   19.7163  -20.4117  -14.2849 O   0  0  0  0  0  0  0  0  0  0  0  0
   19.9664  -21.6663  -14.2640 O   0  0  0  0  0  0  0  0  0  0  0  0
  2  1  1  6
  2  3  1  0
  3  4  1  0
  4  8  1  0
  5  6  1  0
  5  4  2  0
  6  7  1  0
  7  8  2  0
  9  2  1  0
  9 10  2  0
 11 12  1  0
 12 14  1  0
 13 12  2  0
 14 15  1  0
 16 17  1  0
 16 15  1  0
 18 19  1  0
 18 17  1  1
 19  9  1  0
 20 18  1  0
 21 20  2  0
 22 20  1  0
 23 24  1  6
 23 22  1  0
 24 25  1  0
 25 30  2  0
 26 27  2  0
 26 25  1  0
 27 28  1  0
 28 29  2  0
 30 29  1  0
 31 33  1  0
 31 23  1  0
 32 31  2  0
M  END
$$$$
