HRF.pdb
     RDKit          3D

 33 34  0  0  1  0  0  0  0  0999 V2000
   21.2625  -22.1271  -21.8717 N   0  0  0  0  0  0  0  0  0  0  0  0
   20.3598  -21.1649  -21.2855 C   0  0  1  0  0  0  0  0  0  0  0  0
   19.6128  -21.8464  -20.1599 C   0  0  0  0  0  0  0  0  0  0  0  0
   19.9513  -23.2911  -20.1580 C   0  0  0  0  0  0  0  0  0  0  0  0
   19.4831  -24.2857  -20.9907 C   0  0  0  0  0  0  0  0  0  0  0  0
   20.0533  -25.4502  -20.6352 N   0  0  0  0  0  0  0  0  0  0  0  0
   20.8696  -25.2168  -19.5992 C   0  0  0  0  0  0  0  0  0  0  0  0
   20.8051  -23.9103  -19.3139 N   0  0  0  0  0  0  0  0  0  0  0  0
   21.0797  -19.9493  -20.7890 C   0  0  0  0  0  0  0  0  0  0  0  0
   22.2286  -19.7565  -21.2316 O   0  0  0  0  0  0  0  0  0  0  0  0
   19.0585  -11.9799  -18.1611 N   0  0  0  0  0  0  0  0  0  0  0  0
   20.2058  -12.7403  -17.7617 C   0  0  0  0  0  0  0  0  0  0  0  0
   20.6141  -12.7285  -16.5430 N   0  0  0  0  0  0  0  0  0  0  0  0
   20.8837  -13.5123  -18.7294 N   0  0  0  0  0  0  0  0  0  0  0  0
   20.4791  -14.8670  -18.9804 C   0  0  0  0  0  0  0  0  0  0  0  0
   21.1786  -15.4441  -20.1852 C   0  0  0  0  0  0  0  0  0  0  0  0
   20.6319  -16.7995  -20.4992 C   0  0  0  0  0  0  0  0  0  0  0  0
   20.9681  -17.8182  -19.4598 C   0  0  2  0  0  0  0  0  0  0  0  0
   20.4141  -19.1218  -19.8689 N   0  0  0  0  0  0  0  0  0  0  0  0
   20.3668  -17.5078  -18.1539 C   0  0  0  0  0  0  0  0  0  0  0  0
   19.1400  -17.1162  -18.1521 O   0  0  0  0  0  0  0  0  0  0  0  0
   21.4430  -13.3100  -16.2984 N   0  0  0  0  0  0  0  0  0  0  0  0
   21.0127  -17.6060  -16.9003 C   0  0  1  0  0  0  0  0  0  0  0  0
   20.3364  -17.1969  -15.6683 C   0  0  0  0  0  0  0  0  0  0  0  0
   20.0148  -15.7222  -15.7484 C   0  0  0  0  0  0  0  0  0  0  0  0
   18.9054  -15.3317  -14.8771 C   0  0  0  0  0  0  0  0  0  0  0  0
   19.0739  -14.8927  -13.5723 C   0  0  0  0  0  0  0  0  0  0  0  0
   18.0188  -14.5256  -12.7668 C   0  0  0  0  0  0  0  0  0  0  0  0
   16.7454  -14.6065  -13.3035 C   0  0  0  0  0  0  0  0  0  0  0  0
   16.5146  -15.0347  -14.5918 C   0  0  0  0  0  0  0  0  0  0  0  0
   17.5974  -15.3926  -15.3643 C   0  0  0  0  0  0  0  0  0  0  0  0
   19.1592  -18.0465  -15.4034 O   0  0  0  0  0  0  0  0  0  0  0  0
   18.4315  -17.8842  -14.3637 O   0  0  0  0  0  0  0  0  0  0  0  0
  2  1  1  1
  2  3  1  0
  3  4  1  0
  4  8  1  0
  5  6  1  0
  5  4  2  0
  6  7  1  0
  7  8  2  0
  9  2  1  0
  9 10  2  0
 11 12  1  0
 12 14  1  0
 13 12  2  0
 14 15  1  0
 16 17  1  0
 16 15  1  0
 18 19  1  0
 18 17  1  6
 19  9  1  0
 20 18  1  0
 21 20  2  0
 22 20  1  0
 23 24  1  1
 23 22  1  0
 24 25  1  0
 25 30  2  0
 26 27  2  0
 26 25  1  0
 27 28  1  0
 28 29  2  0
 30 29  1  0
 31 33  1  0
 31 23  1  0
 32 31  2  0
M  END
$$$$
