HRF.pdb
     RDKit          3D

 33 34  0  0  1  0  0  0  0  0999 V2000
   20.7553  -17.4186  -19.7312 N   0  0  0  0  0  0  0  0  0  0  0  0
   21.7942  -17.2110  -18.7505 C   0  0  1  0  0  0  0  0  0  0  0  0
   21.1849  -16.4953  -17.5649 C   0  0  0  0  0  0  0  0  0  0  0  0
   20.8156  -15.1160  -17.9684 C   0  0  0  0  0  0  0  0  0  0  0  0
   19.5666  -14.5319  -17.9933 C   0  0  0  0  0  0  0  0  0  0  0  0
   19.6910  -13.2651  -18.4261 N   0  0  0  0  0  0  0  0  0  0  0  0
   20.9866  -13.0338  -18.6752 C   0  0  0  0  0  0  0  0  0  0  0  0
   21.6631  -14.1552  -18.3972 N   0  0  0  0  0  0  0  0  0  0  0  0
   22.4319  -18.4981  -18.3268 C   0  0  0  0  0  0  0  0  0  0  0  0
   21.6750  -19.3772  -17.8717 O   0  0  0  0  0  0  0  0  0  0  0  0
   28.5663  -22.2804  -17.0632 N   0  0  0  0  0  0  0  0  0  0  0  0
   27.7074  -23.4061  -17.2850 C   0  0  0  0  0  0  0  0  0  0  0  0
   27.6633  -24.3785  -16.4456 N   0  0  0  0  0  0  0  0  0  0  0  0
   26.9006  -23.4314  -18.4428 N   0  0  0  0  0  0  0  0  0  0  0  0
   26.6729  -22.2245  -19.1868 C   0  0  0  0  0  0  0  0  0  0  0  0
   26.7281  -21.0047  -18.3020 C   0  0  0  0  0  0  0  0  0  0  0  0
   25.8132  -19.9451  -18.8264 C   0  0  0  0  0  0  0  0  0  0  0  0
   24.5415  -19.8373  -18.0503 C   0  0  2  0  0  0  0  0  0  0  0  0
   23.8242  -18.6201  -18.4716 N   0  0  0  0  0  0  0  0  0  0  0  0
   24.7758  -19.6966  -16.6051 C   0  0  0  0  0  0  0  0  0  0  0  0
   25.0695  -18.5203  -16.1710 O   0  0  0  0  0  0  0  0  0  0  0  0
   27.0216  -25.1732  -16.6498 N   0  0  0  0  0  0  0  0  0  0  0  0
   24.7021  -20.7354  -15.6491 C   0  0  2  0  0  0  0  0  0  0  0  0
   25.0485  -20.4972  -14.2470 C   0  0  0  0  0  0  0  0  0  0  0  0
   24.1977  -21.3874  -13.3706 C   0  0  0  0  0  0  0  0  0  0  0  0
   24.5485  -21.2958  -11.9525 C   0  0  0  0  0  0  0  0  0  0  0  0
   23.7421  -20.6885  -11.0014 C   0  0  0  0  0  0  0  0  0  0  0  0
   24.0858  -20.6141   -9.6698 C   0  0  0  0  0  0  0  0  0  0  0  0
   25.2919  -21.1759   -9.2878 C   0  0  0  0  0  0  0  0  0  0  0  0
   26.1350  -21.7921  -10.1854 C   0  0  0  0  0  0  0  0  0  0  0  0
   25.7537  -21.8451  -11.5079 C   0  0  0  0  0  0  0  0  0  0  0  0
   26.4985  -20.6586  -14.0251 O   0  0  0  0  0  0  0  0  0  0  0  0
   27.1563  -19.8653  -13.2669 O   0  0  0  0  0  0  0  0  0  0  0  0
  2  1  1  6
  2  3  1  0
  3  4  1  0
  4  8  1  0
  5  6  1  0
  5  4  2  0
  6  7  1  0
  7  8  2  0
  9  2  1  0
  9 10  2  0
 11 12  1  0
 12 14  1  0
 13 12  2  0
 14 15  1  0
 16 17  1  0
 16 15  1  0
 18 19  1  0
 18 17  1  6
 19  9  1  0
 20 18  1  0
 21 20  2  0
 22 20  1  0
 23 24  1  1
 23 22  1  0
 24 25  1  0
 25 30  2  0
 26 27  2  0
 26 25  1  0
 27 28  1  0
 28 29  2  0
 30 29  1  0
 31 33  1  0
 31 23  1  0
 32 31  2  0
M  END
$$$$
