HRF.pdb
     RDKit          3D

 33 34  0  0  1  0  0  0  0  0999 V2000
   27.1006  -19.0295  -17.2165 N   0  0  0  0  0  0  0  0  0  0  0  0
   27.4938  -18.9756  -15.8284 C   0  0  1  0  0  0  0  0  0  0  0  0
   28.1112  -17.6191  -15.5673 C   0  0  0  0  0  0  0  0  0  0  0  0
   29.2123  -17.3929  -16.5358 C   0  0  0  0  0  0  0  0  0  0  0  0
   29.5044  -16.2536  -17.2559 C   0  0  0  0  0  0  0  0  0  0  0  0
   30.5896  -16.4886  -18.0141 N   0  0  0  0  0  0  0  0  0  0  0  0
   30.9905  -17.7471  -17.7915 C   0  0  0  0  0  0  0  0  0  0  0  0
   30.1553  -18.2903  -16.8971 N   0  0  0  0  0  0  0  0  0  0  0  0
   26.3390  -19.2224  -14.9075 C   0  0  0  0  0  0  0  0  0  0  0  0
   25.4431  -18.3566  -14.8849 O   0  0  0  0  0  0  0  0  0  0  0  0
   25.4243  -24.1320  -17.1783 N   0  0  0  0  0  0  0  0  0  0  0  0
   24.9315  -24.7246  -15.9700 C   0  0  0  0  0  0  0  0  0  0  0  0
   25.4490  -25.8058  -15.5060 N   0  0  0  0  0  0  0  0  0  0  0  0
   23.8662  -24.0986  -15.2879 N   0  0  0  0  0  0  0  0  0  0  0  0
   23.3121  -22.8730  -15.7907 C   0  0  0  0  0  0  0  0  0  0  0  0
   24.0450  -21.6685  -15.2561 C   0  0  0  0  0  0  0  0  0  0  0  0
   24.4907  -21.9174  -13.8511 C   0  0  0  0  0  0  0  0  0  0  0  0
   25.2246  -20.7590  -13.2590 C   0  0  2  0  0  0  0  0  0  0  0  0
   26.3491  -20.4012  -14.1428 N   0  0  0  0  0  0  0  0  0  0  0  0
   25.8159  -21.0782  -11.9506 C   0  0  0  0  0  0  0  0  0  0  0  0
   27.0676  -21.3803  -11.9314 O   0  0  0  0  0  0  0  0  0  0  0  0
   25.0308  -26.2194  -14.6463 N   0  0  0  0  0  0  0  0  0  0  0  0
   25.1350  -21.0777  -10.7117 C   0  0  1  0  0  0  0  0  0  0  0  0
   25.8682  -21.1533   -9.4471 C   0  0  0  0  0  0  0  0  0  0  0  0
   26.9446  -20.0923   -9.4368 C   0  0  0  0  0  0  0  0  0  0  0  0
   27.6687  -20.0261   -8.1665 C   0  0  0  0  0  0  0  0  0  0  0  0
   28.7371  -20.8518   -7.8496 C   0  0  0  0  0  0  0  0  0  0  0  0
   29.4099  -20.7738   -6.6504 C   0  0  0  0  0  0  0  0  0  0  0  0
   28.9842  -19.8236   -5.7382 C   0  0  0  0  0  0  0  0  0  0  0  0
   27.9301  -18.9756   -5.9953 C   0  0  0  0  0  0  0  0  0  0  0  0
   27.2841  -19.0864   -7.2068 C   0  0  0  0  0  0  0  0  0  0  0  0
   24.9480  -21.0750   -8.2961 O   0  0  0  0  0  0  0  0  0  0  0  0
   23.9263  -20.3050   -8.3016 O   0  0  0  0  0  0  0  0  0  0  0  0
  2  1  1  6
  2  3  1  0
  3  4  1  0
  4  8  1  0
  5  6  1  0
  5  4  2  0
  6  7  1  0
  7  8  2  0
  9  2  1  0
  9 10  2  0
 11 12  1  0
 12 14  1  0
 13 12  2  0
 14 15  1  0
 16 17  1  0
 16 15  1  0
 18 19  1  0
 18 17  1  6
 19  9  1  0
 20 18  1  0
 21 20  2  0
 22 20  1  0
 23 24  1  1
 23 22  1  0
 24 25  1  0
 25 30  2  0
 26 27  2  0
 26 25  1  0
 27 28  1  0
 28 29  2  0
 30 29  1  0
 31 33  1  0
 31 23  1  0
 32 31  2  0
M  END
$$$$
