HRF.pdb
     RDKit          3D

 33 34  0  0  1  0  0  0  0  0999 V2000
   26.1771  -15.6074  -19.3292 N   0  0  0  0  0  0  0  0  0  0  0  0
   25.6649  -16.1584  -18.0970 C   0  0  1  0  0  0  0  0  0  0  0  0
   25.1181  -15.0194  -17.2645 C   0  0  0  0  0  0  0  0  0  0  0  0
   26.2431  -14.1602  -16.8198 C   0  0  0  0  0  0  0  0  0  0  0  0
   26.8914  -14.1528  -15.6027 C   0  0  0  0  0  0  0  0  0  0  0  0
   27.8516  -13.2122  -15.6307 N   0  0  0  0  0  0  0  0  0  0  0  0
   27.8265  -12.6250  -16.8343 C   0  0  0  0  0  0  0  0  0  0  0  0
   26.8528  -13.2010  -17.5502 N   0  0  0  0  0  0  0  0  0  0  0  0
   24.6118  -17.1950  -18.3403 C   0  0  0  0  0  0  0  0  0  0  0  0
   23.6457  -16.8585  -19.0517 O   0  0  0  0  0  0  0  0  0  0  0  0
   28.4378  -21.2440  -18.4902 N   0  0  0  0  0  0  0  0  0  0  0  0
   27.9005  -21.9976  -17.3959 C   0  0  0  0  0  0  0  0  0  0  0  0
   28.5355  -22.0884  -16.2820 N   0  0  0  0  0  0  0  0  0  0  0  0
   26.6536  -22.6391  -17.5558 N   0  0  0  0  0  0  0  0  0  0  0  0
   25.9475  -22.5373  -18.8020 C   0  0  0  0  0  0  0  0  0  0  0  0
   25.3128  -21.1805  -18.9746 C   0  0  0  0  0  0  0  0  0  0  0  0
   24.4629  -20.8538  -17.7889 C   0  0  0  0  0  0  0  0  0  0  0  0
   23.7837  -19.5287  -17.9065 C   0  0  2  0  0  0  0  0  0  0  0  0
   24.7876  -18.4599  -17.7542 N   0  0  0  0  0  0  0  0  0  0  0  0
   22.7883  -19.3117  -16.8455 C   0  0  0  0  0  0  0  0  0  0  0  0
   23.2363  -19.0632  -15.6640 O   0  0  0  0  0  0  0  0  0  0  0  0
   28.1458  -22.7135  -15.5455 N   0  0  0  0  0  0  0  0  0  0  0  0
   21.3844  -19.3459  -17.0074 C   0  0  1  0  0  0  0  0  0  0  0  0
   20.4878  -19.1218  -15.8723 C   0  0  0  0  0  0  0  0  0  0  0  0
   19.7897  -17.7931  -16.0499 C   0  0  0  0  0  0  0  0  0  0  0  0
   18.9178  -17.7588  -17.2251 C   0  0  0  0  0  0  0  0  0  0  0  0
   17.5802  -18.1242  -17.1976 C   0  0  0  0  0  0  0  0  0  0  0  0
   16.7726  -18.0826  -18.3125 C   0  0  0  0  0  0  0  0  0  0  0  0
   17.3419  -17.6550  -19.4996 C   0  0  0  0  0  0  0  0  0  0  0  0
   18.6637  -17.2794  -19.5897 C   0  0  0  0  0  0  0  0  0  0  0  0
   19.4369  -17.3355  -18.4512 C   0  0  0  0  0  0  0  0  0  0  0  0
   19.5629  -20.2582  -15.6959 O   0  0  0  0  0  0  0  0  0  0  0  0
   19.4746  -21.1957  -16.5621 O   0  0  0  0  0  0  0  0  0  0  0  0
  2  1  1  6
  2  3  1  0
  3  4  1  0
  4  8  1  0
  5  6  1  0
  5  4  2  0
  6  7  1  0
  7  8  2  0
  9  2  1  0
  9 10  2  0
 11 12  1  0
 12 14  1  0
 13 12  2  0
 14 15  1  0
 16 17  1  0
 16 15  1  0
 18 19  1  0
 18 17  1  1
 19  9  1  0
 20 18  1  0
 21 20  2  0
 22 20  1  0
 23 24  1  1
 23 22  1  0
 24 25  1  0
 25 30  2  0
 26 27  2  0
 26 25  1  0
 27 28  1  0
 28 29  2  0
 30 29  1  0
 31 33  1  0
 31 23  1  0
 32 31  2  0
M  END
$$$$
