HRF.pdb
     RDKit          3D

 33 34  0  0  1  0  0  0  0  0999 V2000
   24.4945  -23.9302  -17.5653 N   0  0  0  0  0  0  0  0  0  0  0  0
   24.2789  -24.3460  -16.1998 C   0  0  1  0  0  0  0  0  0  0  0  0
   25.4964  -23.9542  -15.3915 C   0  0  0  0  0  0  0  0  0  0  0  0
   26.6871  -24.6485  -15.9406 C   0  0  0  0  0  0  0  0  0  0  0  0
   26.9369  -26.0029  -16.0118 C   0  0  0  0  0  0  0  0  0  0  0  0
   28.1387  -26.1908  -16.5845 N   0  0  0  0  0  0  0  0  0  0  0  0
   28.6547  -24.9898  -16.8769 C   0  0  0  0  0  0  0  0  0  0  0  0
   27.7740  -24.0602  -16.4861 N   0  0  0  0  0  0  0  0  0  0  0  0
   23.0365  -23.7444  -15.6190 C   0  0  0  0  0  0  0  0  0  0  0  0
   22.8027  -22.5538  -15.9032 O   0  0  0  0  0  0  0  0  0  0  0  0
   16.9041  -28.3356  -11.3982 N   0  0  0  0  0  0  0  0  0  0  0  0
   17.8959  -27.5229  -10.7580 C   0  0  0  0  0  0  0  0  0  0  0  0
   18.2291  -27.7295   -9.5339 N   0  0  0  0  0  0  0  0  0  0  0  0
   18.5107  -26.4886  -11.4956 N   0  0  0  0  0  0  0  0  0  0  0  0
   18.0900  -26.2174  -12.8414 C   0  0  0  0  0  0  0  0  0  0  0  0
   18.7622  -24.9882  -13.3992 C   0  0  0  0  0  0  0  0  0  0  0  0
   20.1772  -25.2970  -13.7695 C   0  0  0  0  0  0  0  0  0  0  0  0
   20.8920  -24.1281  -14.3644 C   0  0  2  0  0  0  0  0  0  0  0  0
   22.2321  -24.5581  -14.8033 N   0  0  0  0  0  0  0  0  0  0  0  0
   21.1058  -23.0461  -13.3913 C   0  0  0  0  0  0  0  0  0  0  0  0
   21.6331  -23.3696  -12.2619 O   0  0  0  0  0  0  0  0  0  0  0  0
   18.9695  -27.1255   -9.1191 N   0  0  0  0  0  0  0  0  0  0  0  0
   20.7896  -21.6821  -13.5866 C   0  0  1  0  0  0  0  0  0  0  0  0
   20.8195  -20.7331  -12.4726 C   0  0  0  0  0  0  0  0  0  0  0  0
   22.0961  -19.9273  -12.5450 C   0  0  0  0  0  0  0  0  0  0  0  0
   23.2358  -20.6065  -11.9268 C   0  0  0  0  0  0  0  0  0  0  0  0
   24.1879  -21.3141  -12.6454 C   0  0  0  0  0  0  0  0  0  0  0  0
   25.2567  -21.9448  -12.0480 C   0  0  0  0  0  0  0  0  0  0  0  0
   25.3645  -21.8552  -10.6709 C   0  0  0  0  0  0  0  0  0  0  0  0
   24.4512  -21.1673   -9.9034 C   0  0  0  0  0  0  0  0  0  0  0  0
   23.3969  -20.5506  -10.5401 C   0  0  0  0  0  0  0  0  0  0  0  0
   19.5974  -19.9062  -12.4487 O   0  0  0  0  0  0  0  0  0  0  0  0
   19.3951  -19.0292  -11.5394 O   0  0  0  0  0  0  0  0  0  0  0  0
  2  1  1  6
  2  3  1  0
  3  4  1  0
  4  8  1  0
  5  6  1  0
  5  4  2  0
  6  7  1  0
  7  8  2  0
  9  2  1  0
  9 10  2  0
 11 12  1  0
 12 14  1  0
 13 12  2  0
 14 15  1  0
 16 17  1  0
 16 15  1  0
 18 19  1  0
 18 17  1  1
 19  9  1  0
 20 18  1  0
 21 20  2  0
 22 20  1  0
 23 24  1  1
 23 22  1  0
 24 25  1  0
 25 30  2  0
 26 27  2  0
 26 25  1  0
 27 28  1  0
 28 29  2  0
 30 29  1  0
 31 33  1  0
 31 23  1  0
 32 31  2  0
M  END
$$$$
