HRF.pdb
     RDKit          3D

 33 34  0  0  1  0  0  0  0  0999 V2000
   20.6083   -7.4170  -17.9731 N   0  0  0  0  0  0  0  0  0  0  0  0
   21.4535   -8.3518  -17.2688 C   0  0  1  0  0  0  0  0  0  0  0  0
   21.0258   -8.3706  -15.8175 C   0  0  0  0  0  0  0  0  0  0  0  0
   21.3053   -7.0450  -15.2123 C   0  0  0  0  0  0  0  0  0  0  0  0
   20.4105   -6.1149  -14.7265 C   0  0  0  0  0  0  0  0  0  0  0  0
   21.0971   -5.0537  -14.2681 N   0  0  0  0  0  0  0  0  0  0  0  0
   22.4027   -5.2895  -14.4519 C   0  0  0  0  0  0  0  0  0  0  0  0
   22.5243   -6.4944  -15.0229 N   0  0  0  0  0  0  0  0  0  0  0  0
   21.3884   -9.7252  -17.8621 C   0  0  0  0  0  0  0  0  0  0  0  0
   20.2590  -10.1503  -18.1728 O   0  0  0  0  0  0  0  0  0  0  0  0
   25.7664  -16.1617  -18.3910 N   0  0  0  0  0  0  0  0  0  0  0  0
   25.7087  -16.2249  -19.8216 C   0  0  0  0  0  0  0  0  0  0  0  0
   25.5931  -17.3519  -20.4286 N   0  0  0  0  0  0  0  0  0  0  0  0
   25.7757  -15.0246  -20.5611 N   0  0  0  0  0  0  0  0  0  0  0  0
   25.6195  -13.7613  -19.8966 C   0  0  0  0  0  0  0  0  0  0  0  0
   24.1821  -13.5018  -19.5220 C   0  0  0  0  0  0  0  0  0  0  0  0
   24.0460  -12.1465  -18.9060 C   0  0  0  0  0  0  0  0  0  0  0  0
   22.6279  -11.7791  -18.6141 C   0  0  2  0  0  0  0  0  0  0  0  0
   22.5941  -10.4285  -18.0240 N   0  0  0  0  0  0  0  0  0  0  0  0
   22.0077  -12.6749  -17.6260 C   0  0  0  0  0  0  0  0  0  0  0  0
   22.4455  -12.6062  -16.4169 O   0  0  0  0  0  0  0  0  0  0  0  0
   25.6495  -17.3562  -21.4688 N   0  0  0  0  0  0  0  0  0  0  0  0
   20.9705  -13.6003  -17.8832 C   0  0  2  0  0  0  0  0  0  0  0  0
   20.4794  -14.4949  -16.8339 C   0  0  0  0  0  0  0  0  0  0  0  0
   19.3839  -13.7955  -16.0623 C   0  0  0  0  0  0  0  0  0  0  0  0
   18.1711  -13.5869  -16.8549 C   0  0  0  0  0  0  0  0  0  0  0  0
   17.2715  -14.5977  -17.1591 C   0  0  0  0  0  0  0  0  0  0  0  0
   16.1327  -14.3834  -17.9036 C   0  0  0  0  0  0  0  0  0  0  0  0
   15.8970  -13.0969  -18.3568 C   0  0  0  0  0  0  0  0  0  0  0  0
   16.7528  -12.0523  -18.0873 C   0  0  0  0  0  0  0  0  0  0  0  0
   17.8805  -12.3091  -17.3393 C   0  0  0  0  0  0  0  0  0  0  0  0
   20.0698  -15.7963  -17.3964 O   0  0  0  0  0  0  0  0  0  0  0  0
   19.5837  -16.7245  -16.6623 O   0  0  0  0  0  0  0  0  0  0  0  0
  2  1  1  6
  2  3  1  0
  3  4  1  0
  4  8  1  0
  5  6  1  0
  5  4  2  0
  6  7  1  0
  7  8  2  0
  9  2  1  0
  9 10  2  0
 11 12  1  0
 12 14  1  0
 13 12  2  0
 14 15  1  0
 16 17  1  0
 16 15  1  0
 18 19  1  0
 18 17  1  1
 19  9  1  0
 20 18  1  0
 21 20  2  0
 22 20  1  0
 23 24  1  6
 23 22  1  0
 24 25  1  0
 25 30  2  0
 26 27  2  0
 26 25  1  0
 27 28  1  0
 28 29  2  0
 30 29  1  0
 31 33  1  0
 31 23  1  0
 32 31  2  0
M  END
$$$$
