HRF.pdb
     RDKit          3D

 33 34  0  0  1  0  0  0  0  0999 V2000
   19.2685  -20.1412  -14.5191 N   0  0  0  0  0  0  0  0  0  0  0  0
   20.4766  -19.4500  -14.1358 C   0  0  1  0  0  0  0  0  0  0  0  0
   20.2016  -18.7008  -12.8503 C   0  0  0  0  0  0  0  0  0  0  0  0
   19.0890  -17.7451  -13.0745 C   0  0  0  0  0  0  0  0  0  0  0  0
   17.8144  -17.7695  -12.5485 C   0  0  0  0  0  0  0  0  0  0  0  0
   17.1332  -16.7097  -13.0180 N   0  0  0  0  0  0  0  0  0  0  0  0
   17.9448  -16.0163  -13.8271 C   0  0  0  0  0  0  0  0  0  0  0  0
   19.1262  -16.6455  -13.8585 N   0  0  0  0  0  0  0  0  0  0  0  0
   21.6320  -20.3881  -13.9700 C   0  0  0  0  0  0  0  0  0  0  0  0
   21.5236  -21.2630  -13.0892 O   0  0  0  0  0  0  0  0  0  0  0  0
   28.9989  -21.1801  -15.5129 N   0  0  0  0  0  0  0  0  0  0  0  0
   28.9740  -22.3243  -16.3756 C   0  0  0  0  0  0  0  0  0  0  0  0
   29.9156  -23.1986  -16.3402 N   0  0  0  0  0  0  0  0  0  0  0  0
   27.8919  -22.4831  -17.2677 N   0  0  0  0  0  0  0  0  0  0  0  0
   26.7665  -21.5940  -17.1982 C   0  0  0  0  0  0  0  0  0  0  0  0
   26.0021  -21.7612  -15.9092 C   0  0  0  0  0  0  0  0  0  0  0  0
   24.7360  -20.9676  -15.9534 C   0  0  0  0  0  0  0  0  0  0  0  0
   23.9435  -21.0644  -14.6911 C   0  0  2  0  0  0  0  0  0  0  0  0
   22.7440  -20.2158  -14.8114 N   0  0  0  0  0  0  0  0  0  0  0  0
   24.6847  -20.5649  -13.5229 C   0  0  0  0  0  0  0  0  0  0  0  0
   24.7237  -19.2886  -13.3558 O   0  0  0  0  0  0  0  0  0  0  0  0
   29.9107  -23.9532  -17.0582 N   0  0  0  0  0  0  0  0  0  0  0  0
   25.3534  -21.3601  -12.5643 C   0  0  2  0  0  0  0  0  0  0  0  0
   26.2170  -20.7534  -11.5501 C   0  0  0  0  0  0  0  0  0  0  0  0
   26.3744  -21.7166  -10.3959 C   0  0  0  0  0  0  0  0  0  0  0  0
   27.2206  -21.1898   -9.3241 C   0  0  0  0  0  0  0  0  0  0  0  0
   28.6022  -21.3114   -9.3089 C   0  0  0  0  0  0  0  0  0  0  0  0
   29.3841  -20.8065   -8.2937 C   0  0  0  0  0  0  0  0  0  0  0  0
   28.7421  -20.1543   -7.2552 C   0  0  0  0  0  0  0  0  0  0  0  0
   27.3742  -20.0021   -7.2143 C   0  0  0  0  0  0  0  0  0  0  0  0
   26.6286  -20.5217   -8.2494 C   0  0  0  0  0  0  0  0  0  0  0  0
   27.4989  -20.3184  -12.1378 O   0  0  0  0  0  0  0  0  0  0  0  0
   28.1673  -21.0704  -12.9281 O   0  0  0  0  0  0  0  0  0  0  0  0
  2  1  1  1
  2  3  1  0
  3  4  1  0
  4  8  1  0
  5  6  1  0
  5  4  2  0
  6  7  1  0
  7  8  2  0
  9  2  1  0
  9 10  2  0
 11 12  1  0
 12 14  1  0
 13 12  2  0
 14 15  1  0
 16 17  1  0
 16 15  1  0
 18 19  1  0
 18 17  1  6
 19  9  1  0
 20 18  1  0
 21 20  2  0
 22 20  1  0
 23 24  1  1
 23 22  1  0
 24 25  1  0
 25 30  2  0
 26 27  2  0
 26 25  1  0
 27 28  1  0
 28 29  2  0
 30 29  1  0
 31 33  1  0
 31 23  1  0
 32 31  2  0
M  END
$$$$
