HRF.pdb
     RDKit          3D

 33 34  0  0  1  0  0  0  0  0999 V2000
   29.2204  -21.6963  -18.6136 N   0  0  0  0  0  0  0  0  0  0  0  0
   28.2165  -22.2482  -17.7351 C   0  0  1  0  0  0  0  0  0  0  0  0
   28.9090  -22.7502  -16.4870 C   0  0  0  0  0  0  0  0  0  0  0  0
   29.7476  -23.9234  -16.8363 C   0  0  0  0  0  0  0  0  0  0  0  0
   29.8938  -24.5432  -18.0595 C   0  0  0  0  0  0  0  0  0  0  0  0
   30.7526  -25.5687  -17.9240 N   0  0  0  0  0  0  0  0  0  0  0  0
   31.1528  -25.6127  -16.6464 C   0  0  0  0  0  0  0  0  0  0  0  0
   30.5430  -24.6164  -15.9923 N   0  0  0  0  0  0  0  0  0  0  0  0
   27.1582  -21.2458  -17.3917 C   0  0  0  0  0  0  0  0  0  0  0  0
   27.5095  -20.0511  -17.3455 O   0  0  0  0  0  0  0  0  0  0  0  0
   20.3972  -24.2870  -16.2047 N   0  0  0  0  0  0  0  0  0  0  0  0
   21.3700  -25.1181  -16.8504 C   0  0  0  0  0  0  0  0  0  0  0  0
   21.1166  -26.3509  -17.1110 N   0  0  0  0  0  0  0  0  0  0  0  0
   22.6173  -24.5603  -17.2042 N   0  0  0  0  0  0  0  0  0  0  0  0
   22.8913  -23.1783  -16.9268 C   0  0  0  0  0  0  0  0  0  0  0  0
   23.4185  -22.4590  -18.1427 C   0  0  0  0  0  0  0  0  0  0  0  0
   23.6495  -21.0158  -17.8287 C   0  0  0  0  0  0  0  0  0  0  0  0
   24.7463  -20.8038  -16.8371 C   0  0  2  0  0  0  0  0  0  0  0  0
   25.8582  -21.7204  -17.1485 N   0  0  0  0  0  0  0  0  0  0  0  0
   24.3285  -21.1169  -15.4620 C   0  0  0  0  0  0  0  0  0  0  0  0
   24.5829  -22.3023  -15.0281 O   0  0  0  0  0  0  0  0  0  0  0  0
   21.8710  -26.9256  -17.5420 N   0  0  0  0  0  0  0  0  0  0  0  0
   23.6778  -20.2318  -14.5723 C   0  0  2  0  0  0  0  0  0  0  0  0
   23.2880  -20.6629  -13.2289 C   0  0  0  0  0  0  0  0  0  0  0  0
   24.0367  -19.8363  -12.2088 C   0  0  0  0  0  0  0  0  0  0  0  0
   23.6624  -20.1549  -10.8301 C   0  0  0  0  0  0  0  0  0  0  0  0
   24.4814  -20.8538   -9.9558 C   0  0  0  0  0  0  0  0  0  0  0  0
   24.1150  -21.1423   -8.6599 C   0  0  0  0  0  0  0  0  0  0  0  0
   22.8722  -20.7064   -8.2341 C   0  0  0  0  0  0  0  0  0  0  0  0
   22.0149  -20.0084   -9.0552 C   0  0  0  0  0  0  0  0  0  0  0  0
   22.4198  -19.7404  -10.3442 C   0  0  0  0  0  0  0  0  0  0  0  0
   21.8220  -20.6217  -13.0643 O   0  0  0  0  0  0  0  0  0  0  0  0
   21.1075  -19.7145  -13.6150 O   0  0  0  0  0  0  0  0  0  0  0  0
  2  1  1  6
  2  3  1  0
  3  4  1  0
  4  8  1  0
  5  6  1  0
  5  4  2  0
  6  7  1  0
  7  8  2  0
  9  2  1  0
  9 10  2  0
 11 12  1  0
 12 14  1  0
 13 12  2  0
 14 15  1  0
 16 17  1  0
 16 15  1  0
 18 19  1  0
 18 17  1  6
 19  9  1  0
 20 18  1  0
 21 20  2  0
 22 20  1  0
 23 24  1  6
 23 22  1  0
 24 25  1  0
 25 30  2  0
 26 27  2  0
 26 25  1  0
 27 28  1  0
 28 29  2  0
 30 29  1  0
 31 33  1  0
 31 23  1  0
 32 31  2  0
M  END
$$$$
