VWF.pdb
     RDKit          3D

 33 35  0  0  1  0  0  0  0  0999 V2000
    7.3010  -13.1927   20.3181 C   0  0  0  0  0  0  0  0  0  0  0  0
    8.3814  -13.6560   19.3635 C   0  0  2  0  0  0  0  0  0  0  0  0
    7.8810  -13.6700   17.9572 C   0  0  0  0  0  0  0  0  0  0  0  0
    8.8373  -15.0280   19.8276 C   0  0  2  0  0  0  0  0  0  0  0  0
    7.8656  -16.0547   19.6078 N   0  0  0  0  0  0  0  0  0  0  0  0
    9.2600  -15.0270   21.2348 C   0  0  0  0  0  0  0  0  0  0  0  0
   10.1436  -14.2470   21.6227 O   0  0  0  0  0  0  0  0  0  0  0  0
    8.6264  -15.9499   22.1396 N   0  0  0  0  0  0  0  0  0  0  0  0
    8.9078  -15.8895   23.5479 C   0  0  1  0  0  0  0  0  0  0  0  0
    7.8734  -16.4579   24.4399 C   0  0  0  0  0  0  0  0  0  0  0  0
    6.8823  -15.5287   24.9864 C   0  0  0  0  0  0  0  0  0  0  0  0
    5.6754  -15.7307   25.6124 C   0  0  0  0  0  0  0  0  0  0  0  0
    5.1332  -14.5209   25.9433 N   0  0  0  0  0  0  0  0  0  0  0  0
    5.9760  -13.5556   25.5379 C   0  0  0  0  0  0  0  0  0  0  0  0
    5.8827  -12.1779   25.6415 C   0  0  0  0  0  0  0  0  0  0  0  0
    6.9045  -11.4218   25.1353 C   0  0  0  0  0  0  0  0  0  0  0  0
    8.0127  -11.9667   24.5325 C   0  0  0  0  0  0  0  0  0  0  0  0
    8.0715  -13.3404   24.4473 C   0  0  0  0  0  0  0  0  0  0  0  0
    7.0669  -14.1444   24.9426 C   0  0  0  0  0  0  0  0  0  0  0  0
   10.2646  -16.4852   23.8262 C   0  0  0  0  0  0  0  0  0  0  0  0
   10.6402  -17.4300   23.1332 O   0  0  0  0  0  0  0  0  0  0  0  0
   11.0666  -15.9546   24.8661 N   0  0  0  0  0  0  0  0  0  0  0  0
   12.3363  -16.5095   25.2923 C   0  0  1  0  0  0  0  0  0  0  0  0
   12.9167  -15.5929   26.3141 C   0  0  0  0  0  0  0  0  0  0  0  0
   11.9704  -15.3949   27.4322 C   0  0  0  0  0  0  0  0  0  0  0  0
   11.0644  -14.3483   27.4957 C   0  0  0  0  0  0  0  0  0  0  0  0
   10.2059  -14.2010   28.5634 C   0  0  0  0  0  0  0  0  0  0  0  0
   10.2439  -15.1190   29.6036 C   0  0  0  0  0  0  0  0  0  0  0  0
   11.1304  -16.1752   29.5791 C   0  0  0  0  0  0  0  0  0  0  0  0
   11.9666  -16.2833   28.4972 C   0  0  0  0  0  0  0  0  0  0  0  0
   12.2188  -17.9205   25.6948 C   0  0  0  0  0  0  0  0  0  0  0  0
   13.2180  -18.6277   25.9822 O   0  0  0  0  0  0  0  0  0  0  0  0
   10.9902  -18.5584   25.7837 O   0  0  0  0  0  0  0  0  0  0  0  0
  2  1  1  1
  2  3  1  0
  4  2  1  0
  4  5  1  1
  6  7  2  0
  6  4  1  0
  8  6  1  0
  9  8  1  0
 10 11  1  0
  9 10  1  1
 11 19  1  0
 12 13  1  0
 12 11  2  0
 13 14  1  0
 14 19  2  0
 14 15  1  0
 15 16  2  0
 16 17  1  0
 18 17  2  0
 19 18  1  0
 20 22  1  0
 20  9  1  0
 21 20  2  0
 23 22  1  0
 23 31  1  0
 24 25  1  0
 23 24  1  1
 25 30  1  0
 26 25  2  0
 26 27  1  0
 27 28  2  0
 28 29  1  0
 30 29  2  0
 31 33  1  0
 32 31  2  0
M  END
$$$$
