VWF.pdb
     RDKit          3D

 33 35  0  0  1  0  0  0  0  0999 V2000
    9.0159  -18.3142   17.6485 C   0  0  0  0  0  0  0  0  0  0  0  0
    9.4692  -17.6879   18.9505 C   0  0  2  0  0  0  0  0  0  0  0  0
   10.3852  -18.6033   19.6929 C   0  0  0  0  0  0  0  0  0  0  0  0
    8.2221  -17.3483   19.7475 C   0  0  2  0  0  0  0  0  0  0  0  0
    7.2530  -16.6080   18.9995 N   0  0  0  0  0  0  0  0  0  0  0  0
    8.5363  -16.6461   20.9994 C   0  0  0  0  0  0  0  0  0  0  0  0
    9.0602  -15.5217   20.9722 O   0  0  0  0  0  0  0  0  0  0  0  0
    8.2232  -17.2960   22.2449 N   0  0  0  0  0  0  0  0  0  0  0  0
    8.6005  -16.6886   23.4918 C   0  0  1  0  0  0  0  0  0  0  0  0
    7.6956  -16.9403   24.6349 C   0  0  0  0  0  0  0  0  0  0  0  0
    6.7048  -15.9062   24.9395 C   0  0  0  0  0  0  0  0  0  0  0  0
    5.3599  -15.9703   25.2166 C   0  0  0  0  0  0  0  0  0  0  0  0
    4.8875  -14.7084   25.4433 N   0  0  0  0  0  0  0  0  0  0  0  0
    5.9100  -13.8455   25.3151 C   0  0  0  0  0  0  0  0  0  0  0  0
    5.9466  -12.4677   25.4480 C   0  0  0  0  0  0  0  0  0  0  0  0
    7.1440  -11.8327   25.2610 C   0  0  0  0  0  0  0  0  0  0  0  0
    8.3049  -12.4987   24.9490 C   0  0  0  0  0  0  0  0  0  0  0  0
    8.2308  -13.8686   24.8248 C   0  0  0  0  0  0  0  0  0  0  0  0
    7.0474  -14.5531   25.0038 C   0  0  0  0  0  0  0  0  0  0  0  0
   10.0261  -17.0475   23.8269 C   0  0  0  0  0  0  0  0  0  0  0  0
   10.4733  -18.1141   23.4066 O   0  0  0  0  0  0  0  0  0  0  0  0
   10.8094  -16.1640   24.6092 N   0  0  0  0  0  0  0  0  0  0  0  0
   12.1521  -16.4473   25.0766 C   0  0  1  0  0  0  0  0  0  0  0  0
   12.6499  -15.2416   25.7975 C   0  0  0  0  0  0  0  0  0  0  0  0
   11.8300  -14.9790   26.9989 C   0  0  0  0  0  0  0  0  0  0  0  0
   10.8323  -14.0187   27.0534 C   0  0  0  0  0  0  0  0  0  0  0  0
   10.0984  -13.8051   28.1998 C   0  0  0  0  0  0  0  0  0  0  0  0
   10.3591  -14.5660   29.3308 C   0  0  0  0  0  0  0  0  0  0  0  0
   11.3432  -15.5321   29.3185 C   0  0  0  0  0  0  0  0  0  0  0  0
   12.0493  -15.7110   28.1563 C   0  0  0  0  0  0  0  0  0  0  0  0
   12.2245  -17.7127   25.8250 C   0  0  0  0  0  0  0  0  0  0  0  0
   13.3162  -18.2503   26.1414 O   0  0  0  0  0  0  0  0  0  0  0  0
   11.0847  -18.3917   26.2304 O   0  0  0  0  0  0  0  0  0  0  0  0
  2  1  1  6
  2  3  1  0
  4  2  1  0
  4  5  1  6
  6  7  2  0
  6  4  1  0
  8  6  1  0
  9  8  1  0
 10 11  1  0
  9 10  1  1
 11 19  1  0
 12 13  1  0
 12 11  2  0
 13 14  1  0
 14 19  2  0
 14 15  1  0
 15 16  2  0
 16 17  1  0
 18 17  2  0
 19 18  1  0
 20 22  1  0
 20  9  1  0
 21 20  2  0
 23 22  1  0
 23 31  1  0
 24 25  1  0
 23 24  1  1
 25 30  1  0
 26 25  2  0
 26 27  1  0
 27 28  2  0
 28 29  1  0
 30 29  2  0
 31 33  1  0
 32 31  2  0
M  END
$$$$
