VWF.pdb
     RDKit          3D

 33 35  0  0  1  0  0  0  0  0999 V2000
    7.0553  -23.6640   23.9940 C   0  0  0  0  0  0  0  0  0  0  0  0
    7.7557  -22.3288   23.8539 C   0  0  2  0  0  0  0  0  0  0  0  0
    8.6179  -22.0511   25.0404 C   0  0  0  0  0  0  0  0  0  0  0  0
    6.6820  -21.2726   23.6609 C   0  0  2  0  0  0  0  0  0  0  0  0
    5.7722  -21.5740   22.5987 N   0  0  0  0  0  0  0  0  0  0  0  0
    7.2496  -19.9305   23.4727 C   0  0  0  0  0  0  0  0  0  0  0  0
    7.9012  -19.6637   22.4510 O   0  0  0  0  0  0  0  0  0  0  0  0
    7.0312  -18.9457   24.4994 N   0  0  0  0  0  0  0  0  0  0  0  0
    7.6259  -17.6419   24.3885 C   0  0  1  0  0  0  0  0  0  0  0  0
    6.7194  -16.4950   24.6161 C   0  0  0  0  0  0  0  0  0  0  0  0
    7.1764  -15.1834   24.1527 C   0  0  0  0  0  0  0  0  0  0  0  0
    7.9537  -14.8016   23.0852 C   0  0  0  0  0  0  0  0  0  0  0  0
    8.0824  -13.4413   23.0872 N   0  0  0  0  0  0  0  0  0  0  0  0
    7.3997  -12.9543   24.1376 C   0  0  0  0  0  0  0  0  0  0  0  0
    7.2227  -11.6505   24.5693 C   0  0  0  0  0  0  0  0  0  0  0  0
    6.4648  -11.4384   25.6884 C   0  0  0  0  0  0  0  0  0  0  0  0
    5.8750  -12.4566   26.3983 C   0  0  0  0  0  0  0  0  0  0  0  0
    6.0725  -13.7404   25.9396 C   0  0  0  0  0  0  0  0  0  0  0  0
    6.8281  -14.0044   24.8169 C   0  0  0  0  0  0  0  0  0  0  0  0
    8.8503  -17.5599   25.2646 C   0  0  0  0  0  0  0  0  0  0  0  0
    8.6927  -17.3864   26.4726 O   0  0  0  0  0  0  0  0  0  0  0  0
   10.1382  -17.6802   24.6877 N   0  0  0  0  0  0  0  0  0  0  0  0
   11.3344  -17.0430   25.2023 C   0  0  1  0  0  0  0  0  0  0  0  0
   11.1098  -15.5697   25.1900 C   0  0  0  0  0  0  0  0  0  0  0  0
   10.7029  -15.0946   26.5291 C   0  0  0  0  0  0  0  0  0  0  0  0
    9.8338  -14.0355   26.7373 C   0  0  0  0  0  0  0  0  0  0  0  0
    9.4892  -13.6237   28.0062 C   0  0  0  0  0  0  0  0  0  0  0  0
   10.0212  -14.2808   29.1069 C   0  0  0  0  0  0  0  0  0  0  0  0
   10.8894  -15.3398   28.9434 C   0  0  0  0  0  0  0  0  0  0  0  0
   11.2052  -15.7160   27.6628 C   0  0  0  0  0  0  0  0  0  0  0  0
   11.7563  -17.6128   26.4923 C   0  0  0  0  0  0  0  0  0  0  0  0
   11.0203  -18.3763   27.1679 O   0  0  0  0  0  0  0  0  0  0  0  0
   13.0003  -17.3412   27.0427 O   0  0  0  0  0  0  0  0  0  0  0  0
  2  1  1  1
  2  3  1  0
  4  2  1  0
  4  5  1  6
  6  7  2  0
  6  4  1  0
  8  6  1  0
  9  8  1  0
 10 11  1  0
  9 10  1  1
 11 19  1  0
 12 13  1  0
 12 11  2  0
 13 14  1  0
 14 19  2  0
 14 15  1  0
 15 16  2  0
 16 17  1  0
 18 17  2  0
 19 18  1  0
 20 22  1  0
 20  9  1  0
 21 20  2  0
 23 22  1  0
 23 31  1  0
 24 25  1  0
 23 24  1  1
 25 30  1  0
 26 25  2  0
 26 27  1  0
 27 28  2  0
 28 29  1  0
 30 29  2  0
 31 33  1  0
 32 31  2  0
M  END
$$$$
