VWF.pdb
     RDKit          3D

 33 35  0  0  1  0  0  0  0  0999 V2000
    5.9545  -14.1171   18.9339 C   0  0  0  0  0  0  0  0  0  0  0  0
    6.9100  -13.8592   20.0800 C   0  0  2  0  0  0  0  0  0  0  0  0
    7.7792  -12.6795   19.7953 C   0  0  0  0  0  0  0  0  0  0  0  0
    7.7134  -15.1298   20.2939 C   0  0  2  0  0  0  0  0  0  0  0  0
    6.9006  -16.2863   20.5144 N   0  0  0  0  0  0  0  0  0  0  0  0
    8.6962  -14.9906   21.3772 C   0  0  0  0  0  0  0  0  0  0  0  0
    9.5751  -14.1168   21.3169 O   0  0  0  0  0  0  0  0  0  0  0  0
    8.6109  -15.8903   22.4975 N   0  0  0  0  0  0  0  0  0  0  0  0
    9.5380  -15.7744   23.5897 C   0  0  1  0  0  0  0  0  0  0  0  0
    9.0231  -16.1646   24.9206 C   0  0  0  0  0  0  0  0  0  0  0  0
    7.7772  -15.5349   25.3629 C   0  0  0  0  0  0  0  0  0  0  0  0
    6.4848  -15.9974   25.4344 C   0  0  0  0  0  0  0  0  0  0  0  0
    5.6815  -15.0103   25.9319 N   0  0  0  0  0  0  0  0  0  0  0  0
    6.4429  -13.9302   26.1773 C   0  0  0  0  0  0  0  0  0  0  0  0
    6.1039  -12.6865   26.6832 C   0  0  0  0  0  0  0  0  0  0  0  0
    7.0974  -11.7580   26.8333 C   0  0  0  0  0  0  0  0  0  0  0  0
    8.4092  -12.0044   26.5062 C   0  0  0  0  0  0  0  0  0  0  0  0
    8.7096  -13.2522   26.0060 C   0  0  0  0  0  0  0  0  0  0  0  0
    7.7431  -14.2208   25.8365 C   0  0  0  0  0  0  0  0  0  0  0  0
   10.8162  -16.5018   23.2575 C   0  0  0  0  0  0  0  0  0  0  0  0
   10.7373  -17.6479   22.8165 O   0  0  0  0  0  0  0  0  0  0  0  0
   12.0635  -15.8618   23.4589 N   0  0  0  0  0  0  0  0  0  0  0  0
   13.3540  -16.4790   23.2233 C   0  0  1  0  0  0  0  0  0  0  0  0
   14.1737  -15.5321   22.4155 C   0  0  0  0  0  0  0  0  0  0  0  0
   13.5826  -15.3469   21.0736 C   0  0  0  0  0  0  0  0  0  0  0  0
   13.8027  -16.2093   20.0114 C   0  0  0  0  0  0  0  0  0  0  0  0
   13.2348  -15.9908   18.7751 C   0  0  0  0  0  0  0  0  0  0  0  0
   12.4216  -14.8828   18.5818 C   0  0  0  0  0  0  0  0  0  0  0  0
   12.1768  -14.0002   19.6129 C   0  0  0  0  0  0  0  0  0  0  0  0
   12.7625  -14.2560   20.8264 C   0  0  0  0  0  0  0  0  0  0  0  0
   13.9758  -16.9589   24.4682 C   0  0  0  0  0  0  0  0  0  0  0  0
   13.4616  -16.7666   25.5993 O   0  0  0  0  0  0  0  0  0  0  0  0
   15.1737  -17.6585   24.4677 O   0  0  0  0  0  0  0  0  0  0  0  0
  2  1  1  6
  2  3  1  0
  4  2  1  0
  4  5  1  1
  6  7  2  0
  6  4  1  0
  8  6  1  0
  9  8  1  0
 10 11  1  0
  9 10  1  1
 11 19  1  0
 12 13  1  0
 12 11  2  0
 13 14  1  0
 14 19  2  0
 14 15  1  0
 15 16  2  0
 16 17  1  0
 18 17  2  0
 19 18  1  0
 20 22  1  0
 20  9  1  0
 21 20  2  0
 23 22  1  0
 23 31  1  0
 24 25  1  0
 23 24  1  1
 25 30  1  0
 26 25  2  0
 26 27  1  0
 27 28  2  0
 28 29  1  0
 30 29  2  0
 31 33  1  0
 32 31  2  0
M  END
$$$$
