VWF.pdb
     RDKit          3D

 33 35  0  0  1  0  0  0  0  0999 V2000
    9.3421  -18.0301   19.4612 C   0  0  0  0  0  0  0  0  0  0  0  0
   10.6043  -18.5534   20.1138 C   0  0  2  0  0  0  0  0  0  0  0  0
   10.8559  -19.9732   19.7276 C   0  0  0  0  0  0  0  0  0  0  0  0
   10.4421  -18.3835   21.6139 C   0  0  2  0  0  0  0  0  0  0  0  0
    9.4180  -19.2115   22.1727 N   0  0  0  0  0  0  0  0  0  0  0  0
   10.2200  -16.9816   21.9940 C   0  0  0  0  0  0  0  0  0  0  0  0
   10.9836  -16.0933   21.5849 O   0  0  0  0  0  0  0  0  0  0  0  0
    9.1030  -16.6735   22.8479 N   0  0  0  0  0  0  0  0  0  0  0  0
    8.8343  -15.3124   23.2236 C   0  0  1  0  0  0  0  0  0  0  0  0
    7.5399  -14.7586   22.7693 C   0  0  0  0  0  0  0  0  0  0  0  0
    7.2921  -14.7437   21.3262 C   0  0  0  0  0  0  0  0  0  0  0  0
    6.5207  -15.5409   20.5145 C   0  0  0  0  0  0  0  0  0  0  0  0
    6.6220  -15.1003   19.2251 N   0  0  0  0  0  0  0  0  0  0  0  0
    7.4441  -14.0371   19.2057 C   0  0  0  0  0  0  0  0  0  0  0  0
    7.8623  -13.2423   18.1517 C   0  0  0  0  0  0  0  0  0  0  0  0
    8.7154  -12.2075   18.4225 C   0  0  0  0  0  0  0  0  0  0  0  0
    9.1723  -11.9241   19.6872 C   0  0  0  0  0  0  0  0  0  0  0  0
    8.7353  -12.7357   20.7109 C   0  0  0  0  0  0  0  0  0  0  0  0
    7.8758  -13.7904   20.4878 C   0  0  0  0  0  0  0  0  0  0  0  0
    9.0146  -15.1453   24.7111 C   0  0  0  0  0  0  0  0  0  0  0  0
    8.5539  -14.1368   25.2449 O   0  0  0  0  0  0  0  0  0  0  0  0
    9.7025  -16.1367   25.4528 N   0  0  0  0  0  0  0  0  0  0  0  0
    9.8129  -16.1560   26.8982 C   0  0  1  0  0  0  0  0  0  0  0  0
    8.4679  -15.8527   27.4642 C   0  0  0  0  0  0  0  0  0  0  0  0
    8.1447  -14.4201   27.2973 C   0  0  0  0  0  0  0  0  0  0  0  0
    6.9818  -13.9593   26.7009 C   0  0  0  0  0  0  0  0  0  0  0  0
    6.7275  -12.6123   26.5611 C   0  0  0  0  0  0  0  0  0  0  0  0
    7.6536  -11.6893   27.0265 C   0  0  0  0  0  0  0  0  0  0  0  0
    8.8233  -12.1060   27.6264 C   0  0  0  0  0  0  0  0  0  0  0  0
    9.0357  -13.4559   27.7446 C   0  0  0  0  0  0  0  0  0  0  0  0
   10.4484  -17.3890   27.3904 C   0  0  0  0  0  0  0  0  0  0  0  0
   10.7072  -17.5781   28.6062 O   0  0  0  0  0  0  0  0  0  0  0  0
   10.8007  -18.4242   26.5367 O   0  0  0  0  0  0  0  0  0  0  0  0
  2  1  1  6
  2  3  1  0
  4  2  1  0
  4  5  1  6
  6  7  2  0
  6  4  1  0
  8  6  1  0
  9  8  1  0
 10 11  1  0
  9 10  1  1
 11 19  1  0
 12 13  1  0
 12 11  2  0
 13 14  1  0
 14 19  2  0
 14 15  1  0
 15 16  2  0
 16 17  1  0
 18 17  2  0
 19 18  1  0
 20 22  1  0
 20  9  1  0
 21 20  2  0
 23 22  1  0
 23 31  1  0
 24 25  1  0
 23 24  1  1
 25 30  1  0
 26 25  2  0
 26 27  1  0
 27 28  2  0
 28 29  1  0
 30 29  2  0
 31 33  1  0
 32 31  2  0
M  END
$$$$
