VWF.pdb
     RDKit          3D

 33 35  0  0  1  0  0  0  0  0999 V2000
   12.2577  -20.2612   20.5997 C   0  0  0  0  0  0  0  0  0  0  0  0
   10.9214  -20.2606   19.8874 C   0  0  2  0  0  0  0  0  0  0  0  0
   10.8303  -21.3958   18.9223 C   0  0  0  0  0  0  0  0  0  0  0  0
   10.7718  -18.9114   19.2072 C   0  0  2  0  0  0  0  0  0  0  0  0
   11.7836  -18.6519   18.2296 N   0  0  0  0  0  0  0  0  0  0  0  0
   10.7088  -17.8057   20.1728 C   0  0  0  0  0  0  0  0  0  0  0  0
   11.7192  -17.1277   20.4153 O   0  0  0  0  0  0  0  0  0  0  0  0
    9.4534  -17.5372   20.8237 N   0  0  0  0  0  0  0  0  0  0  0  0
    9.3636  -16.5100   21.8250 C   0  0  1  0  0  0  0  0  0  0  0  0
    7.9958  -16.0905   22.2018 C   0  0  0  0  0  0  0  0  0  0  0  0
    7.8357  -14.7298   22.7185 C   0  0  0  0  0  0  0  0  0  0  0  0
    8.2844  -13.5122   22.2652 C   0  0  0  0  0  0  0  0  0  0  0  0
    7.8512  -12.5306   23.1112 N   0  0  0  0  0  0  0  0  0  0  0  0
    7.1352  -13.1052   24.0928 C   0  0  0  0  0  0  0  0  0  0  0  0
    6.4884  -12.5443   25.1813 C   0  0  0  0  0  0  0  0  0  0  0  0
    5.8220  -13.3787   26.0365 C   0  0  0  0  0  0  0  0  0  0  0  0
    5.7665  -14.7409   25.8634 C   0  0  0  0  0  0  0  0  0  0  0  0
    6.4212  -15.2636   24.7699 C   0  0  0  0  0  0  0  0  0  0  0  0
    7.1062  -14.4635   23.8801 C   0  0  0  0  0  0  0  0  0  0  0  0
   10.1742  -16.9004   23.0350 C   0  0  0  0  0  0  0  0  0  0  0  0
   11.3990  -16.7980   22.9744 O   0  0  0  0  0  0  0  0  0  0  0  0
    9.5194  -17.3723   24.1988 N   0  0  0  0  0  0  0  0  0  0  0  0
    9.8351  -16.9517   25.5498 C   0  0  1  0  0  0  0  0  0  0  0  0
    9.8417  -15.4615   25.5756 C   0  0  0  0  0  0  0  0  0  0  0  0
   10.1223  -14.9664   26.9396 C   0  0  0  0  0  0  0  0  0  0  0  0
    9.3883  -13.9686   27.5610 C   0  0  0  0  0  0  0  0  0  0  0  0
    9.6927  -13.5347   28.8328 C   0  0  0  0  0  0  0  0  0  0  0  0
   10.7585  -14.1060   29.5139 C   0  0  0  0  0  0  0  0  0  0  0  0
   11.5142  -15.1020   28.9316 C   0  0  0  0  0  0  0  0  0  0  0  0
   11.1760  -15.5031   27.6644 C   0  0  0  0  0  0  0  0  0  0  0  0
    8.9737  -17.6028   26.5501 C   0  0  0  0  0  0  0  0  0  0  0  0
    9.4134  -18.0245   27.6500 O   0  0  0  0  0  0  0  0  0  0  0  0
    7.6156  -17.7899   26.3384 O   0  0  0  0  0  0  0  0  0  0  0  0
  2  1  1  6
  2  3  1  0
  4  2  1  0
  4  5  1  6
  6  7  2  0
  6  4  1  0
  8  6  1  0
  9  8  1  0
 10 11  1  0
  9 10  1  1
 11 19  1  0
 12 13  1  0
 12 11  2  0
 13 14  1  0
 14 19  2  0
 14 15  1  0
 15 16  2  0
 16 17  1  0
 18 17  2  0
 19 18  1  0
 20 22  1  0
 20  9  1  0
 21 20  2  0
 23 22  1  0
 23 31  1  0
 24 25  1  0
 23 24  1  6
 25 30  1  0
 26 25  2  0
 26 27  1  0
 27 28  2  0
 28 29  1  0
 30 29  2  0
 31 33  1  0
 32 31  2  0
M  END
$$$$
