VWF.pdb
     RDKit          3D

 33 35  0  0  1  0  0  0  0  0999 V2000
   13.8281  -19.3061   22.8803 C   0  0  0  0  0  0  0  0  0  0  0  0
   12.8761  -20.1234   22.0326 C   0  0  2  0  0  0  0  0  0  0  0  0
   13.5360  -21.3671   21.5368 C   0  0  0  0  0  0  0  0  0  0  0  0
   12.3997  -19.2318   20.8996 C   0  0  2  0  0  0  0  0  0  0  0  0
   13.4510  -18.8149   20.0234 N   0  0  0  0  0  0  0  0  0  0  0  0
   11.6565  -18.0619   21.3874 C   0  0  0  0  0  0  0  0  0  0  0  0
   12.2120  -16.9552   21.4657 O   0  0  0  0  0  0  0  0  0  0  0  0
   10.2800  -18.2372   21.7698 N   0  0  0  0  0  0  0  0  0  0  0  0
    9.5369  -17.1365   22.3196 C   0  0  1  0  0  0  0  0  0  0  0  0
    8.1336  -17.0125   21.8681 C   0  0  0  0  0  0  0  0  0  0  0  0
    7.4442  -15.7576   22.1747 C   0  0  0  0  0  0  0  0  0  0  0  0
    6.4642  -15.4422   23.0855 C   0  0  0  0  0  0  0  0  0  0  0  0
    6.1642  -14.1133   22.9802 N   0  0  0  0  0  0  0  0  0  0  0  0
    6.9377  -13.5809   22.0185 C   0  0  0  0  0  0  0  0  0  0  0  0
    7.0129  -12.2838   21.5396 C   0  0  0  0  0  0  0  0  0  0  0  0
    7.9061  -12.0161   20.5385 C   0  0  0  0  0  0  0  0  0  0  0  0
    8.7272  -12.9724   19.9909 C   0  0  0  0  0  0  0  0  0  0  0  0
    8.6251  -14.2515   20.4921 C   0  0  0  0  0  0  0  0  0  0  0  0
    7.7402  -14.5701   21.5003 C   0  0  0  0  0  0  0  0  0  0  0  0
    9.6332  -17.1528   23.8242 C   0  0  0  0  0  0  0  0  0  0  0  0
    9.2484  -18.1569   24.4225 O   0  0  0  0  0  0  0  0  0  0  0  0
   10.1547  -16.0278   24.5087 N   0  0  0  0  0  0  0  0  0  0  0  0
    9.9754  -15.7681   25.9236 C   0  0  1  0  0  0  0  0  0  0  0  0
    8.5113  -15.7244   26.1991 C   0  0  0  0  0  0  0  0  0  0  0  0
    8.0254  -14.3286   26.2071 C   0  0  0  0  0  0  0  0  0  0  0  0
    8.8616  -13.2241   26.2412 C   0  0  0  0  0  0  0  0  0  0  0  0
    8.3611  -11.9404   26.2546 C   0  0  0  0  0  0  0  0  0  0  0  0
    6.9878  -11.7412   26.2337 C   0  0  0  0  0  0  0  0  0  0  0  0
    6.1208  -12.8132   26.1993 C   0  0  0  0  0  0  0  0  0  0  0  0
    6.6623  -14.0733   26.1872 C   0  0  0  0  0  0  0  0  0  0  0  0
   10.7544  -16.6942   26.7615 C   0  0  0  0  0  0  0  0  0  0  0  0
   10.6930  -16.6853   28.0173 O   0  0  0  0  0  0  0  0  0  0  0  0
   11.6075  -17.6401   26.2120 O   0  0  0  0  0  0  0  0  0  0  0  0
  2  1  1  6
  2  3  1  0
  4  2  1  0
  4  5  1  1
  6  7  2  0
  6  4  1  0
  8  6  1  0
  9  8  1  0
 10 11  1  0
  9 10  1  1
 11 19  1  0
 12 13  1  0
 12 11  2  0
 13 14  1  0
 14 19  2  0
 14 15  1  0
 15 16  2  0
 16 17  1  0
 18 17  2  0
 19 18  1  0
 20 22  1  0
 20  9  1  0
 21 20  2  0
 23 22  1  0
 23 31  1  0
 24 25  1  0
 23 24  1  1
 25 30  1  0
 26 25  2  0
 26 27  1  0
 27 28  2  0
 28 29  1  0
 30 29  2  0
 31 33  1  0
 32 31  2  0
M  END
$$$$
