VWF.pdb
     RDKit          3D

 33 35  0  0  1  0  0  0  0  0999 V2000
   11.3309  -20.0931   21.8108 C   0  0  0  0  0  0  0  0  0  0  0  0
    9.9188  -20.0562   21.2652 C   0  0  2  0  0  0  0  0  0  0  0  0
    9.5726  -21.3429   20.5924 C   0  0  0  0  0  0  0  0  0  0  0  0
    9.8289  -18.8695   20.3222 C   0  0  2  0  0  0  0  0  0  0  0  0
   10.7138  -18.9647   19.2021 N   0  0  0  0  0  0  0  0  0  0  0  0
   10.0311  -17.5906   21.0169 C   0  0  0  0  0  0  0  0  0  0  0  0
   11.1029  -16.9767   20.8994 O   0  0  0  0  0  0  0  0  0  0  0  0
    8.9604  -17.0781   21.8310 N   0  0  0  0  0  0  0  0  0  0  0  0
    9.0323  -15.7452   22.3643 C   0  0  1  0  0  0  0  0  0  0  0  0
    7.7420  -15.0373   22.5145 C   0  0  0  0  0  0  0  0  0  0  0  0
    7.1881  -14.9429   23.8667 C   0  0  0  0  0  0  0  0  0  0  0  0
    6.7686  -15.8994   24.7604 C   0  0  0  0  0  0  0  0  0  0  0  0
    6.3387  -15.2876   25.9040 N   0  0  0  0  0  0  0  0  0  0  0  0
    6.4791  -13.9596   25.7506 C   0  0  0  0  0  0  0  0  0  0  0  0
    6.1894  -12.9183   26.6163 C   0  0  0  0  0  0  0  0  0  0  0  0
    6.4371  -11.6406   26.1947 C   0  0  0  0  0  0  0  0  0  0  0  0
    6.9578  -11.3472   24.9572 C   0  0  0  0  0  0  0  0  0  0  0  0
    7.2337  -12.4080   24.1228 C   0  0  0  0  0  0  0  0  0  0  0  0
    7.0013  -13.7129   24.5026 C   0  0  0  0  0  0  0  0  0  0  0  0
    9.8128  -15.7499   23.6543 C   0  0  0  0  0  0  0  0  0  0  0  0
   10.3215  -14.6951   24.0321 O   0  0  0  0  0  0  0  0  0  0  0  0
    9.9448  -16.9511   24.3931 N   0  0  0  0  0  0  0  0  0  0  0  0
   10.7548  -17.0998   25.5862 C   0  0  1  0  0  0  0  0  0  0  0  0
    9.8350  -17.1960   26.7549 C   0  0  0  0  0  0  0  0  0  0  0  0
    9.7953  -15.9155   27.4920 C   0  0  0  0  0  0  0  0  0  0  0  0
   10.5638  -15.6509   28.6145 C   0  0  0  0  0  0  0  0  0  0  0  0
   10.4870  -14.4431   29.2731 C   0  0  0  0  0  0  0  0  0  0  0  0
    9.6216  -13.4633   28.8068 C   0  0  0  0  0  0  0  0  0  0  0  0
    8.8396  -13.6861   27.6929 C   0  0  0  0  0  0  0  0  0  0  0  0
    8.9479  -14.9025   27.0684 C   0  0  0  0  0  0  0  0  0  0  0  0
   11.7384  -18.1873   25.4579 C   0  0  0  0  0  0  0  0  0  0  0  0
   11.7191  -19.0084   24.5059 O   0  0  0  0  0  0  0  0  0  0  0  0
   12.7538  -18.3715   26.3849 O   0  0  0  0  0  0  0  0  0  0  0  0
  2  1  1  6
  2  3  1  0
  4  2  1  0
  4  5  1  6
  6  7  2  0
  6  4  1  0
  8  6  1  0
  9  8  1  0
 10 11  1  0
  9 10  1  1
 11 19  1  0
 12 13  1  0
 12 11  2  0
 13 14  1  0
 14 19  2  0
 14 15  1  0
 15 16  2  0
 16 17  1  0
 18 17  2  0
 19 18  1  0
 20 22  1  0
 20  9  1  0
 21 20  2  0
 23 22  1  0
 23 31  1  0
 24 25  1  0
 23 24  1  1
 25 30  1  0
 26 25  2  0
 26 27  1  0
 27 28  2  0
 28 29  1  0
 30 29  2  0
 31 33  1  0
 32 31  2  0
M  END
$$$$
