VWF.pdb
     RDKit          3D

 33 35  0  0  1  0  0  0  0  0999 V2000
    7.3761  -13.0961   20.5187 C   0  0  0  0  0  0  0  0  0  0  0  0
    8.4467  -14.0217   19.9802 C   0  0  2  0  0  0  0  0  0  0  0  0
    8.8460  -13.6283   18.5967 C   0  0  0  0  0  0  0  0  0  0  0  0
    7.8958  -15.4353   20.0419 C   0  0  2  0  0  0  0  0  0  0  0  0
    6.7787  -15.6488   19.1739 N   0  0  0  0  0  0  0  0  0  0  0  0
    7.5534  -15.8393   21.4125 C   0  0  0  0  0  0  0  0  0  0  0  0
    6.3819  -15.7622   21.8140 O   0  0  0  0  0  0  0  0  0  0  0  0
    8.6073  -16.3201   22.2669 N   0  0  0  0  0  0  0  0  0  0  0  0
    8.3054  -16.7948   23.5896 C   0  0  1  0  0  0  0  0  0  0  0  0
    8.4015  -18.2574   23.7904 C   0  0  0  0  0  0  0  0  0  0  0  0
    7.9377  -18.7846   25.0753 C   0  0  0  0  0  0  0  0  0  0  0  0
    6.7341  -18.6868   25.7321 C   0  0  0  0  0  0  0  0  0  0  0  0
    6.8091  -19.3727   26.9115 N   0  0  0  0  0  0  0  0  0  0  0  0
    8.0395  -19.9040   27.0132 C   0  0  0  0  0  0  0  0  0  0  0  0
    8.6047  -20.6801   28.0111 C   0  0  0  0  0  0  0  0  0  0  0  0
    9.8995  -21.0924   27.8528 C   0  0  0  0  0  0  0  0  0  0  0  0
   10.6590  -20.7723   26.7531 C   0  0  0  0  0  0  0  0  0  0  0  0
   10.0640  -19.9991   25.7807 C   0  0  0  0  0  0  0  0  0  0  0  0
    8.7622  -19.5594   25.8952 C   0  0  0  0  0  0  0  0  0  0  0  0
    9.1282  -16.0430   24.6050 C   0  0  0  0  0  0  0  0  0  0  0  0
   10.2741  -15.7146   24.2996 O   0  0  0  0  0  0  0  0  0  0  0  0
    8.5747  -15.7365   25.8722 N   0  0  0  0  0  0  0  0  0  0  0  0
    9.3190  -15.1760   26.9828 C   0  0  1  0  0  0  0  0  0  0  0  0
    8.3567  -14.4495   27.8587 C   0  0  0  0  0  0  0  0  0  0  0  0
    7.7807  -13.2888   27.1476 C   0  0  0  0  0  0  0  0  0  0  0  0
    8.4330  -12.0745   27.0044 C   0  0  0  0  0  0  0  0  0  0  0  0
    7.8519  -11.0175   26.3383 C   0  0  0  0  0  0  0  0  0  0  0  0
    6.5832  -11.1653   25.7952 C   0  0  0  0  0  0  0  0  0  0  0  0
    5.9000  -12.3573   25.9152 C   0  0  0  0  0  0  0  0  0  0  0  0
    6.5160  -13.3827   26.5862 C   0  0  0  0  0  0  0  0  0  0  0  0
   10.1574  -16.1826   27.6541 C   0  0  0  0  0  0  0  0  0  0  0  0
   10.9142  -15.8994   28.6175 O   0  0  0  0  0  0  0  0  0  0  0  0
   10.1615  -17.5134   27.2625 O   0  0  0  0  0  0  0  0  0  0  0  0
  2  1  1  6
  2  3  1  0
  4  2  1  0
  4  5  1  6
  6  7  2  0
  6  4  1  0
  8  6  1  0
  9  8  1  0
 10 11  1  0
  9 10  1  6
 11 19  1  0
 12 13  1  0
 12 11  2  0
 13 14  1  0
 14 19  2  0
 14 15  1  0
 15 16  2  0
 16 17  1  0
 18 17  2  0
 19 18  1  0
 20 22  1  0
 20  9  1  0
 21 20  2  0
 23 22  1  0
 23 31  1  0
 24 25  1  0
 23 24  1  1
 25 30  1  0
 26 25  2  0
 26 27  1  0
 27 28  2  0
 28 29  1  0
 30 29  2  0
 31 33  1  0
 32 31  2  0
M  END
$$$$
