VWF.pdb
     RDKit          3D

 33 35  0  0  1  0  0  0  0  0999 V2000
   10.7692  -21.2116   18.3807 C   0  0  0  0  0  0  0  0  0  0  0  0
   10.9003  -20.1895   19.4902 C   0  0  2  0  0  0  0  0  0  0  0  0
   10.4950  -20.7721   20.8034 C   0  0  0  0  0  0  0  0  0  0  0  0
   10.0518  -18.9910   19.1039 C   0  0  2  0  0  0  0  0  0  0  0  0
   10.3512  -18.4778   17.8025 N   0  0  0  0  0  0  0  0  0  0  0  0
   10.1255  -17.9133   20.0999 C   0  0  0  0  0  0  0  0  0  0  0  0
   11.1328  -17.1922   20.1689 O   0  0  0  0  0  0  0  0  0  0  0  0
    9.0066  -17.7228   20.9851 N   0  0  0  0  0  0  0  0  0  0  0  0
    9.0180  -16.6522   21.9442 C   0  0  1  0  0  0  0  0  0  0  0  0
    7.8005  -15.8131   21.9926 C   0  0  0  0  0  0  0  0  0  0  0  0
    7.8923  -14.5490   22.7260 C   0  0  0  0  0  0  0  0  0  0  0  0
    8.3828  -13.3134   22.3765 C   0  0  0  0  0  0  0  0  0  0  0  0
    8.2266  -12.4545   23.4276 N   0  0  0  0  0  0  0  0  0  0  0  0
    7.6451  -13.1245   24.4373 C   0  0  0  0  0  0  0  0  0  0  0  0
    7.2782  -12.7021   25.7040 C   0  0  0  0  0  0  0  0  0  0  0  0
    6.6926  -13.6104   26.5429 C   0  0  0  0  0  0  0  0  0  0  0  0
    6.4538  -14.9157   26.1854 C   0  0  0  0  0  0  0  0  0  0  0  0
    6.8318  -15.3004   24.9178 C   0  0  0  0  0  0  0  0  0  0  0  0
    7.4253  -14.4215   24.0367 C   0  0  0  0  0  0  0  0  0  0  0  0
    9.3733  -17.1885   23.3079 C   0  0  0  0  0  0  0  0  0  0  0  0
    8.5129  -17.8062   23.9341 O   0  0  0  0  0  0  0  0  0  0  0  0
   10.6704  -16.9715   23.8338 N   0  0  0  0  0  0  0  0  0  0  0  0
   10.9481  -16.5361   25.1884 C   0  0  1  0  0  0  0  0  0  0  0  0
   10.3786  -15.1691   25.3558 C   0  0  0  0  0  0  0  0  0  0  0  0
   10.3920  -14.7710   26.7791 C   0  0  0  0  0  0  0  0  0  0  0  0
   10.7475  -15.6237   27.8121 C   0  0  0  0  0  0  0  0  0  0  0  0
   10.7378  -15.2087   29.1259 C   0  0  0  0  0  0  0  0  0  0  0  0
   10.3643  -13.9070   29.4296 C   0  0  0  0  0  0  0  0  0  0  0  0
   10.0038  -13.0264   28.4312 C   0  0  0  0  0  0  0  0  0  0  0  0
   10.0275  -13.4817   27.1376 C   0  0  0  0  0  0  0  0  0  0  0  0
   10.5256  -17.5297   26.1889 C   0  0  0  0  0  0  0  0  0  0  0  0
   11.3382  -18.1030   26.9583 O   0  0  0  0  0  0  0  0  0  0  0  0
    9.1962  -17.8941   26.3452 O   0  0  0  0  0  0  0  0  0  0  0  0
  2  1  1  6
  2  3  1  0
  4  2  1  0
  4  5  1  6
  6  7  2  0
  6  4  1  0
  8  6  1  0
  9  8  1  0
 10 11  1  0
  9 10  1  1
 11 19  1  0
 12 13  1  0
 12 11  2  0
 13 14  1  0
 14 19  2  0
 14 15  1  0
 15 16  2  0
 16 17  1  0
 18 17  2  0
 19 18  1  0
 20 22  1  0
 20  9  1  0
 21 20  2  0
 23 22  1  0
 23 31  1  0
 24 25  1  0
 23 24  1  1
 25 30  1  0
 26 25  2  0
 26 27  1  0
 27 28  2  0
 28 29  1  0
 30 29  2  0
 31 33  1  0
 32 31  2  0
M  END
$$$$
