VWF.pdb
     RDKit          3D

 33 35  0  0  1  0  0  0  0  0999 V2000
    9.0578  -23.3396   23.3649 C   0  0  0  0  0  0  0  0  0  0  0  0
    9.3937  -21.8631   23.3662 C   0  0  2  0  0  0  0  0  0  0  0  0
    9.8761  -21.4264   24.7096 C   0  0  0  0  0  0  0  0  0  0  0  0
    8.1467  -21.1149   22.9296 C   0  0  2  0  0  0  0  0  0  0  0  0
    7.5707  -21.6245   21.7232 N   0  0  0  0  0  0  0  0  0  0  0  0
    8.3802  -19.6696   22.8051 C   0  0  0  0  0  0  0  0  0  0  0  0
    9.1947  -19.2360   21.9756 O   0  0  0  0  0  0  0  0  0  0  0  0
    7.6451  -18.7816   23.6670 N   0  0  0  0  0  0  0  0  0  0  0  0
    7.9589  -17.3792   23.6967 C   0  0  1  0  0  0  0  0  0  0  0  0
    6.8038  -16.4586   23.7802 C   0  0  0  0  0  0  0  0  0  0  0  0
    7.0680  -15.0368   23.5507 C   0  0  0  0  0  0  0  0  0  0  0  0
    7.5784  -14.3560   22.4711 C   0  0  0  0  0  0  0  0  0  0  0  0
    7.6165  -13.0209   22.7592 N   0  0  0  0  0  0  0  0  0  0  0  0
    7.1386  -12.8438   24.0029 C   0  0  0  0  0  0  0  0  0  0  0  0
    6.9718  -11.6876   24.7465 C   0  0  0  0  0  0  0  0  0  0  0  0
    6.4526  -11.8002   26.0073 C   0  0  0  0  0  0  0  0  0  0  0  0
    6.0914  -13.0034   26.5645 C   0  0  0  0  0  0  0  0  0  0  0  0
    6.2713  -14.1323   25.7958 C   0  0  0  0  0  0  0  0  0  0  0  0
    6.7908  -14.0696   24.5202 C   0  0  0  0  0  0  0  0  0  0  0  0
    8.9658  -17.1015   24.7840 C   0  0  0  0  0  0  0  0  0  0  0  0
    8.5499  -16.8659   25.9179 O   0  0  0  0  0  0  0  0  0  0  0  0
   10.3496  -17.1147   24.4823 N   0  0  0  0  0  0  0  0  0  0  0  0
   11.3820  -16.5425   25.3240 C   0  0  1  0  0  0  0  0  0  0  0  0
   11.1561  -17.0233   26.7165 C   0  0  0  0  0  0  0  0  0  0  0  0
   10.6878  -15.9178   27.5786 C   0  0  0  0  0  0  0  0  0  0  0  0
    9.7562  -14.9731   27.1784 C   0  0  0  0  0  0  0  0  0  0  0  0
    9.3554  -13.9552   28.0161 C   0  0  0  0  0  0  0  0  0  0  0  0
    9.8932  -13.8677   29.2926 C   0  0  0  0  0  0  0  0  0  0  0  0
   10.8227  -14.7878   29.7300 C   0  0  0  0  0  0  0  0  0  0  0  0
   11.1931  -15.7842   28.8633 C   0  0  0  0  0  0  0  0  0  0  0  0
   12.7311  -16.7711   24.7816 C   0  0  0  0  0  0  0  0  0  0  0  0
   12.9319  -17.3888   23.7050 O   0  0  0  0  0  0  0  0  0  0  0  0
   13.8696  -16.3140   25.4293 O   0  0  0  0  0  0  0  0  0  0  0  0
  2  1  1  1
  2  3  1  0
  4  2  1  0
  4  5  1  6
  6  7  2  0
  6  4  1  0
  8  6  1  0
  9  8  1  0
 10 11  1  0
  9 10  1  1
 11 19  1  0
 12 13  1  0
 12 11  2  0
 13 14  1  0
 14 19  2  0
 14 15  1  0
 15 16  2  0
 16 17  1  0
 18 17  2  0
 19 18  1  0
 20 22  1  0
 20  9  1  0
 21 20  2  0
 23 22  1  0
 23 31  1  0
 24 25  1  0
 23 24  1  1
 25 30  1  0
 26 25  2  0
 26 27  1  0
 27 28  2  0
 28 29  1  0
 30 29  2  0
 31 33  1  0
 32 31  2  0
M  END
$$$$
