VWF.pdb
     RDKit          3D

 33 35  0  0  1  0  0  0  0  0999 V2000
    6.4158  -18.4225   18.9380 C   0  0  0  0  0  0  0  0  0  0  0  0
    6.0634  -19.4252   20.0166 C   0  0  2  0  0  0  0  0  0  0  0  0
    5.3885  -20.6220   19.4331 C   0  0  0  0  0  0  0  0  0  0  0  0
    5.1916  -18.7091   21.0328 C   0  0  2  0  0  0  0  0  0  0  0  0
    3.8974  -18.3646   20.5295 N   0  0  0  0  0  0  0  0  0  0  0  0
    5.8492  -17.5188   21.5892 C   0  0  0  0  0  0  0  0  0  0  0  0
    5.5268  -16.3857   21.1999 O   0  0  0  0  0  0  0  0  0  0  0  0
    6.8695  -17.7052   22.5873 N   0  0  0  0  0  0  0  0  0  0  0  0
    7.7254  -16.6119   22.9587 C   0  0  1  0  0  0  0  0  0  0  0  0
    8.0569  -16.5084   24.3968 C   0  0  0  0  0  0  0  0  0  0  0  0
    7.1500  -15.7203   25.2337 C   0  0  0  0  0  0  0  0  0  0  0  0
    5.9001  -15.9839   25.7413 C   0  0  0  0  0  0  0  0  0  0  0  0
    5.4798  -14.9131   26.4787 N   0  0  0  0  0  0  0  0  0  0  0  0
    6.4423  -13.9754   26.4475 C   0  0  0  0  0  0  0  0  0  0  0  0
    6.4970  -12.7223   27.0344 C   0  0  0  0  0  0  0  0  0  0  0  0
    7.6186  -11.9647   26.8353 C   0  0  0  0  0  0  0  0  0  0  0  0
    8.6870  -12.3904   26.0830 C   0  0  0  0  0  0  0  0  0  0  0  0
    8.5976  -13.6420   25.5146 C   0  0  0  0  0  0  0  0  0  0  0  0
    7.4881  -14.4424   25.6865 C   0  0  0  0  0  0  0  0  0  0  0  0
    8.9682  -16.6200   22.1050 C   0  0  0  0  0  0  0  0  0  0  0  0
    8.8398  -16.7589   20.8891 O   0  0  0  0  0  0  0  0  0  0  0  0
   10.2398  -16.4722   22.7110 N   0  0  0  0  0  0  0  0  0  0  0  0
   11.2939  -15.6094   22.2147 C   0  0  1  0  0  0  0  0  0  0  0  0
   10.7539  -14.2222   22.1420 C   0  0  0  0  0  0  0  0  0  0  0  0
    9.8502  -14.0763   20.9816 C   0  0  0  0  0  0  0  0  0  0  0  0
   10.2163  -14.3794   19.6798 C   0  0  0  0  0  0  0  0  0  0  0  0
    9.3402  -14.2201   18.6283 C   0  0  0  0  0  0  0  0  0  0  0  0
    8.0589  -13.7452   18.8712 C   0  0  0  0  0  0  0  0  0  0  0  0
    7.6546  -13.4321   20.1520 C   0  0  0  0  0  0  0  0  0  0  0  0
    8.5590  -13.6058   21.1685 C   0  0  0  0  0  0  0  0  0  0  0  0
   12.5449  -15.7676   22.9740 C   0  0  0  0  0  0  0  0  0  0  0  0
   13.6312  -15.2545   22.6029 O   0  0  0  0  0  0  0  0  0  0  0  0
   12.6004  -16.4958   24.1534 O   0  0  0  0  0  0  0  0  0  0  0  0
  2  1  1  6
  2  3  1  0
  4  2  1  0
  4  5  1  6
  6  7  2  0
  6  4  1  0
  8  6  1  0
  9  8  1  0
 10 11  1  0
  9 10  1  1
 11 19  1  0
 12 13  1  0
 12 11  2  0
 13 14  1  0
 14 19  2  0
 14 15  1  0
 15 16  2  0
 16 17  1  0
 18 17  2  0
 19 18  1  0
 20 22  1  0
 20  9  1  0
 21 20  2  0
 23 22  1  0
 23 31  1  0
 24 25  1  0
 23 24  1  1
 25 30  1  0
 26 25  2  0
 26 27  1  0
 27 28  2  0
 28 29  1  0
 30 29  2  0
 31 33  1  0
 32 31  2  0
M  END
$$$$
