VWF.pdb
     RDKit          3D

 33 35  0  0  1  0  0  0  0  0999 V2000
   11.8221  -19.6155   18.4884 C   0  0  0  0  0  0  0  0  0  0  0  0
   11.6012  -18.6917   19.6677 C   0  0  2  0  0  0  0  0  0  0  0  0
   11.7238  -19.4334   20.9572 C   0  0  0  0  0  0  0  0  0  0  0  0
   10.2328  -18.0566   19.4949 C   0  0  2  0  0  0  0  0  0  0  0  0
   10.0526  -17.4315   18.2208 N   0  0  0  0  0  0  0  0  0  0  0  0
    9.9210  -17.1062   20.5712 C   0  0  0  0  0  0  0  0  0  0  0  0
   10.5518  -16.0423   20.6694 O   0  0  0  0  0  0  0  0  0  0  0  0
    8.8742  -17.4441   21.4996 N   0  0  0  0  0  0  0  0  0  0  0  0
    8.6028  -16.5913   22.6244 C   0  0  1  0  0  0  0  0  0  0  0  0
    7.2007  -16.5679   23.0960 C   0  0  0  0  0  0  0  0  0  0  0  0
    6.9130  -15.7681   24.2883 C   0  0  0  0  0  0  0  0  0  0  0  0
    6.6368  -16.1175   25.5888 C   0  0  0  0  0  0  0  0  0  0  0  0
    6.4487  -14.9839   26.3280 N   0  0  0  0  0  0  0  0  0  0  0  0
    6.6014  -13.9219   25.5185 C   0  0  0  0  0  0  0  0  0  0  0  0
    6.5131  -12.5662   25.7865 C   0  0  0  0  0  0  0  0  0  0  0  0
    6.7192  -11.6898   24.7563 C   0  0  0  0  0  0  0  0  0  0  0  0
    7.0087  -12.0938   23.4751 C   0  0  0  0  0  0  0  0  0  0  0  0
    7.0887  -13.4497   23.2455 C   0  0  0  0  0  0  0  0  0  0  0  0
    6.8888  -14.3716   24.2511 C   0  0  0  0  0  0  0  0  0  0  0  0
    9.5580  -16.9046   23.7482 C   0  0  0  0  0  0  0  0  0  0  0  0
    9.4577  -17.9935   24.3125 O   0  0  0  0  0  0  0  0  0  0  0  0
   10.5353  -15.9523   24.1277 N   0  0  0  0  0  0  0  0  0  0  0  0
   11.5330  -16.1614   25.1584 C   0  0  1  0  0  0  0  0  0  0  0  0
   10.8566  -16.7857   26.3305 C   0  0  0  0  0  0  0  0  0  0  0  0
   10.6497  -15.7896   27.4026 C   0  0  0  0  0  0  0  0  0  0  0  0
   11.2131  -14.5236   27.3943 C   0  0  0  0  0  0  0  0  0  0  0  0
   10.9969  -13.6308   28.4213 C   0  0  0  0  0  0  0  0  0  0  0  0
   10.1968  -14.0015   29.4930 C   0  0  0  0  0  0  0  0  0  0  0  0
    9.6169  -15.2520   29.5399 C   0  0  0  0  0  0  0  0  0  0  0  0
    9.8589  -16.1087   28.4965 C   0  0  0  0  0  0  0  0  0  0  0  0
   12.7157  -16.8753   24.6501 C   0  0  0  0  0  0  0  0  0  0  0  0
   13.6714  -17.2160   25.3926 O   0  0  0  0  0  0  0  0  0  0  0  0
   12.8467  -17.2189   23.3125 O   0  0  0  0  0  0  0  0  0  0  0  0
  2  1  1  6
  2  3  1  0
  4  2  1  0
  4  5  1  6
  6  7  2  0
  6  4  1  0
  8  6  1  0
  9  8  1  0
 10 11  1  0
  9 10  1  1
 11 19  1  0
 12 13  1  0
 12 11  2  0
 13 14  1  0
 14 19  2  0
 14 15  1  0
 15 16  2  0
 16 17  1  0
 18 17  2  0
 19 18  1  0
 20 22  1  0
 20  9  1  0
 21 20  2  0
 23 22  1  0
 23 31  1  0
 24 25  1  0
 23 24  1  1
 25 30  1  0
 26 25  2  0
 26 27  1  0
 27 28  2  0
 28 29  1  0
 30 29  2  0
 31 33  1  0
 32 31  2  0
M  END
$$$$
