PFF.pdb
     RDKit          3D

 30 32  0  0  1  0  0  0  0  0999 V2000
    8.5695  -17.7756   18.8447 N   0  0  0  0  0  0  0  0  0  0  0  0
    8.5586  -17.9683   17.4048 C   0  0  0  0  0  0  0  0  0  0  0  0
    8.4731  -16.5606   16.8597 C   0  0  0  0  0  0  0  0  0  0  0  0
    8.8868  -15.6514   18.0226 C   0  0  0  0  0  0  0  0  0  0  0  0
    9.4477  -16.6542   18.9932 C   0  0  1  0  0  0  0  0  0  0  0  0
    9.4226  -16.0797   20.3607 C   0  0  0  0  0  0  0  0  0  0  0  0
   10.2915  -15.2396   20.7084 O   0  0  0  0  0  0  0  0  0  0  0  0
    8.4473  -16.4302   21.3335 N   0  0  0  0  0  0  0  0  0  0  0  0
    8.3276  -15.7966   22.6289 C   0  0  1  0  0  0  0  0  0  0  0  0
    6.9599  -15.1737   22.8257 C   0  0  0  0  0  0  0  0  0  0  0  0
    6.8668  -14.4231   24.0926 C   0  0  0  0  0  0  0  0  0  0  0  0
    6.1660  -14.9648   25.1495 C   0  0  0  0  0  0  0  0  0  0  0  0
    6.0499  -14.3018   26.3557 C   0  0  0  0  0  0  0  0  0  0  0  0
    6.6320  -13.0684   26.5509 C   0  0  0  0  0  0  0  0  0  0  0  0
    7.3373  -12.5126   25.5015 C   0  0  0  0  0  0  0  0  0  0  0  0
    7.4468  -13.1893   24.2936 C   0  0  0  0  0  0  0  0  0  0  0  0
    8.4782  -16.8328   23.6733 C   0  0  0  0  0  0  0  0  0  0  0  0
    7.4459  -17.3393   24.1691 O   0  0  0  0  0  0  0  0  0  0  0  0
    9.7308  -17.2927   24.1526 N   0  0  0  0  0  0  0  0  0  0  0  0
   10.3168  -16.8495   25.4271 C   0  0  1  0  0  0  0  0  0  0  0  0
   10.3214  -15.3649   25.5246 C   0  0  0  0  0  0  0  0  0  0  0  0
   10.6498  -14.9293   26.8904 C   0  0  0  0  0  0  0  0  0  0  0  0
   10.2703  -13.6698   27.3200 C   0  0  0  0  0  0  0  0  0  0  0  0
   10.5502  -13.2634   28.6046 C   0  0  0  0  0  0  0  0  0  0  0  0
   11.2082  -14.0760   29.5040 C   0  0  0  0  0  0  0  0  0  0  0  0
   11.5882  -15.3206   29.0940 C   0  0  0  0  0  0  0  0  0  0  0  0
   11.3025  -15.7286   27.7916 C   0  0  0  0  0  0  0  0  0  0  0  0
    9.5331  -17.4435   26.5195 C   0  0  0  0  0  0  0  0  0  0  0  0
    8.3131  -18.0519   26.2205 O   0  0  0  0  0  0  0  0  0  0  0  0
    9.9323  -17.4153   27.6986 O   0  0  0  0  0  0  0  0  0  0  0  0
  1  5  1  0
  2  1  1  0
  2  3  1  0
  3  4  1  0
  5  6  1  1
  5  4  1  0
  6  7  2  0
  8  9  1  0
  8  6  1  0
 10 11  1  0
  9 10  1  6
 11 16  2  0
 12 13  2  0
 12 11  1  0
 13 14  1  0
 14 15  2  0
 16 15  1  0
 17 18  2  0
 17  9  1  0
 19 17  1  0
 20 19  1  0
 20 28  1  0
 20 21  1  1
 22 21  1  0
 23 22  2  0
 24 23  1  0
 25 24  2  0
 25 26  1  0
 26 27  2  0
 27 22  1  0
 28 29  1  0
 30 28  2  0
M  END
$$$$
