PFF.pdb
     RDKit          3D

 30 32  0  0  1  0  0  0  0  0999 V2000
    8.6941  -18.0015   18.9445 N   0  0  0  0  0  0  0  0  0  0  0  0
    8.8459  -18.2934   17.5295 C   0  0  0  0  0  0  0  0  0  0  0  0
    9.2885  -16.9728   16.9409 C   0  0  0  0  0  0  0  0  0  0  0  0
    9.7803  -16.1440   18.1330 C   0  0  0  0  0  0  0  0  0  0  0  0
    9.8442  -17.1908   19.2111 C   0  0  1  0  0  0  0  0  0  0  0  0
    9.7888  -16.5309   20.5387 C   0  0  0  0  0  0  0  0  0  0  0  0
   10.8098  -15.9632   21.0044 O   0  0  0  0  0  0  0  0  0  0  0  0
    8.6171  -16.4990   21.3428 N   0  0  0  0  0  0  0  0  0  0  0  0
    8.4870  -15.7253   22.5586 C   0  0  1  0  0  0  0  0  0  0  0  0
    7.0612  -15.2607   22.7793 C   0  0  0  0  0  0  0  0  0  0  0  0
    6.9482  -14.3331   23.9213 C   0  0  0  0  0  0  0  0  0  0  0  0
    6.5903  -14.8247   25.1589 C   0  0  0  0  0  0  0  0  0  0  0  0
    6.4710  -13.9976   26.2586 C   0  0  0  0  0  0  0  0  0  0  0  0
    6.7059  -12.6434   26.1617 C   0  0  0  0  0  0  0  0  0  0  0  0
    7.0654  -12.1358   24.9285 C   0  0  0  0  0  0  0  0  0  0  0  0
    7.1819  -12.9780   23.8304 C   0  0  0  0  0  0  0  0  0  0  0  0
    8.8352  -16.5919   23.7053 C   0  0  0  0  0  0  0  0  0  0  0  0
    8.3475  -17.7441   23.7563 O   0  0  0  0  0  0  0  0  0  0  0  0
    9.6952  -16.1953   24.7605 N   0  0  0  0  0  0  0  0  0  0  0  0
   10.4813  -17.1482   25.5593 C   0  0  1  0  0  0  0  0  0  0  0  0
   11.6555  -16.4802   26.1829 C   0  0  0  0  0  0  0  0  0  0  0  0
   11.2267  -15.4883   27.1806 C   0  0  0  0  0  0  0  0  0  0  0  0
   10.8618  -14.2172   26.7730 C   0  0  0  0  0  0  0  0  0  0  0  0
   10.4343  -13.2906   27.6963 C   0  0  0  0  0  0  0  0  0  0  0  0
   10.3518  -13.5804   29.0421 C   0  0  0  0  0  0  0  0  0  0  0  0
   10.7084  -14.8299   29.4581 C   0  0  0  0  0  0  0  0  0  0  0  0
   11.1409  -15.7659   28.5194 C   0  0  0  0  0  0  0  0  0  0  0  0
    9.5979  -17.7196   26.5857 C   0  0  0  0  0  0  0  0  0  0  0  0
    8.2561  -17.3360   26.6097 O   0  0  0  0  0  0  0  0  0  0  0  0
   10.0189  -18.5334   27.4288 O   0  0  0  0  0  0  0  0  0  0  0  0
  1  5  1  0
  2  1  1  0
  2  3  1  0
  3  4  1  0
  5  6  1  1
  5  4  1  0
  6  7  2  0
  8  9  1  0
  8  6  1  0
 10 11  1  0
  9 10  1  1
 11 16  2  0
 12 13  2  0
 12 11  1  0
 13 14  1  0
 14 15  2  0
 16 15  1  0
 17 18  2  0
 17  9  1  0
 19 17  1  0
 20 19  1  0
 20 28  1  0
 20 21  1  1
 22 21  1  0
 23 22  2  0
 24 23  1  0
 25 24  2  0
 25 26  1  0
 26 27  2  0
 27 22  1  0
 28 29  1  0
 30 28  2  0
M  END
$$$$
