PFF.pdb
     RDKit          3D

 30 32  0  0  1  0  0  0  0  0999 V2000
    8.0475  -15.8981   18.4915 N   0  0  0  0  0  0  0  0  0  0  0  0
    7.9673  -15.6345   17.0651 C   0  0  0  0  0  0  0  0  0  0  0  0
    8.0839  -14.1296   16.9760 C   0  0  0  0  0  0  0  0  0  0  0  0
    8.6643  -13.6889   18.3247 C   0  0  0  0  0  0  0  0  0  0  0  0
    9.0913  -15.0090   18.9052 C   0  0  1  0  0  0  0  0  0  0  0  0
    9.1925  -14.8860   20.3802 C   0  0  0  0  0  0  0  0  0  0  0  0
   10.1183  -14.2080   20.8949 O   0  0  0  0  0  0  0  0  0  0  0  0
    8.2800  -15.5058   21.2766 N   0  0  0  0  0  0  0  0  0  0  0  0
    8.1213  -15.1284   22.6644 C   0  0  1  0  0  0  0  0  0  0  0  0
    6.6606  -15.0109   23.0516 C   0  0  0  0  0  0  0  0  0  0  0  0
    6.4840  -14.3819   24.3745 C   0  0  0  0  0  0  0  0  0  0  0  0
    6.6917  -13.0256   24.5115 C   0  0  0  0  0  0  0  0  0  0  0  0
    6.5392  -12.3899   25.7283 C   0  0  0  0  0  0  0  0  0  0  0  0
    6.1721  -13.0889   26.8573 C   0  0  0  0  0  0  0  0  0  0  0  0
    5.9603  -14.4484   26.7363 C   0  0  0  0  0  0  0  0  0  0  0  0
    6.1169  -15.0758   25.5072 C   0  0  0  0  0  0  0  0  0  0  0  0
    8.7018  -16.1944   23.5094 C   0  0  0  0  0  0  0  0  0  0  0  0
    8.3791  -17.3827   23.2819 O   0  0  0  0  0  0  0  0  0  0  0  0
    9.6097  -15.9520   24.5711 N   0  0  0  0  0  0  0  0  0  0  0  0
   10.2794  -17.0275   25.3188 C   0  0  1  0  0  0  0  0  0  0  0  0
   11.5808  -16.5631   25.8706 C   0  0  0  0  0  0  0  0  0  0  0  0
   11.3960  -15.3836   26.7294 C   0  0  0  0  0  0  0  0  0  0  0  0
   11.5345  -15.5037   28.1011 C   0  0  0  0  0  0  0  0  0  0  0  0
   11.3893  -14.4003   28.9105 C   0  0  0  0  0  0  0  0  0  0  0  0
   11.1049  -13.1502   28.4022 C   0  0  0  0  0  0  0  0  0  0  0  0
   10.9657  -13.0170   27.0515 C   0  0  0  0  0  0  0  0  0  0  0  0
   11.1138  -14.1375   26.2349 C   0  0  0  0  0  0  0  0  0  0  0  0
    9.3790  -17.4620   26.3962 C   0  0  0  0  0  0  0  0  0  0  0  0
    8.1157  -16.8771   26.4959 O   0  0  0  0  0  0  0  0  0  0  0  0
    9.7176  -18.3354   27.2165 O   0  0  0  0  0  0  0  0  0  0  0  0
  1  5  1  0
  2  1  1  0
  2  3  1  0
  3  4  1  0
  5  6  1  1
  5  4  1  0
  6  7  2  0
  8  9  1  0
  8  6  1  0
 10 11  1  0
  9 10  1  1
 11 16  2  0
 12 13  2  0
 12 11  1  0
 13 14  1  0
 14 15  2  0
 16 15  1  0
 17 18  2  0
 17  9  1  0
 19 17  1  0
 20 19  1  0
 20 28  1  0
 20 21  1  1
 22 21  1  0
 23 22  2  0
 24 23  1  0
 25 24  2  0
 25 26  1  0
 26 27  2  0
 27 22  1  0
 28 29  1  0
 30 28  2  0
M  END
$$$$
