PFF.pdb
     RDKit          3D

 30 32  0  0  1  0  0  0  0  0999 V2000
    7.6293  -15.4441   19.3684 N   0  0  0  0  0  0  0  0  0  0  0  0
    7.5211  -15.1994   17.9406 C   0  0  0  0  0  0  0  0  0  0  0  0
    7.8031  -13.7194   17.8125 C   0  0  0  0  0  0  0  0  0  0  0  0
    8.4842  -13.3229   19.1273 C   0  0  0  0  0  0  0  0  0  0  0  0
    8.7829  -14.6721   19.7211 C   0  0  1  0  0  0  0  0  0  0  0  0
    8.9577  -14.5343   21.1878 C   0  0  0  0  0  0  0  0  0  0  0  0
   10.0841  -14.2414   21.6644 O   0  0  0  0  0  0  0  0  0  0  0  0
    7.8986  -14.7183   22.1178 N   0  0  0  0  0  0  0  0  0  0  0  0
    7.9815  -14.3773   23.5215 C   0  0  1  0  0  0  0  0  0  0  0  0
    6.9104  -13.3827   23.9226 C   0  0  0  0  0  0  0  0  0  0  0  0
    7.0322  -12.9723   25.3347 C   0  0  0  0  0  0  0  0  0  0  0  0
    6.1503  -13.4805   26.2650 C   0  0  0  0  0  0  0  0  0  0  0  0
    6.2228  -13.1274   27.5984 C   0  0  0  0  0  0  0  0  0  0  0  0
    7.1828  -12.2499   28.0529 C   0  0  0  0  0  0  0  0  0  0  0  0
    8.0735  -11.7321   27.1330 C   0  0  0  0  0  0  0  0  0  0  0  0
    7.9902  -12.0951   25.7950 C   0  0  0  0  0  0  0  0  0  0  0  0
    7.7451  -15.6020   24.3162 C   0  0  0  0  0  0  0  0  0  0  0  0
    6.5646  -15.9679   24.5174 O   0  0  0  0  0  0  0  0  0  0  0  0
    8.7820  -16.3949   24.8696 N   0  0  0  0  0  0  0  0  0  0  0  0
    8.5311  -17.5641   25.7265 C   0  0  1  0  0  0  0  0  0  0  0  0
    8.6128  -18.8266   24.9435 C   0  0  0  0  0  0  0  0  0  0  0  0
    7.6768  -18.8024   23.8093 C   0  0  0  0  0  0  0  0  0  0  0  0
    6.3371  -19.0798   24.0177 C   0  0  0  0  0  0  0  0  0  0  0  0
    5.4494  -19.0340   22.9672 C   0  0  0  0  0  0  0  0  0  0  0  0
    5.8460  -18.7162   21.6852 C   0  0  0  0  0  0  0  0  0  0  0  0
    7.1640  -18.4404   21.4651 C   0  0  0  0  0  0  0  0  0  0  0  0
    8.0602  -18.4877   22.5322 C   0  0  0  0  0  0  0  0  0  0  0  0
    9.5235  -17.5553   26.8107 C   0  0  0  0  0  0  0  0  0  0  0  0
   10.4608  -16.5223   26.8583 O   0  0  0  0  0  0  0  0  0  0  0  0
    9.5452  -18.4446   27.6820 O   0  0  0  0  0  0  0  0  0  0  0  0
  1  5  1  0
  2  1  1  0
  2  3  1  0
  3  4  1  0
  5  6  1  1
  5  4  1  0
  6  7  2  0
  8  9  1  0
  8  6  1  0
 10 11  1  0
  9 10  1  1
 11 16  2  0
 12 13  2  0
 12 11  1  0
 13 14  1  0
 14 15  2  0
 16 15  1  0
 17 18  2  0
 17  9  1  0
 19 17  1  0
 20 19  1  0
 20 28  1  0
 20 21  1  6
 22 21  1  0
 23 22  2  0
 24 23  1  0
 25 24  2  0
 25 26  1  0
 26 27  2  0
 27 22  1  0
 28 29  1  0
 30 28  2  0
M  END
$$$$
