PFF.pdb
     RDKit          3D

 30 32  0  0  1  0  0  0  0  0999 V2000
    6.3846  -18.8719   22.2818 N   0  0  0  0  0  0  0  0  0  0  0  0
    5.5058  -19.9345   21.8244 C   0  0  0  0  0  0  0  0  0  0  0  0
    5.7972  -20.0221   20.3433 C   0  0  0  0  0  0  0  0  0  0  0  0
    7.1379  -19.3038   20.1523 C   0  0  0  0  0  0  0  0  0  0  0  0
    7.5979  -19.1584   21.5768 C   0  0  1  0  0  0  0  0  0  0  0  0
    8.5877  -18.0567   21.6622 C   0  0  0  0  0  0  0  0  0  0  0  0
    9.7327  -18.1967   21.1611 O   0  0  0  0  0  0  0  0  0  0  0  0
    8.3147  -16.8133   22.2947 N   0  0  0  0  0  0  0  0  0  0  0  0
    9.1601  -15.6440   22.1869 C   0  0  1  0  0  0  0  0  0  0  0  0
    8.3658  -14.3610   22.3295 C   0  0  0  0  0  0  0  0  0  0  0  0
    7.6716  -14.2773   23.6288 C   0  0  0  0  0  0  0  0  0  0  0  0
    7.7734  -13.1233   24.3768 C   0  0  0  0  0  0  0  0  0  0  0  0
    7.1425  -12.9957   25.5989 C   0  0  0  0  0  0  0  0  0  0  0  0
    6.3838  -14.0206   26.1206 C   0  0  0  0  0  0  0  0  0  0  0  0
    6.2721  -15.1830   25.3832 C   0  0  0  0  0  0  0  0  0  0  0  0
    6.9114  -15.2989   24.1556 C   0  0  0  0  0  0  0  0  0  0  0  0
   10.1359  -15.6669   23.2980 C   0  0  0  0  0  0  0  0  0  0  0  0
   11.1361  -14.9163   23.2336 O   0  0  0  0  0  0  0  0  0  0  0  0
   10.0079  -16.4939   24.4425 N   0  0  0  0  0  0  0  0  0  0  0  0
   11.1350  -16.8202   25.3299 C   0  0  1  0  0  0  0  0  0  0  0  0
   11.7244  -15.5875   25.9188 C   0  0  0  0  0  0  0  0  0  0  0  0
   10.8968  -15.0874   27.0269 C   0  0  0  0  0  0  0  0  0  0  0  0
    9.7434  -15.7642   27.3830 C   0  0  0  0  0  0  0  0  0  0  0  0
    8.9766  -15.3187   28.4353 C   0  0  0  0  0  0  0  0  0  0  0  0
    9.3156  -14.2006   29.1680 C   0  0  0  0  0  0  0  0  0  0  0  0
   10.4504  -13.5235   28.8281 C   0  0  0  0  0  0  0  0  0  0  0  0
   11.2246  -13.9783   27.7613 C   0  0  0  0  0  0  0  0  0  0  0  0
   10.6403  -17.7186   26.3827 C   0  0  0  0  0  0  0  0  0  0  0  0
   11.5534  -18.2678   27.2841 O   0  0  0  0  0  0  0  0  0  0  0  0
    9.4314  -17.9982   26.4865 O   0  0  0  0  0  0  0  0  0  0  0  0
  1  5  1  0
  2  1  1  0
  2  3  1  0
  3  4  1  0
  5  6  1  6
  5  4  1  0
  6  7  2  0
  8  9  1  0
  8  6  1  0
 10 11  1  0
  9 10  1  1
 11 16  2  0
 12 13  2  0
 12 11  1  0
 13 14  1  0
 14 15  2  0
 16 15  1  0
 17 18  2  0
 17  9  1  0
 19 17  1  0
 20 19  1  0
 20 28  1  0
 20 21  1  1
 22 21  1  0
 23 22  2  0
 24 23  1  0
 25 24  2  0
 25 26  1  0
 26 27  2  0
 27 22  1  0
 28 29  1  0
 30 28  2  0
M  END
$$$$
