PFF.pdb
     RDKit          3D

 30 32  0  0  1  0  0  0  0  0999 V2000
    8.7133  -18.3967   20.2657 N   0  0  0  0  0  0  0  0  0  0  0  0
    8.5768  -19.0427   18.9717 C   0  0  0  0  0  0  0  0  0  0  0  0
    8.2249  -17.9031   18.0423 C   0  0  0  0  0  0  0  0  0  0  0  0
    8.6212  -16.6292   18.7974 C   0  0  0  0  0  0  0  0  0  0  0  0
    9.4259  -17.1999   19.9327 C   0  0  1  0  0  0  0  0  0  0  0  0
    9.4626  -16.2219   21.0476 C   0  0  0  0  0  0  0  0  0  0  0  0
   10.3892  -15.3742   21.1133 O   0  0  0  0  0  0  0  0  0  0  0  0
    8.4851  -16.1815   22.0789 N   0  0  0  0  0  0  0  0  0  0  0  0
    8.3661  -15.1099   23.0438 C   0  0  1  0  0  0  0  0  0  0  0  0
    6.9541  -14.9924   23.5821 C   0  0  0  0  0  0  0  0  0  0  0  0
    6.8658  -14.0487   24.7129 C   0  0  0  0  0  0  0  0  0  0  0  0
    7.0824  -12.7051   24.4907 C   0  0  0  0  0  0  0  0  0  0  0  0
    7.0112  -11.7820   25.5158 C   0  0  0  0  0  0  0  0  0  0  0  0
    6.7197  -12.1691   26.8055 C   0  0  0  0  0  0  0  0  0  0  0  0
    6.5001  -13.5117   27.0440 C   0  0  0  0  0  0  0  0  0  0  0  0
    6.5746  -14.4300   26.0048 C   0  0  0  0  0  0  0  0  0  0  0  0
    9.2377  -15.4193   24.1979 C   0  0  0  0  0  0  0  0  0  0  0  0
    9.1837  -14.6785   25.2061 O   0  0  0  0  0  0  0  0  0  0  0  0
   10.1393  -16.5129   24.2339 N   0  0  0  0  0  0  0  0  0  0  0  0
   11.1382  -16.6978   25.2979 C   0  0  1  0  0  0  0  0  0  0  0  0
   10.4808  -16.9296   26.6124 C   0  0  0  0  0  0  0  0  0  0  0  0
   10.5020  -15.7090   27.4325 C   0  0  0  0  0  0  0  0  0  0  0  0
   10.3612  -15.8014   28.8061 C   0  0  0  0  0  0  0  0  0  0  0  0
   10.4059  -14.6673   29.5842 C   0  0  0  0  0  0  0  0  0  0  0  0
   10.5894  -13.4126   29.0419 C   0  0  0  0  0  0  0  0  0  0  0  0
   10.7298  -13.3066   27.6889 C   0  0  0  0  0  0  0  0  0  0  0  0
   10.6840  -14.4582   26.9041 C   0  0  0  0  0  0  0  0  0  0  0  0
   11.9895  -17.8381   24.9301 C   0  0  0  0  0  0  0  0  0  0  0  0
   11.6958  -18.5509   23.7666 O   0  0  0  0  0  0  0  0  0  0  0  0
   12.9610  -18.1793   25.6303 O   0  0  0  0  0  0  0  0  0  0  0  0
  1  5  1  0
  2  1  1  0
  2  3  1  0
  3  4  1  0
  5  6  1  1
  5  4  1  0
  6  7  2  0
  8  9  1  0
  8  6  1  0
 10 11  1  0
  9 10  1  1
 11 16  2  0
 12 13  2  0
 12 11  1  0
 13 14  1  0
 14 15  2  0
 16 15  1  0
 17 18  2  0
 17  9  1  0
 19 17  1  0
 20 19  1  0
 20 28  1  0
 20 21  1  1
 22 21  1  0
 23 22  2  0
 24 23  1  0
 25 24  2  0
 25 26  1  0
 26 27  2  0
 27 22  1  0
 28 29  1  0
 30 28  2  0
M  END
$$$$
