PFF.pdb
     RDKit          3D

 30 32  0  0  1  0  0  0  0  0999 V2000
    8.3478  -18.0365   19.0162 N   0  0  0  0  0  0  0  0  0  0  0  0
    8.2463  -18.2669   17.5854 C   0  0  0  0  0  0  0  0  0  0  0  0
    8.4073  -16.8855   16.9919 C   0  0  0  0  0  0  0  0  0  0  0  0
    9.0288  -16.0369   18.1070 C   0  0  0  0  0  0  0  0  0  0  0  0
    9.4269  -17.0982   19.0956 C   0  0  1  0  0  0  0  0  0  0  0  0
    9.5625  -16.4885   20.4412 C   0  0  0  0  0  0  0  0  0  0  0  0
   10.6500  -15.9610   20.7885 O   0  0  0  0  0  0  0  0  0  0  0  0
    8.5069  -16.4622   21.3929 N   0  0  0  0  0  0  0  0  0  0  0  0
    8.5193  -15.6615   22.5980 C   0  0  1  0  0  0  0  0  0  0  0  0
    7.1466  -15.1029   22.9159 C   0  0  0  0  0  0  0  0  0  0  0  0
    7.1391  -14.3229   24.1684 C   0  0  0  0  0  0  0  0  0  0  0  0
    6.5573  -14.8613   25.2968 C   0  0  0  0  0  0  0  0  0  0  0  0
    6.5247  -14.1713   26.4929 C   0  0  0  0  0  0  0  0  0  0  0  0
    7.0744  -12.9131   26.6060 C   0  0  0  0  0  0  0  0  0  0  0  0
    7.6610  -12.3602   25.4844 C   0  0  0  0  0  0  0  0  0  0  0  0
    7.6873  -13.0642   24.2875 C   0  0  0  0  0  0  0  0  0  0  0  0
    8.8997  -16.5293   23.7336 C   0  0  0  0  0  0  0  0  0  0  0  0
    8.4233  -17.6860   23.7904 O   0  0  0  0  0  0  0  0  0  0  0  0
    9.7786  -16.1291   24.7716 N   0  0  0  0  0  0  0  0  0  0  0  0
   10.5620  -17.0809   25.5745 C   0  0  1  0  0  0  0  0  0  0  0  0
   11.5533  -16.3705   26.4268 C   0  0  0  0  0  0  0  0  0  0  0  0
   10.8792  -15.5001   27.4020 C   0  0  0  0  0  0  0  0  0  0  0  0
   10.7241  -15.9244   28.7100 C   0  0  0  0  0  0  0  0  0  0  0  0
   10.1181  -15.1062   29.6357 C   0  0  0  0  0  0  0  0  0  0  0  0
    9.6472  -13.8518   29.3089 C   0  0  0  0  0  0  0  0  0  0  0  0
    9.7935  -13.4203   28.0228 C   0  0  0  0  0  0  0  0  0  0  0  0
   10.4083  -14.2524   27.0879 C   0  0  0  0  0  0  0  0  0  0  0  0
    9.6264  -17.8599   26.3981 C   0  0  0  0  0  0  0  0  0  0  0  0
   10.1209  -18.9181   27.1621 O   0  0  0  0  0  0  0  0  0  0  0  0
    8.4096  -17.5972   26.4281 O   0  0  0  0  0  0  0  0  0  0  0  0
  1  5  1  0
  2  1  1  0
  2  3  1  0
  3  4  1  0
  5  6  1  1
  5  4  1  0
  6  7  2  0
  8  9  1  0
  8  6  1  0
 10 11  1  0
  9 10  1  1
 11 16  2  0
 12 13  2  0
 12 11  1  0
 13 14  1  0
 14 15  2  0
 16 15  1  0
 17 18  2  0
 17  9  1  0
 19 17  1  0
 20 19  1  0
 20 28  1  0
 20 21  1  1
 22 21  1  0
 23 22  2  0
 24 23  1  0
 25 24  2  0
 25 26  1  0
 26 27  2  0
 27 22  1  0
 28 29  1  0
 30 28  2  0
M  END
$$$$
