PFF.pdb
     RDKit          3D

 30 32  0  0  1  0  0  0  0  0999 V2000
    8.1628  -15.9459   18.3879 N   0  0  0  0  0  0  0  0  0  0  0  0
    8.0743  -15.6936   16.9600 C   0  0  0  0  0  0  0  0  0  0  0  0
    8.1170  -14.1852   16.8636 C   0  0  0  0  0  0  0  0  0  0  0  0
    8.6708  -13.7099   18.2117 C   0  0  0  0  0  0  0  0  0  0  0  0
    9.1604  -15.0046   18.8001 C   0  0  1  0  0  0  0  0  0  0  0  0
    9.2509  -14.8695   20.2747 C   0  0  0  0  0  0  0  0  0  0  0  0
   10.1683  -14.1809   20.7903 O   0  0  0  0  0  0  0  0  0  0  0  0
    8.3369  -15.4891   21.1698 N   0  0  0  0  0  0  0  0  0  0  0  0
    8.1689  -15.1045   22.5546 C   0  0  1  0  0  0  0  0  0  0  0  0
    6.7069  -14.9386   22.9184 C   0  0  0  0  0  0  0  0  0  0  0  0
    6.5302  -14.3420   24.2564 C   0  0  0  0  0  0  0  0  0  0  0  0
    6.1471  -15.1453   25.3097 C   0  0  0  0  0  0  0  0  0  0  0  0
    5.9685  -14.6349   26.5806 C   0  0  0  0  0  0  0  0  0  0  0  0
    6.1668  -13.2977   26.8469 C   0  0  0  0  0  0  0  0  0  0  0  0
    6.5507  -12.4801   25.8020 C   0  0  0  0  0  0  0  0  0  0  0  0
    6.7271  -13.0055   24.5286 C   0  0  0  0  0  0  0  0  0  0  0  0
    8.7006  -16.1877   23.4098 C   0  0  0  0  0  0  0  0  0  0  0  0
    8.4575  -17.3749   23.0946 O   0  0  0  0  0  0  0  0  0  0  0  0
    9.4759  -15.9630   24.5754 N   0  0  0  0  0  0  0  0  0  0  0  0
   10.2894  -17.0087   25.2148 C   0  0  1  0  0  0  0  0  0  0  0  0
   11.5595  -16.4456   25.7471 C   0  0  0  0  0  0  0  0  0  0  0  0
   11.2923  -15.4093   26.7559 C   0  0  0  0  0  0  0  0  0  0  0  0
   11.2441  -15.7509   28.0961 C   0  0  0  0  0  0  0  0  0  0  0  0
   11.0207  -14.7838   29.0492 C   0  0  0  0  0  0  0  0  0  0  0  0
   10.8383  -13.4572   28.7191 C   0  0  0  0  0  0  0  0  0  0  0  0
   10.8834  -13.1059   27.4015 C   0  0  0  0  0  0  0  0  0  0  0  0
   11.1102  -14.0889   26.4390 C   0  0  0  0  0  0  0  0  0  0  0  0
    9.4916  -17.6111   26.2923 C   0  0  0  0  0  0  0  0  0  0  0  0
    8.2087  -17.1188   26.5372 O   0  0  0  0  0  0  0  0  0  0  0  0
    9.9335  -18.5454   26.9868 O   0  0  0  0  0  0  0  0  0  0  0  0
  1  5  1  0
  2  1  1  0
  2  3  1  0
  3  4  1  0
  5  6  1  1
  5  4  1  0
  6  7  2  0
  8  9  1  0
  8  6  1  0
 10 11  1  0
  9 10  1  1
 11 16  2  0
 12 13  2  0
 12 11  1  0
 13 14  1  0
 14 15  2  0
 16 15  1  0
 17 18  2  0
 17  9  1  0
 19 17  1  0
 20 19  1  0
 20 28  1  0
 20 21  1  1
 22 21  1  0
 23 22  2  0
 24 23  1  0
 25 24  2  0
 25 26  1  0
 26 27  2  0
 27 22  1  0
 28 29  1  0
 30 28  2  0
M  END
$$$$
