PFF.pdb
     RDKit          3D

 30 32  0  0  1  0  0  0  0  0999 V2000
    8.3712  -15.4431   18.3599 N   0  0  0  0  0  0  0  0  0  0  0  0
    8.2888  -15.0750   16.9570 C   0  0  0  0  0  0  0  0  0  0  0  0
    8.2695  -13.5634   16.9880 C   0  0  0  0  0  0  0  0  0  0  0  0
    8.7872  -13.1814   18.3794 C   0  0  0  0  0  0  0  0  0  0  0  0
    9.3236  -14.5001   18.8646 C   0  0  1  0  0  0  0  0  0  0  0  0
    9.3912  -14.4863   20.3466 C   0  0  0  0  0  0  0  0  0  0  0  0
   10.2952  -13.8361   20.9311 O   0  0  0  0  0  0  0  0  0  0  0  0
    8.4692  -15.1839   21.1734 N   0  0  0  0  0  0  0  0  0  0  0  0
    8.2450  -14.8859   22.5715 C   0  0  1  0  0  0  0  0  0  0  0  0
    6.7674  -14.8065   22.8994 C   0  0  0  0  0  0  0  0  0  0  0  0
    6.5226  -14.2096   24.2264 C   0  0  0  0  0  0  0  0  0  0  0  0
    6.1134  -15.0177   25.2662 C   0  0  0  0  0  0  0  0  0  0  0  0
    5.8713  -14.5071   26.5266 C   0  0  0  0  0  0  0  0  0  0  0  0
    6.0298  -13.1651   26.7954 C   0  0  0  0  0  0  0  0  0  0  0  0
    6.4392  -12.3428   25.7640 C   0  0  0  0  0  0  0  0  0  0  0  0
    6.6794  -12.8683   24.5011 C   0  0  0  0  0  0  0  0  0  0  0  0
    8.8026  -15.9905   23.3816 C   0  0  0  0  0  0  0  0  0  0  0  0
    8.5367  -17.1691   23.0527 O   0  0  0  0  0  0  0  0  0  0  0  0
    9.6274  -15.7959   24.5183 N   0  0  0  0  0  0  0  0  0  0  0  0
   10.4360  -16.8681   25.1190 C   0  0  1  0  0  0  0  0  0  0  0  0
   11.6478  -16.3148   25.7816 C   0  0  0  0  0  0  0  0  0  0  0  0
   11.2784  -15.3943   26.8676 C   0  0  0  0  0  0  0  0  0  0  0  0
   11.0806  -14.0524   26.5935 C   0  0  0  0  0  0  0  0  0  0  0  0
   10.7093  -13.1884   27.5982 C   0  0  0  0  0  0  0  0  0  0  0  0
   10.5213  -13.6116   28.8972 C   0  0  0  0  0  0  0  0  0  0  0  0
   10.7127  -14.9322   29.1818 C   0  0  0  0  0  0  0  0  0  0  0  0
   11.0888  -15.8044   28.1609 C   0  0  0  0  0  0  0  0  0  0  0  0
    9.5933  -17.5872   26.0850 C   0  0  0  0  0  0  0  0  0  0  0  0
    8.2619  -17.1979   26.2389 O   0  0  0  0  0  0  0  0  0  0  0  0
   10.0397  -18.5303   26.7645 O   0  0  0  0  0  0  0  0  0  0  0  0
  1  5  1  0
  2  1  1  0
  2  3  1  0
  3  4  1  0
  5  6  1  1
  5  4  1  0
  6  7  2  0
  8  9  1  0
  8  6  1  0
 10 11  1  0
  9 10  1  6
 11 16  2  0
 12 13  2  0
 12 11  1  0
 13 14  1  0
 14 15  2  0
 16 15  1  0
 17 18  2  0
 17  9  1  0
 19 17  1  0
 20 19  1  0
 20 28  1  0
 20 21  1  1
 22 21  1  0
 23 22  2  0
 24 23  1  0
 25 24  2  0
 25 26  1  0
 26 27  2  0
 27 22  1  0
 28 29  1  0
 30 28  2  0
M  END
$$$$
