PFF.pdb
     RDKit          3D

 30 32  0  0  1  0  0  0  0  0999 V2000
    8.4518  -18.3229   19.1913 N   0  0  0  0  0  0  0  0  0  0  0  0
    8.2876  -18.7768   17.8211 C   0  0  0  0  0  0  0  0  0  0  0  0
    8.1099  -17.4933   17.0418 C   0  0  0  0  0  0  0  0  0  0  0  0
    8.6273  -16.3849   17.9658 C   0  0  0  0  0  0  0  0  0  0  0  0
    9.3146  -17.1908   19.0337 C   0  0  1  0  0  0  0  0  0  0  0  0
    9.4262  -16.3750   20.2677 C   0  0  0  0  0  0  0  0  0  0  0  0
   10.4018  -15.5969   20.4239 O   0  0  0  0  0  0  0  0  0  0  0  0
    8.4694  -16.4190   21.3180 N   0  0  0  0  0  0  0  0  0  0  0  0
    8.3993  -15.4542   22.3941 C   0  0  1  0  0  0  0  0  0  0  0  0
    6.9699  -15.2011   22.8300 C   0  0  0  0  0  0  0  0  0  0  0  0
    6.8934  -14.2843   23.9836 C   0  0  0  0  0  0  0  0  0  0  0  0
    7.4038  -13.0085   23.8683 C   0  0  0  0  0  0  0  0  0  0  0  0
    7.3564  -12.1131   24.9190 C   0  0  0  0  0  0  0  0  0  0  0  0
    6.7949  -12.4609   26.1281 C   0  0  0  0  0  0  0  0  0  0  0  0
    6.2793  -13.7355   26.2591 C   0  0  0  0  0  0  0  0  0  0  0  0
    6.3331  -14.6266   25.1952 C   0  0  0  0  0  0  0  0  0  0  0  0
    9.1109  -16.0073   23.5668 C   0  0  0  0  0  0  0  0  0  0  0  0
    8.8057  -17.1537   23.9677 O   0  0  0  0  0  0  0  0  0  0  0  0
   10.1266  -15.3136   24.2718 N   0  0  0  0  0  0  0  0  0  0  0  0
   10.5301  -15.6548   25.6447 C   0  0  1  0  0  0  0  0  0  0  0  0
   10.5438  -14.4464   26.5126 C   0  0  0  0  0  0  0  0  0  0  0  0
   10.7225  -14.8163   27.9248 C   0  0  0  0  0  0  0  0  0  0  0  0
    9.7562  -14.4707   28.8533 C   0  0  0  0  0  0  0  0  0  0  0  0
    9.9021  -14.8352   30.1722 C   0  0  0  0  0  0  0  0  0  0  0  0
   10.9954  -15.5468   30.6198 C   0  0  0  0  0  0  0  0  0  0  0  0
   11.9559  -15.8944   29.7152 C   0  0  0  0  0  0  0  0  0  0  0  0
   11.8042  -15.5232   28.3798 C   0  0  0  0  0  0  0  0  0  0  0  0
    9.5883  -16.6588   26.1599 C   0  0  0  0  0  0  0  0  0  0  0  0
    8.2214  -16.3784   26.1306 O   0  0  0  0  0  0  0  0  0  0  0  0
    9.9820  -17.7472   26.6191 O   0  0  0  0  0  0  0  0  0  0  0  0
  1  5  1  0
  2  1  1  0
  2  3  1  0
  3  4  1  0
  5  6  1  1
  5  4  1  0
  6  7  2  0
  8  9  1  0
  8  6  1  0
 10 11  1  0
  9 10  1  1
 11 16  2  0
 12 13  2  0
 12 11  1  0
 13 14  1  0
 14 15  2  0
 16 15  1  0
 17 18  2  0
 17  9  1  0
 19 17  1  0
 20 19  1  0
 20 28  1  0
 20 21  1  1
 22 21  1  0
 23 22  2  0
 24 23  1  0
 25 24  2  0
 25 26  1  0
 26 27  2  0
 27 22  1  0
 28 29  1  0
 30 28  2  0
M  END
$$$$
