PFF.pdb
     RDKit          3D

 30 32  0  0  1  0  0  0  0  0999 V2000
    7.7962  -15.5994   18.4399 N   0  0  0  0  0  0  0  0  0  0  0  0
    7.5294  -15.2661   17.0512 C   0  0  0  0  0  0  0  0  0  0  0  0
    7.6849  -13.7626   17.0117 C   0  0  0  0  0  0  0  0  0  0  0  0
    8.4607  -13.4032   18.2842 C   0  0  0  0  0  0  0  0  0  0  0  0
    8.9174  -14.7611   18.7421 C   0  0  1  0  0  0  0  0  0  0  0  0
    9.2252  -14.7113   20.1925 C   0  0  0  0  0  0  0  0  0  0  0  0
   10.2799  -14.1570   20.5952 O   0  0  0  0  0  0  0  0  0  0  0  0
    8.3761  -15.2682   21.1871 N   0  0  0  0  0  0  0  0  0  0  0  0
    8.4072  -14.8938   22.5845 C   0  0  1  0  0  0  0  0  0  0  0  0
    7.0142  -14.6639   23.1359 C   0  0  0  0  0  0  0  0  0  0  0  0
    7.0391  -13.9921   24.4494 C   0  0  0  0  0  0  0  0  0  0  0  0
    6.8119  -14.7312   25.5912 C   0  0  0  0  0  0  0  0  0  0  0  0
    6.8247  -14.1491   26.8438 C   0  0  0  0  0  0  0  0  0  0  0  0
    7.0658  -12.8019   27.0021 C   0  0  0  0  0  0  0  0  0  0  0  0
    7.2951  -12.0480   25.8677 C   0  0  0  0  0  0  0  0  0  0  0  0
    7.2797  -12.6452   24.6139 C   0  0  0  0  0  0  0  0  0  0  0  0
    8.9921  -16.0115   23.3564 C   0  0  0  0  0  0  0  0  0  0  0  0
    8.9368  -17.1663   22.8755 O   0  0  0  0  0  0  0  0  0  0  0  0
    9.6174  -15.8550   24.6192 N   0  0  0  0  0  0  0  0  0  0  0  0
   10.6463  -16.7755   25.1274 C   0  0  1  0  0  0  0  0  0  0  0  0
   11.5558  -16.0849   26.0811 C   0  0  0  0  0  0  0  0  0  0  0  0
   10.8159  -15.6040   27.2576 C   0  0  0  0  0  0  0  0  0  0  0  0
   10.1406  -14.3976   27.1989 C   0  0  0  0  0  0  0  0  0  0  0  0
    9.4239  -13.9520   28.2859 C   0  0  0  0  0  0  0  0  0  0  0  0
    9.3476  -14.6725   29.4594 C   0  0  0  0  0  0  0  0  0  0  0  0
   10.0085  -15.8640   29.5314 C   0  0  0  0  0  0  0  0  0  0  0  0
   10.7333  -16.3120   28.4277 C   0  0  0  0  0  0  0  0  0  0  0  0
    9.9661  -17.9049   25.7771 C   0  0  0  0  0  0  0  0  0  0  0  0
    8.5708  -17.9379   25.7839 O   0  0  0  0  0  0  0  0  0  0  0  0
   10.6045  -18.8269   26.3181 O   0  0  0  0  0  0  0  0  0  0  0  0
  1  5  1  0
  2  1  1  0
  2  3  1  0
  3  4  1  0
  5  6  1  1
  5  4  1  0
  6  7  2  0
  8  9  1  0
  8  6  1  0
 10 11  1  0
  9 10  1  1
 11 16  2  0
 12 13  2  0
 12 11  1  0
 13 14  1  0
 14 15  2  0
 16 15  1  0
 17 18  2  0
 17  9  1  0
 19 17  1  0
 20 19  1  0
 20 28  1  0
 20 21  1  1
 22 21  1  0
 23 22  2  0
 24 23  1  0
 25 24  2  0
 25 26  1  0
 26 27  2  0
 27 22  1  0
 28 29  1  0
 30 28  2  0
M  END
$$$$
