PFF.pdb
     RDKit          3D

 30 32  0  0  1  0  0  0  0  0999 V2000
    8.2879  -19.6854   19.3309 N   0  0  0  0  0  0  0  0  0  0  0  0
    8.2809  -20.4151   18.0747 C   0  0  0  0  0  0  0  0  0  0  0  0
    8.5673  -19.3473   17.0432 C   0  0  0  0  0  0  0  0  0  0  0  0
    9.1521  -18.1702   17.8322 C   0  0  0  0  0  0  0  0  0  0  0  0
    9.4114  -18.8125   19.1673 C   0  0  1  0  0  0  0  0  0  0  0  0
    9.4811  -17.7611   20.2116 C   0  0  0  0  0  0  0  0  0  0  0  0
   10.5218  -17.0668   20.3397 O   0  0  0  0  0  0  0  0  0  0  0  0
    8.4116  -17.4803   21.1048 N   0  0  0  0  0  0  0  0  0  0  0  0
    8.4041  -16.3780   22.0422 C   0  0  1  0  0  0  0  0  0  0  0  0
    7.1227  -15.5734   21.9535 C   0  0  0  0  0  0  0  0  0  0  0  0
    7.3454  -14.2331   21.3779 C   0  0  0  0  0  0  0  0  0  0  0  0
    7.6915  -13.1891   22.2096 C   0  0  0  0  0  0  0  0  0  0  0  0
    7.9106  -11.9164   21.7196 C   0  0  0  0  0  0  0  0  0  0  0  0
    7.7914  -11.6390   20.3753 C   0  0  0  0  0  0  0  0  0  0  0  0
    7.4452  -12.6745   19.5294 C   0  0  0  0  0  0  0  0  0  0  0  0
    7.2276  -13.9498   20.0344 C   0  0  0  0  0  0  0  0  0  0  0  0
    8.4677  -16.9284   23.4135 C   0  0  0  0  0  0  0  0  0  0  0  0
    7.4069  -17.3168   23.9538 O   0  0  0  0  0  0  0  0  0  0  0  0
    9.6665  -17.0446   24.1614 N   0  0  0  0  0  0  0  0  0  0  0  0
   10.0268  -16.1260   25.2524 C   0  0  1  0  0  0  0  0  0  0  0  0
    9.0353  -16.1976   26.3594 C   0  0  0  0  0  0  0  0  0  0  0  0
    9.4408  -15.3405   27.4837 C   0  0  0  0  0  0  0  0  0  0  0  0
   10.0789  -15.8983   28.5777 C   0  0  0  0  0  0  0  0  0  0  0  0
   10.4854  -15.1005   29.6227 C   0  0  0  0  0  0  0  0  0  0  0  0
   10.2795  -13.7368   29.6274 C   0  0  0  0  0  0  0  0  0  0  0  0
    9.6516  -13.1733   28.5551 C   0  0  0  0  0  0  0  0  0  0  0  0
    9.2415  -13.9852   27.4983 C   0  0  0  0  0  0  0  0  0  0  0  0
   11.3696  -16.4882   25.7280 C   0  0  0  0  0  0  0  0  0  0  0  0
   12.4290  -15.6120   25.4875 O   0  0  0  0  0  0  0  0  0  0  0  0
   11.5803  -17.5537   26.3369 O   0  0  0  0  0  0  0  0  0  0  0  0
  1  5  1  0
  2  1  1  0
  2  3  1  0
  3  4  1  0
  5  6  1  1
  5  4  1  0
  6  7  2  0
  8  9  1  0
  8  6  1  0
 10 11  1  0
  9 10  1  1
 11 16  2  0
 12 13  2  0
 12 11  1  0
 13 14  1  0
 14 15  2  0
 16 15  1  0
 17 18  2  0
 17  9  1  0
 19 17  1  0
 20 19  1  0
 20 28  1  0
 20 21  1  1
 22 21  1  0
 23 22  2  0
 24 23  1  0
 25 24  2  0
 25 26  1  0
 26 27  2  0
 27 22  1  0
 28 29  1  0
 30 28  2  0
M  END
$$$$
