PFF.pdb
     RDKit          3D

 30 32  0  0  1  0  0  0  0  0999 V2000
    8.3750  -18.4609   19.2694 N   0  0  0  0  0  0  0  0  0  0  0  0
    8.0231  -18.8837   17.9248 C   0  0  0  0  0  0  0  0  0  0  0  0
    7.4715  -17.6266   17.2912 C   0  0  0  0  0  0  0  0  0  0  0  0
    7.9601  -16.4779   18.1811 C   0  0  0  0  0  0  0  0  0  0  0  0
    8.9769  -17.1824   19.0367 C   0  0  1  0  0  0  0  0  0  0  0  0
    9.1874  -16.4088   20.2849 C   0  0  0  0  0  0  0  0  0  0  0  0
   10.2372  -15.7337   20.4395 O   0  0  0  0  0  0  0  0  0  0  0  0
    8.2475  -16.3818   21.3508 N   0  0  0  0  0  0  0  0  0  0  0  0
    8.2869  -15.4359   22.4451 C   0  0  1  0  0  0  0  0  0  0  0  0
    6.9027  -15.1537   22.9943 C   0  0  0  0  0  0  0  0  0  0  0  0
    6.9224  -14.1258   24.0527 C   0  0  0  0  0  0  0  0  0  0  0  0
    6.5608  -14.4714   25.3377 C   0  0  0  0  0  0  0  0  0  0  0  0
    6.5628  -13.5460   26.3631 C   0  0  0  0  0  0  0  0  0  0  0  0
    6.9276  -12.2360   26.1413 C   0  0  0  0  0  0  0  0  0  0  0  0
    7.2925  -11.8744   24.8592 C   0  0  0  0  0  0  0  0  0  0  0  0
    7.2864  -12.8143   23.8368 C   0  0  0  0  0  0  0  0  0  0  0  0
    9.0709  -16.0294   23.5498 C   0  0  0  0  0  0  0  0  0  0  0  0
    8.7638  -17.1734   23.9562 O   0  0  0  0  0  0  0  0  0  0  0  0
   10.1589  -15.3774   24.1832 N   0  0  0  0  0  0  0  0  0  0  0  0
   10.6979  -15.7935   25.4873 C   0  0  1  0  0  0  0  0  0  0  0  0
   10.9760  -14.6139   26.3504 C   0  0  0  0  0  0  0  0  0  0  0  0
   10.9991  -14.9962   27.7704 C   0  0  0  0  0  0  0  0  0  0  0  0
   12.0475  -15.7546   28.2611 C   0  0  0  0  0  0  0  0  0  0  0  0
   12.0910  -16.0950   29.5937 C   0  0  0  0  0  0  0  0  0  0  0  0
   11.1120  -15.7039   30.4829 C   0  0  0  0  0  0  0  0  0  0  0  0
   10.0724  -14.9556   30.0130 C   0  0  0  0  0  0  0  0  0  0  0  0
   10.0321  -14.6128   28.6620 C   0  0  0  0  0  0  0  0  0  0  0  0
    9.7175  -16.6866   26.1211 C   0  0  0  0  0  0  0  0  0  0  0  0
    8.4121  -16.2298   26.3088 O   0  0  0  0  0  0  0  0  0  0  0  0
   10.0255  -17.8347   26.4919 O   0  0  0  0  0  0  0  0  0  0  0  0
  1  5  1  0
  2  1  1  0
  2  3  1  0
  3  4  1  0
  5  6  1  1
  5  4  1  0
  6  7  2  0
  8  9  1  0
  8  6  1  0
 10 11  1  0
  9 10  1  1
 11 16  2  0
 12 13  2  0
 12 11  1  0
 13 14  1  0
 14 15  2  0
 16 15  1  0
 17 18  2  0
 17  9  1  0
 19 17  1  0
 20 19  1  0
 20 28  1  0
 20 21  1  1
 22 21  1  0
 23 22  2  0
 24 23  1  0
 25 24  2  0
 25 26  1  0
 26 27  2  0
 27 22  1  0
 28 29  1  0
 30 28  2  0
M  END
$$$$
