PQW.pdb
     RDKit          3D

 31 33  0  0  1  0  0  0  0  0999 V2000
    5.4621  -19.0429   21.9271 N   0  0  0  0  0  0  0  0  0  0  0  0
    4.7041  -20.0413   21.1410 C   0  0  0  0  0  0  0  0  0  0  0  0
    5.8395  -20.5998   20.3084 C   0  0  0  0  0  0  0  0  0  0  0  0
    6.8844  -20.8584   21.3649 C   0  0  0  0  0  0  0  0  0  0  0  0
    6.6509  -19.7260   22.3351 C   0  0  1  0  0  0  0  0  0  0  0  0
    7.8661  -18.8958   22.3981 C   0  0  0  0  0  0  0  0  0  0  0  0
    8.9272  -19.3550   22.9493 O   0  0  0  0  0  0  0  0  0  0  0  0
    9.2919  -13.7148   19.1254 N   0  0  0  0  0  0  0  0  0  0  0  0
   10.5568  -14.1106   19.6399 C   0  0  0  0  0  0  0  0  0  0  0  0
   11.5782  -13.6899   19.0938 O   0  0  0  0  0  0  0  0  0  0  0  0
   10.5828  -15.0086   20.8086 C   0  0  0  0  0  0  0  0  0  0  0  0
    9.3033  -15.7345   20.9455 C   0  0  0  0  0  0  0  0  0  0  0  0
    9.2523  -16.8283   21.9596 C   0  0  2  0  0  0  0  0  0  0  0  0
    7.9917  -17.5763   21.8883 N   0  0  0  0  0  0  0  0  0  0  0  0
    9.2873  -16.1993   23.3149 C   0  0  0  0  0  0  0  0  0  0  0  0
    8.3160  -15.4924   23.6727 O   0  0  0  0  0  0  0  0  0  0  0  0
   10.3409  -16.3473   24.2197 N   0  0  0  0  0  0  0  0  0  0  0  0
   10.3558  -15.7345   25.5691 C   0  0  1  0  0  0  0  0  0  0  0  0
    9.2193  -16.2943   26.3359 C   0  0  0  0  0  0  0  0  0  0  0  0
    7.9219  -15.6168   26.1981 C   0  0  0  0  0  0  0  0  0  0  0  0
    6.7536  -16.2147   25.7041 C   0  0  0  0  0  0  0  0  0  0  0  0
    5.7585  -15.3162   25.6799 N   0  0  0  0  0  0  0  0  0  0  0  0
    6.2586  -14.1692   26.1433 C   0  0  0  0  0  0  0  0  0  0  0  0
    5.6595  -12.9291   26.3416 C   0  0  0  0  0  0  0  0  0  0  0  0
    6.3826  -11.8849   26.8537 C   0  0  0  0  0  0  0  0  0  0  0  0
    7.7103  -12.0053   27.1912 C   0  0  0  0  0  0  0  0  0  0  0  0
    8.2960  -13.2278   26.9937 C   0  0  0  0  0  0  0  0  0  0  0  0
    7.5828  -14.2911   26.4782 C   0  0  0  0  0  0  0  0  0  0  0  0
   11.7083  -15.9383   26.0990 C   0  0  0  0  0  0  0  0  0  0  0  0
   12.0195  -15.5852   27.2948 O   0  0  0  0  0  0  0  0  0  0  0  0
   12.7675  -16.5150   25.4079 O   0  0  0  0  0  0  0  0  0  0  0  0
  1  5  1  0
  2  1  1  0
  2  3  1  0
  3  4  1  0
  5  4  1  0
  6  7  2  0
  5  6  1  6
  8  9  1  0
  9 11  1  0
 10  9  2  0
 11 12  1  0
 13 12  1  6
 13 14  1  0
 14  6  1  0
 15 17  1  0
 15 13  1  0
 16 15  2  0
 18 17  1  0
 18 29  1  0
 18 19  1  1
 20 28  1  0
 20 19  1  0
 21 20  2  0
 22 21  1  0
 22 23  1  0
 23 28  2  0
 24 23  1  0
 24 25  2  0
 25 26  1  0
 27 26  2  0
 28 27  1  0
 29 31  1  0
 30 29  2  0
M  END
$$$$
