PQW.pdb
     RDKit          3D

 31 33  0  0  1  0  0  0  0  0999 V2000
    9.4571  -14.2410   18.4930 N   0  0  0  0  0  0  0  0  0  0  0  0
    8.7675  -13.4191   17.4740 C   0  0  0  0  0  0  0  0  0  0  0  0
    7.3574  -13.4954   18.0218 C   0  0  0  0  0  0  0  0  0  0  0  0
    7.5842  -13.1630   19.4754 C   0  0  0  0  0  0  0  0  0  0  0  0
    8.9317  -13.7878   19.7439 C   0  0  1  0  0  0  0  0  0  0  0  0
    8.7768  -14.8263   20.7771 C   0  0  0  0  0  0  0  0  0  0  0  0
    8.1808  -14.5512   21.8770 O   0  0  0  0  0  0  0  0  0  0  0  0
    6.7560  -20.0046   19.5511 N   0  0  0  0  0  0  0  0  0  0  0  0
    7.9996  -20.1076   20.2324 C   0  0  0  0  0  0  0  0  0  0  0  0
    8.2013  -21.0843   20.9561 O   0  0  0  0  0  0  0  0  0  0  0  0
    8.9916  -19.0350   20.0363 C   0  0  0  0  0  0  0  0  0  0  0  0
    9.4696  -18.5141   21.3336 C   0  0  0  0  0  0  0  0  0  0  0  0
    8.9960  -17.1561   21.7322 C   0  0  2  0  0  0  0  0  0  0  0  0
    9.2412  -16.1646   20.6784 N   0  0  0  0  0  0  0  0  0  0  0  0
    9.8012  -16.7174   22.9124 C   0  0  0  0  0  0  0  0  0  0  0  0
   10.9206  -16.1906   22.7116 O   0  0  0  0  0  0  0  0  0  0  0  0
    9.3862  -16.8565   24.2387 N   0  0  0  0  0  0  0  0  0  0  0  0
   10.1325  -16.3047   25.3941 C   0  0  1  0  0  0  0  0  0  0  0  0
    9.7366  -14.8871   25.5568 C   0  0  0  0  0  0  0  0  0  0  0  0
    8.2968  -14.5996   25.6314 C   0  0  0  0  0  0  0  0  0  0  0  0
    7.2791  -15.5365   25.4016 C   0  0  0  0  0  0  0  0  0  0  0  0
    6.0815  -14.9444   25.5181 N   0  0  0  0  0  0  0  0  0  0  0  0
    6.3080  -13.6634   25.8150 C   0  0  0  0  0  0  0  0  0  0  0  0
    5.4255  -12.6151   26.0559 C   0  0  0  0  0  0  0  0  0  0  0  0
    5.8998  -11.3678   26.3637 C   0  0  0  0  0  0  0  0  0  0  0  0
    7.2445  -11.0926   26.4489 C   0  0  0  0  0  0  0  0  0  0  0  0
    8.1095  -12.1277   26.2104 C   0  0  0  0  0  0  0  0  0  0  0  0
    7.6494  -13.3910   25.8983 C   0  0  0  0  0  0  0  0  0  0  0  0
    9.8898  -17.2183   26.5156 C   0  0  0  0  0  0  0  0  0  0  0  0
    9.1680  -18.2725   26.3768 O   0  0  0  0  0  0  0  0  0  0  0  0
   10.3905  -17.0662   27.8034 O   0  0  0  0  0  0  0  0  0  0  0  0
  1  5  1  0
  2  1  1  0
  2  3  1  0
  3  4  1  0
  5  4  1  0
  6  7  2  0
  5  6  1  1
  8  9  1  0
  9 11  1  0
 10  9  2  0
 11 12  1  0
 13 12  1  6
 13 14  1  0
 14  6  1  0
 15 17  1  0
 15 13  1  0
 16 15  2  0
 18 17  1  0
 18 29  1  0
 18 19  1  1
 20 28  1  0
 20 19  1  0
 21 20  2  0
 22 21  1  0
 22 23  1  0
 23 28  2  0
 24 23  1  0
 24 25  2  0
 25 26  1  0
 27 26  2  0
 28 27  1  0
 29 31  1  0
 30 29  2  0
M  END
$$$$
