PQW.pdb
     RDKit          3D

 31 33  0  0  1  0  0  0  0  0999 V2000
    9.5054  -13.8588   19.2779 N   0  0  0  0  0  0  0  0  0  0  0  0
    8.8661  -13.1331   18.1580 C   0  0  0  0  0  0  0  0  0  0  0  0
    7.4299  -13.5546   18.3909 C   0  0  0  0  0  0  0  0  0  0  0  0
    7.2776  -13.2897   19.8679 C   0  0  0  0  0  0  0  0  0  0  0  0
    8.6497  -13.6249   20.4001 C   0  0  1  0  0  0  0  0  0  0  0  0
    8.5311  -14.7460   21.3482 C   0  0  0  0  0  0  0  0  0  0  0  0
    7.7417  -14.6541   22.3527 O   0  0  0  0  0  0  0  0  0  0  0  0
   10.8495  -20.5455   20.8750 N   0  0  0  0  0  0  0  0  0  0  0  0
   10.3260  -20.6373   22.1936 C   0  0  0  0  0  0  0  0  0  0  0  0
   10.4372  -21.7020   22.8039 O   0  0  0  0  0  0  0  0  0  0  0  0
    9.6740  -19.4466   22.7682 C   0  0  0  0  0  0  0  0  0  0  0  0
    9.7511  -18.3015   21.8378 C   0  0  0  0  0  0  0  0  0  0  0  0
    9.0601  -17.0457   22.2535 C   0  0  2  0  0  0  0  0  0  0  0  0
    9.2337  -15.9771   21.2627 N   0  0  0  0  0  0  0  0  0  0  0  0
    9.7087  -16.5591   23.5090 C   0  0  0  0  0  0  0  0  0  0  0  0
   10.6412  -15.7266   23.4178 O   0  0  0  0  0  0  0  0  0  0  0  0
    9.3423  -16.9741   24.7912 N   0  0  0  0  0  0  0  0  0  0  0  0
    9.9901  -16.4812   26.0297 C   0  0  1  0  0  0  0  0  0  0  0  0
    8.9272  -16.2236   27.0280 C   0  0  0  0  0  0  0  0  0  0  0  0
    7.7826  -15.4110   26.5910 C   0  0  0  0  0  0  0  0  0  0  0  0
    6.6314  -15.9160   25.9696 C   0  0  0  0  0  0  0  0  0  0  0  0
    5.7968  -14.9095   25.6721 N   0  0  0  0  0  0  0  0  0  0  0  0
    6.3819  -13.7838   26.0856 C   0  0  0  0  0  0  0  0  0  0  0  0
    5.9494  -12.4622   26.0372 C   0  0  0  0  0  0  0  0  0  0  0  0
    6.7293  -11.4595   26.5488 C   0  0  0  0  0  0  0  0  0  0  0  0
    7.9543  -11.7016   27.1247 C   0  0  0  0  0  0  0  0  0  0  0  0
    8.3762  -13.0041   27.1696 C   0  0  0  0  0  0  0  0  0  0  0  0
    7.6037  -14.0274   26.6585 C   0  0  0  0  0  0  0  0  0  0  0  0
   11.0282  -17.4602   26.3692 C   0  0  0  0  0  0  0  0  0  0  0  0
   11.1553  -18.5572   25.7119 O   0  0  0  0  0  0  0  0  0  0  0  0
   11.9606  -17.3262   27.3914 O   0  0  0  0  0  0  0  0  0  0  0  0
  1  5  1  0
  2  1  1  0
  2  3  1  0
  3  4  1  0
  5  4  1  0
  6  7  2  0
  5  6  1  1
  8  9  1  0
  9 11  1  0
 10  9  2  0
 11 12  1  0
 13 12  1  6
 13 14  1  0
 14  6  1  0
 15 17  1  0
 15 13  1  0
 16 15  2  0
 18 17  1  0
 18 29  1  0
 18 19  1  1
 20 28  1  0
 20 19  1  0
 21 20  2  0
 22 21  1  0
 22 23  1  0
 23 28  2  0
 24 23  1  0
 24 25  2  0
 25 26  1  0
 27 26  2  0
 28 27  1  0
 29 31  1  0
 30 29  2  0
M  END
$$$$
