PQW.pdb
     RDKit          3D

 31 33  0  0  1  0  0  0  0  0999 V2000
    9.5946  -14.0305   19.0487 N   0  0  0  0  0  0  0  0  0  0  0  0
    9.0213  -13.3359   17.8748 C   0  0  0  0  0  0  0  0  0  0  0  0
    7.5589  -13.6622   18.0965 C   0  0  0  0  0  0  0  0  0  0  0  0
    7.3913  -13.3045   19.5522 C   0  0  0  0  0  0  0  0  0  0  0  0
    8.7307  -13.6847   20.1351 C   0  0  1  0  0  0  0  0  0  0  0  0
    8.5285  -14.7408   21.1418 C   0  0  0  0  0  0  0  0  0  0  0  0
    7.6737  -14.5746   22.0812 O   0  0  0  0  0  0  0  0  0  0  0  0
   11.1954  -20.7008   22.2642 N   0  0  0  0  0  0  0  0  0  0  0  0
   11.4700  -19.6934   21.2993 C   0  0  0  0  0  0  0  0  0  0  0  0
   12.0717  -20.0050   20.2701 O   0  0  0  0  0  0  0  0  0  0  0  0
   11.0171  -18.3189   21.5798 C   0  0  0  0  0  0  0  0  0  0  0  0
    9.5775  -18.2945   21.9112 C   0  0  0  0  0  0  0  0  0  0  0  0
    8.9843  -16.9671   22.2482 C   0  0  2  0  0  0  0  0  0  0  0  0
    9.2143  -15.9836   21.1836 N   0  0  0  0  0  0  0  0  0  0  0  0
    9.6886  -16.4437   23.4581 C   0  0  0  0  0  0  0  0  0  0  0  0
   10.7058  -15.7293   23.2970 O   0  0  0  0  0  0  0  0  0  0  0  0
    9.2859  -16.7000   24.7706 N   0  0  0  0  0  0  0  0  0  0  0  0
   10.0322  -16.2349   25.9636 C   0  0  1  0  0  0  0  0  0  0  0  0
    9.0493  -15.7149   26.9414 C   0  0  0  0  0  0  0  0  0  0  0  0
    7.8140  -15.1294   26.4005 C   0  0  0  0  0  0  0  0  0  0  0  0
    6.7610  -15.8617   25.8334 C   0  0  0  0  0  0  0  0  0  0  0  0
    5.8019  -15.0253   25.4106 N   0  0  0  0  0  0  0  0  0  0  0  0
    6.2131  -13.7876   25.6923 C   0  0  0  0  0  0  0  0  0  0  0  0
    5.6015  -12.5554   25.4828 C   0  0  0  0  0  0  0  0  0  0  0  0
    6.2202  -11.3994   25.8782 C   0  0  0  0  0  0  0  0  0  0  0  0
    7.4518  -11.3965   26.4899 C   0  0  0  0  0  0  0  0  0  0  0  0
    8.0503  -12.6117   26.6935 C   0  0  0  0  0  0  0  0  0  0  0  0
    7.4418  -13.7869   26.3010 C   0  0  0  0  0  0  0  0  0  0  0  0
   10.8862  -17.3535   26.3771 C   0  0  0  0  0  0  0  0  0  0  0  0
   10.7547  -18.5232   25.8612 O   0  0  0  0  0  0  0  0  0  0  0  0
   11.8973  -17.2881   27.3287 O   0  0  0  0  0  0  0  0  0  0  0  0
  1  5  1  0
  2  1  1  0
  2  3  1  0
  3  4  1  0
  5  4  1  0
  6  7  2  0
  5  6  1  1
  8  9  1  0
  9 11  1  0
 10  9  2  0
 11 12  1  0
 13 12  1  6
 13 14  1  0
 14  6  1  0
 15 17  1  0
 15 13  1  0
 16 15  2  0
 18 17  1  0
 18 29  1  0
 18 19  1  1
 20 28  1  0
 20 19  1  0
 21 20  2  0
 22 21  1  0
 22 23  1  0
 23 28  2  0
 24 23  1  0
 24 25  2  0
 25 26  1  0
 27 26  2  0
 28 27  1  0
 29 31  1  0
 30 29  2  0
M  END
$$$$
