PQW.pdb
     RDKit          3D

 31 33  0  0  1  0  0  0  0  0999 V2000
    9.6282  -18.0699   18.5425 N   0  0  0  0  0  0  0  0  0  0  0  0
    9.5015  -18.4188   17.1102 C   0  0  0  0  0  0  0  0  0  0  0  0
    8.0224  -18.1469   16.9294 C   0  0  0  0  0  0  0  0  0  0  0  0
    7.8907  -16.7839   17.5615 C   0  0  0  0  0  0  0  0  0  0  0  0
    8.8937  -16.8510   18.6875 C   0  0  1  0  0  0  0  0  0  0  0  0
    8.1829  -16.6906   19.9676 C   0  0  0  0  0  0  0  0  0  0  0  0
    7.5686  -15.5967   20.2261 O   0  0  0  0  0  0  0  0  0  0  0  0
    6.4105  -21.1897   24.0577 N   0  0  0  0  0  0  0  0  0  0  0  0
    6.2733  -20.0201   24.8542 C   0  0  0  0  0  0  0  0  0  0  0  0
    6.1469  -20.1435   26.0738 O   0  0  0  0  0  0  0  0  0  0  0  0
    6.2905  -18.7109   24.1771 C   0  0  0  0  0  0  0  0  0  0  0  0
    7.1062  -18.7634   22.9464 C   0  0  0  0  0  0  0  0  0  0  0  0
    7.2404  -17.4957   22.1703 C   0  0  2  0  0  0  0  0  0  0  0  0
    8.1030  -17.6672   20.9954 N   0  0  0  0  0  0  0  0  0  0  0  0
    7.9215  -16.4927   23.0443 C   0  0  0  0  0  0  0  0  0  0  0  0
    7.2467  -15.5411   23.5027 O   0  0  0  0  0  0  0  0  0  0  0  0
    9.2741  -16.5442   23.3882 N   0  0  0  0  0  0  0  0  0  0  0  0
    9.8995  -15.6534   24.3942 C   0  0  1  0  0  0  0  0  0  0  0  0
    9.2118  -15.8734   25.6871 C   0  0  0  0  0  0  0  0  0  0  0  0
    7.9878  -15.0971   25.9337 C   0  0  0  0  0  0  0  0  0  0  0  0
    6.6942  -15.6355   25.9877 C   0  0  0  0  0  0  0  0  0  0  0  0
    5.8027  -14.6559   26.1975 N   0  0  0  0  0  0  0  0  0  0  0  0
    6.4901  -13.5152   26.2790 C   0  0  0  0  0  0  0  0  0  0  0  0
    6.0638  -12.2095   26.5014 C   0  0  0  0  0  0  0  0  0  0  0  0
    6.9714  -11.1858   26.5615 C   0  0  0  0  0  0  0  0  0  0  0  0
    8.3226  -11.3908   26.4084 C   0  0  0  0  0  0  0  0  0  0  0  0
    8.7375  -12.6777   26.1890 C   0  0  0  0  0  0  0  0  0  0  0  0
    7.8369  -13.7217   26.1249 C   0  0  0  0  0  0  0  0  0  0  0  0
   11.3422  -15.9103   24.3316 C   0  0  0  0  0  0  0  0  0  0  0  0
   11.8077  -17.0019   23.8384 O   0  0  0  0  0  0  0  0  0  0  0  0
   12.3360  -15.0440   24.7724 O   0  0  0  0  0  0  0  0  0  0  0  0
  1  5  1  0
  2  1  1  0
  2  3  1  0
  3  4  1  0
  5  4  1  0
  6  7  2  0
  5  6  1  1
  8  9  1  0
  9 11  1  0
 10  9  2  0
 11 12  1  0
 13 12  1  1
 13 14  1  0
 14  6  1  0
 15 17  1  0
 15 13  1  0
 16 15  2  0
 18 17  1  0
 18 29  1  0
 18 19  1  1
 20 28  1  0
 20 19  1  0
 21 20  2  0
 22 21  1  0
 22 23  1  0
 23 28  2  0
 24 23  1  0
 24 25  2  0
 25 26  1  0
 27 26  2  0
 28 27  1  0
 29 31  1  0
 30 29  2  0
M  END
$$$$
