PQW.pdb
     RDKit          3D

 31 33  0  0  1  0  0  0  0  0999 V2000
    8.9956  -14.2830   18.3352 N   0  0  0  0  0  0  0  0  0  0  0  0
    8.3189  -13.3601   17.3973 C   0  0  0  0  0  0  0  0  0  0  0  0
    6.9816  -13.2462   18.0994 C   0  0  0  0  0  0  0  0  0  0  0  0
    7.4125  -12.9673   19.5176 C   0  0  0  0  0  0  0  0  0  0  0  0
    8.6808  -13.7771   19.6357 C   0  0  1  0  0  0  0  0  0  0  0  0
    8.4980  -14.7970   20.6826 C   0  0  0  0  0  0  0  0  0  0  0  0
    8.0939  -14.4526   21.8483 O   0  0  0  0  0  0  0  0  0  0  0  0
    9.2438  -21.2800   20.3377 N   0  0  0  0  0  0  0  0  0  0  0  0
    8.8215  -20.2404   19.4646 C   0  0  0  0  0  0  0  0  0  0  0  0
    9.0745  -20.3351   18.2623 O   0  0  0  0  0  0  0  0  0  0  0  0
    8.0966  -19.0955   20.0449 C   0  0  0  0  0  0  0  0  0  0  0  0
    8.8254  -18.5420   21.2048 C   0  0  0  0  0  0  0  0  0  0  0  0
    8.4860  -17.1471   21.6128 C   0  0  2  0  0  0  0  0  0  0  0  0
    8.7341  -16.1889   20.5293 N   0  0  0  0  0  0  0  0  0  0  0  0
    9.4015  -16.7600   22.7290 C   0  0  0  0  0  0  0  0  0  0  0  0
   10.3349  -15.9590   22.4878 O   0  0  0  0  0  0  0  0  0  0  0  0
    9.2861  -17.2358   24.0370 N   0  0  0  0  0  0  0  0  0  0  0  0
   10.0170  -16.6559   25.1885 C   0  0  1  0  0  0  0  0  0  0  0  0
    9.7462  -15.2003   25.2133 C   0  0  0  0  0  0  0  0  0  0  0  0
    8.3740  -14.7811   25.5340 C   0  0  0  0  0  0  0  0  0  0  0  0
    7.2463  -15.6120   25.4703 C   0  0  0  0  0  0  0  0  0  0  0  0
    6.1483  -14.9135   25.7943 N   0  0  0  0  0  0  0  0  0  0  0  0
    6.5445  -13.6678   26.0617 C   0  0  0  0  0  0  0  0  0  0  0  0
    5.8207  -12.5480   26.4595 C   0  0  0  0  0  0  0  0  0  0  0  0
    6.4586  -11.3593   26.6953 C   0  0  0  0  0  0  0  0  0  0  0  0
    7.8188  -11.2139   26.5542 C   0  0  0  0  0  0  0  0  0  0  0  0
    8.5271  -12.3188   26.1618 C   0  0  0  0  0  0  0  0  0  0  0  0
    7.9009  -13.5247   25.9193 C   0  0  0  0  0  0  0  0  0  0  0  0
    9.6304  -17.4463   26.3621 C   0  0  0  0  0  0  0  0  0  0  0  0
   10.1497  -17.2285   27.5172 O   0  0  0  0  0  0  0  0  0  0  0  0
    8.6961  -18.4754   26.3698 O   0  0  0  0  0  0  0  0  0  0  0  0
  1  5  1  0
  2  1  1  0
  2  3  1  0
  3  4  1  0
  5  4  1  0
  6  7  2  0
  5  6  1  1
  8  9  1  0
  9 11  1  0
 10  9  2  0
 11 12  1  0
 13 12  1  6
 13 14  1  0
 14  6  1  0
 15 17  1  0
 15 13  1  0
 16 15  2  0
 18 17  1  0
 18 29  1  0
 18 19  1  1
 20 28  1  0
 20 19  1  0
 21 20  2  0
 22 21  1  0
 22 23  1  0
 23 28  2  0
 24 23  1  0
 24 25  2  0
 25 26  1  0
 27 26  2  0
 28 27  1  0
 29 31  1  0
 30 29  2  0
M  END
$$$$
