PQW.pdb
     RDKit          3D

 31 33  0  0  1  0  0  0  0  0999 V2000
    8.5846  -13.2300   20.5381 N   0  0  0  0  0  0  0  0  0  0  0  0
    7.8397  -12.7949   19.3360 C   0  0  0  0  0  0  0  0  0  0  0  0
    7.2657  -14.1320   18.9154 C   0  0  0  0  0  0  0  0  0  0  0  0
    6.6990  -14.6363   20.2190 C   0  0  0  0  0  0  0  0  0  0  0  0
    7.6853  -14.1020   21.2289 C   0  0  1  0  0  0  0  0  0  0  0  0
    8.3159  -15.2372   21.9241 C   0  0  0  0  0  0  0  0  0  0  0  0
    7.5876  -16.1520   22.4473 O   0  0  0  0  0  0  0  0  0  0  0  0
   14.3313  -17.5716   21.8449 N   0  0  0  0  0  0  0  0  0  0  0  0
   13.7484  -16.4407   21.2104 C   0  0  0  0  0  0  0  0  0  0  0  0
   14.3185  -15.9469   20.2359 O   0  0  0  0  0  0  0  0  0  0  0  0
   12.4831  -15.9135   21.7526 C   0  0  0  0  0  0  0  0  0  0  0  0
   11.5848  -17.0130   22.1612 C   0  0  0  0  0  0  0  0  0  0  0  0
   10.2638  -16.6269   22.7384 C   0  0  2  0  0  0  0  0  0  0  0  0
    9.7131  -15.4343   22.0841 N   0  0  0  0  0  0  0  0  0  0  0  0
   10.4796  -16.2547   24.1697 C   0  0  0  0  0  0  0  0  0  0  0  0
   11.4454  -15.5088   24.4556 O   0  0  0  0  0  0  0  0  0  0  0  0
    9.6691  -16.6868   25.2218 N   0  0  0  0  0  0  0  0  0  0  0  0
    9.9568  -16.4053   26.6482 C   0  0  1  0  0  0  0  0  0  0  0  0
    8.6629  -16.2516   27.3518 C   0  0  0  0  0  0  0  0  0  0  0  0
    7.6318  -15.4426   26.6857 C   0  0  0  0  0  0  0  0  0  0  0  0
    6.6268  -15.9532   25.8516 C   0  0  0  0  0  0  0  0  0  0  0  0
    5.8722  -14.9490   25.3822 N   0  0  0  0  0  0  0  0  0  0  0  0
    6.3662  -13.8195   25.8927 C   0  0  0  0  0  0  0  0  0  0  0  0
    5.9566  -12.4981   25.7445 C   0  0  0  0  0  0  0  0  0  0  0  0
    6.6215  -11.4906   26.3914 C   0  0  0  0  0  0  0  0  0  0  0  0
    7.7054  -11.7277   27.2037 C   0  0  0  0  0  0  0  0  0  0  0  0
    8.1054  -13.0301   27.3461 C   0  0  0  0  0  0  0  0  0  0  0  0
    7.4477  -14.0582   26.7014 C   0  0  0  0  0  0  0  0  0  0  0  0
   10.8637  -17.4649   27.1023 C   0  0  0  0  0  0  0  0  0  0  0  0
   11.3626  -17.4578   28.2866 O   0  0  0  0  0  0  0  0  0  0  0  0
   11.2716  -18.5572   26.3456 O   0  0  0  0  0  0  0  0  0  0  0  0
  1  5  1  0
  2  1  1  0
  2  3  1  0
  3  4  1  0
  5  4  1  0
  6  7  2  0
  5  6  1  6
  8  9  1  0
  9 11  1  0
 10  9  2  0
 11 12  1  0
 13 12  1  6
 13 14  1  0
 14  6  1  0
 15 17  1  0
 15 13  1  0
 16 15  2  0
 18 17  1  0
 18 29  1  0
 18 19  1  1
 20 28  1  0
 20 19  1  0
 21 20  2  0
 22 21  1  0
 22 23  1  0
 23 28  2  0
 24 23  1  0
 24 25  2  0
 25 26  1  0
 27 26  2  0
 28 27  1  0
 29 31  1  0
 30 29  2  0
M  END
$$$$
