ASS.pdb
     RDKit          3D

 18 17  0  0  1  0  0  0  0  0999 V2000
   11.3852  -20.2493   18.9265 C   0  0  0  0  0  0  0  0  0  0  0  0
   11.0140  -18.8618   18.5160 C   0  0  2  0  0  0  0  0  0  0  0  0
   11.4269  -18.5978   17.1352 N   0  0  0  0  0  0  0  0  0  0  0  0
   11.6947  -17.8669   19.3914 C   0  0  0  0  0  0  0  0  0  0  0  0
   12.9040  -17.5514   19.1960 O   0  0  0  0  0  0  0  0  0  0  0  0
    9.8620  -16.2584   22.8299 O   0  0  0  0  0  0  0  0  0  0  0  0
   10.6230  -15.4376   22.0002 C   0  0  0  0  0  0  0  0  0  0  0  0
   11.7109  -16.2658   21.3220 C   0  0  2  0  0  0  0  0  0  0  0  0
   11.0313  -17.2316   20.4734 N   0  0  0  0  0  0  0  0  0  0  0  0
   12.4867  -16.9545   22.3928 C   0  0  0  0  0  0  0  0  0  0  0  0
   12.0237  -17.9909   22.9189 O   0  0  0  0  0  0  0  0  0  0  0  0
   16.4892  -17.1425   22.3528 O   0  0  0  0  0  0  0  0  0  0  0  0
   15.6642  -17.9030   23.1431 C   0  0  0  0  0  0  0  0  0  0  0  0
   14.5700  -17.0772   23.7796 C   0  0  2  0  0  0  0  0  0  0  0  0
   13.7400  -16.4238   22.7998 N   0  0  0  0  0  0  0  0  0  0  0  0
   15.1074  -16.1040   24.7560 C   0  0  0  0  0  0  0  0  0  0  0  0
   14.9638  -14.8679   24.6112 O   0  0  0  0  0  0  0  0  0  0  0  0
   15.7885  -16.5832   25.8606 O   0  0  0  0  0  0  0  0  0  0  0  0
  2  1  1  1
  2  3  1  0
  4  2  1  0
  4  5  2  0
  6  7  1  0
  8  7  1  1
  8  9  1  0
  9  4  1  0
 10  8  1  0
 11 10  2  0
 12 13  1  0
 14 13  1  6
 14 15  1  0
 14 16  1  0
 15 10  1  0
 16 18  1  0
 17 16  2  0
M  END
$$$$
