ASS.pdb
     RDKit          3D

 18 17  0  0  1  0  0  0  0  0999 V2000
    7.1373  -18.4703   17.3882 C   0  0  0  0  0  0  0  0  0  0  0  0
    7.7969  -17.2826   16.7672 C   0  0  2  0  0  0  0  0  0  0  0  0
    8.7229  -17.6938   15.7087 N   0  0  0  0  0  0  0  0  0  0  0  0
    8.5805  -16.5357   17.7908 C   0  0  0  0  0  0  0  0  0  0  0  0
    9.7380  -16.9186   18.1279 O   0  0  0  0  0  0  0  0  0  0  0  0
    8.0777  -12.5460   18.5480 O   0  0  0  0  0  0  0  0  0  0  0  0
    8.1067  -13.3422   19.6911 C   0  0  0  0  0  0  0  0  0  0  0  0
    8.8699  -14.6306   19.3964 C   0  0  2  0  0  0  0  0  0  0  0  0
    8.0761  -15.3736   18.4307 N   0  0  0  0  0  0  0  0  0  0  0  0
    8.9910  -15.3858   20.6761 C   0  0  0  0  0  0  0  0  0  0  0  0
    7.9649  -15.8656   21.2073 O   0  0  0  0  0  0  0  0  0  0  0  0
   11.5268  -18.1073   21.1124 O   0  0  0  0  0  0  0  0  0  0  0  0
   10.5481  -17.8600   22.0424 C   0  0  0  0  0  0  0  0  0  0  0  0
   10.4804  -16.3978   22.4185 C   0  0  2  0  0  0  0  0  0  0  0  0
   10.2696  -15.5494   21.2733 N   0  0  0  0  0  0  0  0  0  0  0  0
   11.6691  -15.9681   23.1876 C   0  0  0  0  0  0  0  0  0  0  0  0
   12.4312  -15.0601   22.7823 O   0  0  0  0  0  0  0  0  0  0  0  0
   11.9398  -16.5943   24.3911 O   0  0  0  0  0  0  0  0  0  0  0  0
  2  1  1  1
  2  3  1  0
  4  2  1  0
  4  5  2  0
  6  7  1  0
  8  7  1  1
  8  9  1  0
  9  4  1  0
 10  8  1  0
 11 10  2  0
 12 13  1  0
 14 13  1  6
 14 15  1  0
 14 16  1  0
 15 10  1  0
 16 18  1  0
 17 16  2  0
M  END
$$$$
