ASS.pdb
     RDKit          3D

 18 17  0  0  1  0  0  0  0  0999 V2000
    8.5017  -19.7535   17.4041 C   0  0  0  0  0  0  0  0  0  0  0  0
    8.1786  -18.3390   17.0490 C   0  0  2  0  0  0  0  0  0  0  0  0
    8.8900  -17.9300   15.8350 N   0  0  0  0  0  0  0  0  0  0  0  0
    8.5953  -17.4245   18.1489 C   0  0  0  0  0  0  0  0  0  0  0  0
    9.7793  -16.9841   18.2126 O   0  0  0  0  0  0  0  0  0  0  0  0
    7.2117  -14.9569   22.1132 O   0  0  0  0  0  0  0  0  0  0  0  0
    6.8656  -15.7667   21.0334 C   0  0  0  0  0  0  0  0  0  0  0  0
    8.1167  -16.1035   20.2267 C   0  0  2  0  0  0  0  0  0  0  0  0
    7.6984  -17.0068   19.1665 N   0  0  0  0  0  0  0  0  0  0  0  0
    9.0789  -16.7751   21.1463 C   0  0  0  0  0  0  0  0  0  0  0  0
    8.9040  -17.9760   21.4504 O   0  0  0  0  0  0  0  0  0  0  0  0
   13.5029  -16.6648   23.0654 O   0  0  0  0  0  0  0  0  0  0  0  0
   12.5426  -16.0313   22.3170 C   0  0  0  0  0  0  0  0  0  0  0  0
   11.1754  -16.6453   22.5123 C   0  0  2  0  0  0  0  0  0  0  0  0
   10.1801  -16.0416   21.6635 N   0  0  0  0  0  0  0  0  0  0  0  0
   10.7534  -16.6178   23.9302 C   0  0  0  0  0  0  0  0  0  0  0  0
    9.8442  -15.8591   24.3391 O   0  0  0  0  0  0  0  0  0  0  0  0
   11.3884  -17.4599   24.8255 O   0  0  0  0  0  0  0  0  0  0  0  0
  2  1  1  1
  2  3  1  0
  4  2  1  0
  4  5  2  0
  6  7  1  0
  8  7  1  1
  8  9  1  0
  9  4  1  0
 10  8  1  0
 11 10  2  0
 12 13  1  0
 14 13  1  1
 14 15  1  0
 14 16  1  0
 15 10  1  0
 16 18  1  0
 17 16  2  0
M  END
$$$$
