ASS.pdb
     RDKit          3D

 18 17  0  0  1  0  0  0  0  0999 V2000
    9.0811  -12.2074   19.3718 C   0  0  0  0  0  0  0  0  0  0  0  0
    8.1891  -13.3290   18.9504 C   0  0  2  0  0  0  0  0  0  0  0  0
    6.7814  -12.9883   19.1730 N   0  0  0  0  0  0  0  0  0  0  0  0
    8.4909  -14.5526   19.7449 C   0  0  0  0  0  0  0  0  0  0  0  0
    7.9025  -14.7748   20.8423 O   0  0  0  0  0  0  0  0  0  0  0  0
    9.7112  -17.9217   18.1780 O   0  0  0  0  0  0  0  0  0  0  0  0
   10.5264  -17.6469   19.2741 C   0  0  0  0  0  0  0  0  0  0  0  0
    9.8423  -16.6215   20.1742 C   0  0  2  0  0  0  0  0  0  0  0  0
    9.4401  -15.5174   19.3175 N   0  0  0  0  0  0  0  0  0  0  0  0
   10.8414  -16.1714   21.1851 C   0  0  0  0  0  0  0  0  0  0  0  0
   11.0358  -14.9473   21.3559 O   0  0  0  0  0  0  0  0  0  0  0  0
   11.3029  -16.0701   25.4306 O   0  0  0  0  0  0  0  0  0  0  0  0
   10.8696  -16.3750   24.1645 C   0  0  0  0  0  0  0  0  0  0  0  0
   11.9892  -16.8938   23.2920 C   0  0  2  0  0  0  0  0  0  0  0  0
   11.5577  -17.1389   21.9394 N   0  0  0  0  0  0  0  0  0  0  0  0
   12.6321  -18.0940   23.8712 C   0  0  0  0  0  0  0  0  0  0  0  0
   13.6076  -18.0143   24.6532 O   0  0  0  0  0  0  0  0  0  0  0  0
   12.1336  -19.3394   23.5331 O   0  0  0  0  0  0  0  0  0  0  0  0
  2  1  1  1
  2  3  1  0
  4  2  1  0
  4  5  2  0
  6  7  1  0
  8  7  1  6
  8  9  1  0
  9  4  1  0
 10  8  1  0
 11 10  2  0
 12 13  1  0
 14 13  1  1
 14 15  1  0
 14 16  1  0
 15 10  1  0
 16 18  1  0
 17 16  2  0
M  END
$$$$
