ASS.pdb
     RDKit          3D

 18 17  0  0  1  0  0  0  0  0999 V2000
    7.7680  -14.2933   13.9594 C   0  0  0  0  0  0  0  0  0  0  0  0
    8.2469  -15.2664   14.9866 C   0  0  2  0  0  0  0  0  0  0  0  0
    7.1208  -15.8353   15.7318 N   0  0  0  0  0  0  0  0  0  0  0  0
    9.1398  -14.5841   15.9647 C   0  0  0  0  0  0  0  0  0  0  0  0
   10.2949  -14.1951   15.6265 O   0  0  0  0  0  0  0  0  0  0  0  0
    8.1475  -14.2171   20.0642 O   0  0  0  0  0  0  0  0  0  0  0  0
    8.8140  -13.1888   19.4010 C   0  0  0  0  0  0  0  0  0  0  0  0
    9.6674  -13.7742   18.2792 C   0  0  2  0  0  0  0  0  0  0  0  0
    8.7462  -14.3393   17.3062 N   0  0  0  0  0  0  0  0  0  0  0  0
   10.5273  -14.8368   18.8744 C   0  0  0  0  0  0  0  0  0  0  0  0
   10.0966  -16.0092   18.9456 O   0  0  0  0  0  0  0  0  0  0  0  0
   14.6112  -14.0330   19.5488 O   0  0  0  0  0  0  0  0  0  0  0  0
   14.1404  -15.2989   19.3041 C   0  0  0  0  0  0  0  0  0  0  0  0
   12.7421  -15.4972   19.8422 C   0  0  2  0  0  0  0  0  0  0  0  0
   11.8228  -14.5023   19.3518 N   0  0  0  0  0  0  0  0  0  0  0  0
   12.7211  -15.5587   21.3204 C   0  0  0  0  0  0  0  0  0  0  0  0
   12.0203  -14.7812   22.0088 O   0  0  0  0  0  0  0  0  0  0  0  0
   13.5031  -16.5079   21.9539 O   0  0  0  0  0  0  0  0  0  0  0  0
  2  1  1  6
  2  3  1  0
  4  2  1  0
  4  5  2  0
  6  7  1  0
  8  7  1  1
  8  9  1  0
  9  4  1  0
 10  8  1  0
 11 10  2  0
 12 13  1  0
 14 13  1  1
 14 15  1  0
 14 16  1  0
 15 10  1  0
 16 18  1  0
 17 16  2  0
M  END
$$$$
