ASS.pdb
     RDKit          3D

 18 17  0  0  1  0  0  0  0  0999 V2000
   -0.3598  -26.6287   28.3972 C   0  0  0  0  0  0  0  0  0  0  0  0
   -1.3088  -26.3852   29.5248 C   0  0  2  0  0  0  0  0  0  0  0  0
   -1.6301  -27.6365   30.2161 N   0  0  0  0  0  0  0  0  0  0  0  0
   -2.5834  -25.8112   29.0095 C   0  0  0  0  0  0  0  0  0  0  0  0
   -2.6072  -24.6699   28.4647 O   0  0  0  0  0  0  0  0  0  0  0  0
   -6.1207  -27.6623   29.8461 O   0  0  0  0  0  0  0  0  0  0  0  0
   -6.0898  -27.0509   28.5944 C   0  0  0  0  0  0  0  0  0  0  0  0
   -5.0552  -25.9289   28.6002 C   0  0  2  0  0  0  0  0  0  0  0  0
   -3.8180  -26.5053   29.1020 N   0  0  0  0  0  0  0  0  0  0  0  0
   -5.5523  -24.8619   29.5152 C   0  0  0  0  0  0  0  0  0  0  0  0
   -5.2773  -24.9191   30.7344 O   0  0  0  0  0  0  0  0  0  0  0  0
   -4.7501  -21.6330   30.3508 O   0  0  0  0  0  0  0  0  0  0  0  0
   -5.9500  -21.4822   29.7017 C   0  0  0  0  0  0  0  0  0  0  0  0
   -6.8136  -22.7175   29.8130 C   0  0  2  0  0  0  0  0  0  0  0  0
   -6.3309  -23.7964   28.9893 N   0  0  0  0  0  0  0  0  0  0  0  0
   -8.2361  -22.4262   29.5288 C   0  0  0  0  0  0  0  0  0  0  0  0
   -8.8483  -22.9646   28.5775 O   0  0  0  0  0  0  0  0  0  0  0  0
   -8.9033  -21.5298   30.3444 O   0  0  0  0  0  0  0  0  0  0  0  0
  2  1  1  6
  2  3  1  0
  4  2  1  0
  4  5  2  0
  6  7  1  0
  8  7  1  1
  8  9  1  0
  9  4  1  0
 10  8  1  0
 11 10  2  0
 12 13  1  0
 14 13  1  6
 14 15  1  0
 14 16  1  0
 15 10  1  0
 16 18  1  0
 17 16  2  0
M  END
$$$$
