ASS.pdb
     RDKit          3D

 18 17  0  0  1  0  0  0  0  0999 V2000
    6.4245  -17.4220   19.4700 C   0  0  0  0  0  0  0  0  0  0  0  0
    7.2922  -16.2531   19.1353 C   0  0  2  0  0  0  0  0  0  0  0  0
    8.1656  -16.5596   17.9994 N   0  0  0  0  0  0  0  0  0  0  0  0
    8.1609  -15.9084   20.2955 C   0  0  0  0  0  0  0  0  0  0  0  0
    9.3703  -16.2773   20.3323 O   0  0  0  0  0  0  0  0  0  0  0  0
    6.7053  -14.4529   24.0470 O   0  0  0  0  0  0  0  0  0  0  0  0
    7.7876  -13.8558   23.4040 C   0  0  0  0  0  0  0  0  0  0  0  0
    8.5198  -14.8980   22.5630 C   0  0  2  0  0  0  0  0  0  0  0  0
    7.6832  -15.1596   21.4026 N   0  0  0  0  0  0  0  0  0  0  0  0
    8.6694  -16.1253   23.3960 C   0  0  0  0  0  0  0  0  0  0  0  0
    7.8681  -17.0741   23.2440 O   0  0  0  0  0  0  0  0  0  0  0  0
   11.8742  -19.0051   23.4078 O   0  0  0  0  0  0  0  0  0  0  0  0
   11.1245  -17.8688   23.2330 C   0  0  0  0  0  0  0  0  0  0  0  0
   10.5131  -17.3885   24.5291 C   0  0  2  0  0  0  0  0  0  0  0  0
    9.7196  -16.1994   24.3499 N   0  0  0  0  0  0  0  0  0  0  0  0
   11.5324  -17.1942   25.5838 C   0  0  0  0  0  0  0  0  0  0  0  0
   12.0650  -18.1588   26.1800 O   0  0  0  0  0  0  0  0  0  0  0  0
   11.9028  -15.9033   25.9156 O   0  0  0  0  0  0  0  0  0  0  0  0
  2  1  1  1
  2  3  1  0
  4  2  1  0
  4  5  2  0
  6  7  1  0
  8  7  1  1
  8  9  1  0
  9  4  1  0
 10  8  1  0
 11 10  2  0
 12 13  1  0
 14 13  1  6
 14 15  1  0
 14 16  1  0
 15 10  1  0
 16 18  1  0
 17 16  2  0
M  END
$$$$
