ASS.pdb
     RDKit          3D

 18 17  0  0  1  0  0  0  0  0999 V2000
   -4.8593  -24.1310   22.1535 C   0  0  0  0  0  0  0  0  0  0  0  0
   -3.9085  -23.4184   23.0588 C   0  0  2  0  0  0  0  0  0  0  0  0
   -2.5210  -23.7495   22.7235 N   0  0  0  0  0  0  0  0  0  0  0  0
   -4.1428  -23.8241   24.4730 C   0  0  0  0  0  0  0  0  0  0  0  0
   -3.8170  -24.9768   24.8795 O   0  0  0  0  0  0  0  0  0  0  0  0
   -3.9183  -21.1996   27.2729 O   0  0  0  0  0  0  0  0  0  0  0  0
   -3.8342  -22.5511   27.6011 C   0  0  0  0  0  0  0  0  0  0  0  0
   -4.8854  -23.3327   26.8179 C   0  0  2  0  0  0  0  0  0  0  0  0
   -4.7348  -22.9511   25.4227 N   0  0  0  0  0  0  0  0  0  0  0  0
   -6.2245  -22.9310   27.3356 C   0  0  0  0  0  0  0  0  0  0  0  0
   -6.8409  -21.9915   26.7853 O   0  0  0  0  0  0  0  0  0  0  0  0
   -7.8544  -24.7928   30.8333 O   0  0  0  0  0  0  0  0  0  0  0  0
   -8.6650  -24.4373   29.7843 C   0  0  0  0  0  0  0  0  0  0  0  0
   -8.0812  -23.3007   28.9770 C   0  0  2  0  0  0  0  0  0  0  0  0
   -6.7808  -23.6207   28.4460 N   0  0  0  0  0  0  0  0  0  0  0  0
   -8.0461  -22.0366   29.7452 C   0  0  0  0  0  0  0  0  0  0  0  0
   -6.9735  -21.4393   29.9948 O   0  0  0  0  0  0  0  0  0  0  0  0
   -9.2402  -21.5048   30.1981 O   0  0  0  0  0  0  0  0  0  0  0  0
  2  1  1  6
  2  3  1  0
  4  2  1  0
  4  5  2  0
  6  7  1  0
  8  7  1  1
  8  9  1  0
  9  4  1  0
 10  8  1  0
 11 10  2  0
 12 13  1  0
 14 13  1  1
 14 15  1  0
 14 16  1  0
 15 10  1  0
 16 18  1  0
 17 16  2  0
M  END
$$$$
