ASS.pdb
     RDKit          3D

 18 17  0  0  1  0  0  0  0  0999 V2000
   -2.4606  -25.8403   25.1787 C   0  0  0  0  0  0  0  0  0  0  0  0
   -3.7660  -26.2800   25.7567 C   0  0  2  0  0  0  0  0  0  0  0  0
   -4.6278  -26.8561   24.7212 N   0  0  0  0  0  0  0  0  0  0  0  0
   -4.4839  -25.1169   26.3493 C   0  0  0  0  0  0  0  0  0  0  0  0
   -4.0040  -24.4951   27.3408 O   0  0  0  0  0  0  0  0  0  0  0  0
   -8.4338  -24.0755   25.3047 O   0  0  0  0  0  0  0  0  0  0  0  0
   -7.4684  -23.0760   25.4065 C   0  0  0  0  0  0  0  0  0  0  0  0
   -6.3998  -23.4991   26.4107 C   0  0  2  0  0  0  0  0  0  0  0  0
   -5.7248  -24.6536   25.8393 N   0  0  0  0  0  0  0  0  0  0  0  0
   -7.0925  -23.8643   27.6793 C   0  0  0  0  0  0  0  0  0  0  0  0
   -7.2980  -25.0698   27.9436 O   0  0  0  0  0  0  0  0  0  0  0  0
   -7.7014  -24.2257   31.9512 O   0  0  0  0  0  0  0  0  0  0  0  0
   -7.1727  -23.9897   30.7067 C   0  0  0  0  0  0  0  0  0  0  0  0
   -8.0789  -23.1252   29.8608 C   0  0  2  0  0  0  0  0  0  0  0  0
   -7.5089  -22.8382   28.5692 N   0  0  0  0  0  0  0  0  0  0  0  0
   -8.4673  -21.8802   30.5597 C   0  0  0  0  0  0  0  0  0  0  0  0
   -8.0817  -20.7525   30.1736 O   0  0  0  0  0  0  0  0  0  0  0  0
   -9.2822  -21.9739   31.6737 O   0  0  0  0  0  0  0  0  0  0  0  0
  2  1  1  6
  2  3  1  0
  4  2  1  0
  4  5  2  0
  6  7  1  0
  8  7  1  6
  8  9  1  0
  9  4  1  0
 10  8  1  0
 11 10  2  0
 12 13  1  0
 14 13  1  1
 14 15  1  0
 14 16  1  0
 15 10  1  0
 16 18  1  0
 17 16  2  0
M  END
$$$$
