ASS.pdb
     RDKit          3D

 18 17  0  0  1  0  0  0  0  0999 V2000
   -3.8038  -23.3393   25.6487 C   0  0  0  0  0  0  0  0  0  0  0  0
   -4.9816  -24.1536   26.0741 C   0  0  2  0  0  0  0  0  0  0  0  0
   -6.1689  -23.8037   25.2899 N   0  0  0  0  0  0  0  0  0  0  0  0
   -5.2933  -23.8972   27.5082 C   0  0  0  0  0  0  0  0  0  0  0  0
   -4.4557  -24.1767   28.4139 O   0  0  0  0  0  0  0  0  0  0  0  0
   -8.3939  -21.9559   30.7067 O   0  0  0  0  0  0  0  0  0  0  0  0
   -8.0988  -22.2737   29.3826 C   0  0  0  0  0  0  0  0  0  0  0  0
   -6.8309  -23.1219   29.3319 C   0  0  2  0  0  0  0  0  0  0  0  0
   -6.5276  -23.3345   27.9256 N   0  0  0  0  0  0  0  0  0  0  0  0
   -7.1263  -24.4154   30.0119 C   0  0  0  0  0  0  0  0  0  0  0  0
   -7.8134  -25.2784   29.4216 O   0  0  0  0  0  0  0  0  0  0  0  0
   -5.7999  -27.5967   33.3271 O   0  0  0  0  0  0  0  0  0  0  0  0
   -5.5719  -26.4522   32.6046 C   0  0  0  0  0  0  0  0  0  0  0  0
   -6.8462  -25.8883   32.0195 C   0  0  2  0  0  0  0  0  0  0  0  0
   -6.6232  -24.6488   31.3198 N   0  0  0  0  0  0  0  0  0  0  0  0
   -7.9063  -25.7395   33.0409 C   0  0  0  0  0  0  0  0  0  0  0  0
   -8.3728  -26.7215   33.6636 O   0  0  0  0  0  0  0  0  0  0  0  0
   -8.3918  -24.4724   33.3103 O   0  0  0  0  0  0  0  0  0  0  0  0
  2  1  1  6
  2  3  1  0
  4  2  1  0
  4  5  2  0
  6  7  1  0
  8  7  1  6
  8  9  1  0
  9  4  1  0
 10  8  1  0
 11 10  2  0
 12 13  1  0
 14 13  1  1
 14 15  1  0
 14 16  1  0
 15 10  1  0
 16 18  1  0
 17 16  2  0
M  END
$$$$
