LFR.pdb
     RDKit          3D

 31 31  0  0  1  0  0  0  0  0999 V2000
    7.2575  -13.1131   17.0962 C   0  0  0  0  0  0  0  0  0  0  0  0
    7.8850  -14.3316   17.7759 C   0  0  1  0  0  0  0  0  0  0  0  0
    8.8190  -14.9742   16.7935 C   0  0  0  0  0  0  0  0  0  0  0  0
    8.5425  -13.9126   19.0647 C   0  0  0  0  0  0  0  0  0  0  0  0
    8.8226  -15.1150   19.9286 C   0  0  2  0  0  0  0  0  0  0  0  0
    7.7640  -16.0977   19.8214 N   0  0  0  0  0  0  0  0  0  0  0  0
    9.0265  -14.7420   21.3525 C   0  0  0  0  0  0  0  0  0  0  0  0
    9.9873  -13.9792   21.6823 O   0  0  0  0  0  0  0  0  0  0  0  0
    8.1909  -15.1985   22.3991 N   0  0  0  0  0  0  0  0  0  0  0  0
    8.2097  -14.6712   23.7541 C   0  0  1  0  0  0  0  0  0  0  0  0
    6.8813  -14.4265   24.3328 C   0  0  0  0  0  0  0  0  0  0  0  0
    6.8356  -13.8090   25.6712 C   0  0  0  0  0  0  0  0  0  0  0  0
    6.8978  -12.4454   25.8224 C   0  0  0  0  0  0  0  0  0  0  0  0
    6.8867  -11.8675   27.0875 C   0  0  0  0  0  0  0  0  0  0  0  0
    6.8137  -12.6261   28.2361 C   0  0  0  0  0  0  0  0  0  0  0  0
    6.7512  -13.9949   28.0984 C   0  0  0  0  0  0  0  0  0  0  0  0
    6.7629  -14.5596   26.8412 C   0  0  0  0  0  0  0  0  0  0  0  0
    9.0254  -15.5615   24.5855 C   0  0  0  0  0  0  0  0  0  0  0  0
    8.6569  -16.7934   24.7067 O   0  0  0  0  0  0  0  0  0  0  0  0
   16.2302  -15.7444   24.3198 N   0  0  0  0  0  0  0  0  0  0  0  0
   16.0840  -16.8655   23.4440 C   0  0  0  0  0  0  0  0  0  0  0  0
   17.0742  -17.2632   22.7253 N   0  0  0  0  0  0  0  0  0  0  0  0
   14.8350  -17.5419   23.3708 N   0  0  0  0  0  0  0  0  0  0  0  0
   13.5752  -16.9023   23.5943 C   0  0  0  0  0  0  0  0  0  0  0  0
   12.9398  -17.2913   24.8898 C   0  0  0  0  0  0  0  0  0  0  0  0
   12.4562  -16.1254   25.7176 C   0  0  0  0  0  0  0  0  0  0  0  0
   10.9760  -16.2205   26.0244 C   0  0  2  0  0  0  0  0  0  0  0  0
   10.2073  -15.2474   25.2928 N   0  0  0  0  0  0  0  0  0  0  0  0
   10.7538  -16.2859   27.4671 C   0  0  0  0  0  0  0  0  0  0  0  0
    9.7045  -15.6612   28.0779 O   0  0  0  0  0  0  0  0  0  0  0  0
   11.5436  -16.9387   28.2154 O   0  0  0  0  0  0  0  0  0  0  0  0
  2  1  1  6
  3  2  1  0
  4  2  1  0
  5  4  1  0
  5  6  1  1
  7  8  2  0
  7  5  1  0
  9  7  1  0
 10 18  1  0
 10  9  1  0
 10 11  1  1
 12 13  2  0
 12 11  1  0
 14 13  1  0
 15 14  2  0
 16 15  1  0
 16 17  2  0
 17 12  1  0
 18 28  1  0
 19 18  2  0
 20 21  1  0
 21 22  2  0
 23 21  1  0
 23 24  1  0
 24 25  1  0
 25 26  1  0
 27 26  1  1
 27 29  1  0
 28 27  1  0
 29 31  2  0
 29 30  1  0
M  END
$$$$
