LFR.pdb
     RDKit          3D

 31 31  0  0  1  0  0  0  0  0999 V2000
    8.3001  -12.2856   18.7685 C   0  0  0  0  0  0  0  0  0  0  0  0
    7.8597  -13.5501   19.5085 C   0  0  1  0  0  0  0  0  0  0  0  0
    6.4515  -13.8575   19.0931 C   0  0  0  0  0  0  0  0  0  0  0  0
    8.8369  -14.6640   19.2378 C   0  0  0  0  0  0  0  0  0  0  0  0
    8.5592  -15.8392   20.1391 C   0  0  2  0  0  0  0  0  0  0  0  0
    7.2020  -16.3179   19.9760 N   0  0  0  0  0  0  0  0  0  0  0  0
    8.8159  -15.5183   21.5671 C   0  0  0  0  0  0  0  0  0  0  0  0
   10.0042  -15.3353   21.9777 O   0  0  0  0  0  0  0  0  0  0  0  0
    7.7866  -15.4005   22.5307 N   0  0  0  0  0  0  0  0  0  0  0  0
    7.9980  -15.0037   23.9136 C   0  0  1  0  0  0  0  0  0  0  0  0
    6.8002  -14.4880   24.5910 C   0  0  0  0  0  0  0  0  0  0  0  0
    6.9988  -13.8244   25.8929 C   0  0  0  0  0  0  0  0  0  0  0  0
    6.8879  -12.4610   26.0149 C   0  0  0  0  0  0  0  0  0  0  0  0
    7.1071  -11.8348   27.2374 C   0  0  0  0  0  0  0  0  0  0  0  0
    7.4420  -12.5437   28.3711 C   0  0  0  0  0  0  0  0  0  0  0  0
    7.5567  -13.9117   28.2623 C   0  0  0  0  0  0  0  0  0  0  0  0
    7.3381  -14.5244   27.0472 C   0  0  0  0  0  0  0  0  0  0  0  0
    8.6033  -16.1301   24.6306 C   0  0  0  0  0  0  0  0  0  0  0  0
    8.1854  -17.3222   24.3617 O   0  0  0  0  0  0  0  0  0  0  0  0
   15.3704  -19.0893   26.6596 N   0  0  0  0  0  0  0  0  0  0  0  0
   15.2341  -20.1360   25.6947 C   0  0  0  0  0  0  0  0  0  0  0  0
   15.9026  -21.2280   25.8204 N   0  0  0  0  0  0  0  0  0  0  0  0
   14.3527  -19.9646   24.5917 N   0  0  0  0  0  0  0  0  0  0  0  0
   13.6242  -18.7591   24.3417 C   0  0  0  0  0  0  0  0  0  0  0  0
   12.4791  -18.5585   25.2809 C   0  0  0  0  0  0  0  0  0  0  0  0
   11.6301  -17.3489   24.9734 C   0  0  0  0  0  0  0  0  0  0  0  0
   10.4600  -17.2179   25.9263 C   0  0  2  0  0  0  0  0  0  0  0  0
    9.6242  -16.0901   25.6063 N   0  0  0  0  0  0  0  0  0  0  0  0
   10.9108  -17.3317   27.3114 C   0  0  0  0  0  0  0  0  0  0  0  0
   11.5473  -18.4418   27.7881 O   0  0  0  0  0  0  0  0  0  0  0  0
   10.7230  -16.3841   28.1339 O   0  0  0  0  0  0  0  0  0  0  0  0
  2  1  1  6
  3  2  1  0
  4  2  1  0
  5  4  1  0
  5  6  1  1
  7  8  2  0
  7  5  1  0
  9  7  1  0
 10 18  1  0
 10  9  1  0
 10 11  1  1
 12 13  2  0
 12 11  1  0
 14 13  1  0
 15 14  2  0
 16 15  1  0
 16 17  2  0
 17 12  1  0
 18 28  1  0
 19 18  2  0
 20 21  1  0
 21 22  2  0
 23 21  1  0
 23 24  1  0
 24 25  1  0
 25 26  1  0
 27 26  1  6
 27 29  1  0
 28 27  1  0
 29 31  2  0
 29 30  1  0
M  END
$$$$
