LFR.pdb
     RDKit          3D

 31 31  0  0  1  0  0  0  0  0999 V2000
    9.2001  -20.2146   18.4929 C   0  0  0  0  0  0  0  0  0  0  0  0
    8.7398  -20.3639   19.9442 C   0  0  1  0  0  0  0  0  0  0  0  0
    9.2079  -21.7006   20.4384 C   0  0  0  0  0  0  0  0  0  0  0  0
    9.2387  -19.1990   20.7584 C   0  0  0  0  0  0  0  0  0  0  0  0
    8.3508  -17.9980   20.5588 C   0  0  2  0  0  0  0  0  0  0  0  0
    8.4625  -17.4794   19.2111 N   0  0  0  0  0  0  0  0  0  0  0  0
    8.6404  -16.9222   21.5421 C   0  0  0  0  0  0  0  0  0  0  0  0
    9.6039  -16.1180   21.3448 O   0  0  0  0  0  0  0  0  0  0  0  0
    7.8863  -16.7308   22.7239 N   0  0  0  0  0  0  0  0  0  0  0  0
    8.1021  -15.6470   23.6691 C   0  0  1  0  0  0  0  0  0  0  0  0
    6.8875  -15.1825   24.3536 C   0  0  0  0  0  0  0  0  0  0  0  0
    7.0534  -14.1347   25.3779 C   0  0  0  0  0  0  0  0  0  0  0  0
    7.0203  -12.8043   25.0391 C   0  0  0  0  0  0  0  0  0  0  0  0
    7.2089  -11.8187   26.0023 C   0  0  0  0  0  0  0  0  0  0  0  0
    7.4353  -12.1262   27.3268 C   0  0  0  0  0  0  0  0  0  0  0  0
    7.4712  -13.4568   27.6798 C   0  0  0  0  0  0  0  0  0  0  0  0
    7.2836  -14.4272   26.7191 C   0  0  0  0  0  0  0  0  0  0  0  0
    9.1509  -16.0550   24.6088 C   0  0  0  0  0  0  0  0  0  0  0  0
    8.9925  -17.1582   25.2613 O   0  0  0  0  0  0  0  0  0  0  0  0
   17.2608  -16.3921   24.4011 N   0  0  0  0  0  0  0  0  0  0  0  0
   16.3070  -17.1820   23.6859 C   0  0  0  0  0  0  0  0  0  0  0  0
   16.4884  -18.4474   23.5404 N   0  0  0  0  0  0  0  0  0  0  0  0
   15.1523  -16.5610   23.1346 N   0  0  0  0  0  0  0  0  0  0  0  0
   14.3653  -15.5927   23.8342 C   0  0  0  0  0  0  0  0  0  0  0  0
   13.6907  -16.1481   25.0466 C   0  0  0  0  0  0  0  0  0  0  0  0
   12.6808  -15.2184   25.6744 C   0  0  0  0  0  0  0  0  0  0  0  0
   11.3291  -15.8797   25.8473 C   0  0  2  0  0  0  0  0  0  0  0  0
   10.3596  -15.3861   24.9043 N   0  0  0  0  0  0  0  0  0  0  0  0
   10.9361  -15.8842   27.2546 C   0  0  0  0  0  0  0  0  0  0  0  0
   10.4111  -14.7866   27.8742 O   0  0  0  0  0  0  0  0  0  0  0  0
   11.0714  -16.9288   27.9618 O   0  0  0  0  0  0  0  0  0  0  0  0
  2  1  1  6
  3  2  1  0
  4  2  1  0
  5  4  1  0
  5  6  1  6
  7  8  2  0
  7  5  1  0
  9  7  1  0
 10 18  1  0
 10  9  1  0
 10 11  1  1
 12 13  2  0
 12 11  1  0
 14 13  1  0
 15 14  2  0
 16 15  1  0
 16 17  2  0
 17 12  1  0
 18 28  1  0
 19 18  2  0
 20 21  1  0
 21 22  2  0
 23 21  1  0
 23 24  1  0
 24 25  1  0
 25 26  1  0
 27 26  1  1
 27 29  1  0
 28 27  1  0
 29 31  2  0
 29 30  1  0
M  END
$$$$
