LFR.pdb
     RDKit          3D

 31 31  0  0  1  0  0  0  0  0999 V2000
    7.6399  -12.5406   17.8202 C   0  0  0  0  0  0  0  0  0  0  0  0
    7.9108  -13.9786   18.2667 C   0  0  1  0  0  0  0  0  0  0  0  0
    8.0436  -14.8238   17.0346 C   0  0  0  0  0  0  0  0  0  0  0  0
    9.1174  -14.0125   19.1678 C   0  0  0  0  0  0  0  0  0  0  0  0
    9.0960  -15.2476   20.0307 C   0  0  2  0  0  0  0  0  0  0  0  0
    7.8917  -16.0217   19.8113 N   0  0  0  0  0  0  0  0  0  0  0  0
    9.2334  -14.9209   21.4737 C   0  0  0  0  0  0  0  0  0  0  0  0
   10.3178  -14.4301   21.9178 O   0  0  0  0  0  0  0  0  0  0  0  0
    8.1987  -15.1294   22.4161 N   0  0  0  0  0  0  0  0  0  0  0  0
    8.2237  -14.6389   23.7848 C   0  0  1  0  0  0  0  0  0  0  0  0
    6.9609  -14.0434   24.2434 C   0  0  0  0  0  0  0  0  0  0  0  0
    6.9344  -13.4983   25.6133 C   0  0  0  0  0  0  0  0  0  0  0  0
    5.9157  -13.8127   26.4790 C   0  0  0  0  0  0  0  0  0  0  0  0
    5.8765  -13.2718   27.7599 C   0  0  0  0  0  0  0  0  0  0  0  0
    6.8462  -12.4048   28.2162 C   0  0  0  0  0  0  0  0  0  0  0  0
    7.8731  -12.0810   27.3577 C   0  0  0  0  0  0  0  0  0  0  0  0
    7.9044  -12.6212   26.0901 C   0  0  0  0  0  0  0  0  0  0  0  0
    8.6774  -15.7261   24.6574 C   0  0  0  0  0  0  0  0  0  0  0  0
    7.9822  -16.8140   24.6914 O   0  0  0  0  0  0  0  0  0  0  0  0
   12.4472  -18.0045   21.6936 N   0  0  0  0  0  0  0  0  0  0  0  0
   12.7991  -19.3478   22.0360 C   0  0  0  0  0  0  0  0  0  0  0  0
   12.8486  -20.2588   21.1289 N   0  0  0  0  0  0  0  0  0  0  0  0
   13.0957  -19.6736   23.3883 N   0  0  0  0  0  0  0  0  0  0  0  0
   13.0647  -18.7220   24.4559 C   0  0  0  0  0  0  0  0  0  0  0  0
   11.6812  -18.2845   24.8138 C   0  0  0  0  0  0  0  0  0  0  0  0
   11.6145  -17.3416   25.9906 C   0  0  0  0  0  0  0  0  0  0  0  0
   10.1970  -16.8937   26.2812 C   0  0  2  0  0  0  0  0  0  0  0  0
    9.8171  -15.7512   25.4918 N   0  0  0  0  0  0  0  0  0  0  0  0
    9.9726  -16.8028   27.7221 C   0  0  0  0  0  0  0  0  0  0  0  0
    9.5793  -17.8730   28.4734 O   0  0  0  0  0  0  0  0  0  0  0  0
   10.1396  -15.7050   28.3359 O   0  0  0  0  0  0  0  0  0  0  0  0
  2  1  1  6
  3  2  1  0
  4  2  1  0
  5  4  1  0
  5  6  1  1
  7  8  2  0
  7  5  1  0
  9  7  1  0
 10 18  1  0
 10  9  1  0
 10 11  1  1
 12 13  2  0
 12 11  1  0
 14 13  1  0
 15 14  2  0
 16 15  1  0
 16 17  2  0
 17 12  1  0
 18 28  1  0
 19 18  2  0
 20 21  1  0
 21 22  2  0
 23 21  1  0
 23 24  1  0
 24 25  1  0
 25 26  1  0
 27 26  1  1
 27 29  1  0
 28 27  1  0
 29 31  2  0
 29 30  1  0
M  END
$$$$
