LFR.pdb
     RDKit          3D

 31 31  0  0  1  0  0  0  0  0999 V2000
    7.4742  -12.5402   17.2101 C   0  0  0  0  0  0  0  0  0  0  0  0
    7.6675  -13.8791   17.9245 C   0  0  1  0  0  0  0  0  0  0  0  0
    8.3094  -14.8273   16.9555 C   0  0  0  0  0  0  0  0  0  0  0  0
    8.4541  -13.6703   19.1920 C   0  0  0  0  0  0  0  0  0  0  0  0
    8.4536  -14.9258   20.0253 C   0  0  2  0  0  0  0  0  0  0  0  0
    7.1815  -15.6129   19.9404 N   0  0  0  0  0  0  0  0  0  0  0  0
    8.7878  -14.6505   21.4467 C   0  0  0  0  0  0  0  0  0  0  0  0
    9.9228  -14.1701   21.7553 O   0  0  0  0  0  0  0  0  0  0  0  0
    7.8926  -14.8985   22.5140 N   0  0  0  0  0  0  0  0  0  0  0  0
    8.1688  -14.5855   23.9069 C   0  0  1  0  0  0  0  0  0  0  0  0
    6.9935  -14.1670   24.6835 C   0  0  0  0  0  0  0  0  0  0  0  0
    7.2268  -13.7363   26.0745 C   0  0  0  0  0  0  0  0  0  0  0  0
    7.2528  -14.6480   27.1012 C   0  0  0  0  0  0  0  0  0  0  0  0
    7.4413  -14.2354   28.4161 C   0  0  0  0  0  0  0  0  0  0  0  0
    7.6089  -12.9080   28.7478 C   0  0  0  0  0  0  0  0  0  0  0  0
    7.5845  -11.9834   27.7275 C   0  0  0  0  0  0  0  0  0  0  0  0
    7.3970  -12.4006   26.4273 C   0  0  0  0  0  0  0  0  0  0  0  0
    8.8577  -15.7303   24.5103 C   0  0  0  0  0  0  0  0  0  0  0  0
    8.2500  -16.8697   24.5292 O   0  0  0  0  0  0  0  0  0  0  0  0
   15.1122  -13.8106   22.5040 N   0  0  0  0  0  0  0  0  0  0  0  0
   14.3693  -14.4184   21.4438 C   0  0  0  0  0  0  0  0  0  0  0  0
   14.2574  -13.8282   20.3062 N   0  0  0  0  0  0  0  0  0  0  0  0
   13.7530  -15.6831   21.6528 N   0  0  0  0  0  0  0  0  0  0  0  0
   13.6953  -16.3338   22.9254 C   0  0  0  0  0  0  0  0  0  0  0  0
   12.3203  -16.3611   23.5102 C   0  0  0  0  0  0  0  0  0  0  0  0
   12.2357  -17.0232   24.8640 C   0  0  0  0  0  0  0  0  0  0  0  0
   10.8322  -16.9799   25.4319 C   0  0  2  0  0  0  0  0  0  0  0  0
   10.1462  -15.7614   25.0889 N   0  0  0  0  0  0  0  0  0  0  0  0
   10.8376  -17.3578   26.8433 C   0  0  0  0  0  0  0  0  0  0  0  0
   10.3120  -16.5605   27.8193 O   0  0  0  0  0  0  0  0  0  0  0  0
   11.3400  -18.4613   27.2167 O   0  0  0  0  0  0  0  0  0  0  0  0
  2  1  1  6
  3  2  1  0
  4  2  1  0
  5  4  1  0
  5  6  1  1
  7  8  2  0
  7  5  1  0
  9  7  1  0
 10 18  1  0
 10  9  1  0
 10 11  1  1
 12 13  2  0
 12 11  1  0
 14 13  1  0
 15 14  2  0
 16 15  1  0
 16 17  2  0
 17 12  1  0
 18 28  1  0
 19 18  2  0
 20 21  1  0
 21 22  2  0
 23 21  1  0
 23 24  1  0
 24 25  1  0
 25 26  1  0
 27 26  1  1
 27 29  1  0
 28 27  1  0
 29 31  2  0
 29 30  1  0
M  END
$$$$
