LFR.pdb
     RDKit          3D

 31 31  0  0  1  0  0  0  0  0999 V2000
    7.5461  -12.3706   17.3209 C   0  0  0  0  0  0  0  0  0  0  0  0
    7.5785  -13.8211   17.8062 C   0  0  1  0  0  0  0  0  0  0  0  0
    7.4530  -14.7096   16.6041 C   0  0  0  0  0  0  0  0  0  0  0  0
    8.8253  -14.0581   18.6176 C   0  0  0  0  0  0  0  0  0  0  0  0
    8.6400  -15.2387   19.5355 C   0  0  2  0  0  0  0  0  0  0  0  0
    7.3250  -15.8252   19.3792 N   0  0  0  0  0  0  0  0  0  0  0  0
    8.8690  -14.8784   20.9588 C   0  0  0  0  0  0  0  0  0  0  0  0
    9.9913  -14.4109   21.3275 O   0  0  0  0  0  0  0  0  0  0  0  0
    7.8836  -15.0287   21.9631 N   0  0  0  0  0  0  0  0  0  0  0  0
    8.0736  -14.6712   23.3597 C   0  0  1  0  0  0  0  0  0  0  0  0
    6.8463  -14.2655   24.0588 C   0  0  0  0  0  0  0  0  0  0  0  0
    6.9935  -13.7661   25.4385 C   0  0  0  0  0  0  0  0  0  0  0  0
    7.0844  -12.4204   25.6966 C   0  0  0  0  0  0  0  0  0  0  0  0
    7.2553  -11.9539   26.9958 C   0  0  0  0  0  0  0  0  0  0  0  0
    7.3406  -12.8093   28.0733 C   0  0  0  0  0  0  0  0  0  0  0  0
    7.2512  -14.1614   27.8281 C   0  0  0  0  0  0  0  0  0  0  0  0
    7.0822  -14.6154   26.5377 C   0  0  0  0  0  0  0  0  0  0  0  0
    8.7583  -15.7797   24.0318 C   0  0  0  0  0  0  0  0  0  0  0  0
    8.2674  -16.9678   23.9070 O   0  0  0  0  0  0  0  0  0  0  0  0
   15.7369  -15.1132   22.1805 N   0  0  0  0  0  0  0  0  0  0  0  0
   14.7152  -14.8504   21.2149 C   0  0  0  0  0  0  0  0  0  0  0  0
   14.9683  -14.1299   20.1795 N   0  0  0  0  0  0  0  0  0  0  0  0
   13.4135  -15.3913   21.4041 N   0  0  0  0  0  0  0  0  0  0  0  0
   13.1299  -16.4773   22.2910 C   0  0  0  0  0  0  0  0  0  0  0  0
   12.1366  -16.1269   23.3512 C   0  0  0  0  0  0  0  0  0  0  0  0
   11.7170  -17.2905   24.2162 C   0  0  0  0  0  0  0  0  0  0  0  0
   10.6635  -16.8950   25.2300 C   0  0  2  0  0  0  0  0  0  0  0  0
    9.9291  -15.7262   24.8206 N   0  0  0  0  0  0  0  0  0  0  0  0
   11.2280  -16.8795   26.5776 C   0  0  0  0  0  0  0  0  0  0  0  0
   11.0858  -15.8155   27.4215 O   0  0  0  0  0  0  0  0  0  0  0  0
   11.8815  -17.8739   27.0178 O   0  0  0  0  0  0  0  0  0  0  0  0
  2  1  1  6
  3  2  1  0
  4  2  1  0
  5  4  1  0
  5  6  1  1
  7  8  2  0
  7  5  1  0
  9  7  1  0
 10 18  1  0
 10  9  1  0
 10 11  1  1
 12 13  2  0
 12 11  1  0
 14 13  1  0
 15 14  2  0
 16 15  1  0
 16 17  2  0
 17 12  1  0
 18 28  1  0
 19 18  2  0
 20 21  1  0
 21 22  2  0
 23 21  1  0
 23 24  1  0
 24 25  1  0
 25 26  1  0
 27 26  1  6
 27 29  1  0
 28 27  1  0
 29 31  2  0
 29 30  1  0
M  END
$$$$
