LFR.pdb
     RDKit          3D

 31 31  0  0  1  0  0  0  0  0999 V2000
    7.7001  -13.0156   16.4237 C   0  0  0  0  0  0  0  0  0  0  0  0
    7.8268  -14.2792   17.2767 C   0  0  1  0  0  0  0  0  0  0  0  0
    8.5746  -15.3017   16.4733 C   0  0  0  0  0  0  0  0  0  0  0  0
    8.4735  -13.9406   18.5943 C   0  0  0  0  0  0  0  0  0  0  0  0
    8.5233  -15.1554   19.4845 C   0  0  2  0  0  0  0  0  0  0  0  0
    7.2987  -15.9235   19.3950 N   0  0  0  0  0  0  0  0  0  0  0  0
    8.7951  -14.7970   20.9007 C   0  0  0  0  0  0  0  0  0  0  0  0
    9.9068  -14.2753   21.2262 O   0  0  0  0  0  0  0  0  0  0  0  0
    7.8634  -15.0076   21.9445 N   0  0  0  0  0  0  0  0  0  0  0  0
    8.0269  -14.5146   23.3028 C   0  0  1  0  0  0  0  0  0  0  0  0
    6.7709  -14.1651   23.9810 C   0  0  0  0  0  0  0  0  0  0  0  0
    6.8748  -13.6246   25.3491 C   0  0  0  0  0  0  0  0  0  0  0  0
    7.1622  -12.2992   25.5650 C   0  0  0  0  0  0  0  0  0  0  0  0
    7.2910  -11.7992   26.8565 C   0  0  0  0  0  0  0  0  0  0  0  0
    7.1384  -12.6000   27.9681 C   0  0  0  0  0  0  0  0  0  0  0  0
    6.8502  -13.9312   27.7654 C   0  0  0  0  0  0  0  0  0  0  0  0
    6.7244  -14.4188   26.4824 C   0  0  0  0  0  0  0  0  0  0  0  0
    8.8155  -15.4928   24.0580 C   0  0  0  0  0  0  0  0  0  0  0  0
    8.4494  -16.7309   24.0244 O   0  0  0  0  0  0  0  0  0  0  0  0
   16.2629  -15.3657   22.1923 N   0  0  0  0  0  0  0  0  0  0  0  0
   16.1133  -16.4101   23.1578 C   0  0  0  0  0  0  0  0  0  0  0  0
   17.1288  -17.1124   23.5192 N   0  0  0  0  0  0  0  0  0  0  0  0
   14.8327  -16.6699   23.7193 N   0  0  0  0  0  0  0  0  0  0  0  0
   14.6239  -16.9887   25.0981 C   0  0  0  0  0  0  0  0  0  0  0  0
   13.1824  -17.1709   25.4479 C   0  0  0  0  0  0  0  0  0  0  0  0
   12.2804  -16.0661   24.9538 C   0  0  0  0  0  0  0  0  0  0  0  0
   10.8301  -16.3110   25.3155 C   0  0  2  0  0  0  0  0  0  0  0  0
    9.9683  -15.2599   24.8407 N   0  0  0  0  0  0  0  0  0  0  0  0
   10.7073  -16.6775   26.7245 C   0  0  0  0  0  0  0  0  0  0  0  0
   10.0256  -15.9114   27.6262 O   0  0  0  0  0  0  0  0  0  0  0  0
   11.2396  -17.7411   27.1662 O   0  0  0  0  0  0  0  0  0  0  0  0
  2  1  1  6
  3  2  1  0
  4  2  1  0
  5  4  1  0
  5  6  1  1
  7  8  2  0
  7  5  1  0
  9  7  1  0
 10 18  1  0
 10  9  1  0
 10 11  1  1
 12 13  2  0
 12 11  1  0
 14 13  1  0
 15 14  2  0
 16 15  1  0
 16 17  2  0
 17 12  1  0
 18 28  1  0
 19 18  2  0
 20 21  1  0
 21 22  2  0
 23 21  1  0
 23 24  1  0
 24 25  1  0
 25 26  1  0
 27 26  1  1
 27 29  1  0
 28 27  1  0
 29 31  2  0
 29 30  1  0
M  END
$$$$
