LFR.pdb
     RDKit          3D

 31 31  0  0  1  0  0  0  0  0999 V2000
    7.7705  -12.2938   18.3700 C   0  0  0  0  0  0  0  0  0  0  0  0
    7.9673  -13.8101   18.3193 C   0  0  1  0  0  0  0  0  0  0  0  0
    7.6946  -14.2611   16.9149 C   0  0  0  0  0  0  0  0  0  0  0  0
    9.3435  -14.1613   18.8209 C   0  0  0  0  0  0  0  0  0  0  0  0
    9.2699  -15.2940   19.8119 C   0  0  2  0  0  0  0  0  0  0  0  0
    8.1186  -16.1368   19.5629 N   0  0  0  0  0  0  0  0  0  0  0  0
    9.2472  -14.8054   21.2150 C   0  0  0  0  0  0  0  0  0  0  0  0
   10.2514  -14.1930   21.6952 O   0  0  0  0  0  0  0  0  0  0  0  0
    8.1413  -14.9855   22.0791 N   0  0  0  0  0  0  0  0  0  0  0  0
    8.1192  -14.5886   23.4779 C   0  0  1  0  0  0  0  0  0  0  0  0
    6.9078  -13.8649   23.8883 C   0  0  0  0  0  0  0  0  0  0  0  0
    6.8425  -13.4051   25.2880 C   0  0  0  0  0  0  0  0  0  0  0  0
    7.4531  -12.2383   25.6773 C   0  0  0  0  0  0  0  0  0  0  0  0
    7.4168  -11.8234   27.0044 C   0  0  0  0  0  0  0  0  0  0  0  0
    6.7744  -12.5545   27.9806 C   0  0  0  0  0  0  0  0  0  0  0  0
    6.1584  -13.7270   27.6034 C   0  0  0  0  0  0  0  0  0  0  0  0
    6.1991  -14.1310   26.2863 C   0  0  0  0  0  0  0  0  0  0  0  0
    8.3646  -15.7775   24.2999 C   0  0  0  0  0  0  0  0  0  0  0  0
    7.8982  -16.9105   23.8917 O   0  0  0  0  0  0  0  0  0  0  0  0
    8.0207  -20.5684   29.5529 N   0  0  0  0  0  0  0  0  0  0  0  0
    8.0635  -21.7208   28.7070 C   0  0  0  0  0  0  0  0  0  0  0  0
    8.4661  -22.8522   29.1686 N   0  0  0  0  0  0  0  0  0  0  0  0
    7.6569  -21.6109   27.3485 N   0  0  0  0  0  0  0  0  0  0  0  0
    7.3485  -20.3666   26.7138 C   0  0  0  0  0  0  0  0  0  0  0  0
    8.4701  -19.3809   26.7758 C   0  0  0  0  0  0  0  0  0  0  0  0
    8.1934  -18.0814   26.0593 C   0  0  0  0  0  0  0  0  0  0  0  0
    9.3364  -17.0980   26.2028 C   0  0  2  0  0  0  0  0  0  0  0  0
    9.0739  -15.8585   25.5190 N   0  0  0  0  0  0  0  0  0  0  0  0
   10.6130  -17.7494   25.9185 C   0  0  0  0  0  0  0  0  0  0  0  0
   11.4568  -17.3153   24.9366 O   0  0  0  0  0  0  0  0  0  0  0  0
   10.9881  -18.7598   26.5881 O   0  0  0  0  0  0  0  0  0  0  0  0
  2  1  1  6
  3  2  1  0
  4  2  1  0
  5  4  1  0
  5  6  1  6
  7  8  2  0
  7  5  1  0
  9  7  1  0
 10 18  1  0
 10  9  1  0
 10 11  1  1
 12 13  2  0
 12 11  1  0
 14 13  1  0
 15 14  2  0
 16 15  1  0
 16 17  2  0
 17 12  1  0
 18 28  1  0
 19 18  2  0
 20 21  1  0
 21 22  2  0
 23 21  1  0
 23 24  1  0
 24 25  1  0
 25 26  1  0
 27 26  1  6
 27 29  1  0
 28 27  1  0
 29 31  2  0
 29 30  1  0
M  END
$$$$
