LFR.pdb
     RDKit          3D

 31 31  0  0  1  0  0  0  0  0999 V2000
    8.8451  -21.0817   19.7831 C   0  0  0  0  0  0  0  0  0  0  0  0
    8.5359  -19.6348   19.3941 C   0  0  1  0  0  0  0  0  0  0  0  0
    7.0826  -19.5584   19.0304 C   0  0  0  0  0  0  0  0  0  0  0  0
    8.9384  -18.7102   20.5131 C   0  0  0  0  0  0  0  0  0  0  0  0
    8.5614  -17.2890   20.1837 C   0  0  2  0  0  0  0  0  0  0  0  0
    9.2544  -16.8217   19.0009 N   0  0  0  0  0  0  0  0  0  0  0  0
    8.8190  -16.3671   21.3202 C   0  0  0  0  0  0  0  0  0  0  0  0
    9.9920  -15.9287   21.5347 O   0  0  0  0  0  0  0  0  0  0  0  0
    7.8072  -15.9328   22.2088 N   0  0  0  0  0  0  0  0  0  0  0  0
    8.0313  -15.0414   23.3357 C   0  0  1  0  0  0  0  0  0  0  0  0
    6.8414  -14.2976   23.7721 C   0  0  0  0  0  0  0  0  0  0  0  0
    6.9746  -13.4706   24.9858 C   0  0  0  0  0  0  0  0  0  0  0  0
    6.4067  -13.8624   26.1732 C   0  0  0  0  0  0  0  0  0  0  0  0
    6.5068  -13.0649   27.3084 C   0  0  0  0  0  0  0  0  0  0  0  0
    7.1726  -11.8580   27.2963 C   0  0  0  0  0  0  0  0  0  0  0  0
    7.7464  -11.4533   26.1116 C   0  0  0  0  0  0  0  0  0  0  0  0
    7.6424  -12.2493   24.9913 C   0  0  0  0  0  0  0  0  0  0  0  0
    8.6361  -15.8152   24.4241 C   0  0  0  0  0  0  0  0  0  0  0  0
    7.9780  -16.8193   24.9003 O   0  0  0  0  0  0  0  0  0  0  0  0
   12.7636  -19.9563   21.6695 N   0  0  0  0  0  0  0  0  0  0  0  0
   13.6398  -18.8340   21.8044 C   0  0  0  0  0  0  0  0  0  0  0  0
   14.7485  -18.7922   21.1531 N   0  0  0  0  0  0  0  0  0  0  0  0
   13.2789  -17.7601   22.6641 N   0  0  0  0  0  0  0  0  0  0  0  0
   11.9738  -17.6035   23.2286 C   0  0  0  0  0  0  0  0  0  0  0  0
   11.8909  -18.0520   24.6517 C   0  0  0  0  0  0  0  0  0  0  0  0
   11.8656  -16.9253   25.6560 C   0  0  0  0  0  0  0  0  0  0  0  0
   10.4525  -16.5127   26.0127 C   0  0  2  0  0  0  0  0  0  0  0  0
    9.8900  -15.6104   25.0419 N   0  0  0  0  0  0  0  0  0  0  0  0
   10.3750  -16.1048   27.4136 C   0  0  0  0  0  0  0  0  0  0  0  0
   10.7166  -16.9367   28.4410 O   0  0  0  0  0  0  0  0  0  0  0  0
    9.9808  -14.9407   27.7286 O   0  0  0  0  0  0  0  0  0  0  0  0
  2  1  1  1
  3  2  1  0
  4  2  1  0
  5  4  1  0
  5  6  1  6
  7  8  2  0
  7  5  1  0
  9  7  1  0
 10 18  1  0
 10  9  1  0
 10 11  1  1
 12 13  2  0
 12 11  1  0
 14 13  1  0
 15 14  2  0
 16 15  1  0
 16 17  2  0
 17 12  1  0
 18 28  1  0
 19 18  2  0
 20 21  1  0
 21 22  2  0
 23 21  1  0
 23 24  1  0
 24 25  1  0
 25 26  1  0
 27 26  1  6
 27 29  1  0
 28 27  1  0
 29 31  2  0
 29 30  1  0
M  END
$$$$
