LFR.pdb
     RDKit          3D

 31 31  0  0  1  0  0  0  0  0999 V2000
    8.6698  -12.2649   18.8449 C   0  0  0  0  0  0  0  0  0  0  0  0
    7.9642  -13.5686   19.2228 C   0  0  1  0  0  0  0  0  0  0  0  0
    6.6260  -13.5789   18.5451 C   0  0  0  0  0  0  0  0  0  0  0  0
    8.8405  -14.7419   18.8697 C   0  0  0  0  0  0  0  0  0  0  0  0
    9.9814  -14.8604   19.8469 C   0  0  2  0  0  0  0  0  0  0  0  0
   10.9155  -15.8908   19.4425 N   0  0  0  0  0  0  0  0  0  0  0  0
    9.5049  -15.1218   21.2298 C   0  0  0  0  0  0  0  0  0  0  0  0
    9.7416  -16.2386   21.7873 O   0  0  0  0  0  0  0  0  0  0  0  0
    8.7793  -14.1744   21.9902 N   0  0  0  0  0  0  0  0  0  0  0  0
    8.4634  -14.3232   23.4018 C   0  0  1  0  0  0  0  0  0  0  0  0
    7.7113  -13.2013   23.9808 C   0  0  0  0  0  0  0  0  0  0  0  0
    7.4074  -13.2698   25.4222 C   0  0  0  0  0  0  0  0  0  0  0  0
    6.1559  -13.6221   25.8642 C   0  0  0  0  0  0  0  0  0  0  0  0
    5.8632  -13.6549   27.2236 C   0  0  0  0  0  0  0  0  0  0  0  0
    6.8037  -13.3392   28.1807 C   0  0  0  0  0  0  0  0  0  0  0  0
    8.0628  -12.9838   27.7507 C   0  0  0  0  0  0  0  0  0  0  0  0
    8.3444  -12.9536   26.4018 C   0  0  0  0  0  0  0  0  0  0  0  0
    7.7828  -15.6079   23.5904 C   0  0  0  0  0  0  0  0  0  0  0  0
    6.4933  -15.6329   23.5231 O   0  0  0  0  0  0  0  0  0  0  0  0
   10.2816  -21.5528   30.3837 N   0  0  0  0  0  0  0  0  0  0  0  0
   10.4669  -20.1747   30.0493 C   0  0  0  0  0  0  0  0  0  0  0  0
   11.4948  -19.5329   30.4815 N   0  0  0  0  0  0  0  0  0  0  0  0
    9.5071  -19.5142   29.2337 N   0  0  0  0  0  0  0  0  0  0  0  0
    9.8496  -18.7288   28.0881 C   0  0  0  0  0  0  0  0  0  0  0  0
    8.6584  -18.1595   27.3879 C   0  0  0  0  0  0  0  0  0  0  0  0
    8.9909  -17.3480   26.1593 C   0  0  0  0  0  0  0  0  0  0  0  0
    8.0695  -17.6669   25.0002 C   0  0  2  0  0  0  0  0  0  0  0  0
    8.3657  -16.8708   23.8377 N   0  0  0  0  0  0  0  0  0  0  0  0
    6.6775  -17.6933   25.4432 C   0  0  0  0  0  0  0  0  0  0  0  0
    6.0355  -18.8504   25.7802 O   0  0  0  0  0  0  0  0  0  0  0  0
    6.0053  -16.6209   25.5322 O   0  0  0  0  0  0  0  0  0  0  0  0
  2  1  1  6
  3  2  1  0
  4  2  1  0
  5  4  1  0
  5  6  1  6
  7  8  2  0
  7  5  1  0
  9  7  1  0
 10 18  1  0
 10  9  1  0
 10 11  1  6
 12 13  2  0
 12 11  1  0
 14 13  1  0
 15 14  2  0
 16 15  1  0
 16 17  2  0
 17 12  1  0
 18 28  1  0
 19 18  2  0
 20 21  1  0
 21 22  2  0
 23 21  1  0
 23 24  1  0
 24 25  1  0
 25 26  1  0
 27 26  1  1
 27 29  1  0
 28 27  1  0
 29 31  2  0
 29 30  1  0
M  END
$$$$
