LFR.pdb
     RDKit          3D

 31 31  0  0  1  0  0  0  0  0999 V2000
    8.3121  -20.4396   19.1705 C   0  0  0  0  0  0  0  0  0  0  0  0
    8.5612  -18.9563   18.8907 C   0  0  1  0  0  0  0  0  0  0  0  0
    7.3830  -18.4299   18.1259 C   0  0  0  0  0  0  0  0  0  0  0  0
    8.8265  -18.2323   20.1847 C   0  0  0  0  0  0  0  0  0  0  0  0
    8.9275  -16.7478   19.9468 C   0  0  2  0  0  0  0  0  0  0  0  0
    9.9959  -16.4350   19.0204 N   0  0  0  0  0  0  0  0  0  0  0  0
    9.1161  -15.9927   21.2126 C   0  0  0  0  0  0  0  0  0  0  0  0
   10.2822  -15.8193   21.6860 O   0  0  0  0  0  0  0  0  0  0  0  0
    8.0434  -15.4368   21.9491 N   0  0  0  0  0  0  0  0  0  0  0  0
    8.1964  -14.7017   23.1944 C   0  0  1  0  0  0  0  0  0  0  0  0
    7.0451  -13.8619   23.5532 C   0  0  0  0  0  0  0  0  0  0  0  0
    7.1071  -13.1548   24.8458 C   0  0  0  0  0  0  0  0  0  0  0  0
    8.0215  -12.1527   25.0595 C   0  0  0  0  0  0  0  0  0  0  0  0
    8.0990  -11.5092   26.2902 C   0  0  0  0  0  0  0  0  0  0  0  0
    7.2721  -11.8424   27.3416 C   0  0  0  0  0  0  0  0  0  0  0  0
    6.3508  -12.8460   27.1405 C   0  0  0  0  0  0  0  0  0  0  0  0
    6.2807  -13.4787   25.9180 C   0  0  0  0  0  0  0  0  0  0  0  0
    8.5446  -15.6537   24.2535 C   0  0  0  0  0  0  0  0  0  0  0  0
    7.7043  -16.5943   24.5313 O   0  0  0  0  0  0  0  0  0  0  0  0
   13.2819  -21.0362   23.3791 N   0  0  0  0  0  0  0  0  0  0  0  0
   13.0245  -20.1477   22.2884 C   0  0  0  0  0  0  0  0  0  0  0  0
   12.9907  -20.5918   21.0815 N   0  0  0  0  0  0  0  0  0  0  0  0
   12.8045  -18.7661   22.5444 N   0  0  0  0  0  0  0  0  0  0  0  0
   12.7702  -18.2011   23.8582 C   0  0  0  0  0  0  0  0  0  0  0  0
   11.3833  -18.0212   24.3850 C   0  0  0  0  0  0  0  0  0  0  0  0
   11.3182  -17.4015   25.7598 C   0  0  0  0  0  0  0  0  0  0  0  0
    9.9927  -16.7131   26.0114 C   0  0  2  0  0  0  0  0  0  0  0  0
    9.7200  -15.6894   25.0364 N   0  0  0  0  0  0  0  0  0  0  0  0
    9.8701  -16.3333   27.4170 C   0  0  0  0  0  0  0  0  0  0  0  0
    9.5847  -15.0575   27.8111 O   0  0  0  0  0  0  0  0  0  0  0  0
   10.0271  -17.1932   28.3366 O   0  0  0  0  0  0  0  0  0  0  0  0
  2  1  1  1
  3  2  1  0
  4  2  1  0
  5  4  1  0
  5  6  1  6
  7  8  2  0
  7  5  1  0
  9  7  1  0
 10 18  1  0
 10  9  1  0
 10 11  1  1
 12 13  2  0
 12 11  1  0
 14 13  1  0
 15 14  2  0
 16 15  1  0
 16 17  2  0
 17 12  1  0
 18 28  1  0
 19 18  2  0
 20 21  1  0
 21 22  2  0
 23 21  1  0
 23 24  1  0
 24 25  1  0
 25 26  1  0
 27 26  1  1
 27 29  1  0
 28 27  1  0
 29 31  2  0
 29 30  1  0
M  END
$$$$
