LFR.pdb
     RDKit          3D

 31 31  0  0  1  0  0  0  0  0999 V2000
    6.7576  -13.3101   18.9766 C   0  0  0  0  0  0  0  0  0  0  0  0
    7.8633  -13.8541   18.0700 C   0  0  1  0  0  0  0  0  0  0  0  0
    8.0569  -12.8786   16.9471 C   0  0  0  0  0  0  0  0  0  0  0  0
    9.1060  -14.1109   18.8817 C   0  0  0  0  0  0  0  0  0  0  0  0
    8.9066  -15.2968   19.7897 C   0  0  2  0  0  0  0  0  0  0  0  0
    7.6061  -15.9013   19.5873 N   0  0  0  0  0  0  0  0  0  0  0  0
    9.0821  -14.9377   21.2209 C   0  0  0  0  0  0  0  0  0  0  0  0
   10.2246  -14.5957   21.6588 O   0  0  0  0  0  0  0  0  0  0  0  0
    8.0222  -14.9539   22.1581 N   0  0  0  0  0  0  0  0  0  0  0  0
    8.1254  -14.4622   23.5227 C   0  0  1  0  0  0  0  0  0  0  0  0
    6.9401  -13.7379   24.0022 C   0  0  0  0  0  0  0  0  0  0  0  0
    6.9776  -13.2313   25.3866 C   0  0  0  0  0  0  0  0  0  0  0  0
    7.7500  -12.1461   25.7209 C   0  0  0  0  0  0  0  0  0  0  0  0
    7.8082  -11.6900   27.0336 C   0  0  0  0  0  0  0  0  0  0  0  0
    7.1022  -12.2978   28.0496 C   0  0  0  0  0  0  0  0  0  0  0  0
    6.3240  -13.3874   27.7278 C   0  0  0  0  0  0  0  0  0  0  0  0
    6.2720  -13.8331   26.4246 C   0  0  0  0  0  0  0  0  0  0  0  0
    8.4829  -15.5861   24.3935 C   0  0  0  0  0  0  0  0  0  0  0  0
    7.7649  -16.6580   24.3349 O   0  0  0  0  0  0  0  0  0  0  0  0
   12.9348  -23.0210   23.6234 N   0  0  0  0  0  0  0  0  0  0  0  0
   13.2301  -21.6218   23.6085 C   0  0  0  0  0  0  0  0  0  0  0  0
   14.0864  -21.1463   22.7743 N   0  0  0  0  0  0  0  0  0  0  0  0
   12.5704  -20.7546   24.5226 N   0  0  0  0  0  0  0  0  0  0  0  0
   12.7771  -19.3396   24.5595 C   0  0  0  0  0  0  0  0  0  0  0  0
   11.8831  -18.6398   25.5313 C   0  0  0  0  0  0  0  0  0  0  0  0
   11.3186  -17.3346   25.0252 C   0  0  0  0  0  0  0  0  0  0  0  0
   10.0902  -16.9068   25.8012 C   0  0  2  0  0  0  0  0  0  0  0  0
    9.5491  -15.6635   25.3171 N   0  0  0  0  0  0  0  0  0  0  0  0
   10.3315  -17.0047   27.2390 C   0  0  0  0  0  0  0  0  0  0  0  0
   11.2489  -16.2263   27.8847 O   0  0  0  0  0  0  0  0  0  0  0  0
    9.6834  -17.8320   27.9499 O   0  0  0  0  0  0  0  0  0  0  0  0
  2  1  1  1
  3  2  1  0
  4  2  1  0
  5  4  1  0
  5  6  1  1
  7  8  2  0
  7  5  1  0
  9  7  1  0
 10 18  1  0
 10  9  1  0
 10 11  1  1
 12 13  2  0
 12 11  1  0
 14 13  1  0
 15 14  2  0
 16 15  1  0
 16 17  2  0
 17 12  1  0
 18 28  1  0
 19 18  2  0
 20 21  1  0
 21 22  2  0
 23 21  1  0
 23 24  1  0
 24 25  1  0
 25 26  1  0
 27 26  1  6
 27 29  1  0
 28 27  1  0
 29 31  2  0
 29 30  1  0
M  END
$$$$
