LFR.pdb
     RDKit          3D

 31 31  0  0  1  0  0  0  0  0999 V2000
    6.9128  -12.7356   18.3378 C   0  0  0  0  0  0  0  0  0  0  0  0
    7.7549  -13.8539   17.7208 C   0  0  1  0  0  0  0  0  0  0  0  0
    8.0905  -13.4527   16.3149 C   0  0  0  0  0  0  0  0  0  0  0  0
    8.9580  -14.1216   18.5868 C   0  0  0  0  0  0  0  0  0  0  0  0
    8.6664  -15.2292   19.5660 C   0  0  2  0  0  0  0  0  0  0  0  0
    7.3127  -15.7217   19.4152 N   0  0  0  0  0  0  0  0  0  0  0  0
    8.8986  -14.8054   20.9711 C   0  0  0  0  0  0  0  0  0  0  0  0
   10.0642  -14.4776   21.3558 O   0  0  0  0  0  0  0  0  0  0  0  0
    7.8697  -14.7425   21.9403 N   0  0  0  0  0  0  0  0  0  0  0  0
    8.0740  -14.3727   23.3318 C   0  0  1  0  0  0  0  0  0  0  0  0
    6.9684  -13.6117   23.9301 C   0  0  0  0  0  0  0  0  0  0  0  0
    7.1440  -13.1541   25.3210 C   0  0  0  0  0  0  0  0  0  0  0  0
    7.8797  -12.0303   25.6072 C   0  0  0  0  0  0  0  0  0  0  0  0
    8.0702  -11.6191   26.9222 C   0  0  0  0  0  0  0  0  0  0  0  0
    7.5365  -12.3112   27.9882 C   0  0  0  0  0  0  0  0  0  0  0  0
    6.7968  -13.4402   27.7148 C   0  0  0  0  0  0  0  0  0  0  0  0
    6.6130  -13.8409   26.4090 C   0  0  0  0  0  0  0  0  0  0  0  0
    8.3915  -15.5861   24.0909 C   0  0  0  0  0  0  0  0  0  0  0  0
    7.7335  -16.6648   23.8235 O   0  0  0  0  0  0  0  0  0  0  0  0
   14.9233  -19.9605   23.2629 N   0  0  0  0  0  0  0  0  0  0  0  0
   14.0316  -21.0089   23.6516 C   0  0  0  0  0  0  0  0  0  0  0  0
   14.4824  -22.1884   23.8979 N   0  0  0  0  0  0  0  0  0  0  0  0
   12.6395  -20.7412   23.7658 N   0  0  0  0  0  0  0  0  0  0  0  0
   12.0509  -19.4727   23.4642 C   0  0  0  0  0  0  0  0  0  0  0  0
   11.7321  -18.6678   24.6823 C   0  0  0  0  0  0  0  0  0  0  0  0
   11.0813  -17.3369   24.3928 C   0  0  0  0  0  0  0  0  0  0  0  0
   10.0022  -16.9999   25.4008 C   0  0  2  0  0  0  0  0  0  0  0  0
    9.3594  -15.7455   25.1075 N   0  0  0  0  0  0  0  0  0  0  0  0
   10.4969  -17.1838   26.7633 C   0  0  0  0  0  0  0  0  0  0  0  0
   11.5393  -16.4620   27.2701 O   0  0  0  0  0  0  0  0  0  0  0  0
    9.9636  -18.0366   27.5367 O   0  0  0  0  0  0  0  0  0  0  0  0
  2  1  1  1
  3  2  1  0
  4  2  1  0
  5  4  1  0
  5  6  1  1
  7  8  2  0
  7  5  1  0
  9  7  1  0
 10 18  1  0
 10  9  1  0
 10 11  1  1
 12 13  2  0
 12 11  1  0
 14 13  1  0
 15 14  2  0
 16 15  1  0
 16 17  2  0
 17 12  1  0
 18 28  1  0
 19 18  2  0
 20 21  1  0
 21 22  2  0
 23 21  1  0
 23 24  1  0
 24 25  1  0
 25 26  1  0
 27 26  1  6
 27 29  1  0
 28 27  1  0
 29 31  2  0
 29 30  1  0
M  END
$$$$
