LFR.pdb
     RDKit          3D

 31 31  0  0  1  0  0  0  0  0999 V2000
    7.3442  -11.9156   18.5446 C   0  0  0  0  0  0  0  0  0  0  0  0
    7.5510  -13.3675   18.9801 C   0  0  1  0  0  0  0  0  0  0  0  0
    8.4272  -14.0318   17.9598 C   0  0  0  0  0  0  0  0  0  0  0  0
    8.1031  -13.4044   20.3812 C   0  0  0  0  0  0  0  0  0  0  0  0
    8.3372  -14.8274   20.8180 C   0  0  2  0  0  0  0  0  0  0  0  0
    7.1425  -15.6303   20.6569 N   0  0  0  0  0  0  0  0  0  0  0  0
    8.8166  -14.9069   22.2222 C   0  0  0  0  0  0  0  0  0  0  0  0
    9.9414  -14.4110   22.5429 O   0  0  0  0  0  0  0  0  0  0  0  0
    8.0752  -15.5211   23.2591 N   0  0  0  0  0  0  0  0  0  0  0  0
    8.4528  -15.4977   24.6632 C   0  0  1  0  0  0  0  0  0  0  0  0
    7.3267  -15.3527   25.5962 C   0  0  0  0  0  0  0  0  0  0  0  0
    7.0140  -13.9897   26.0642 C   0  0  0  0  0  0  0  0  0  0  0  0
    5.7334  -13.4978   26.0016 C   0  0  0  0  0  0  0  0  0  0  0  0
    5.4472  -12.2006   26.4140 C   0  0  0  0  0  0  0  0  0  0  0  0
    6.4233  -11.3568   26.8994 C   0  0  0  0  0  0  0  0  0  0  0  0
    7.7119  -11.8378   26.9671 C   0  0  0  0  0  0  0  0  0  0  0  0
    7.9870  -13.1243   26.5561 C   0  0  0  0  0  0  0  0  0  0  0  0
    9.2611  -16.6879   24.9446 C   0  0  0  0  0  0  0  0  0  0  0  0
    8.6922  -17.8451   24.8721 O   0  0  0  0  0  0  0  0  0  0  0  0
   15.0587  -21.7722   25.0250 N   0  0  0  0  0  0  0  0  0  0  0  0
   15.3061  -21.3833   23.6712 C   0  0  0  0  0  0  0  0  0  0  0  0
   15.6770  -22.2555   22.8012 N   0  0  0  0  0  0  0  0  0  0  0  0
   15.1394  -20.0236   23.2889 N   0  0  0  0  0  0  0  0  0  0  0  0
   14.7322  -18.9925   24.1929 C   0  0  0  0  0  0  0  0  0  0  0  0
   13.2733  -19.0346   24.5144 C   0  0  0  0  0  0  0  0  0  0  0  0
   12.7954  -17.8910   25.3760 C   0  0  0  0  0  0  0  0  0  0  0  0
   11.3069  -17.9655   25.6460 C   0  0  2  0  0  0  0  0  0  0  0  0
   10.6298  -16.7458   25.2900 N   0  0  0  0  0  0  0  0  0  0  0  0
   11.0538  -18.4925   26.9851 C   0  0  0  0  0  0  0  0  0  0  0  0
   11.2062  -17.7376   28.1126 O   0  0  0  0  0  0  0  0  0  0  0  0
   10.6758  -19.6926   27.1484 O   0  0  0  0  0  0  0  0  0  0  0  0
  2  1  1  6
  3  2  1  0
  4  2  1  0
  5  4  1  0
  5  6  1  1
  7  8  2  0
  7  5  1  0
  9  7  1  0
 10 18  1  0
 10  9  1  0
 10 11  1  1
 12 13  2  0
 12 11  1  0
 14 13  1  0
 15 14  2  0
 16 15  1  0
 16 17  2  0
 17 12  1  0
 18 28  1  0
 19 18  2  0
 20 21  1  0
 21 22  2  0
 23 21  1  0
 23 24  1  0
 24 25  1  0
 25 26  1  0
 27 26  1  1
 27 29  1  0
 28 27  1  0
 29 31  2  0
 29 30  1  0
M  END
$$$$
