LFR.pdb
     RDKit          3D

 31 31  0  0  1  0  0  0  0  0999 V2000
    7.3648  -12.7065   18.6520 C   0  0  0  0  0  0  0  0  0  0  0  0
    8.2200  -13.9269   18.9979 C   0  0  1  0  0  0  0  0  0  0  0  0
    9.3454  -13.9935   18.0083 C   0  0  0  0  0  0  0  0  0  0  0  0
    8.6686  -13.8432   20.4334 C   0  0  0  0  0  0  0  0  0  0  0  0
    8.7246  -15.2175   21.0489 C   0  0  2  0  0  0  0  0  0  0  0  0
    7.4985  -15.9507   20.8110 N   0  0  0  0  0  0  0  0  0  0  0  0
    9.0089  -15.1634   22.5064 C   0  0  0  0  0  0  0  0  0  0  0  0
   10.0656  -14.6004   22.9313 O   0  0  0  0  0  0  0  0  0  0  0  0
    8.1490  -15.7184   23.4835 N   0  0  0  0  0  0  0  0  0  0  0  0
    8.3859  -15.6551   24.9168 C   0  0  1  0  0  0  0  0  0  0  0  0
    7.1988  -15.3258   25.7180 C   0  0  0  0  0  0  0  0  0  0  0  0
    6.9699  -13.9016   26.0245 C   0  0  0  0  0  0  0  0  0  0  0  0
    5.8512  -13.2512   25.5646 C   0  0  0  0  0  0  0  0  0  0  0  0
    5.6537  -11.8999   25.8283 C   0  0  0  0  0  0  0  0  0  0  0  0
    6.5601  -11.1577   26.5548 C   0  0  0  0  0  0  0  0  0  0  0  0
    7.6865  -11.7980   27.0214 C   0  0  0  0  0  0  0  0  0  0  0  0
    7.8747  -13.1372   26.7555 C   0  0  0  0  0  0  0  0  0  0  0  0
    9.0124  -16.9119   25.3378 C   0  0  0  0  0  0  0  0  0  0  0  0
    8.3083  -17.9934   25.2880 O   0  0  0  0  0  0  0  0  0  0  0  0
   12.5064  -19.4946   20.9695 N   0  0  0  0  0  0  0  0  0  0  0  0
   13.6869  -18.7537   21.2899 C   0  0  0  0  0  0  0  0  0  0  0  0
   14.4730  -18.3466   20.3563 N   0  0  0  0  0  0  0  0  0  0  0  0
   13.9893  -18.4672   22.6497 N   0  0  0  0  0  0  0  0  0  0  0  0
   13.5330  -19.2647   23.7461 C   0  0  0  0  0  0  0  0  0  0  0  0
   12.2236  -18.8064   24.3019 C   0  0  0  0  0  0  0  0  0  0  0  0
   12.1889  -18.7117   25.8080 C   0  0  0  0  0  0  0  0  0  0  0  0
   10.8078  -18.3652   26.3246 C   0  0  2  0  0  0  0  0  0  0  0  0
   10.3321  -17.1113   25.8010 N   0  0  0  0  0  0  0  0  0  0  0  0
   10.7427  -18.5410   27.7737 C   0  0  0  0  0  0  0  0  0  0  0  0
   11.0837  -19.7120   28.3877 O   0  0  0  0  0  0  0  0  0  0  0  0
   10.3604  -17.5927   28.5249 O   0  0  0  0  0  0  0  0  0  0  0  0
  2  1  1  6
  3  2  1  0
  4  2  1  0
  5  4  1  0
  5  6  1  1
  7  8  2  0
  7  5  1  0
  9  7  1  0
 10 18  1  0
 10  9  1  0
 10 11  1  1
 12 13  2  0
 12 11  1  0
 14 13  1  0
 15 14  2  0
 16 15  1  0
 16 17  2  0
 17 12  1  0
 18 28  1  0
 19 18  2  0
 20 21  1  0
 21 22  2  0
 23 21  1  0
 23 24  1  0
 24 25  1  0
 25 26  1  0
 27 26  1  1
 27 29  1  0
 28 27  1  0
 29 31  2  0
 29 30  1  0
M  END
$$$$
