LFR.pdb
     RDKit          3D

 31 31  0  0  1  0  0  0  0  0999 V2000
    7.1044  -11.9308   18.4404 C   0  0  0  0  0  0  0  0  0  0  0  0
    7.3322  -13.3735   18.8954 C   0  0  1  0  0  0  0  0  0  0  0  0
    7.7868  -14.1636   17.7040 C   0  0  0  0  0  0  0  0  0  0  0  0
    8.2974  -13.3957   20.0517 C   0  0  0  0  0  0  0  0  0  0  0  0
    8.4067  -14.7869   20.6202 C   0  0  2  0  0  0  0  0  0  0  0  0
    7.1305  -15.4710   20.5856 N   0  0  0  0  0  0  0  0  0  0  0  0
    8.9420  -14.7813   22.0063 C   0  0  0  0  0  0  0  0  0  0  0  0
   10.0759  -14.2635   22.2518 O   0  0  0  0  0  0  0  0  0  0  0  0
    8.2460  -15.3352   23.1067 N   0  0  0  0  0  0  0  0  0  0  0  0
    8.6983  -15.2594   24.4867 C   0  0  1  0  0  0  0  0  0  0  0  0
    7.6188  -15.2519   25.4837 C   0  0  0  0  0  0  0  0  0  0  0  0
    7.1483  -13.9356   25.9536 C   0  0  0  0  0  0  0  0  0  0  0  0
    8.0380  -12.9336   26.2542 C   0  0  0  0  0  0  0  0  0  0  0  0
    7.5930  -11.7038   26.7276 C   0  0  0  0  0  0  0  0  0  0  0  0
    6.2541  -11.4349   26.9154 C   0  0  0  0  0  0  0  0  0  0  0  0
    5.3514  -12.4314   26.6180 C   0  0  0  0  0  0  0  0  0  0  0  0
    5.8007  -13.6473   26.1496 C   0  0  0  0  0  0  0  0  0  0  0  0
    9.6633  -16.3388   24.7169 C   0  0  0  0  0  0  0  0  0  0  0  0
    9.3002  -17.5503   24.4556 O   0  0  0  0  0  0  0  0  0  0  0  0
   16.6519  -20.6199   25.3363 N   0  0  0  0  0  0  0  0  0  0  0  0
   16.8320  -19.8736   24.1297 C   0  0  0  0  0  0  0  0  0  0  0  0
   17.4354  -20.4001   23.1229 N   0  0  0  0  0  0  0  0  0  0  0  0
   16.3389  -18.5421   24.0468 N   0  0  0  0  0  0  0  0  0  0  0  0
   15.6809  -17.8740   25.1271 C   0  0  0  0  0  0  0  0  0  0  0  0
   14.2242  -18.1958   25.2175 C   0  0  0  0  0  0  0  0  0  0  0  0
   13.3189  -16.9890   25.1697 C   0  0  0  0  0  0  0  0  0  0  0  0
   11.8639  -17.3610   25.3665 C   0  0  2  0  0  0  0  0  0  0  0  0
   10.9878  -16.2312   25.1964 N   0  0  0  0  0  0  0  0  0  0  0  0
   11.6955  -18.1473   26.5864 C   0  0  0  0  0  0  0  0  0  0  0  0
   11.2143  -17.6103   27.7460 O   0  0  0  0  0  0  0  0  0  0  0  0
   11.9958  -19.3798   26.6097 O   0  0  0  0  0  0  0  0  0  0  0  0
  2  1  1  6
  3  2  1  0
  4  2  1  0
  5  4  1  0
  5  6  1  1
  7  8  2  0
  7  5  1  0
  9  7  1  0
 10 18  1  0
 10  9  1  0
 10 11  1  1
 12 13  2  0
 12 11  1  0
 14 13  1  0
 15 14  2  0
 16 15  1  0
 16 17  2  0
 17 12  1  0
 18 28  1  0
 19 18  2  0
 20 21  1  0
 21 22  2  0
 23 21  1  0
 23 24  1  0
 24 25  1  0
 25 26  1  0
 27 26  1  1
 27 29  1  0
 28 27  1  0
 29 31  2  0
 29 30  1  0
M  END
$$$$
