QLE.pdb
     RDKit          3D

 27 26  0  0  1  0  0  0  0  0999 V2000
   18.8400  -20.5646  -11.2577 N   0  0  0  0  0  0  0  0  0  0  0  0
   19.1654  -21.9317  -11.0865 C   0  0  0  0  0  0  0  0  0  0  0  0
   18.4674  -22.8291  -11.6100 O   0  0  0  0  0  0  0  0  0  0  0  0
   20.3397  -22.3033  -10.2818 C   0  0  0  0  0  0  0  0  0  0  0  0
   21.0332  -21.0635   -9.7521 C   0  0  0  0  0  0  0  0  0  0  0  0
   22.2194  -21.5453   -8.9400 C   0  0  2  0  0  0  0  0  0  0  0  0
   21.9655  -21.3311   -7.5416 N   0  0  0  0  0  0  0  0  0  0  0  0
   23.4310  -20.8205   -9.3909 C   0  0  0  0  0  0  0  0  0  0  0  0
   23.2291  -19.7072   -9.9775 O   0  0  0  0  0  0  0  0  0  0  0  0
   28.3448  -20.5452   -6.7717 C   0  0  0  0  0  0  0  0  0  0  0  0
   27.1144  -20.2342   -7.5874 C   0  0  1  0  0  0  0  0  0  0  0  0
   27.0980  -18.7017   -7.7287 C   0  0  0  0  0  0  0  0  0  0  0  0
   27.1469  -20.7753   -8.9675 C   0  0  0  0  0  0  0  0  0  0  0  0
   25.8934  -20.5509   -9.7747 C   0  0  2  0  0  0  0  0  0  0  0  0
   24.7624  -21.2727   -9.2167 N   0  0  0  0  0  0  0  0  0  0  0  0
   26.0856  -20.9676  -11.1860 C   0  0  0  0  0  0  0  0  0  0  0  0
   26.3893  -22.1683  -11.4858 O   0  0  0  0  0  0  0  0  0  0  0  0
   25.9516  -20.0942  -12.2827 N   0  0  0  0  0  0  0  0  0  0  0  0
   25.9862  -20.5817  -13.6717 C   0  0  1  0  0  0  0  0  0  0  0  0
   24.8380  -20.0486  -14.4447 C   0  0  0  0  0  0  0  0  0  0  0  0
   23.7518  -21.0719  -14.6067 C   0  0  0  0  0  0  0  0  0  0  0  0
   22.4568  -20.5132  -15.0197 C   0  0  0  0  0  0  0  0  0  0  0  0
   22.3289  -19.2772  -15.1659 O   0  0  0  0  0  0  0  0  0  0  0  0
   27.2643  -20.0675  -14.2165 C   0  0  0  0  0  0  0  0  0  0  0  0
   27.8912  -20.6815  -15.1588 O   0  0  0  0  0  0  0  0  0  0  0  0
   21.3716  -21.3485  -15.2495 O   0  0  0  0  0  0  0  0  0  0  0  0
   27.8605  -18.9108  -13.7599 O   0  0  0  0  0  0  0  0  0  0  0  0
  2  1  1  0
  2  3  2  0
  4  2  1  0
  5  4  1  0
  6  8  1  0
  6  5  1  0
  6  7  1  1
  8 15  1  0
  9  8  2  0
 11 10  1  1
 12 11  1  0
 14 13  1  1
 13 11  1  0
 14 16  1  0
 15 14  1  0
 16 18  1  0
 17 16  2  0
 18 19  1  0
 19 24  1  0
 19 20  1  6
 21 20  1  0
 22 23  2  0
 22 21  1  0
 24 25  2  0
 24 27  1  0
 26 22  1  0
M  END
$$$$
