QLE.pdb
     RDKit          3D

 27 26  0  0  1  0  0  0  0  0999 V2000
   20.2229  -13.6418  -22.0648 N   0  0  0  0  0  0  0  0  0  0  0  0
   20.8729  -14.8813  -22.2783 C   0  0  0  0  0  0  0  0  0  0  0  0
   20.5906  -15.5929  -23.2685 O   0  0  0  0  0  0  0  0  0  0  0  0
   21.8938  -15.3398  -21.3233 C   0  0  0  0  0  0  0  0  0  0  0  0
   22.0536  -14.3380  -20.1966 C   0  0  0  0  0  0  0  0  0  0  0  0
   23.1350  -14.8827  -19.2840 C   0  0  2  0  0  0  0  0  0  0  0  0
   22.7781  -16.2055  -18.8494 N   0  0  0  0  0  0  0  0  0  0  0  0
   23.3000  -13.9586  -18.1371 C   0  0  0  0  0  0  0  0  0  0  0  0
   22.2770  -13.8048  -17.3929 O   0  0  0  0  0  0  0  0  0  0  0  0
   28.3031  -13.1564  -15.7914 C   0  0  0  0  0  0  0  0  0  0  0  0
   26.8504  -13.4164  -16.1048 C   0  0  1  0  0  0  0  0  0  0  0  0
   26.2977  -14.1621  -14.8770 C   0  0  0  0  0  0  0  0  0  0  0  0
   26.0297  -12.1896  -16.2462 C   0  0  0  0  0  0  0  0  0  0  0  0
   24.5923  -12.4204  -16.6378 C   0  0  2  0  0  0  0  0  0  0  0  0
   24.4889  -13.2548  -17.8231 N   0  0  0  0  0  0  0  0  0  0  0  0
   23.8940  -11.1350  -16.8878 C   0  0  0  0  0  0  0  0  0  0  0  0
   24.0374  -10.5071  -17.9873 O   0  0  0  0  0  0  0  0  0  0  0  0
   23.0371  -10.5183  -15.9557 N   0  0  0  0  0  0  0  0  0  0  0  0
   22.3130   -9.2756  -16.2711 C   0  0  1  0  0  0  0  0  0  0  0  0
   20.8691   -9.5461  -16.4762 C   0  0  0  0  0  0  0  0  0  0  0  0
   20.1038   -8.2901  -16.7764 C   0  0  0  0  0  0  0  0  0  0  0  0
   18.6849   -8.5114  -17.0888 C   0  0  0  0  0  0  0  0  0  0  0  0
   17.8016   -8.0929  -16.3076 O   0  0  0  0  0  0  0  0  0  0  0  0
   22.5175   -8.4125  -15.0846 C   0  0  0  0  0  0  0  0  0  0  0  0
   22.7308   -8.9110  -13.9167 O   0  0  0  0  0  0  0  0  0  0  0  0
   18.3162   -9.1830  -18.2469 O   0  0  0  0  0  0  0  0  0  0  0  0
   22.4965   -7.0349  -15.1491 O   0  0  0  0  0  0  0  0  0  0  0  0
  2  1  1  0
  2  3  2  0
  4  2  1  0
  5  4  1  0
  6  8  1  0
  6  5  1  0
  6  7  1  1
  8 15  1  0
  9  8  2  0
 11 10  1  1
 12 11  1  0
 14 13  1  6
 13 11  1  0
 14 16  1  0
 15 14  1  0
 16 18  1  0
 17 16  2  0
 18 19  1  0
 19 24  1  0
 19 20  1  1
 21 20  1  0
 22 23  2  0
 22 21  1  0
 24 25  2  0
 24 27  1  0
 26 22  1  0
M  END
$$$$
