QLE.pdb
     RDKit          3D

 27 26  0  0  1  0  0  0  0  0999 V2000
   28.3826  -22.1925  -15.2312 N   0  0  0  0  0  0  0  0  0  0  0  0
   28.2834  -21.1387  -16.1714 C   0  0  0  0  0  0  0  0  0  0  0  0
   29.2982  -20.5003  -16.5310 O   0  0  0  0  0  0  0  0  0  0  0  0
   26.9697  -20.7884  -16.7335 C   0  0  0  0  0  0  0  0  0  0  0  0
   25.8980  -21.7150  -16.1936 C   0  0  0  0  0  0  0  0  0  0  0  0
   24.7730  -20.8299  -15.6938 C   0  0  2  0  0  0  0  0  0  0  0  0
   25.2592  -19.4900  -15.5089 N   0  0  0  0  0  0  0  0  0  0  0  0
   24.2464  -21.3975  -14.4300 C   0  0  0  0  0  0  0  0  0  0  0  0
   23.7039  -22.5473  -14.5183 O   0  0  0  0  0  0  0  0  0  0  0  0
   26.3725  -20.0704   -9.5530 C   0  0  0  0  0  0  0  0  0  0  0  0
   25.7571  -20.6302  -10.8115 C   0  0  1  0  0  0  0  0  0  0  0  0
   26.4083  -22.0116  -11.0020 C   0  0  0  0  0  0  0  0  0  0  0  0
   24.2970  -20.8717  -10.7190 C   0  0  0  0  0  0  0  0  0  0  0  0
   23.6374  -21.3164  -11.9997 C   0  0  2  0  0  0  0  0  0  0  0  0
   24.3056  -20.7621  -13.1651 N   0  0  0  0  0  0  0  0  0  0  0  0
   22.2070  -20.9224  -12.0283 C   0  0  0  0  0  0  0  0  0  0  0  0
   21.4223  -21.2093  -11.0660 O   0  0  0  0  0  0  0  0  0  0  0  0
   21.6129  -20.2170  -13.0927 N   0  0  0  0  0  0  0  0  0  0  0  0
   20.1692  -19.9290  -13.1229 C   0  0  1  0  0  0  0  0  0  0  0  0
   19.8744  -18.8172  -14.0594 C   0  0  0  0  0  0  0  0  0  0  0  0
   18.4034  -18.5280  -14.1359 C   0  0  0  0  0  0  0  0  0  0  0  0
   18.0470  -17.4774  -15.0998 C   0  0  0  0  0  0  0  0  0  0  0  0
   18.7811  -17.2648  -16.0904 O   0  0  0  0  0  0  0  0  0  0  0  0
   19.5469  -21.1873  -13.5962 C   0  0  0  0  0  0  0  0  0  0  0  0
   18.2775  -21.3856  -13.5108 O   0  0  0  0  0  0  0  0  0  0  0  0
   16.8992  -16.7171  -14.9188 O   0  0  0  0  0  0  0  0  0  0  0  0
   20.2741  -22.2172  -14.1554 O   0  0  0  0  0  0  0  0  0  0  0  0
  2  1  1  0
  2  3  2  0
  4  2  1  0
  5  4  1  0
  6  8  1  0
  6  5  1  0
  6  7  1  1
  8 15  1  0
  9  8  2  0
 11 10  1  1
 12 11  1  0
 14 13  1  1
 13 11  1  0
 14 16  1  0
 15 14  1  0
 16 18  1  0
 17 16  2  0
 18 19  1  0
 19 24  1  0
 19 20  1  6
 21 20  1  0
 22 23  2  0
 22 21  1  0
 24 25  2  0
 24 27  1  0
 26 22  1  0
M  END
$$$$
