QLE.pdb
     RDKit          3D

 27 26  0  0  1  0  0  0  0  0999 V2000
   27.2004  -19.0939   -8.6490 N   0  0  0  0  0  0  0  0  0  0  0  0
   26.5787  -19.6543   -7.5073 C   0  0  0  0  0  0  0  0  0  0  0  0
   26.9239  -19.3116   -6.3540 O   0  0  0  0  0  0  0  0  0  0  0  0
   25.5125  -20.6536   -7.6781 C   0  0  0  0  0  0  0  0  0  0  0  0
   25.3115  -20.9684   -9.1475 C   0  0  0  0  0  0  0  0  0  0  0  0
   24.3198  -19.9506   -9.6759 C   0  0  2  0  0  0  0  0  0  0  0  0
   23.0681  -20.0924   -8.9837 N   0  0  0  0  0  0  0  0  0  0  0  0
   24.1611  -20.1538  -11.1354 C   0  0  0  0  0  0  0  0  0  0  0  0
   23.1186  -19.6415  -11.6598 O   0  0  0  0  0  0  0  0  0  0  0  0
   29.1705  -20.3962  -13.7683 C   0  0  0  0  0  0  0  0  0  0  0  0
   27.8022  -20.0171  -13.2585 C   0  0  1  0  0  0  0  0  0  0  0  0
   27.5490  -18.5965  -13.7939 C   0  0  0  0  0  0  0  0  0  0  0  0
   26.7017  -20.8591  -13.7865 C   0  0  0  0  0  0  0  0  0  0  0  0
   25.3181  -20.4629  -13.3375 C   0  0  2  0  0  0  0  0  0  0  0  0
   25.0683  -20.8610  -11.9625 N   0  0  0  0  0  0  0  0  0  0  0  0
   24.2806  -21.0638  -14.2120 C   0  0  0  0  0  0  0  0  0  0  0  0
   24.2890  -22.3073  -14.4904 O   0  0  0  0  0  0  0  0  0  0  0  0
   23.2278  -20.3296  -14.7916 N   0  0  0  0  0  0  0  0  0  0  0  0
   22.2133  -20.9698  -15.6455 C   0  0  1  0  0  0  0  0  0  0  0  0
   20.8735  -20.3824  -15.4008 C   0  0  0  0  0  0  0  0  0  0  0  0
   20.4205  -20.5976  -13.9859 C   0  0  0  0  0  0  0  0  0  0  0  0
   19.0380  -20.1718  -13.7264 C   0  0  0  0  0  0  0  0  0  0  0  0
   18.4272  -19.4851  -14.5753 O   0  0  0  0  0  0  0  0  0  0  0  0
   22.6595  -20.6897  -17.0301 C   0  0  0  0  0  0  0  0  0  0  0  0
   23.6185  -19.8664  -17.2760 O   0  0  0  0  0  0  0  0  0  0  0  0
   18.4032  -20.5266  -12.5434 O   0  0  0  0  0  0  0  0  0  0  0  0
   22.0879  -21.2851  -18.1351 O   0  0  0  0  0  0  0  0  0  0  0  0
  2  1  1  0
  2  3  2  0
  4  2  1  0
  5  4  1  0
  6  8  1  0
  6  5  1  0
  6  7  1  1
  8 15  1  0
  9  8  2  0
 11 10  1  6
 12 11  1  0
 14 13  1  6
 13 11  1  0
 14 16  1  0
 15 14  1  0
 16 18  1  0
 17 16  2  0
 18 19  1  0
 19 24  1  0
 19 20  1  6
 21 20  1  0
 22 23  2  0
 22 21  1  0
 24 25  2  0
 24 27  1  0
 26 22  1  0
M  END
$$$$
