QLE.pdb
     RDKit          3D

 27 26  0  0  1  0  0  0  0  0999 V2000
   20.4182  -31.9531   -8.4814 N   0  0  0  0  0  0  0  0  0  0  0  0
   19.0786  -32.0895   -8.9189 C   0  0  0  0  0  0  0  0  0  0  0  0
   18.5586  -33.2199   -9.0545 O   0  0  0  0  0  0  0  0  0  0  0  0
   18.2867  -30.8864   -9.2188 C   0  0  0  0  0  0  0  0  0  0  0  0
   19.1132  -29.6366   -8.9880 C   0  0  0  0  0  0  0  0  0  0  0  0
   18.7533  -28.6691  -10.0984 C   0  0  2  0  0  0  0  0  0  0  0  0
   19.3830  -29.0837  -11.3222 N   0  0  0  0  0  0  0  0  0  0  0  0
   19.1807  -27.3070   -9.7002 C   0  0  0  0  0  0  0  0  0  0  0  0
   20.3991  -27.1856   -9.3468 O   0  0  0  0  0  0  0  0  0  0  0  0
   17.6844  -22.8768  -12.4031 C   0  0  0  0  0  0  0  0  0  0  0  0
   18.3145  -23.9763  -11.5845 C   0  0  1  0  0  0  0  0  0  0  0  0
   19.8070  -23.9572  -11.9601 C   0  0  0  0  0  0  0  0  0  0  0  0
   18.2550  -23.7542  -10.1197 C   0  0  0  0  0  0  0  0  0  0  0  0
   18.8413  -24.8594   -9.2784 C   0  0  2  0  0  0  0  0  0  0  0  0
   18.3455  -26.1626   -9.6877 N   0  0  0  0  0  0  0  0  0  0  0  0
   18.5367  -24.6548   -7.8405 C   0  0  0  0  0  0  0  0  0  0  0  0
   18.9258  -23.6095   -7.2241 O   0  0  0  0  0  0  0  0  0  0  0  0
   17.8114  -25.5739   -7.0580 N   0  0  0  0  0  0  0  0  0  0  0  0
   17.4889  -25.3066   -5.6463 C   0  0  1  0  0  0  0  0  0  0  0  0
   16.2066  -24.5703   -5.5303 C   0  0  0  0  0  0  0  0  0  0  0  0
   15.7997  -24.3816   -4.0978 C   0  0  0  0  0  0  0  0  0  0  0  0
   14.5285  -23.6650   -3.9237 C   0  0  0  0  0  0  0  0  0  0  0  0
   13.8902  -23.2747   -4.9265 O   0  0  0  0  0  0  0  0  0  0  0  0
   17.3767  -26.6482   -5.0281 C   0  0  0  0  0  0  0  0  0  0  0  0
   17.0250  -27.6796   -5.7142 O   0  0  0  0  0  0  0  0  0  0  0  0
   14.0295  -23.4170   -2.6518 O   0  0  0  0  0  0  0  0  0  0  0  0
   17.6399  -26.8818   -3.6946 O   0  0  0  0  0  0  0  0  0  0  0  0
  2  1  1  0
  2  3  2  0
  4  2  1  0
  5  4  1  0
  6  8  1  0
  6  5  1  0
  6  7  1  6
  8 15  1  0
  9  8  2  0
 11 10  1  6
 12 11  1  0
 14 13  1  6
 13 11  1  0
 14 16  1  0
 15 14  1  0
 16 18  1  0
 17 16  2  0
 18 19  1  0
 19 24  1  0
 19 20  1  6
 21 20  1  0
 22 23  2  0
 22 21  1  0
 24 25  2  0
 24 27  1  0
 26 22  1  0
M  END
$$$$
