QLE.pdb
     RDKit          3D

 27 26  0  0  1  0  0  0  0  0999 V2000
   19.6269  -25.1546  -13.7101 N   0  0  0  0  0  0  0  0  0  0  0  0
   19.7854  -24.0088  -14.5264 C   0  0  0  0  0  0  0  0  0  0  0  0
   20.3645  -24.0832  -15.6335 O   0  0  0  0  0  0  0  0  0  0  0  0
   19.2627  -22.7124  -14.0673 C   0  0  0  0  0  0  0  0  0  0  0  0
   20.3365  -21.6458  -14.1578 C   0  0  0  0  0  0  0  0  0  0  0  0
   21.0286  -21.6136  -12.8092 C   0  0  2  0  0  0  0  0  0  0  0  0
   20.1681  -20.9917  -11.8403 N   0  0  0  0  0  0  0  0  0  0  0  0
   22.3098  -20.8820  -12.9490 C   0  0  0  0  0  0  0  0  0  0  0  0
   22.2172  -19.6227  -13.1219 O   0  0  0  0  0  0  0  0  0  0  0  0
   26.8076  -21.7551   -9.9601 C   0  0  0  0  0  0  0  0  0  0  0  0
   25.7038  -21.1458  -10.7886 C   0  0  1  0  0  0  0  0  0  0  0  0
   25.6920  -19.6531  -10.4139 C   0  0  0  0  0  0  0  0  0  0  0  0
   25.9397  -21.2019  -12.2515 C   0  0  0  0  0  0  0  0  0  0  0  0
   24.8047  -20.6949  -13.1046 C   0  0  2  0  0  0  0  0  0  0  0  0
   23.5956  -21.4755  -12.9039 N   0  0  0  0  0  0  0  0  0  0  0  0
   25.1655  -20.7218  -14.5439 C   0  0  0  0  0  0  0  0  0  0  0  0
   25.1046  -21.7994  -15.2212 O   0  0  0  0  0  0  0  0  0  0  0  0
   25.5936  -19.5887  -15.2623 N   0  0  0  0  0  0  0  0  0  0  0  0
   25.7864  -19.6223  -16.7218 C   0  0  1  0  0  0  0  0  0  0  0  0
   25.2710  -18.3809  -17.3489 C   0  0  0  0  0  0  0  0  0  0  0  0
   25.4771  -18.3805  -18.8358 C   0  0  0  0  0  0  0  0  0  0  0  0
   24.9502  -17.1885  -19.5150 C   0  0  0  0  0  0  0  0  0  0  0  0
   24.3371  -16.3169  -18.8593 O   0  0  0  0  0  0  0  0  0  0  0  0
   27.2530  -19.7269  -16.9027 C   0  0  0  0  0  0  0  0  0  0  0  0
   28.0753  -19.2204  -16.0511 O   0  0  0  0  0  0  0  0  0  0  0  0
   25.1278  -17.0219  -20.8821 O   0  0  0  0  0  0  0  0  0  0  0  0
   27.8301  -20.3673  -17.9793 O   0  0  0  0  0  0  0  0  0  0  0  0
  2  1  1  0
  2  3  2  0
  4  2  1  0
  5  4  1  0
  6  8  1  0
  6  5  1  0
  6  7  1  1
  8 15  1  0
  9  8  2  0
 11 10  1  1
 12 11  1  0
 14 13  1  1
 13 11  1  0
 14 16  1  0
 15 14  1  0
 16 18  1  0
 17 16  2  0
 18 19  1  0
 19 24  1  0
 19 20  1  6
 21 20  1  0
 22 23  2  0
 22 21  1  0
 24 25  2  0
 24 27  1  0
 26 22  1  0
M  END
$$$$
