QLE.pdb
     RDKit          3D

 27 26  0  0  1  0  0  0  0  0999 V2000
   26.9674  -16.3434  -15.1405 N   0  0  0  0  0  0  0  0  0  0  0  0
   27.6774  -16.7094  -16.3094 C   0  0  0  0  0  0  0  0  0  0  0  0
   28.6024  -15.9911  -16.7510 O   0  0  0  0  0  0  0  0  0  0  0  0
   27.3232  -17.9506  -17.0153 C   0  0  0  0  0  0  0  0  0  0  0  0
   26.1816  -18.6550  -16.3087 C   0  0  0  0  0  0  0  0  0  0  0  0
   26.8044  -19.7549  -15.4714 C   0  0  2  0  0  0  0  0  0  0  0  0
   27.4300  -20.7209  -16.3324 N   0  0  0  0  0  0  0  0  0  0  0  0
   25.7479  -20.3734  -14.6360 C   0  0  0  0  0  0  0  0  0  0  0  0
   25.0643  -21.2939  -15.1924 O   0  0  0  0  0  0  0  0  0  0  0  0
   26.1097  -20.6655   -9.0718 C   0  0  0  0  0  0  0  0  0  0  0  0
   25.9388  -20.8415  -10.5604 C   0  0  1  0  0  0  0  0  0  0  0  0
   26.1284  -22.3475  -10.8153 C   0  0  0  0  0  0  0  0  0  0  0  0
   24.5841  -20.5058  -11.0610 C   0  0  0  0  0  0  0  0  0  0  0  0
   24.3917  -20.6636  -12.5479 C   0  0  2  0  0  0  0  0  0  0  0  0
   25.4568  -20.0174  -13.2959 N   0  0  0  0  0  0  0  0  0  0  0  0
   23.0872  -20.1032  -12.9799 C   0  0  0  0  0  0  0  0  0  0  0  0
   22.8750  -18.8467  -12.9817 O   0  0  0  0  0  0  0  0  0  0  0  0
   22.0039  -20.8921  -13.4127 N   0  0  0  0  0  0  0  0  0  0  0  0
   20.7517  -20.2903  -13.9007 C   0  0  1  0  0  0  0  0  0  0  0  0
   20.4214  -20.7910  -15.2572 C   0  0  0  0  0  0  0  0  0  0  0  0
   19.1127  -20.2450  -15.7497 C   0  0  0  0  0  0  0  0  0  0  0  0
   18.7392  -20.7025  -17.0954 C   0  0  0  0  0  0  0  0  0  0  0  0
   17.5482  -20.9910  -17.3478 O   0  0  0  0  0  0  0  0  0  0  0  0
   19.7249  -20.7196  -12.9230 C   0  0  0  0  0  0  0  0  0  0  0  0
   19.7775  -21.8726  -12.3522 O   0  0  0  0  0  0  0  0  0  0  0  0
   19.7002  -20.8173  -18.0911 O   0  0  0  0  0  0  0  0  0  0  0  0
   18.6584  -19.9238  -12.5601 O   0  0  0  0  0  0  0  0  0  0  0  0
  2  1  1  0
  2  3  2  0
  4  2  1  0
  5  4  1  0
  6  8  1  0
  6  5  1  0
  6  7  1  6
  8 15  1  0
  9  8  2  0
 11 10  1  1
 12 11  1  0
 14 13  1  1
 13 11  1  0
 14 16  1  0
 15 14  1  0
 16 18  1  0
 17 16  2  0
 18 19  1  0
 19 24  1  0
 19 20  1  6
 21 20  1  0
 22 23  2  0
 22 21  1  0
 24 25  2  0
 24 27  1  0
 26 22  1  0
M  END
$$$$
