QLE.pdb
     RDKit          3D

 27 26  0  0  1  0  0  0  0  0999 V2000
   19.5533  -13.7613  -22.0530 N   0  0  0  0  0  0  0  0  0  0  0  0
   19.8773  -15.0301  -21.5150 C   0  0  0  0  0  0  0  0  0  0  0  0
   19.0491  -15.9684  -21.5374 O   0  0  0  0  0  0  0  0  0  0  0  0
   21.2053  -15.2493  -20.9209 C   0  0  0  0  0  0  0  0  0  0  0  0
   21.5175  -14.1665  -19.9066 C   0  0  0  0  0  0  0  0  0  0  0  0
   22.9505  -14.3887  -19.4643 C   0  0  2  0  0  0  0  0  0  0  0  0
   23.1353  -15.7674  -19.1023 N   0  0  0  0  0  0  0  0  0  0  0  0
   23.2440  -13.4833  -18.3283 C   0  0  0  0  0  0  0  0  0  0  0  0
   22.3906  -13.4812  -17.3817 O   0  0  0  0  0  0  0  0  0  0  0  0
   26.0193  -10.5996  -14.5482 C   0  0  0  0  0  0  0  0  0  0  0  0
   26.2259  -10.2061  -15.9898 C   0  0  1  0  0  0  0  0  0  0  0  0
   27.7190   -9.8500  -16.1032 C   0  0  0  0  0  0  0  0  0  0  0  0
   25.9887  -11.3025  -16.9595 C   0  0  0  0  0  0  0  0  0  0  0  0
   24.5469  -11.7098  -17.1278 C   0  0  2  0  0  0  0  0  0  0  0  0
   24.3806  -12.6432  -18.2291 N   0  0  0  0  0  0  0  0  0  0  0  0
   23.6816  -10.5268  -17.3604 C   0  0  0  0  0  0  0  0  0  0  0  0
   23.6815   -9.9169  -18.4793 O   0  0  0  0  0  0  0  0  0  0  0  0
   22.8113   -9.9937  -16.3900 N   0  0  0  0  0  0  0  0  0  0  0  0
   22.0069   -8.7876  -16.6477 C   0  0  1  0  0  0  0  0  0  0  0  0
   20.5929   -9.0051  -16.2563 C   0  0  0  0  0  0  0  0  0  0  0  0
   19.7749   -7.7552  -16.4042 C   0  0  0  0  0  0  0  0  0  0  0  0
   18.3672   -7.9083  -16.0107 C   0  0  0  0  0  0  0  0  0  0  0  0
   17.9659   -8.9961  -15.5405 O   0  0  0  0  0  0  0  0  0  0  0  0
   22.6252   -7.7386  -15.8039 C   0  0  0  0  0  0  0  0  0  0  0  0
   23.0651   -7.9967  -14.6216 O   0  0  0  0  0  0  0  0  0  0  0  0
   17.4772   -6.8525  -16.1571 O   0  0  0  0  0  0  0  0  0  0  0  0
   22.7724   -6.4326  -16.2220 O   0  0  0  0  0  0  0  0  0  0  0  0
  2  1  1  0
  2  3  2  0
  4  2  1  0
  5  4  1  0
  6  8  1  0
  6  5  1  0
  6  7  1  1
  8 15  1  0
  9  8  2  0
 11 10  1  1
 12 11  1  0
 14 13  1  6
 13 11  1  0
 14 16  1  0
 15 14  1  0
 16 18  1  0
 17 16  2  0
 18 19  1  0
 19 24  1  0
 19 20  1  1
 21 20  1  0
 22 23  2  0
 22 21  1  0
 24 25  2  0
 24 27  1  0
 26 22  1  0
M  END
$$$$
