QLE.pdb
     RDKit          3D

 27 26  0  0  1  0  0  0  0  0999 V2000
   27.7206  -20.5112  -17.2612 N   0  0  0  0  0  0  0  0  0  0  0  0
   28.5425  -19.4977  -16.7119 C   0  0  0  0  0  0  0  0  0  0  0  0
   29.1807  -18.7160  -17.4523 O   0  0  0  0  0  0  0  0  0  0  0  0
   28.6486  -19.3614  -15.2508 C   0  0  0  0  0  0  0  0  0  0  0  0
   27.8822  -20.4709  -14.5578 C   0  0  0  0  0  0  0  0  0  0  0  0
   26.4621  -19.9703  -14.3810 C   0  0  2  0  0  0  0  0  0  0  0  0
   26.4780  -18.5572  -14.1185 N   0  0  0  0  0  0  0  0  0  0  0  0
   25.8264  -20.7228  -13.2737 C   0  0  0  0  0  0  0  0  0  0  0  0
   25.5745  -21.9504  -13.5059 O   0  0  0  0  0  0  0  0  0  0  0  0
   26.4402  -19.4833   -7.8950 C   0  0  0  0  0  0  0  0  0  0  0  0
   26.2898  -20.1560   -9.2369 C   0  0  1  0  0  0  0  0  0  0  0  0
   26.9238  -21.5480   -9.0663 C   0  0  0  0  0  0  0  0  0  0  0  0
   24.8839  -20.3904   -9.6456 C   0  0  0  0  0  0  0  0  0  0  0  0
   24.7024  -20.9276  -11.0425 C   0  0  2  0  0  0  0  0  0  0  0  0
   25.4902  -20.1808  -12.0085 N   0  0  0  0  0  0  0  0  0  0  0  0
   23.2753  -20.8895  -11.4479 C   0  0  0  0  0  0  0  0  0  0  0  0
   22.3631  -21.3790  -10.7048 O   0  0  0  0  0  0  0  0  0  0  0  0
   22.8220  -20.3241  -12.6554 N   0  0  0  0  0  0  0  0  0  0  0  0
   21.3882  -20.2247  -12.9757 C   0  0  1  0  0  0  0  0  0  0  0  0
   21.1592  -19.2420  -14.0628 C   0  0  0  0  0  0  0  0  0  0  0  0
   19.6995  -19.0894  -14.3781 C   0  0  0  0  0  0  0  0  0  0  0  0
   19.4282  -18.4237  -15.6599 C   0  0  0  0  0  0  0  0  0  0  0  0
   18.2708  -18.4338  -16.1352 O   0  0  0  0  0  0  0  0  0  0  0  0
   21.0084  -21.5870  -13.4169 C   0  0  0  0  0  0  0  0  0  0  0  0
   21.8622  -22.3816  -13.9625 O   0  0  0  0  0  0  0  0  0  0  0  0
   20.4489  -17.7823  -16.3491 O   0  0  0  0  0  0  0  0  0  0  0  0
   19.7329  -22.0915  -13.2731 O   0  0  0  0  0  0  0  0  0  0  0  0
  2  1  1  0
  2  3  2  0
  4  2  1  0
  5  4  1  0
  6  8  1  0
  6  5  1  0
  6  7  1  1
  8 15  1  0
  9  8  2  0
 11 10  1  1
 12 11  1  0
 14 13  1  1
 13 11  1  0
 14 16  1  0
 15 14  1  0
 16 18  1  0
 17 16  2  0
 18 19  1  0
 19 24  1  0
 19 20  1  6
 21 20  1  0
 22 23  2  0
 22 21  1  0
 24 25  2  0
 24 27  1  0
 26 22  1  0
M  END
$$$$
