QLE.pdb
     RDKit          3D

 27 26  0  0  1  0  0  0  0  0999 V2000
   22.5517  -18.0940  -16.3628 N   0  0  0  0  0  0  0  0  0  0  0  0
   23.4305  -17.3861  -17.2177 C   0  0  0  0  0  0  0  0  0  0  0  0
   23.3888  -16.1372  -17.2911 O   0  0  0  0  0  0  0  0  0  0  0  0
   24.4060  -18.1280  -18.0317 C   0  0  0  0  0  0  0  0  0  0  0  0
   24.1925  -19.6217  -17.8842 C   0  0  0  0  0  0  0  0  0  0  0  0
   25.1577  -20.0928  -16.8141 C   0  0  2  0  0  0  0  0  0  0  0  0
   26.0848  -21.0336  -17.3811 N   0  0  0  0  0  0  0  0  0  0  0  0
   24.3814  -20.6946  -15.7043 C   0  0  0  0  0  0  0  0  0  0  0  0
   23.7864  -21.7900  -15.9694 O   0  0  0  0  0  0  0  0  0  0  0  0
   26.0743  -20.7919  -10.4664 C   0  0  0  0  0  0  0  0  0  0  0  0
   25.4906  -21.0515  -11.8331 C   0  0  1  0  0  0  0  0  0  0  0  0
   25.4402  -22.5838  -11.9684 C   0  0  0  0  0  0  0  0  0  0  0  0
   24.0956  -20.5767  -11.9988 C   0  0  0  0  0  0  0  0  0  0  0  0
   23.4957  -20.8101  -13.3621 C   0  0  2  0  0  0  0  0  0  0  0  0
   24.2614  -20.1462  -14.4034 N   0  0  0  0  0  0  0  0  0  0  0  0
   22.0910  -20.3346  -13.4157 C   0  0  0  0  0  0  0  0  0  0  0  0
   21.7999  -19.1085  -13.2264 O   0  0  0  0  0  0  0  0  0  0  0  0
   20.9915  -21.1761  -13.6736 N   0  0  0  0  0  0  0  0  0  0  0  0
   19.6145  -20.6579  -13.7319 C   0  0  1  0  0  0  0  0  0  0  0  0
   18.7913  -21.4573  -14.6717 C   0  0  0  0  0  0  0  0  0  0  0  0
   18.7924  -22.9149  -14.3128 C   0  0  0  0  0  0  0  0  0  0  0  0
   17.9723  -23.7525  -15.1992 C   0  0  0  0  0  0  0  0  0  0  0  0
   17.2928  -23.2219  -16.1059 O   0  0  0  0  0  0  0  0  0  0  0  0
   19.1049  -20.7946  -12.3476 C   0  0  0  0  0  0  0  0  0  0  0  0
   17.9575  -20.3235  -12.0018 O   0  0  0  0  0  0  0  0  0  0  0  0
   17.9458  -25.1314  -15.0375 O   0  0  0  0  0  0  0  0  0  0  0  0
   19.8134  -21.4293  -11.3489 O   0  0  0  0  0  0  0  0  0  0  0  0
  2  1  1  0
  2  3  2  0
  4  2  1  0
  5  4  1  0
  6  8  1  0
  6  5  1  0
  6  7  1  6
  8 15  1  0
  9  8  2  0
 11 10  1  1
 12 11  1  0
 14 13  1  1
 13 11  1  0
 14 16  1  0
 15 14  1  0
 16 18  1  0
 17 16  2  0
 18 19  1  0
 19 24  1  0
 19 20  1  6
 21 20  1  0
 22 23  2  0
 22 21  1  0
 24 25  2  0
 24 27  1  0
 26 22  1  0
M  END
$$$$
