AFQ.pdb
     RDKit          3D

 26 26  0  0  1  0  0  0  0  0999 V2000
   27.3901  -19.4611  -16.5281 C   0  0  0  0  0  0  0  0  0  0  0  0
   27.9264  -20.7430  -15.9083 C   0  0  2  0  0  0  0  0  0  0  0  0
   27.7532  -21.7857  -16.8966 N   0  0  0  0  0  0  0  0  0  0  0  0
   27.0968  -21.0989  -14.7272 C   0  0  0  0  0  0  0  0  0  0  0  0
   26.0322  -21.7609  -14.8318 O   0  0  0  0  0  0  0  0  0  0  0  0
   27.5081  -20.6870  -13.4557 N   0  0  0  0  0  0  0  0  0  0  0  0
   26.6978  -21.0007  -12.2739 C   0  0  1  0  0  0  0  0  0  0  0  0
   27.5160  -20.7821  -11.0342 C   0  0  0  0  0  0  0  0  0  0  0  0
   26.6996  -20.6652   -9.8226 C   0  0  0  0  0  0  0  0  0  0  0  0
   25.8932  -21.6698   -9.3318 C   0  0  0  0  0  0  0  0  0  0  0  0
   25.1620  -21.5486   -8.1690 C   0  0  0  0  0  0  0  0  0  0  0  0
   25.2132  -20.3853   -7.4353 C   0  0  0  0  0  0  0  0  0  0  0  0
   26.0098  -19.3598   -7.8971 C   0  0  0  0  0  0  0  0  0  0  0  0
   26.7396  -19.4849   -9.0605 C   0  0  0  0  0  0  0  0  0  0  0  0
   25.4697  -20.1812  -12.3597 C   0  0  0  0  0  0  0  0  0  0  0  0
   25.5724  -18.9260  -12.5527 O   0  0  0  0  0  0  0  0  0  0  0  0
   23.0710  -20.2523  -16.4030 N   0  0  0  0  0  0  0  0  0  0  0  0
   22.2887  -21.2199  -15.6995 C   0  0  0  0  0  0  0  0  0  0  0  0
   21.9668  -22.2477  -16.3053 O   0  0  0  0  0  0  0  0  0  0  0  0
   21.8861  -20.9876  -14.3033 C   0  0  0  0  0  0  0  0  0  0  0  0
   22.4397  -19.7491  -13.6855 C   0  0  0  0  0  0  0  0  0  0  0  0
   22.9398  -19.8975  -12.3006 C   0  0  2  0  0  0  0  0  0  0  0  0
   24.1611  -20.7157  -12.2428 N   0  0  0  0  0  0  0  0  0  0  0  0
   21.9460  -20.2997  -11.2886 C   0  0  0  0  0  0  0  0  0  0  0  0
   22.0809  -21.3131  -10.5685 O   0  0  0  0  0  0  0  0  0  0  0  0
   20.7706  -19.5645  -11.0676 O   0  0  0  0  0  0  0  0  0  0  0  0
  2  1  1  6
  3  2  1  0
  4  5  2  0
  4  2  1  0
  6  4  1  0
  7  6  1  0
  7  8  1  1
  8  9  1  0
  9 10  2  0
  9 14  1  0
 10 11  1  0
 11 12  2  0
 13 12  1  0
 14 13  2  0
 15 16  2  0
 15  7  1  0
 18 17  1  0
 19 18  2  0
 20 18  1  0
 22 21  1  6
 21 20  1  0
 22 23  1  0
 23 15  1  0
 24 22  1  0
 25 24  2  0
 26 24  1  0
M  END
$$$$
