AFQ.pdb
     RDKit          3D

 26 26  0  0  1  0  0  0  0  0999 V2000
   28.5381  -22.0787  -18.3859 C   0  0  0  0  0  0  0  0  0  0  0  0
   27.5461  -22.9918  -17.6809 C   0  0  2  0  0  0  0  0  0  0  0  0
   27.7037  -22.7585  -16.2615 N   0  0  0  0  0  0  0  0  0  0  0  0
   27.9104  -24.4081  -17.9483 C   0  0  0  0  0  0  0  0  0  0  0  0
   28.0061  -24.8657  -19.1162 O   0  0  0  0  0  0  0  0  0  0  0  0
   28.1560  -25.2644  -16.8703 N   0  0  0  0  0  0  0  0  0  0  0  0
   28.4386  -26.6856  -17.0987 C   0  0  1  0  0  0  0  0  0  0  0  0
   29.5554  -27.1245  -16.1964 C   0  0  0  0  0  0  0  0  0  0  0  0
   29.8582  -28.5537  -16.3138 C   0  0  0  0  0  0  0  0  0  0  0  0
   30.6221  -29.1037  -17.3210 C   0  0  0  0  0  0  0  0  0  0  0  0
   30.9236  -30.4475  -17.3898 C   0  0  0  0  0  0  0  0  0  0  0  0
   30.4583  -31.3131  -16.4263 C   0  0  0  0  0  0  0  0  0  0  0  0
   29.6911  -30.7970  -15.4042 C   0  0  0  0  0  0  0  0  0  0  0  0
   29.3918  -29.4524  -15.3390 C   0  0  0  0  0  0  0  0  0  0  0  0
   27.1664  -27.4164  -16.9126 C   0  0  0  0  0  0  0  0  0  0  0  0
   26.5738  -27.3557  -15.7863 O   0  0  0  0  0  0  0  0  0  0  0  0
   21.7246  -29.1099  -16.8105 N   0  0  0  0  0  0  0  0  0  0  0  0
   22.3170  -27.8105  -16.7501 C   0  0  0  0  0  0  0  0  0  0  0  0
   21.7274  -26.9408  -16.0997 O   0  0  0  0  0  0  0  0  0  0  0  0
   23.5844  -27.5307  -17.4436 C   0  0  0  0  0  0  0  0  0  0  0  0
   24.1705  -28.6886  -18.1768 C   0  0  0  0  0  0  0  0  0  0  0  0
   25.4784  -29.1643  -17.6740 C   0  0  2  0  0  0  0  0  0  0  0  0
   26.5516  -28.1909  -17.9294 N   0  0  0  0  0  0  0  0  0  0  0  0
   25.8626  -30.5361  -18.0536 C   0  0  0  0  0  0  0  0  0  0  0  0
   25.2503  -31.5495  -17.6513 O   0  0  0  0  0  0  0  0  0  0  0  0
   26.9537  -30.7959  -18.8980 O   0  0  0  0  0  0  0  0  0  0  0  0
  2  1  1  6
  3  2  1  0
  4  5  2  0
  4  2  1  0
  6  4  1  0
  7  6  1  0
  7  8  1  1
  8  9  1  0
  9 10  2  0
  9 14  1  0
 10 11  1  0
 11 12  2  0
 13 12  1  0
 14 13  2  0
 15 16  2  0
 15  7  1  0
 18 17  1  0
 19 18  2  0
 20 18  1  0
 22 21  1  6
 21 20  1  0
 22 23  1  0
 23 15  1  0
 24 22  1  0
 25 24  2  0
 26 24  1  0
M  END
$$$$
