AFQ.pdb
     RDKit          3D

 26 26  0  0  1  0  0  0  0  0999 V2000
   24.2034  -20.4507  -12.9892 C   0  0  0  0  0  0  0  0  0  0  0  0
   25.6566  -20.7318  -12.6370 C   0  0  2  0  0  0  0  0  0  0  0  0
   26.0353  -21.9262  -13.3608 N   0  0  0  0  0  0  0  0  0  0  0  0
   25.7579  -21.0333  -11.1849 C   0  0  0  0  0  0  0  0  0  0  0  0
   25.4225  -22.1479  -10.7076 O   0  0  0  0  0  0  0  0  0  0  0  0
   26.2410  -20.0497  -10.3160 N   0  0  0  0  0  0  0  0  0  0  0  0
   26.4843  -20.3598   -8.9031 C   0  0  1  0  0  0  0  0  0  0  0  0
   27.5049  -19.4072   -8.3508 C   0  0  0  0  0  0  0  0  0  0  0  0
   27.7949  -19.6378   -6.9327 C   0  0  0  0  0  0  0  0  0  0  0  0
   27.4293  -18.7796   -5.9177 C   0  0  0  0  0  0  0  0  0  0  0  0
   27.6816  -19.0363   -4.5865 C   0  0  0  0  0  0  0  0  0  0  0  0
   28.3267  -20.1933   -4.2133 C   0  0  0  0  0  0  0  0  0  0  0  0
   28.7066  -21.0743   -5.2027 C   0  0  0  0  0  0  0  0  0  0  0  0
   28.4524  -20.8139   -6.5329 C   0  0  0  0  0  0  0  0  0  0  0  0
   25.1728  -20.3293   -8.2201 C   0  0  0  0  0  0  0  0  0  0  0  0
   24.3443  -19.4047   -8.5066 O   0  0  0  0  0  0  0  0  0  0  0  0
   20.4034  -23.4644   -8.6349 N   0  0  0  0  0  0  0  0  0  0  0  0
   20.0491  -22.7272   -7.4627 C   0  0  0  0  0  0  0  0  0  0  0  0
   18.8685  -22.7596   -7.0995 O   0  0  0  0  0  0  0  0  0  0  0  0
   21.0642  -21.9595   -6.7239 C   0  0  0  0  0  0  0  0  0  0  0  0
   22.4166  -21.9367   -7.3504 C   0  0  0  0  0  0  0  0  0  0  0  0
   23.4691  -21.2517   -6.5676 C   0  0  2  0  0  0  0  0  0  0  0  0
   24.7711  -21.2847   -7.2518 N   0  0  0  0  0  0  0  0  0  0  0  0
   23.5724  -21.6277   -5.1458 C   0  0  0  0  0  0  0  0  0  0  0  0
   24.4659  -22.3838   -4.7057 O   0  0  0  0  0  0  0  0  0  0  0  0
   22.6631  -21.1582   -4.1848 O   0  0  0  0  0  0  0  0  0  0  0  0
  2  1  1  1
  3  2  1  0
  4  5  2  0
  4  2  1  0
  6  4  1  0
  7  6  1  0
  7  8  1  1
  8  9  1  0
  9 10  2  0
  9 14  1  0
 10 11  1  0
 11 12  2  0
 13 12  1  0
 14 13  2  0
 15 16  2  0
 15  7  1  0
 18 17  1  0
 19 18  2  0
 20 18  1  0
 22 21  1  6
 21 20  1  0
 22 23  1  0
 23 15  1  0
 24 22  1  0
 25 24  2  0
 26 24  1  0
M  END
$$$$
