AFQ.pdb
     RDKit          3D

 26 26  0  0  1  0  0  0  0  0999 V2000
   23.8606  -34.1790   -8.2287 C   0  0  0  0  0  0  0  0  0  0  0  0
   24.8042  -33.5014   -9.2113 C   0  0  2  0  0  0  0  0  0  0  0  0
   26.1289  -33.5771   -8.6339 N   0  0  0  0  0  0  0  0  0  0  0  0
   24.4427  -32.0638   -9.3235 C   0  0  0  0  0  0  0  0  0  0  0  0
   25.2511  -31.1454   -9.0311 O   0  0  0  0  0  0  0  0  0  0  0  0
   23.1635  -31.7148   -9.7681 N   0  0  0  0  0  0  0  0  0  0  0  0
   22.8505  -30.3246  -10.1159 C   0  0  1  0  0  0  0  0  0  0  0  0
   23.7175  -29.8883  -11.2613 C   0  0  0  0  0  0  0  0  0  0  0  0
   23.2369  -30.3704  -12.5592 C   0  0  0  0  0  0  0  0  0  0  0  0
   22.0962  -29.9110  -13.1823 C   0  0  0  0  0  0  0  0  0  0  0  0
   21.6837  -30.3542  -14.4212 C   0  0  0  0  0  0  0  0  0  0  0  0
   22.4187  -31.2995  -15.0998 C   0  0  0  0  0  0  0  0  0  0  0  0
   23.5655  -31.7810  -14.5060 C   0  0  0  0  0  0  0  0  0  0  0  0
   23.9745  -31.3350  -13.2667 C   0  0  0  0  0  0  0  0  0  0  0  0
   21.3964  -30.2598  -10.3781 C   0  0  0  0  0  0  0  0  0  0  0  0
   20.8427  -31.1942  -11.0441 O   0  0  0  0  0  0  0  0  0  0  0  0
   16.1739  -30.3758   -7.9327 N   0  0  0  0  0  0  0  0  0  0  0  0
   17.4842  -30.5392   -7.3854 C   0  0  0  0  0  0  0  0  0  0  0  0
   17.6267  -31.3599   -6.4727 O   0  0  0  0  0  0  0  0  0  0  0  0
   18.6155  -29.7506   -7.8991 C   0  0  0  0  0  0  0  0  0  0  0  0
   18.2977  -28.8783   -9.0654 C   0  0  0  0  0  0  0  0  0  0  0  0
   19.1382  -29.0884  -10.2650 C   0  0  2  0  0  0  0  0  0  0  0  0
   20.5642  -29.2054   -9.9226 N   0  0  0  0  0  0  0  0  0  0  0  0
   18.9053  -28.1681  -11.3930 C   0  0  0  0  0  0  0  0  0  0  0  0
   17.8836  -28.2191  -12.1122 O   0  0  0  0  0  0  0  0  0  0  0  0
   19.8266  -27.1664  -11.7376 O   0  0  0  0  0  0  0  0  0  0  0  0
  2  1  1  1
  3  2  1  0
  4  5  2  0
  4  2  1  0
  6  4  1  0
  7  6  1  0
  7  8  1  6
  8  9  1  0
  9 10  2  0
  9 14  1  0
 10 11  1  0
 11 12  2  0
 13 12  1  0
 14 13  2  0
 15 16  2  0
 15  7  1  0
 18 17  1  0
 19 18  2  0
 20 18  1  0
 22 21  1  1
 21 20  1  0
 22 23  1  0
 23 15  1  0
 24 22  1  0
 25 24  2  0
 26 24  1  0
M  END
$$$$
