AFQ.pdb
     RDKit          3D

 26 26  0  0  1  0  0  0  0  0999 V2000
   26.9924  -20.6590  -18.3255 C   0  0  0  0  0  0  0  0  0  0  0  0
   27.9340  -21.2302  -17.2758 C   0  0  2  0  0  0  0  0  0  0  0  0
   28.4585  -22.4655  -17.8170 N   0  0  0  0  0  0  0  0  0  0  0  0
   27.1568  -21.5673  -16.0541 C   0  0  0  0  0  0  0  0  0  0  0  0
   26.4747  -22.6204  -15.9639 O   0  0  0  0  0  0  0  0  0  0  0  0
   27.1811  -20.6887  -14.9663 N   0  0  0  0  0  0  0  0  0  0  0  0
   26.4937  -21.0327  -13.7169 C   0  0  1  0  0  0  0  0  0  0  0  0
   27.1568  -20.3258  -12.5704 C   0  0  0  0  0  0  0  0  0  0  0  0
   26.4560  -20.5170  -11.2974 C   0  0  0  0  0  0  0  0  0  0  0  0
   26.5891  -21.6334  -10.4997 C   0  0  0  0  0  0  0  0  0  0  0  0
   25.9467  -21.7744   -9.2877 C   0  0  0  0  0  0  0  0  0  0  0  0
   25.1253  -20.7752   -8.8176 C   0  0  0  0  0  0  0  0  0  0  0  0
   24.9692  -19.6444   -9.5899 C   0  0  0  0  0  0  0  0  0  0  0  0
   25.6134  -19.5073  -10.8015 C   0  0  0  0  0  0  0  0  0  0  0  0
   25.0635  -20.7058  -13.9043 C   0  0  0  0  0  0  0  0  0  0  0  0
   24.7456  -19.6095  -14.4703 O   0  0  0  0  0  0  0  0  0  0  0  0
   19.9918  -24.4319  -13.5816 N   0  0  0  0  0  0  0  0  0  0  0  0
   19.4499  -23.1850  -14.0229 C   0  0  0  0  0  0  0  0  0  0  0  0
   18.2208  -23.0923  -14.1102 O   0  0  0  0  0  0  0  0  0  0  0  0
   20.3357  -22.0591  -14.3596 C   0  0  0  0  0  0  0  0  0  0  0  0
   21.7912  -22.3275  -14.1822 C   0  0  0  0  0  0  0  0  0  0  0  0
   22.5821  -21.2063  -13.6279 C   0  0  2  0  0  0  0  0  0  0  0  0
   24.0049  -21.5539  -13.4896 N   0  0  0  0  0  0  0  0  0  0  0  0
   22.0409  -20.5634  -12.4166 C   0  0  0  0  0  0  0  0  0  0  0  0
   22.2510  -20.9998  -11.2637 O   0  0  0  0  0  0  0  0  0  0  0  0
   21.2443  -19.4092  -12.4802 O   0  0  0  0  0  0  0  0  0  0  0  0
  2  1  1  6
  3  2  1  0
  4  5  2  0
  4  2  1  0
  6  4  1  0
  7  6  1  0
  7  8  1  1
  8  9  1  0
  9 10  2  0
  9 14  1  0
 10 11  1  0
 11 12  2  0
 13 12  1  0
 14 13  2  0
 15 16  2  0
 15  7  1  0
 18 17  1  0
 19 18  2  0
 20 18  1  0
 22 21  1  1
 21 20  1  0
 22 23  1  0
 23 15  1  0
 24 22  1  0
 25 24  2  0
 26 24  1  0
M  END
$$$$
