AFQ.pdb
     RDKit          3D

 26 26  0  0  1  0  0  0  0  0999 V2000
   22.7028  -11.4762  -20.0094 C   0  0  0  0  0  0  0  0  0  0  0  0
   24.1529  -11.5953  -19.5647 C   0  0  2  0  0  0  0  0  0  0  0  0
   24.4038  -13.0026  -19.3404 N   0  0  0  0  0  0  0  0  0  0  0  0
   24.3245  -10.8939  -18.2652 C   0  0  0  0  0  0  0  0  0  0  0  0
   23.9631  -11.4067  -17.1748 O   0  0  0  0  0  0  0  0  0  0  0  0
   24.9062   -9.6222  -18.2480 N   0  0  0  0  0  0  0  0  0  0  0  0
   25.0841   -8.9028  -16.9822 C   0  0  1  0  0  0  0  0  0  0  0  0
   26.5495   -8.7104  -16.7181 C   0  0  0  0  0  0  0  0  0  0  0  0
   27.2359   -9.9563  -16.3648 C   0  0  0  0  0  0  0  0  0  0  0  0
   27.0491  -10.6343  -15.1791 C   0  0  0  0  0  0  0  0  0  0  0  0
   27.6796  -11.8249  -14.8846 C   0  0  0  0  0  0  0  0  0  0  0  0
   28.5437  -12.3951  -15.7915 C   0  0  0  0  0  0  0  0  0  0  0  0
   28.7539  -11.7438  -16.9877 C   0  0  0  0  0  0  0  0  0  0  0  0
   28.1214  -10.5533  -17.2785 C   0  0  0  0  0  0  0  0  0  0  0  0
   24.3015   -7.6517  -17.0804 C   0  0  0  0  0  0  0  0  0  0  0  0
   24.4322   -6.9163  -18.1125 O   0  0  0  0  0  0  0  0  0  0  0  0
   18.4160   -6.5398  -15.3658 N   0  0  0  0  0  0  0  0  0  0  0  0
   19.0709   -7.4367  -16.2656 C   0  0  0  0  0  0  0  0  0  0  0  0
   18.3846   -8.3118  -16.8044 O   0  0  0  0  0  0  0  0  0  0  0  0
   20.5129   -7.3125  -16.5318 C   0  0  0  0  0  0  0  0  0  0  0  0
   21.1900   -6.1892  -15.8234 C   0  0  0  0  0  0  0  0  0  0  0  0
   22.6095   -5.9741  -16.1820 C   0  0  2  0  0  0  0  0  0  0  0  0
   23.3950   -7.2140  -16.0812 N   0  0  0  0  0  0  0  0  0  0  0  0
   23.2790   -4.8311  -15.5350 C   0  0  0  0  0  0  0  0  0  0  0  0
   23.5129   -4.7862  -14.3073 O   0  0  0  0  0  0  0  0  0  0  0  0
   23.6992   -3.7064  -16.2626 O   0  0  0  0  0  0  0  0  0  0  0  0
  2  1  1  1
  3  2  1  0
  4  5  2  0
  4  2  1  0
  6  4  1  0
  7  6  1  0
  7  8  1  6
  8  9  1  0
  9 10  2  0
  9 14  1  0
 10 11  1  0
 11 12  2  0
 13 12  1  0
 14 13  2  0
 15 16  2  0
 15  7  1  0
 18 17  1  0
 19 18  2  0
 20 18  1  0
 22 21  1  1
 21 20  1  0
 22 23  1  0
 23 15  1  0
 24 22  1  0
 25 24  2  0
 26 24  1  0
M  END
$$$$
