AFQ.pdb
     RDKit          3D

 26 26  0  0  1  0  0  0  0  0999 V2000
   18.0731   -2.6215  -17.7737 C   0  0  0  0  0  0  0  0  0  0  0  0
   19.5315   -2.9861  -17.5389 C   0  0  2  0  0  0  0  0  0  0  0  0
   20.0620   -3.4168  -18.8144 N   0  0  0  0  0  0  0  0  0  0  0  0
   19.6020   -4.1427  -16.6076 C   0  0  0  0  0  0  0  0  0  0  0  0
   19.1161   -5.2663  -16.8974 O   0  0  0  0  0  0  0  0  0  0  0  0
   20.2279   -3.9825  -15.3672 N   0  0  0  0  0  0  0  0  0  0  0  0
   20.3508   -5.1159  -14.4442 C   0  0  1  0  0  0  0  0  0  0  0  0
   21.7953   -5.3150  -14.0865 C   0  0  0  0  0  0  0  0  0  0  0  0
   22.0116   -6.4556  -13.1919 C   0  0  0  0  0  0  0  0  0  0  0  0
   21.8761   -6.4017  -11.8211 C   0  0  0  0  0  0  0  0  0  0  0  0
   22.0496   -7.4983  -11.0031 C   0  0  0  0  0  0  0  0  0  0  0  0
   22.3739   -8.7220  -11.5430 C   0  0  0  0  0  0  0  0  0  0  0  0
   22.5172   -8.8121  -12.9108 C   0  0  0  0  0  0  0  0  0  0  0  0
   22.3429   -7.7130  -13.7253 C   0  0  0  0  0  0  0  0  0  0  0  0
   19.4593   -4.8398  -13.2969 C   0  0  0  0  0  0  0  0  0  0  0  0
   19.4987   -3.6942  -12.7409 O   0  0  0  0  0  0  0  0  0  0  0  0
   13.4814   -5.7649  -12.4112 N   0  0  0  0  0  0  0  0  0  0  0  0
   13.9099   -5.4686  -11.0802 C   0  0  0  0  0  0  0  0  0  0  0  0
   13.0380   -5.2957  -10.2218 O   0  0  0  0  0  0  0  0  0  0  0  0
   15.3424   -5.3744  -10.7566 C   0  0  0  0  0  0  0  0  0  0  0  0
   16.2649   -5.6479  -11.8951 C   0  0  0  0  0  0  0  0  0  0  0  0
   17.7078   -5.5380  -11.5855 C   0  0  2  0  0  0  0  0  0  0  0  0
   18.5438   -5.7866  -12.7703 N   0  0  0  0  0  0  0  0  0  0  0  0
   18.1783   -6.2789  -10.4009 C   0  0  0  0  0  0  0  0  0  0  0  0
   17.8166   -6.0000   -9.2368 O   0  0  0  0  0  0  0  0  0  0  0  0
   19.0741   -7.3548  -10.5043 O   0  0  0  0  0  0  0  0  0  0  0  0
  2  1  1  6
  3  2  1  0
  4  5  2  0
  4  2  1  0
  6  4  1  0
  7  6  1  0
  7  8  1  1
  8  9  1  0
  9 10  2  0
  9 14  1  0
 10 11  1  0
 11 12  2  0
 13 12  1  0
 14 13  2  0
 15 16  2  0
 15  7  1  0
 18 17  1  0
 19 18  2  0
 20 18  1  0
 22 21  1  6
 21 20  1  0
 22 23  1  0
 23 15  1  0
 24 22  1  0
 25 24  2  0
 26 24  1  0
M  END
$$$$
