AFQ.pdb
     RDKit          3D

 26 26  0  0  1  0  0  0  0  0999 V2000
   28.1931  -31.7652  -17.3045 C   0  0  0  0  0  0  0  0  0  0  0  0
   27.4145  -30.5090  -16.9433 C   0  0  2  0  0  0  0  0  0  0  0  0
   26.1423  -30.5984  -17.6270 N   0  0  0  0  0  0  0  0  0  0  0  0
   28.1304  -29.3203  -17.4766 C   0  0  0  0  0  0  0  0  0  0  0  0
   27.5194  -28.3166  -17.9259 O   0  0  0  0  0  0  0  0  0  0  0  0
   29.5289  -29.3117  -17.4816 N   0  0  0  0  0  0  0  0  0  0  0  0
   30.2644  -28.0525  -17.6402 C   0  0  1  0  0  0  0  0  0  0  0  0
   29.9544  -27.1436  -16.4862 C   0  0  0  0  0  0  0  0  0  0  0  0
   28.9167  -26.1565  -16.7976 C   0  0  0  0  0  0  0  0  0  0  0  0
   27.6258  -26.2115  -16.3170 C   0  0  0  0  0  0  0  0  0  0  0  0
   26.6767  -25.2505  -16.5950 C   0  0  0  0  0  0  0  0  0  0  0  0
   26.9946  -24.1700  -17.3859 C   0  0  0  0  0  0  0  0  0  0  0  0
   28.2769  -24.0831  -17.8835 C   0  0  0  0  0  0  0  0  0  0  0  0
   29.2232  -25.0463  -17.6032 C   0  0  0  0  0  0  0  0  0  0  0  0
   31.6940  -28.4009  -17.7896 C   0  0  0  0  0  0  0  0  0  0  0  0
   32.1469  -29.4342  -17.1976 O   0  0  0  0  0  0  0  0  0  0  0  0
   36.6792  -31.7709  -20.7875 N   0  0  0  0  0  0  0  0  0  0  0  0
   35.4961  -31.0016  -20.5603 C   0  0  0  0  0  0  0  0  0  0  0  0
   34.5491  -31.1623  -21.3376 O   0  0  0  0  0  0  0  0  0  0  0  0
   35.4216  -30.0539  -19.4369 C   0  0  0  0  0  0  0  0  0  0  0  0
   34.0578  -29.5270  -19.1463 C   0  0  0  0  0  0  0  0  0  0  0  0
   33.9840  -28.0780  -18.8552 C   0  0  2  0  0  0  0  0  0  0  0  0
   32.6075  -27.6453  -18.5681 N   0  0  0  0  0  0  0  0  0  0  0  0
   34.6652  -27.1859  -19.8111 C   0  0  0  0  0  0  0  0  0  0  0  0
   34.0751  -26.6353  -20.7664 O   0  0  0  0  0  0  0  0  0  0  0  0
   36.0352  -26.8960  -19.7110 O   0  0  0  0  0  0  0  0  0  0  0  0
  2  1  1  6
  3  2  1  0
  4  5  2  0
  4  2  1  0
  6  4  1  0
  7  6  1  0
  7  8  1  1
  8  9  1  0
  9 10  2  0
  9 14  1  0
 10 11  1  0
 11 12  2  0
 13 12  1  0
 14 13  2  0
 15 16  2  0
 15  7  1  0
 18 17  1  0
 19 18  2  0
 20 18  1  0
 22 21  1  6
 21 20  1  0
 22 23  1  0
 23 15  1  0
 24 22  1  0
 25 24  2  0
 26 24  1  0
M  END
$$$$
