AFQ.pdb
     RDKit          3D

 26 26  0  0  1  0  0  0  0  0999 V2000
   22.8502  -11.2286  -20.3346 C   0  0  0  0  0  0  0  0  0  0  0  0
   24.1752  -11.4664  -19.6258 C   0  0  2  0  0  0  0  0  0  0  0  0
   24.2565  -12.8872  -19.3638 N   0  0  0  0  0  0  0  0  0  0  0  0
   24.1604  -10.7663  -18.3145 C   0  0  0  0  0  0  0  0  0  0  0  0
   23.4491  -11.1588  -17.3540 O   0  0  0  0  0  0  0  0  0  0  0  0
   24.9612   -9.6336  -18.1369 N   0  0  0  0  0  0  0  0  0  0  0  0
   25.1314   -9.0446  -16.8043 C   0  0  1  0  0  0  0  0  0  0  0  0
   26.5909   -9.0141  -16.4538 C   0  0  0  0  0  0  0  0  0  0  0  0
   27.1769  -10.3514  -16.3253 C   0  0  0  0  0  0  0  0  0  0  0  0
   26.9297  -11.2078  -15.2737 C   0  0  0  0  0  0  0  0  0  0  0  0
   27.4646  -12.4762  -15.1932 C   0  0  0  0  0  0  0  0  0  0  0  0
   28.2890  -12.9459  -16.1902 C   0  0  0  0  0  0  0  0  0  0  0  0
   28.5576  -12.1158  -17.2570 C   0  0  0  0  0  0  0  0  0  0  0  0
   28.0206  -10.8478  -17.3337 C   0  0  0  0  0  0  0  0  0  0  0  0
   24.4705   -7.7217  -16.8269 C   0  0  0  0  0  0  0  0  0  0  0  0
   24.4088   -7.0766  -17.9239 O   0  0  0  0  0  0  0  0  0  0  0  0
   22.0053   -4.5426  -19.0131 N   0  0  0  0  0  0  0  0  0  0  0  0
   20.9897   -4.3030  -18.0363 C   0  0  0  0  0  0  0  0  0  0  0  0
   20.2650   -3.3144  -18.1926 O   0  0  0  0  0  0  0  0  0  0  0  0
   20.8240   -5.2089  -16.8885 C   0  0  0  0  0  0  0  0  0  0  0  0
   21.8656   -6.2683  -16.7664 C   0  0  0  0  0  0  0  0  0  0  0  0
   22.9143   -6.0159  -15.7533 C   0  0  2  0  0  0  0  0  0  0  0  0
   23.8870   -7.1175  -15.6840 N   0  0  0  0  0  0  0  0  0  0  0  0
   22.4449   -5.5968  -14.4201 C   0  0  0  0  0  0  0  0  0  0  0  0
   22.1203   -6.4097  -13.5270 O   0  0  0  0  0  0  0  0  0  0  0  0
   22.3284   -4.2437  -14.0644 O   0  0  0  0  0  0  0  0  0  0  0  0
  2  1  1  1
  3  2  1  0
  4  5  2  0
  4  2  1  0
  6  4  1  0
  7  6  1  0
  7  8  1  6
  8  9  1  0
  9 10  2  0
  9 14  1  0
 10 11  1  0
 11 12  2  0
 13 12  1  0
 14 13  2  0
 15 16  2  0
 15  7  1  0
 18 17  1  0
 19 18  2  0
 20 18  1  0
 22 21  1  6
 21 20  1  0
 22 23  1  0
 23 15  1  0
 24 22  1  0
 25 24  2  0
 26 24  1  0
M  END
$$$$
