AFQ.pdb
     RDKit          3D

 26 26  0  0  1  0  0  0  0  0999 V2000
   27.8293  -22.8668  -17.0541 C   0  0  0  0  0  0  0  0  0  0  0  0
   26.9640  -21.6800  -16.6571 C   0  0  2  0  0  0  0  0  0  0  0  0
   27.8449  -20.5355  -16.5680 N   0  0  0  0  0  0  0  0  0  0  0  0
   26.3976  -21.9196  -15.3036 C   0  0  0  0  0  0  0  0  0  0  0  0
   25.6439  -22.8960  -15.0564 O   0  0  0  0  0  0  0  0  0  0  0  0
   26.7093  -21.0339  -14.2672 N   0  0  0  0  0  0  0  0  0  0  0  0
   26.0668  -21.1683  -12.9554 C   0  0  1  0  0  0  0  0  0  0  0  0
   26.9754  -20.6174  -11.8948 C   0  0  0  0  0  0  0  0  0  0  0  0
   26.3193  -20.4852  -10.5909 C   0  0  0  0  0  0  0  0  0  0  0  0
   26.1352  -19.2873   -9.9341 C   0  0  0  0  0  0  0  0  0  0  0  0
   25.4820  -19.1841   -8.7240 C   0  0  0  0  0  0  0  0  0  0  0  0
   24.9757  -20.3074   -8.1110 C   0  0  0  0  0  0  0  0  0  0  0  0
   25.1419  -21.5224   -8.7401 C   0  0  0  0  0  0  0  0  0  0  0  0
   25.7957  -21.6213   -9.9503 C   0  0  0  0  0  0  0  0  0  0  0  0
   24.7478  -20.5057  -13.0485 C   0  0  0  0  0  0  0  0  0  0  0  0
   24.6763  -19.3284  -13.5300 O   0  0  0  0  0  0  0  0  0  0  0  0
   19.6232  -18.9718  -16.5407 N   0  0  0  0  0  0  0  0  0  0  0  0
   19.7855  -20.1088  -15.6899 C   0  0  0  0  0  0  0  0  0  0  0  0
   19.4493  -21.2114  -16.1352 O   0  0  0  0  0  0  0  0  0  0  0  0
   20.3340  -19.9581  -14.3328 C   0  0  0  0  0  0  0  0  0  0  0  0
   21.6870  -20.5502  -14.1305 C   0  0  0  0  0  0  0  0  0  0  0  0
   22.2190  -20.4659  -12.7522 C   0  0  2  0  0  0  0  0  0  0  0  0
   23.5352  -21.1119  -12.6314 N   0  0  0  0  0  0  0  0  0  0  0  0
   21.2972  -20.8635  -11.6725 C   0  0  0  0  0  0  0  0  0  0  0  0
   21.4344  -21.9187  -11.0157 O   0  0  0  0  0  0  0  0  0  0  0  0
   20.1929  -20.0760  -11.3102 O   0  0  0  0  0  0  0  0  0  0  0  0
  2  1  1  1
  3  2  1  0
  4  5  2  0
  4  2  1  0
  6  4  1  0
  7  6  1  0
  7  8  1  1
  8  9  1  0
  9 10  2  0
  9 14  1  0
 10 11  1  0
 11 12  2  0
 13 12  1  0
 14 13  2  0
 15 16  2  0
 15  7  1  0
 18 17  1  0
 19 18  2  0
 20 18  1  0
 22 21  1  6
 21 20  1  0
 22 23  1  0
 23 15  1  0
 24 22  1  0
 25 24  2  0
 26 24  1  0
M  END
$$$$
