AFQ.pdb
     RDKit          3D

 26 26  0  0  1  0  0  0  0  0999 V2000
   27.2771  -20.9272  -18.9131 C   0  0  0  0  0  0  0  0  0  0  0  0
   28.2315  -21.5022  -17.8771 C   0  0  2  0  0  0  0  0  0  0  0  0
   28.7642  -22.7254  -18.4374 N   0  0  0  0  0  0  0  0  0  0  0  0
   27.4662  -21.8621  -16.6544 C   0  0  0  0  0  0  0  0  0  0  0  0
   26.9961  -23.0149  -16.4740 O   0  0  0  0  0  0  0  0  0  0  0  0
   27.2589  -20.8916  -15.6691 N   0  0  0  0  0  0  0  0  0  0  0  0
   26.5854  -21.2388  -14.4131 C   0  0  1  0  0  0  0  0  0  0  0  0
   27.1335  -20.3919  -13.3012 C   0  0  0  0  0  0  0  0  0  0  0  0
   26.4382  -20.5990  -12.0277 C   0  0  0  0  0  0  0  0  0  0  0  0
   26.7655  -21.5808  -11.1169 C   0  0  0  0  0  0  0  0  0  0  0  0
   26.1195  -21.7328   -9.9082 C   0  0  0  0  0  0  0  0  0  0  0  0
   25.0943  -20.8841   -9.5580 C   0  0  0  0  0  0  0  0  0  0  0  0
   24.7406  -19.8906  -10.4453 C   0  0  0  0  0  0  0  0  0  0  0  0
   25.3892  -19.7418  -11.6532 C   0  0  0  0  0  0  0  0  0  0  0  0
   25.1321  -21.0937  -14.6456 C   0  0  0  0  0  0  0  0  0  0  0  0
   24.7028  -20.0756  -15.2800 O   0  0  0  0  0  0  0  0  0  0  0  0
   20.5269  -25.5322  -14.7435 N   0  0  0  0  0  0  0  0  0  0  0  0
   19.8261  -24.2946  -14.8859 C   0  0  0  0  0  0  0  0  0  0  0  0
   18.6105  -24.3451  -15.1020 O   0  0  0  0  0  0  0  0  0  0  0  0
   20.5392  -23.0119  -14.7778 C   0  0  0  0  0  0  0  0  0  0  0  0
   22.0031  -23.1244  -14.5202 C   0  0  0  0  0  0  0  0  0  0  0  0
   22.7176  -21.8415  -14.3372 C   0  0  2  0  0  0  0  0  0  0  0  0
   24.1695  -22.0363  -14.2020 N   0  0  0  0  0  0  0  0  0  0  0  0
   22.1747  -20.9343  -13.3097 C   0  0  0  0  0  0  0  0  0  0  0  0
   22.4990  -21.0012  -12.1038 O   0  0  0  0  0  0  0  0  0  0  0  0
   21.2470  -19.9278  -13.6217 O   0  0  0  0  0  0  0  0  0  0  0  0
  2  1  1  6
  3  2  1  0
  4  5  2  0
  4  2  1  0
  6  4  1  0
  7  6  1  0
  7  8  1  1
  8  9  1  0
  9 10  2  0
  9 14  1  0
 10 11  1  0
 11 12  2  0
 13 12  1  0
 14 13  2  0
 15 16  2  0
 15  7  1  0
 18 17  1  0
 19 18  2  0
 20 18  1  0
 22 21  1  1
 21 20  1  0
 22 23  1  0
 23 15  1  0
 24 22  1  0
 25 24  2  0
 26 24  1  0
M  END
$$$$
