AFQ.pdb
     RDKit          3D

 26 26  0  0  1  0  0  0  0  0999 V2000
   27.1154  -21.4846  -17.7493 C   0  0  0  0  0  0  0  0  0  0  0  0
   27.9454  -22.0328  -16.5980 C   0  0  2  0  0  0  0  0  0  0  0  0
   28.3714  -23.3594  -16.9886 N   0  0  0  0  0  0  0  0  0  0  0  0
   27.0818  -22.1722  -15.3961 C   0  0  0  0  0  0  0  0  0  0  0  0
   26.3688  -23.1896  -15.1983 O   0  0  0  0  0  0  0  0  0  0  0  0
   27.0569  -21.1418  -14.4508 N   0  0  0  0  0  0  0  0  0  0  0  0
   26.1966  -21.2393  -13.2667 C   0  0  1  0  0  0  0  0  0  0  0  0
   26.8120  -20.4659  -12.1366 C   0  0  0  0  0  0  0  0  0  0  0  0
   25.9512  -20.4006  -10.9521 C   0  0  0  0  0  0  0  0  0  0  0  0
   24.7606  -19.7079  -10.8968 C   0  0  0  0  0  0  0  0  0  0  0  0
   23.9497  -19.6913   -9.7816 C   0  0  0  0  0  0  0  0  0  0  0  0
   24.3115  -20.3867   -8.6504 C   0  0  0  0  0  0  0  0  0  0  0  0
   25.4962  -21.0907   -8.6708 C   0  0  0  0  0  0  0  0  0  0  0  0
   26.3044  -21.1047   -9.7881 C   0  0  0  0  0  0  0  0  0  0  0  0
   24.8492  -20.7825  -13.6706 C   0  0  0  0  0  0  0  0  0  0  0  0
   24.7380  -19.7456  -14.4025 O   0  0  0  0  0  0  0  0  0  0  0  0
   20.8649  -22.7702  -17.2873 N   0  0  0  0  0  0  0  0  0  0  0  0
   21.0171  -23.5852  -16.1230 C   0  0  0  0  0  0  0  0  0  0  0  0
   20.7414  -24.7856  -16.2228 O   0  0  0  0  0  0  0  0  0  0  0  0
   21.4853  -23.0027  -14.8553 C   0  0  0  0  0  0  0  0  0  0  0  0
   21.8294  -21.5536  -14.9168 C   0  0  0  0  0  0  0  0  0  0  0  0
   22.3090  -20.9591  -13.6494 C   0  0  2  0  0  0  0  0  0  0  0  0
   23.6518  -21.4411  -13.2905 N   0  0  0  0  0  0  0  0  0  0  0  0
   21.3726  -21.0072  -12.5117 C   0  0  0  0  0  0  0  0  0  0  0  0
   21.6108  -21.6431  -11.4616 O   0  0  0  0  0  0  0  0  0  0  0  0
   20.1390  -20.3374  -12.5353 O   0  0  0  0  0  0  0  0  0  0  0  0
  2  1  1  6
  3  2  1  0
  4  5  2  0
  4  2  1  0
  6  4  1  0
  7  6  1  0
  7  8  1  1
  8  9  1  0
  9 10  2  0
  9 14  1  0
 10 11  1  0
 11 12  2  0
 13 12  1  0
 14 13  2  0
 15 16  2  0
 15  7  1  0
 18 17  1  0
 19 18  2  0
 20 18  1  0
 22 21  1  6
 21 20  1  0
 22 23  1  0
 23 15  1  0
 24 22  1  0
 25 24  2  0
 26 24  1  0
M  END
$$$$
