AFQ.pdb
     RDKit          3D

 26 26  0  0  1  0  0  0  0  0999 V2000
   13.1387  -10.4026  -11.5680 C   0  0  0  0  0  0  0  0  0  0  0  0
   13.7967  -10.0798  -10.2347 C   0  0  2  0  0  0  0  0  0  0  0  0
   12.7375   -9.6715   -9.3374 N   0  0  0  0  0  0  0  0  0  0  0  0
   14.7115   -8.9211  -10.4092 C   0  0  0  0  0  0  0  0  0  0  0  0
   14.2859   -7.7417  -10.5124 O   0  0  0  0  0  0  0  0  0  0  0  0
   16.0913   -9.1431  -10.4611 N   0  0  0  0  0  0  0  0  0  0  0  0
   17.0216   -8.0163  -10.5904 C   0  0  1  0  0  0  0  0  0  0  0  0
   18.3834   -8.4356  -10.1175 C   0  0  0  0  0  0  0  0  0  0  0  0
   19.3905   -7.3810  -10.2649 C   0  0  0  0  0  0  0  0  0  0  0  0
   20.2397   -7.2661  -11.3448 C   0  0  0  0  0  0  0  0  0  0  0  0
   21.1548   -6.2432  -11.4782 C   0  0  0  0  0  0  0  0  0  0  0  0
   21.2556   -5.2718  -10.5085 C   0  0  0  0  0  0  0  0  0  0  0  0
   20.4214   -5.3557   -9.4146 C   0  0  0  0  0  0  0  0  0  0  0  0
   19.5075   -6.3803   -9.2850 C   0  0  0  0  0  0  0  0  0  0  0  0
   16.9645   -7.5657  -11.9978 C   0  0  0  0  0  0  0  0  0  0  0  0
   16.7596   -8.4237  -12.9172 O   0  0  0  0  0  0  0  0  0  0  0  0
   14.8527   -7.9826  -17.7197 N   0  0  0  0  0  0  0  0  0  0  0  0
   14.7951   -7.1839  -16.5357 C   0  0  0  0  0  0  0  0  0  0  0  0
   13.7566   -6.5493  -16.3216 O   0  0  0  0  0  0  0  0  0  0  0  0
   15.9397   -7.1269  -15.6126 C   0  0  0  0  0  0  0  0  0  0  0  0
   15.7360   -6.2729  -14.4080 C   0  0  0  0  0  0  0  0  0  0  0  0
   16.9709   -5.7496  -13.7827 C   0  0  2  0  0  0  0  0  0  0  0  0
   17.1222   -6.2132  -12.3947 N   0  0  0  0  0  0  0  0  0  0  0  0
   17.2070   -4.3008  -13.9196 C   0  0  0  0  0  0  0  0  0  0  0  0
   17.4131   -3.7467  -15.0216 O   0  0  0  0  0  0  0  0  0  0  0  0
   17.2183   -3.4412  -12.8097 O   0  0  0  0  0  0  0  0  0  0  0  0
  2  1  1  6
  3  2  1  0
  4  5  2  0
  4  2  1  0
  6  4  1  0
  7  6  1  0
  7  8  1  6
  8  9  1  0
  9 10  2  0
  9 14  1  0
 10 11  1  0
 11 12  2  0
 13 12  1  0
 14 13  2  0
 15 16  2  0
 15  7  1  0
 18 17  1  0
 19 18  2  0
 20 18  1  0
 22 21  1  1
 21 20  1  0
 22 23  1  0
 23 15  1  0
 24 22  1  0
 25 24  2  0
 26 24  1  0
M  END
$$$$
