AFQ.pdb
     RDKit          3D

 26 26  0  0  1  0  0  0  0  0999 V2000
   27.6639  -19.0055  -14.8627 C   0  0  0  0  0  0  0  0  0  0  0  0
   28.2626  -19.9258  -13.8094 C   0  0  2  0  0  0  0  0  0  0  0  0
   28.9875  -20.9558  -14.5220 N   0  0  0  0  0  0  0  0  0  0  0  0
   27.1641  -20.5864  -13.0565 C   0  0  0  0  0  0  0  0  0  0  0  0
   26.6433  -21.6651  -13.4408 O   0  0  0  0  0  0  0  0  0  0  0  0
   26.6898  -19.9939  -11.8818 N   0  0  0  0  0  0  0  0  0  0  0  0
   25.6235  -20.6339  -11.1040 C   0  0  1  0  0  0  0  0  0  0  0  0
   25.5708  -20.0253   -9.7326 C   0  0  0  0  0  0  0  0  0  0  0  0
   26.8109  -20.2140   -8.9745 C   0  0  0  0  0  0  0  0  0  0  0  0
   27.1071  -19.5591   -7.7981 C   0  0  0  0  0  0  0  0  0  0  0  0
   28.2654  -19.7807   -7.0834 C   0  0  0  0  0  0  0  0  0  0  0  0
   29.1946  -20.6910   -7.5332 C   0  0  0  0  0  0  0  0  0  0  0  0
   28.9306  -21.3641   -8.7065 C   0  0  0  0  0  0  0  0  0  0  0  0
   27.7709  -21.1396   -9.4183 C   0  0  0  0  0  0  0  0  0  0  0  0
   24.3766  -20.5048  -11.8889 C   0  0  0  0  0  0  0  0  0  0  0  0
   24.1936  -19.4620  -12.5977 O   0  0  0  0  0  0  0  0  0  0  0  0
   22.2032  -24.8452  -15.5370 N   0  0  0  0  0  0  0  0  0  0  0  0
   21.1060  -23.9295  -15.5682 C   0  0  0  0  0  0  0  0  0  0  0  0
   20.1901  -24.1584  -16.3655 O   0  0  0  0  0  0  0  0  0  0  0  0
   21.0807  -22.7582  -14.6777 C   0  0  0  0  0  0  0  0  0  0  0  0
   22.2299  -22.6596  -13.7334 C   0  0  0  0  0  0  0  0  0  0  0  0
   22.2260  -21.4740  -12.8478 C   0  0  2  0  0  0  0  0  0  0  0  0
   23.3555  -21.4892  -11.9054 N   0  0  0  0  0  0  0  0  0  0  0  0
   20.9467  -21.1595  -12.1860 C   0  0  0  0  0  0  0  0  0  0  0  0
   19.8993  -20.9017  -12.8187 O   0  0  0  0  0  0  0  0  0  0  0  0
   20.8213  -21.1262  -10.7881 O   0  0  0  0  0  0  0  0  0  0  0  0
  2  1  1  6
  3  2  1  0
  4  5  2  0
  4  2  1  0
  6  4  1  0
  7  6  1  0
  7  8  1  1
  8  9  1  0
  9 10  2  0
  9 14  1  0
 10 11  1  0
 11 12  2  0
 13 12  1  0
 14 13  2  0
 15 16  2  0
 15  7  1  0
 18 17  1  0
 19 18  2  0
 20 18  1  0
 22 21  1  1
 21 20  1  0
 22 23  1  0
 23 15  1  0
 24 22  1  0
 25 24  2  0
 26 24  1  0
M  END
$$$$
