AFQ.pdb
     RDKit          3D

 26 26  0  0  1  0  0  0  0  0999 V2000
   26.7666  -31.2780  -16.2251 C   0  0  0  0  0  0  0  0  0  0  0  0
   27.4210  -30.3842  -17.2681 C   0  0  2  0  0  0  0  0  0  0  0  0
   28.8305  -30.7113  -17.2694 N   0  0  0  0  0  0  0  0  0  0  0  0
   27.2879  -28.9645  -16.8475 C   0  0  0  0  0  0  0  0  0  0  0  0
   28.2696  -28.2927  -16.4382 O   0  0  0  0  0  0  0  0  0  0  0  0
   26.0329  -28.3504  -16.9065 N   0  0  0  0  0  0  0  0  0  0  0  0
   25.9008  -26.9057  -16.6890 C   0  0  1  0  0  0  0  0  0  0  0  0
   26.7316  -26.1698  -17.7001 C   0  0  0  0  0  0  0  0  0  0  0  0
   26.5233  -24.7195  -17.6657 C   0  0  0  0  0  0  0  0  0  0  0  0
   25.5389  -24.0612  -18.3715 C   0  0  0  0  0  0  0  0  0  0  0  0
   25.3395  -22.6989  -18.2946 C   0  0  0  0  0  0  0  0  0  0  0  0
   26.1406  -21.9252  -17.4860 C   0  0  0  0  0  0  0  0  0  0  0  0
   27.1353  -22.5508  -16.7658 C   0  0  0  0  0  0  0  0  0  0  0  0
   27.3314  -23.9136  -16.8455 C   0  0  0  0  0  0  0  0  0  0  0  0
   24.4560  -26.5917  -16.7256 C   0  0  0  0  0  0  0  0  0  0  0  0
   23.7252  -27.1318  -17.6186 O   0  0  0  0  0  0  0  0  0  0  0  0
   19.4975  -26.1678  -13.3633 N   0  0  0  0  0  0  0  0  0  0  0  0
   20.7556  -26.6613  -12.8979 C   0  0  0  0  0  0  0  0  0  0  0  0
   20.7420  -27.5197  -12.0091 O   0  0  0  0  0  0  0  0  0  0  0  0
   22.0160  -26.1557  -13.4647 C   0  0  0  0  0  0  0  0  0  0  0  0
   21.8611  -25.0851  -14.4902 C   0  0  0  0  0  0  0  0  0  0  0  0
   22.3816  -25.4129  -15.8362 C   0  0  2  0  0  0  0  0  0  0  0  0
   23.8212  -25.7145  -15.8095 N   0  0  0  0  0  0  0  0  0  0  0  0
   22.0237  -24.4781  -16.9185 C   0  0  0  0  0  0  0  0  0  0  0  0
   22.6953  -23.4575  -17.1852 O   0  0  0  0  0  0  0  0  0  0  0  0
   20.8925  -24.6743  -17.7266 O   0  0  0  0  0  0  0  0  0  0  0  0
  2  1  1  1
  3  2  1  0
  4  5  2  0
  4  2  1  0
  6  4  1  0
  7  6  1  0
  7  8  1  6
  8  9  1  0
  9 10  2  0
  9 14  1  0
 10 11  1  0
 11 12  2  0
 13 12  1  0
 14 13  2  0
 15 16  2  0
 15  7  1  0
 18 17  1  0
 19 18  2  0
 20 18  1  0
 22 21  1  1
 21 20  1  0
 22 23  1  0
 23 15  1  0
 24 22  1  0
 25 24  2  0
 26 24  1  0
M  END
$$$$
