AFQ.pdb
     RDKit          3D

 26 26  0  0  1  0  0  0  0  0999 V2000
   26.6610  -20.0688  -17.5812 C   0  0  0  0  0  0  0  0  0  0  0  0
   27.4235  -21.0453  -16.6980 C   0  0  2  0  0  0  0  0  0  0  0  0
   27.4921  -22.2950  -17.4242 N   0  0  0  0  0  0  0  0  0  0  0  0
   26.6464  -21.2885  -15.4543 C   0  0  0  0  0  0  0  0  0  0  0  0
   25.6150  -22.0086  -15.4394 O   0  0  0  0  0  0  0  0  0  0  0  0
   27.0708  -20.7001  -14.2587 N   0  0  0  0  0  0  0  0  0  0  0  0
   26.3272  -20.9244  -13.0143 C   0  0  1  0  0  0  0  0  0  0  0  0
   27.2036  -20.5923  -11.8414 C   0  0  0  0  0  0  0  0  0  0  0  0
   26.4693  -20.5427  -10.5740 C   0  0  0  0  0  0  0  0  0  0  0  0
   25.7538  -21.5988  -10.0513 C   0  0  0  0  0  0  0  0  0  0  0  0
   25.1007  -21.5395   -8.8382 C   0  0  0  0  0  0  0  0  0  0  0  0
   25.1415  -20.3890   -8.0840 C   0  0  0  0  0  0  0  0  0  0  0  0
   25.8481  -19.3131   -8.5765 C   0  0  0  0  0  0  0  0  0  0  0  0
   26.4999  -19.3765   -9.7902 C   0  0  0  0  0  0  0  0  0  0  0  0
   25.0824  -20.1308  -13.1037 C   0  0  0  0  0  0  0  0  0  0  0  0
   25.1366  -18.9376  -13.5471 O   0  0  0  0  0  0  0  0  0  0  0  0
   22.4732  -19.7275  -16.9617 N   0  0  0  0  0  0  0  0  0  0  0  0
   21.2117  -19.8311  -16.2977 C   0  0  0  0  0  0  0  0  0  0  0  0
   20.2244  -20.1183  -16.9830 O   0  0  0  0  0  0  0  0  0  0  0  0
   21.1056  -19.6001  -14.8482 C   0  0  0  0  0  0  0  0  0  0  0  0
   22.3876  -19.2580  -14.1691 C   0  0  0  0  0  0  0  0  0  0  0  0
   22.5686  -19.8399  -12.8206 C   0  0  2  0  0  0  0  0  0  0  0  0
   23.8086  -20.6255  -12.7237 N   0  0  0  0  0  0  0  0  0  0  0  0
   21.4072  -20.5521  -12.2571 C   0  0  0  0  0  0  0  0  0  0  0  0
   21.2879  -21.7963  -12.2968 O   0  0  0  0  0  0  0  0  0  0  0  0
   20.3481  -19.8720  -11.6353 O   0  0  0  0  0  0  0  0  0  0  0  0
  2  1  1  6
  3  2  1  0
  4  5  2  0
  4  2  1  0
  6  4  1  0
  7  6  1  0
  7  8  1  1
  8  9  1  0
  9 10  2  0
  9 14  1  0
 10 11  1  0
 11 12  2  0
 13 12  1  0
 14 13  2  0
 15 16  2  0
 15  7  1  0
 18 17  1  0
 19 18  2  0
 20 18  1  0
 22 21  1  6
 21 20  1  0
 22 23  1  0
 23 15  1  0
 24 22  1  0
 25 24  2  0
 26 24  1  0
M  END
$$$$
