ARS.pdb
     RDKit          3D

 23 22  0  0  1  0  0  0  0  0999 V2000
    5.0228  -19.6264   21.1361 C   0  0  0  0  0  0  0  0  0  0  0  0
    5.3268  -18.9224   22.4352 C   0  0  2  0  0  0  0  0  0  0  0  0
    4.2636  -18.0676   22.8611 N   0  0  0  0  0  0  0  0  0  0  0  0
    6.6415  -18.2253   22.3983 C   0  0  0  0  0  0  0  0  0  0  0  0
    7.7148  -18.8446   22.1828 O   0  0  0  0  0  0  0  0  0  0  0  0
    6.1398  -13.3989   18.0973 N   0  0  0  0  0  0  0  0  0  0  0  0
    7.5481  -13.2833   17.8329 C   0  0  0  0  0  0  0  0  0  0  0  0
    7.9738  -13.5485   16.6507 N   0  0  0  0  0  0  0  0  0  0  0  0
    8.4392  -12.8860   18.8591 N   0  0  0  0  0  0  0  0  0  0  0  0
    8.0976  -13.0637   20.2473 C   0  0  0  0  0  0  0  0  0  0  0  0
    8.2453  -14.5337   20.6490 C   0  0  0  0  0  0  0  0  0  0  0  0
    7.8880  -14.6935   22.1123 C   0  0  0  0  0  0  0  0  0  0  0  0
    8.0275  -16.1224   22.5561 C   0  0  2  0  0  0  0  0  0  0  0  0
    6.7636  -16.8230   22.6039 N   0  0  0  0  0  0  0  0  0  0  0  0
    8.8258  -16.2959   23.7711 C   0  0  0  0  0  0  0  0  0  0  0  0
    8.4013  -15.8262   24.8497 O   0  0  0  0  0  0  0  0  0  0  0  0
    8.9971  -13.4974   16.4705 O   0  0  0  0  0  0  0  0  0  0  0  0
   11.5175  -19.2679   24.0641 C   0  0  0  0  0  0  0  0  0  0  0  0
   11.1771  -18.5905   25.2356 C   0  0  1  0  0  0  0  0  0  0  0  0
   10.8942  -17.1735   24.8921 N   0  0  0  0  0  0  0  0  0  0  0  0
   10.0550  -16.9734   23.7639 C   0  0  0  0  0  0  0  0  0  0  0  0
   12.1971  -16.4737   24.7234 O   0  0  0  0  0  0  0  0  0  0  0  0
   12.4045  -15.8854   23.6299 O   0  0  0  0  0  0  0  0  0  0  0  0
  2  1  1  6
  2  3  1  0
  4  2  1  0
  4  5  2  0
  6  7  1  0
  7  8  2  0
  7  9  1  0
  9 10  1  0
 10 11  1  0
 11 12  1  0
 13 12  1  1
 13 15  1  0
 13 14  1  0
 14  4  1  0
 15 20  1  0
 16 15  2  0
 18 17  1  0
 19 18  1  1
 19 21  1  0
 20 19  1  0
 21 22  2  0
 21 23  1  0
M  END
$$$$
