ARS.pdb
     RDKit          3D

 23 22  0  0  1  0  0  0  0  0999 V2000
    8.3154  -19.1035   19.1279 C   0  0  0  0  0  0  0  0  0  0  0  0
    8.6741  -17.6460   18.9775 C   0  0  2  0  0  0  0  0  0  0  0  0
    9.6265  -17.4170   17.9370 N   0  0  0  0  0  0  0  0  0  0  0  0
    9.0828  -17.0350   20.2719 C   0  0  0  0  0  0  0  0  0  0  0  0
   10.2896  -16.9597   20.6180 O   0  0  0  0  0  0  0  0  0  0  0  0
    4.9219  -12.0830   26.6020 N   0  0  0  0  0  0  0  0  0  0  0  0
    6.3430  -11.9250   26.7511 C   0  0  0  0  0  0  0  0  0  0  0  0
    6.7786  -11.0369   27.5700 N   0  0  0  0  0  0  0  0  0  0  0  0
    7.2355  -12.7343   26.0072 N   0  0  0  0  0  0  0  0  0  0  0  0
    6.7944  -13.4330   24.8271 C   0  0  0  0  0  0  0  0  0  0  0  0
    7.9064  -14.3436   24.2994 C   0  0  0  0  0  0  0  0  0  0  0  0
    7.4619  -14.9773   22.9973 C   0  0  0  0  0  0  0  0  0  0  0  0
    8.5115  -15.9060   22.4552 C   0  0  2  0  0  0  0  0  0  0  0  0
    8.1379  -16.5019   21.1920 N   0  0  0  0  0  0  0  0  0  0  0  0
    9.0043  -16.8838   23.4273 C   0  0  0  0  0  0  0  0  0  0  0  0
    8.2966  -17.8777   23.7021 O   0  0  0  0  0  0  0  0  0  0  0  0
    7.8065  -10.8971   27.6471 O   0  0  0  0  0  0  0  0  0  0  0  0
   12.9650  -16.7133   24.7778 C   0  0  0  0  0  0  0  0  0  0  0  0
   12.2984  -17.9366   24.6990 C   0  0  1  0  0  0  0  0  0  0  0  0
   10.8501  -17.6963   24.9233 N   0  0  0  0  0  0  0  0  0  0  0  0
   10.2479  -16.7409   24.0620 C   0  0  0  0  0  0  0  0  0  0  0  0
   10.6629  -17.3245   26.3525 O   0  0  0  0  0  0  0  0  0  0  0  0
   10.0712  -16.2411   26.5994 O   0  0  0  0  0  0  0  0  0  0  0  0
  2  1  1  1
  2  3  1  0
  4  2  1  0
  4  5  2  0
  6  7  1  0
  7  8  2  0
  7  9  1  0
  9 10  1  0
 10 11  1  0
 11 12  1  0
 13 12  1  1
 13 15  1  0
 13 14  1  0
 14  4  1  0
 15 20  1  0
 16 15  2  0
 18 17  1  0
 19 18  1  6
 19 21  1  0
 20 19  1  0
 21 22  2  0
 21 23  1  0
M  END
$$$$
