ARS.pdb
     RDKit          3D

 23 22  0  0  1  0  0  0  0  0999 V2000
    8.4102  -17.2504   27.7117 C   0  0  0  0  0  0  0  0  0  0  0  0
    7.4361  -17.8149   26.7077 C   0  0  2  0  0  0  0  0  0  0  0  0
    7.1757  -19.2049   26.9134 N   0  0  0  0  0  0  0  0  0  0  0  0
    7.8374  -17.5090   25.3073 C   0  0  0  0  0  0  0  0  0  0  0  0
    8.4676  -18.3378   24.6018 O   0  0  0  0  0  0  0  0  0  0  0  0
    9.5643  -13.6688   19.6817 N   0  0  0  0  0  0  0  0  0  0  0  0
    8.4434  -13.4609   18.8058 C   0  0  0  0  0  0  0  0  0  0  0  0
    8.6494  -13.4511   17.5383 N   0  0  0  0  0  0  0  0  0  0  0  0
    7.1448  -13.2712   19.3372 N   0  0  0  0  0  0  0  0  0  0  0  0
    6.9032  -13.3624   20.7546 C   0  0  0  0  0  0  0  0  0  0  0  0
    7.7930  -14.4408   21.3789 C   0  0  0  0  0  0  0  0  0  0  0  0
    7.3522  -14.6919   22.8062 C   0  0  0  0  0  0  0  0  0  0  0  0
    8.0659  -15.8742   23.3986 C   0  0  2  0  0  0  0  0  0  0  0  0
    7.5343  -16.2664   24.6847 N   0  0  0  0  0  0  0  0  0  0  0  0
    9.5253  -15.7558   23.3931 C   0  0  0  0  0  0  0  0  0  0  0  0
   10.0756  -14.9817   24.2067 O   0  0  0  0  0  0  0  0  0  0  0  0
    7.8543  -13.2163   16.9099 O   0  0  0  0  0  0  0  0  0  0  0  0
   13.6831  -17.8021   22.9573 C   0  0  0  0  0  0  0  0  0  0  0  0
   12.3042  -17.9191   22.7790 C   0  0  2  0  0  0  0  0  0  0  0  0
   11.7455  -16.5635   22.5425 N   0  0  0  0  0  0  0  0  0  0  0  0
   10.3280  -16.4846   22.5018 C   0  0  0  0  0  0  0  0  0  0  0  0
   12.3494  -16.0306   21.2907 O   0  0  0  0  0  0  0  0  0  0  0  0
   13.4167  -15.3712   21.3940 O   0  0  0  0  0  0  0  0  0  0  0  0
  2  1  1  1
  2  3  1  0
  4  2  1  0
  4  5  2  0
  6  7  1  0
  7  8  2  0
  7  9  1  0
  9 10  1  0
 10 11  1  0
 11 12  1  0
 13 12  1  1
 13 15  1  0
 13 14  1  0
 14  4  1  0
 15 20  1  0
 16 15  2  0
 18 17  1  0
 19 18  1  1
 19 21  1  0
 20 19  1  0
 21 22  2  0
 21 23  1  0
M  END
$$$$
