ARS.pdb
     RDKit          3D

 23 22  0  0  1  0  0  0  0  0999 V2000
    9.4515  -22.7746   19.5582 C   0  0  0  0  0  0  0  0  0  0  0  0
    9.3460  -21.3692   19.0201 C   0  0  2  0  0  0  0  0  0  0  0  0
    9.7018  -21.2794   17.6390 N   0  0  0  0  0  0  0  0  0  0  0  0
   10.0830  -20.3907   19.8657 C   0  0  0  0  0  0  0  0  0  0  0  0
   11.3353  -20.4214   19.9773 O   0  0  0  0  0  0  0  0  0  0  0  0
    7.0383  -12.6474   20.5370 N   0  0  0  0  0  0  0  0  0  0  0  0
    8.1622  -13.0346   19.7284 C   0  0  0  0  0  0  0  0  0  0  0  0
    8.7313  -12.1416   19.0019 N   0  0  0  0  0  0  0  0  0  0  0  0
    8.6242  -14.3730   19.7381 N   0  0  0  0  0  0  0  0  0  0  0  0
    7.9953  -15.3683   20.5683 C   0  0  0  0  0  0  0  0  0  0  0  0
    8.6620  -16.7315   20.3645 C   0  0  0  0  0  0  0  0  0  0  0  0
    9.3672  -17.1422   21.6407 C   0  0  0  0  0  0  0  0  0  0  0  0
   10.1084  -18.4372   21.4630 C   0  0  2  0  0  0  0  0  0  0  0  0
    9.4189  -19.3662   20.5958 N   0  0  0  0  0  0  0  0  0  0  0  0
   10.5558  -19.0470   22.7168 C   0  0  0  0  0  0  0  0  0  0  0  0
    9.7523  -19.7442   23.3744 O   0  0  0  0  0  0  0  0  0  0  0  0
    9.4981  -12.4379   18.3644 O   0  0  0  0  0  0  0  0  0  0  0  0
   14.5029  -18.5670   23.9244 C   0  0  0  0  0  0  0  0  0  0  0  0
   13.8865  -19.7710   24.2671 C   0  0  1  0  0  0  0  0  0  0  0  0
   12.4194  -19.5468   24.3237 N   0  0  0  0  0  0  0  0  0  0  0  0
   11.8600  -18.8732   23.2054 C   0  0  0  0  0  0  0  0  0  0  0  0
   12.1138  -18.8288   25.5913 O   0  0  0  0  0  0  0  0  0  0  0  0
   11.5821  -17.6912   25.5023 O   0  0  0  0  0  0  0  0  0  0  0  0
  2  1  1  1
  2  3  1  0
  4  2  1  0
  4  5  2  0
  6  7  1  0
  7  8  2  0
  7  9  1  0
  9 10  1  0
 10 11  1  0
 11 12  1  0
 13 12  1  1
 13 15  1  0
 13 14  1  0
 14  4  1  0
 15 20  1  0
 16 15  2  0
 18 17  1  0
 19 18  1  6
 19 21  1  0
 20 19  1  0
 21 22  2  0
 21 23  1  0
M  END
$$$$
