ARS.pdb
     RDKit          3D

 23 22  0  0  1  0  0  0  0  0999 V2000
    7.3250  -14.5932   17.3128 C   0  0  0  0  0  0  0  0  0  0  0  0
    8.3735  -13.8291   18.0824 C   0  0  2  0  0  0  0  0  0  0  0  0
    8.9382  -12.7550   17.3276 N   0  0  0  0  0  0  0  0  0  0  0  0
    9.4092  -14.7291   18.6597 C   0  0  0  0  0  0  0  0  0  0  0  0
    9.1032  -15.7470   19.3320 O   0  0  0  0  0  0  0  0  0  0  0  0
   15.2857  -13.9566   14.0713 N   0  0  0  0  0  0  0  0  0  0  0  0
   15.5656  -13.7554   15.4671 C   0  0  0  0  0  0  0  0  0  0  0  0
   16.3788  -12.8191   15.8005 N   0  0  0  0  0  0  0  0  0  0  0  0
   14.9547  -14.5765   16.4456 N   0  0  0  0  0  0  0  0  0  0  0  0
   14.1904  -15.7375   16.0670 C   0  0  0  0  0  0  0  0  0  0  0  0
   12.8673  -15.7793   16.8363 C   0  0  0  0  0  0  0  0  0  0  0  0
   13.1015  -15.3308   18.2641 C   0  0  0  0  0  0  0  0  0  0  0  0
   11.8248  -15.3416   19.0566 C   0  0  2  0  0  0  0  0  0  0  0  0
   10.8015  -14.4937   18.4872 N   0  0  0  0  0  0  0  0  0  0  0  0
   12.0112  -15.1299   20.4934 C   0  0  0  0  0  0  0  0  0  0  0  0
   12.7345  -14.1857   20.8800 O   0  0  0  0  0  0  0  0  0  0  0  0
   16.5649  -12.6628   16.8120 O   0  0  0  0  0  0  0  0  0  0  0  0
    9.3675  -16.5473   23.3148 C   0  0  0  0  0  0  0  0  0  0  0  0
   10.2899  -15.5411   23.6042 C   0  0  1  0  0  0  0  0  0  0  0  0
   11.5432  -15.8263   22.8601 N   0  0  0  0  0  0  0  0  0  0  0  0
   11.4032  -15.9546   21.4525 C   0  0  0  0  0  0  0  0  0  0  0  0
   12.1608  -17.0446   23.4517 O   0  0  0  0  0  0  0  0  0  0  0  0
   12.4241  -17.0246   24.6826 O   0  0  0  0  0  0  0  0  0  0  0  0
  2  1  1  6
  2  3  1  0
  4  2  1  0
  4  5  2  0
  6  7  1  0
  7  8  2  0
  7  9  1  0
  9 10  1  0
 10 11  1  0
 11 12  1  0
 13 12  1  6
 13 15  1  0
 13 14  1  0
 14  4  1  0
 15 20  1  0
 16 15  2  0
 18 17  1  0
 19 18  1  6
 19 21  1  0
 20 19  1  0
 21 22  2  0
 21 23  1  0
M  END
$$$$
