ARS.pdb
     RDKit          3D

 23 22  0  0  1  0  0  0  0  0999 V2000
    8.5402  -12.2917   19.6090 C   0  0  0  0  0  0  0  0  0  0  0  0
    8.1431  -13.7468   19.6373 C   0  0  2  0  0  0  0  0  0  0  0  0
    7.2706  -14.1013   18.5624 N   0  0  0  0  0  0  0  0  0  0  0  0
    7.6092  -14.1543   20.9657 C   0  0  0  0  0  0  0  0  0  0  0  0
    6.5332  -13.6875   21.4197 O   0  0  0  0  0  0  0  0  0  0  0  0
    9.1706  -18.8063   27.1971 N   0  0  0  0  0  0  0  0  0  0  0  0
    7.8183  -19.2869   27.2820 C   0  0  0  0  0  0  0  0  0  0  0  0
    7.3825  -19.6934   28.4195 N   0  0  0  0  0  0  0  0  0  0  0  0
    6.9925  -19.3087   26.1321 N   0  0  0  0  0  0  0  0  0  0  0  0
    7.5014  -18.9052   24.8461 C   0  0  0  0  0  0  0  0  0  0  0  0
    7.3835  -17.3879   24.6781 C   0  0  0  0  0  0  0  0  0  0  0  0
    7.8747  -16.9950   23.3001 C   0  0  0  0  0  0  0  0  0  0  0  0
    7.7752  -15.5108   23.0871 C   0  0  2  0  0  0  0  0  0  0  0  0
    8.2805  -15.0917   21.7989 N   0  0  0  0  0  0  0  0  0  0  0  0
    8.2986  -14.7112   24.1964 C   0  0  0  0  0  0  0  0  0  0  0  0
    9.5348  -14.5527   24.3013 O   0  0  0  0  0  0  0  0  0  0  0  0
    6.4137  -20.0687   28.4724 O   0  0  0  0  0  0  0  0  0  0  0  0
    5.6456  -13.0590   26.8747 C   0  0  0  0  0  0  0  0  0  0  0  0
    6.8316  -12.3388   26.7264 C   0  0  1  0  0  0  0  0  0  0  0  0
    7.8735  -13.2557   26.1979 N   0  0  0  0  0  0  0  0  0  0  0  0
    7.4558  -14.1160   25.1478 C   0  0  0  0  0  0  0  0  0  0  0  0
    8.4238  -14.0328   27.3421 O   0  0  0  0  0  0  0  0  0  0  0  0
    8.4045  -15.2885   27.2558 O   0  0  0  0  0  0  0  0  0  0  0  0
  2  1  1  1
  2  3  1  0
  4  2  1  0
  4  5  2  0
  6  7  1  0
  7  8  2  0
  7  9  1  0
  9 10  1  0
 10 11  1  0
 11 12  1  0
 13 12  1  1
 13 15  1  0
 13 14  1  0
 14  4  1  0
 15 20  1  0
 16 15  2  0
 18 17  1  0
 19 18  1  6
 19 21  1  0
 20 19  1  0
 21 22  2  0
 21 23  1  0
M  END
$$$$
