ARS.pdb
     RDKit          3D

 23 22  0  0  1  0  0  0  0  0999 V2000
   10.2496  -20.6457   18.0149 C   0  0  0  0  0  0  0  0  0  0  0  0
    9.2334  -19.5853   17.6705 C   0  0  2  0  0  0  0  0  0  0  0  0
    9.7937  -18.5091   16.9155 N   0  0  0  0  0  0  0  0  0  0  0  0
    8.4881  -19.1154   18.8703 C   0  0  0  0  0  0  0  0  0  0  0  0
    9.0233  -18.3771   19.7365 O   0  0  0  0  0  0  0  0  0  0  0  0
    1.1451  -21.3260   21.6466 N   0  0  0  0  0  0  0  0  0  0  0  0
    1.2289  -20.3033   22.6536 C   0  0  0  0  0  0  0  0  0  0  0  0
    0.5787  -20.4666   23.7488 N   0  0  0  0  0  0  0  0  0  0  0  0
    2.0127  -19.1447   22.4342 N   0  0  0  0  0  0  0  0  0  0  0  0
    2.6731  -18.9244   21.1729 C   0  0  0  0  0  0  0  0  0  0  0  0
    4.1813  -18.7632   21.3816 C   0  0  0  0  0  0  0  0  0  0  0  0
    4.9126  -19.2149   20.1343 C   0  0  0  0  0  0  0  0  0  0  0  0
    6.3994  -19.0571   20.2852 C   0  0  2  0  0  0  0  0  0  0  0  0
    7.1317  -19.4713   19.1093 N   0  0  0  0  0  0  0  0  0  0  0  0
    6.9378  -19.6211   21.5245 C   0  0  0  0  0  0  0  0  0  0  0  0
    7.2012  -20.8428   21.5724 O   0  0  0  0  0  0  0  0  0  0  0  0
    0.6310  -19.7198   24.4712 O   0  0  0  0  0  0  0  0  0  0  0  0
    8.9139  -18.8839   25.8524 C   0  0  0  0  0  0  0  0  0  0  0  0
    8.3908  -18.2638   24.7172 C   0  0  2  0  0  0  0  0  0  0  0  0
    7.7129  -19.2947   23.8905 N   0  0  0  0  0  0  0  0  0  0  0  0
    7.1679  -18.8330   22.6628 C   0  0  0  0  0  0  0  0  0  0  0  0
    6.6698  -19.9434   24.7311 O   0  0  0  0  0  0  0  0  0  0  0  0
    5.4786  -19.5675   24.5738 O   0  0  0  0  0  0  0  0  0  0  0  0
  2  1  1  1
  2  3  1  0
  4  2  1  0
  4  5  2  0
  6  7  1  0
  7  8  2  0
  7  9  1  0
  9 10  1  0
 10 11  1  0
 11 12  1  0
 13 12  1  6
 13 15  1  0
 13 14  1  0
 14  4  1  0
 15 20  1  0
 16 15  2  0
 18 17  1  0
 19 18  1  6
 19 21  1  0
 20 19  1  0
 21 22  2  0
 21 23  1  0
M  END
$$$$
