ARS.pdb
     RDKit          3D

 23 22  0  0  1  0  0  0  0  0999 V2000
    6.9426  -11.5399   26.7998 C   0  0  0  0  0  0  0  0  0  0  0  0
    5.9991  -12.3016   25.9025 C   0  0  2  0  0  0  0  0  0  0  0  0
    4.6703  -12.3629   26.4246 N   0  0  0  0  0  0  0  0  0  0  0  0
    6.5337  -13.6427   25.5399 C   0  0  0  0  0  0  0  0  0  0  0  0
    6.1563  -14.6884   26.1281 O   0  0  0  0  0  0  0  0  0  0  0  0
    8.5506  -12.2349   19.1922 N   0  0  0  0  0  0  0  0  0  0  0  0
    8.0317  -13.4359   18.5961 C   0  0  0  0  0  0  0  0  0  0  0  0
    7.4903  -13.3591   17.4342 N   0  0  0  0  0  0  0  0  0  0  0  0
    8.1191  -14.6714   19.2821 N   0  0  0  0  0  0  0  0  0  0  0  0
    8.9286  -14.8063   20.4661 C   0  0  0  0  0  0  0  0  0  0  0  0
    8.0415  -14.9122   21.7096 C   0  0  0  0  0  0  0  0  0  0  0  0
    8.9140  -15.0729   22.9374 C   0  0  0  0  0  0  0  0  0  0  0  0
    8.0895  -15.1037   24.1934 C   0  0  2  0  0  0  0  0  0  0  0  0
    7.4998  -13.8224   24.5112 N   0  0  0  0  0  0  0  0  0  0  0  0
    8.7631  -15.7244   25.3357 C   0  0  0  0  0  0  0  0  0  0  0  0
    9.6559  -15.0860   25.9353 O   0  0  0  0  0  0  0  0  0  0  0  0
    7.1645  -14.2372   16.9814 O   0  0  0  0  0  0  0  0  0  0  0  0
    7.4331  -19.3792   26.6675 C   0  0  0  0  0  0  0  0  0  0  0  0
    8.1119  -18.6148   27.6172 C   0  0  1  0  0  0  0  0  0  0  0  0
    9.0088  -17.6699   26.9040 N   0  0  0  0  0  0  0  0  0  0  0  0
    8.4384  -17.0156   25.7798 C   0  0  0  0  0  0  0  0  0  0  0  0
   10.2450  -18.4079   26.5259 O   0  0  0  0  0  0  0  0  0  0  0  0
   10.9066  -18.9477   27.4510 O   0  0  0  0  0  0  0  0  0  0  0  0
  2  1  1  1
  2  3  1  0
  4  2  1  0
  4  5  2  0
  6  7  1  0
  7  8  2  0
  7  9  1  0
  9 10  1  0
 10 11  1  0
 11 12  1  0
 13 12  1  6
 13 15  1  0
 13 14  1  0
 14  4  1  0
 15 20  1  0
 16 15  2  0
 18 17  1  0
 19 18  1  1
 19 21  1  0
 20 19  1  0
 21 22  2  0
 21 23  1  0
M  END
$$$$
