ARS.pdb
     RDKit          3D

 23 22  0  0  1  0  0  0  0  0999 V2000
   12.5416  -17.6448   14.7614 C   0  0  0  0  0  0  0  0  0  0  0  0
   11.6095  -17.8598   15.9278 C   0  0  2  0  0  0  0  0  0  0  0  0
   10.2510  -18.0393   15.5222 N   0  0  0  0  0  0  0  0  0  0  0  0
   11.7618  -16.8044   16.9664 C   0  0  0  0  0  0  0  0  0  0  0  0
   12.8788  -16.5315   17.4758 O   0  0  0  0  0  0  0  0  0  0  0  0
    6.8172  -14.2435   21.7820 N   0  0  0  0  0  0  0  0  0  0  0  0
    7.1774  -12.8918   22.1134 C   0  0  0  0  0  0  0  0  0  0  0  0
    6.8354  -12.4302   23.2620 N   0  0  0  0  0  0  0  0  0  0  0  0
    7.8925  -12.0937   21.1879 N   0  0  0  0  0  0  0  0  0  0  0  0
    8.1942  -12.5814   19.8664 C   0  0  0  0  0  0  0  0  0  0  0  0
    9.3064  -13.6320   19.9265 C   0  0  0  0  0  0  0  0  0  0  0  0
    9.6557  -14.0754   18.5208 C   0  0  0  0  0  0  0  0  0  0  0  0
   10.7618  -15.0926   18.5277 C   0  0  2  0  0  0  0  0  0  0  0  0
   10.6584  -16.0440   17.4439 N   0  0  0  0  0  0  0  0  0  0  0  0
   10.9827  -15.7269   19.8287 C   0  0  0  0  0  0  0  0  0  0  0  0
   10.3496  -16.7673   20.1132 O   0  0  0  0  0  0  0  0  0  0  0  0
    7.2232  -11.5126   23.5616 O   0  0  0  0  0  0  0  0  0  0  0  0
   11.3258  -16.6800   24.0444 C   0  0  0  0  0  0  0  0  0  0  0  0
   10.9363  -16.2753   22.7672 C   0  0  2  0  0  0  0  0  0  0  0  0
   12.1269  -15.7336   22.0638 N   0  0  0  0  0  0  0  0  0  0  0  0
   11.8837  -15.2033   20.7688 C   0  0  0  0  0  0  0  0  0  0  0  0
   13.1604  -16.8040   22.0206 O   0  0  0  0  0  0  0  0  0  0  0  0
   13.7810  -17.0574   23.0862 O   0  0  0  0  0  0  0  0  0  0  0  0
  2  1  1  6
  2  3  1  0
  4  2  1  0
  4  5  2  0
  6  7  1  0
  7  8  2  0
  7  9  1  0
  9 10  1  0
 10 11  1  0
 11 12  1  0
 13 12  1  1
 13 15  1  0
 13 14  1  0
 14  4  1  0
 15 20  1  0
 16 15  2  0
 18 17  1  0
 19 18  1  1
 19 21  1  0
 20 19  1  0
 21 22  2  0
 21 23  1  0
M  END
$$$$
