ARS.pdb
     RDKit          3D

 23 22  0  0  1  0  0  0  0  0999 V2000
   12.5239  -18.0754   15.4474 C   0  0  0  0  0  0  0  0  0  0  0  0
   12.6332  -16.5716   15.3980 C   0  0  2  0  0  0  0  0  0  0  0  0
   13.8159  -16.1263   14.7308 N   0  0  0  0  0  0  0  0  0  0  0  0
   12.4684  -15.9553   16.7429 C   0  0  0  0  0  0  0  0  0  0  0  0
   13.4493  -15.7478   17.5021 O   0  0  0  0  0  0  0  0  0  0  0  0
    7.6104  -14.1261   22.4982 N   0  0  0  0  0  0  0  0  0  0  0  0
    6.8769  -14.3513   21.2824 C   0  0  0  0  0  0  0  0  0  0  0  0
    5.9334  -15.2225   21.2880 N   0  0  0  0  0  0  0  0  0  0  0  0
    7.1948  -13.6250   20.1093 N   0  0  0  0  0  0  0  0  0  0  0  0
    8.3167  -12.7217   20.0778 C   0  0  0  0  0  0  0  0  0  0  0  0
    9.6306  -13.5051   20.0130 C   0  0  0  0  0  0  0  0  0  0  0  0
    9.7115  -14.2428   18.6924 C   0  0  0  0  0  0  0  0  0  0  0  0
   11.0106  -14.9865   18.5607 C   0  0  2  0  0  0  0  0  0  0  0  0
   11.1973  -15.5655   17.2490 N   0  0  0  0  0  0  0  0  0  0  0  0
   11.2709  -15.9325   19.6476 C   0  0  0  0  0  0  0  0  0  0  0  0
   10.6753  -17.0323   19.6520 O   0  0  0  0  0  0  0  0  0  0  0  0
    5.4373  -15.4198   20.3952 O   0  0  0  0  0  0  0  0  0  0  0  0
   14.3879  -15.1799   21.8721 C   0  0  0  0  0  0  0  0  0  0  0  0
   13.6434  -16.1115   22.5965 C   0  0  2  0  0  0  0  0  0  0  0  0
   12.4557  -16.4914   21.7897 N   0  0  0  0  0  0  0  0  0  0  0  0
   12.1688  -15.6437   20.6868 C   0  0  0  0  0  0  0  0  0  0  0  0
   11.2893  -16.5900   22.7091 O   0  0  0  0  0  0  0  0  0  0  0  0
   10.2657  -15.9141   22.4255 O   0  0  0  0  0  0  0  0  0  0  0  0
  2  1  1  1
  2  3  1  0
  4  2  1  0
  4  5  2  0
  6  7  1  0
  7  8  2  0
  7  9  1  0
  9 10  1  0
 10 11  1  0
 11 12  1  0
 13 12  1  6
 13 15  1  0
 13 14  1  0
 14  4  1  0
 15 20  1  0
 16 15  2  0
 18 17  1  0
 19 18  1  6
 19 21  1  0
 20 19  1  0
 21 22  2  0
 21 23  1  0
M  END
$$$$
