ARS.pdb
     RDKit          3D

 23 22  0  0  1  0  0  0  0  0999 V2000
    8.0709  -12.0431   19.8626 C   0  0  0  0  0  0  0  0  0  0  0  0
    8.0849  -13.5436   19.7080 C   0  0  2  0  0  0  0  0  0  0  0  0
    7.1856  -14.0021   18.6964 N   0  0  0  0  0  0  0  0  0  0  0  0
    7.8870  -14.2408   21.0082 C   0  0  0  0  0  0  0  0  0  0  0  0
    6.7401  -14.4623   21.4743 O   0  0  0  0  0  0  0  0  0  0  0  0
   11.1779  -18.2255   19.3786 N   0  0  0  0  0  0  0  0  0  0  0  0
   10.1814  -19.2308   19.6300 C   0  0  0  0  0  0  0  0  0  0  0  0
    9.5166  -19.6973   18.6353 N   0  0  0  0  0  0  0  0  0  0  0  0
    9.9440  -19.6900   20.9482 N   0  0  0  0  0  0  0  0  0  0  0  0
   10.1653  -18.8312   22.0835 C   0  0  0  0  0  0  0  0  0  0  0  0
    9.3336  -17.5522   21.9549 C   0  0  0  0  0  0  0  0  0  0  0  0
    9.6027  -16.6555   23.1458 C   0  0  0  0  0  0  0  0  0  0  0  0
    8.8097  -15.3819   23.0612 C   0  0  2  0  0  0  0  0  0  0  0  0
    8.9780  -14.6966   21.7993 N   0  0  0  0  0  0  0  0  0  0  0  0
    8.9699  -14.4998   24.2188 C   0  0  0  0  0  0  0  0  0  0  0  0
   10.0564  -13.9022   24.3820 O   0  0  0  0  0  0  0  0  0  0  0  0
    8.7796  -20.4072   18.8224 O   0  0  0  0  0  0  0  0  0  0  0  0
    5.6682  -13.5560   26.4920 C   0  0  0  0  0  0  0  0  0  0  0  0
    6.7374  -12.6601   26.5281 C   0  0  1  0  0  0  0  0  0  0  0  0
    7.9889  -13.4132   26.2589 N   0  0  0  0  0  0  0  0  0  0  0  0
    7.9413  -14.3034   25.1532 C   0  0  0  0  0  0  0  0  0  0  0  0
    8.3720  -14.1273   27.5075 O   0  0  0  0  0  0  0  0  0  0  0  0
    8.5241  -15.3752   27.4410 O   0  0  0  0  0  0  0  0  0  0  0  0
  2  1  1  1
  2  3  1  0
  4  2  1  0
  4  5  2  0
  6  7  1  0
  7  8  2  0
  7  9  1  0
  9 10  1  0
 10 11  1  0
 11 12  1  0
 13 12  1  1
 13 15  1  0
 13 14  1  0
 14  4  1  0
 15 20  1  0
 16 15  2  0
 18 17  1  0
 19 18  1  6
 19 21  1  0
 20 19  1  0
 21 22  2  0
 21 23  1  0
M  END
$$$$
