ARS.pdb
     RDKit          3D

 23 22  0  0  1  0  0  0  0  0999 V2000
   10.7459  -20.6586   19.2595 C   0  0  0  0  0  0  0  0  0  0  0  0
   10.8715  -19.1807   18.9841 C   0  0  2  0  0  0  0  0  0  0  0  0
   11.8977  -18.8820   18.0354 N   0  0  0  0  0  0  0  0  0  0  0  0
   11.0025  -18.3882   20.2373 C   0  0  0  0  0  0  0  0  0  0  0  0
   12.1249  -18.0599   20.7002 O   0  0  0  0  0  0  0  0  0  0  0  0
    7.4124  -14.3935   18.8123 N   0  0  0  0  0  0  0  0  0  0  0  0
    7.6953  -13.1538   19.4831 C   0  0  0  0  0  0  0  0  0  0  0  0
    8.0523  -12.1423   18.7771 N   0  0  0  0  0  0  0  0  0  0  0  0
    7.5813  -13.0592   20.8912 N   0  0  0  0  0  0  0  0  0  0  0  0
    7.5480  -14.2418   21.7134 C   0  0  0  0  0  0  0  0  0  0  0  0
    8.8354  -15.0514   21.5355 C   0  0  0  0  0  0  0  0  0  0  0  0
    8.7806  -16.2827   22.4160 C   0  0  0  0  0  0  0  0  0  0  0  0
    9.9740  -17.1681   22.1921 C   0  0  2  0  0  0  0  0  0  0  0  0
    9.8716  -17.9563   20.9843 N   0  0  0  0  0  0  0  0  0  0  0  0
   10.3594  -17.9592   23.3624 C   0  0  0  0  0  0  0  0  0  0  0  0
    9.6541  -18.9373   23.6942 O   0  0  0  0  0  0  0  0  0  0  0  0
    8.2846  -11.2545   19.2670 O   0  0  0  0  0  0  0  0  0  0  0  0
   14.0494  -18.7226   24.2262 C   0  0  0  0  0  0  0  0  0  0  0  0
   13.4405  -18.3908   25.4371 C   0  0  2  0  0  0  0  0  0  0  0  0
   11.9686  -18.3988   25.2392 N   0  0  0  0  0  0  0  0  0  0  0  0
   11.4972  -17.6541   24.1254 C   0  0  0  0  0  0  0  0  0  0  0  0
   11.3334  -17.9352   26.5030 O   0  0  0  0  0  0  0  0  0  0  0  0
   10.5022  -16.9930   26.4252 O   0  0  0  0  0  0  0  0  0  0  0  0
  2  1  1  1
  2  3  1  0
  4  2  1  0
  4  5  2  0
  6  7  1  0
  7  8  2  0
  7  9  1  0
  9 10  1  0
 10 11  1  0
 11 12  1  0
 13 12  1  1
 13 15  1  0
 13 14  1  0
 14  4  1  0
 15 20  1  0
 16 15  2  0
 18 17  1  0
 19 18  1  6
 19 21  1  0
 20 19  1  0
 21 22  2  0
 21 23  1  0
M  END
$$$$
