ARS.pdb
     RDKit          3D

 23 22  0  0  1  0  0  0  0  0999 V2000
   -1.5184  -27.2532   32.1317 C   0  0  0  0  0  0  0  0  0  0  0  0
   -2.8920  -27.3451   31.5150 C   0  0  2  0  0  0  0  0  0  0  0  0
   -2.9382  -28.2412   30.4027 N   0  0  0  0  0  0  0  0  0  0  0  0
   -3.4503  -26.0035   31.1925 C   0  0  0  0  0  0  0  0  0  0  0  0
   -3.6606  -25.1409   32.0833 O   0  0  0  0  0  0  0  0  0  0  0  0
   -2.3204  -21.3038   24.1797 N   0  0  0  0  0  0  0  0  0  0  0  0
   -3.2678  -22.3745   24.3307 C   0  0  0  0  0  0  0  0  0  0  0  0
   -3.5379  -23.1029   23.3082 N   0  0  0  0  0  0  0  0  0  0  0  0
   -3.8854  -22.6131   25.5823 N   0  0  0  0  0  0  0  0  0  0  0  0
   -3.5702  -21.8027   26.7310 C   0  0  0  0  0  0  0  0  0  0  0  0
   -4.2534  -22.3619   27.9819 C   0  0  0  0  0  0  0  0  0  0  0  0
   -3.7378  -23.7600   28.2540 C   0  0  0  0  0  0  0  0  0  0  0  0
   -4.3133  -24.3168   29.5255 C   0  0  2  0  0  0  0  0  0  0  0  0
   -3.7788  -25.6171   29.8634 N   0  0  0  0  0  0  0  0  0  0  0  0
   -5.7748  -24.2618   29.5947 C   0  0  0  0  0  0  0  0  0  0  0  0
   -6.4463  -25.0768   28.9247 O   0  0  0  0  0  0  0  0  0  0  0  0
   -4.2703  -23.8357   23.4026 O   0  0  0  0  0  0  0  0  0  0  0  0
   -9.7073  -23.8911   31.8981 C   0  0  0  0  0  0  0  0  0  0  0  0
   -8.3146  -23.9635   31.8539 C   0  0  2  0  0  0  0  0  0  0  0  0
   -7.8490  -23.2842   30.6180 N   0  0  0  0  0  0  0  0  0  0  0  0
   -6.4476  -23.3214   30.3903 C   0  0  0  0  0  0  0  0  0  0  0  0
   -8.3514  -21.8833   30.6477 O   0  0  0  0  0  0  0  0  0  0  0  0
   -7.5012  -20.9624   30.7666 O   0  0  0  0  0  0  0  0  0  0  0  0
  2  1  1  6
  2  3  1  0
  4  2  1  0
  4  5  2  0
  6  7  1  0
  7  8  2  0
  7  9  1  0
  9 10  1  0
 10 11  1  0
 11 12  1  0
 13 12  1  6
 13 15  1  0
 13 14  1  0
 14  4  1  0
 15 20  1  0
 16 15  2  0
 18 17  1  0
 19 18  1  6
 19 21  1  0
 20 19  1  0
 21 22  2  0
 21 23  1  0
M  END
$$$$
