ARS.pdb
     RDKit          3D

 23 22  0  0  1  0  0  0  0  0999 V2000
    8.1020  -12.3285   20.0112 C   0  0  0  0  0  0  0  0  0  0  0  0
    8.2417  -13.4127   18.9717 C   0  0  2  0  0  0  0  0  0  0  0  0
    7.0376  -13.6259   18.2321 N   0  0  0  0  0  0  0  0  0  0  0  0
    8.7899  -14.6712   19.5476 C   0  0  0  0  0  0  0  0  0  0  0  0
    8.0702  -15.4716   20.1980 O   0  0  0  0  0  0  0  0  0  0  0  0
   10.0617  -18.7098   14.9300 N   0  0  0  0  0  0  0  0  0  0  0  0
   11.1633  -17.7955   14.7984 C   0  0  0  0  0  0  0  0  0  0  0  0
   11.2810  -17.1306   13.7061 N   0  0  0  0  0  0  0  0  0  0  0  0
   12.0936  -17.6384   15.8542 N   0  0  0  0  0  0  0  0  0  0  0  0
   11.9424  -18.3639   17.0896 C   0  0  0  0  0  0  0  0  0  0  0  0
   10.9351  -17.6590   18.0022 C   0  0  0  0  0  0  0  0  0  0  0  0
   11.6765  -16.9529   19.1186 C   0  0  0  0  0  0  0  0  0  0  0  0
   10.7295  -16.2142   20.0218 C   0  0  2  0  0  0  0  0  0  0  0  0
   10.1548  -15.0432   19.3982 N   0  0  0  0  0  0  0  0  0  0  0  0
   11.2635  -15.9483   21.3590 C   0  0  0  0  0  0  0  0  0  0  0  0
   12.2114  -15.1424   21.4859 O   0  0  0  0  0  0  0  0  0  0  0  0
   12.0593  -16.4450   13.6260 O   0  0  0  0  0  0  0  0  0  0  0  0
    9.5712  -17.9030   24.4980 C   0  0  0  0  0  0  0  0  0  0  0  0
   10.2725  -16.7688   24.9088 C   0  0  1  0  0  0  0  0  0  0  0  0
   11.2206  -16.3881   23.8308 N   0  0  0  0  0  0  0  0  0  0  0  0
   10.7447  -16.5706   22.5051 C   0  0  0  0  0  0  0  0  0  0  0  0
   12.4904  -17.1325   24.0529 O   0  0  0  0  0  0  0  0  0  0  0  0
   12.8872  -17.8942   23.1325 O   0  0  0  0  0  0  0  0  0  0  0  0
  2  1  1  1
  2  3  1  0
  4  2  1  0
  4  5  2  0
  6  7  1  0
  7  8  2  0
  7  9  1  0
  9 10  1  0
 10 11  1  0
 11 12  1  0
 13 12  1  6
 13 15  1  0
 13 14  1  0
 14  4  1  0
 15 20  1  0
 16 15  2  0
 18 17  1  0
 19 18  1  1
 19 21  1  0
 20 19  1  0
 21 22  2  0
 21 23  1  0
M  END
$$$$
