DLT.pdb
     RDKit          3D

 24 23  0  0  1  0  0  0  0  0999 V2000
    7.1126  -15.3495   21.4389 N   0  0  0  0  0  0  0  0  0  0  0  0
    8.4045  -15.9158   21.6552 C   0  0  1  0  0  0  0  0  0  0  0  0
    9.4372  -15.4373   20.6600 C   0  0  0  0  0  0  0  0  0  0  0  0
    9.1354  -15.9619   19.3024 C   0  0  0  0  0  0  0  0  0  0  0  0
    8.0609  -16.5596   19.0881 O   0  0  0  0  0  0  0  0  0  0  0  0
    8.8782  -15.5500   23.0050 C   0  0  0  0  0  0  0  0  0  0  0  0
   10.0831  -15.5035   23.2774 O   0  0  0  0  0  0  0  0  0  0  0  0
   10.0071  -15.8207   18.2257 O   0  0  0  0  0  0  0  0  0  0  0  0
    7.9848  -11.8674   25.1769 C   0  0  0  0  0  0  0  0  0  0  0  0
    6.9826  -12.9560   25.4332 C   0  0  2  0  0  0  0  0  0  0  0  0
    5.8436  -12.3949   26.3060 C   0  0  0  0  0  0  0  0  0  0  0  0
    7.4838  -14.1612   26.1266 C   0  0  0  0  0  0  0  0  0  0  0  0
    8.3481  -15.1096   25.3725 C   0  0  2  0  0  0  0  0  0  0  0  0
    7.9230  -15.2461   24.0079 N   0  0  0  0  0  0  0  0  0  0  0  0
    8.4765  -16.4265   25.9976 C   0  0  0  0  0  0  0  0  0  0  0  0
    7.6536  -17.3276   25.7525 O   0  0  0  0  0  0  0  0  0  0  0  0
    9.5381  -18.7210   25.0686 C   0  0  0  0  0  0  0  0  0  0  0  0
   10.4603  -18.7925   26.2669 C   0  0  1  0  0  0  0  0  0  0  0  0
   11.6373  -18.1305   25.9226 O   0  0  0  0  0  0  0  0  0  0  0  0
    9.8315  -18.0093   27.4084 C   0  0  2  0  0  0  0  0  0  0  0  0
    9.5411  -16.6809   26.8865 N   0  0  0  0  0  0  0  0  0  0  0  0
   10.7183  -17.9359   28.5906 C   0  0  0  0  0  0  0  0  0  0  0  0
   10.9591  -18.9801   29.4543 O   0  0  0  0  0  0  0  0  0  0  0  0
   11.2879  -16.8361   28.8130 O   0  0  0  0  0  0  0  0  0  0  0  0
  2  1  1  6
  2  3  1  0
  3  4  1  0
  4  8  1  0
  5  4  2  0
  6 14  1  0
  6  2  1  0
  7  6  2  0
 10  9  1  1
 10 12  1  0
 11 10  1  0
 13 12  1  1
 13 14  1  0
 15 16  2  0
 15 13  1  0
 18 17  1  6
 19 18  1  0
 20 18  1  0
 20 21  1  6
 21 15  1  0
 22 20  1  0
 23 22  1  0
 24 22  2  0
M  END
$$$$
