DLT.pdb
     RDKit          3D

 24 23  0  0  1  0  0  0  0  0999 V2000
    9.0058  -15.6863   20.5477 N   0  0  0  0  0  0  0  0  0  0  0  0
    9.4680  -16.6882   21.4526 C   0  0  1  0  0  0  0  0  0  0  0  0
   10.8328  -17.2301   21.0925 C   0  0  0  0  0  0  0  0  0  0  0  0
   10.8536  -17.6946   19.6808 C   0  0  0  0  0  0  0  0  0  0  0  0
    9.8885  -17.4498   18.9281 O   0  0  0  0  0  0  0  0  0  0  0  0
    9.5559  -16.1163   22.8110 C   0  0  0  0  0  0  0  0  0  0  0  0
   10.6294  -16.0609   23.4216 O   0  0  0  0  0  0  0  0  0  0  0  0
   11.9178  -18.4073   19.1344 O   0  0  0  0  0  0  0  0  0  0  0  0
    6.0507  -12.7274   26.6770 C   0  0  0  0  0  0  0  0  0  0  0  0
    7.3041  -13.4971   26.3737 C   0  0  2  0  0  0  0  0  0  0  0  0
    8.5185  -12.5624   26.5328 C   0  0  0  0  0  0  0  0  0  0  0  0
    7.4043  -14.0837   25.0208 C   0  0  0  0  0  0  0  0  0  0  0  0
    8.4326  -15.1306   24.7723 C   0  0  2  0  0  0  0  0  0  0  0  0
    8.3773  -15.6206   23.4238 N   0  0  0  0  0  0  0  0  0  0  0  0
    8.3902  -16.2457   25.7190 C   0  0  0  0  0  0  0  0  0  0  0  0
    7.3149  -16.8161   25.9790 O   0  0  0  0  0  0  0  0  0  0  0  0
    9.5268  -19.3211   25.3728 C   0  0  0  0  0  0  0  0  0  0  0  0
   10.3216  -18.9320   26.6010 C   0  0  1  0  0  0  0  0  0  0  0  0
   11.5477  -18.4375   26.1602 O   0  0  0  0  0  0  0  0  0  0  0  0
    9.6069  -17.7837   27.2956 C   0  0  2  0  0  0  0  0  0  0  0  0
    9.5765  -16.6810   26.3446 N   0  0  0  0  0  0  0  0  0  0  0  0
   10.2790  -17.3860   28.5524 C   0  0  0  0  0  0  0  0  0  0  0  0
   10.3098  -18.1476   29.6983 O   0  0  0  0  0  0  0  0  0  0  0  0
   10.8608  -16.2702   28.5634 O   0  0  0  0  0  0  0  0  0  0  0  0
  2  1  1  6
  2  3  1  0
  3  4  1  0
  4  8  1  0
  5  4  2  0
  6 14  1  0
  6  2  1  0
  7  6  2  0
 10  9  1  6
 10 12  1  0
 11 10  1  0
 13 12  1  1
 13 14  1  0
 15 16  2  0
 15 13  1  0
 18 17  1  6
 19 18  1  0
 20 18  1  0
 20 21  1  6
 21 15  1  0
 22 20  1  0
 23 22  1  0
 24 22  2  0
M  END
$$$$
