DLT.pdb
     RDKit          3D

 24 23  0  0  1  0  0  0  0  0999 V2000
   10.4127  -16.4525   16.7361 N   0  0  0  0  0  0  0  0  0  0  0  0
   11.4050  -16.9430   17.6366 C   0  0  1  0  0  0  0  0  0  0  0  0
   12.8172  -16.6664   17.1727 C   0  0  0  0  0  0  0  0  0  0  0  0
   13.0809  -17.3401   15.8743 C   0  0  0  0  0  0  0  0  0  0  0  0
   13.9063  -16.8537   15.0743 O   0  0  0  0  0  0  0  0  0  0  0  0
   11.2306  -16.2986   18.9537 C   0  0  0  0  0  0  0  0  0  0  0  0
   12.1892  -16.0978   19.7079 O   0  0  0  0  0  0  0  0  0  0  0  0
   12.4421  -18.5157   15.4885 O   0  0  0  0  0  0  0  0  0  0  0  0
    9.1337  -12.2894   19.5929 C   0  0  0  0  0  0  0  0  0  0  0  0
    8.2151  -13.4771   19.6204 C   0  0  2  0  0  0  0  0  0  0  0  0
    6.7693  -12.9891   19.8338 C   0  0  0  0  0  0  0  0  0  0  0  0
    8.4740  -14.4844   20.6706 C   0  0  0  0  0  0  0  0  0  0  0  0
    9.7484  -15.2518   20.6232 C   0  0  2  0  0  0  0  0  0  0  0  0
    9.9299  -15.9031   19.3565 N   0  0  0  0  0  0  0  0  0  0  0  0
    9.9072  -16.2132   21.7149 C   0  0  0  0  0  0  0  0  0  0  0  0
    9.2287  -17.2563   21.7450 O   0  0  0  0  0  0  0  0  0  0  0  0
   12.7061  -17.5668   25.5311 C   0  0  0  0  0  0  0  0  0  0  0  0
   12.4301  -16.6004   24.3991 C   0  0  1  0  0  0  0  0  0  0  0  0
   13.3121  -16.9115   23.3658 O   0  0  0  0  0  0  0  0  0  0  0  0
   11.0268  -16.8589   23.8739 C   0  0  2  0  0  0  0  0  0  0  0  0
   10.8366  -15.9592   22.7445 N   0  0  0  0  0  0  0  0  0  0  0  0
    9.9935  -16.6402   24.9101 C   0  0  0  0  0  0  0  0  0  0  0  0
    9.3037  -15.4631   25.0913 O   0  0  0  0  0  0  0  0  0  0  0  0
    9.7346  -17.6056   25.6747 O   0  0  0  0  0  0  0  0  0  0  0  0
  2  1  1  6
  2  3  1  0
  3  4  1  0
  4  8  1  0
  5  4  2  0
  6 14  1  0
  6  2  1  0
  7  6  2  0
 10  9  1  1
 10 12  1  0
 11 10  1  0
 13 12  1  6
 13 14  1  0
 15 16  2  0
 15 13  1  0
 18 17  1  1
 19 18  1  0
 20 18  1  0
 20 21  1  6
 21 15  1  0
 22 20  1  0
 23 22  1  0
 24 22  2  0
M  END
$$$$
