DLT.pdb
     RDKit          3D

 24 23  0  0  1  0  0  0  0  0999 V2000
    9.4347  -15.2900   19.9825 N   0  0  0  0  0  0  0  0  0  0  0  0
    8.3992  -15.7634   20.8427 C   0  0  1  0  0  0  0  0  0  0  0  0
    8.2026  -17.2606   20.7678 C   0  0  0  0  0  0  0  0  0  0  0  0
    8.0267  -17.6935   19.3568 C   0  0  0  0  0  0  0  0  0  0  0  0
    7.0448  -17.2935   18.6982 O   0  0  0  0  0  0  0  0  0  0  0  0
    8.7321  -15.4235   22.2405 C   0  0  0  0  0  0  0  0  0  0  0  0
    9.8857  -15.5229   22.6736 O   0  0  0  0  0  0  0  0  0  0  0  0
    8.9197  -18.5435   18.7093 O   0  0  0  0  0  0  0  0  0  0  0  0
    6.0069  -12.5101   27.0080 C   0  0  0  0  0  0  0  0  0  0  0  0
    7.2057  -13.1823   26.4029 C   0  0  2  0  0  0  0  0  0  0  0  0
    8.4138  -12.2301   26.4919 C   0  0  0  0  0  0  0  0  0  0  0  0
    7.0909  -13.5781   24.9835 C   0  0  0  0  0  0  0  0  0  0  0  0
    8.0106  -14.6241   24.4587 C   0  0  2  0  0  0  0  0  0  0  0  0
    7.6992  -14.9732   23.1012 N   0  0  0  0  0  0  0  0  0  0  0  0
    8.0811  -15.8276   25.2881 C   0  0  0  0  0  0  0  0  0  0  0  0
    7.0461  -16.4451   25.5988 O   0  0  0  0  0  0  0  0  0  0  0  0
    9.5810  -18.7521   24.4339 C   0  0  0  0  0  0  0  0  0  0  0  0
   10.3088  -18.4710   25.7312 C   0  0  1  0  0  0  0  0  0  0  0  0
   11.4946  -17.8150   25.4060 O   0  0  0  0  0  0  0  0  0  0  0  0
    9.4769  -17.4975   26.5511 C   0  0  2  0  0  0  0  0  0  0  0  0
    9.3317  -16.2954   25.7416 N   0  0  0  0  0  0  0  0  0  0  0  0
   10.1026  -17.1896   27.8561 C   0  0  0  0  0  0  0  0  0  0  0  0
   10.1752  -18.0654   28.9152 O   0  0  0  0  0  0  0  0  0  0  0  0
   10.6006  -16.0426   27.9970 O   0  0  0  0  0  0  0  0  0  0  0  0
  2  1  1  6
  2  3  1  0
  3  4  1  0
  4  8  1  0
  5  4  2  0
  6 14  1  0
  6  2  1  0
  7  6  2  0
 10  9  1  6
 10 12  1  0
 11 10  1  0
 13 12  1  1
 13 14  1  0
 15 16  2  0
 15 13  1  0
 18 17  1  6
 19 18  1  0
 20 18  1  0
 20 21  1  6
 21 15  1  0
 22 20  1  0
 23 22  1  0
 24 22  2  0
M  END
$$$$
