DLT.pdb
     RDKit          3D

 24 23  0  0  1  0  0  0  0  0999 V2000
    9.2512  -15.7331   20.0562 N   0  0  0  0  0  0  0  0  0  0  0  0
    8.3200  -16.2969   20.9788 C   0  0  1  0  0  0  0  0  0  0  0  0
    8.3428  -17.8085   20.9973 C   0  0  0  0  0  0  0  0  0  0  0  0
    7.9368  -18.3523   19.6749 C   0  0  0  0  0  0  0  0  0  0  0  0
    8.8017  -18.7784   18.8822 O   0  0  0  0  0  0  0  0  0  0  0  0
    8.6372  -15.8262   22.3419 C   0  0  0  0  0  0  0  0  0  0  0  0
    9.7694  -15.9508   22.8224 O   0  0  0  0  0  0  0  0  0  0  0  0
    6.6097  -18.4155   19.2579 O   0  0  0  0  0  0  0  0  0  0  0  0
    5.9577  -12.3889   26.8027 C   0  0  0  0  0  0  0  0  0  0  0  0
    7.1023  -13.2139   26.2883 C   0  0  2  0  0  0  0  0  0  0  0  0
    8.3887  -12.3667   26.3253 C   0  0  0  0  0  0  0  0  0  0  0  0
    6.9775  -13.7218   24.9058 C   0  0  0  0  0  0  0  0  0  0  0  0
    7.8919  -14.8085   24.4606 C   0  0  2  0  0  0  0  0  0  0  0  0
    7.6144  -15.2177   23.1126 N   0  0  0  0  0  0  0  0  0  0  0  0
    7.9143  -15.9711   25.3489 C   0  0  0  0  0  0  0  0  0  0  0  0
    6.8580  -16.5500   25.6624 O   0  0  0  0  0  0  0  0  0  0  0  0
    9.0216  -19.0848   24.8769 C   0  0  0  0  0  0  0  0  0  0  0  0
    9.9003  -18.6964   26.0467 C   0  0  1  0  0  0  0  0  0  0  0  0
   11.0899  -18.1950   25.5215 O   0  0  0  0  0  0  0  0  0  0  0  0
    9.2323  -17.5536   26.7947 C   0  0  2  0  0  0  0  0  0  0  0  0
    9.1422  -16.4432   25.8565 N   0  0  0  0  0  0  0  0  0  0  0  0
    9.9834  -17.1663   28.0093 C   0  0  0  0  0  0  0  0  0  0  0  0
   10.0559  -17.9204   29.1583 O   0  0  0  0  0  0  0  0  0  0  0  0
   10.5959  -16.0674   27.9788 O   0  0  0  0  0  0  0  0  0  0  0  0
  2  1  1  6
  2  3  1  0
  3  4  1  0
  4  8  1  0
  5  4  2  0
  6 14  1  0
  6  2  1  0
  7  6  2  0
 10  9  1  6
 10 12  1  0
 11 10  1  0
 13 12  1  1
 13 14  1  0
 15 16  2  0
 15 13  1  0
 18 17  1  6
 19 18  1  0
 20 18  1  0
 20 21  1  6
 21 15  1  0
 22 20  1  0
 23 22  1  0
 24 22  2  0
M  END
$$$$
