DLT.pdb
     RDKit          3D

 24 23  0  0  1  0  0  0  0  0999 V2000
   11.1601  -17.6999   16.6629 N   0  0  0  0  0  0  0  0  0  0  0  0
    9.8928  -17.5518   17.3020 C   0  0  1  0  0  0  0  0  0  0  0  0
    9.1847  -18.8680   17.5297 C   0  0  0  0  0  0  0  0  0  0  0  0
    8.6684  -19.4112   16.2460 C   0  0  0  0  0  0  0  0  0  0  0  0
    8.9335  -18.8339   15.1716 O   0  0  0  0  0  0  0  0  0  0  0  0
   10.0818  -16.9099   18.6183 C   0  0  0  0  0  0  0  0  0  0  0  0
   11.1385  -17.0262   19.2493 O   0  0  0  0  0  0  0  0  0  0  0  0
    7.8842  -20.5594   16.1713 O   0  0  0  0  0  0  0  0  0  0  0  0
    7.3570  -12.1016   20.5653 C   0  0  0  0  0  0  0  0  0  0  0  0
    8.4552  -13.1040   20.3547 C   0  0  2  0  0  0  0  0  0  0  0  0
    8.8451  -13.1161   18.8641 C   0  0  0  0  0  0  0  0  0  0  0  0
    8.1460  -14.5035   20.7158 C   0  0  0  0  0  0  0  0  0  0  0  0
    9.1753  -15.5486   20.4636 C   0  0  2  0  0  0  0  0  0  0  0  0
    9.0221  -16.1433   19.1657 N   0  0  0  0  0  0  0  0  0  0  0  0
    9.2364  -16.5870   21.4929 C   0  0  0  0  0  0  0  0  0  0  0  0
    8.8153  -17.7351   21.2611 O   0  0  0  0  0  0  0  0  0  0  0  0
   12.3528  -18.6723   23.9422 C   0  0  0  0  0  0  0  0  0  0  0  0
   11.5406  -17.8833   22.9375 C   0  0  1  0  0  0  0  0  0  0  0  0
   11.0670  -18.7871   21.9882 O   0  0  0  0  0  0  0  0  0  0  0  0
   10.3236  -17.3082   23.6445 C   0  0  2  0  0  0  0  0  0  0  0  0
    9.7767  -16.2880   22.7605 N   0  0  0  0  0  0  0  0  0  0  0  0
   10.6629  -16.7409   24.9683 C   0  0  0  0  0  0  0  0  0  0  0  0
   10.6357  -17.4439   26.1512 O   0  0  0  0  0  0  0  0  0  0  0  0
   10.9988  -15.5287   25.0039 O   0  0  0  0  0  0  0  0  0  0  0  0
  2  1  1  1
  2  3  1  0
  3  4  1  0
  4  8  1  0
  5  4  2  0
  6 14  1  0
  6  2  1  0
  7  6  2  0
 10  9  1  6
 10 12  1  0
 11 10  1  0
 13 12  1  1
 13 14  1  0
 15 16  2  0
 15 13  1  0
 18 17  1  1
 19 18  1  0
 20 18  1  0
 20 21  1  6
 21 15  1  0
 22 20  1  0
 23 22  1  0
 24 22  2  0
M  END
$$$$
