DLT.pdb
     RDKit          3D

 24 23  0  0  1  0  0  0  0  0999 V2000
    9.8861  -18.0880   20.4542 N   0  0  0  0  0  0  0  0  0  0  0  0
   11.0461  -17.3569   20.8496 C   0  0  1  0  0  0  0  0  0  0  0  0
   11.8735  -16.8766   19.6790 C   0  0  0  0  0  0  0  0  0  0  0  0
   12.5387  -18.0226   19.0054 C   0  0  0  0  0  0  0  0  0  0  0  0
   13.1170  -17.8548   17.9122 O   0  0  0  0  0  0  0  0  0  0  0  0
   10.6342  -16.1701   21.6256 C   0  0  0  0  0  0  0  0  0  0  0  0
   11.4641  -15.4306   22.1664 O   0  0  0  0  0  0  0  0  0  0  0  0
   12.5540  -19.3086   19.5392 O   0  0  0  0  0  0  0  0  0  0  0  0
    8.8891  -12.5540   20.2216 C   0  0  0  0  0  0  0  0  0  0  0  0
    7.8506  -13.5994   20.5115 C   0  0  2  0  0  0  0  0  0  0  0  0
    6.4699  -13.0691   20.0798 C   0  0  0  0  0  0  0  0  0  0  0  0
    7.7140  -14.0168   21.9227 C   0  0  0  0  0  0  0  0  0  0  0  0
    8.8334  -14.7660   22.5559 C   0  0  2  0  0  0  0  0  0  0  0  0
    9.2523  -15.8775   21.7493 N   0  0  0  0  0  0  0  0  0  0  0  0
    8.5580  -15.2075   23.9236 C   0  0  0  0  0  0  0  0  0  0  0  0
    8.2184  -14.3891   24.7978 O   0  0  0  0  0  0  0  0  0  0  0  0
    6.2118  -17.8592   24.7514 C   0  0  0  0  0  0  0  0  0  0  0  0
    7.5032  -18.3023   25.4052 C   0  0  1  0  0  0  0  0  0  0  0  0
    8.1541  -19.1445   24.5055 O   0  0  0  0  0  0  0  0  0  0  0  0
    8.3934  -17.0840   25.5919 C   0  0  2  0  0  0  0  0  0  0  0  0
    8.6773  -16.5721   24.2583 N   0  0  0  0  0  0  0  0  0  0  0  0
    9.6424  -17.4104   26.3152 C   0  0  0  0  0  0  0  0  0  0  0  0
    9.7100  -17.7450   27.6484 O   0  0  0  0  0  0  0  0  0  0  0  0
   10.7131  -17.3765   25.6549 O   0  0  0  0  0  0  0  0  0  0  0  0
  2  1  1  6
  2  3  1  0
  3  4  1  0
  4  8  1  0
  5  4  2  0
  6 14  1  0
  6  2  1  0
  7  6  2  0
 10  9  1  1
 10 12  1  0
 11 10  1  0
 13 12  1  6
 13 14  1  0
 15 16  2  0
 15 13  1  0
 18 17  1  6
 19 18  1  0
 20 18  1  0
 20 21  1  6
 21 15  1  0
 22 20  1  0
 23 22  1  0
 24 22  2  0
M  END
$$$$
