DLT.pdb
     RDKit          3D

 24 23  0  0  1  0  0  0  0  0999 V2000
   12.1240  -16.3477   18.0863 N   0  0  0  0  0  0  0  0  0  0  0  0
   12.9583  -15.5928   18.9641 C   0  0  1  0  0  0  0  0  0  0  0  0
   13.6776  -14.4581   18.2707 C   0  0  0  0  0  0  0  0  0  0  0  0
   14.6681  -14.9865   17.2965 C   0  0  0  0  0  0  0  0  0  0  0  0
   14.3140  -15.8146   16.4323 O   0  0  0  0  0  0  0  0  0  0  0  0
   12.1332  -15.0101   20.0411 C   0  0  0  0  0  0  0  0  0  0  0  0
   12.6397  -14.3738   20.9721 O   0  0  0  0  0  0  0  0  0  0  0  0
   16.0058  -14.5998   17.2925 O   0  0  0  0  0  0  0  0  0  0  0  0
    9.0983  -12.0180   19.3455 C   0  0  0  0  0  0  0  0  0  0  0  0
    8.5003  -13.3934   19.2692 C   0  0  2  0  0  0  0  0  0  0  0  0
    7.0063  -13.2726   18.9125 C   0  0  0  0  0  0  0  0  0  0  0  0
    8.5702  -14.2098   20.4993 C   0  0  0  0  0  0  0  0  0  0  0  0
    9.9087  -14.5982   21.0218 C   0  0  2  0  0  0  0  0  0  0  0  0
   10.7271  -15.1885   20.0004 N   0  0  0  0  0  0  0  0  0  0  0  0
    9.8611  -15.4671   22.1983 C   0  0  0  0  0  0  0  0  0  0  0  0
    9.1736  -15.1567   23.1884 O   0  0  0  0  0  0  0  0  0  0  0  0
   11.5351  -19.2940   21.8632 C   0  0  0  0  0  0  0  0  0  0  0  0
   10.4020  -18.9683   22.8127 C   0  0  1  0  0  0  0  0  0  0  0  0
   10.5027  -19.8441   23.8921 O   0  0  0  0  0  0  0  0  0  0  0  0
   10.6180  -17.5665   23.3606 C   0  0  2  0  0  0  0  0  0  0  0  0
   10.5997  -16.6681   22.2144 N   0  0  0  0  0  0  0  0  0  0  0  0
   11.8885  -17.4494   24.1100 C   0  0  0  0  0  0  0  0  0  0  0  0
   12.9291  -16.6190   23.7611 O   0  0  0  0  0  0  0  0  0  0  0  0
   12.0162  -18.1642   25.1377 O   0  0  0  0  0  0  0  0  0  0  0  0
  2  1  1  6
  2  3  1  0
  3  4  1  0
  4  8  1  0
  5  4  2  0
  6 14  1  0
  6  2  1  0
  7  6  2  0
 10  9  1  1
 10 12  1  0
 11 10  1  0
 13 12  1  6
 13 14  1  0
 15 16  2  0
 15 13  1  0
 18 17  1  6
 19 18  1  0
 20 18  1  0
 20 21  1  6
 21 15  1  0
 22 20  1  0
 23 22  1  0
 24 22  2  0
M  END
$$$$
