DLT.pdb
     RDKit          3D

 24 23  0  0  1  0  0  0  0  0999 V2000
    7.3043  -15.8773   21.4366 N   0  0  0  0  0  0  0  0  0  0  0  0
    8.7117  -16.0394   21.6081 C   0  0  1  0  0  0  0  0  0  0  0  0
    9.5275  -15.1834   20.6660 C   0  0  0  0  0  0  0  0  0  0  0  0
    9.3614  -15.6474   19.2637 C   0  0  0  0  0  0  0  0  0  0  0  0
    8.4318  -15.1977   18.5626 O   0  0  0  0  0  0  0  0  0  0  0  0
    9.0816  -15.6664   22.9881 C   0  0  0  0  0  0  0  0  0  0  0  0
   10.2597  -15.4850   23.3156 O   0  0  0  0  0  0  0  0  0  0  0  0
   10.2071  -16.5813   18.6707 O   0  0  0  0  0  0  0  0  0  0  0  0
    8.2034  -12.1219   25.5484 C   0  0  0  0  0  0  0  0  0  0  0  0
    7.1140  -13.1535   25.4838 C   0  0  2  0  0  0  0  0  0  0  0  0
    5.8838  -12.6338   26.2522 C   0  0  0  0  0  0  0  0  0  0  0  0
    7.4305  -14.4805   26.0527 C   0  0  0  0  0  0  0  0  0  0  0  0
    8.4062  -15.3479   25.3380 C   0  0  2  0  0  0  0  0  0  0  0  0
    8.0562  -15.5145   23.9555 N   0  0  0  0  0  0  0  0  0  0  0  0
    8.6190  -16.6516   25.9677 C   0  0  0  0  0  0  0  0  0  0  0  0
    7.7202  -17.5127   25.9623 O   0  0  0  0  0  0  0  0  0  0  0  0
   10.1926  -19.1673   24.9450 C   0  0  0  0  0  0  0  0  0  0  0  0
   10.9798  -19.0097   26.2284 C   0  0  1  0  0  0  0  0  0  0  0  0
   12.0964  -18.2291   25.9350 O   0  0  0  0  0  0  0  0  0  0  0  0
   10.1378  -18.2204   27.2182 C   0  0  2  0  0  0  0  0  0  0  0  0
    9.8525  -16.9389   26.5875 N   0  0  0  0  0  0  0  0  0  0  0  0
   10.8266  -18.0353   28.5147 C   0  0  0  0  0  0  0  0  0  0  0  0
   11.0403  -19.0343   29.4369 O   0  0  0  0  0  0  0  0  0  0  0  0
   11.2426  -16.8785   28.7831 O   0  0  0  0  0  0  0  0  0  0  0  0
  2  1  1  1
  2  3  1  0
  3  4  1  0
  4  8  1  0
  5  4  2  0
  6 14  1  0
  6  2  1  0
  7  6  2  0
 10  9  1  1
 10 12  1  0
 11 10  1  0
 13 12  1  1
 13 14  1  0
 15 16  2  0
 15 13  1  0
 18 17  1  6
 19 18  1  0
 20 18  1  0
 20 21  1  6
 21 15  1  0
 22 20  1  0
 23 22  1  0
 24 22  2  0
M  END
$$$$
