DLT.pdb
     RDKit          3D

 24 23  0  0  1  0  0  0  0  0999 V2000
    6.7471  -15.7771   21.2813 N   0  0  0  0  0  0  0  0  0  0  0  0
    8.1685  -15.9012   21.3052 C   0  0  1  0  0  0  0  0  0  0  0  0
    8.8603  -15.0034   20.3047 C   0  0  0  0  0  0  0  0  0  0  0  0
    8.5237  -15.4133   18.9162 C   0  0  0  0  0  0  0  0  0  0  0  0
    9.1477  -14.9249   17.9518 O   0  0  0  0  0  0  0  0  0  0  0  0
    8.6672  -15.5449   22.6486 C   0  0  0  0  0  0  0  0  0  0  0  0
    9.8758  -15.4267   22.8798 O   0  0  0  0  0  0  0  0  0  0  0  0
    7.5242  -16.3369   18.6212 O   0  0  0  0  0  0  0  0  0  0  0  0
    8.2199  -11.9934   25.6119 C   0  0  0  0  0  0  0  0  0  0  0  0
    7.0509  -12.9218   25.4478 C   0  0  2  0  0  0  0  0  0  0  0  0
    5.8760  -12.4056   26.3003 C   0  0  0  0  0  0  0  0  0  0  0  0
    7.2678  -14.3287   25.8456 C   0  0  0  0  0  0  0  0  0  0  0  0
    8.2015  -15.1614   25.0394 C   0  0  2  0  0  0  0  0  0  0  0  0
    7.7322  -15.3347   23.6935 N   0  0  0  0  0  0  0  0  0  0  0  0
    8.5129  -16.4595   25.6388 C   0  0  0  0  0  0  0  0  0  0  0  0
    7.6257  -17.3206   25.7827 O   0  0  0  0  0  0  0  0  0  0  0  0
   11.7983  -19.8732   26.4640 C   0  0  0  0  0  0  0  0  0  0  0  0
   11.3654  -18.5548   25.8592 C   0  0  1  0  0  0  0  0  0  0  0  0
   10.8700  -18.8274   24.5854 O   0  0  0  0  0  0  0  0  0  0  0  0
   10.2058  -18.0060   26.6752 C   0  0  2  0  0  0  0  0  0  0  0  0
    9.8292  -16.7414   26.0585 N   0  0  0  0  0  0  0  0  0  0  0  0
   10.5634  -17.8197   28.0989 C   0  0  0  0  0  0  0  0  0  0  0  0
   10.4085  -18.7761   29.0763 O   0  0  0  0  0  0  0  0  0  0  0  0
   11.0424  -16.7037   28.4286 O   0  0  0  0  0  0  0  0  0  0  0  0
  2  1  1  1
  2  3  1  0
  3  4  1  0
  4  8  1  0
  5  4  2  0
  6 14  1  0
  6  2  1  0
  7  6  2  0
 10  9  1  1
 10 12  1  0
 11 10  1  0
 13 12  1  1
 13 14  1  0
 15 16  2  0
 15 13  1  0
 18 17  1  1
 19 18  1  0
 20 18  1  0
 20 21  1  6
 21 15  1  0
 22 20  1  0
 23 22  1  0
 24 22  2  0
M  END
$$$$
