DLT.pdb
     RDKit          3D

 24 23  0  0  1  0  0  0  0  0999 V2000
    7.0923  -15.9862   21.3753 N   0  0  0  0  0  0  0  0  0  0  0  0
    8.5137  -16.0123   21.4982 C   0  0  1  0  0  0  0  0  0  0  0  0
    9.2123  -15.1053   20.5107 C   0  0  0  0  0  0  0  0  0  0  0  0
    9.0811  -15.6387   19.1296 C   0  0  0  0  0  0  0  0  0  0  0  0
    8.7016  -16.8136   18.9469 O   0  0  0  0  0  0  0  0  0  0  0  0
    8.8946  -15.5757   22.8564 C   0  0  0  0  0  0  0  0  0  0  0  0
   10.0723  -15.3510   23.1574 O   0  0  0  0  0  0  0  0  0  0  0  0
    9.3651  -14.8815   17.9960 O   0  0  0  0  0  0  0  0  0  0  0  0
    8.0522  -12.0316   25.3037 C   0  0  0  0  0  0  0  0  0  0  0  0
    6.9510  -13.0521   25.3400 C   0  0  2  0  0  0  0  0  0  0  0  0
    5.7749  -12.4928   26.1634 C   0  0  0  0  0  0  0  0  0  0  0  0
    7.2888  -14.3630   25.9332 C   0  0  0  0  0  0  0  0  0  0  0  0
    8.2456  -15.2462   25.2122 C   0  0  2  0  0  0  0  0  0  0  0  0
    7.8803  -15.4122   23.8336 N   0  0  0  0  0  0  0  0  0  0  0  0
    8.4462  -16.5507   25.8442 C   0  0  0  0  0  0  0  0  0  0  0  0
    7.4725  -17.2597   26.1579 O   0  0  0  0  0  0  0  0  0  0  0  0
   10.0983  -19.2799   24.4941 C   0  0  0  0  0  0  0  0  0  0  0  0
   10.8784  -19.0901   25.7774 C   0  0  1  0  0  0  0  0  0  0  0  0
   11.9894  -18.3055   25.4733 O   0  0  0  0  0  0  0  0  0  0  0  0
   10.0251  -18.2891   26.7479 C   0  0  2  0  0  0  0  0  0  0  0  0
    9.7534  -17.0124   26.1018 N   0  0  0  0  0  0  0  0  0  0  0  0
   10.6959  -18.0947   28.0524 C   0  0  0  0  0  0  0  0  0  0  0  0
   11.2251  -16.9021   28.4903 O   0  0  0  0  0  0  0  0  0  0  0  0
   10.7833  -19.0977   28.8074 O   0  0  0  0  0  0  0  0  0  0  0  0
  2  1  1  1
  2  3  1  0
  3  4  1  0
  4  8  1  0
  5  4  2  0
  6 14  1  0
  6  2  1  0
  7  6  2  0
 10  9  1  1
 10 12  1  0
 11 10  1  0
 13 12  1  1
 13 14  1  0
 15 16  2  0
 15 13  1  0
 18 17  1  6
 19 18  1  0
 20 18  1  0
 20 21  1  6
 21 15  1  0
 22 20  1  0
 23 22  1  0
 24 22  2  0
M  END
$$$$
