DLT.pdb
     RDKit          3D

 24 23  0  0  1  0  0  0  0  0999 V2000
    7.3694  -15.3605   21.3685 N   0  0  0  0  0  0  0  0  0  0  0  0
    8.6087  -15.9245   21.7954 C   0  0  1  0  0  0  0  0  0  0  0  0
    9.8010  -15.3762   21.0446 C   0  0  0  0  0  0  0  0  0  0  0  0
    9.7780  -15.8274   19.6286 C   0  0  0  0  0  0  0  0  0  0  0  0
    8.7926  -16.4544   19.1885 O   0  0  0  0  0  0  0  0  0  0  0  0
    8.8089  -15.6347   23.2294 C   0  0  0  0  0  0  0  0  0  0  0  0
    9.9175  -15.7494   23.7642 O   0  0  0  0  0  0  0  0  0  0  0  0
   10.8219  -15.5837   18.7399 O   0  0  0  0  0  0  0  0  0  0  0  0
    8.2022  -11.9971   25.9372 C   0  0  0  0  0  0  0  0  0  0  0  0
    6.9443  -12.7352   25.5791 C   0  0  2  0  0  0  0  0  0  0  0  0
    5.7409  -12.0168   26.2192 C   0  0  0  0  0  0  0  0  0  0  0  0
    6.8647  -14.1465   26.0107 C   0  0  0  0  0  0  0  0  0  0  0  0
    7.8269  -15.1239   25.4327 C   0  0  2  0  0  0  0  0  0  0  0  0
    7.6988  -15.2154   24.0056 N   0  0  0  0  0  0  0  0  0  0  0  0
    7.7585  -16.4561   26.0343 C   0  0  0  0  0  0  0  0  0  0  0  0
    6.7719  -17.1896   25.8400 O   0  0  0  0  0  0  0  0  0  0  0  0
   10.3261  -18.8008   25.3225 C   0  0  0  0  0  0  0  0  0  0  0  0
    9.0337  -19.1486   26.0299 C   0  0  1  0  0  0  0  0  0  0  0  0
    9.1343  -20.4751   26.4455 O   0  0  0  0  0  0  0  0  0  0  0  0
    8.9268  -18.2996   27.2866 C   0  0  2  0  0  0  0  0  0  0  0  0
    8.8183  -16.9168   26.8424 N   0  0  0  0  0  0  0  0  0  0  0  0
   10.0887  -18.4819   28.1845 C   0  0  0  0  0  0  0  0  0  0  0  0
   11.0039  -17.5002   28.4890 O   0  0  0  0  0  0  0  0  0  0  0  0
   10.2415  -19.6191   28.7010 O   0  0  0  0  0  0  0  0  0  0  0  0
  2  1  1  6
  2  3  1  0
  3  4  1  0
  4  8  1  0
  5  4  2  0
  6 14  1  0
  6  2  1  0
  7  6  2  0
 10  9  1  1
 10 12  1  0
 11 10  1  0
 13 12  1  1
 13 14  1  0
 15 16  2  0
 15 13  1  0
 18 17  1  1
 19 18  1  0
 20 18  1  0
 20 21  1  6
 21 15  1  0
 22 20  1  0
 23 22  1  0
 24 22  2  0
M  END
$$$$
