DLT.pdb
     RDKit          3D

 24 23  0  0  1  0  0  0  0  0999 V2000
    9.4264  -15.0901   21.2081 N   0  0  0  0  0  0  0  0  0  0  0  0
    8.8686  -16.0134   22.1423 C   0  0  1  0  0  0  0  0  0  0  0  0
    9.4398  -17.4074   22.0134 C   0  0  0  0  0  0  0  0  0  0  0  0
    9.0772  -17.9999   20.6993 C   0  0  0  0  0  0  0  0  0  0  0  0
    8.5798  -17.2833   19.8066 O   0  0  0  0  0  0  0  0  0  0  0  0
    9.1393  -15.5424   23.5154 C   0  0  0  0  0  0  0  0  0  0  0  0
   10.2876  -15.2936   23.8996 O   0  0  0  0  0  0  0  0  0  0  0  0
    9.2660  -19.3463   20.3986 O   0  0  0  0  0  0  0  0  0  0  0  0
    8.1550  -11.7020   25.6015 C   0  0  0  0  0  0  0  0  0  0  0  0
    7.0259  -12.6869   25.4991 C   0  0  2  0  0  0  0  0  0  0  0  0
    5.7515  -12.0531   26.0891 C   0  0  0  0  0  0  0  0  0  0  0  0
    7.2122  -13.9757   26.1981 C   0  0  0  0  0  0  0  0  0  0  0  0
    8.2958  -14.8861   25.7375 C   0  0  2  0  0  0  0  0  0  0  0  0
    8.0516  -15.3736   24.4092 N   0  0  0  0  0  0  0  0  0  0  0  0
    8.5644  -16.0018   26.6455 C   0  0  0  0  0  0  0  0  0  0  0  0
    8.7933  -15.7966   27.8517 O   0  0  0  0  0  0  0  0  0  0  0  0
    6.6171  -19.3364   26.2960 C   0  0  0  0  0  0  0  0  0  0  0  0
    8.0963  -19.6528   26.3552 C   0  0  1  0  0  0  0  0  0  0  0  0
    8.5544  -19.7337   25.0415 O   0  0  0  0  0  0  0  0  0  0  0  0
    8.8161  -18.4800   27.0018 C   0  0  2  0  0  0  0  0  0  0  0  0
    8.5649  -17.3231   26.1533 N   0  0  0  0  0  0  0  0  0  0  0  0
   10.2673  -18.7280   27.1498 C   0  0  0  0  0  0  0  0  0  0  0  0
   10.8208  -19.6369   28.0226 O   0  0  0  0  0  0  0  0  0  0  0  0
   11.0414  -18.0548   26.4212 O   0  0  0  0  0  0  0  0  0  0  0  0
  2  1  1  6
  2  3  1  0
  3  4  1  0
  4  8  1  0
  5  4  2  0
  6 14  1  0
  6  2  1  0
  7  6  2  0
 10  9  1  1
 10 12  1  0
 11 10  1  0
 13 12  1  1
 13 14  1  0
 15 16  2  0
 15 13  1  0
 18 17  1  6
 19 18  1  0
 20 18  1  0
 20 21  1  6
 21 15  1  0
 22 20  1  0
 23 22  1  0
 24 22  2  0
M  END
$$$$
