RMQ.pdb
     RDKit          3D

 29 28  0  0  1  0  0  0  0  0999 V2000
    8.0014  -12.6507   15.3212 N   0  0  0  0  0  0  0  0  0  0  0  0
    8.0596  -14.0290   14.9183 C   0  0  0  0  0  0  0  0  0  0  0  0
    7.6984  -14.3687   13.7223 N   0  0  0  0  0  0  0  0  0  0  0  0
    8.5101  -15.0395   15.8031 N   0  0  0  0  0  0  0  0  0  0  0  0
    9.1123  -14.7674   17.0851 C   0  0  0  0  0  0  0  0  0  0  0  0
    8.0672  -14.5066   18.1459 C   0  0  0  0  0  0  0  0  0  0  0  0
    8.6474  -14.2177   19.4908 C   0  0  0  0  0  0  0  0  0  0  0  0
    8.2765  -15.2852   20.4686 C   0  0  2  0  0  0  0  0  0  0  0  0
    6.8690  -15.6313   20.4075 N   0  0  0  0  0  0  0  0  0  0  0  0
    8.6676  -14.8893   21.8616 C   0  0  0  0  0  0  0  0  0  0  0  0
    9.8476  -14.5592   22.0608 O   0  0  0  0  0  0  0  0  0  0  0  0
    7.7423  -15.3302   13.3723 C   0  0  0  0  0  0  0  0  0  0  0  0
    7.1287  -10.5696   26.2331 S   0  0  0  0  0  0  0  0  0  0  0  0
    6.3737  -12.0807   26.9457 C   0  0  0  0  0  0  0  0  0  0  0  0
    7.3484  -13.5403   26.4392 C   0  0  0  0  0  0  0  0  0  0  0  0
    7.0881  -13.8532   25.0111 C   0  0  1  0  0  0  0  0  0  0  0  0
    8.1954  -14.6054   24.3172 N   0  0  0  0  0  0  0  0  0  0  0  0
    7.7465  -14.8776   22.9538 C   0  0  0  0  0  0  0  0  0  0  0  0
    8.5875  -15.8313   25.0237 O   0  0  0  0  0  0  0  0  0  0  0  0
    7.6860  -16.6078   25.4184 N   0  0  0  0  0  0  0  0  0  0  0  0
   14.3499  -18.7639   24.7765 C   0  0  0  0  0  0  0  0  0  0  0  0
   13.6172  -19.5123   25.7639 O   0  0  0  0  0  0  0  0  0  0  0  0
   14.1910  -20.4932   26.2425 C   0  0  0  0  0  0  0  0  0  0  0  0
   12.2866  -19.0670   26.1110 C   0  0  0  0  0  0  0  0  0  0  0  0
   11.7022  -17.8580   25.5171 C   0  0  1  0  0  0  0  0  0  0  0  0
   10.3045  -17.4999   25.8680 N   0  0  0  0  0  0  0  0  0  0  0  0
    9.9280  -16.2031   25.2920 C   0  0  0  0  0  0  0  0  0  0  0  0
   10.0271  -17.5082   27.2918 O   0  0  0  0  0  0  0  0  0  0  0  0
    9.4680  -18.6332   27.9199 O   0  0  0  0  0  0  0  0  0  0  0  0
  1  2  1  0
  2  3  2  0
  4  5  1  0
  4  2  1  0
  6  5  1  0
  7  6  1  0
  8 10  1  0
  8  7  1  0
  8  9  1  1
 10 11  2  0
 13 12  1  0
 13 14  1  0
 15 14  1  0
 16 15  1  6
 17 16  1  0
 17 10  1  0
 18 16  1  0
 18 19  2  0
 20 21  1  0
 21 22  2  0
 23 21  1  0
 23 24  1  0
 25 24  1  6
 25 26  1  0
 25 27  1  0
 26 18  1  0
 27 28  1  0
 29 27  2  0
M  END
$$$$
