RMQ.pdb
     RDKit          3D

 29 28  0  0  1  0  0  0  0  0999 V2000
    7.4165  -12.8957   19.8500 N   0  0  0  0  0  0  0  0  0  0  0  0
    8.0404  -13.0886   18.5697 C   0  0  0  0  0  0  0  0  0  0  0  0
    7.7370  -12.3121   17.5792 N   0  0  0  0  0  0  0  0  0  0  0  0
    8.9931  -14.1157   18.3587 N   0  0  0  0  0  0  0  0  0  0  0  0
    8.7916  -15.4860   18.7610 C   0  0  0  0  0  0  0  0  0  0  0  0
    9.9117  -15.9745   19.6511 C   0  0  0  0  0  0  0  0  0  0  0  0
    9.7669  -17.4045   20.0548 C   0  0  0  0  0  0  0  0  0  0  0  0
    8.6851  -17.5607   21.0739 C   0  0  2  0  0  0  0  0  0  0  0  0
    7.4012  -17.0784   20.6010 N   0  0  0  0  0  0  0  0  0  0  0  0
    9.0654  -16.8891   22.3601 C   0  0  0  0  0  0  0  0  0  0  0  0
   10.1801  -17.1476   22.8416 O   0  0  0  0  0  0  0  0  0  0  0  0
    8.0742  -12.4600   16.6235 C   0  0  0  0  0  0  0  0  0  0  0  0
    7.1107  -11.3951   27.7499 S   0  0  0  0  0  0  0  0  0  0  0  0
    6.8418  -12.1639   26.1075 C   0  0  0  0  0  0  0  0  0  0  0  0
    7.7157  -13.7666   26.0395 C   0  0  0  0  0  0  0  0  0  0  0  0
    7.5471  -14.3797   24.6976 C   0  0  1  0  0  0  0  0  0  0  0  0
    8.5618  -15.4413   24.3560 N   0  0  0  0  0  0  0  0  0  0  0  0
    8.2056  -15.9753   23.0436 C   0  0  0  0  0  0  0  0  0  0  0  0
    8.6548  -16.4956   25.3736 O   0  0  0  0  0  0  0  0  0  0  0  0
    7.5998  -17.0607   25.7467 N   0  0  0  0  0  0  0  0  0  0  0  0
   12.5466  -19.8831   24.1437 C   0  0  0  0  0  0  0  0  0  0  0  0
   13.1618  -19.1727   25.2341 O   0  0  0  0  0  0  0  0  0  0  0  0
   14.3729  -18.9629   25.1351 C   0  0  0  0  0  0  0  0  0  0  0  0
   12.3287  -18.7693   26.3442 C   0  0  0  0  0  0  0  0  0  0  0  0
   10.8971  -19.0930   26.3872 C   0  0  1  0  0  0  0  0  0  0  0  0
    9.9522  -18.0643   26.8907 N   0  0  0  0  0  0  0  0  0  0  0  0
    9.8667  -16.9250   25.9687 C   0  0  0  0  0  0  0  0  0  0  0  0
   10.2426  -17.5944   28.2321 O   0  0  0  0  0  0  0  0  0  0  0  0
   10.4411  -16.2302   28.5006 O   0  0  0  0  0  0  0  0  0  0  0  0
  1  2  1  0
  2  3  2  0
  4  5  1  0
  4  2  1  0
  6  5  1  0
  7  6  1  0
  8 10  1  0
  8  7  1  0
  8  9  1  6
 10 11  2  0
 13 12  1  0
 13 14  1  0
 15 14  1  0
 16 15  1  6
 17 16  1  0
 17 10  1  0
 18 16  1  0
 18 19  2  0
 20 21  1  0
 21 22  2  0
 23 21  1  0
 23 24  1  0
 25 24  1  6
 25 26  1  0
 25 27  1  0
 26 18  1  0
 27 28  1  0
 29 27  2  0
M  END
$$$$
