RMQ.pdb
     RDKit          3D

 29 28  0  0  1  0  0  0  0  0999 V2000
    6.4753  -14.0091   16.4932 N   0  0  0  0  0  0  0  0  0  0  0  0
    7.7916  -13.8968   15.9270 C   0  0  0  0  0  0  0  0  0  0  0  0
    8.0368  -12.9898   15.0362 N   0  0  0  0  0  0  0  0  0  0  0  0
    8.8430  -14.7594   16.3235 N   0  0  0  0  0  0  0  0  0  0  0  0
    8.6304  -16.0653   16.8978 C   0  0  0  0  0  0  0  0  0  0  0  0
    7.9697  -15.9750   18.2545 C   0  0  0  0  0  0  0  0  0  0  0  0
    8.9371  -15.7637   19.3718 C   0  0  0  0  0  0  0  0  0  0  0  0
    8.6331  -16.6758   20.5158 C   0  0  2  0  0  0  0  0  0  0  0  0
    7.2309  -17.0426   20.5778 N   0  0  0  0  0  0  0  0  0  0  0  0
    9.0829  -16.0702   21.8124 C   0  0  0  0  0  0  0  0  0  0  0  0
   10.2935  -15.8336   21.9527 O   0  0  0  0  0  0  0  0  0  0  0  0
    8.9466  -12.8809   14.5788 C   0  0  0  0  0  0  0  0  0  0  0  0
    7.0869  -11.6506   28.0203 S   0  0  0  0  0  0  0  0  0  0  0  0
    6.6497  -12.4466   26.4277 C   0  0  0  0  0  0  0  0  0  0  0  0
    7.9595  -13.6328   25.9647 C   0  0  0  0  0  0  0  0  0  0  0  0
    7.6291  -14.2715   24.6656 C   0  0  1  0  0  0  0  0  0  0  0  0
    8.6732  -15.2285   24.1484 N   0  0  0  0  0  0  0  0  0  0  0  0
    8.1837  -15.7593   22.8783 C   0  0  0  0  0  0  0  0  0  0  0  0
    8.9978  -16.2953   25.1034 O   0  0  0  0  0  0  0  0  0  0  0  0
    8.0988  -17.1110   25.4165 N   0  0  0  0  0  0  0  0  0  0  0  0
   13.8600  -19.9872   24.9479 C   0  0  0  0  0  0  0  0  0  0  0  0
   12.7898  -19.5587   24.0860 O   0  0  0  0  0  0  0  0  0  0  0  0
   12.8779  -19.8876   22.9008 C   0  0  0  0  0  0  0  0  0  0  0  0
   11.7135  -18.7862   24.6641 C   0  0  0  0  0  0  0  0  0  0  0  0
   11.7283  -18.3864   26.0769 C   0  0  2  0  0  0  0  0  0  0  0  0
   10.5917  -17.5865   26.5994 N   0  0  0  0  0  0  0  0  0  0  0  0
   10.2702  -16.4706   25.7012 C   0  0  0  0  0  0  0  0  0  0  0  0
   10.7809  -17.0949   27.9511 O   0  0  0  0  0  0  0  0  0  0  0  0
   10.9253  -17.9765   29.0348 O   0  0  0  0  0  0  0  0  0  0  0  0
  1  2  1  0
  2  3  2  0
  4  5  1  0
  4  2  1  0
  6  5  1  0
  7  6  1  0
  8 10  1  0
  8  7  1  0
  8  9  1  1
 10 11  2  0
 13 12  1  0
 13 14  1  0
 15 14  1  0
 16 15  1  6
 17 16  1  0
 17 10  1  0
 18 16  1  0
 18 19  2  0
 20 21  1  0
 21 22  2  0
 23 21  1  0
 23 24  1  0
 25 24  1  6
 25 26  1  0
 25 27  1  0
 26 18  1  0
 27 28  1  0
 29 27  2  0
M  END
$$$$
