RMQ.pdb
     RDKit          3D

 29 28  0  0  1  0  0  0  0  0999 V2000
    7.5934  -15.1543   16.3067 N   0  0  0  0  0  0  0  0  0  0  0  0
    8.1374  -13.8841   15.9115 C   0  0  0  0  0  0  0  0  0  0  0  0
    8.6170  -13.7292   14.7189 N   0  0  0  0  0  0  0  0  0  0  0  0
    8.1611  -12.7811   16.8003 N   0  0  0  0  0  0  0  0  0  0  0  0
    7.6171  -12.8203   18.1355 C   0  0  0  0  0  0  0  0  0  0  0  0
    8.0831  -14.0447   18.8899 C   0  0  0  0  0  0  0  0  0  0  0  0
    7.5303  -14.1339   20.2738 C   0  0  0  0  0  0  0  0  0  0  0  0
    8.0076  -15.3748   20.9563 C   0  0  2  0  0  0  0  0  0  0  0  0
    6.9922  -16.4097   21.0035 N   0  0  0  0  0  0  0  0  0  0  0  0
    8.5144  -15.0627   22.3332 C   0  0  0  0  0  0  0  0  0  0  0  0
    9.6006  -14.4695   22.4306 O   0  0  0  0  0  0  0  0  0  0  0  0
    9.0457  -12.8581   14.3929 C   0  0  0  0  0  0  0  0  0  0  0  0
    6.4763  -12.2387   27.7506 S   0  0  0  0  0  0  0  0  0  0  0  0
    5.9119  -12.0026   26.0224 C   0  0  0  0  0  0  0  0  0  0  0  0
    6.9430  -13.0160   24.9057 C   0  0  0  0  0  0  0  0  0  0  0  0
    7.3087  -14.2918   25.5717 C   0  0  2  0  0  0  0  0  0  0  0  0
    8.3449  -15.1101   24.8436 N   0  0  0  0  0  0  0  0  0  0  0  0
    7.8045  -15.4170   23.5214 C   0  0  0  0  0  0  0  0  0  0  0  0
    8.7368  -16.3220   25.5740 O   0  0  0  0  0  0  0  0  0  0  0  0
    7.9230  -17.2738   25.6325 N   0  0  0  0  0  0  0  0  0  0  0  0
   13.7085  -19.4876   24.4732 C   0  0  0  0  0  0  0  0  0  0  0  0
   13.6687  -18.0668   24.7002 O   0  0  0  0  0  0  0  0  0  0  0  0
   14.6047  -17.4128   24.2349 C   0  0  0  0  0  0  0  0  0  0  0  0
   12.5557  -17.5243   25.4461 C   0  0  0  0  0  0  0  0  0  0  0  0
   11.4973  -18.3887   25.9833 C   0  0  1  0  0  0  0  0  0  0  0  0
   10.4232  -17.7700   26.8007 N   0  0  0  0  0  0  0  0  0  0  0  0
    9.9844  -16.4937   26.2230 C   0  0  0  0  0  0  0  0  0  0  0  0
   10.7681  -17.5880   28.1980 O   0  0  0  0  0  0  0  0  0  0  0  0
   10.6223  -16.3420   28.8295 O   0  0  0  0  0  0  0  0  0  0  0  0
  1  2  1  0
  2  3  2  0
  4  5  1  0
  4  2  1  0
  6  5  1  0
  7  6  1  0
  8 10  1  0
  8  7  1  0
  8  9  1  1
 10 11  2  0
 13 12  1  0
 13 14  1  0
 15 14  1  0
 16 15  1  6
 17 16  1  0
 17 10  1  0
 18 16  1  0
 18 19  2  0
 20 21  1  0
 21 22  2  0
 23 21  1  0
 23 24  1  0
 25 24  1  6
 25 26  1  0
 25 27  1  0
 26 18  1  0
 27 28  1  0
 29 27  2  0
M  END
$$$$
