RMQ.pdb
     RDKit          3D

 29 28  0  0  1  0  0  0  0  0999 V2000
    9.0396  -12.1569   15.0097 N   0  0  0  0  0  0  0  0  0  0  0  0
    8.8695  -13.5784   14.8836 C   0  0  0  0  0  0  0  0  0  0  0  0
    8.8803  -14.1293   13.7119 N   0  0  0  0  0  0  0  0  0  0  0  0
    8.6915  -14.4054   16.0199 N   0  0  0  0  0  0  0  0  0  0  0  0
    8.6136  -13.9018   17.3692 C   0  0  0  0  0  0  0  0  0  0  0  0
    8.5638  -15.0250   18.3797 C   0  0  0  0  0  0  0  0  0  0  0  0
    8.2836  -14.5591   19.7702 C   0  0  0  0  0  0  0  0  0  0  0  0
    8.1966  -15.7177   20.7101 C   0  0  2  0  0  0  0  0  0  0  0  0
    6.8503  -16.2473   20.8175 N   0  0  0  0  0  0  0  0  0  0  0  0
    8.7326  -15.3474   22.0613 C   0  0  0  0  0  0  0  0  0  0  0  0
    9.9501  -15.1266   22.1614 O   0  0  0  0  0  0  0  0  0  0  0  0
    8.6847  -15.1221   13.5544 C   0  0  0  0  0  0  0  0  0  0  0  0
    5.7598  -11.5984   25.7233 S   0  0  0  0  0  0  0  0  0  0  0  0
    7.0055  -11.9745   27.0149 C   0  0  0  0  0  0  0  0  0  0  0  0
    7.9567  -13.4550   26.5247 C   0  0  0  0  0  0  0  0  0  0  0  0
    7.5570  -13.8861   25.1611 C   0  0  1  0  0  0  0  0  0  0  0  0
    8.4751  -14.8984   24.5241 N   0  0  0  0  0  0  0  0  0  0  0  0
    7.9068  -15.2404   23.2223 C   0  0  0  0  0  0  0  0  0  0  0  0
    8.6900  -16.0855   25.3609 O   0  0  0  0  0  0  0  0  0  0  0  0
    7.8078  -16.9761   25.3727 N   0  0  0  0  0  0  0  0  0  0  0  0
   13.6313  -21.2673   26.1710 C   0  0  0  0  0  0  0  0  0  0  0  0
   13.1517  -19.9866   25.7216 O   0  0  0  0  0  0  0  0  0  0  0  0
   13.7943  -19.4497   24.8165 C   0  0  0  0  0  0  0  0  0  0  0  0
   11.9759  -19.4354   26.3565 C   0  0  0  0  0  0  0  0  0  0  0  0
   11.4174  -18.1409   25.9463 C   0  0  1  0  0  0  0  0  0  0  0  0
   10.2323  -17.6178   26.6719 N   0  0  0  0  0  0  0  0  0  0  0  0
    9.8379  -16.2983   26.1635 C   0  0  0  0  0  0  0  0  0  0  0  0
   10.3915  -17.5655   28.1129 O   0  0  0  0  0  0  0  0  0  0  0  0
   10.4221  -18.7370   28.8869 O   0  0  0  0  0  0  0  0  0  0  0  0
  1  2  1  0
  2  3  2  0
  4  5  1  0
  4  2  1  0
  6  5  1  0
  7  6  1  0
  8 10  1  0
  8  7  1  0
  8  9  1  1
 10 11  2  0
 13 12  1  0
 13 14  1  0
 15 14  1  0
 16 15  1  6
 17 16  1  0
 17 10  1  0
 18 16  1  0
 18 19  2  0
 20 21  1  0
 21 22  2  0
 23 21  1  0
 23 24  1  0
 25 24  1  6
 25 26  1  0
 25 27  1  0
 26 18  1  0
 27 28  1  0
 29 27  2  0
M  END
$$$$
