RMQ.pdb
     RDKit          3D

 29 28  0  0  1  0  0  0  0  0999 V2000
    7.1412  -13.1309   15.3640 N   0  0  0  0  0  0  0  0  0  0  0  0
    8.2292  -14.0130   15.6861 C   0  0  0  0  0  0  0  0  0  0  0  0
    8.3975  -15.1051   15.0114 N   0  0  0  0  0  0  0  0  0  0  0  0
    9.1369  -13.7159   16.7326 N   0  0  0  0  0  0  0  0  0  0  0  0
    8.7743  -13.7197   18.1285 C   0  0  0  0  0  0  0  0  0  0  0  0
    7.5474  -14.5657   18.3818 C   0  0  0  0  0  0  0  0  0  0  0  0
    7.1496  -14.6169   19.8199 C   0  0  0  0  0  0  0  0  0  0  0  0
    8.2090  -15.2795   20.6397 C   0  0  2  0  0  0  0  0  0  0  0  0
    7.9166  -16.6757   20.9037 N   0  0  0  0  0  0  0  0  0  0  0  0
    8.4359  -14.5315   21.9200 C   0  0  0  0  0  0  0  0  0  0  0  0
    7.9862  -13.3775   22.0047 O   0  0  0  0  0  0  0  0  0  0  0  0
    9.1820  -15.7457   15.1630 C   0  0  0  0  0  0  0  0  0  0  0  0
    7.6876  -11.6985   26.9289 S   0  0  0  0  0  0  0  0  0  0  0  0
    6.4699  -12.7031   25.9966 C   0  0  0  0  0  0  0  0  0  0  0  0
    6.9775  -14.4575   26.0348 C   0  0  0  0  0  0  0  0  0  0  0  0
    7.4264  -14.8849   24.6854 C   0  0  2  0  0  0  0  0  0  0  0  0
    8.8838  -14.6302   24.3944 N   0  0  0  0  0  0  0  0  0  0  0  0
    9.1403  -15.0886   23.0311 C   0  0  0  0  0  0  0  0  0  0  0  0
    9.7829  -15.2630   25.3674 O   0  0  0  0  0  0  0  0  0  0  0  0
    9.7132  -14.9046   26.5667 N   0  0  0  0  0  0  0  0  0  0  0  0
   10.8277  -15.8169   30.1552 C   0  0  0  0  0  0  0  0  0  0  0  0
   11.4375  -17.0957   29.9004 O   0  0  0  0  0  0  0  0  0  0  0  0
   11.8213  -17.7246   30.8891 C   0  0  0  0  0  0  0  0  0  0  0  0
   11.5547  -17.5364   28.5287 C   0  0  0  0  0  0  0  0  0  0  0  0
   11.0990  -16.6992   27.4118 C   0  0  1  0  0  0  0  0  0  0  0  0
   11.2808  -17.2038   26.0272 N   0  0  0  0  0  0  0  0  0  0  0  0
   10.7331  -16.2625   25.0427 C   0  0  0  0  0  0  0  0  0  0  0  0
   10.7370  -18.5293   25.8001 O   0  0  0  0  0  0  0  0  0  0  0  0
   11.4873  -19.6836   26.0786 O   0  0  0  0  0  0  0  0  0  0  0  0
  1  2  1  0
  2  3  2  0
  4  5  1  0
  4  2  1  0
  6  5  1  0
  7  6  1  0
  8 10  1  0
  8  7  1  0
  8  9  1  1
 10 11  2  0
 13 12  1  0
 13 14  1  0
 15 14  1  0
 16 15  1  6
 17 16  1  0
 17 10  1  0
 18 16  1  0
 18 19  2  0
 20 21  1  0
 21 22  2  0
 23 21  1  0
 23 24  1  0
 25 24  1  6
 25 26  1  0
 25 27  1  0
 26 18  1  0
 27 28  1  0
 29 27  2  0
M  END
$$$$
