RMQ.pdb
     RDKit          3D

 29 28  0  0  1  0  0  0  0  0999 V2000
    7.9187  -12.9070   14.3852 N   0  0  0  0  0  0  0  0  0  0  0  0
    8.1655  -13.7808   15.4993 C   0  0  0  0  0  0  0  0  0  0  0  0
    8.3281  -15.0499   15.3017 N   0  0  0  0  0  0  0  0  0  0  0  0
    8.2401  -13.2859   16.8247 N   0  0  0  0  0  0  0  0  0  0  0  0
    8.3985  -14.1295   17.9837 C   0  0  0  0  0  0  0  0  0  0  0  0
    7.2072  -14.0319   18.9093 C   0  0  0  0  0  0  0  0  0  0  0  0
    7.5564  -13.5391   20.2746 C   0  0  0  0  0  0  0  0  0  0  0  0
    8.5203  -14.4657   20.9422 C   0  0  2  0  0  0  0  0  0  0  0  0
    8.3264  -15.8485   20.5486 N   0  0  0  0  0  0  0  0  0  0  0  0
    8.4499  -14.3216   22.4336 C   0  0  0  0  0  0  0  0  0  0  0  0
    8.4976  -13.1754   22.9082 O   0  0  0  0  0  0  0  0  0  0  0  0
    8.5056  -15.7193   16.0562 C   0  0  0  0  0  0  0  0  0  0  0  0
    6.9644  -11.7366   27.7670 S   0  0  0  0  0  0  0  0  0  0  0  0
    6.5969  -11.7309   25.9709 C   0  0  0  0  0  0  0  0  0  0  0  0
    7.7879  -12.8132   25.1064 C   0  0  0  0  0  0  0  0  0  0  0  0
    7.2758  -14.2066   25.0738 C   0  0  2  0  0  0  0  0  0  0  0  0
    8.3153  -15.2547   24.7669 N   0  0  0  0  0  0  0  0  0  0  0  0
    8.3317  -15.4378   23.3175 C   0  0  0  0  0  0  0  0  0  0  0  0
    8.0855  -16.5176   25.4797 O   0  0  0  0  0  0  0  0  0  0  0  0
    7.0852  -17.2060   25.1683 N   0  0  0  0  0  0  0  0  0  0  0  0
   11.9795  -18.3502   22.6000 C   0  0  0  0  0  0  0  0  0  0  0  0
   12.1732  -19.3937   23.5725 O   0  0  0  0  0  0  0  0  0  0  0  0
   12.9710  -20.2831   23.2677 C   0  0  0  0  0  0  0  0  0  0  0  0
   11.4285  -19.3227   24.8093 C   0  0  0  0  0  0  0  0  0  0  0  0
   10.5181  -18.2066   25.0944 C   0  0  1  0  0  0  0  0  0  0  0  0
    9.7392  -18.2319   26.3583 N   0  0  0  0  0  0  0  0  0  0  0  0
    8.9251  -17.0190   26.5048 C   0  0  0  0  0  0  0  0  0  0  0  0
   10.5425  -18.4353   27.5490 O   0  0  0  0  0  0  0  0  0  0  0  0
   11.0595  -17.3498   28.2750 O   0  0  0  0  0  0  0  0  0  0  0  0
  1  2  1  0
  2  3  2  0
  4  5  1  0
  4  2  1  0
  6  5  1  0
  7  6  1  0
  8 10  1  0
  8  7  1  0
  8  9  1  1
 10 11  2  0
 13 12  1  0
 13 14  1  0
 15 14  1  0
 16 15  1  6
 17 16  1  0
 17 10  1  0
 18 16  1  0
 18 19  2  0
 20 21  1  0
 21 22  2  0
 23 21  1  0
 23 24  1  0
 25 24  1  6
 25 26  1  0
 25 27  1  0
 26 18  1  0
 27 28  1  0
 29 27  2  0
M  END
$$$$
