RMQ.pdb
     RDKit          3D

 29 28  0  0  1  0  0  0  0  0999 V2000
    6.5941  -13.5827   18.6093 N   0  0  0  0  0  0  0  0  0  0  0  0
    7.1076  -14.0883   17.3658 C   0  0  0  0  0  0  0  0  0  0  0  0
    6.3911  -14.8960   16.6513 N   0  0  0  0  0  0  0  0  0  0  0  0
    8.3909  -13.7207   16.8917 N   0  0  0  0  0  0  0  0  0  0  0  0
    9.5181  -13.4667   17.7550 C   0  0  0  0  0  0  0  0  0  0  0  0
   10.0750  -14.7476   18.3333 C   0  0  0  0  0  0  0  0  0  0  0  0
   10.5561  -14.6030   19.7392 C   0  0  0  0  0  0  0  0  0  0  0  0
    9.9487  -15.6483   20.6176 C   0  0  2  0  0  0  0  0  0  0  0  0
    8.5897  -15.9784   20.2319 N   0  0  0  0  0  0  0  0  0  0  0  0
   10.0076  -15.2325   22.0576 C   0  0  0  0  0  0  0  0  0  0  0  0
   11.1064  -14.8789   22.5145 O   0  0  0  0  0  0  0  0  0  0  0  0
    6.6491  -15.1910   15.7052 C   0  0  0  0  0  0  0  0  0  0  0  0
    6.8053  -11.1642   27.5783 S   0  0  0  0  0  0  0  0  0  0  0  0
    6.8314  -11.8950   25.8971 C   0  0  0  0  0  0  0  0  0  0  0  0
    7.4505  -13.6109   25.9932 C   0  0  0  0  0  0  0  0  0  0  0  0
    7.5649  -14.1858   24.6289 C   0  0  1  0  0  0  0  0  0  0  0  0
    8.9378  -14.6967   24.2716 N   0  0  0  0  0  0  0  0  0  0  0  0
    8.8628  -15.2275   22.9125 C   0  0  0  0  0  0  0  0  0  0  0  0
    9.4466  -15.6909   25.2246 O   0  0  0  0  0  0  0  0  0  0  0  0
    8.8243  -16.7719   25.3498 N   0  0  0  0  0  0  0  0  0  0  0  0
   11.5024  -17.6660   31.4099 C   0  0  0  0  0  0  0  0  0  0  0  0
   10.3934  -17.3907   30.5345 O   0  0  0  0  0  0  0  0  0  0  0  0
    9.3735  -18.0589   30.7182 C   0  0  0  0  0  0  0  0  0  0  0  0
   10.5577  -16.3721   29.5222 C   0  0  0  0  0  0  0  0  0  0  0  0
   10.0700  -16.5667   28.1510 C   0  0  2  0  0  0  0  0  0  0  0  0
   11.0436  -16.4810   27.0332 N   0  0  0  0  0  0  0  0  0  0  0  0
   10.6053  -15.5130   26.0202 C   0  0  0  0  0  0  0  0  0  0  0  0
   11.3423  -17.7539   26.4047 O   0  0  0  0  0  0  0  0  0  0  0  0
   10.8409  -18.0753   25.1327 O   0  0  0  0  0  0  0  0  0  0  0  0
  1  2  1  0
  2  3  2  0
  4  5  1  0
  4  2  1  0
  6  5  1  0
  7  6  1  0
  8 10  1  0
  8  7  1  0
  8  9  1  6
 10 11  2  0
 13 12  1  0
 13 14  1  0
 15 14  1  0
 16 15  1  6
 17 16  1  0
 17 10  1  0
 18 16  1  0
 18 19  2  0
 20 21  1  0
 21 22  2  0
 23 21  1  0
 23 24  1  0
 25 24  1  1
 25 26  1  0
 25 27  1  0
 26 18  1  0
 27 28  1  0
 29 27  2  0
M  END
$$$$
