RMQ.pdb
     RDKit          3D

 29 28  0  0  1  0  0  0  0  0999 V2000
    9.1858  -15.5143   15.5751 N   0  0  0  0  0  0  0  0  0  0  0  0
    8.1872  -14.6828   14.9609 C   0  0  0  0  0  0  0  0  0  0  0  0
    7.7275  -14.9836   13.7885 N   0  0  0  0  0  0  0  0  0  0  0  0
    7.6825  -13.5302   15.6118 N   0  0  0  0  0  0  0  0  0  0  0  0
    8.1486  -13.0710   16.8971 C   0  0  0  0  0  0  0  0  0  0  0  0
    7.5858  -13.9074   18.0237 C   0  0  0  0  0  0  0  0  0  0  0  0
    8.0857  -13.5007   19.3704 C   0  0  0  0  0  0  0  0  0  0  0  0
    8.8108  -14.6289   20.0296 C   0  0  2  0  0  0  0  0  0  0  0  0
    8.1170  -15.8950   19.8877 N   0  0  0  0  0  0  0  0  0  0  0  0
    9.0693  -14.3223   21.4750 C   0  0  0  0  0  0  0  0  0  0  0  0
    9.7283  -13.3049   21.7430 O   0  0  0  0  0  0  0  0  0  0  0  0
    7.0475  -14.4067   13.2850 C   0  0  0  0  0  0  0  0  0  0  0  0
    6.6502  -11.9776   28.0496 S   0  0  0  0  0  0  0  0  0  0  0  0
    6.3538  -12.7918   26.4339 C   0  0  0  0  0  0  0  0  0  0  0  0
    7.8795  -13.6397   25.8951 C   0  0  0  0  0  0  0  0  0  0  0  0
    7.6712  -14.2599   24.5620 C   0  0  2  0  0  0  0  0  0  0  0  0
    8.9136  -14.8383   23.9332 N   0  0  0  0  0  0  0  0  0  0  0  0
    8.5925  -15.1450   22.5413 C   0  0  0  0  0  0  0  0  0  0  0  0
    9.4284  -16.0106   24.6516 O   0  0  0  0  0  0  0  0  0  0  0  0
    8.8436  -17.1090   24.4995 N   0  0  0  0  0  0  0  0  0  0  0  0
   11.9996  -15.2441   30.6017 C   0  0  0  0  0  0  0  0  0  0  0  0
   10.8184  -14.9784   29.8231 O   0  0  0  0  0  0  0  0  0  0  0  0
    9.8539  -14.5138   30.4350 C   0  0  0  0  0  0  0  0  0  0  0  0
   10.8507  -15.2742   28.4086 C   0  0  0  0  0  0  0  0  0  0  0  0
   10.3204  -16.5355   27.8757 C   0  0  2  0  0  0  0  0  0  0  0  0
   10.7960  -17.0000   26.5480 N   0  0  0  0  0  0  0  0  0  0  0  0
   10.5531  -15.9878   25.5129 C   0  0  0  0  0  0  0  0  0  0  0  0
   10.2456  -18.2759   26.1312 O   0  0  0  0  0  0  0  0  0  0  0  0
   11.0722  -19.3071   25.6560 O   0  0  0  0  0  0  0  0  0  0  0  0
  1  2  1  0
  2  3  2  0
  4  5  1  0
  4  2  1  0
  6  5  1  0
  7  6  1  0
  8 10  1  0
  8  7  1  0
  8  9  1  1
 10 11  2  0
 13 12  1  0
 13 14  1  0
 15 14  1  0
 16 15  1  6
 17 16  1  0
 17 10  1  0
 18 16  1  0
 18 19  2  0
 20 21  1  0
 21 22  2  0
 23 21  1  0
 23 24  1  0
 25 24  1  1
 25 26  1  0
 25 27  1  0
 26 18  1  0
 27 28  1  0
 29 27  2  0
M  END
$$$$
