RMQ.pdb
     RDKit          3D

 29 28  0  0  1  0  0  0  0  0999 V2000
    8.3699  -13.4158   15.4296 N   0  0  0  0  0  0  0  0  0  0  0  0
    8.0911  -13.7029   16.8100 C   0  0  0  0  0  0  0  0  0  0  0  0
    8.6163  -12.9722   17.7410 N   0  0  0  0  0  0  0  0  0  0  0  0
    7.2443  -14.7746   17.1860 N   0  0  0  0  0  0  0  0  0  0  0  0
    7.6583  -16.1562   17.1875 C   0  0  0  0  0  0  0  0  0  0  0  0
    7.6519  -16.7368   18.5832 C   0  0  0  0  0  0  0  0  0  0  0  0
    8.6834  -16.1358   19.4797 C   0  0  0  0  0  0  0  0  0  0  0  0
    8.6906  -16.8161   20.8103 C   0  0  2  0  0  0  0  0  0  0  0  0
    7.4230  -17.4513   21.1175 N   0  0  0  0  0  0  0  0  0  0  0  0
    9.0827  -15.8575   21.8953 C   0  0  0  0  0  0  0  0  0  0  0  0
   10.2145  -15.3504   21.8398 O   0  0  0  0  0  0  0  0  0  0  0  0
    8.5391  -13.1898   18.7387 C   0  0  0  0  0  0  0  0  0  0  0  0
    5.6886  -12.5269   27.9541 S   0  0  0  0  0  0  0  0  0  0  0  0
    6.1584  -12.1709   26.2181 C   0  0  0  0  0  0  0  0  0  0  0  0
    7.6688  -13.1077   25.7960 C   0  0  0  0  0  0  0  0  0  0  0  0
    7.4655  -13.8530   24.5279 C   0  0  1  0  0  0  0  0  0  0  0  0
    8.6659  -14.6324   24.0537 N   0  0  0  0  0  0  0  0  0  0  0  0
    8.2152  -15.5099   22.9761 C   0  0  0  0  0  0  0  0  0  0  0  0
    9.3288  -15.3778   25.1310 O   0  0  0  0  0  0  0  0  0  0  0  0
    8.6155  -15.9788   25.9686 N   0  0  0  0  0  0  0  0  0  0  0  0
    8.9002  -19.0239   29.0114 C   0  0  0  0  0  0  0  0  0  0  0  0
    9.9783  -18.1580   29.4115 O   0  0  0  0  0  0  0  0  0  0  0  0
   10.0523  -17.8981   30.6146 C   0  0  0  0  0  0  0  0  0  0  0  0
   10.8745  -17.6650   28.3902 C   0  0  0  0  0  0  0  0  0  0  0  0
   10.4058  -16.7711   27.3238 C   0  0  1  0  0  0  0  0  0  0  0  0
   11.3770  -16.3287   26.2914 N   0  0  0  0  0  0  0  0  0  0  0  0
   10.7336  -15.4680   25.2911 C   0  0  0  0  0  0  0  0  0  0  0  0
   12.0807  -17.4126   25.6322 O   0  0  0  0  0  0  0  0  0  0  0  0
   11.9563  -17.6298   24.2502 O   0  0  0  0  0  0  0  0  0  0  0  0
  1  2  1  0
  2  3  2  0
  4  5  1  0
  4  2  1  0
  6  5  1  0
  7  6  1  0
  8 10  1  0
  8  7  1  0
  8  9  1  1
 10 11  2  0
 13 12  1  0
 13 14  1  0
 15 14  1  0
 16 15  1  6
 17 16  1  0
 17 10  1  0
 18 16  1  0
 18 19  2  0
 20 21  1  0
 21 22  2  0
 23 21  1  0
 23 24  1  0
 25 24  1  1
 25 26  1  0
 25 27  1  0
 26 18  1  0
 27 28  1  0
 29 27  2  0
M  END
$$$$
