RMQ.pdb
     RDKit          3D

 29 28  0  0  1  0  0  0  0  0999 V2000
    5.0849  -20.1984   18.5096 N   0  0  0  0  0  0  0  0  0  0  0  0
    5.6729  -20.0750   17.2040 C   0  0  0  0  0  0  0  0  0  0  0  0
    5.2398  -20.8075   16.2281 N   0  0  0  0  0  0  0  0  0  0  0  0
    6.7244  -19.1602   16.9502 N   0  0  0  0  0  0  0  0  0  0  0  0
    7.5597  -18.5979   17.9828 C   0  0  0  0  0  0  0  0  0  0  0  0
    6.7366  -17.9391   19.0662 C   0  0  0  0  0  0  0  0  0  0  0  0
    7.5616  -17.3585   20.1667 C   0  0  0  0  0  0  0  0  0  0  0  0
    7.4205  -15.8713   20.2070 C   0  0  2  0  0  0  0  0  0  0  0  0
    7.9717  -15.2278   19.0294 N   0  0  0  0  0  0  0  0  0  0  0  0
    8.0352  -15.3127   21.4560 C   0  0  0  0  0  0  0  0  0  0  0  0
    9.2739  -15.3027   21.5381 O   0  0  0  0  0  0  0  0  0  0  0  0
    5.6105  -20.7526   15.2750 C   0  0  0  0  0  0  0  0  0  0  0  0
    6.9611  -10.8224   27.8881 S   0  0  0  0  0  0  0  0  0  0  0  0
    6.2862  -11.5724   26.3574 C   0  0  0  0  0  0  0  0  0  0  0  0
    7.4639  -12.8166   25.7234 C   0  0  0  0  0  0  0  0  0  0  0  0
    6.9704  -13.3734   24.4383 C   0  0  2  0  0  0  0  0  0  0  0  0
    7.8948  -14.3695   23.7850 N   0  0  0  0  0  0  0  0  0  0  0  0
    7.2604  -14.7983   22.5407 C   0  0  0  0  0  0  0  0  0  0  0  0
    8.2238  -15.5048   24.6559 O   0  0  0  0  0  0  0  0  0  0  0  0
    7.3434  -16.3723   24.8651 N   0  0  0  0  0  0  0  0  0  0  0  0
   13.4863  -18.7241   24.2317 C   0  0  0  0  0  0  0  0  0  0  0  0
   12.8823  -19.3230   25.3930 O   0  0  0  0  0  0  0  0  0  0  0  0
   13.4569  -20.3087   25.8606 C   0  0  0  0  0  0  0  0  0  0  0  0
   11.6677  -18.7358   25.9118 C   0  0  0  0  0  0  0  0  0  0  0  0
   11.0893  -17.5216   25.3226 C   0  0  1  0  0  0  0  0  0  0  0  0
    9.8729  -16.9411   25.9455 N   0  0  0  0  0  0  0  0  0  0  0  0
    9.4810  -15.6916   25.2819 C   0  0  0  0  0  0  0  0  0  0  0  0
    9.9801  -16.7287   27.3766 O   0  0  0  0  0  0  0  0  0  0  0  0
    9.7368  -17.7683   28.2890 O   0  0  0  0  0  0  0  0  0  0  0  0
  1  2  1  0
  2  3  2  0
  4  5  1  0
  4  2  1  0
  6  5  1  0
  7  6  1  0
  8 10  1  0
  8  7  1  0
  8  9  1  6
 10 11  2  0
 13 12  1  0
 13 14  1  0
 15 14  1  0
 16 15  1  6
 17 16  1  0
 17 10  1  0
 18 16  1  0
 18 19  2  0
 20 21  1  0
 21 22  2  0
 23 21  1  0
 23 24  1  0
 25 24  1  6
 25 26  1  0
 25 27  1  0
 26 18  1  0
 27 28  1  0
 29 27  2  0
M  END
$$$$
