RMQ.pdb
     RDKit          3D

 29 28  0  0  1  0  0  0  0  0999 V2000
    6.8145  -14.4639   15.5930 N   0  0  0  0  0  0  0  0  0  0  0  0
    7.5818  -14.0778   16.7452 C   0  0  0  0  0  0  0  0  0  0  0  0
    7.8533  -12.8289   16.9523 N   0  0  0  0  0  0  0  0  0  0  0  0
    8.0531  -15.0372   17.6750 N   0  0  0  0  0  0  0  0  0  0  0  0
    7.6250  -16.4144   17.6870 C   0  0  0  0  0  0  0  0  0  0  0  0
    6.8519  -16.7453   18.9432 C   0  0  0  0  0  0  0  0  0  0  0  0
    7.5594  -16.3476   20.1963 C   0  0  0  0  0  0  0  0  0  0  0  0
    6.6954  -16.5877   21.3918 C   0  0  2  0  0  0  0  0  0  0  0  0
    5.2823  -16.5985   21.0641 N   0  0  0  0  0  0  0  0  0  0  0  0
    6.9850  -15.5829   22.4673 C   0  0  0  0  0  0  0  0  0  0  0  0
    7.0196  -14.3841   22.1466 O   0  0  0  0  0  0  0  0  0  0  0  0
    8.4264  -12.4991   17.7343 C   0  0  0  0  0  0  0  0  0  0  0  0
    6.0367  -12.1739   26.6563 S   0  0  0  0  0  0  0  0  0  0  0  0
    7.8245  -12.2973   27.0433 C   0  0  0  0  0  0  0  0  0  0  0  0
    8.3680  -14.0300   26.8451 C   0  0  0  0  0  0  0  0  0  0  0  0
    7.4960  -14.7260   25.8651 C   0  0  1  0  0  0  0  0  0  0  0  0
    8.2081  -15.2410   24.6400 N   0  0  0  0  0  0  0  0  0  0  0  0
    7.2195  -15.9474   23.8287 C   0  0  0  0  0  0  0  0  0  0  0  0
    9.3643  -16.0872   24.9608 O   0  0  0  0  0  0  0  0  0  0  0  0
    9.2078  -17.0304   25.7717 N   0  0  0  0  0  0  0  0  0  0  0  0
   15.5855  -15.9833   22.5784 C   0  0  0  0  0  0  0  0  0  0  0  0
   15.5835  -16.4119   23.9526 O   0  0  0  0  0  0  0  0  0  0  0  0
   16.6679  -16.3732   24.5383 C   0  0  0  0  0  0  0  0  0  0  0  0
   14.3333  -16.8505   24.5304 C   0  0  0  0  0  0  0  0  0  0  0  0
   13.0501  -16.2697   24.1154 C   0  0  1  0  0  0  0  0  0  0  0  0
   11.8091  -16.7465   24.7766 N   0  0  0  0  0  0  0  0  0  0  0  0
   10.6581  -15.9116   24.4110 C   0  0  0  0  0  0  0  0  0  0  0  0
   11.9058  -16.8509   26.2203 O   0  0  0  0  0  0  0  0  0  0  0  0
   12.3252  -18.0397   26.8396 O   0  0  0  0  0  0  0  0  0  0  0  0
  1  2  1  0
  2  3  2  0
  4  5  1  0
  4  2  1  0
  6  5  1  0
  7  6  1  0
  8 10  1  0
  8  7  1  0
  8  9  1  6
 10 11  2  0
 13 12  1  0
 13 14  1  0
 15 14  1  0
 16 15  1  6
 17 16  1  0
 17 10  1  0
 18 16  1  0
 18 19  2  0
 20 21  1  0
 21 22  2  0
 23 21  1  0
 23 24  1  0
 25 24  1  6
 25 26  1  0
 25 27  1  0
 26 18  1  0
 27 28  1  0
 29 27  2  0
M  END
$$$$
