RMQ.pdb
     RDKit          3D

 29 28  0  0  1  0  0  0  0  0999 V2000
    7.9666  -12.6189   16.6641 N   0  0  0  0  0  0  0  0  0  0  0  0
    8.2093  -14.0352   16.6390 C   0  0  0  0  0  0  0  0  0  0  0  0
    9.2834  -14.4973   16.0831 N   0  0  0  0  0  0  0  0  0  0  0  0
    7.2963  -14.9521   17.2159 N   0  0  0  0  0  0  0  0  0  0  0  0
    7.5166  -16.3767   17.2601 C   0  0  0  0  0  0  0  0  0  0  0  0
    7.8625  -16.8426   18.6560 C   0  0  0  0  0  0  0  0  0  0  0  0
    8.6170  -15.8277   19.4494 C   0  0  0  0  0  0  0  0  0  0  0  0
    8.9872  -16.3719   20.7911 C   0  0  2  0  0  0  0  0  0  0  0  0
    8.0946  -17.4285   21.2287 N   0  0  0  0  0  0  0  0  0  0  0  0
    9.0524  -15.2736   21.8107 C   0  0  0  0  0  0  0  0  0  0  0  0
    8.5201  -14.1881   21.5284 O   0  0  0  0  0  0  0  0  0  0  0  0
    9.4697  -15.4970   15.9620 C   0  0  0  0  0  0  0  0  0  0  0  0
    6.6823  -11.6526   26.9359 S   0  0  0  0  0  0  0  0  0  0  0  0
    7.4125  -12.4532   25.4571 C   0  0  0  0  0  0  0  0  0  0  0  0
    7.1054  -14.2524   25.5298 C   0  0  0  0  0  0  0  0  0  0  0  0
    7.7492  -14.9239   24.3724 C   0  0  1  0  0  0  0  0  0  0  0  0
    9.2339  -14.6897   24.2519 N   0  0  0  0  0  0  0  0  0  0  0  0
    9.6951  -15.4263   23.0775 C   0  0  0  0  0  0  0  0  0  0  0  0
    9.9745  -15.0634   25.4632 O   0  0  0  0  0  0  0  0  0  0  0  0
    9.7666  -14.4137   26.5150 N   0  0  0  0  0  0  0  0  0  0  0  0
   10.0619  -13.8742   29.9627 C   0  0  0  0  0  0  0  0  0  0  0  0
   10.6667  -15.1799   29.9982 O   0  0  0  0  0  0  0  0  0  0  0  0
   10.6930  -15.7399   31.0965 C   0  0  0  0  0  0  0  0  0  0  0  0
   11.1910  -15.7246   28.7663 C   0  0  0  0  0  0  0  0  0  0  0  0
   10.3547  -16.5260   27.8639 C   0  0  2  0  0  0  0  0  0  0  0  0
   10.9714  -17.0837   26.6337 N   0  0  0  0  0  0  0  0  0  0  0  0
   10.9166  -16.1195   25.5280 C   0  0  0  0  0  0  0  0  0  0  0  0
   10.4129  -18.3539   26.2106 O   0  0  0  0  0  0  0  0  0  0  0  0
   10.9174  -19.5712   26.6966 O   0  0  0  0  0  0  0  0  0  0  0  0
  1  2  1  0
  2  3  2  0
  4  5  1  0
  4  2  1  0
  6  5  1  0
  7  6  1  0
  8 10  1  0
  8  7  1  0
  8  9  1  1
 10 11  2  0
 13 12  1  0
 13 14  1  0
 15 14  1  0
 16 15  1  6
 17 16  1  0
 17 10  1  0
 18 16  1  0
 18 19  2  0
 20 21  1  0
 21 22  2  0
 23 21  1  0
 23 24  1  0
 25 24  1  1
 25 26  1  0
 25 27  1  0
 26 18  1  0
 27 28  1  0
 29 27  2  0
M  END
$$$$
