RMQ.pdb
     RDKit          3D

 29 28  0  0  1  0  0  0  0  0999 V2000
    9.6965  -14.0911   16.6558 N   0  0  0  0  0  0  0  0  0  0  0  0
    8.2917  -13.8394   16.4861 C   0  0  0  0  0  0  0  0  0  0  0  0
    7.7440  -13.9900   15.3226 N   0  0  0  0  0  0  0  0  0  0  0  0
    7.4778  -13.4290   17.5705 N   0  0  0  0  0  0  0  0  0  0  0  0
    7.9974  -13.0699   18.8671 C   0  0  0  0  0  0  0  0  0  0  0  0
    7.7891  -14.1768   19.8754 C   0  0  0  0  0  0  0  0  0  0  0  0
    8.6838  -15.3521   19.6582 C   0  0  0  0  0  0  0  0  0  0  0  0
    8.4665  -16.3862   20.7150 C   0  0  2  0  0  0  0  0  0  0  0  0
    7.1185  -16.9222   20.7003 N   0  0  0  0  0  0  0  0  0  0  0  0
    8.8083  -15.8414   22.0701 C   0  0  0  0  0  0  0  0  0  0  0  0
    9.9757  -15.4680   22.2673 O   0  0  0  0  0  0  0  0  0  0  0  0
    6.7427  -13.8614   15.1504 C   0  0  0  0  0  0  0  0  0  0  0  0
    7.1345  -11.6529   28.2082 S   0  0  0  0  0  0  0  0  0  0  0  0
    6.8902  -12.2371   26.4876 C   0  0  0  0  0  0  0  0  0  0  0  0
    7.2026  -14.0352   26.4094 C   0  0  0  0  0  0  0  0  0  0  0  0
    7.0346  -14.5189   25.0156 C   0  0  1  0  0  0  0  0  0  0  0  0
    8.2377  -15.2239   24.4422 N   0  0  0  0  0  0  0  0  0  0  0  0
    7.8547  -15.7369   23.1289 C   0  0  0  0  0  0  0  0  0  0  0  0
    8.7547  -16.2826   25.3183 O   0  0  0  0  0  0  0  0  0  0  0  0
    7.9863  -17.2187   25.6421 N   0  0  0  0  0  0  0  0  0  0  0  0
   13.6849  -19.1543   23.0890 C   0  0  0  0  0  0  0  0  0  0  0  0
   13.5525  -18.5863   24.4051 O   0  0  0  0  0  0  0  0  0  0  0  0
   14.5906  -18.4837   25.0626 C   0  0  0  0  0  0  0  0  0  0  0  0
   12.2356  -18.1895   24.8495 C   0  0  0  0  0  0  0  0  0  0  0  0
   11.9843  -17.7806   26.2371 C   0  0  2  0  0  0  0  0  0  0  0  0
   10.5963  -17.4330   26.6338 N   0  0  0  0  0  0  0  0  0  0  0  0
   10.0761  -16.3217   25.8278 C   0  0  0  0  0  0  0  0  0  0  0  0
   10.4364  -17.1378   28.0451 O   0  0  0  0  0  0  0  0  0  0  0  0
   10.4453  -18.1585   29.0098 O   0  0  0  0  0  0  0  0  0  0  0  0
  1  2  1  0
  2  3  2  0
  4  5  1  0
  4  2  1  0
  6  5  1  0
  7  6  1  0
  8 10  1  0
  8  7  1  0
  8  9  1  1
 10 11  2  0
 13 12  1  0
 13 14  1  0
 15 14  1  0
 16 15  1  6
 17 16  1  0
 17 10  1  0
 18 16  1  0
 18 19  2  0
 20 21  1  0
 21 22  2  0
 23 21  1  0
 23 24  1  0
 25 24  1  6
 25 26  1  0
 25 27  1  0
 26 18  1  0
 27 28  1  0
 29 27  2  0
M  END
$$$$
