RMQ.pdb
     RDKit          3D

 29 28  0  0  1  0  0  0  0  0999 V2000
    7.0903  -16.2286   15.1380 N   0  0  0  0  0  0  0  0  0  0  0  0
    7.8022  -15.0104   14.8645 C   0  0  0  0  0  0  0  0  0  0  0  0
    8.0362  -14.6594   13.6405 N   0  0  0  0  0  0  0  0  0  0  0  0
    8.2583  -14.1700   15.9098 N   0  0  0  0  0  0  0  0  0  0  0  0
    8.8545  -14.6625   17.1273 C   0  0  0  0  0  0  0  0  0  0  0  0
    7.8048  -15.0298   18.1512 C   0  0  0  0  0  0  0  0  0  0  0  0
    8.2926  -14.9376   19.5592 C   0  0  0  0  0  0  0  0  0  0  0  0
    7.7481  -13.7184   20.2302 C   0  0  2  0  0  0  0  0  0  0  0  0
    8.1933  -12.4902   19.5992 N   0  0  0  0  0  0  0  0  0  0  0  0
    8.0871  -13.7196   21.6914 C   0  0  0  0  0  0  0  0  0  0  0  0
    8.4696  -12.6530   22.1987 O   0  0  0  0  0  0  0  0  0  0  0  0
    8.5557  -13.8142   13.3863 C   0  0  0  0  0  0  0  0  0  0  0  0
    6.4300  -12.0910   27.7450 S   0  0  0  0  0  0  0  0  0  0  0  0
    6.3863  -11.6716   25.9608 C   0  0  0  0  0  0  0  0  0  0  0  0
    7.6979  -12.5977   25.0895 C   0  0  0  0  0  0  0  0  0  0  0  0
    7.1294  -13.8232   24.4733 C   0  0  2  0  0  0  0  0  0  0  0  0
    8.1522  -14.8054   23.9607 N   0  0  0  0  0  0  0  0  0  0  0  0
    7.9880  -14.8855   22.5112 C   0  0  0  0  0  0  0  0  0  0  0  0
    8.0539  -16.1233   24.6005 O   0  0  0  0  0  0  0  0  0  0  0  0
    7.1241  -16.8887   24.2523 N   0  0  0  0  0  0  0  0  0  0  0  0
   12.2762  -17.0464   21.7111 C   0  0  0  0  0  0  0  0  0  0  0  0
   12.5907  -18.1511   22.5788 O   0  0  0  0  0  0  0  0  0  0  0  0
   13.5389  -18.8615   22.2368 C   0  0  0  0  0  0  0  0  0  0  0  0
   11.7835  -18.3425   23.7624 C   0  0  0  0  0  0  0  0  0  0  0  0
   10.7118  -17.4050   24.1207 C   0  0  1  0  0  0  0  0  0  0  0  0
    9.9261  -17.6637   25.3538 N   0  0  0  0  0  0  0  0  0  0  0  0
    8.9469  -16.5964   25.5934 C   0  0  0  0  0  0  0  0  0  0  0  0
   10.7328  -17.8707   26.5416 O   0  0  0  0  0  0  0  0  0  0  0  0
   11.3801  -19.0941   26.7802 O   0  0  0  0  0  0  0  0  0  0  0  0
  1  2  1  0
  2  3  2  0
  4  5  1  0
  4  2  1  0
  6  5  1  0
  7  6  1  0
  8 10  1  0
  8  7  1  0
  8  9  1  6
 10 11  2  0
 13 12  1  0
 13 14  1  0
 15 14  1  0
 16 15  1  6
 17 16  1  0
 17 10  1  0
 18 16  1  0
 18 19  2  0
 20 21  1  0
 21 22  2  0
 23 21  1  0
 23 24  1  0
 25 24  1  6
 25 26  1  0
 25 27  1  0
 26 18  1  0
 27 28  1  0
 29 27  2  0
M  END
$$$$
