MYE.pdb
     RDKit          3D

 30 30  0  0  1  0  0  0  0  0999 V2000
    7.0040  -11.9703   18.6390 C   0  0  0  0  0  0  0  0  0  0  0  0
    8.2444  -13.0966   19.2746 S   0  0  0  0  0  0  0  0  0  0  0  0
    8.4997  -14.5334   18.1998 C   0  0  0  0  0  0  0  0  0  0  0  0
    9.6013  -15.4283   18.7228 C   0  0  0  0  0  0  0  0  0  0  0  0
    9.0868  -16.4410   19.7202 C   0  0  2  0  0  0  0  0  0  0  0  0
    7.6631  -16.6921   19.5340 N   0  0  0  0  0  0  0  0  0  0  0  0
    9.3112  -16.0182   21.1268 C   0  0  0  0  0  0  0  0  0  0  0  0
   10.4670  -15.6666   21.5270 O   0  0  0  0  0  0  0  0  0  0  0  0
    7.2866  -12.7003   29.1789 O   0  0  0  0  0  0  0  0  0  0  0  0
    7.2412  -13.3003   27.9119 C   0  0  0  0  0  0  0  0  0  0  0  0
    7.3437  -14.6547   27.7593 C   0  0  0  0  0  0  0  0  0  0  0  0
    7.2966  -15.2361   26.4914 C   0  0  0  0  0  0  0  0  0  0  0  0
    7.1466  -14.4754   25.3585 C   0  0  0  0  0  0  0  0  0  0  0  0
    7.0939  -15.0671   24.0329 C   0  0  0  0  0  0  0  0  0  0  0  0
    8.4104  -15.4361   23.4258 C   0  0  2  0  0  0  0  0  0  0  0  0
    8.2658  -15.9827   22.0893 N   0  0  0  0  0  0  0  0  0  0  0  0
    9.2934  -16.2598   24.2403 C   0  0  0  0  0  0  0  0  0  0  0  0
    9.0075  -17.5007   24.3735 O   0  0  0  0  0  0  0  0  0  0  0  0
    7.0442  -13.1139   25.5192 C   0  0  0  0  0  0  0  0  0  0  0  0
    7.0891  -12.5211   26.7703 C   0  0  0  0  0  0  0  0  0  0  0  0
   10.4600  -15.8387   24.9158 N   0  0  0  0  0  0  0  0  0  0  0  0
   11.2807  -16.7719   25.7028 C   0  0  1  0  0  0  0  0  0  0  0  0
   12.7311  -16.5002   25.4736 C   0  0  0  0  0  0  0  0  0  0  0  0
   13.1083  -16.5734   24.0238 C   0  0  0  0  0  0  0  0  0  0  0  0
   14.5677  -16.3017   23.8315 C   0  0  0  0  0  0  0  0  0  0  0  0
   15.1072  -15.2424   24.2239 O   0  0  0  0  0  0  0  0  0  0  0  0
   10.9243  -16.7083   27.1271 C   0  0  0  0  0  0  0  0  0  0  0  0
   11.5754  -17.5823   28.0054 O   0  0  0  0  0  0  0  0  0  0  0  0
   15.3378  -17.2595   23.1978 O   0  0  0  0  0  0  0  0  0  0  0  0
   10.0888  -15.9410   27.6215 O   0  0  0  0  0  0  0  0  0  0  0  0
  2  1  1  0
  3  2  1  0
  4  5  1  0
  4  3  1  0
  5  6  1  1
  7  5  1  0
  7  8  2  0
  9 10  1  0
 10 20  2  0
 10 11  1  0
 11 12  2  0
 12 13  1  0
 13 14  1  0
 15 14  1  1
 15 16  1  0
 16  7  1  0
 17 15  1  0
 18 17  2  0
 19 13  2  0
 20 19  1  0
 21 17  1  0
 22 21  1  0
 22 27  1  0
 22 23  1  1
 24 23  1  0
 25 24  1  0
 26 25  2  0
 27 28  1  0
 29 25  1  0
 30 27  2  0
M  END
$$$$
