MYE.pdb
     RDKit          3D

 30 30  0  0  1  0  0  0  0  0999 V2000
    8.8478  -12.5788   16.9663 C   0  0  0  0  0  0  0  0  0  0  0  0
    7.4049  -13.5262   17.4474 S   0  0  0  0  0  0  0  0  0  0  0  0
    7.7537  -14.6998   18.7838 C   0  0  0  0  0  0  0  0  0  0  0  0
    9.1844  -15.1882   18.7334 C   0  0  0  0  0  0  0  0  0  0  0  0
    9.4785  -16.2017   19.8158 C   0  0  2  0  0  0  0  0  0  0  0  0
    8.4690  -17.2527   19.8461 N   0  0  0  0  0  0  0  0  0  0  0  0
    9.5582  -15.5852   21.1652 C   0  0  0  0  0  0  0  0  0  0  0  0
   10.5618  -14.8791   21.5029 O   0  0  0  0  0  0  0  0  0  0  0  0
    6.5550  -11.7020   28.5951 O   0  0  0  0  0  0  0  0  0  0  0  0
    6.6867  -12.4183   27.3963 C   0  0  0  0  0  0  0  0  0  0  0  0
    6.3251  -13.7334   27.3071 C   0  0  0  0  0  0  0  0  0  0  0  0
    6.4624  -14.4319   26.1066 C   0  0  0  0  0  0  0  0  0  0  0  0
    6.9618  -13.8290   24.9790 C   0  0  0  0  0  0  0  0  0  0  0  0
    7.1084  -14.5432   23.7225 C   0  0  0  0  0  0  0  0  0  0  0  0
    8.4882  -15.0188   23.3946 C   0  0  2  0  0  0  0  0  0  0  0  0
    8.5357  -15.7457   22.1395 N   0  0  0  0  0  0  0  0  0  0  0  0
    9.1953  -15.7360   24.4470 C   0  0  0  0  0  0  0  0  0  0  0  0
    9.5091  -15.0931   25.5088 O   0  0  0  0  0  0  0  0  0  0  0  0
    7.3236  -12.5062   25.0757 C   0  0  0  0  0  0  0  0  0  0  0  0
    7.1938  -11.7987   26.2594 C   0  0  0  0  0  0  0  0  0  0  0  0
    9.5830  -17.0940   24.4331 N   0  0  0  0  0  0  0  0  0  0  0  0
   10.3118  -17.7045   25.5556 C   0  0  1  0  0  0  0  0  0  0  0  0
   10.0391  -19.1717   25.6084 C   0  0  0  0  0  0  0  0  0  0  0  0
   10.8358  -19.8672   26.6720 C   0  0  0  0  0  0  0  0  0  0  0  0
   10.5628  -21.3390   26.6750 C   0  0  0  0  0  0  0  0  0  0  0  0
    9.4859  -21.8176   27.0976 O   0  0  0  0  0  0  0  0  0  0  0  0
   11.7492  -17.4118   25.4668 C   0  0  0  0  0  0  0  0  0  0  0  0
   12.4495  -17.1979   26.6596 O   0  0  0  0  0  0  0  0  0  0  0  0
   11.5394  -22.1908   26.1927 O   0  0  0  0  0  0  0  0  0  0  0  0
   12.4000  -17.3368   24.4170 O   0  0  0  0  0  0  0  0  0  0  0  0
  2  1  1  0
  3  2  1  0
  4  5  1  0
  4  3  1  0
  5  6  1  1
  7  5  1  0
  7  8  2  0
  9 10  1  0
 10 20  2  0
 10 11  1  0
 11 12  2  0
 12 13  1  0
 13 14  1  0
 15 14  1  1
 15 16  1  0
 16  7  1  0
 17 15  1  0
 18 17  2  0
 19 13  2  0
 20 19  1  0
 21 17  1  0
 22 21  1  0
 22 27  1  0
 22 23  1  6
 24 23  1  0
 25 24  1  0
 26 25  2  0
 27 28  1  0
 29 25  1  0
 30 27  2  0
M  END
$$$$
