MYE.pdb
     RDKit          3D

 30 30  0  0  1  0  0  0  0  0999 V2000
    7.9513  -11.3569   20.4641 C   0  0  0  0  0  0  0  0  0  0  0  0
    6.7884  -12.5835   19.8690 S   0  0  0  0  0  0  0  0  0  0  0  0
    7.0546  -14.2159   20.6102 C   0  0  0  0  0  0  0  0  0  0  0  0
    8.0386  -15.0361   19.8058 C   0  0  0  0  0  0  0  0  0  0  0  0
    8.4218  -16.3174   20.5106 C   0  0  2  0  0  0  0  0  0  0  0  0
    7.2459  -17.1137   20.8388 N   0  0  0  0  0  0  0  0  0  0  0  0
    9.1887  -16.0718   21.7592 C   0  0  0  0  0  0  0  0  0  0  0  0
   10.4582  -15.9840   21.7398 O   0  0  0  0  0  0  0  0  0  0  0  0
   10.6489  -14.7608   30.5186 O   0  0  0  0  0  0  0  0  0  0  0  0
   10.0880  -14.8673   29.2374 C   0  0  0  0  0  0  0  0  0  0  0  0
    9.6197  -16.0594   28.7600 C   0  0  0  0  0  0  0  0  0  0  0  0
    9.0644  -16.1485   27.4827 C   0  0  0  0  0  0  0  0  0  0  0  0
    8.9681  -15.0507   26.6641 C   0  0  0  0  0  0  0  0  0  0  0  0
    8.3907  -15.1284   25.3335 C   0  0  0  0  0  0  0  0  0  0  0  0
    9.2749  -15.6905   24.2658 C   0  0  2  0  0  0  0  0  0  0  0  0
    8.5593  -15.9233   23.0250 N   0  0  0  0  0  0  0  0  0  0  0  0
   10.0837  -16.8449   24.6332 C   0  0  0  0  0  0  0  0  0  0  0  0
    9.4898  -17.9650   24.8117 O   0  0  0  0  0  0  0  0  0  0  0  0
    9.4410  -13.8549   27.1506 C   0  0  0  0  0  0  0  0  0  0  0  0
    9.9950  -13.7494   28.4157 C   0  0  0  0  0  0  0  0  0  0  0  0
   11.4837  -16.8737   24.8177 N   0  0  0  0  0  0  0  0  0  0  0  0
   12.2147  -18.1350   25.0136 C   0  0  1  0  0  0  0  0  0  0  0  0
   13.4138  -18.1778   24.1245 C   0  0  0  0  0  0  0  0  0  0  0  0
   14.2773  -16.9595   24.2637 C   0  0  0  0  0  0  0  0  0  0  0  0
   15.1037  -16.7404   23.0350 C   0  0  0  0  0  0  0  0  0  0  0  0
   15.1006  -17.5451   22.0760 O   0  0  0  0  0  0  0  0  0  0  0  0
   12.5680  -18.3204   26.4281 C   0  0  0  0  0  0  0  0  0  0  0  0
   12.2308  -17.3018   27.3268 O   0  0  0  0  0  0  0  0  0  0  0  0
   15.8939  -15.6078   22.9661 O   0  0  0  0  0  0  0  0  0  0  0  0
   13.1445  -19.3096   26.8972 O   0  0  0  0  0  0  0  0  0  0  0  0
  2  1  1  0
  3  2  1  0
  4  5  1  0
  4  3  1  0
  5  6  1  1
  7  5  1  0
  7  8  2  0
  9 10  1  0
 10 20  2  0
 10 11  1  0
 11 12  2  0
 12 13  1  0
 13 14  1  0
 15 14  1  1
 15 16  1  0
 16  7  1  0
 17 15  1  0
 18 17  2  0
 19 13  2  0
 20 19  1  0
 21 17  1  0
 22 21  1  0
 22 27  1  0
 22 23  1  6
 24 23  1  0
 25 24  1  0
 26 25  2  0
 27 28  1  0
 29 25  1  0
 30 27  2  0
M  END
$$$$
