MYE.pdb
     RDKit          3D

 30 30  0  0  1  0  0  0  0  0999 V2000
    7.5536  -20.2312   19.7181 C   0  0  0  0  0  0  0  0  0  0  0  0
    6.4609  -19.1977   18.7441 S   0  0  0  0  0  0  0  0  0  0  0  0
    6.8736  -17.4370   18.8643 C   0  0  0  0  0  0  0  0  0  0  0  0
    7.4461  -17.0932   20.2215 C   0  0  0  0  0  0  0  0  0  0  0  0
    7.7899  -15.6258   20.3392 C   0  0  2  0  0  0  0  0  0  0  0  0
    8.4995  -15.1513   19.1578 N   0  0  0  0  0  0  0  0  0  0  0  0
    8.6179  -15.3304   21.5370 C   0  0  0  0  0  0  0  0  0  0  0  0
    9.8886  -15.3190   21.4664 O   0  0  0  0  0  0  0  0  0  0  0  0
   10.3492  -14.6785   30.3187 O   0  0  0  0  0  0  0  0  0  0  0  0
    9.7723  -14.6118   29.0419 C   0  0  0  0  0  0  0  0  0  0  0  0
    9.0549  -15.6553   28.5274 C   0  0  0  0  0  0  0  0  0  0  0  0
    8.4872  -15.5730   27.2551 C   0  0  0  0  0  0  0  0  0  0  0  0
    8.6266  -14.4495   26.4786 C   0  0  0  0  0  0  0  0  0  0  0  0
    8.0396  -14.3493   25.1537 C   0  0  0  0  0  0  0  0  0  0  0  0
    8.8055  -14.9992   24.0452 C   0  0  2  0  0  0  0  0  0  0  0  0
    8.0481  -15.0483   22.8083 N   0  0  0  0  0  0  0  0  0  0  0  0
    9.4122  -16.2893   24.3441 C   0  0  0  0  0  0  0  0  0  0  0  0
    8.6542  -17.3209   24.3687 O   0  0  0  0  0  0  0  0  0  0  0  0
    9.3494  -13.4038   27.0023 C   0  0  0  0  0  0  0  0  0  0  0  0
    9.9193  -13.4694   28.2630 C   0  0  0  0  0  0  0  0  0  0  0  0
   10.7752  -16.5417   24.6144 N   0  0  0  0  0  0  0  0  0  0  0  0
   11.2734  -17.8979   24.8908 C   0  0  1  0  0  0  0  0  0  0  0  0
   12.5721  -18.1217   24.1886 C   0  0  0  0  0  0  0  0  0  0  0  0
   12.4145  -18.2042   22.6994 C   0  0  0  0  0  0  0  0  0  0  0  0
   13.6360  -17.6969   21.9985 C   0  0  0  0  0  0  0  0  0  0  0  0
   13.7123  -17.6344   20.7505 O   0  0  0  0  0  0  0  0  0  0  0  0
   11.3795  -18.1312   26.3379 C   0  0  0  0  0  0  0  0  0  0  0  0
   11.7400  -19.4125   26.7706 O   0  0  0  0  0  0  0  0  0  0  0  0
   14.7114  -17.2857   22.7642 O   0  0  0  0  0  0  0  0  0  0  0  0
   11.1746  -17.2834   27.2156 O   0  0  0  0  0  0  0  0  0  0  0  0
  2  1  1  0
  3  2  1  0
  4  5  1  0
  4  3  1  0
  5  6  1  6
  7  5  1  0
  7  8  2  0
  9 10  1  0
 10 20  2  0
 10 11  1  0
 11 12  2  0
 12 13  1  0
 13 14  1  0
 15 14  1  1
 15 16  1  0
 16  7  1  0
 17 15  1  0
 18 17  2  0
 19 13  2  0
 20 19  1  0
 21 17  1  0
 22 21  1  0
 22 27  1  0
 22 23  1  6
 24 23  1  0
 25 24  1  0
 26 25  2  0
 27 28  1  0
 29 25  1  0
 30 27  2  0
M  END
$$$$
