MYE.pdb
     RDKit          3D

 30 30  0  0  1  0  0  0  0  0999 V2000
    5.7565  -11.8788   18.8814 C   0  0  0  0  0  0  0  0  0  0  0  0
    7.4142  -12.5508   18.7743 S   0  0  0  0  0  0  0  0  0  0  0  0
    7.6006  -14.1004   19.6957 C   0  0  0  0  0  0  0  0  0  0  0  0
    9.0442  -14.5500   19.7380 C   0  0  0  0  0  0  0  0  0  0  0  0
    9.2294  -15.7916   20.5804 C   0  0  2  0  0  0  0  0  0  0  0  0
    7.9577  -16.4605   20.8249 N   0  0  0  0  0  0  0  0  0  0  0  0
    9.8684  -15.5000   21.8896 C   0  0  0  0  0  0  0  0  0  0  0  0
   11.0470  -15.0237   21.9498 O   0  0  0  0  0  0  0  0  0  0  0  0
   10.8604  -14.9657   30.7818 O   0  0  0  0  0  0  0  0  0  0  0  0
   10.3612  -15.0189   29.4721 C   0  0  0  0  0  0  0  0  0  0  0  0
   10.3237  -13.9078   28.6768 C   0  0  0  0  0  0  0  0  0  0  0  0
    9.8238  -13.9777   27.3756 C   0  0  0  0  0  0  0  0  0  0  0  0
    9.3547  -15.1557   26.8496 C   0  0  0  0  0  0  0  0  0  0  0  0
    8.8336  -15.2434   25.4965 C   0  0  0  0  0  0  0  0  0  0  0  0
    9.8338  -15.5451   24.4259 C   0  0  2  0  0  0  0  0  0  0  0  0
    9.2113  -15.7323   23.1285 N   0  0  0  0  0  0  0  0  0  0  0  0
   10.7899  -16.6064   24.7106 C   0  0  0  0  0  0  0  0  0  0  0  0
   10.3718  -17.8164   24.6891 O   0  0  0  0  0  0  0  0  0  0  0  0
    9.3953  -16.2692   27.6550 C   0  0  0  0  0  0  0  0  0  0  0  0
    9.8881  -16.2170   28.9484 C   0  0  0  0  0  0  0  0  0  0  0  0
   12.1609  -16.4523   25.0128 N   0  0  0  0  0  0  0  0  0  0  0  0
   13.0418  -17.6096   25.2334 C   0  0  1  0  0  0  0  0  0  0  0  0
   14.4542  -17.2501   24.9084 C   0  0  0  0  0  0  0  0  0  0  0  0
   14.6499  -16.9438   23.4532 C   0  0  0  0  0  0  0  0  0  0  0  0
   15.9932  -16.3311   23.2066 C   0  0  0  0  0  0  0  0  0  0  0  0
   16.4022  -16.0600   22.0549 O   0  0  0  0  0  0  0  0  0  0  0  0
   12.9022  -18.1191   26.6048 C   0  0  0  0  0  0  0  0  0  0  0  0
   13.3117  -19.4328   26.8609 O   0  0  0  0  0  0  0  0  0  0  0  0
   16.8025  -16.0590   24.2943 O   0  0  0  0  0  0  0  0  0  0  0  0
   12.4482  -17.4799   27.5622 O   0  0  0  0  0  0  0  0  0  0  0  0
  2  1  1  0
  3  2  1  0
  4  5  1  0
  4  3  1  0
  5  6  1  1
  7  5  1  0
  7  8  2  0
  9 10  1  0
 10 20  2  0
 10 11  1  0
 11 12  2  0
 12 13  1  0
 13 14  1  0
 15 14  1  1
 15 16  1  0
 16  7  1  0
 17 15  1  0
 18 17  2  0
 19 13  2  0
 20 19  1  0
 21 17  1  0
 22 21  1  0
 22 27  1  0
 22 23  1  1
 24 23  1  0
 25 24  1  0
 26 25  2  0
 27 28  1  0
 29 25  1  0
 30 27  2  0
M  END
$$$$
