MYE.pdb
     RDKit          3D

 30 30  0  0  1  0  0  0  0  0999 V2000
    6.3207  -11.3412   27.2241 C   0  0  0  0  0  0  0  0  0  0  0  0
    7.0417  -12.9101   26.7446 S   0  0  0  0  0  0  0  0  0  0  0  0
    6.4539  -13.4843   25.1292 C   0  0  0  0  0  0  0  0  0  0  0  0
    7.6020  -13.9061   24.2394 C   0  0  0  0  0  0  0  0  0  0  0  0
    7.8266  -15.4007   24.2697 C   0  0  2  0  0  0  0  0  0  0  0  0
    7.4481  -15.9674   25.5582 N   0  0  0  0  0  0  0  0  0  0  0  0
    9.2383  -15.7692   23.9887 C   0  0  0  0  0  0  0  0  0  0  0  0
    9.8369  -15.3243   22.9575 O   0  0  0  0  0  0  0  0  0  0  0  0
    9.8894  -14.0591   30.1334 O   0  0  0  0  0  0  0  0  0  0  0  0
   10.4717  -14.7568   29.0650 C   0  0  0  0  0  0  0  0  0  0  0  0
   10.7878  -16.0828   29.1661 C   0  0  0  0  0  0  0  0  0  0  0  0
   11.3669  -16.7625   28.0935 C   0  0  0  0  0  0  0  0  0  0  0  0
   11.6385  -16.1300   26.9058 C   0  0  0  0  0  0  0  0  0  0  0  0
   12.2389  -16.8254   25.7806 C   0  0  0  0  0  0  0  0  0  0  0  0
   11.3596  -17.0252   24.5870 C   0  0  2  0  0  0  0  0  0  0  0  0
    9.9881  -16.6247   24.8410 N   0  0  0  0  0  0  0  0  0  0  0  0
   11.4179  -18.3334   23.9490 C   0  0  0  0  0  0  0  0  0  0  0  0
   11.4797  -19.3684   24.7001 O   0  0  0  0  0  0  0  0  0  0  0  0
   11.3180  -14.7964   26.8110 C   0  0  0  0  0  0  0  0  0  0  0  0
   10.7430  -14.1071   27.8659 C   0  0  0  0  0  0  0  0  0  0  0  0
   11.4113  -18.6000   22.5620 N   0  0  0  0  0  0  0  0  0  0  0  0
   12.5578  -19.2275   21.8870 C   0  0  1  0  0  0  0  0  0  0  0  0
   13.0244  -18.3670   20.7592 C   0  0  0  0  0  0  0  0  0  0  0  0
   14.1634  -18.9805   20.0003 C   0  0  0  0  0  0  0  0  0  0  0  0
   14.6503  -18.0627   18.9227 C   0  0  0  0  0  0  0  0  0  0  0  0
   15.8688  -17.8826   18.6991 O   0  0  0  0  0  0  0  0  0  0  0  0
   13.6345  -19.5162   22.8446 C   0  0  0  0  0  0  0  0  0  0  0  0
   14.0370  -20.8482   22.9965 O   0  0  0  0  0  0  0  0  0  0  0  0
   13.7148  -17.3958   18.1533 O   0  0  0  0  0  0  0  0  0  0  0  0
   14.2213  -18.6742   23.5359 O   0  0  0  0  0  0  0  0  0  0  0  0
  2  1  1  0
  3  2  1  0
  4  5  1  0
  4  3  1  0
  5  6  1  1
  7  5  1  0
  7  8  2  0
  9 10  1  0
 10 20  2  0
 10 11  1  0
 11 12  2  0
 12 13  1  0
 13 14  1  0
 15 14  1  1
 15 16  1  0
 16  7  1  0
 17 15  1  0
 18 17  2  0
 19 13  2  0
 20 19  1  0
 21 17  1  0
 22 21  1  0
 22 27  1  0
 22 23  1  6
 24 23  1  0
 25 24  1  0
 26 25  2  0
 27 28  1  0
 29 25  1  0
 30 27  2  0
M  END
$$$$
