MYE.pdb
     RDKit          3D

 30 30  0  0  1  0  0  0  0  0999 V2000
    7.6834  -11.4488   20.1794 C   0  0  0  0  0  0  0  0  0  0  0  0
    8.5697  -12.9979   20.3401 S   0  0  0  0  0  0  0  0  0  0  0  0
    7.9408  -14.2813   19.2256 C   0  0  0  0  0  0  0  0  0  0  0  0
    8.7430  -15.5584   19.3420 C   0  0  0  0  0  0  0  0  0  0  0  0
    8.2757  -16.4215   20.4918 C   0  0  2  0  0  0  0  0  0  0  0  0
    6.8626  -16.2054   20.7764 N   0  0  0  0  0  0  0  0  0  0  0  0
    9.0501  -16.1783   21.7362 C   0  0  0  0  0  0  0  0  0  0  0  0
   10.3225  -16.2033   21.7296 O   0  0  0  0  0  0  0  0  0  0  0  0
   10.6484  -14.7441   30.4385 O   0  0  0  0  0  0  0  0  0  0  0  0
   10.0613  -14.8361   29.1679 C   0  0  0  0  0  0  0  0  0  0  0  0
    9.9848  -13.7537   28.3368 C   0  0  0  0  0  0  0  0  0  0  0  0
    9.3974  -13.8620   27.0755 C   0  0  0  0  0  0  0  0  0  0  0  0
    8.8784  -15.0506   26.6255 C   0  0  0  0  0  0  0  0  0  0  0  0
    8.2660  -15.1782   25.3144 C   0  0  0  0  0  0  0  0  0  0  0  0
    9.1459  -15.7099   24.2277 C   0  0  2  0  0  0  0  0  0  0  0  0
    8.4250  -15.9084   22.9840 N   0  0  0  0  0  0  0  0  0  0  0  0
    9.9568  -16.8736   24.5593 C   0  0  0  0  0  0  0  0  0  0  0  0
    9.3740  -18.0106   24.6427 O   0  0  0  0  0  0  0  0  0  0  0  0
    8.9586  -16.1352   27.4665 C   0  0  0  0  0  0  0  0  0  0  0  0
    9.5382  -16.0446   28.7212 C   0  0  0  0  0  0  0  0  0  0  0  0
   11.3477  -16.8947   24.8032 N   0  0  0  0  0  0  0  0  0  0  0  0
   12.0467  -18.1253   25.2043 C   0  0  1  0  0  0  0  0  0  0  0  0
   13.2766  -18.3106   24.3780 C   0  0  0  0  0  0  0  0  0  0  0  0
   12.9967  -18.2435   22.9060 C   0  0  0  0  0  0  0  0  0  0  0  0
   14.2506  -18.4270   22.1093 C   0  0  0  0  0  0  0  0  0  0  0  0
   15.1463  -17.5537   22.0633 O   0  0  0  0  0  0  0  0  0  0  0  0
   12.3438  -18.1126   26.6435 C   0  0  0  0  0  0  0  0  0  0  0  0
   12.9406  -19.2499   27.1997 O   0  0  0  0  0  0  0  0  0  0  0  0
   14.4159  -19.6045   21.4036 O   0  0  0  0  0  0  0  0  0  0  0  0
   12.1085  -17.1731   27.4137 O   0  0  0  0  0  0  0  0  0  0  0  0
  2  1  1  0
  3  2  1  0
  4  5  1  0
  4  3  1  0
  5  6  1  1
  7  5  1  0
  7  8  2  0
  9 10  1  0
 10 20  2  0
 10 11  1  0
 11 12  2  0
 12 13  1  0
 13 14  1  0
 15 14  1  1
 15 16  1  0
 16  7  1  0
 17 15  1  0
 18 17  2  0
 19 13  2  0
 20 19  1  0
 21 17  1  0
 22 21  1  0
 22 27  1  0
 22 23  1  6
 24 23  1  0
 25 24  1  0
 26 25  2  0
 27 28  1  0
 29 25  1  0
 30 27  2  0
M  END
$$$$
