MYE.pdb
     RDKit          3D

 30 30  0  0  1  0  0  0  0  0999 V2000
    8.4454  -12.1858   21.2228 C   0  0  0  0  0  0  0  0  0  0  0  0
    7.6755  -12.3778   19.6162 S   0  0  0  0  0  0  0  0  0  0  0  0
    7.8325  -14.0612   18.9631 C   0  0  0  0  0  0  0  0  0  0  0  0
    7.2791  -15.0847   19.9296 C   0  0  0  0  0  0  0  0  0  0  0  0
    8.3177  -16.1062   20.3336 C   0  0  2  0  0  0  0  0  0  0  0  0
    7.7235  -17.4258   20.5074 N   0  0  0  0  0  0  0  0  0  0  0  0
    9.0205  -15.7362   21.5892 C   0  0  0  0  0  0  0  0  0  0  0  0
   10.2206  -15.3133   21.5661 O   0  0  0  0  0  0  0  0  0  0  0  0
   10.3769  -14.5312   30.3716 O   0  0  0  0  0  0  0  0  0  0  0  0
    9.8195  -14.7069   29.0965 C   0  0  0  0  0  0  0  0  0  0  0  0
    9.3973  -15.9331   28.6648 C   0  0  0  0  0  0  0  0  0  0  0  0
    8.8448  -16.0910   27.3929 C   0  0  0  0  0  0  0  0  0  0  0  0
    8.7056  -15.0289   26.5344 C   0  0  0  0  0  0  0  0  0  0  0  0
    8.1306  -15.1783   25.2088 C   0  0  0  0  0  0  0  0  0  0  0  0
    9.0824  -15.5583   24.1191 C   0  0  2  0  0  0  0  0  0  0  0  0
    8.4034  -15.8318   22.8662 N   0  0  0  0  0  0  0  0  0  0  0  0
   10.0482  -16.6020   24.4349 C   0  0  0  0  0  0  0  0  0  0  0  0
    9.6379  -17.8145   24.4631 O   0  0  0  0  0  0  0  0  0  0  0  0
    9.1324  -13.7985   26.9750 C   0  0  0  0  0  0  0  0  0  0  0  0
    9.6829  -13.6248   28.2340 C   0  0  0  0  0  0  0  0  0  0  0  0
   11.4208  -16.4279   24.7183 N   0  0  0  0  0  0  0  0  0  0  0  0
   12.3023  -17.5673   25.0158 C   0  0  1  0  0  0  0  0  0  0  0  0
   13.6829  -17.2933   24.5168 C   0  0  0  0  0  0  0  0  0  0  0  0
   13.6938  -16.7736   23.1099 C   0  0  0  0  0  0  0  0  0  0  0  0
   15.0902  -16.4942   22.6486 C   0  0  0  0  0  0  0  0  0  0  0  0
   15.6082  -15.3581   22.7381 O   0  0  0  0  0  0  0  0  0  0  0  0
   12.2851  -17.8809   26.4515 C   0  0  0  0  0  0  0  0  0  0  0  0
   12.9035  -19.0643   26.8714 O   0  0  0  0  0  0  0  0  0  0  0  0
   15.8248  -17.5329   22.1068 O   0  0  0  0  0  0  0  0  0  0  0  0
   11.7648  -17.1817   27.3298 O   0  0  0  0  0  0  0  0  0  0  0  0
  2  1  1  0
  3  2  1  0
  4  5  1  0
  4  3  1  0
  5  6  1  1
  7  5  1  0
  7  8  2  0
  9 10  1  0
 10 20  2  0
 10 11  1  0
 11 12  2  0
 12 13  1  0
 13 14  1  0
 15 14  1  1
 15 16  1  0
 16  7  1  0
 17 15  1  0
 18 17  2  0
 19 13  2  0
 20 19  1  0
 21 17  1  0
 22 21  1  0
 22 27  1  0
 22 23  1  1
 24 23  1  0
 25 24  1  0
 26 25  2  0
 27 28  1  0
 29 25  1  0
 30 27  2  0
M  END
$$$$
