MYE.pdb
     RDKit          3D

 30 30  0  0  1  0  0  0  0  0999 V2000
   10.2426  -13.8909   29.5943 C   0  0  0  0  0  0  0  0  0  0  0  0
    9.0584  -13.7337   28.2587 S   0  0  0  0  0  0  0  0  0  0  0  0
    7.6592  -14.8732   28.4280 C   0  0  0  0  0  0  0  0  0  0  0  0
    7.0121  -15.1591   27.0910 C   0  0  0  0  0  0  0  0  0  0  0  0
    7.8951  -16.0027   26.1999 C   0  0  2  0  0  0  0  0  0  0  0  0
    9.3067  -15.7447   26.4555 N   0  0  0  0  0  0  0  0  0  0  0  0
    7.6279  -15.7757   24.7561 C   0  0  0  0  0  0  0  0  0  0  0  0
    6.5026  -16.0780   24.2444 O   0  0  0  0  0  0  0  0  0  0  0  0
    7.6727  -12.7130   16.4712 O   0  0  0  0  0  0  0  0  0  0  0  0
    7.7949  -12.9529   17.8478 C   0  0  0  0  0  0  0  0  0  0  0  0
    6.8204  -13.6080   18.5474 C   0  0  0  0  0  0  0  0  0  0  0  0
    6.9574  -13.8388   19.9170 C   0  0  0  0  0  0  0  0  0  0  0  0
    8.0674  -13.4199   20.6077 C   0  0  0  0  0  0  0  0  0  0  0  0
    8.2241  -13.6550   22.0325 C   0  0  0  0  0  0  0  0  0  0  0  0
    8.4126  -15.0803   22.4461 C   0  0  2  0  0  0  0  0  0  0  0  0
    8.5971  -15.2175   23.8789 N   0  0  0  0  0  0  0  0  0  0  0  0
    9.4112  -15.8436   21.7099 C   0  0  0  0  0  0  0  0  0  0  0  0
    9.0167  -16.5603   20.7249 O   0  0  0  0  0  0  0  0  0  0  0  0
    9.0436  -12.7617   19.8978 C   0  0  0  0  0  0  0  0  0  0  0  0
    8.9232  -12.5245   18.5385 C   0  0  0  0  0  0  0  0  0  0  0  0
   10.8004  -15.8843   21.9610 N   0  0  0  0  0  0  0  0  0  0  0  0
   11.7401  -16.5191   21.0240 C   0  0  1  0  0  0  0  0  0  0  0  0
   12.5425  -15.4776   20.3159 C   0  0  0  0  0  0  0  0  0  0  0  0
   13.4900  -16.0648   19.3123 C   0  0  0  0  0  0  0  0  0  0  0  0
   14.2649  -14.9934   18.6106 C   0  0  0  0  0  0  0  0  0  0  0  0
   15.5100  -14.9012   18.7019 O   0  0  0  0  0  0  0  0  0  0  0  0
   12.5909  -17.4959   21.7182 C   0  0  0  0  0  0  0  0  0  0  0  0
   13.4242  -18.3086   20.9409 O   0  0  0  0  0  0  0  0  0  0  0  0
   13.5729  -14.0793   17.8375 O   0  0  0  0  0  0  0  0  0  0  0  0
   12.6336  -17.6636   22.9434 O   0  0  0  0  0  0  0  0  0  0  0  0
  2  1  1  0
  3  2  1  0
  4  5  1  0
  4  3  1  0
  5  6  1  6
  7  5  1  0
  7  8  2  0
  9 10  1  0
 10 20  2  0
 10 11  1  0
 11 12  2  0
 12 13  1  0
 13 14  1  0
 15 14  1  6
 15 16  1  0
 16  7  1  0
 17 15  1  0
 18 17  2  0
 19 13  2  0
 20 19  1  0
 21 17  1  0
 22 21  1  0
 22 27  1  0
 22 23  1  1
 24 23  1  0
 25 24  1  0
 26 25  2  0
 27 28  1  0
 29 25  1  0
 30 27  2  0
M  END
$$$$
