MYE.pdb
     RDKit          3D

 30 30  0  0  1  0  0  0  0  0999 V2000
    8.4663  -11.6168   20.2861 C   0  0  0  0  0  0  0  0  0  0  0  0
    7.5444  -12.8342   19.3486 S   0  0  0  0  0  0  0  0  0  0  0  0
    7.4546  -14.4391   20.1859 C   0  0  0  0  0  0  0  0  0  0  0  0
    8.8067  -14.8660   20.7127 C   0  0  0  0  0  0  0  0  0  0  0  0
    8.7611  -16.2326   21.3574 C   0  0  2  0  0  0  0  0  0  0  0  0
    7.4406  -16.8360   21.2274 N   0  0  0  0  0  0  0  0  0  0  0  0
    9.1221  -16.1938   22.7981 C   0  0  0  0  0  0  0  0  0  0  0  0
   10.2758  -15.8082   23.1725 O   0  0  0  0  0  0  0  0  0  0  0  0
    6.2883  -10.3838   25.8306 O   0  0  0  0  0  0  0  0  0  0  0  0
    6.5185  -11.7669   25.8671 C   0  0  0  0  0  0  0  0  0  0  0  0
    5.5575  -12.6608   25.4854 C   0  0  0  0  0  0  0  0  0  0  0  0
    5.8026  -14.0342   25.5277 C   0  0  0  0  0  0  0  0  0  0  0  0
    7.0087  -14.5349   25.9508 C   0  0  0  0  0  0  0  0  0  0  0  0
    7.2783  -15.9615   25.9981 C   0  0  0  0  0  0  0  0  0  0  0  0
    8.4816  -16.4279   25.2416 C   0  0  2  0  0  0  0  0  0  0  0  0
    8.2154  -16.5783   23.8230 N   0  0  0  0  0  0  0  0  0  0  0  0
    9.1730  -17.5936   25.7754 C   0  0  0  0  0  0  0  0  0  0  0  0
    8.5036  -18.6744   25.9274 O   0  0  0  0  0  0  0  0  0  0  0  0
    7.9707  -13.6302   26.3333 C   0  0  0  0  0  0  0  0  0  0  0  0
    7.7436  -12.2644   26.2974 C   0  0  0  0  0  0  0  0  0  0  0  0
   10.5318  -17.6733   26.1521 N   0  0  0  0  0  0  0  0  0  0  0  0
   11.0914  -18.8755   26.7887 C   0  0  1  0  0  0  0  0  0  0  0  0
   12.5053  -19.0773   26.3529 C   0  0  0  0  0  0  0  0  0  0  0  0
   12.6804  -18.9126   24.8725 C   0  0  0  0  0  0  0  0  0  0  0  0
   14.0995  -19.1605   24.4659 C   0  0  0  0  0  0  0  0  0  0  0  0
   15.0513  -18.4840   24.9171 O   0  0  0  0  0  0  0  0  0  0  0  0
   10.9690  -18.7978   28.2512 C   0  0  0  0  0  0  0  0  0  0  0  0
   11.3453  -19.9182   29.0009 O   0  0  0  0  0  0  0  0  0  0  0  0
   14.3578  -20.1736   23.5610 O   0  0  0  0  0  0  0  0  0  0  0  0
   10.5568  -17.8169   28.8830 O   0  0  0  0  0  0  0  0  0  0  0  0
  2  1  1  0
  3  2  1  0
  4  5  1  0
  4  3  1  0
  5  6  1  1
  7  5  1  0
  7  8  2  0
  9 10  1  0
 10 20  2  0
 10 11  1  0
 11 12  2  0
 12 13  1  0
 13 14  1  0
 15 14  1  1
 15 16  1  0
 16  7  1  0
 17 15  1  0
 18 17  2  0
 19 13  2  0
 20 19  1  0
 21 17  1  0
 22 21  1  0
 22 27  1  0
 22 23  1  1
 24 23  1  0
 25 24  1  0
 26 25  2  0
 27 28  1  0
 29 25  1  0
 30 27  2  0
M  END
$$$$
