MYE.pdb
     RDKit          3D

 30 30  0  0  1  0  0  0  0  0999 V2000
    7.5576  -13.1067   16.9414 C   0  0  0  0  0  0  0  0  0  0  0  0
    7.4423  -14.8112   16.4006 S   0  0  0  0  0  0  0  0  0  0  0  0
    8.0219  -15.9830   17.6558 C   0  0  0  0  0  0  0  0  0  0  0  0
    9.0147  -15.3397   18.5985 C   0  0  0  0  0  0  0  0  0  0  0  0
    9.4210  -16.2697   19.7189 C   0  0  2  0  0  0  0  0  0  0  0  0
    8.4827  -17.3768   19.8552 N   0  0  0  0  0  0  0  0  0  0  0  0
    9.5219  -15.5731   21.0273 C   0  0  0  0  0  0  0  0  0  0  0  0
   10.5153  -14.8234   21.2936 O   0  0  0  0  0  0  0  0  0  0  0  0
    7.0085  -11.9541   28.7847 O   0  0  0  0  0  0  0  0  0  0  0  0
    7.0468  -12.6363   27.5597 C   0  0  0  0  0  0  0  0  0  0  0  0
    6.4151  -12.1477   26.4505 C   0  0  0  0  0  0  0  0  0  0  0  0
    6.4629  -12.8388   25.2389 C   0  0  0  0  0  0  0  0  0  0  0  0
    7.1410  -14.0262   25.1166 C   0  0  0  0  0  0  0  0  0  0  0  0
    7.2007  -14.7551   23.8615 C   0  0  0  0  0  0  0  0  0  0  0  0
    8.5688  -14.9956   23.3063 C   0  0  2  0  0  0  0  0  0  0  0  0
    8.5319  -15.7018   22.0391 N   0  0  0  0  0  0  0  0  0  0  0  0
    9.5427  -15.5885   24.2128 C   0  0  0  0  0  0  0  0  0  0  0  0
    9.5727  -15.1709   25.4227 O   0  0  0  0  0  0  0  0  0  0  0  0
    7.7740  -14.5119   26.2362 C   0  0  0  0  0  0  0  0  0  0  0  0
    7.7363  -13.8385   27.4460 C   0  0  0  0  0  0  0  0  0  0  0  0
   10.4806  -16.5987   23.9050 N   0  0  0  0  0  0  0  0  0  0  0  0
   11.3801  -17.1593   24.9250 C   0  0  1  0  0  0  0  0  0  0  0  0
   10.5865  -17.7069   26.0653 C   0  0  0  0  0  0  0  0  0  0  0  0
   11.4523  -18.3037   27.1349 C   0  0  0  0  0  0  0  0  0  0  0  0
   10.6243  -18.8686   28.2467 C   0  0  0  0  0  0  0  0  0  0  0  0
    9.3750  -18.9242   28.1871 O   0  0  0  0  0  0  0  0  0  0  0  0
   12.2728  -18.1681   24.3374 C   0  0  0  0  0  0  0  0  0  0  0  0
   12.0919  -18.4980   22.9893 O   0  0  0  0  0  0  0  0  0  0  0  0
   11.2704  -19.3426   29.3735 O   0  0  0  0  0  0  0  0  0  0  0  0
   13.1796  -18.7574   24.9388 O   0  0  0  0  0  0  0  0  0  0  0  0
  2  1  1  0
  3  2  1  0
  4  5  1  0
  4  3  1  0
  5  6  1  1
  7  5  1  0
  7  8  2  0
  9 10  1  0
 10 20  2  0
 10 11  1  0
 11 12  2  0
 12 13  1  0
 13 14  1  0
 15 14  1  1
 15 16  1  0
 16  7  1  0
 17 15  1  0
 18 17  2  0
 19 13  2  0
 20 19  1  0
 21 17  1  0
 22 21  1  0
 22 27  1  0
 22 23  1  1
 24 23  1  0
 25 24  1  0
 26 25  2  0
 27 28  1  0
 29 25  1  0
 30 27  2  0
M  END
$$$$
