MYE.pdb
     RDKit          3D

 30 30  0  0  1  0  0  0  0  0999 V2000
    6.0482  -10.6343   28.3018 C   0  0  0  0  0  0  0  0  0  0  0  0
    6.1385  -12.2686   27.5725 S   0  0  0  0  0  0  0  0  0  0  0  0
    6.9242  -12.2622   25.9393 C   0  0  0  0  0  0  0  0  0  0  0  0
    6.5304  -13.4778   25.1298 C   0  0  0  0  0  0  0  0  0  0  0  0
    7.4095  -14.6706   25.4295 C   0  0  2  0  0  0  0  0  0  0  0  0
    8.6684  -14.2611   26.0393 N   0  0  0  0  0  0  0  0  0  0  0  0
    7.7121  -15.4727   24.2160 C   0  0  0  0  0  0  0  0  0  0  0  0
    6.7809  -16.0356   23.5557 O   0  0  0  0  0  0  0  0  0  0  0  0
    6.0824  -12.5513   18.8024 O   0  0  0  0  0  0  0  0  0  0  0  0
    7.0104  -13.3781   19.4527 C   0  0  0  0  0  0  0  0  0  0  0  0
    6.7965  -14.7211   19.5900 C   0  0  0  0  0  0  0  0  0  0  0  0
    7.7300  -15.5300   20.2399 C   0  0  0  0  0  0  0  0  0  0  0  0
    8.8891  -15.0112   20.7613 C   0  0  0  0  0  0  0  0  0  0  0  0
    9.8702  -15.8415   21.4382 C   0  0  0  0  0  0  0  0  0  0  0  0
    9.3903  -16.5635   22.6573 C   0  0  2  0  0  0  0  0  0  0  0  0
    9.0359  -15.6543   23.7314 N   0  0  0  0  0  0  0  0  0  0  0  0
   10.2306  -17.6504   23.1415 C   0  0  0  0  0  0  0  0  0  0  0  0
   10.4906  -18.6145   22.3401 O   0  0  0  0  0  0  0  0  0  0  0  0
    9.0977  -13.6597   20.6197 C   0  0  0  0  0  0  0  0  0  0  0  0
    8.1815  -12.8431   19.9777 C   0  0  0  0  0  0  0  0  0  0  0  0
   10.8092  -17.7662   24.4247 N   0  0  0  0  0  0  0  0  0  0  0  0
   11.9186  -18.6935   24.6949 C   0  0  1  0  0  0  0  0  0  0  0  0
   13.0432  -18.4403   23.7455 C   0  0  0  0  0  0  0  0  0  0  0  0
   13.7386  -17.1382   24.0112 C   0  0  0  0  0  0  0  0  0  0  0  0
   14.9142  -16.9590   23.1021 C   0  0  0  0  0  0  0  0  0  0  0  0
   15.2226  -17.8068   22.2342 O   0  0  0  0  0  0  0  0  0  0  0  0
   12.3474  -18.6014   26.0975 C   0  0  0  0  0  0  0  0  0  0  0  0
   11.7032  -17.6700   26.9201 O   0  0  0  0  0  0  0  0  0  0  0  0
   15.6794  -15.8147   23.2331 O   0  0  0  0  0  0  0  0  0  0  0  0
   13.2388  -19.2831   26.6188 O   0  0  0  0  0  0  0  0  0  0  0  0
  2  1  1  0
  3  2  1  0
  4  5  1  0
  4  3  1  0
  5  6  1  6
  7  5  1  0
  7  8  2  0
  9 10  1  0
 10 20  2  0
 10 11  1  0
 11 12  2  0
 12 13  1  0
 13 14  1  0
 15 14  1  6
 15 16  1  0
 16  7  1  0
 17 15  1  0
 18 17  2  0
 19 13  2  0
 20 19  1  0
 21 17  1  0
 22 21  1  0
 22 27  1  0
 22 23  1  6
 24 23  1  0
 25 24  1  0
 26 25  2  0
 27 28  1  0
 29 25  1  0
 30 27  2  0
M  END
$$$$
