MYE.pdb
     RDKit          3D

 30 30  0  0  1  0  0  0  0  0999 V2000
    7.8861  -12.0950   19.4781 C   0  0  0  0  0  0  0  0  0  0  0  0
    6.6630  -13.3979   19.3461 S   0  0  0  0  0  0  0  0  0  0  0  0
    7.4081  -15.0372   19.1406 C   0  0  0  0  0  0  0  0  0  0  0  0
    8.0953  -15.4967   20.4074 C   0  0  0  0  0  0  0  0  0  0  0  0
    9.2807  -14.6271   20.7595 C   0  0  2  0  0  0  0  0  0  0  0  0
   10.3059  -14.6845   19.7250 N   0  0  0  0  0  0  0  0  0  0  0  0
    9.8980  -15.0059   22.0568 C   0  0  0  0  0  0  0  0  0  0  0  0
   10.9945  -15.6508   22.0952 O   0  0  0  0  0  0  0  0  0  0  0  0
   10.7447  -16.0650   30.9148 O   0  0  0  0  0  0  0  0  0  0  0  0
   10.3670  -15.6346   29.6344 C   0  0  0  0  0  0  0  0  0  0  0  0
   10.8396  -14.4661   29.1058 C   0  0  0  0  0  0  0  0  0  0  0  0
   10.4540  -14.0521   27.8299 C   0  0  0  0  0  0  0  0  0  0  0  0
    9.5922  -14.7971   27.0639 C   0  0  0  0  0  0  0  0  0  0  0  0
    9.1840  -14.3794   25.7339 C   0  0  0  0  0  0  0  0  0  0  0  0
    9.8506  -15.0793   24.5922 C   0  0  2  0  0  0  0  0  0  0  0  0
    9.3094  -14.6754   23.3077 N   0  0  0  0  0  0  0  0  0  0  0  0
    9.9528  -16.5291   24.6895 C   0  0  0  0  0  0  0  0  0  0  0  0
    9.0635  -17.2371   24.1003 O   0  0  0  0  0  0  0  0  0  0  0  0
    9.1207  -15.9712   27.6017 C   0  0  0  0  0  0  0  0  0  0  0  0
    9.4934  -16.3964   28.8662 C   0  0  0  0  0  0  0  0  0  0  0  0
   10.9460  -17.2639   25.3738 N   0  0  0  0  0  0  0  0  0  0  0  0
   11.3071  -18.6344   24.9797 C   0  0  1  0  0  0  0  0  0  0  0  0
   11.7041  -18.6678   23.5405 C   0  0  0  0  0  0  0  0  0  0  0  0
   12.1726  -20.0241   23.1041 C   0  0  0  0  0  0  0  0  0  0  0  0
   12.6045  -20.0105   21.6709 C   0  0  0  0  0  0  0  0  0  0  0  0
   12.1409  -20.8097   20.8261 O   0  0  0  0  0  0  0  0  0  0  0  0
   12.3578  -19.1708   25.8560 C   0  0  0  0  0  0  0  0  0  0  0  0
   12.5763  -20.5533   25.8471 O   0  0  0  0  0  0  0  0  0  0  0  0
   13.5479  -19.0798   21.2763 O   0  0  0  0  0  0  0  0  0  0  0  0
   13.0728  -18.4982   26.6094 O   0  0  0  0  0  0  0  0  0  0  0  0
  2  1  1  0
  3  2  1  0
  4  5  1  0
  4  3  1  0
  5  6  1  6
  7  5  1  0
  7  8  2  0
  9 10  1  0
 10 20  2  0
 10 11  1  0
 11 12  2  0
 12 13  1  0
 13 14  1  0
 15 14  1  1
 15 16  1  0
 16  7  1  0
 17 15  1  0
 18 17  2  0
 19 13  2  0
 20 19  1  0
 21 17  1  0
 22 21  1  0
 22 27  1  0
 22 23  1  6
 24 23  1  0
 25 24  1  0
 26 25  2  0
 27 28  1  0
 29 25  1  0
 30 27  2  0
M  END
$$$$
