VSC.pdb
     RDKit          3D

 20 19  0  0  1  0  0  0  0  0999 V2000
    8.1363  -12.7912   18.8381 C   0  0  0  0  0  0  0  0  0  0  0  0
    8.3763  -13.4610   20.1463 C   0  0  1  0  0  0  0  0  0  0  0  0
    7.4063  -12.8872   21.1627 C   0  0  0  0  0  0  0  0  0  0  0  0
    8.1878  -14.9454   20.1325 C   0  0  2  0  0  0  0  0  0  0  0  0
    6.9249  -15.2360   19.5043 N   0  0  0  0  0  0  0  0  0  0  0  0
    8.3409  -15.5847   21.4460 C   0  0  0  0  0  0  0  0  0  0  0  0
    7.3414  -15.6154   22.2066 O   0  0  0  0  0  0  0  0  0  0  0  0
   10.5403  -18.8926   22.4276 O   0  0  0  0  0  0  0  0  0  0  0  0
   10.7983  -17.8068   23.2629 C   0  0  0  0  0  0  0  0  0  0  0  0
    9.6930  -16.7899   23.2096 C   0  0  2  0  0  0  0  0  0  0  0  0
    9.5317  -16.1744   21.9305 N   0  0  0  0  0  0  0  0  0  0  0  0
    9.9090  -15.7412   24.2404 C   0  0  0  0  0  0  0  0  0  0  0  0
   10.0818  -14.5157   23.9209 O   0  0  0  0  0  0  0  0  0  0  0  0
    9.9230  -16.1167   25.6215 N   0  0  0  0  0  0  0  0  0  0  0  0
   10.0203  -15.0720   26.6068 C   0  0  1  0  0  0  0  0  0  0  0  0
    8.8195  -14.1487   26.5807 C   0  0  0  0  0  0  0  0  0  0  0  0
    8.8670  -12.9174   27.8967 S   0  0  0  0  0  0  0  0  0  0  0  0
   10.0724  -15.6769   27.9532 C   0  0  0  0  0  0  0  0  0  0  0  0
    9.4783  -16.7570   28.1608 O   0  0  0  0  0  0  0  0  0  0  0  0
   10.7576  -15.0928   29.0039 O   0  0  0  0  0  0  0  0  0  0  0  0
  2  1  1  6
  3  2  1  0
  4  5  1  1
  4  2  1  0
  6  4  1  0
  6  7  2  0
  8  9  1  0
 10  9  1  6
 10 11  1  0
 10 12  1  0
 11  6  1  0
 12 13  2  0
 12 14  1  0
 14 15  1  0
 15 18  1  0
 15 16  1  1
 17 16  1  0
 18 19  2  0
 18 20  1  0
M  END
$$$$
