VSC.pdb
     RDKit          3D

 20 19  0  0  1  0  0  0  0  0999 V2000
   -4.6209  -27.0659   25.8261 C   0  0  0  0  0  0  0  0  0  0  0  0
   -3.4774  -26.4414   25.1049 C   0  0  1  0  0  0  0  0  0  0  0  0
   -2.8287  -27.4985   24.2303 C   0  0  0  0  0  0  0  0  0  0  0  0
   -3.8484  -25.2921   24.2214 C   0  0  2  0  0  0  0  0  0  0  0  0
   -2.6523  -24.8065   23.5831 N   0  0  0  0  0  0  0  0  0  0  0  0
   -4.6133  -24.2353   24.8965 C   0  0  0  0  0  0  0  0  0  0  0  0
   -4.0144  -23.5205   25.7384 O   0  0  0  0  0  0  0  0  0  0  0  0
   -8.9049  -23.7105   24.6881 O   0  0  0  0  0  0  0  0  0  0  0  0
   -8.0439  -22.6148   24.6531 C   0  0  0  0  0  0  0  0  0  0  0  0
   -6.7303  -22.9189   25.3168 C   0  0  2  0  0  0  0  0  0  0  0  0
   -5.9815  -23.9527   24.6754 N   0  0  0  0  0  0  0  0  0  0  0  0
   -6.9454  -23.2754   26.7436 C   0  0  0  0  0  0  0  0  0  0  0  0
   -7.2347  -24.4689   27.0979 O   0  0  0  0  0  0  0  0  0  0  0  0
   -6.8247  -22.2554   27.7405 N   0  0  0  0  0  0  0  0  0  0  0  0
   -7.0444  -22.6219   29.1149 C   0  0  1  0  0  0  0  0  0  0  0  0
   -6.3243  -21.6972   30.0748 C   0  0  0  0  0  0  0  0  0  0  0  0
   -4.5337  -21.7512   29.8725 S   0  0  0  0  0  0  0  0  0  0  0  0
   -8.4864  -22.5247   29.4193 C   0  0  0  0  0  0  0  0  0  0  0  0
   -8.9004  -22.8947   30.5394 O   0  0  0  0  0  0  0  0  0  0  0  0
   -9.4066  -22.0368   28.5084 O   0  0  0  0  0  0  0  0  0  0  0  0
  2  1  1  6
  3  2  1  0
  4  5  1  1
  4  2  1  0
  6  4  1  0
  6  7  2  0
  8  9  1  0
 10  9  1  6
 10 11  1  0
 10 12  1  0
 11  6  1  0
 12 13  2  0
 12 14  1  0
 14 15  1  0
 15 18  1  0
 15 16  1  1
 17 16  1  0
 18 19  2  0
 18 20  1  0
M  END
$$$$
