VSC.pdb
     RDKit          3D

 20 19  0  0  1  0  0  0  0  0999 V2000
   12.0725  -16.6618   22.2316 C   0  0  0  0  0  0  0  0  0  0  0  0
   11.3475  -16.5530   20.9353 C   0  0  1  0  0  0  0  0  0  0  0  0
   12.0968  -17.3692   19.8982 C   0  0  0  0  0  0  0  0  0  0  0  0
    9.9362  -17.0494   20.9649 C   0  0  2  0  0  0  0  0  0  0  0  0
    9.4072  -16.9914   19.6268 N   0  0  0  0  0  0  0  0  0  0  0  0
    9.0820  -16.3787   21.9540 C   0  0  0  0  0  0  0  0  0  0  0  0
    8.6917  -15.2117   21.7007 O   0  0  0  0  0  0  0  0  0  0  0  0
    7.6147  -18.3067   25.4649 O   0  0  0  0  0  0  0  0  0  0  0  0
    6.8710  -17.3157   24.8262 C   0  0  0  0  0  0  0  0  0  0  0  0
    7.7538  -16.3367   24.1046 C   0  0  2  0  0  0  0  0  0  0  0  0
    8.6582  -16.9430   23.1798 N   0  0  0  0  0  0  0  0  0  0  0  0
    8.5186  -15.5174   25.0807 C   0  0  0  0  0  0  0  0  0  0  0  0
    9.7695  -15.6986   25.2701 O   0  0  0  0  0  0  0  0  0  0  0  0
    7.8343  -14.5031   25.8234 N   0  0  0  0  0  0  0  0  0  0  0  0
    8.5989  -13.7087   26.7487 C   0  0  1  0  0  0  0  0  0  0  0  0
    7.7819  -12.5799   27.3432 C   0  0  0  0  0  0  0  0  0  0  0  0
    6.4018  -12.0973   26.2885 S   0  0  0  0  0  0  0  0  0  0  0  0
    9.0414  -14.5609   27.8709 C   0  0  0  0  0  0  0  0  0  0  0  0
    8.6710  -15.7541   27.9145 O   0  0  0  0  0  0  0  0  0  0  0  0
    9.8562  -14.0896   28.8851 O   0  0  0  0  0  0  0  0  0  0  0  0
  2  1  1  1
  3  2  1  0
  4  5  1  6
  4  2  1  0
  6  4  1  0
  6  7  2  0
  8  9  1  0
 10  9  1  1
 10 11  1  0
 10 12  1  0
 11  6  1  0
 12 13  2  0
 12 14  1  0
 14 15  1  0
 15 18  1  0
 15 16  1  1
 17 16  1  0
 18 19  2  0
 18 20  1  0
M  END
$$$$
