VSC.pdb
     RDKit          3D

 20 19  0  0  1  0  0  0  0  0999 V2000
    8.3578  -12.5523   19.0648 C   0  0  0  0  0  0  0  0  0  0  0  0
    8.5044  -13.3493   20.3142 C   0  0  1  0  0  0  0  0  0  0  0  0
    7.2511  -13.1640   21.1497 C   0  0  0  0  0  0  0  0  0  0  0  0
    8.6894  -14.8187   20.1001 C   0  0  2  0  0  0  0  0  0  0  0  0
    7.6988  -15.2674   19.1561 N   0  0  0  0  0  0  0  0  0  0  0  0
    8.7095  -15.6102   21.3373 C   0  0  0  0  0  0  0  0  0  0  0  0
    7.6129  -16.0227   21.7909 O   0  0  0  0  0  0  0  0  0  0  0  0
   12.1397  -17.5486   23.0362 O   0  0  0  0  0  0  0  0  0  0  0  0
   10.8065  -17.9176   23.2076 C   0  0  0  0  0  0  0  0  0  0  0  0
    9.9020  -16.7192   23.2711 C   0  0  2  0  0  0  0  0  0  0  0  0
    9.8722  -15.9500   22.0676 N   0  0  0  0  0  0  0  0  0  0  0  0
   10.2870  -15.8440   24.4090 C   0  0  0  0  0  0  0  0  0  0  0  0
   10.6451  -14.6305   24.2273 O   0  0  0  0  0  0  0  0  0  0  0  0
   10.2545  -16.3765   25.7372 N   0  0  0  0  0  0  0  0  0  0  0  0
   10.5063  -15.4786   26.8336 C   0  0  1  0  0  0  0  0  0  0  0  0
    9.4334  -14.4164   26.9598 C   0  0  0  0  0  0  0  0  0  0  0  0
    9.6625  -13.3736   28.4125 S   0  0  0  0  0  0  0  0  0  0  0  0
   10.5098  -16.2432   28.0971 C   0  0  0  0  0  0  0  0  0  0  0  0
    9.8660  -17.3126   28.1656 O   0  0  0  0  0  0  0  0  0  0  0  0
   11.2023  -15.8216   29.2185 O   0  0  0  0  0  0  0  0  0  0  0  0
  2  1  1  6
  3  2  1  0
  4  5  1  6
  4  2  1  0
  6  4  1  0
  6  7  2  0
  8  9  1  0
 10  9  1  6
 10 11  1  0
 10 12  1  0
 11  6  1  0
 12 13  2  0
 12 14  1  0
 14 15  1  0
 15 18  1  0
 15 16  1  1
 17 16  1  0
 18 19  2  0
 18 20  1  0
M  END
$$$$
