VSC.pdb
     RDKit          3D

 20 19  0  0  1  0  0  0  0  0999 V2000
    8.3157  -12.5352   20.7963 C   0  0  0  0  0  0  0  0  0  0  0  0
    7.7604  -13.5576   19.8668 C   0  0  1  0  0  0  0  0  0  0  0  0
    8.2022  -13.2123   18.4565 C   0  0  0  0  0  0  0  0  0  0  0  0
    8.2004  -14.9604   20.1455 C   0  0  2  0  0  0  0  0  0  0  0  0
    7.6725  -15.8146   19.1133 N   0  0  0  0  0  0  0  0  0  0  0  0
    7.8890  -15.4316   21.5014 C   0  0  0  0  0  0  0  0  0  0  0  0
    6.6913  -15.6973   21.7724 O   0  0  0  0  0  0  0  0  0  0  0  0
   10.5213  -17.3660   24.0971 O   0  0  0  0  0  0  0  0  0  0  0  0
    9.1338  -17.3695   24.2314 C   0  0  0  0  0  0  0  0  0  0  0  0
    8.5371  -16.0388   23.8683 C   0  0  2  0  0  0  0  0  0  0  0  0
    8.8346  -15.6129   22.5375 N   0  0  0  0  0  0  0  0  0  0  0  0
    8.9785  -14.9971   24.8322 C   0  0  0  0  0  0  0  0  0  0  0  0
   10.0389  -14.3110   24.6355 O   0  0  0  0  0  0  0  0  0  0  0  0
    8.1951  -14.7602   26.0064 N   0  0  0  0  0  0  0  0  0  0  0  0
    8.6518  -13.7601   26.9353 C   0  0  1  0  0  0  0  0  0  0  0  0
    7.5186  -12.8926   27.4437 C   0  0  0  0  0  0  0  0  0  0  0  0
    6.4083  -12.3653   26.1249 S   0  0  0  0  0  0  0  0  0  0  0  0
    9.2492  -14.4252   28.1109 C   0  0  0  0  0  0  0  0  0  0  0  0
    9.1894  -15.6704   28.2039 O   0  0  0  0  0  0  0  0  0  0  0  0
    9.8781  -13.7214   29.1228 O   0  0  0  0  0  0  0  0  0  0  0  0
  2  1  1  1
  3  2  1  0
  4  5  1  6
  4  2  1  0
  6  4  1  0
  6  7  2  0
  8  9  1  0
 10  9  1  1
 10 11  1  0
 10 12  1  0
 11  6  1  0
 12 13  2  0
 12 14  1  0
 14 15  1  0
 15 18  1  0
 15 16  1  1
 17 16  1  0
 18 19  2  0
 18 20  1  0
M  END
$$$$
