VSC.pdb
     RDKit          3D

 20 19  0  0  1  0  0  0  0  0999 V2000
    0.2020  -29.5971   28.8548 C   0  0  0  0  0  0  0  0  0  0  0  0
   -0.8869  -28.9371   28.0824 C   0  0  1  0  0  0  0  0  0  0  0  0
   -2.2192  -29.4080   28.6358 C   0  0  0  0  0  0  0  0  0  0  0  0
   -0.8778  -27.4419   28.1424 C   0  0  2  0  0  0  0  0  0  0  0  0
   -0.7650  -27.0443   29.5219 N   0  0  0  0  0  0  0  0  0  0  0  0
   -2.0034  -26.8040   27.4469 C   0  0  0  0  0  0  0  0  0  0  0  0
   -2.1539  -27.0466   26.2235 O   0  0  0  0  0  0  0  0  0  0  0  0
   -6.1440  -25.9468   26.2420 O   0  0  0  0  0  0  0  0  0  0  0  0
   -5.0335  -26.4925   26.8839 C   0  0  0  0  0  0  0  0  0  0  0  0
   -4.1222  -25.4251   27.4214 C   0  0  2  0  0  0  0  0  0  0  0  0
   -2.9411  -25.9308   28.0460 N   0  0  0  0  0  0  0  0  0  0  0  0
   -4.8559  -24.5567   28.3786 C   0  0  0  0  0  0  0  0  0  0  0  0
   -5.1106  -24.9419   29.5704 O   0  0  0  0  0  0  0  0  0  0  0  0
   -5.2852  -23.2596   27.9517 N   0  0  0  0  0  0  0  0  0  0  0  0
   -5.8452  -22.3728   28.9374 C   0  0  1  0  0  0  0  0  0  0  0  0
   -5.4858  -20.9251   28.6732 C   0  0  0  0  0  0  0  0  0  0  0  0
   -3.7261  -20.6000   28.8917 S   0  0  0  0  0  0  0  0  0  0  0  0
   -7.3185  -22.4680   28.8958 C   0  0  0  0  0  0  0  0  0  0  0  0
   -7.8644  -23.0825   27.9539 O   0  0  0  0  0  0  0  0  0  0  0  0
   -8.1272  -21.9005   29.8646 O   0  0  0  0  0  0  0  0  0  0  0  0
  2  1  1  1
  3  2  1  0
  4  5  1  1
  4  2  1  0
  6  4  1  0
  6  7  2  0
  8  9  1  0
 10  9  1  1
 10 11  1  0
 10 12  1  0
 11  6  1  0
 12 13  2  0
 12 14  1  0
 14 15  1  0
 15 18  1  0
 15 16  1  6
 17 16  1  0
 18 19  2  0
 18 20  1  0
M  END
$$$$
