VSC.pdb
     RDKit          3D

 20 19  0  0  1  0  0  0  0  0999 V2000
    8.2839  -12.5196   20.6103 C   0  0  0  0  0  0  0  0  0  0  0  0
    7.6259  -13.5429   19.7514 C   0  0  1  0  0  0  0  0  0  0  0  0
    7.9825  -13.2542   18.3048 C   0  0  0  0  0  0  0  0  0  0  0  0
    8.0289  -14.9546   20.0411 C   0  0  2  0  0  0  0  0  0  0  0  0
    7.4170  -15.8113   19.0586 N   0  0  0  0  0  0  0  0  0  0  0  0
    7.7721  -15.3833   21.4224 C   0  0  0  0  0  0  0  0  0  0  0  0
    6.5767  -15.5154   21.7858 O   0  0  0  0  0  0  0  0  0  0  0  0
   10.5237  -17.3594   23.9327 O   0  0  0  0  0  0  0  0  0  0  0  0
    9.1431  -17.3595   24.1257 C   0  0  0  0  0  0  0  0  0  0  0  0
    8.5285  -16.0427   23.7427 C   0  0  2  0  0  0  0  0  0  0  0  0
    8.7684  -15.6626   22.3867 N   0  0  0  0  0  0  0  0  0  0  0  0
    9.0078  -14.9680   24.6507 C   0  0  0  0  0  0  0  0  0  0  0  0
   10.0907  -14.3302   24.4179 O   0  0  0  0  0  0  0  0  0  0  0  0
    8.2357  -14.6432   25.8113 N   0  0  0  0  0  0  0  0  0  0  0  0
    8.7813  -13.6920   26.7437 C   0  0  1  0  0  0  0  0  0  0  0  0
    7.8159  -12.5621   27.0375 C   0  0  0  0  0  0  0  0  0  0  0  0
    6.0926  -13.0757   26.9087 S   0  0  0  0  0  0  0  0  0  0  0  0
    9.0566  -14.3712   28.0259 C   0  0  0  0  0  0  0  0  0  0  0  0
    8.6719  -15.5496   28.1877 O   0  0  0  0  0  0  0  0  0  0  0  0
    9.7286  -13.7521   29.0651 O   0  0  0  0  0  0  0  0  0  0  0  0
  2  1  1  1
  3  2  1  0
  4  5  1  6
  4  2  1  0
  6  4  1  0
  6  7  2  0
  8  9  1  0
 10  9  1  1
 10 11  1  0
 10 12  1  0
 11  6  1  0
 12 13  2  0
 12 14  1  0
 14 15  1  0
 15 18  1  0
 15 16  1  1
 17 16  1  0
 18 19  2  0
 18 20  1  0
M  END
$$$$
