VSC.pdb
     RDKit          3D

 20 19  0  0  1  0  0  0  0  0999 V2000
    8.1206  -11.8332   25.2178 C   0  0  0  0  0  0  0  0  0  0  0  0
    7.0354  -12.3925   26.0706 C   0  0  1  0  0  0  0  0  0  0  0  0
    6.0024  -11.3056   26.3042 C   0  0  0  0  0  0  0  0  0  0  0  0
    6.3240  -13.5709   25.4838 C   0  0  2  0  0  0  0  0  0  0  0  0
    5.1546  -13.8374   26.2809 N   0  0  0  0  0  0  0  0  0  0  0  0
    7.1739  -14.7533   25.2908 C   0  0  0  0  0  0  0  0  0  0  0  0
    7.3867  -15.4943   26.2827 O   0  0  0  0  0  0  0  0  0  0  0  0
    9.6423  -15.2855   21.8646 O   0  0  0  0  0  0  0  0  0  0  0  0
    9.1307  -16.4281   22.4777 C   0  0  0  0  0  0  0  0  0  0  0  0
    8.7479  -16.1674   23.9074 C   0  0  2  0  0  0  0  0  0  0  0  0
    7.7785  -15.1306   24.0690 N   0  0  0  0  0  0  0  0  0  0  0  0
    9.9553  -15.8468   24.7127 C   0  0  0  0  0  0  0  0  0  0  0  0
   10.4707  -14.6772   24.7076 O   0  0  0  0  0  0  0  0  0  0  0  0
   10.5512  -16.8746   25.5110 N   0  0  0  0  0  0  0  0  0  0  0  0
   11.2262  -16.4865   26.7216 C   0  0  1  0  0  0  0  0  0  0  0  0
   10.2820  -15.8571   27.7253 C   0  0  0  0  0  0  0  0  0  0  0  0
   10.6960  -14.1383   28.0784 S   0  0  0  0  0  0  0  0  0  0  0  0
   11.8030  -17.6857   27.3623 C   0  0  0  0  0  0  0  0  0  0  0  0
   11.4610  -18.8182   26.9583 O   0  0  0  0  0  0  0  0  0  0  0  0
   12.7144  -17.6074   28.4005 O   0  0  0  0  0  0  0  0  0  0  0  0
  2  1  1  6
  3  2  1  0
  4  5  1  1
  4  2  1  0
  6  4  1  0
  6  7  2  0
  8  9  1  0
 10  9  1  6
 10 11  1  0
 10 12  1  0
 11  6  1  0
 12 13  2  0
 12 14  1  0
 14 15  1  0
 15 18  1  0
 15 16  1  1
 17 16  1  0
 18 19  2  0
 18 20  1  0
M  END
$$$$
