VSC.pdb
     RDKit          3D

 20 19  0  0  1  0  0  0  0  0999 V2000
   15.9112  -20.1171   19.3514 C   0  0  0  0  0  0  0  0  0  0  0  0
   16.0088  -19.2145   18.1709 C   0  0  1  0  0  0  0  0  0  0  0  0
   16.6863  -19.9724   17.0440 C   0  0  0  0  0  0  0  0  0  0  0  0
   14.6955  -18.7180   17.6535 C   0  0  2  0  0  0  0  0  0  0  0  0
   14.9289  -18.0311   16.4096 N   0  0  0  0  0  0  0  0  0  0  0  0
   13.9297  -17.9199   18.6200 C   0  0  0  0  0  0  0  0  0  0  0  0
   14.3924  -16.8022   18.9591 O   0  0  0  0  0  0  0  0  0  0  0  0
   10.2900  -19.1896   20.6681 O   0  0  0  0  0  0  0  0  0  0  0  0
   10.4919  -17.8929   20.1979 C   0  0  0  0  0  0  0  0  0  0  0  0
   11.9520  -17.5409   20.1485 C   0  0  2  0  0  0  0  0  0  0  0  0
   12.7027  -18.3088   19.2063 N   0  0  0  0  0  0  0  0  0  0  0  0
   12.5604  -17.6795   21.4974 C   0  0  0  0  0  0  0  0  0  0  0  0
   13.6041  -18.3918   21.6898 O   0  0  0  0  0  0  0  0  0  0  0  0
   11.9603  -16.9978   22.6037 N   0  0  0  0  0  0  0  0  0  0  0  0
   12.7357  -16.8447   23.8066 C   0  0  1  0  0  0  0  0  0  0  0  0
   13.9986  -16.0411   23.5737 C   0  0  0  0  0  0  0  0  0  0  0  0
   14.9579  -15.8104   25.0826 S   0  0  0  0  0  0  0  0  0  0  0  0
   11.9362  -16.1138   24.8106 C   0  0  0  0  0  0  0  0  0  0  0  0
   11.0789  -15.2892   24.4260 O   0  0  0  0  0  0  0  0  0  0  0  0
   12.0978  -16.3054   26.1714 O   0  0  0  0  0  0  0  0  0  0  0  0
  2  1  1  1
  3  2  1  0
  4  5  1  6
  4  2  1  0
  6  4  1  0
  6  7  2  0
  8  9  1  0
 10  9  1  1
 10 11  1  0
 10 12  1  0
 11  6  1  0
 12 13  2  0
 12 14  1  0
 14 15  1  0
 15 18  1  0
 15 16  1  6
 17 16  1  0
 18 19  2  0
 18 20  1  0
M  END
$$$$
