VSC.pdb
     RDKit          3D

 20 19  0  0  1  0  0  0  0  0999 V2000
    3.2543  -22.4724   25.2525 C   0  0  0  0  0  0  0  0  0  0  0  0
    3.6898  -23.3973   24.1696 C   0  0  1  0  0  0  0  0  0  0  0  0
    2.4735  -24.1549   23.6697 C   0  0  0  0  0  0  0  0  0  0  0  0
    4.3182  -22.7257   22.9893 C   0  0  2  0  0  0  0  0  0  0  0  0
    4.5429  -23.7177   21.9699 N   0  0  0  0  0  0  0  0  0  0  0  0
    5.5196  -21.9436   23.3098 C   0  0  0  0  0  0  0  0  0  0  0  0
    6.5896  -22.5671   23.5209 O   0  0  0  0  0  0  0  0  0  0  0  0
    5.4909  -17.7135   23.7562 O   0  0  0  0  0  0  0  0  0  0  0  0
    6.6521  -18.3273   23.2892 C   0  0  0  0  0  0  0  0  0  0  0  0
    6.7332  -19.7644   23.7213 C   0  0  2  0  0  0  0  0  0  0  0  0
    5.5723  -20.5331   23.4015 N   0  0  0  0  0  0  0  0  0  0  0  0
    6.9960  -19.8483   25.1817 C   0  0  0  0  0  0  0  0  0  0  0  0
    6.0736  -19.6338   26.0401 O   0  0  0  0  0  0  0  0  0  0  0  0
    8.3141  -20.1770   25.6328 N   0  0  0  0  0  0  0  0  0  0  0  0
    8.5280  -20.3273   27.0482 C   0  0  1  0  0  0  0  0  0  0  0  0
    7.9166  -21.6048   27.5858 C   0  0  0  0  0  0  0  0  0  0  0  0
    7.0726  -21.3570   29.1595 S   0  0  0  0  0  0  0  0  0  0  0  0
    9.9789  -20.3952   27.3160 C   0  0  0  0  0  0  0  0  0  0  0  0
   10.7786  -20.3790   26.3553 O   0  0  0  0  0  0  0  0  0  0  0  0
   10.4947  -20.4767   28.5974 O   0  0  0  0  0  0  0  0  0  0  0  0
  2  1  1  1
  3  2  1  0
  4  5  1  6
  4  2  1  0
  6  4  1  0
  6  7  2  0
  8  9  1  0
 10  9  1  1
 10 11  1  0
 10 12  1  0
 11  6  1  0
 12 13  2  0
 12 14  1  0
 14 15  1  0
 15 18  1  0
 15 16  1  6
 17 16  1  0
 18 19  2  0
 18 20  1  0
M  END
$$$$
