VSC.pdb
     RDKit          3D

 20 19  0  0  1  0  0  0  0  0999 V2000
    8.5339  -12.5315   21.1423 C   0  0  0  0  0  0  0  0  0  0  0  0
    7.7285  -13.4549   20.2958 C   0  0  1  0  0  0  0  0  0  0  0  0
    7.9529  -13.0878   18.8404 C   0  0  0  0  0  0  0  0  0  0  0  0
    8.0693  -14.9035   20.4523 C   0  0  2  0  0  0  0  0  0  0  0  0
    7.3212  -15.6530   19.4764 N   0  0  0  0  0  0  0  0  0  0  0  0
    7.9113  -15.4155   21.8200 C   0  0  0  0  0  0  0  0  0  0  0  0
    6.7448  -15.5708   22.2599 O   0  0  0  0  0  0  0  0  0  0  0  0
   10.6878  -17.7697   23.7928 O   0  0  0  0  0  0  0  0  0  0  0  0
    9.3534  -17.6683   24.1832 C   0  0  0  0  0  0  0  0  0  0  0  0
    8.8300  -16.2697   24.0148 C   0  0  2  0  0  0  0  0  0  0  0  0
    8.9736  -15.7515   22.6912 N   0  0  0  0  0  0  0  0  0  0  0  0
    9.4916  -15.3533   24.9800 C   0  0  0  0  0  0  0  0  0  0  0  0
   10.6081  -14.7924   24.7111 O   0  0  0  0  0  0  0  0  0  0  0  0
    8.8601  -15.0960   26.2385 N   0  0  0  0  0  0  0  0  0  0  0  0
    9.5622  -14.2808   27.1947 C   0  0  1  0  0  0  0  0  0  0  0  0
    8.6359  -13.3285   27.9227 C   0  0  0  0  0  0  0  0  0  0  0  0
    7.4163  -12.5792   26.8267 S   0  0  0  0  0  0  0  0  0  0  0  0
   10.1784  -15.1515   28.2162 C   0  0  0  0  0  0  0  0  0  0  0  0
    9.9330  -16.3772   28.2024 O   0  0  0  0  0  0  0  0  0  0  0  0
   11.0237  -14.6629   29.1967 O   0  0  0  0  0  0  0  0  0  0  0  0
  2  1  1  1
  3  2  1  0
  4  5  1  6
  4  2  1  0
  6  4  1  0
  6  7  2  0
  8  9  1  0
 10  9  1  6
 10 11  1  0
 10 12  1  0
 11  6  1  0
 12 13  2  0
 12 14  1  0
 14 15  1  0
 15 18  1  0
 15 16  1  1
 17 16  1  0
 18 19  2  0
 18 20  1  0
M  END
$$$$
