VSC.pdb
     RDKit          3D

 20 19  0  0  1  0  0  0  0  0999 V2000
    8.6693  -12.6608   20.9530 C   0  0  0  0  0  0  0  0  0  0  0  0
    7.8185  -13.6115   20.1849 C   0  0  1  0  0  0  0  0  0  0  0  0
    7.6879  -13.0957   18.7635 C   0  0  0  0  0  0  0  0  0  0  0  0
    8.3523  -15.0074   20.1097 C   0  0  2  0  0  0  0  0  0  0  0  0
    7.5253  -15.7607   19.2029 N   0  0  0  0  0  0  0  0  0  0  0  0
    8.5213  -15.6591   21.4152 C   0  0  0  0  0  0  0  0  0  0  0  0
    7.4869  -15.9741   22.0549 O   0  0  0  0  0  0  0  0  0  0  0  0
   12.2651  -17.0817   22.9136 O   0  0  0  0  0  0  0  0  0  0  0  0
   11.0428  -17.6444   23.2776 C   0  0  0  0  0  0  0  0  0  0  0  0
    9.9384  -16.6251   23.2725 C   0  0  2  0  0  0  0  0  0  0  0  0
    9.7639  -15.9646   22.0179 N   0  0  0  0  0  0  0  0  0  0  0  0
   10.1672  -15.6137   24.3373 C   0  0  0  0  0  0  0  0  0  0  0  0
   10.7392  -14.4983   24.0876 O   0  0  0  0  0  0  0  0  0  0  0  0
    9.7353  -15.8996   25.6716 N   0  0  0  0  0  0  0  0  0  0  0  0
   10.0664  -14.9567   26.7076 C   0  0  1  0  0  0  0  0  0  0  0  0
    8.9194  -14.0144   27.0101 C   0  0  0  0  0  0  0  0  0  0  0  0
    9.2836  -12.9020   28.3812 S   0  0  0  0  0  0  0  0  0  0  0  0
   10.3654  -15.6897   27.9545 C   0  0  0  0  0  0  0  0  0  0  0  0
   10.0344  -16.8914   28.0508 O   0  0  0  0  0  0  0  0  0  0  0  0
   11.0022  -15.0966   29.0303 O   0  0  0  0  0  0  0  0  0  0  0  0
  2  1  1  1
  3  2  1  0
  4  5  1  6
  4  2  1  0
  6  4  1  0
  6  7  2  0
  8  9  1  0
 10  9  1  6
 10 11  1  0
 10 12  1  0
 11  6  1  0
 12 13  2  0
 12 14  1  0
 14 15  1  0
 15 18  1  0
 15 16  1  1
 17 16  1  0
 18 19  2  0
 18 20  1  0
M  END
$$$$
