VSC.pdb
     RDKit          3D

 20 19  0  0  1  0  0  0  0  0999 V2000
   -4.3121  -20.1809   23.1561 C   0  0  0  0  0  0  0  0  0  0  0  0
   -4.2050  -21.2867   24.1478 C   0  0  1  0  0  0  0  0  0  0  0  0
   -3.1461  -20.9128   25.1687 C   0  0  0  0  0  0  0  0  0  0  0  0
   -5.4675  -21.5800   24.8957 C   0  0  2  0  0  0  0  0  0  0  0  0
   -5.9381  -20.3549   25.4886 N   0  0  0  0  0  0  0  0  0  0  0  0
   -5.3548  -22.6828   25.8594 C   0  0  0  0  0  0  0  0  0  0  0  0
   -5.3119  -23.8554   25.4106 O   0  0  0  0  0  0  0  0  0  0  0  0
   -5.0087  -22.0581   30.0440 O   0  0  0  0  0  0  0  0  0  0  0  0
   -4.4223  -23.1850   29.4701 C   0  0  0  0  0  0  0  0  0  0  0  0
   -5.1247  -23.5942   28.2062 C   0  0  2  0  0  0  0  0  0  0  0  0
   -5.2901  -22.5328   27.2643 N   0  0  0  0  0  0  0  0  0  0  0  0
   -6.4506  -24.1862   28.5232 C   0  0  0  0  0  0  0  0  0  0  0  0
   -7.5261  -23.5010   28.4376 O   0  0  0  0  0  0  0  0  0  0  0  0
   -6.5198  -25.5558   28.9336 N   0  0  0  0  0  0  0  0  0  0  0  0
   -7.8074  -26.0925   29.2883 C   0  0  1  0  0  0  0  0  0  0  0  0
   -8.1845  -27.2848   28.4333 C   0  0  0  0  0  0  0  0  0  0  0  0
   -9.7101  -28.0729   28.9825 S   0  0  0  0  0  0  0  0  0  0  0  0
   -7.7705  -26.5584   30.6894 C   0  0  0  0  0  0  0  0  0  0  0  0
   -6.6918  -26.9713   31.1674 O   0  0  0  0  0  0  0  0  0  0  0  0
   -8.8902  -26.5569   31.5024 O   0  0  0  0  0  0  0  0  0  0  0  0
  2  1  1  6
  3  2  1  0
  4  5  1  1
  4  2  1  0
  6  4  1  0
  6  7  2  0
  8  9  1  0
 10  9  1  1
 10 11  1  0
 10 12  1  0
 11  6  1  0
 12 13  2  0
 12 14  1  0
 14 15  1  0
 15 18  1  0
 15 16  1  6
 17 16  1  0
 18 19  2  0
 18 20  1  0
M  END
$$$$
