VSC.pdb
     RDKit          3D

 20 19  0  0  1  0  0  0  0  0999 V2000
    8.5283  -12.7994   20.4486 C   0  0  0  0  0  0  0  0  0  0  0  0
    7.8883  -13.4037   19.2474 C   0  0  1  0  0  0  0  0  0  0  0  0
    7.8908  -12.3724   18.1341 C   0  0  0  0  0  0  0  0  0  0  0  0
    8.5695  -14.6300   18.7265 C   0  0  2  0  0  0  0  0  0  0  0  0
    7.9289  -15.0162   17.4959 N   0  0  0  0  0  0  0  0  0  0  0  0
    8.6627  -15.7269   19.6990 C   0  0  0  0  0  0  0  0  0  0  0  0
    7.6388  -16.4274   19.8969 O   0  0  0  0  0  0  0  0  0  0  0  0
   12.1659  -17.5800   20.9000 O   0  0  0  0  0  0  0  0  0  0  0  0
   10.9192  -18.1258   21.2019 C   0  0  0  0  0  0  0  0  0  0  0  0
    9.8933  -17.0585   21.4606 C   0  0  2  0  0  0  0  0  0  0  0  0
    9.8206  -16.0632   20.4383 N   0  0  0  0  0  0  0  0  0  0  0  0
   10.1500  -16.4052   22.7707 C   0  0  0  0  0  0  0  0  0  0  0  0
   11.0981  -15.5615   22.9223 O   0  0  0  0  0  0  0  0  0  0  0  0
    9.3137  -16.7315   23.8855 N   0  0  0  0  0  0  0  0  0  0  0  0
    9.6395  -16.1618   25.1666 C   0  0  1  0  0  0  0  0  0  0  0  0
    8.4032  -15.8586   25.9879 C   0  0  0  0  0  0  0  0  0  0  0  0
    7.1260  -15.0219   25.0294 S   0  0  0  0  0  0  0  0  0  0  0  0
   10.4457  -17.1294   25.9380 C   0  0  0  0  0  0  0  0  0  0  0  0
   10.6318  -18.2756   25.4750 O   0  0  0  0  0  0  0  0  0  0  0  0
   11.0087  -16.8175   27.1629 O   0  0  0  0  0  0  0  0  0  0  0  0
  2  1  1  1
  3  2  1  0
  4  5  1  6
  4  2  1  0
  6  4  1  0
  6  7  2  0
  8  9  1  0
 10  9  1  6
 10 11  1  0
 10 12  1  0
 11  6  1  0
 12 13  2  0
 12 14  1  0
 14 15  1  0
 15 18  1  0
 15 16  1  1
 17 16  1  0
 18 19  2  0
 18 20  1  0
M  END
$$$$
