VSC.pdb
     RDKit          3D

 20 19  0  0  1  0  0  0  0  0999 V2000
   17.3872  -15.2348   14.5387 C   0  0  0  0  0  0  0  0  0  0  0  0
   17.6155  -13.7755   14.7286 C   0  0  1  0  0  0  0  0  0  0  0  0
   18.0223  -13.1774   13.3944 C   0  0  0  0  0  0  0  0  0  0  0  0
   16.4235  -13.0149   15.2180 C   0  0  2  0  0  0  0  0  0  0  0  0
   16.7923  -11.6290   15.3482 N   0  0  0  0  0  0  0  0  0  0  0  0
   15.8137  -13.5677   16.4347 C   0  0  0  0  0  0  0  0  0  0  0  0
   16.5060  -13.5904   17.4828 O   0  0  0  0  0  0  0  0  0  0  0  0
   11.9033  -15.4051   16.5924 O   0  0  0  0  0  0  0  0  0  0  0  0
   12.4345  -14.7315   17.6912 C   0  0  0  0  0  0  0  0  0  0  0  0
   13.9372  -14.7290   17.6680 C   0  0  2  0  0  0  0  0  0  0  0  0
   14.4990  -14.0816   16.5252 N   0  0  0  0  0  0  0  0  0  0  0  0
   14.4551  -16.1194   17.7543 C   0  0  0  0  0  0  0  0  0  0  0  0
   14.8629  -16.7462   16.7176 O   0  0  0  0  0  0  0  0  0  0  0  0
   14.4965  -16.7677   19.0298 N   0  0  0  0  0  0  0  0  0  0  0  0
   14.9344  -18.1379   19.0795 C   0  0  1  0  0  0  0  0  0  0  0  0
   16.3802  -18.2913   18.6539 C   0  0  0  0  0  0  0  0  0  0  0  0
   17.4793  -17.1566   19.5225 S   0  0  0  0  0  0  0  0  0  0  0  0
   14.8373  -18.6291   20.4690 C   0  0  0  0  0  0  0  0  0  0  0  0
   14.4860  -17.8398   21.3726 O   0  0  0  0  0  0  0  0  0  0  0  0
   15.1216  -19.9382   20.8157 O   0  0  0  0  0  0  0  0  0  0  0  0
  2  1  1  6
  3  2  1  0
  4  5  1  1
  4  2  1  0
  6  4  1  0
  6  7  2  0
  8  9  1  0
 10  9  1  6
 10 11  1  0
 10 12  1  0
 11  6  1  0
 12 13  2  0
 12 14  1  0
 14 15  1  0
 15 18  1  0
 15 16  1  1
 17 16  1  0
 18 19  2  0
 18 20  1  0
M  END
$$$$
