VSC.pdb
     RDKit          3D

 20 19  0  0  1  0  0  0  0  0999 V2000
    8.0617  -12.3100   18.1993 C   0  0  0  0  0  0  0  0  0  0  0  0
    8.4131  -13.3159   19.2397 C   0  0  1  0  0  0  0  0  0  0  0  0
    7.2770  -13.3827   20.2436 C   0  0  0  0  0  0  0  0  0  0  0  0
    8.6362  -14.7011   18.7196 C   0  0  2  0  0  0  0  0  0  0  0  0
    7.5741  -15.0164   17.7997 N   0  0  0  0  0  0  0  0  0  0  0  0
    8.8151  -15.7163   19.7661 C   0  0  0  0  0  0  0  0  0  0  0  0
    7.8026  -16.3556   20.1462 O   0  0  0  0  0  0  0  0  0  0  0  0
   12.5626  -17.4101   20.9256 O   0  0  0  0  0  0  0  0  0  0  0  0
   11.3211  -18.0328   21.0444 C   0  0  0  0  0  0  0  0  0  0  0  0
   10.2355  -17.0486   21.3781 C   0  0  2  0  0  0  0  0  0  0  0  0
   10.0445  -16.0370   20.3875 N   0  0  0  0  0  0  0  0  0  0  0  0
   10.5066  -16.4100   22.6925 C   0  0  0  0  0  0  0  0  0  0  0  0
   11.1263  -15.2954   22.7788 O   0  0  0  0  0  0  0  0  0  0  0  0
   10.0616  -17.0617   23.8866 N   0  0  0  0  0  0  0  0  0  0  0  0
   10.3213  -16.4174   25.1472 C   0  0  1  0  0  0  0  0  0  0  0  0
    9.2740  -15.3753   25.4825 C   0  0  0  0  0  0  0  0  0  0  0  0
    7.5939  -15.9852   25.2477 S   0  0  0  0  0  0  0  0  0  0  0  0
   10.2887  -17.4268   26.2249 C   0  0  0  0  0  0  0  0  0  0  0  0
    9.9599  -18.6015   25.9516 O   0  0  0  0  0  0  0  0  0  0  0  0
   10.6097  -17.1238   27.5363 O   0  0  0  0  0  0  0  0  0  0  0  0
  2  1  1  6
  3  2  1  0
  4  5  1  1
  4  2  1  0
  6  4  1  0
  6  7  2  0
  8  9  1  0
 10  9  1  6
 10 11  1  0
 10 12  1  0
 11  6  1  0
 12 13  2  0
 12 14  1  0
 14 15  1  0
 15 18  1  0
 15 16  1  1
 17 16  1  0
 18 19  2  0
 18 20  1  0
M  END
$$$$
