DPD.pdb
     RDKit          3D

 24 24  0  0  1  0  0  0  0  0999 V2000
    9.5797  -16.3669   15.2188 N   0  0  0  0  0  0  0  0  0  0  0  0
    8.5632  -16.1345   16.2263 C   0  0  1  0  0  0  0  0  0  0  0  0
    7.8047  -17.4141   16.4290 C   0  0  0  0  0  0  0  0  0  0  0  0
    7.2373  -17.9338   15.1398 C   0  0  0  0  0  0  0  0  0  0  0  0
    6.2013  -17.3575   14.7079 O   0  0  0  0  0  0  0  0  0  0  0  0
    9.0987  -15.4717   17.4045 C   0  0  0  0  0  0  0  0  0  0  0  0
   10.3632  -15.6857   17.6365 O   0  0  0  0  0  0  0  0  0  0  0  0
    7.8089  -18.9793   14.4619 O   0  0  0  0  0  0  0  0  0  0  0  0
    8.4671  -14.6325   18.3406 N   0  0  0  0  0  0  0  0  0  0  0  0
    7.1276  -14.1623   18.5339 C   0  0  0  0  0  0  0  0  0  0  0  0
    7.3987  -12.6639   18.7652 C   0  0  0  0  0  0  0  0  0  0  0  0
    8.4940  -12.7476   19.8063 C   0  0  0  0  0  0  0  0  0  0  0  0
    9.2056  -14.0167   19.4579 C   0  0  1  0  0  0  0  0  0  0  0  0
    9.3068  -14.9678   20.5947 C   0  0  0  0  0  0  0  0  0  0  0  0
    8.3393  -15.7051   20.9097 O   0  0  0  0  0  0  0  0  0  0  0  0
   10.4986  -15.0894   21.3777 N   0  0  0  0  0  0  0  0  0  0  0  0
   10.9159  -16.3072   21.9997 C   0  0  1  0  0  0  0  0  0  0  0  0
   11.0193  -17.4634   21.0323 C   0  0  0  0  0  0  0  0  0  0  0  0
   11.4757  -18.7016   21.6550 C   0  0  0  0  0  0  0  0  0  0  0  0
   11.8032  -18.7731   22.8636 O   0  0  0  0  0  0  0  0  0  0  0  0
   12.1405  -16.1631   22.8197 C   0  0  0  0  0  0  0  0  0  0  0  0
   12.3198  -16.7422   23.9143 O   0  0  0  0  0  0  0  0  0  0  0  0
   11.5563  -19.8546   20.8939 O   0  0  0  0  0  0  0  0  0  0  0  0
   13.1489  -15.3388   22.3493 O   0  0  0  0  0  0  0  0  0  0  0  0
  2  1  1  6
  2  3  1  0
  3  4  1  0
  4  8  1  0
  5  4  2  0
  6  2  1  0
  7  6  2  0
  9  6  1  0
  9 13  1  0
 10 11  1  0
 10  9  1  0
 11 12  1  0
 12 13  1  0
 14 16  1  0
 13 14  1  1
 15 14  2  0
 17 16  1  0
 17 18  1  6
 19 18  1  0
 19 23  1  0
 20 19  2  0
 21 24  1  0
 21 17  1  0
 22 21  2  0
M  END
$$$$
