DPD.pdb
     RDKit          3D

 24 24  0  0  1  0  0  0  0  0999 V2000
   10.0383  -16.1208   20.4047 N   0  0  0  0  0  0  0  0  0  0  0  0
    8.7983  -15.8022   21.0851 C   0  0  1  0  0  0  0  0  0  0  0  0
    7.8017  -16.8796   20.7696 C   0  0  0  0  0  0  0  0  0  0  0  0
    7.7244  -17.1504   19.2949 C   0  0  0  0  0  0  0  0  0  0  0  0
    7.1895  -16.2546   18.5853 O   0  0  0  0  0  0  0  0  0  0  0  0
    9.0099  -15.4649   22.4836 C   0  0  0  0  0  0  0  0  0  0  0  0
   10.1890  -15.7589   22.9543 O   0  0  0  0  0  0  0  0  0  0  0  0
    8.2070  -18.3078   18.7409 O   0  0  0  0  0  0  0  0  0  0  0  0
    8.1405  -14.8698   23.4161 N   0  0  0  0  0  0  0  0  0  0  0  0
    6.8245  -14.3067   23.3544 C   0  0  0  0  0  0  0  0  0  0  0  0
    7.0553  -12.9965   24.1304 C   0  0  0  0  0  0  0  0  0  0  0  0
    7.7601  -13.5328   25.3577 C   0  0  0  0  0  0  0  0  0  0  0  0
    8.5051  -14.7211   24.8367 C   0  0  1  0  0  0  0  0  0  0  0  0
    8.2099  -15.9743   25.5779 C   0  0  0  0  0  0  0  0  0  0  0  0
    7.3309  -16.7749   25.1715 O   0  0  0  0  0  0  0  0  0  0  0  0
    8.9053  -16.3269   26.7781 N   0  0  0  0  0  0  0  0  0  0  0  0
    9.6942  -17.5112   26.9166 C   0  0  1  0  0  0  0  0  0  0  0  0
   10.5858  -17.7740   25.7252 C   0  0  0  0  0  0  0  0  0  0  0  0
   11.4132  -18.9668   25.8718 C   0  0  0  0  0  0  0  0  0  0  0  0
   11.3882  -19.6885   26.8973 O   0  0  0  0  0  0  0  0  0  0  0  0
   10.4444  -17.5763   28.1917 C   0  0  0  0  0  0  0  0  0  0  0  0
   10.3356  -18.5088   29.0188 O   0  0  0  0  0  0  0  0  0  0  0  0
   12.2669  -19.3311   24.8453 O   0  0  0  0  0  0  0  0  0  0  0  0
   11.3193  -16.5447   28.4887 O   0  0  0  0  0  0  0  0  0  0  0  0
  2  1  1  1
  2  3  1  0
  3  4  1  0
  4  8  1  0
  5  4  2  0
  6  2  1  0
  7  6  2  0
  9  6  1  0
  9 13  1  0
 10 11  1  0
 10  9  1  0
 11 12  1  0
 12 13  1  0
 14 16  1  0
 13 14  1  1
 15 14  2  0
 17 16  1  0
 17 18  1  6
 19 18  1  0
 19 23  1  0
 20 19  2  0
 21 24  1  0
 21 17  1  0
 22 21  2  0
M  END
$$$$
