DPD.pdb
     RDKit          3D

 24 24  0  0  1  0  0  0  0  0999 V2000
    8.9605  -15.0724   21.5619 N   0  0  0  0  0  0  0  0  0  0  0  0
    7.8681  -14.7194   22.4475 C   0  0  1  0  0  0  0  0  0  0  0  0
    6.8480  -15.8194   22.3930 C   0  0  0  0  0  0  0  0  0  0  0  0
    6.7081  -16.3793   21.0070 C   0  0  0  0  0  0  0  0  0  0  0  0
    7.0091  -15.6076   20.0551 O   0  0  0  0  0  0  0  0  0  0  0  0
    8.3372  -14.2963   23.7571 C   0  0  0  0  0  0  0  0  0  0  0  0
    9.5867  -14.5637   24.0134 O   0  0  0  0  0  0  0  0  0  0  0  0
    6.2766  -17.6605   20.7793 O   0  0  0  0  0  0  0  0  0  0  0  0
    7.6546  -13.6418   24.7988 N   0  0  0  0  0  0  0  0  0  0  0  0
    6.3477  -13.0747   24.9507 C   0  0  0  0  0  0  0  0  0  0  0  0
    6.7133  -11.7227   25.5915 C   0  0  0  0  0  0  0  0  0  0  0  0
    7.6372  -12.1908   26.6952 C   0  0  0  0  0  0  0  0  0  0  0  0
    8.2772  -13.4125   26.1152 C   0  0  1  0  0  0  0  0  0  0  0  0
    8.1313  -14.6180   26.9709 C   0  0  0  0  0  0  0  0  0  0  0  0
    7.2996  -15.5162   26.6873 O   0  0  0  0  0  0  0  0  0  0  0  0
    8.9226  -14.8130   28.1474 N   0  0  0  0  0  0  0  0  0  0  0  0
    9.7994  -15.9265   28.3356 C   0  0  1  0  0  0  0  0  0  0  0  0
   10.6413  -16.2322   27.1186 C   0  0  0  0  0  0  0  0  0  0  0  0
   11.5423  -17.3645   27.3061 C   0  0  0  0  0  0  0  0  0  0  0  0
   11.2102  -18.4002   27.9307 O   0  0  0  0  0  0  0  0  0  0  0  0
   10.6205  -15.8316   29.5643 C   0  0  0  0  0  0  0  0  0  0  0  0
   10.9408  -16.8158   30.2676 O   0  0  0  0  0  0  0  0  0  0  0  0
   12.8207  -17.3093   26.7789 O   0  0  0  0  0  0  0  0  0  0  0  0
   11.0613  -14.5802   29.9609 O   0  0  0  0  0  0  0  0  0  0  0  0
  2  1  1  6
  2  3  1  0
  3  4  1  0
  4  8  1  0
  5  4  2  0
  6  2  1  0
  7  6  2  0
  9  6  1  0
  9 13  1  0
 10 11  1  0
 10  9  1  0
 11 12  1  0
 12 13  1  0
 14 16  1  0
 13 14  1  1
 15 14  2  0
 17 16  1  0
 17 18  1  6
 19 18  1  0
 19 23  1  0
 20 19  2  0
 21 24  1  0
 21 17  1  0
 22 21  2  0
M  END
$$$$
