DPD.pdb
     RDKit          3D

 24 24  0  0  1  0  0  0  0  0999 V2000
    9.9495  -15.4048   14.9529 N   0  0  0  0  0  0  0  0  0  0  0  0
    8.8459  -15.4138   15.8931 C   0  0  1  0  0  0  0  0  0  0  0  0
    8.0697  -16.6828   15.6908 C   0  0  0  0  0  0  0  0  0  0  0  0
    7.6401  -16.8494   14.2618 C   0  0  0  0  0  0  0  0  0  0  0  0
    6.7217  -17.6868   14.0442 O   0  0  0  0  0  0  0  0  0  0  0  0
    9.2730  -15.0905   17.2449 C   0  0  0  0  0  0  0  0  0  0  0  0
   10.5102  -15.3905   17.5239 O   0  0  0  0  0  0  0  0  0  0  0  0
    8.2109  -16.1332   13.2417 O   0  0  0  0  0  0  0  0  0  0  0  0
    8.5608  -14.5035   18.3068 N   0  0  0  0  0  0  0  0  0  0  0  0
    7.2257  -14.0127   18.4787 C   0  0  0  0  0  0  0  0  0  0  0  0
    7.5205  -12.6614   19.1563 C   0  0  0  0  0  0  0  0  0  0  0  0
    8.4735  -13.1092   20.2434 C   0  0  0  0  0  0  0  0  0  0  0  0
    9.1761  -14.2776   19.6271 C   0  0  1  0  0  0  0  0  0  0  0  0
    9.0998  -15.5128   20.4489 C   0  0  0  0  0  0  0  0  0  0  0  0
    8.7344  -16.6041   19.9447 O   0  0  0  0  0  0  0  0  0  0  0  0
    9.4355  -15.5197   21.8402 N   0  0  0  0  0  0  0  0  0  0  0  0
   10.4128  -16.3913   22.4141 C   0  0  1  0  0  0  0  0  0  0  0  0
   11.7498  -16.3288   21.7126 C   0  0  0  0  0  0  0  0  0  0  0  0
   12.7462  -17.2298   22.2820 C   0  0  0  0  0  0  0  0  0  0  0  0
   12.6970  -18.4748   22.1376 O   0  0  0  0  0  0  0  0  0  0  0  0
   10.5520  -16.2399   23.8805 C   0  0  0  0  0  0  0  0  0  0  0  0
   10.8725  -17.1720   24.6513 O   0  0  0  0  0  0  0  0  0  0  0  0
   13.7962  -16.7048   23.0148 O   0  0  0  0  0  0  0  0  0  0  0  0
   10.3135  -14.9933   24.4345 O   0  0  0  0  0  0  0  0  0  0  0  0
  2  1  1  6
  2  3  1  0
  3  4  1  0
  4  8  1  0
  5  4  2  0
  6  2  1  0
  7  6  2  0
  9  6  1  0
  9 13  1  0
 10 11  1  0
 10  9  1  0
 11 12  1  0
 12 13  1  0
 14 16  1  0
 13 14  1  1
 15 14  2  0
 17 16  1  0
 17 18  1  6
 19 18  1  0
 19 23  1  0
 20 19  2  0
 21 24  1  0
 21 17  1  0
 22 21  2  0
M  END
$$$$
