DPD.pdb
     RDKit          3D

 24 24  0  0  1  0  0  0  0  0999 V2000
    9.3386  -15.4950   14.3496 N   0  0  0  0  0  0  0  0  0  0  0  0
    8.5738  -15.5006   15.5814 C   0  0  1  0  0  0  0  0  0  0  0  0
    8.0724  -16.8964   15.8140 C   0  0  0  0  0  0  0  0  0  0  0  0
    7.3714  -17.4438   14.6044 C   0  0  0  0  0  0  0  0  0  0  0  0
    6.4361  -16.7421   14.1302 O   0  0  0  0  0  0  0  0  0  0  0  0
    9.2808  -14.8457   16.6701 C   0  0  0  0  0  0  0  0  0  0  0  0
   10.5640  -14.7024   16.4933 O   0  0  0  0  0  0  0  0  0  0  0  0
    7.7232  -18.6422   14.0392 O   0  0  0  0  0  0  0  0  0  0  0  0
    8.7996  -14.3398   17.8916 N   0  0  0  0  0  0  0  0  0  0  0  0
    7.5107  -14.2518   18.5112 C   0  0  0  0  0  0  0  0  0  0  0  0
    7.5369  -12.7852   18.9807 C   0  0  0  0  0  0  0  0  0  0  0  0
    8.8836  -12.7489   19.6703 C   0  0  0  0  0  0  0  0  0  0  0  0
    9.6971  -13.7343   18.8920 C   0  0  1  0  0  0  0  0  0  0  0  0
   10.3130  -14.7895   19.7370 C   0  0  0  0  0  0  0  0  0  0  0  0
    9.7417  -15.8952   19.9104 O   0  0  0  0  0  0  0  0  0  0  0  0
   11.5736  -14.6001   20.3876 N   0  0  0  0  0  0  0  0  0  0  0  0
   12.2279  -15.6133   21.1553 C   0  0  1  0  0  0  0  0  0  0  0  0
   13.7021  -15.3481   21.3555 C   0  0  0  0  0  0  0  0  0  0  0  0
   14.4131  -15.0592   20.1145 C   0  0  0  0  0  0  0  0  0  0  0  0
   14.1585  -15.6436   19.0344 O   0  0  0  0  0  0  0  0  0  0  0  0
   11.5448  -15.9212   22.4326 C   0  0  0  0  0  0  0  0  0  0  0  0
   10.6012  -15.2455   22.9002 O   0  0  0  0  0  0  0  0  0  0  0  0
   15.4133  -14.1028   20.1122 O   0  0  0  0  0  0  0  0  0  0  0  0
   11.9740  -17.0222   23.1545 O   0  0  0  0  0  0  0  0  0  0  0  0
  2  1  1  6
  2  3  1  0
  3  4  1  0
  4  8  1  0
  5  4  2  0
  6  2  1  0
  7  6  2  0
  9  6  1  0
  9 13  1  0
 10 11  1  0
 10  9  1  0
 11 12  1  0
 12 13  1  0
 14 16  1  0
 13 14  1  1
 15 14  2  0
 17 16  1  0
 17 18  1  1
 19 18  1  0
 19 23  1  0
 20 19  2  0
 21 24  1  0
 21 17  1  0
 22 21  2  0
M  END
$$$$
