DPD.pdb
     RDKit          3D

 24 24  0  0  1  0  0  0  0  0999 V2000
    8.4044  -17.7665   16.7146 N   0  0  0  0  0  0  0  0  0  0  0  0
    7.6273  -17.2205   17.8101 C   0  0  1  0  0  0  0  0  0  0  0  0
    6.8731  -18.3467   18.4553 C   0  0  0  0  0  0  0  0  0  0  0  0
    5.9951  -19.0634   17.4706 C   0  0  0  0  0  0  0  0  0  0  0  0
    6.5103  -20.0440   16.8666 O   0  0  0  0  0  0  0  0  0  0  0  0
    8.4211  -16.3577   18.6703 C   0  0  0  0  0  0  0  0  0  0  0  0
    9.6822  -16.6731   18.7630 O   0  0  0  0  0  0  0  0  0  0  0  0
    4.7007  -18.6784   17.2345 O   0  0  0  0  0  0  0  0  0  0  0  0
    8.0440  -15.2311   19.4241 N   0  0  0  0  0  0  0  0  0  0  0  0
    6.8143  -14.5310   19.6483 C   0  0  0  0  0  0  0  0  0  0  0  0
    7.2896  -13.0800   19.4459 C   0  0  0  0  0  0  0  0  0  0  0  0
    8.5161  -13.0739   20.3326 C   0  0  0  0  0  0  0  0  0  0  0  0
    9.0133  -14.4823   20.2442 C   0  0  1  0  0  0  0  0  0  0  0  0
    9.1790  -15.1339   21.5689 C   0  0  0  0  0  0  0  0  0  0  0  0
    8.2125  -15.7026   22.1359 O   0  0  0  0  0  0  0  0  0  0  0  0
   10.4342  -15.1456   22.2563 N   0  0  0  0  0  0  0  0  0  0  0  0
   10.7917  -16.1255   23.2342 C   0  0  1  0  0  0  0  0  0  0  0  0
   10.5266  -17.5422   22.7803 C   0  0  0  0  0  0  0  0  0  0  0  0
   10.9531  -18.5500   23.7454 C   0  0  0  0  0  0  0  0  0  0  0  0
   11.3939  -18.2572   24.8826 O   0  0  0  0  0  0  0  0  0  0  0  0
   12.1668  -15.9630   23.7591 C   0  0  0  0  0  0  0  0  0  0  0  0
   13.1133  -15.4790   23.0991 O   0  0  0  0  0  0  0  0  0  0  0  0
   10.8744  -19.8897   23.4076 O   0  0  0  0  0  0  0  0  0  0  0  0
   12.4231  -16.3702   25.0576 O   0  0  0  0  0  0  0  0  0  0  0  0
  2  1  1  6
  2  3  1  0
  3  4  1  0
  4  8  1  0
  5  4  2  0
  6  2  1  0
  7  6  2  0
  9  6  1  0
  9 13  1  0
 10 11  1  0
 10  9  1  0
 11 12  1  0
 12 13  1  0
 14 16  1  0
 13 14  1  1
 15 14  2  0
 17 16  1  0
 17 18  1  6
 19 18  1  0
 19 23  1  0
 20 19  2  0
 21 24  1  0
 21 17  1  0
 22 21  2  0
M  END
$$$$
