DPD.pdb
     RDKit          3D

 24 24  0  0  1  0  0  0  0  0999 V2000
    9.9707  -15.7392   14.9258 N   0  0  0  0  0  0  0  0  0  0  0  0
    8.8759  -15.5720   15.8616 C   0  0  1  0  0  0  0  0  0  0  0  0
    7.9999  -16.7882   15.7784 C   0  0  0  0  0  0  0  0  0  0  0  0
    7.5751  -17.0715   14.3665 C   0  0  0  0  0  0  0  0  0  0  0  0
    6.8160  -16.2211   13.8257 O   0  0  0  0  0  0  0  0  0  0  0  0
    9.3361  -15.1586   17.1775 C   0  0  0  0  0  0  0  0  0  0  0  0
   10.5801  -15.4398   17.4453 O   0  0  0  0  0  0  0  0  0  0  0  0
    7.9861  -18.1930   13.6937 O   0  0  0  0  0  0  0  0  0  0  0  0
    8.6497  -14.5009   18.2147 N   0  0  0  0  0  0  0  0  0  0  0  0
    7.3139  -14.0143   18.3928 C   0  0  0  0  0  0  0  0  0  0  0  0
    7.6108  -12.6119   18.9561 C   0  0  0  0  0  0  0  0  0  0  0  0
    8.6043  -12.9644   20.0420 C   0  0  0  0  0  0  0  0  0  0  0  0
    9.3035  -14.1679   19.4932 C   0  0  1  0  0  0  0  0  0  0  0  0
    9.2711  -15.3378   20.4082 C   0  0  0  0  0  0  0  0  0  0  0  0
    8.6385  -16.3800   20.1041 O   0  0  0  0  0  0  0  0  0  0  0  0
    9.9517  -15.3347   21.6672 N   0  0  0  0  0  0  0  0  0  0  0  0
   10.6429  -16.4691   22.1959 C   0  0  1  0  0  0  0  0  0  0  0  0
   11.6331  -17.0676   21.2239 C   0  0  0  0  0  0  0  0  0  0  0  0
   12.2767  -18.2781   21.7233 C   0  0  0  0  0  0  0  0  0  0  0  0
   12.0077  -18.7781   22.8417 O   0  0  0  0  0  0  0  0  0  0  0  0
   11.2521  -16.2248   23.5233 C   0  0  0  0  0  0  0  0  0  0  0  0
   12.0622  -15.3011   23.7602 O   0  0  0  0  0  0  0  0  0  0  0  0
   13.2262  -18.9136   20.9425 O   0  0  0  0  0  0  0  0  0  0  0  0
   10.9062  -17.0675   24.5663 O   0  0  0  0  0  0  0  0  0  0  0  0
  2  1  1  6
  2  3  1  0
  3  4  1  0
  4  8  1  0
  5  4  2  0
  6  2  1  0
  7  6  2  0
  9  6  1  0
  9 13  1  0
 10 11  1  0
 10  9  1  0
 11 12  1  0
 12 13  1  0
 14 16  1  0
 13 14  1  1
 15 14  2  0
 17 16  1  0
 17 18  1  6
 19 18  1  0
 19 23  1  0
 20 19  2  0
 21 24  1  0
 21 17  1  0
 22 21  2  0
M  END
$$$$
