DPD.pdb
     RDKit          3D

 24 24  0  0  1  0  0  0  0  0999 V2000
    9.3371  -17.0735   16.2210 N   0  0  0  0  0  0  0  0  0  0  0  0
    8.3349  -16.6190   17.1650 C   0  0  1  0  0  0  0  0  0  0  0  0
    7.4043  -17.7630   17.4459 C   0  0  0  0  0  0  0  0  0  0  0  0
    6.8118  -18.3201   16.1839 C   0  0  0  0  0  0  0  0  0  0  0  0
    6.9016  -19.5684   16.0231 O   0  0  0  0  0  0  0  0  0  0  0  0
    8.9235  -15.9309   18.3026 C   0  0  0  0  0  0  0  0  0  0  0  0
   10.1932  -16.1553   18.4921 O   0  0  0  0  0  0  0  0  0  0  0  0
    6.2038  -17.5211   15.2505 O   0  0  0  0  0  0  0  0  0  0  0  0
    8.3389  -15.0575   19.2380 N   0  0  0  0  0  0  0  0  0  0  0  0
    7.0130  -14.5672   19.4713 C   0  0  0  0  0  0  0  0  0  0  0  0
    7.3079  -13.0657   19.6464 C   0  0  0  0  0  0  0  0  0  0  0  0
    8.4439  -13.1306   20.6444 C   0  0  0  0  0  0  0  0  0  0  0  0
    9.1283  -14.4172   20.3056 C   0  0  1  0  0  0  0  0  0  0  0  0
    9.2665  -15.3354   21.4652 C   0  0  0  0  0  0  0  0  0  0  0  0
    8.3925  -16.2043   21.7105 O   0  0  0  0  0  0  0  0  0  0  0  0
   10.3900  -15.2757   22.3499 N   0  0  0  0  0  0  0  0  0  0  0  0
   10.5690  -16.1562   23.4620 C   0  0  1  0  0  0  0  0  0  0  0  0
   12.0203  -16.3618   23.8295 C   0  0  0  0  0  0  0  0  0  0  0  0
   12.8565  -16.7463   22.6972 C   0  0  0  0  0  0  0  0  0  0  0  0
   12.5917  -17.7255   21.9594 O   0  0  0  0  0  0  0  0  0  0  0  0
    9.7477  -15.7955   24.6402 C   0  0  0  0  0  0  0  0  0  0  0  0
    9.1041  -14.7273   24.7419 O   0  0  0  0  0  0  0  0  0  0  0  0
   13.9930  -16.0102   22.4118 O   0  0  0  0  0  0  0  0  0  0  0  0
    9.6867  -16.6922   25.6937 O   0  0  0  0  0  0  0  0  0  0  0  0
  2  1  1  6
  2  3  1  0
  3  4  1  0
  4  8  1  0
  5  4  2  0
  6  2  1  0
  7  6  2  0
  9  6  1  0
  9 13  1  0
 10 11  1  0
 10  9  1  0
 11 12  1  0
 12 13  1  0
 14 16  1  0
 13 14  1  1
 15 14  2  0
 17 16  1  0
 17 18  1  1
 19 18  1  0
 19 23  1  0
 20 19  2  0
 21 24  1  0
 21 17  1  0
 22 21  2  0
M  END
$$$$
