DPD.pdb
     RDKit          3D

 24 24  0  0  1  0  0  0  0  0999 V2000
    9.9470  -15.5741   15.0006 N   0  0  0  0  0  0  0  0  0  0  0  0
    8.9923  -15.7092   16.0834 C   0  0  1  0  0  0  0  0  0  0  0  0
    8.4983  -17.1267   16.0970 C   0  0  0  0  0  0  0  0  0  0  0  0
    7.8729  -17.5097   14.7869 C   0  0  0  0  0  0  0  0  0  0  0  0
    6.7518  -16.9930   14.5259 O   0  0  0  0  0  0  0  0  0  0  0  0
    9.4944  -15.1559   17.3308 C   0  0  0  0  0  0  0  0  0  0  0  0
   10.7875  -15.2105   17.4828 O   0  0  0  0  0  0  0  0  0  0  0  0
    8.4816  -18.3749   13.9149 O   0  0  0  0  0  0  0  0  0  0  0  0
    8.8042  -14.5686   18.4070 N   0  0  0  0  0  0  0  0  0  0  0  0
    7.4234  -14.3763   18.7375 C   0  0  0  0  0  0  0  0  0  0  0  0
    7.4504  -12.8945   19.1568 C   0  0  0  0  0  0  0  0  0  0  0  0
    8.6228  -12.9085   20.1138 C   0  0  0  0  0  0  0  0  0  0  0  0
    9.5121  -13.9743   19.5554 C   0  0  1  0  0  0  0  0  0  0  0  0
    9.8649  -15.0261   20.5433 C   0  0  0  0  0  0  0  0  0  0  0  0
    9.1736  -16.0697   20.6523 O   0  0  0  0  0  0  0  0  0  0  0  0
   10.9974  -14.9032   21.4097 N   0  0  0  0  0  0  0  0  0  0  0  0
   11.3279  -15.8590   22.4203 C   0  0  1  0  0  0  0  0  0  0  0  0
   12.7963  -15.8628   22.7771 C   0  0  0  0  0  0  0  0  0  0  0  0
   13.6742  -15.9977   21.6194 C   0  0  0  0  0  0  0  0  0  0  0  0
   13.4579  -16.8177   20.6954 O   0  0  0  0  0  0  0  0  0  0  0  0
   10.4686  -15.7692   23.6229 C   0  0  0  0  0  0  0  0  0  0  0  0
    9.6589  -14.8390   23.8345 O   0  0  0  0  0  0  0  0  0  0  0  0
   14.7968  -15.1945   21.5216 O   0  0  0  0  0  0  0  0  0  0  0  0
   10.5649  -16.7735   24.5716 O   0  0  0  0  0  0  0  0  0  0  0  0
  2  1  1  6
  2  3  1  0
  3  4  1  0
  4  8  1  0
  5  4  2  0
  6  2  1  0
  7  6  2  0
  9  6  1  0
  9 13  1  0
 10 11  1  0
 10  9  1  0
 11 12  1  0
 12 13  1  0
 14 16  1  0
 13 14  1  1
 15 14  2  0
 17 16  1  0
 17 18  1  1
 19 18  1  0
 19 23  1  0
 20 19  2  0
 21 24  1  0
 21 17  1  0
 22 21  2  0
M  END
$$$$
