DPD.pdb
     RDKit          3D

 24 24  0  0  1  0  0  0  0  0999 V2000
    8.4645  -17.3007   16.5923 N   0  0  0  0  0  0  0  0  0  0  0  0
    7.7009  -17.1538   17.8160 C   0  0  1  0  0  0  0  0  0  0  0  0
    7.1268  -18.4942   18.1726 C   0  0  0  0  0  0  0  0  0  0  0  0
    6.3833  -19.1047   17.0199 C   0  0  0  0  0  0  0  0  0  0  0  0
    5.3749  -18.4718   16.6020 O   0  0  0  0  0  0  0  0  0  0  0  0
    8.4420  -16.4403   18.8437 C   0  0  0  0  0  0  0  0  0  0  0  0
    9.7359  -16.4279   18.6889 O   0  0  0  0  0  0  0  0  0  0  0  0
    6.7733  -20.2871   16.4463 O   0  0  0  0  0  0  0  0  0  0  0  0
    7.9839  -15.7582   19.9858 N   0  0  0  0  0  0  0  0  0  0  0  0
    6.7112  -15.5971   20.6239 C   0  0  0  0  0  0  0  0  0  0  0  0
    6.7179  -14.0748   20.8581 C   0  0  0  0  0  0  0  0  0  0  0  0
    8.0823  -13.9074   21.4915 C   0  0  0  0  0  0  0  0  0  0  0  0
    8.8954  -14.9880   20.8513 C   0  0  1  0  0  0  0  0  0  0  0  0
    9.5579  -15.8871   21.8309 C   0  0  0  0  0  0  0  0  0  0  0  0
    9.0045  -16.9489   22.2120 O   0  0  0  0  0  0  0  0  0  0  0  0
   10.8450  -15.5908   22.3821 N   0  0  0  0  0  0  0  0  0  0  0  0
   11.5338  -16.4526   23.2915 C   0  0  1  0  0  0  0  0  0  0  0  0
   13.0121  -16.1551   23.3879 C   0  0  0  0  0  0  0  0  0  0  0  0
   13.7310  -17.0674   24.2710 C   0  0  0  0  0  0  0  0  0  0  0  0
   13.7754  -18.3058   24.0770 O   0  0  0  0  0  0  0  0  0  0  0  0
   10.8990  -16.5318   24.6270 C   0  0  0  0  0  0  0  0  0  0  0  0
   10.2409  -15.6013   25.1434 O   0  0  0  0  0  0  0  0  0  0  0  0
   14.3972  -16.5612   25.3733 O   0  0  0  0  0  0  0  0  0  0  0  0
   11.0408  -17.7046   25.3496 O   0  0  0  0  0  0  0  0  0  0  0  0
  2  1  1  6
  2  3  1  0
  3  4  1  0
  4  8  1  0
  5  4  2  0
  6  2  1  0
  7  6  2  0
  9  6  1  0
  9 13  1  0
 10 11  1  0
 10  9  1  0
 11 12  1  0
 12 13  1  0
 14 16  1  0
 13 14  1  1
 15 14  2  0
 17 16  1  0
 17 18  1  1
 19 18  1  0
 19 23  1  0
 20 19  2  0
 21 24  1  0
 21 17  1  0
 22 21  2  0
M  END
$$$$
