DPD.pdb
     RDKit          3D

 24 24  0  0  1  0  0  0  0  0999 V2000
    9.1371  -17.5667   16.9590 N   0  0  0  0  0  0  0  0  0  0  0  0
    8.1218  -16.8783   17.7320 C   0  0  1  0  0  0  0  0  0  0  0  0
    7.0761  -17.8800   18.1277 C   0  0  0  0  0  0  0  0  0  0  0  0
    6.3589  -18.4364   16.9318 C   0  0  0  0  0  0  0  0  0  0  0  0
    6.7802  -18.0678   15.8010 O   0  0  0  0  0  0  0  0  0  0  0  0
    8.6965  -16.0505   18.7802 C   0  0  0  0  0  0  0  0  0  0  0  0
    9.9236  -16.3416   19.1088 O   0  0  0  0  0  0  0  0  0  0  0  0
    5.3011  -19.2997   17.0538 O   0  0  0  0  0  0  0  0  0  0  0  0
    8.1370  -14.9802   19.5019 N   0  0  0  0  0  0  0  0  0  0  0  0
    6.8744  -14.3031   19.4887 C   0  0  0  0  0  0  0  0  0  0  0  0
    7.3535  -12.8393   19.4944 C   0  0  0  0  0  0  0  0  0  0  0  0
    8.3492  -12.8880   20.6331 C   0  0  0  0  0  0  0  0  0  0  0  0
    8.8820  -14.2845   20.5668 C   0  0  1  0  0  0  0  0  0  0  0  0
    8.7592  -15.0245   21.8491 C   0  0  0  0  0  0  0  0  0  0  0  0
    7.6990  -15.6287   22.1487 O   0  0  0  0  0  0  0  0  0  0  0  0
    9.8313  -15.0849   22.7953 N   0  0  0  0  0  0  0  0  0  0  0  0
   10.1662  -16.2599   23.5377 C   0  0  1  0  0  0  0  0  0  0  0  0
   10.3035  -17.4908   22.6719 C   0  0  0  0  0  0  0  0  0  0  0  0
   10.6953  -18.6829   23.4165 C   0  0  0  0  0  0  0  0  0  0  0  0
   10.8868  -18.6767   24.6560 O   0  0  0  0  0  0  0  0  0  0  0  0
   11.3330  -16.0819   24.4320 C   0  0  0  0  0  0  0  0  0  0  0  0
   11.3020  -16.2778   25.6674 O   0  0  0  0  0  0  0  0  0  0  0  0
   10.8671  -19.8787   22.7416 O   0  0  0  0  0  0  0  0  0  0  0  0
   12.5312  -15.6744   23.8699 O   0  0  0  0  0  0  0  0  0  0  0  0
  2  1  1  1
  2  3  1  0
  3  4  1  0
  4  8  1  0
  5  4  2  0
  6  2  1  0
  7  6  2  0
  9  6  1  0
  9 13  1  0
 10 11  1  0
 10  9  1  0
 11 12  1  0
 12 13  1  0
 14 16  1  0
 13 14  1  1
 15 14  2  0
 17 16  1  0
 17 18  1  6
 19 18  1  0
 19 23  1  0
 20 19  2  0
 21 24  1  0
 21 17  1  0
 22 21  2  0
M  END
$$$$
