GRG.pdb
     RDKit          3D

 20 19  0  0  1  0  0  0  0  0999 V2000
    9.1879  -20.3404   20.1967 N   0  0  0  0  0  0  0  0  0  0  0  0
    8.3031  -19.2910   20.6469 C   0  0  0  0  0  0  0  0  0  0  0  0
    9.0621  -18.0370   20.9959 C   0  0  0  0  0  0  0  0  0  0  0  0
   10.3115  -18.0031   20.8923 O   0  0  0  0  0  0  0  0  0  0  0  0
    6.4081  -13.5429   17.5298 N   0  0  0  0  0  0  0  0  0  0  0  0
    7.8173  -13.4254   17.5282 C   0  0  0  0  0  0  0  0  0  0  0  0
    8.4830  -13.7054   16.4514 N   0  0  0  0  0  0  0  0  0  0  0  0
    8.4913  -13.0015   18.7046 N   0  0  0  0  0  0  0  0  0  0  0  0
    7.7961  -12.8553   19.9642 C   0  0  0  0  0  0  0  0  0  0  0  0
    7.5092  -14.2672   20.5135 C   0  0  0  0  0  0  0  0  0  0  0  0
    8.2094  -14.4774   21.8092 C   0  0  0  0  0  0  0  0  0  0  0  0
    9.0288  -15.6601   21.9276 C   0  0  2  0  0  0  0  0  0  0  0  0
    8.3943  -16.8837   21.4415 N   0  0  0  0  0  0  0  0  0  0  0  0
    9.9785  -15.9515   22.9532 C   0  0  0  0  0  0  0  0  0  0  0  0
    9.4784  -16.2421   24.1215 O   0  0  0  0  0  0  0  0  0  0  0  0
    9.5197  -13.6556   16.4072 N   0  0  0  0  0  0  0  0  0  0  0  0
   11.3797  -15.9797   22.9225 C   0  0  0  0  0  0  0  0  0  0  0  0
   12.1778  -16.3297   24.1161 C   0  0  0  0  0  0  0  0  0  0  0  0
   13.6283  -16.3315   23.8311 O   0  0  0  0  0  0  0  0  0  0  0  0
   14.5637  -16.4910   24.8216 O   0  0  0  0  0  0  0  0  0  0  0  0
  1  2  1  0
  2  3  1  0
  3 13  1  0
  4  3  2  0
  5  6  1  0
  6  8  1  0
  7  6  2  0
  9  8  1  0
 10  9  1  0
 12 11  1  1
 11 10  1  0
 12 14  1  0
 13 12  1  0
 14 16  1  0
 14 15  2  0
 16 17  1  0
 17 18  1  0
 18 19  1  0
 20 18  2  0
M  END
$$$$
