GRG.pdb
     RDKit          3D

 20 19  0  0  1  0  0  0  0  0999 V2000
    7.6992  -20.2937   21.1695 N   0  0  0  0  0  0  0  0  0  0  0  0
    7.1607  -19.1788   21.9137 C   0  0  0  0  0  0  0  0  0  0  0  0
    8.1161  -18.0139   21.9370 C   0  0  0  0  0  0  0  0  0  0  0  0
    9.3157  -18.1718   21.6071 O   0  0  0  0  0  0  0  0  0  0  0  0
    9.3899  -13.6244   17.2033 N   0  0  0  0  0  0  0  0  0  0  0  0
    7.9862  -13.5003   17.3225 C   0  0  0  0  0  0  0  0  0  0  0  0
    7.2837  -13.1479   16.2913 N   0  0  0  0  0  0  0  0  0  0  0  0
    7.3580  -13.7629   18.5692 N   0  0  0  0  0  0  0  0  0  0  0  0
    8.1231  -13.8954   19.7893 C   0  0  0  0  0  0  0  0  0  0  0  0
    7.1332  -14.1490   20.9439 C   0  0  0  0  0  0  0  0  0  0  0  0
    7.8599  -14.2987   22.2334 C   0  0  0  0  0  0  0  0  0  0  0  0
    8.5404  -15.5513   22.4612 C   0  0  2  0  0  0  0  0  0  0  0  0
    7.6901  -16.7323   22.3250 N   0  0  0  0  0  0  0  0  0  0  0  0
    9.6113  -15.7971   23.3731 C   0  0  0  0  0  0  0  0  0  0  0  0
    9.2684  -15.9438   24.6222 O   0  0  0  0  0  0  0  0  0  0  0  0
    6.2479  -13.0747   16.3202 N   0  0  0  0  0  0  0  0  0  0  0  0
   10.9915  -15.9097   23.1556 C   0  0  0  0  0  0  0  0  0  0  0  0
   11.9340  -16.1836   24.2605 C   0  0  0  0  0  0  0  0  0  0  0  0
   13.3422  -16.1251   23.8143 O   0  0  0  0  0  0  0  0  0  0  0  0
   14.3888  -16.2425   24.6930 O   0  0  0  0  0  0  0  0  0  0  0  0
  1  2  1  0
  2  3  1  0
  3 13  1  0
  4  3  2  0
  5  6  1  0
  6  8  1  0
  7  6  2  0
  9  8  1  0
 10  9  1  0
 12 11  1  1
 11 10  1  0
 12 14  1  0
 13 12  1  0
 14 16  1  0
 14 15  2  0
 16 17  1  0
 17 18  1  0
 18 19  1  0
 20 18  2  0
M  END
$$$$
