GRG.pdb
     RDKit          3D

 20 19  0  0  1  0  0  0  0  0999 V2000
    9.0809  -18.4529   20.1336 N   0  0  0  0  0  0  0  0  0  0  0  0
    8.6115  -19.8008   20.3562 C   0  0  0  0  0  0  0  0  0  0  0  0
    8.0187  -19.9618   21.7320 C   0  0  0  0  0  0  0  0  0  0  0  0
    7.6552  -18.9559   22.3870 O   0  0  0  0  0  0  0  0  0  0  0  0
    2.1743  -22.5793   25.8372 N   0  0  0  0  0  0  0  0  0  0  0  0
    2.8582  -23.5685   26.5812 C   0  0  0  0  0  0  0  0  0  0  0  0
    2.4699  -23.8474   27.7864 N   0  0  0  0  0  0  0  0  0  0  0  0
    3.9633  -24.2482   26.0027 N   0  0  0  0  0  0  0  0  0  0  0  0
    4.4683  -23.8954   24.6942 C   0  0  0  0  0  0  0  0  0  0  0  0
    5.5129  -22.7760   24.8756 C   0  0  0  0  0  0  0  0  0  0  0  0
    6.1902  -22.4774   23.5851 C   0  0  0  0  0  0  0  0  0  0  0  0
    7.2623  -21.5113   23.6152 C   0  0  2  0  0  0  0  0  0  0  0  0
    7.8589  -21.2325   22.3103 N   0  0  0  0  0  0  0  0  0  0  0  0
    8.2113  -21.3091   24.6627 C   0  0  0  0  0  0  0  0  0  0  0  0
    9.3192  -21.9886   24.5615 O   0  0  0  0  0  0  0  0  0  0  0  0
    2.9468  -24.5571   28.3763 N   0  0  0  0  0  0  0  0  0  0  0  0
    8.1583  -20.4933   25.8014 C   0  0  0  0  0  0  0  0  0  0  0  0
    9.2871  -20.4082   26.7516 C   0  0  0  0  0  0  0  0  0  0  0  0
    9.0212  -21.1608   27.9959 O   0  0  0  0  0  0  0  0  0  0  0  0
    9.9101  -21.1759   29.0404 O   0  0  0  0  0  0  0  0  0  0  0  0
  1  2  1  0
  2  3  1  0
  3 13  1  0
  4  3  2  0
  5  6  1  0
  6  8  1  0
  7  6  2  0
  9  8  1  0
 10  9  1  0
 12 11  1  6
 11 10  1  0
 12 14  1  0
 13 12  1  0
 14 16  1  0
 14 15  2  0
 16 17  1  0
 17 18  1  0
 18 19  1  0
 20 18  2  0
M  END
$$$$
