GRG.pdb
     RDKit          3D

 20 19  0  0  1  0  0  0  0  0999 V2000
   10.1456  -18.9713   19.3581 N   0  0  0  0  0  0  0  0  0  0  0  0
    9.6578  -19.0703   20.7142 C   0  0  0  0  0  0  0  0  0  0  0  0
   10.0793  -17.8848   21.5433 C   0  0  0  0  0  0  0  0  0  0  0  0
   11.2619  -17.4695   21.4998 O   0  0  0  0  0  0  0  0  0  0  0  0
    7.9987  -14.5093   18.3684 N   0  0  0  0  0  0  0  0  0  0  0  0
    7.7934  -13.2939   19.0615 C   0  0  0  0  0  0  0  0  0  0  0  0
    7.4514  -12.2303   18.4036 N   0  0  0  0  0  0  0  0  0  0  0  0
    7.9629  -13.2482   20.4711 N   0  0  0  0  0  0  0  0  0  0  0  0
    8.2109  -14.4459   21.2429 C   0  0  0  0  0  0  0  0  0  0  0  0
    8.3294  -14.0382   22.7251 C   0  0  0  0  0  0  0  0  0  0  0  0
    8.4108  -15.2426   23.5947 C   0  0  0  0  0  0  0  0  0  0  0  0
    9.4902  -16.1659   23.3370 C   0  0  2  0  0  0  0  0  0  0  0  0
    9.1652  -17.2202   22.3784 N   0  0  0  0  0  0  0  0  0  0  0  0
   10.4868  -16.6061   24.2600 C   0  0  0  0  0  0  0  0  0  0  0  0
   10.3443  -17.8216   24.7094 O   0  0  0  0  0  0  0  0  0  0  0  0
    7.3480  -11.3019   18.8582 N   0  0  0  0  0  0  0  0  0  0  0  0
   11.6112  -15.9475   24.7767 C   0  0  0  0  0  0  0  0  0  0  0  0
   12.7994  -15.6659   23.9443 C   0  0  0  0  0  0  0  0  0  0  0  0
   13.7952  -16.7563   24.0140 O   0  0  0  0  0  0  0  0  0  0  0  0
   15.1202  -16.5153   24.2743 O   0  0  0  0  0  0  0  0  0  0  0  0
  1  2  1  0
  2  3  1  0
  3 13  1  0
  4  3  2  0
  5  6  1  0
  6  8  1  0
  7  6  2  0
  9  8  1  0
 10  9  1  0
 12 11  1  1
 11 10  1  0
 12 14  1  0
 13 12  1  0
 14 16  1  0
 14 15  2  0
 16 17  1  0
 17 18  1  0
 18 19  1  0
 20 18  2  0
M  END
$$$$
