GRG.pdb
     RDKit          3D

 20 19  0  0  1  0  0  0  0  0999 V2000
    6.9844  -12.5911   19.4786 N   0  0  0  0  0  0  0  0  0  0  0  0
    8.2584  -12.5890   18.7978 C   0  0  0  0  0  0  0  0  0  0  0  0
    9.1540  -13.6949   19.2931 C   0  0  0  0  0  0  0  0  0  0  0  0
    8.7700  -14.4579   20.2114 O   0  0  0  0  0  0  0  0  0  0  0  0
    8.0876  -17.7035   15.2153 N   0  0  0  0  0  0  0  0  0  0  0  0
    8.7685  -18.6374   16.0301 C   0  0  0  0  0  0  0  0  0  0  0  0
    8.2487  -19.8071   16.2367 N   0  0  0  0  0  0  0  0  0  0  0  0
   10.0150  -18.2872   16.6144 N   0  0  0  0  0  0  0  0  0  0  0  0
   10.2710  -16.9523   17.1084 C   0  0  0  0  0  0  0  0  0  0  0  0
   11.7571  -16.8734   17.5118 C   0  0  0  0  0  0  0  0  0  0  0  0
   12.1023  -15.5019   17.9735 C   0  0  0  0  0  0  0  0  0  0  0  0
   11.3523  -14.9775   19.0899 C   0  0  2  0  0  0  0  0  0  0  0  0
   10.4309  -13.8975   18.7426 N   0  0  0  0  0  0  0  0  0  0  0  0
   11.7921  -14.8565   20.4430 C   0  0  0  0  0  0  0  0  0  0  0  0
   12.2790  -13.6945   20.7779 O   0  0  0  0  0  0  0  0  0  0  0  0
    8.7199  -20.5339   16.8102 N   0  0  0  0  0  0  0  0  0  0  0  0
   11.7919  -15.7858   21.4925 C   0  0  0  0  0  0  0  0  0  0  0  0
   12.2480  -15.4259   22.8513 C   0  0  0  0  0  0  0  0  0  0  0  0
   12.2428  -16.5893   23.7634 O   0  0  0  0  0  0  0  0  0  0  0  0
   12.7917  -16.5312   25.0190 O   0  0  0  0  0  0  0  0  0  0  0  0
  1  2  1  0
  2  3  1  0
  3 13  1  0
  4  3  2  0
  5  6  1  0
  6  8  1  0
  7  6  2  0
  9  8  1  0
 10  9  1  0
 12 11  1  6
 11 10  1  0
 12 14  1  0
 13 12  1  0
 14 16  1  0
 14 15  2  0
 16 17  1  0
 17 18  1  0
 18 19  1  0
 20 18  2  0
M  END
$$$$
