GRG.pdb
     RDKit          3D

 20 19  0  0  1  0  0  0  0  0999 V2000
    9.1291  -18.4266   17.8722 N   0  0  0  0  0  0  0  0  0  0  0  0
    8.1888  -18.1137   18.9232 C   0  0  0  0  0  0  0  0  0  0  0  0
    8.7751  -17.1520   19.9241 C   0  0  0  0  0  0  0  0  0  0  0  0
    9.9616  -16.7625   19.8086 O   0  0  0  0  0  0  0  0  0  0  0  0
    5.1682  -12.6802   26.8496 N   0  0  0  0  0  0  0  0  0  0  0  0
    6.3570  -12.0154   26.4693 C   0  0  0  0  0  0  0  0  0  0  0  0
    6.6363  -10.8575   26.9815 N   0  0  0  0  0  0  0  0  0  0  0  0
    7.2348  -12.6211   25.5309 N   0  0  0  0  0  0  0  0  0  0  0  0
    6.7404  -13.4759   24.4743 C   0  0  0  0  0  0  0  0  0  0  0  0
    7.9422  -13.8993   23.6062 C   0  0  0  0  0  0  0  0  0  0  0  0
    7.5111  -14.8415   22.5387 C   0  0  0  0  0  0  0  0  0  0  0  0
    8.4922  -15.7881   22.0639 C   0  0  2  0  0  0  0  0  0  0  0  0
    8.0131  -16.6711   21.0023 N   0  0  0  0  0  0  0  0  0  0  0  0
    9.5199  -16.4205   22.8273 C   0  0  0  0  0  0  0  0  0  0  0  0
    9.1217  -17.3448   23.6559 O   0  0  0  0  0  0  0  0  0  0  0  0
    7.5382  -10.3727   26.8068 N   0  0  0  0  0  0  0  0  0  0  0  0
   10.9067  -16.2168   22.8419 C   0  0  0  0  0  0  0  0  0  0  0  0
   11.7535  -16.7032   23.9512 C   0  0  0  0  0  0  0  0  0  0  0  0
   13.1886  -16.4473   23.7054 O   0  0  0  0  0  0  0  0  0  0  0  0
   14.1519  -16.7612   24.6301 O   0  0  0  0  0  0  0  0  0  0  0  0
  1  2  1  0
  2  3  1  0
  3 13  1  0
  4  3  2  0
  5  6  1  0
  6  8  1  0
  7  6  2  0
  9  8  1  0
 10  9  1  0
 12 11  1  1
 11 10  1  0
 12 14  1  0
 13 12  1  0
 14 16  1  0
 14 15  2  0
 16 17  1  0
 17 18  1  0
 18 19  1  0
 20 18  2  0
M  END
$$$$
