GRG.pdb
     RDKit          3D

 20 19  0  0  1  0  0  0  0  0999 V2000
   11.1222  -21.8779   22.1231 N   0  0  0  0  0  0  0  0  0  0  0  0
   11.9360  -21.8889   23.3166 C   0  0  0  0  0  0  0  0  0  0  0  0
   12.2330  -20.4925   23.7985 C   0  0  0  0  0  0  0  0  0  0  0  0
   12.1368  -19.5180   23.0149 O   0  0  0  0  0  0  0  0  0  0  0  0
   12.8919  -21.7074   30.9219 N   0  0  0  0  0  0  0  0  0  0  0  0
   13.9648  -20.7996   31.0791 C   0  0  0  0  0  0  0  0  0  0  0  0
   14.3192  -20.4255   32.2688 N   0  0  0  0  0  0  0  0  0  0  0  0
   14.6450  -20.3062   29.9338 N   0  0  0  0  0  0  0  0  0  0  0  0
   14.0933  -19.2408   29.1262 C   0  0  0  0  0  0  0  0  0  0  0  0
   13.2669  -19.8838   27.9944 C   0  0  0  0  0  0  0  0  0  0  0  0
   12.6764  -18.8372   27.1175 C   0  0  0  0  0  0  0  0  0  0  0  0
   12.9380  -18.9435   25.7018 C   0  0  2  0  0  0  0  0  0  0  0  0
   12.6212  -20.2494   25.1269 N   0  0  0  0  0  0  0  0  0  0  0  0
   13.9825  -18.3037   24.9678 C   0  0  0  0  0  0  0  0  0  0  0  0
   15.1945  -18.6852   25.2594 O   0  0  0  0  0  0  0  0  0  0  0  0
   15.0809  -19.7388   32.4342 N   0  0  0  0  0  0  0  0  0  0  0  0
   13.9311  -17.3193   23.9712 C   0  0  0  0  0  0  0  0  0  0  0  0
   14.6500  -16.0353   24.1073 C   0  0  0  0  0  0  0  0  0  0  0  0
   16.1148  -16.2077   24.0070 O   0  0  0  0  0  0  0  0  0  0  0  0
   16.8030  -15.9249   22.8547 O   0  0  0  0  0  0  0  0  0  0  0  0
  1  2  1  0
  2  3  1  0
  3 13  1  0
  4  3  2  0
  5  6  1  0
  6  8  1  0
  7  6  2  0
  9  8  1  0
 10  9  1  0
 12 11  1  1
 11 10  1  0
 12 14  1  0
 13 12  1  0
 14 16  1  0
 14 15  2  0
 16 17  1  0
 17 18  1  0
 18 19  1  0
 20 18  2  0
M  END
$$$$
