GRG.pdb
     RDKit          3D

 20 19  0  0  1  0  0  0  0  0999 V2000
    7.1670  -20.5511   24.1338 N   0  0  0  0  0  0  0  0  0  0  0  0
    6.9685  -19.2028   24.6127 C   0  0  0  0  0  0  0  0  0  0  0  0
    8.0551  -18.2770   24.1303 C   0  0  0  0  0  0  0  0  0  0  0  0
    9.2522  -18.6510   24.1300 O   0  0  0  0  0  0  0  0  0  0  0  0
    8.3849  -12.0595   18.9941 N   0  0  0  0  0  0  0  0  0  0  0  0
    7.6373  -13.1706   18.5399 C   0  0  0  0  0  0  0  0  0  0  0  0
    7.7466  -13.5563   17.3068 N   0  0  0  0  0  0  0  0  0  0  0  0
    6.7741  -13.8546   19.4370 N   0  0  0  0  0  0  0  0  0  0  0  0
    6.9270  -13.7393   20.8705 C   0  0  0  0  0  0  0  0  0  0  0  0
    8.0524  -14.6993   21.3055 C   0  0  0  0  0  0  0  0  0  0  0  0
    8.1595  -14.7428   22.7887 C   0  0  0  0  0  0  0  0  0  0  0  0
    8.7296  -15.9346   23.3705 C   0  0  2  0  0  0  0  0  0  0  0  0
    7.7565  -16.9827   23.6719 N   0  0  0  0  0  0  0  0  0  0  0  0
    9.8512  -16.0125   24.2507 C   0  0  0  0  0  0  0  0  0  0  0  0
    9.6480  -15.5847   25.4653 O   0  0  0  0  0  0  0  0  0  0  0  0
    7.2164  -14.3642   16.9256 N   0  0  0  0  0  0  0  0  0  0  0  0
   11.1559  -16.4765   24.0327 C   0  0  0  0  0  0  0  0  0  0  0  0
   12.2807  -16.0750   24.9032 C   0  0  0  0  0  0  0  0  0  0  0  0
   13.5403  -16.7514   24.5274 O   0  0  0  0  0  0  0  0  0  0  0  0
   14.7074  -16.5517   25.2197 O   0  0  0  0  0  0  0  0  0  0  0  0
  1  2  1  0
  2  3  1  0
  3 13  1  0
  4  3  2  0
  5  6  1  0
  6  8  1  0
  7  6  2  0
  9  8  1  0
 10  9  1  0
 12 11  1  1
 11 10  1  0
 12 14  1  0
 13 12  1  0
 14 16  1  0
 14 15  2  0
 16 17  1  0
 17 18  1  0
 18 19  1  0
 20 18  2  0
M  END
$$$$
