GRG.pdb
     RDKit          3D

 20 19  0  0  1  0  0  0  0  0999 V2000
    7.8883  -11.6180   19.8672 N   0  0  0  0  0  0  0  0  0  0  0  0
    7.9217  -12.8097   19.0515 C   0  0  0  0  0  0  0  0  0  0  0  0
    8.3477  -14.0156   19.8481 C   0  0  0  0  0  0  0  0  0  0  0  0
    8.7695  -13.8830   21.0217 O   0  0  0  0  0  0  0  0  0  0  0  0
   10.0088  -21.8290   19.1385 N   0  0  0  0  0  0  0  0  0  0  0  0
    8.7286  -22.1566   19.6419 C   0  0  0  0  0  0  0  0  0  0  0  0
    8.1478  -23.2494   19.2551 N   0  0  0  0  0  0  0  0  0  0  0  0
    8.0902  -21.2873   20.5663 N   0  0  0  0  0  0  0  0  0  0  0  0
    7.4861  -20.0435   20.1427 C   0  0  0  0  0  0  0  0  0  0  0  0
    8.6211  -19.0444   19.8409 C   0  0  0  0  0  0  0  0  0  0  0  0
    8.0645  -17.7377   19.3982 C   0  0  0  0  0  0  0  0  0  0  0  0
    8.6314  -16.5491   19.9897 C   0  0  2  0  0  0  0  0  0  0  0  0
    8.2827  -15.3082   19.3007 N   0  0  0  0  0  0  0  0  0  0  0  0
    9.8949  -16.4306   20.6442 C   0  0  0  0  0  0  0  0  0  0  0  0
   10.8858  -16.0365   19.8943 O   0  0  0  0  0  0  0  0  0  0  0  0
    7.2014  -23.5248   19.5831 N   0  0  0  0  0  0  0  0  0  0  0  0
   10.2622  -16.6687   21.9759 C   0  0  0  0  0  0  0  0  0  0  0  0
   11.6315  -16.4044   22.4651 C   0  0  0  0  0  0  0  0  0  0  0  0
   11.7697  -16.6953   23.9079 O   0  0  0  0  0  0  0  0  0  0  0  0
   12.9620  -16.5448   24.5690 O   0  0  0  0  0  0  0  0  0  0  0  0
  1  2  1  0
  2  3  1  0
  3 13  1  0
  4  3  2  0
  5  6  1  0
  6  8  1  0
  7  6  2  0
  9  8  1  0
 10  9  1  0
 12 11  1  6
 11 10  1  0
 12 14  1  0
 13 12  1  0
 14 16  1  0
 14 15  2  0
 16 17  1  0
 17 18  1  0
 18 19  1  0
 20 18  2  0
M  END
$$$$
