GRG.pdb
     RDKit          3D

 20 19  0  0  1  0  0  0  0  0999 V2000
    7.2115  -21.1625   23.9404 N   0  0  0  0  0  0  0  0  0  0  0  0
    6.7083  -19.9285   24.4978 C   0  0  0  0  0  0  0  0  0  0  0  0
    7.4150  -18.7297   23.9199 C   0  0  0  0  0  0  0  0  0  0  0  0
    8.5170  -18.8642   23.3365 O   0  0  0  0  0  0  0  0  0  0  0  0
    8.6485  -14.3188   18.6594 N   0  0  0  0  0  0  0  0  0  0  0  0
    8.6855  -13.1133   19.3979 C   0  0  0  0  0  0  0  0  0  0  0  0
    9.1970  -12.0488   18.8628 N   0  0  0  0  0  0  0  0  0  0  0  0
    8.1622  -13.0783   20.7181 N   0  0  0  0  0  0  0  0  0  0  0  0
    7.6432  -14.2666   21.3583 C   0  0  0  0  0  0  0  0  0  0  0  0
    7.2078  -13.8832   22.7869 C   0  0  0  0  0  0  0  0  0  0  0  0
    6.6547  -15.0654   23.5009 C   0  0  0  0  0  0  0  0  0  0  0  0
    7.5398  -16.1897   23.6915 C   0  0  2  0  0  0  0  0  0  0  0  0
    6.8610  -17.4421   24.0187 N   0  0  0  0  0  0  0  0  0  0  0  0
    8.8576  -16.1660   24.2408 C   0  0  0  0  0  0  0  0  0  0  0  0
    8.9410  -15.8272   25.4968 O   0  0  0  0  0  0  0  0  0  0  0  0
    9.2079  -11.1303   19.3479 N   0  0  0  0  0  0  0  0  0  0  0  0
   10.0992  -16.4479   23.6544 C   0  0  0  0  0  0  0  0  0  0  0  0
   11.3662  -15.9688   24.2456 C   0  0  0  0  0  0  0  0  0  0  0  0
   12.5459  -16.4835   23.5184 O   0  0  0  0  0  0  0  0  0  0  0  0
   13.4977  -17.2572   24.1321 O   0  0  0  0  0  0  0  0  0  0  0  0
  1  2  1  0
  2  3  1  0
  3 13  1  0
  4  3  2  0
  5  6  1  0
  6  8  1  0
  7  6  2  0
  9  8  1  0
 10  9  1  0
 12 11  1  1
 11 10  1  0
 12 14  1  0
 13 12  1  0
 14 16  1  0
 14 15  2  0
 16 17  1  0
 17 18  1  0
 18 19  1  0
 20 18  2  0
M  END
$$$$
