GRG.pdb
     RDKit          3D

 20 19  0  0  1  0  0  0  0  0999 V2000
   12.6774  -19.2137   19.7689 N   0  0  0  0  0  0  0  0  0  0  0  0
   11.3526  -18.9231   20.2660 C   0  0  0  0  0  0  0  0  0  0  0  0
   11.3737  -17.8151   21.2870 C   0  0  0  0  0  0  0  0  0  0  0  0
   12.4582  -17.4413   21.7939 O   0  0  0  0  0  0  0  0  0  0  0  0
    8.1227  -11.8115   19.8343 N   0  0  0  0  0  0  0  0  0  0  0  0
    7.5290  -12.9168   19.1820 C   0  0  0  0  0  0  0  0  0  0  0  0
    7.7054  -13.0801   17.9079 N   0  0  0  0  0  0  0  0  0  0  0  0
    6.7455  -13.8382   19.9269 N   0  0  0  0  0  0  0  0  0  0  0  0
    7.0918  -14.2034   21.2828 C   0  0  0  0  0  0  0  0  0  0  0  0
    8.5167  -14.7921   21.2656 C   0  0  0  0  0  0  0  0  0  0  0  0
    8.8764  -15.3323   22.6042 C   0  0  0  0  0  0  0  0  0  0  0  0
   10.0853  -16.1164   22.6919 C   0  0  2  0  0  0  0  0  0  0  0  0
   10.1888  -17.1779   21.6924 N   0  0  0  0  0  0  0  0  0  0  0  0
   10.8063  -16.4595   23.8757 C   0  0  0  0  0  0  0  0  0  0  0  0
   10.3781  -17.5125   24.5138 O   0  0  0  0  0  0  0  0  0  0  0  0
    7.3365  -13.9044   17.3945 N   0  0  0  0  0  0  0  0  0  0  0  0
   11.9135  -15.8503   24.4823 C   0  0  0  0  0  0  0  0  0  0  0  0
   12.4944  -16.3663   25.7395 C   0  0  0  0  0  0  0  0  0  0  0  0
   13.7070  -17.1765   25.4974 O   0  0  0  0  0  0  0  0  0  0  0  0
   14.9674  -16.6425   25.5840 O   0  0  0  0  0  0  0  0  0  0  0  0
  1  2  1  0
  2  3  1  0
  3 13  1  0
  4  3  2  0
  5  6  1  0
  6  8  1  0
  7  6  2  0
  9  8  1  0
 10  9  1  0
 12 11  1  1
 11 10  1  0
 12 14  1  0
 13 12  1  0
 14 16  1  0
 14 15  2  0
 16 17  1  0
 17 18  1  0
 18 19  1  0
 20 18  2  0
M  END
$$$$
