GRG.pdb
     RDKit          3D

 20 19  0  0  1  0  0  0  0  0999 V2000
    7.9605  -18.0998   17.9061 N   0  0  0  0  0  0  0  0  0  0  0  0
    6.7679  -18.8068   18.3117 C   0  0  0  0  0  0  0  0  0  0  0  0
    6.3812  -18.4748   19.7296 C   0  0  0  0  0  0  0  0  0  0  0  0
    7.1185  -17.7435   20.4327 O   0  0  0  0  0  0  0  0  0  0  0  0
    2.8569  -22.4982   23.6418 N   0  0  0  0  0  0  0  0  0  0  0  0
    1.5252  -22.1243   23.9363 C   0  0  0  0  0  0  0  0  0  0  0  0
    0.8715  -22.7554   24.8612 N   0  0  0  0  0  0  0  0  0  0  0  0
    0.9156  -21.0613   23.2179 N   0  0  0  0  0  0  0  0  0  0  0  0
    1.6034  -20.3825   22.1419 C   0  0  0  0  0  0  0  0  0  0  0  0
    2.5739  -19.3620   22.7695 C   0  0  0  0  0  0  0  0  0  0  0  0
    3.2493  -18.5627   21.7120 C   0  0  0  0  0  0  0  0  0  0  0  0
    4.6870  -18.6646   21.6304 C   0  0  2  0  0  0  0  0  0  0  0  0
    5.1943  -18.9717   20.2945 N   0  0  0  0  0  0  0  0  0  0  0  0
    5.5751  -19.1515   22.6368 C   0  0  0  0  0  0  0  0  0  0  0  0
    5.5118  -20.4314   22.8762 O   0  0  0  0  0  0  0  0  0  0  0  0
   -0.1268  -22.5600   25.0714 N   0  0  0  0  0  0  0  0  0  0  0  0
    6.5195  -18.4813   23.4267 C   0  0  0  0  0  0  0  0  0  0  0  0
    7.3317  -19.1894   24.4382 C   0  0  0  0  0  0  0  0  0  0  0  0
    8.6011  -19.6950   23.8738 O   0  0  0  0  0  0  0  0  0  0  0  0
    9.7161  -18.9033   23.7680 O   0  0  0  0  0  0  0  0  0  0  0  0
  1  2  1  0
  2  3  1  0
  3 13  1  0
  4  3  2  0
  5  6  1  0
  6  8  1  0
  7  6  2  0
  9  8  1  0
 10  9  1  0
 12 11  1  1
 11 10  1  0
 12 14  1  0
 13 12  1  0
 14 16  1  0
 14 15  2  0
 16 17  1  0
 17 18  1  0
 18 19  1  0
 20 18  2  0
M  END
$$$$
