GRG.pdb
     RDKit          3D

 20 19  0  0  1  0  0  0  0  0999 V2000
   10.3061  -20.6580   20.5318 N   0  0  0  0  0  0  0  0  0  0  0  0
   10.2044  -20.3363   21.9363 C   0  0  0  0  0  0  0  0  0  0  0  0
   10.7549  -18.9654   22.2329 C   0  0  0  0  0  0  0  0  0  0  0  0
   11.8249  -18.5838   21.7017 O   0  0  0  0  0  0  0  0  0  0  0  0
    7.2206  -12.1316   19.9102 N   0  0  0  0  0  0  0  0  0  0  0  0
    7.6860  -13.2194   19.1356 C   0  0  0  0  0  0  0  0  0  0  0  0
    7.5183  -13.2094   17.8500 N   0  0  0  0  0  0  0  0  0  0  0  0
    8.3332  -14.3124   19.7714 N   0  0  0  0  0  0  0  0  0  0  0  0
    8.6672  -14.2801   21.1781 C   0  0  0  0  0  0  0  0  0  0  0  0
    9.3138  -15.6316   21.5426 C   0  0  0  0  0  0  0  0  0  0  0  0
    9.6052  -15.6967   23.0000 C   0  0  0  0  0  0  0  0  0  0  0  0
   10.5112  -16.7299   23.4422 C   0  0  2  0  0  0  0  0  0  0  0  0
   10.0881  -18.0874   23.1042 N   0  0  0  0  0  0  0  0  0  0  0  0
   11.3128  -16.7256   24.6239 C   0  0  0  0  0  0  0  0  0  0  0  0
   11.0458  -17.6607   25.4921 O   0  0  0  0  0  0  0  0  0  0  0  0
    7.7980  -14.0058   17.2444 N   0  0  0  0  0  0  0  0  0  0  0  0
   12.3547  -15.8759   25.0204 C   0  0  0  0  0  0  0  0  0  0  0  0
   13.4694  -15.5344   24.1122 C   0  0  0  0  0  0  0  0  0  0  0  0
   14.5683  -16.5202   24.1894 O   0  0  0  0  0  0  0  0  0  0  0  0
   14.3764  -17.7858   24.6819 O   0  0  0  0  0  0  0  0  0  0  0  0
  1  2  1  0
  2  3  1  0
  3 13  1  0
  4  3  2  0
  5  6  1  0
  6  8  1  0
  7  6  2  0
  9  8  1  0
 10  9  1  0
 12 11  1  1
 11 10  1  0
 12 14  1  0
 13 12  1  0
 14 16  1  0
 14 15  2  0
 16 17  1  0
 17 18  1  0
 18 19  1  0
 20 18  2  0
M  END
$$$$
