GRG.pdb
     RDKit          3D

 20 19  0  0  1  0  0  0  0  0999 V2000
    7.1901  -21.3963   25.5766 N   0  0  0  0  0  0  0  0  0  0  0  0
    6.8553  -19.9917   25.5342 C   0  0  0  0  0  0  0  0  0  0  0  0
    7.7776  -19.2289   24.6189 C   0  0  0  0  0  0  0  0  0  0  0  0
    8.7400  -19.8090   24.0622 O   0  0  0  0  0  0  0  0  0  0  0  0
    8.0828  -11.3121   19.4528 N   0  0  0  0  0  0  0  0  0  0  0  0
    8.4435  -12.6790   19.4906 C   0  0  0  0  0  0  0  0  0  0  0  0
    9.5290  -13.0724   18.9008 N   0  0  0  0  0  0  0  0  0  0  0  0
    7.6149  -13.6087   20.1740 N   0  0  0  0  0  0  0  0  0  0  0  0
    7.8149  -13.9150   21.5732 C   0  0  0  0  0  0  0  0  0  0  0  0
    8.4369  -15.3228   21.6656 C   0  0  0  0  0  0  0  0  0  0  0  0
    7.6566  -16.1800   22.5981 C   0  0  0  0  0  0  0  0  0  0  0  0
    8.4073  -17.0230   23.4979 C   0  0  2  0  0  0  0  0  0  0  0  0
    7.5834  -17.8600   24.3678 N   0  0  0  0  0  0  0  0  0  0  0  0
    9.6596  -16.7244   24.1156 C   0  0  0  0  0  0  0  0  0  0  0  0
    9.5930  -16.2333   25.3213 O   0  0  0  0  0  0  0  0  0  0  0  0
    9.8254  -14.0679   18.8834 N   0  0  0  0  0  0  0  0  0  0  0  0
   10.9714  -16.8695   23.6430 C   0  0  0  0  0  0  0  0  0  0  0  0
   12.1343  -16.3763   24.4101 C   0  0  0  0  0  0  0  0  0  0  0  0
   13.4095  -16.6297   23.7063 O   0  0  0  0  0  0  0  0  0  0  0  0
   14.6162  -16.2309   24.2220 O   0  0  0  0  0  0  0  0  0  0  0  0
  1  2  1  0
  2  3  1  0
  3 13  1  0
  4  3  2  0
  5  6  1  0
  6  8  1  0
  7  6  2  0
  9  8  1  0
 10  9  1  0
 12 11  1  1
 11 10  1  0
 12 14  1  0
 13 12  1  0
 14 16  1  0
 14 15  2  0
 16 17  1  0
 17 18  1  0
 18 19  1  0
 20 18  2  0
M  END
$$$$
