GRG.pdb
     RDKit          3D

 20 19  0  0  1  0  0  0  0  0999 V2000
    6.0489  -20.7241   22.8426 N   0  0  0  0  0  0  0  0  0  0  0  0
    5.5366  -19.4400   23.2612 C   0  0  0  0  0  0  0  0  0  0  0  0
    6.6385  -18.5350   23.7482 C   0  0  0  0  0  0  0  0  0  0  0  0
    7.8170  -18.9568   23.8258 O   0  0  0  0  0  0  0  0  0  0  0  0
    7.7507  -12.0961   19.3691 N   0  0  0  0  0  0  0  0  0  0  0  0
    8.2686  -13.2828   19.9376 C   0  0  0  0  0  0  0  0  0  0  0  0
    8.6351  -14.2573   19.1648 N   0  0  0  0  0  0  0  0  0  0  0  0
    8.3836  -13.3973   21.3488 N   0  0  0  0  0  0  0  0  0  0  0  0
    8.2632  -14.6743   22.0169 C   0  0  0  0  0  0  0  0  0  0  0  0
    6.9292  -14.6804   22.7900 C   0  0  0  0  0  0  0  0  0  0  0  0
    7.1663  -14.9002   24.2421 C   0  0  0  0  0  0  0  0  0  0  0  0
    7.3454  -16.2647   24.6783 C   0  0  2  0  0  0  0  0  0  0  0  0
    6.3753  -17.2067   24.1237 N   0  0  0  0  0  0  0  0  0  0  0  0
    7.8152  -16.7079   25.9517 C   0  0  0  0  0  0  0  0  0  0  0  0
    6.8959  -16.9208   26.8512 O   0  0  0  0  0  0  0  0  0  0  0  0
    8.9251  -15.1839   19.5343 N   0  0  0  0  0  0  0  0  0  0  0  0
    9.1156  -16.9580   26.4117 C   0  0  0  0  0  0  0  0  0  0  0  0
    9.3938  -17.2670   27.8298 C   0  0  0  0  0  0  0  0  0  0  0  0
    9.7633  -18.6850   28.0253 O   0  0  0  0  0  0  0  0  0  0  0  0
   10.2031  -19.1618   29.2339 O   0  0  0  0  0  0  0  0  0  0  0  0
  1  2  1  0
  2  3  1  0
  3 13  1  0
  4  3  2  0
  5  6  1  0
  6  8  1  0
  7  6  2  0
  9  8  1  0
 10  9  1  0
 12 11  1  1
 11 10  1  0
 12 14  1  0
 13 12  1  0
 14 16  1  0
 14 15  2  0
 16 17  1  0
 17 18  1  0
 18 19  1  0
 20 18  2  0
M  END
$$$$
