YVD.pdb
     RDKit          3D

 28 28  0  0  1  0  0  0  0  0999 V2000
   10.2162  -14.0299   30.6879 O   0  0  0  0  0  0  0  0  0  0  0  0
   10.0161  -14.3707   29.3596 C   0  0  0  0  0  0  0  0  0  0  0  0
   10.2002  -15.6507   28.9021 C   0  0  0  0  0  0  0  0  0  0  0  0
   10.0044  -16.0057   27.5794 C   0  0  0  0  0  0  0  0  0  0  0  0
    9.6063  -14.9966   26.7158 C   0  0  0  0  0  0  0  0  0  0  0  0
    9.3901  -15.3411   25.3051 C   0  0  0  0  0  0  0  0  0  0  0  0
    7.8847  -15.3814   25.0285 C   0  0  2  0  0  0  0  0  0  0  0  0
    7.3123  -16.3254   25.9311 N   0  0  0  0  0  0  0  0  0  0  0  0
    7.7001  -15.9014   23.6077 C   0  0  0  0  0  0  0  0  0  0  0  0
    7.2769  -17.0619   23.4707 O   0  0  0  0  0  0  0  0  0  0  0  0
    9.4138  -13.7070   27.1433 C   0  0  0  0  0  0  0  0  0  0  0  0
    9.6157  -13.3743   28.4711 C   0  0  0  0  0  0  0  0  0  0  0  0
    8.8851  -13.2284   20.3738 C   0  0  0  0  0  0  0  0  0  0  0  0
    7.6189  -14.0681   20.3637 C   0  0  2  0  0  0  0  0  0  0  0  0
    6.5394  -13.1931   20.9596 C   0  0  0  0  0  0  0  0  0  0  0  0
    7.8983  -15.3377   21.0996 C   0  0  2  0  0  0  0  0  0  0  0  0
    7.9996  -15.0917   22.5167 N   0  0  0  0  0  0  0  0  0  0  0  0
    8.9840  -16.1723   20.6108 C   0  0  0  0  0  0  0  0  0  0  0  0
    8.8803  -16.6891   19.4476 O   0  0  0  0  0  0  0  0  0  0  0  0
   10.1690  -16.4672   21.3175 N   0  0  0  0  0  0  0  0  0  0  0  0
   11.1151  -17.4762   20.8281 C   0  0  1  0  0  0  0  0  0  0  0  0
   12.5231  -16.9411   20.9331 C   0  0  0  0  0  0  0  0  0  0  0  0
   12.9673  -16.1821   19.7522 C   0  0  0  0  0  0  0  0  0  0  0  0
   13.6065  -15.0996   19.9200 O   0  0  0  0  0  0  0  0  0  0  0  0
   10.9693  -18.6866   21.6504 C   0  0  0  0  0  0  0  0  0  0  0  0
   11.7267  -19.8220   21.4073 O   0  0  0  0  0  0  0  0  0  0  0  0
   12.7457  -16.5495   18.4354 O   0  0  0  0  0  0  0  0  0  0  0  0
   10.1516  -18.7102   22.5911 O   0  0  0  0  0  0  0  0  0  0  0  0
  2  3  2  0
  2  1  1  0
  4  3  1  0
  5  4  2  0
  6  5  1  0
  7  6  1  0
  7  9  1  0
  7  8  1  1
  9 10  2  0
  9 17  1  0
 11  5  1  0
 11 12  2  0
 12  2  1  0
 14 13  1  1
 14 15  1  0
 16 14  1  0
 16 17  1  1
 18 16  1  0
 18 19  2  0
 20 18  1  0
 21 20  1  0
 21 25  1  0
 21 22  1  1
 23 24  2  0
 23 22  1  0
 25 26  1  0
 27 23  1  0
 28 25  2  0
M  END
$$$$
