YVD.pdb
     RDKit          3D

 28 28  0  0  1  0  0  0  0  0999 V2000
    9.8491  -14.1663   30.6898 O   0  0  0  0  0  0  0  0  0  0  0  0
    9.7886  -14.5014   29.3464 C   0  0  0  0  0  0  0  0  0  0  0  0
    9.3566  -13.6130   28.3947 C   0  0  0  0  0  0  0  0  0  0  0  0
    9.2909  -13.9331   27.0504 C   0  0  0  0  0  0  0  0  0  0  0  0
    9.6867  -15.2135   26.6946 C   0  0  0  0  0  0  0  0  0  0  0  0
    9.6285  -15.5843   25.2753 C   0  0  0  0  0  0  0  0  0  0  0  0
    8.1669  -15.8133   24.8811 C   0  0  2  0  0  0  0  0  0  0  0  0
    7.6768  -16.8915   25.6754 N   0  0  0  0  0  0  0  0  0  0  0  0
    8.1557  -16.2483   23.4203 C   0  0  0  0  0  0  0  0  0  0  0  0
    8.0854  -17.4665   23.1837 O   0  0  0  0  0  0  0  0  0  0  0  0
   10.1235  -16.1244   27.6234 C   0  0  0  0  0  0  0  0  0  0  0  0
   10.1811  -15.7825   28.9629 C   0  0  0  0  0  0  0  0  0  0  0  0
    8.6130  -13.0907   20.5050 C   0  0  0  0  0  0  0  0  0  0  0  0
    7.6357  -14.2385   20.3163 C   0  0  2  0  0  0  0  0  0  0  0  0
    6.3198  -13.7570   20.8843 C   0  0  0  0  0  0  0  0  0  0  0  0
    8.2134  -15.4518   20.9688 C   0  0  2  0  0  0  0  0  0  0  0  0
    8.2222  -15.3018   22.4028 N   0  0  0  0  0  0  0  0  0  0  0  0
    9.4842  -15.9456   20.4631 C   0  0  0  0  0  0  0  0  0  0  0  0
   10.5461  -15.2920   20.7389 O   0  0  0  0  0  0  0  0  0  0  0  0
    9.6560  -17.1078   19.6818 N   0  0  0  0  0  0  0  0  0  0  0  0
   10.9663  -17.4633   19.1257 C   0  0  1  0  0  0  0  0  0  0  0  0
   11.4111  -18.7912   19.6904 C   0  0  0  0  0  0  0  0  0  0  0  0
   11.9079  -18.7195   21.0746 C   0  0  0  0  0  0  0  0  0  0  0  0
   12.3097  -17.6055   21.5282 O   0  0  0  0  0  0  0  0  0  0  0  0
   10.8417  -17.5498   17.6630 C   0  0  0  0  0  0  0  0  0  0  0  0
   11.9401  -17.8069   16.8573 O   0  0  0  0  0  0  0  0  0  0  0  0
   11.9806  -19.7865   21.9546 O   0  0  0  0  0  0  0  0  0  0  0  0
    9.7317  -17.3911   17.1183 O   0  0  0  0  0  0  0  0  0  0  0  0
  2  3  2  0
  2  1  1  0
  4  3  1  0
  5  4  2  0
  6  5  1  0
  7  6  1  0
  7  9  1  0
  7  8  1  1
  9 10  2  0
  9 17  1  0
 11  5  1  0
 11 12  2  0
 12  2  1  0
 14 13  1  1
 14 15  1  0
 16 14  1  0
 16 17  1  1
 18 16  1  0
 18 19  2  0
 20 18  1  0
 21 20  1  0
 21 25  1  0
 21 22  1  1
 23 24  2  0
 23 22  1  0
 25 26  1  0
 27 23  1  0
 28 25  2  0
M  END
$$$$
