YVD.pdb
     RDKit          3D

 28 28  0  0  1  0  0  0  0  0999 V2000
   11.9443  -16.0846   32.5559 O   0  0  0  0  0  0  0  0  0  0  0  0
   11.4437  -16.1232   31.2641 C   0  0  0  0  0  0  0  0  0  0  0  0
   10.7367  -15.0775   30.7273 C   0  0  0  0  0  0  0  0  0  0  0  0
   10.2310  -15.1017   29.4398 C   0  0  0  0  0  0  0  0  0  0  0  0
   10.4715  -16.2478   28.6973 C   0  0  0  0  0  0  0  0  0  0  0  0
    9.9478  -16.3046   27.3269 C   0  0  0  0  0  0  0  0  0  0  0  0
    8.4431  -16.5823   27.3811 C   0  0  2  0  0  0  0  0  0  0  0  0
    8.2774  -17.9721   27.6540 N   0  0  0  0  0  0  0  0  0  0  0  0
    7.8801  -16.2939   25.9944 C   0  0  0  0  0  0  0  0  0  0  0  0
    7.5868  -17.2671   25.2791 O   0  0  0  0  0  0  0  0  0  0  0  0
   11.1753  -17.3101   29.2064 C   0  0  0  0  0  0  0  0  0  0  0  0
   11.6720  -17.2642   30.4970 C   0  0  0  0  0  0  0  0  0  0  0  0
    7.7560  -12.1260   24.7841 C   0  0  0  0  0  0  0  0  0  0  0  0
    6.6114  -13.0935   24.5346 C   0  0  2  0  0  0  0  0  0  0  0  0
    5.6879  -12.9548   25.7237 C   0  0  0  0  0  0  0  0  0  0  0  0
    7.1913  -14.4541   24.3246 C   0  0  2  0  0  0  0  0  0  0  0  0
    7.7079  -14.9826   25.5626 N   0  0  0  0  0  0  0  0  0  0  0  0
    8.1280  -14.6225   23.2253 C   0  0  0  0  0  0  0  0  0  0  0  0
    9.3137  -14.1675   23.3587 O   0  0  0  0  0  0  0  0  0  0  0  0
    7.8420  -15.2597   21.9993 N   0  0  0  0  0  0  0  0  0  0  0  0
    8.8670  -15.4024   20.9593 C   0  0  1  0  0  0  0  0  0  0  0  0
    8.9286  -16.8410   20.5049 C   0  0  0  0  0  0  0  0  0  0  0  0
    9.3049  -17.7906   21.5654 C   0  0  0  0  0  0  0  0  0  0  0  0
   10.2866  -17.5151   22.3194 O   0  0  0  0  0  0  0  0  0  0  0  0
    8.5090  -14.5288   19.8319 C   0  0  0  0  0  0  0  0  0  0  0  0
    9.3646  -14.3486   18.7561 O   0  0  0  0  0  0  0  0  0  0  0  0
    8.6690  -18.9934   21.8246 O   0  0  0  0  0  0  0  0  0  0  0  0
    7.4162  -13.9291   19.8264 O   0  0  0  0  0  0  0  0  0  0  0  0
  2  3  2  0
  2  1  1  0
  4  3  1  0
  5  4  2  0
  6  5  1  0
  7  6  1  0
  7  9  1  0
  7  8  1  6
  9 10  2  0
  9 17  1  0
 11  5  1  0
 11 12  2  0
 12  2  1  0
 14 13  1  1
 14 15  1  0
 16 14  1  0
 16 17  1  1
 18 16  1  0
 18 19  2  0
 20 18  1  0
 21 20  1  0
 21 25  1  0
 21 22  1  6
 23 24  2  0
 23 22  1  0
 25 26  1  0
 27 23  1  0
 28 25  2  0
M  END
$$$$
