YVD.pdb
     RDKit          3D

 28 28  0  0  1  0  0  0  0  0999 V2000
    6.2847  -10.3963   26.7048 O   0  0  0  0  0  0  0  0  0  0  0  0
    6.5394  -11.7576   26.6530 C   0  0  0  0  0  0  0  0  0  0  0  0
    7.7710  -12.2538   26.3085 C   0  0  0  0  0  0  0  0  0  0  0  0
    8.0401  -13.6097   26.2526 C   0  0  0  0  0  0  0  0  0  0  0  0
    6.9949  -14.4657   26.5647 C   0  0  0  0  0  0  0  0  0  0  0  0
    7.2483  -15.9110   26.5145 C   0  0  0  0  0  0  0  0  0  0  0  0
    6.4144  -16.5227   25.3855 C   0  0  2  0  0  0  0  0  0  0  0  0
    6.0301  -17.8312   25.8026 N   0  0  0  0  0  0  0  0  0  0  0  0
    7.3255  -16.6534   24.1706 C   0  0  0  0  0  0  0  0  0  0  0  0
    8.0920  -17.6310   24.1292 O   0  0  0  0  0  0  0  0  0  0  0  0
    5.7521  -13.9998   26.9130 C   0  0  0  0  0  0  0  0  0  0  0  0
    5.5054  -12.6393   26.9625 C   0  0  0  0  0  0  0  0  0  0  0  0
    8.0523  -14.7009   19.6519 C   0  0  0  0  0  0  0  0  0  0  0  0
    7.4124  -14.5757   21.0242 C   0  0  2  0  0  0  0  0  0  0  0  0
    7.6349  -13.1431   21.4535 C   0  0  0  0  0  0  0  0  0  0  0  0
    8.0132  -15.6152   21.9130 C   0  0  2  0  0  0  0  0  0  0  0  0
    7.2862  -15.7033   23.1550 N   0  0  0  0  0  0  0  0  0  0  0  0
    9.4512  -15.5692   22.1235 C   0  0  0  0  0  0  0  0  0  0  0  0
    9.8944  -15.0293   23.1926 O   0  0  0  0  0  0  0  0  0  0  0  0
   10.4229  -16.0805   21.2375 N   0  0  0  0  0  0  0  0  0  0  0  0
   11.7701  -16.4270   21.7041 C   0  0  1  0  0  0  0  0  0  0  0  0
   11.6849  -17.5644   22.6935 C   0  0  0  0  0  0  0  0  0  0  0  0
   12.9859  -17.9837   23.2407 C   0  0  0  0  0  0  0  0  0  0  0  0
   13.0119  -18.7936   24.2163 O   0  0  0  0  0  0  0  0  0  0  0  0
   12.5760  -16.8255   20.5405 C   0  0  0  0  0  0  0  0  0  0  0  0
   11.9866  -17.1423   19.3264 O   0  0  0  0  0  0  0  0  0  0  0  0
   14.2215  -17.5638   22.7770 O   0  0  0  0  0  0  0  0  0  0  0  0
   13.8180  -16.8852   20.6294 O   0  0  0  0  0  0  0  0  0  0  0  0
  2  3  2  0
  2  1  1  0
  4  3  1  0
  5  4  2  0
  6  5  1  0
  7  6  1  0
  7  9  1  0
  7  8  1  1
  9 10  2  0
  9 17  1  0
 11  5  1  0
 11 12  2  0
 12  2  1  0
 14 13  1  6
 14 15  1  0
 16 14  1  0
 16 17  1  1
 18 16  1  0
 18 19  2  0
 20 18  1  0
 21 20  1  0
 21 25  1  0
 21 22  1  1
 23 24  2  0
 23 22  1  0
 25 26  1  0
 27 23  1  0
 28 25  2  0
M  END
$$$$
