YVD.pdb
     RDKit          3D

 28 28  0  0  1  0  0  0  0  0999 V2000
    6.4000  -10.5223   27.3576 O   0  0  0  0  0  0  0  0  0  0  0  0
    6.7261  -11.8389   27.0734 C   0  0  0  0  0  0  0  0  0  0  0  0
    8.0279  -12.2613   26.9804 C   0  0  0  0  0  0  0  0  0  0  0  0
    8.3686  -13.5719   26.6974 C   0  0  0  0  0  0  0  0  0  0  0  0
    7.3216  -14.4608   26.5075 C   0  0  0  0  0  0  0  0  0  0  0  0
    7.6501  -15.8595   26.2055 C   0  0  0  0  0  0  0  0  0  0  0  0
    6.6385  -16.3997   25.1910 C   0  0  2  0  0  0  0  0  0  0  0  0
    6.0700  -17.5832   25.7474 N   0  0  0  0  0  0  0  0  0  0  0  0
    7.4163  -16.7831   23.9375 C   0  0  0  0  0  0  0  0  0  0  0  0
    7.7593  -17.9714   23.8147 O   0  0  0  0  0  0  0  0  0  0  0  0
    6.0094  -14.0687   26.5941 C   0  0  0  0  0  0  0  0  0  0  0  0
    5.6917  -12.7523   26.8782 C   0  0  0  0  0  0  0  0  0  0  0  0
    8.7222  -13.5409   21.3688 C   0  0  0  0  0  0  0  0  0  0  0  0
    8.0540  -14.7905   20.8208 C   0  0  2  0  0  0  0  0  0  0  0  0
    6.5803  -14.4643   20.7312 C   0  0  0  0  0  0  0  0  0  0  0  0
    8.4072  -15.9350   21.7135 C   0  0  2  0  0  0  0  0  0  0  0  0
    7.7217  -15.8240   22.9770 N   0  0  0  0  0  0  0  0  0  0  0  0
    9.8179  -16.2445   21.8823 C   0  0  0  0  0  0  0  0  0  0  0  0
   10.4644  -15.6566   22.8136 O   0  0  0  0  0  0  0  0  0  0  0  0
   10.5532  -17.1574   21.0970 N   0  0  0  0  0  0  0  0  0  0  0  0
   11.9925  -17.3519   21.3048 C   0  0  1  0  0  0  0  0  0  0  0  0
   12.6759  -16.0085   21.3949 C   0  0  0  0  0  0  0  0  0  0  0  0
   14.1367  -16.0872   21.5614 C   0  0  0  0  0  0  0  0  0  0  0  0
   14.6164  -16.2548   22.7234 O   0  0  0  0  0  0  0  0  0  0  0  0
   12.1837  -18.1036   22.5541 C   0  0  0  0  0  0  0  0  0  0  0  0
   13.2539  -18.9686   22.7216 O   0  0  0  0  0  0  0  0  0  0  0  0
   15.0647  -15.9918   20.5378 O   0  0  0  0  0  0  0  0  0  0  0  0
   11.3754  -17.9724   23.4941 O   0  0  0  0  0  0  0  0  0  0  0  0
  2  3  2  0
  2  1  1  0
  4  3  1  0
  5  4  2  0
  6  5  1  0
  7  6  1  0
  7  9  1  0
  7  8  1  1
  9 10  2  0
  9 17  1  0
 11  5  1  0
 11 12  2  0
 12  2  1  0
 14 13  1  1
 14 15  1  0
 16 14  1  0
 16 17  1  1
 18 16  1  0
 18 19  2  0
 20 18  1  0
 21 20  1  0
 21 25  1  0
 21 22  1  1
 23 24  2  0
 23 22  1  0
 25 26  1  0
 27 23  1  0
 28 25  2  0
M  END
$$$$
