YVD.pdb
     RDKit          3D

 28 28  0  0  1  0  0  0  0  0999 V2000
    6.6719  -10.8861   27.8198 O   0  0  0  0  0  0  0  0  0  0  0  0
    6.7049  -11.9891   26.9814 C   0  0  0  0  0  0  0  0  0  0  0  0
    7.6089  -13.0062   27.1539 C   0  0  0  0  0  0  0  0  0  0  0  0
    7.6538  -14.1131   26.3252 C   0  0  0  0  0  0  0  0  0  0  0  0
    6.7303  -14.1556   25.2918 C   0  0  0  0  0  0  0  0  0  0  0  0
    6.7521  -15.3174   24.3944 C   0  0  0  0  0  0  0  0  0  0  0  0
    8.1807  -15.5245   23.8842 C   0  0  2  0  0  0  0  0  0  0  0  0
    8.8918  -14.3087   24.1077 N   0  0  0  0  0  0  0  0  0  0  0  0
    8.0938  -15.7614   22.3810 C   0  0  0  0  0  0  0  0  0  0  0  0
    7.4805  -16.7702   21.9925 O   0  0  0  0  0  0  0  0  0  0  0  0
    5.8137  -13.1539   25.0935 C   0  0  0  0  0  0  0  0  0  0  0  0
    5.7869  -12.0557   25.9348 C   0  0  0  0  0  0  0  0  0  0  0  0
    9.5379  -12.6242   19.6736 C   0  0  0  0  0  0  0  0  0  0  0  0
    8.4460  -13.6503   19.4222 C   0  0  2  0  0  0  0  0  0  0  0  0
    7.1723  -13.0363   19.9576 C   0  0  0  0  0  0  0  0  0  0  0  0
    8.8603  -14.9350   20.0621 C   0  0  2  0  0  0  0  0  0  0  0  0
    8.6855  -14.8698   21.4919 N   0  0  0  0  0  0  0  0  0  0  0  0
   10.1568  -15.4810   19.6943 C   0  0  0  0  0  0  0  0  0  0  0  0
   10.3509  -15.8277   18.4807 O   0  0  0  0  0  0  0  0  0  0  0  0
   11.2451  -15.6636   20.5736 N   0  0  0  0  0  0  0  0  0  0  0  0
   12.5208  -16.2128   20.1007 C   0  0  1  0  0  0  0  0  0  0  0  0
   13.5617  -15.1194   20.0722 C   0  0  0  0  0  0  0  0  0  0  0  0
   13.7039  -14.4590   18.7639 C   0  0  0  0  0  0  0  0  0  0  0  0
   13.0382  -14.8965   17.7771 O   0  0  0  0  0  0  0  0  0  0  0  0
   12.9343  -17.2835   21.0200 C   0  0  0  0  0  0  0  0  0  0  0  0
   12.2087  -17.5746   22.1648 O   0  0  0  0  0  0  0  0  0  0  0  0
   14.5215  -13.3725   18.5010 O   0  0  0  0  0  0  0  0  0  0  0  0
   13.9572  -17.9546   20.7804 O   0  0  0  0  0  0  0  0  0  0  0  0
  2  3  2  0
  2  1  1  0
  4  3  1  0
  5  4  2  0
  6  5  1  0
  7  6  1  0
  7  9  1  0
  7  8  1  6
  9 10  2  0
  9 17  1  0
 11  5  1  0
 11 12  2  0
 12  2  1  0
 14 13  1  1
 14 15  1  0
 16 14  1  0
 16 17  1  1
 18 16  1  0
 18 19  2  0
 20 18  1  0
 21 20  1  0
 21 25  1  0
 21 22  1  1
 23 24  2  0
 23 22  1  0
 25 26  1  0
 27 23  1  0
 28 25  2  0
M  END
$$$$
