YVD.pdb
     RDKit          3D

 28 28  0  0  1  0  0  0  0  0999 V2000
   10.6373  -14.2766   30.7732 O   0  0  0  0  0  0  0  0  0  0  0  0
   10.3551  -14.6664   29.4736 C   0  0  0  0  0  0  0  0  0  0  0  0
    9.9550  -13.7689   28.5164 C   0  0  0  0  0  0  0  0  0  0  0  0
    9.6699  -14.1432   27.2154 C   0  0  0  0  0  0  0  0  0  0  0  0
    9.8072  -15.4886   26.9098 C   0  0  0  0  0  0  0  0  0  0  0  0
    9.5120  -15.9180   25.5372 C   0  0  0  0  0  0  0  0  0  0  0  0
    8.0352  -15.6461   25.2383 C   0  0  2  0  0  0  0  0  0  0  0  0
    7.2676  -16.5355   26.0466 N   0  0  0  0  0  0  0  0  0  0  0  0
    7.7977  -16.0001   23.7749 C   0  0  0  0  0  0  0  0  0  0  0  0
    7.2784  -17.1018   23.5268 O   0  0  0  0  0  0  0  0  0  0  0  0
   10.2056  -16.4102   27.8451 C   0  0  0  0  0  0  0  0  0  0  0  0
   10.4855  -16.0135   29.1408 C   0  0  0  0  0  0  0  0  0  0  0  0
    6.5421  -13.3640   21.3000 C   0  0  0  0  0  0  0  0  0  0  0  0
    7.8244  -13.9127   20.6975 C   0  0  2  0  0  0  0  0  0  0  0  0
    7.5979  -13.9418   19.2029 C   0  0  0  0  0  0  0  0  0  0  0  0
    8.1064  -15.2353   21.3321 C   0  0  2  0  0  0  0  0  0  0  0  0
    8.1556  -15.1097   22.7676 N   0  0  0  0  0  0  0  0  0  0  0  0
    9.2253  -16.0047   20.8121 C   0  0  0  0  0  0  0  0  0  0  0  0
   10.4111  -15.5985   21.0562 O   0  0  0  0  0  0  0  0  0  0  0  0
    9.1189  -17.1868   20.0492 N   0  0  0  0  0  0  0  0  0  0  0  0
   10.3128  -17.9079   19.5938 C   0  0  1  0  0  0  0  0  0  0  0  0
   10.0931  -19.3941   19.7445 C   0  0  0  0  0  0  0  0  0  0  0  0
    9.9912  -19.8481   21.1414 C   0  0  0  0  0  0  0  0  0  0  0  0
   10.6937  -19.2752   22.0284 O   0  0  0  0  0  0  0  0  0  0  0  0
   10.5488  -17.5701   18.1822 C   0  0  0  0  0  0  0  0  0  0  0  0
   11.8226  -17.5938   17.6358 O   0  0  0  0  0  0  0  0  0  0  0  0
    9.1763  -20.8733   21.5919 O   0  0  0  0  0  0  0  0  0  0  0  0
    9.5941  -17.2532   17.4458 O   0  0  0  0  0  0  0  0  0  0  0  0
  2  3  2  0
  2  1  1  0
  4  3  1  0
  5  4  2  0
  6  5  1  0
  7  6  1  0
  7  9  1  0
  7  8  1  1
  9 10  2  0
  9 17  1  0
 11  5  1  0
 11 12  2  0
 12  2  1  0
 14 13  1  1
 14 15  1  0
 16 14  1  0
 16 17  1  1
 18 16  1  0
 18 19  2  0
 20 18  1  0
 21 20  1  0
 21 25  1  0
 21 22  1  6
 23 24  2  0
 23 22  1  0
 25 26  1  0
 27 23  1  0
 28 25  2  0
M  END
$$$$
