YVD.pdb
     RDKit          3D

 28 28  0  0  1  0  0  0  0  0999 V2000
   10.2724  -14.1241   31.0148 O   0  0  0  0  0  0  0  0  0  0  0  0
   10.0791  -14.5019   29.6955 C   0  0  0  0  0  0  0  0  0  0  0  0
   10.2793  -15.7912   29.2721 C   0  0  0  0  0  0  0  0  0  0  0  0
   10.0904  -16.1831   27.9588 C   0  0  0  0  0  0  0  0  0  0  0  0
    9.6822  -15.2018   27.0683 C   0  0  0  0  0  0  0  0  0  0  0  0
    9.4730  -15.5857   25.6668 C   0  0  0  0  0  0  0  0  0  0  0  0
    7.9711  -15.7412   25.4130 C   0  0  2  0  0  0  0  0  0  0  0  0
    7.5211  -16.8472   26.1925 N   0  0  0  0  0  0  0  0  0  0  0  0
    7.7954  -16.0883   23.9393 C   0  0  0  0  0  0  0  0  0  0  0  0
    7.7387  -17.2920   23.6349 O   0  0  0  0  0  0  0  0  0  0  0  0
    9.4736  -13.9037   27.4615 C   0  0  0  0  0  0  0  0  0  0  0  0
    9.6687  -13.5341   28.7805 C   0  0  0  0  0  0  0  0  0  0  0  0
    7.0489  -14.0873   19.4566 C   0  0  0  0  0  0  0  0  0  0  0  0
    7.2120  -13.8740   20.9520 C   0  0  2  0  0  0  0  0  0  0  0  0
    8.0929  -12.6542   21.1007 C   0  0  0  0  0  0  0  0  0  0  0  0
    7.7522  -15.1346   21.5442 C   0  0  2  0  0  0  0  0  0  0  0  0
    7.7036  -15.0807   22.9843 N   0  0  0  0  0  0  0  0  0  0  0  0
    9.0382  -15.6079   21.0580 C   0  0  0  0  0  0  0  0  0  0  0  0
   10.1012  -15.1374   21.5868 O   0  0  0  0  0  0  0  0  0  0  0  0
    9.2236  -16.5628   20.0360 N   0  0  0  0  0  0  0  0  0  0  0  0
   10.5562  -17.0886   19.7193 C   0  0  1  0  0  0  0  0  0  0  0  0
   11.0093  -18.0139   20.8230 C   0  0  0  0  0  0  0  0  0  0  0  0
   12.3099  -17.6548   21.4124 C   0  0  0  0  0  0  0  0  0  0  0  0
   12.9091  -16.6170   20.9972 O   0  0  0  0  0  0  0  0  0  0  0  0
   10.4763  -17.8187   18.4453 C   0  0  0  0  0  0  0  0  0  0  0  0
   11.6166  -18.1647   17.7369 O   0  0  0  0  0  0  0  0  0  0  0  0
   12.9608  -18.3652   22.4072 O   0  0  0  0  0  0  0  0  0  0  0  0
    9.3671  -18.1420   17.9770 O   0  0  0  0  0  0  0  0  0  0  0  0
  2  3  2  0
  2  1  1  0
  4  3  1  0
  5  4  2  0
  6  5  1  0
  7  6  1  0
  7  9  1  0
  7  8  1  1
  9 10  2  0
  9 17  1  0
 11  5  1  0
 11 12  2  0
 12  2  1  0
 14 13  1  6
 14 15  1  0
 16 14  1  0
 16 17  1  1
 18 16  1  0
 18 19  2  0
 20 18  1  0
 21 20  1  0
 21 25  1  0
 21 22  1  1
 23 24  2  0
 23 22  1  0
 25 26  1  0
 27 23  1  0
 28 25  2  0
M  END
$$$$
