YVD.pdb
     RDKit          3D

 28 28  0  0  1  0  0  0  0  0999 V2000
    5.8989  -10.7377   28.5393 O   0  0  0  0  0  0  0  0  0  0  0  0
    6.4127  -11.7148   27.7015 C   0  0  0  0  0  0  0  0  0  0  0  0
    5.8890  -11.9532   26.4563 C   0  0  0  0  0  0  0  0  0  0  0  0
    6.3913  -12.9249   25.6092 C   0  0  0  0  0  0  0  0  0  0  0  0
    7.4670  -13.6640   26.0772 C   0  0  0  0  0  0  0  0  0  0  0  0
    8.0231  -14.7033   25.2018 C   0  0  0  0  0  0  0  0  0  0  0  0
    6.8711  -15.4903   24.5711 C   0  0  2  0  0  0  0  0  0  0  0  0
    6.5913  -16.5944   25.4291 N   0  0  0  0  0  0  0  0  0  0  0  0
    7.3713  -16.0326   23.2373 C   0  0  0  0  0  0  0  0  0  0  0  0
    7.4333  -17.2669   23.1053 O   0  0  0  0  0  0  0  0  0  0  0  0
    8.0127  -13.4491   27.3177 C   0  0  0  0  0  0  0  0  0  0  0  0
    7.4942  -12.4717   28.1486 C   0  0  0  0  0  0  0  0  0  0  0  0
    9.0883  -13.2279   20.4041 C   0  0  0  0  0  0  0  0  0  0  0  0
    7.9551  -14.1673   20.0275 C   0  0  2  0  0  0  0  0  0  0  0  0
    6.6805  -13.3842   20.2469 C   0  0  0  0  0  0  0  0  0  0  0  0
    8.0945  -15.4121   20.8415 C   0  0  2  0  0  0  0  0  0  0  0  0
    7.7404  -15.1621   22.2167 N   0  0  0  0  0  0  0  0  0  0  0  0
    9.3385  -16.1556   20.7240 C   0  0  0  0  0  0  0  0  0  0  0  0
    9.7721  -16.4392   19.5567 O   0  0  0  0  0  0  0  0  0  0  0  0
   10.1299  -16.5991   21.8046 N   0  0  0  0  0  0  0  0  0  0  0  0
   11.4190  -17.2631   21.5809 C   0  0  1  0  0  0  0  0  0  0  0  0
   12.3547  -16.3203   20.8631 C   0  0  0  0  0  0  0  0  0  0  0  0
   13.6057  -16.9478   20.4055 C   0  0  0  0  0  0  0  0  0  0  0  0
   13.6264  -18.1980   20.1936 O   0  0  0  0  0  0  0  0  0  0  0  0
   11.9803  -17.6389   22.8871 C   0  0  0  0  0  0  0  0  0  0  0  0
   11.2983  -17.3866   24.0674 O   0  0  0  0  0  0  0  0  0  0  0  0
   14.7983  -16.2814   20.1784 O   0  0  0  0  0  0  0  0  0  0  0  0
   13.0928  -18.1975   22.9536 O   0  0  0  0  0  0  0  0  0  0  0  0
  2  3  2  0
  2  1  1  0
  4  3  1  0
  5  4  2  0
  6  5  1  0
  7  6  1  0
  7  9  1  0
  7  8  1  1
  9 10  2  0
  9 17  1  0
 11  5  1  0
 11 12  2  0
 12  2  1  0
 14 13  1  1
 14 15  1  0
 16 14  1  0
 16 17  1  1
 18 16  1  0
 18 19  2  0
 20 18  1  0
 21 20  1  0
 21 25  1  0
 21 22  1  1
 23 24  2  0
 23 22  1  0
 25 26  1  0
 27 23  1  0
 28 25  2  0
M  END
$$$$
