YVD.pdb
     RDKit          3D

 28 28  0  0  1  0  0  0  0  0999 V2000
    0.3873  -20.9217   23.3283 O   0  0  0  0  0  0  0  0  0  0  0  0
    1.5931  -20.2818   23.0892 C   0  0  0  0  0  0  0  0  0  0  0  0
    2.7691  -20.9748   22.9536 C   0  0  0  0  0  0  0  0  0  0  0  0
    3.9801  -20.3500   22.7147 C   0  0  0  0  0  0  0  0  0  0  0  0
    3.9588  -18.9671   22.6155 C   0  0  0  0  0  0  0  0  0  0  0  0
    5.2280  -18.2740   22.3624 C   0  0  0  0  0  0  0  0  0  0  0  0
    5.2449  -17.7818   20.9127 C   0  0  2  0  0  0  0  0  0  0  0  0
    5.2179  -18.9339   20.0728 N   0  0  0  0  0  0  0  0  0  0  0  0
    6.5697  -17.0597   20.6960 C   0  0  0  0  0  0  0  0  0  0  0  0
    6.8552  -16.7181   19.5356 O   0  0  0  0  0  0  0  0  0  0  0  0
    2.7987  -18.2461   22.7464 C   0  0  0  0  0  0  0  0  0  0  0  0
    1.5986  -18.8920   22.9852 C   0  0  0  0  0  0  0  0  0  0  0  0
    7.6332  -13.6837   22.4935 C   0  0  0  0  0  0  0  0  0  0  0  0
    8.1550  -14.5416   21.3532 C   0  0  2  0  0  0  0  0  0  0  0  0
    7.0647  -14.5422   20.3057 C   0  0  0  0  0  0  0  0  0  0  0  0
    8.5163  -15.8808   21.9078 C   0  0  2  0  0  0  0  0  0  0  0  0
    7.4151  -16.8013   21.7703 N   0  0  0  0  0  0  0  0  0  0  0  0
    9.0996  -15.9212   23.2391 C   0  0  0  0  0  0  0  0  0  0  0  0
    8.3168  -15.9585   24.2474 O   0  0  0  0  0  0  0  0  0  0  0  0
   10.4812  -15.9269   23.5254 N   0  0  0  0  0  0  0  0  0  0  0  0
   11.1515  -17.1371   24.0139 C   0  0  1  0  0  0  0  0  0  0  0  0
   11.0000  -18.2435   22.9977 C   0  0  0  0  0  0  0  0  0  0  0  0
   11.7077  -19.4853   23.3511 C   0  0  0  0  0  0  0  0  0  0  0  0
   12.9715  -19.5238   23.2526 O   0  0  0  0  0  0  0  0  0  0  0  0
   12.5744  -16.8284   24.2201 C   0  0  0  0  0  0  0  0  0  0  0  0
   13.2531  -15.9534   23.3861 O   0  0  0  0  0  0  0  0  0  0  0  0
   11.1051  -20.6511   23.7938 O   0  0  0  0  0  0  0  0  0  0  0  0
   13.2001  -17.3559   25.1605 O   0  0  0  0  0  0  0  0  0  0  0  0
  2  3  2  0
  2  1  1  0
  4  3  1  0
  5  4  2  0
  6  5  1  0
  7  6  1  0
  7  9  1  0
  7  8  1  6
  9 10  2  0
  9 17  1  0
 11  5  1  0
 11 12  2  0
 12  2  1  0
 14 13  1  1
 14 15  1  0
 16 14  1  0
 16 17  1  1
 18 16  1  0
 18 19  2  0
 20 18  1  0
 21 20  1  0
 21 25  1  0
 21 22  1  6
 23 24  2  0
 23 22  1  0
 25 26  1  0
 27 23  1  0
 28 25  2  0
M  END
$$$$
