YVD.pdb
     RDKit          3D

 28 28  0  0  1  0  0  0  0  0999 V2000
    7.5187  -13.3257   16.1491 O   0  0  0  0  0  0  0  0  0  0  0  0
    7.5271  -13.6805   17.4887 C   0  0  0  0  0  0  0  0  0  0  0  0
    7.1514  -14.9301   17.9118 C   0  0  0  0  0  0  0  0  0  0  0  0
    7.1546  -15.2986   19.2453 C   0  0  0  0  0  0  0  0  0  0  0  0
    7.5608  -14.3359   20.1568 C   0  0  0  0  0  0  0  0  0  0  0  0
    7.5752  -14.6959   21.5800 C   0  0  0  0  0  0  0  0  0  0  0  0
    8.9617  -14.3937   22.1550 C   0  0  2  0  0  0  0  0  0  0  0  0
    9.9003  -15.1998   21.4460 N   0  0  0  0  0  0  0  0  0  0  0  0
    8.9524  -14.8366   23.6134 C   0  0  0  0  0  0  0  0  0  0  0  0
    9.5528  -15.8866   23.8993 O   0  0  0  0  0  0  0  0  0  0  0  0
    7.9423  -13.0775   19.7645 C   0  0  0  0  0  0  0  0  0  0  0  0
    7.9313  -12.7307   18.4251 C   0  0  0  0  0  0  0  0  0  0  0  0
    6.0122  -13.2669   26.2122 C   0  0  0  0  0  0  0  0  0  0  0  0
    7.4660  -13.0792   26.6116 C   0  0  2  0  0  0  0  0  0  0  0  0
    7.8437  -11.6894   26.1513 C   0  0  0  0  0  0  0  0  0  0  0  0
    8.2595  -14.1940   26.0123 C   0  0  2  0  0  0  0  0  0  0  0  0
    8.2907  -14.0799   24.5753 N   0  0  0  0  0  0  0  0  0  0  0  0
    7.9509  -15.5469   26.4465 C   0  0  0  0  0  0  0  0  0  0  0  0
    7.0402  -16.1937   25.8275 O   0  0  0  0  0  0  0  0  0  0  0  0
    8.5815  -16.2271   27.5098 N   0  0  0  0  0  0  0  0  0  0  0  0
    8.8595  -17.6656   27.4337 C   0  0  1  0  0  0  0  0  0  0  0  0
    9.6812  -17.9567   26.2009 C   0  0  0  0  0  0  0  0  0  0  0  0
   10.0520  -19.3732   26.0463 C   0  0  0  0  0  0  0  0  0  0  0  0
    9.6351  -20.2158   26.8975 O   0  0  0  0  0  0  0  0  0  0  0  0
    9.5996  -18.0598   28.6418 C   0  0  0  0  0  0  0  0  0  0  0  0
    9.3163  -19.2405   29.3108 O   0  0  0  0  0  0  0  0  0  0  0  0
   10.8376  -19.8879   25.0284 O   0  0  0  0  0  0  0  0  0  0  0  0
   10.5049  -17.3285   29.0884 O   0  0  0  0  0  0  0  0  0  0  0  0
  2  3  2  0
  2  1  1  0
  4  3  1  0
  5  4  2  0
  6  5  1  0
  7  6  1  0
  7  9  1  0
  7  8  1  6
  9 10  2  0
  9 17  1  0
 11  5  1  0
 11 12  2  0
 12  2  1  0
 14 13  1  6
 14 15  1  0
 16 14  1  0
 16 17  1  6
 18 16  1  0
 18 19  2  0
 20 18  1  0
 21 20  1  0
 21 25  1  0
 21 22  1  6
 23 24  2  0
 23 22  1  0
 25 26  1  0
 27 23  1  0
 28 25  2  0
M  END
$$$$
