NCN.pdb
     RDKit          3D

 23 22  0  0  1  0  0  0  0  0999 V2000
   25.7667  -16.3740  -17.5665 N   0  0  0  0  0  0  0  0  0  0  0  0
   26.1362  -17.1167  -16.4333 C   0  0  0  0  0  0  0  0  0  0  0  0
   27.2703  -16.9781  -15.8668 O   0  0  0  0  0  0  0  0  0  0  0  0
   25.1852  -18.0985  -15.8668 C   0  0  0  0  0  0  0  0  0  0  0  0
   25.8742  -19.4345  -15.6626 C   0  0  2  0  0  0  0  0  0  0  0  0
   26.0269  -20.1229  -16.9082 N   0  0  0  0  0  0  0  0  0  0  0  0
   25.1743  -20.2227  -14.6363 C   0  0  0  0  0  0  0  0  0  0  0  0
   24.3863  -21.1248  -15.0006 O   0  0  0  0  0  0  0  0  0  0  0  0
   25.3201  -20.0446  -13.2279 N   0  0  0  0  0  0  0  0  0  0  0  0
   24.5390  -20.7876  -12.2827 C   0  0  1  0  0  0  0  0  0  0  0  0
   25.0176  -20.6750  -10.8627 C   0  0  0  0  0  0  0  0  0  0  0  0
   23.9085  -21.4057   -9.6523 S   0  0  0  0  0  0  0  0  0  0  0  0
   23.1113  -20.3936  -12.3670 C   0  0  0  0  0  0  0  0  0  0  0  0
   22.7143  -19.2053  -12.2255 O   0  0  0  0  0  0  0  0  0  0  0  0
   21.2158  -19.5325  -15.9565 N   0  0  0  0  0  0  0  0  0  0  0  0
   20.3987  -19.7607  -14.8322 C   0  0  0  0  0  0  0  0  0  0  0  0
   19.6981  -18.8031  -14.3681 O   0  0  0  0  0  0  0  0  0  0  0  0
   20.3282  -21.0865  -14.1691 C   0  0  0  0  0  0  0  0  0  0  0  0
   20.6943  -21.0030  -12.6823 C   0  0  2  0  0  0  0  0  0  0  0  0
   22.0950  -21.3708  -12.6206 N   0  0  0  0  0  0  0  0  0  0  0  0
   19.8420  -21.9819  -11.9679 C   0  0  0  0  0  0  0  0  0  0  0  0
   18.6008  -21.6789  -11.4488 O   0  0  0  0  0  0  0  0  0  0  0  0
   20.2763  -23.1489  -11.8296 O   0  0  0  0  0  0  0  0  0  0  0  0
  2  1  1  0
  2  4  1  0
  3  2  2  0
  5  4  1  0
  5  7  1  0
  5  6  1  6
  7  8  2  0
  7  9  1  0
  9 10  1  0
 10 13  1  0
 10 11  1  1
 11 12  1  0
 13 20  1  0
 13 14  2  0
 16 17  2  0
 16 15  1  0
 19 18  1  6
 18 16  1  0
 19 21  1  0
 20 19  1  0
 21 22  1  0
 23 21  2  0
M  END
$$$$
