NCN.pdb
     RDKit          3D

 23 22  0  0  1  0  0  0  0  0999 V2000
   12.0918  -13.1044  -10.4828 N   0  0  0  0  0  0  0  0  0  0  0  0
   12.6727  -11.9116  -10.9436 C   0  0  0  0  0  0  0  0  0  0  0  0
   12.2436  -11.2982  -11.9760 O   0  0  0  0  0  0  0  0  0  0  0  0
   13.8244  -11.3360  -10.2145 C   0  0  0  0  0  0  0  0  0  0  0  0
   14.9532  -11.0296  -11.1807 C   0  0  2  0  0  0  0  0  0  0  0  0
   15.6653  -12.2225  -11.5247 N   0  0  0  0  0  0  0  0  0  0  0  0
   15.8142   -9.9639  -10.6444 C   0  0  0  0  0  0  0  0  0  0  0  0
   16.4780  -10.1884   -9.6070 O   0  0  0  0  0  0  0  0  0  0  0  0
   15.9626   -8.6659  -11.2187 N   0  0  0  0  0  0  0  0  0  0  0  0
   16.7564   -7.6461  -10.5978 C   0  0  1  0  0  0  0  0  0  0  0  0
   17.9742   -7.2484  -11.3832 C   0  0  0  0  0  0  0  0  0  0  0  0
   19.2884   -8.4738  -11.3736 S   0  0  0  0  0  0  0  0  0  0  0  0
   15.9288   -6.4493  -10.3091 C   0  0  0  0  0  0  0  0  0  0  0  0
   15.2240   -5.8717  -11.1805 O   0  0  0  0  0  0  0  0  0  0  0  0
   13.4745   -2.7242   -7.5187 N   0  0  0  0  0  0  0  0  0  0  0  0
   14.0959   -3.6392   -6.6467 C   0  0  0  0  0  0  0  0  0  0  0  0
   13.8901   -3.5414   -5.3932 O   0  0  0  0  0  0  0  0  0  0  0  0
   14.9860   -4.7174   -7.1444 C   0  0  0  0  0  0  0  0  0  0  0  0
   15.0214   -4.7688   -8.6766 C   0  0  2  0  0  0  0  0  0  0  0  0
   15.8920   -5.8835   -8.9936 N   0  0  0  0  0  0  0  0  0  0  0  0
   15.5910   -3.4829   -9.1427 C   0  0  0  0  0  0  0  0  0  0  0  0
   14.8253   -2.3950   -9.5058 O   0  0  0  0  0  0  0  0  0  0  0  0
   16.8380   -3.3821   -9.2095 O   0  0  0  0  0  0  0  0  0  0  0  0
  2  1  1  0
  2  4  1  0
  3  2  2  0
  5  4  1  0
  5  7  1  0
  5  6  1  1
  7  8  2  0
  7  9  1  0
  9 10  1  0
 10 13  1  0
 10 11  1  6
 11 12  1  0
 13 20  1  0
 13 14  2  0
 16 17  2  0
 16 15  1  0
 19 18  1  1
 18 16  1  0
 19 21  1  0
 20 19  1  0
 21 22  1  0
 23 21  2  0
M  END
$$$$
