NCN.pdb
     RDKit          3D

 23 22  0  0  1  0  0  0  0  0999 V2000
   28.5783  -17.4074  -15.2941 N   0  0  0  0  0  0  0  0  0  0  0  0
   27.8587  -18.2984  -16.1069 C   0  0  0  0  0  0  0  0  0  0  0  0
   28.1354  -18.4726  -17.3396 O   0  0  0  0  0  0  0  0  0  0  0  0
   26.7370  -19.0681  -15.5249 C   0  0  0  0  0  0  0  0  0  0  0  0
   27.2690  -20.1503  -14.6045 C   0  0  2  0  0  0  0  0  0  0  0  0
   28.0005  -21.1327  -15.3450 N   0  0  0  0  0  0  0  0  0  0  0  0
   26.1804  -20.7156  -13.7922 C   0  0  0  0  0  0  0  0  0  0  0  0
   25.3583  -21.4870  -14.3366 O   0  0  0  0  0  0  0  0  0  0  0  0
   25.9761  -20.4554  -12.4038 N   0  0  0  0  0  0  0  0  0  0  0  0
   24.8852  -21.0331  -11.6746 C   0  0  1  0  0  0  0  0  0  0  0  0
   25.0164  -20.9270  -10.1814 C   0  0  0  0  0  0  0  0  0  0  0  0
   26.7132  -20.8421   -9.5961 S   0  0  0  0  0  0  0  0  0  0  0  0
   23.5979  -20.4396  -12.1117 C   0  0  0  0  0  0  0  0  0  0  0  0
   23.3379  -19.2094  -12.0165 O   0  0  0  0  0  0  0  0  0  0  0  0
   21.5899  -18.7445  -15.0885 N   0  0  0  0  0  0  0  0  0  0  0  0
   21.3113  -20.0610  -15.5043 C   0  0  0  0  0  0  0  0  0  0  0  0
   21.2354  -20.3166  -16.7502 O   0  0  0  0  0  0  0  0  0  0  0  0
   21.1025  -21.1635  -14.5330 C   0  0  0  0  0  0  0  0  0  0  0  0
   21.2960  -20.6954  -13.0856 C   0  0  2  0  0  0  0  0  0  0  0  0
   22.5675  -21.2587  -12.6769 N   0  0  0  0  0  0  0  0  0  0  0  0
   20.1740  -21.2519  -12.2940 C   0  0  0  0  0  0  0  0  0  0  0  0
   20.1598  -22.5333  -11.7848 O   0  0  0  0  0  0  0  0  0  0  0  0
   19.1847  -20.5142  -12.0774 O   0  0  0  0  0  0  0  0  0  0  0  0
  2  1  1  0
  2  4  1  0
  3  2  2  0
  5  4  1  0
  5  7  1  0
  5  6  1  6
  7  8  2  0
  7  9  1  0
  9 10  1  0
 10 13  1  0
 10 11  1  1
 11 12  1  0
 13 20  1  0
 13 14  2  0
 16 17  2  0
 16 15  1  0
 19 18  1  6
 18 16  1  0
 19 21  1  0
 20 19  1  0
 21 22  1  0
 23 21  2  0
M  END
$$$$
