NCN.pdb
     RDKit          3D

 23 22  0  0  1  0  0  0  0  0999 V2000
   19.2882  -15.3104  -16.3725 N   0  0  0  0  0  0  0  0  0  0  0  0
   18.9929  -13.9376  -16.3471 C   0  0  0  0  0  0  0  0  0  0  0  0
   17.9641  -13.4504  -16.9220 O   0  0  0  0  0  0  0  0  0  0  0  0
   19.8996  -13.0129  -15.6316 C   0  0  0  0  0  0  0  0  0  0  0  0
   20.3296  -11.8868  -16.5527 C   0  0  2  0  0  0  0  0  0  0  0  0
   21.0889  -12.3940  -17.6548 N   0  0  0  0  0  0  0  0  0  0  0  0
   21.0254  -10.8372  -15.7919 C   0  0  0  0  0  0  0  0  0  0  0  0
   20.5288  -10.4441  -14.7121 O   0  0  0  0  0  0  0  0  0  0  0  0
   22.2471  -10.2144  -16.1872 N   0  0  0  0  0  0  0  0  0  0  0  0
   22.8660   -9.1875  -15.4010 C   0  0  1  0  0  0  0  0  0  0  0  0
   24.3682   -9.2115  -15.4271 C   0  0  0  0  0  0  0  0  0  0  0  0
   25.0938  -10.6734  -14.6752 S   0  0  0  0  0  0  0  0  0  0  0  0
   22.3752   -7.8506  -15.8162 C   0  0  0  0  0  0  0  0  0  0  0  0
   22.5274   -7.3910  -16.9805 O   0  0  0  0  0  0  0  0  0  0  0  0
   17.5260   -5.5049  -15.0817 N   0  0  0  0  0  0  0  0  0  0  0  0
   18.7912   -6.1208  -15.0226 C   0  0  0  0  0  0  0  0  0  0  0  0
   18.9299   -7.3017  -15.4803 O   0  0  0  0  0  0  0  0  0  0  0  0
   19.9721   -5.4346  -14.4418 C   0  0  0  0  0  0  0  0  0  0  0  0
   21.2396   -5.6769  -15.2701 C   0  0  2  0  0  0  0  0  0  0  0  0
   21.6880   -7.0017  -14.8893 N   0  0  0  0  0  0  0  0  0  0  0  0
   22.2202   -4.6368  -14.8805 C   0  0  0  0  0  0  0  0  0  0  0  0
   23.3114   -4.8796  -14.0730 O   0  0  0  0  0  0  0  0  0  0  0  0
   22.0449   -3.4731  -15.3104 O   0  0  0  0  0  0  0  0  0  0  0  0
  2  1  1  0
  2  4  1  0
  3  2  2  0
  5  4  1  0
  5  7  1  0
  5  6  1  6
  7  8  2  0
  7  9  1  0
  9 10  1  0
 10 13  1  0
 10 11  1  6
 11 12  1  0
 13 20  1  0
 13 14  2  0
 16 17  2  0
 16 15  1  0
 19 18  1  1
 18 16  1  0
 19 21  1  0
 20 19  1  0
 21 22  1  0
 23 21  2  0
M  END
$$$$
