NCN.pdb
     RDKit          3D

 23 22  0  0  1  0  0  0  0  0999 V2000
   28.0370  -22.1785  -17.5172 N   0  0  0  0  0  0  0  0  0  0  0  0
   27.9211  -22.6582  -16.2024 C   0  0  0  0  0  0  0  0  0  0  0  0
   28.6001  -23.6498  -15.7757 O   0  0  0  0  0  0  0  0  0  0  0  0
   26.9812  -21.9989  -15.2691 C   0  0  0  0  0  0  0  0  0  0  0  0
   26.1850  -20.9324  -15.9971 C   0  0  2  0  0  0  0  0  0  0  0  0
   27.0339  -19.8550  -16.4055 N   0  0  0  0  0  0  0  0  0  0  0  0
   25.0375  -20.5018  -15.1831 C   0  0  0  0  0  0  0  0  0  0  0  0
   25.2524  -19.8969  -14.1084 O   0  0  0  0  0  0  0  0  0  0  0  0
   23.6680  -20.7182  -15.5214 N   0  0  0  0  0  0  0  0  0  0  0  0
   22.5969  -20.1575  -14.7507 C   0  0  1  0  0  0  0  0  0  0  0  0
   22.1138  -18.8232  -15.2451 C   0  0  0  0  0  0  0  0  0  0  0  0
   23.3885  -17.5587  -15.3141 S   0  0  0  0  0  0  0  0  0  0  0  0
   21.4611  -21.1086  -14.6734 C   0  0  0  0  0  0  0  0  0  0  0  0
   20.9604  -21.6686  -15.6860 O   0  0  0  0  0  0  0  0  0  0  0  0
   18.2770  -24.6413  -12.5461 N   0  0  0  0  0  0  0  0  0  0  0  0
   18.7668  -23.8075  -11.5222 C   0  0  0  0  0  0  0  0  0  0  0  0
   18.5424  -24.1176  -10.3070 O   0  0  0  0  0  0  0  0  0  0  0  0
   19.5389  -22.5745  -11.8157 C   0  0  0  0  0  0  0  0  0  0  0  0
   19.7801  -22.3946  -13.3194 C   0  0  2  0  0  0  0  0  0  0  0  0
   20.8690  -21.4423  -13.4124 N   0  0  0  0  0  0  0  0  0  0  0  0
   18.5298  -21.8510  -13.8994 C   0  0  0  0  0  0  0  0  0  0  0  0
   17.6024  -22.6189  -14.5716 O   0  0  0  0  0  0  0  0  0  0  0  0
   18.3062  -20.6251  -13.7700 O   0  0  0  0  0  0  0  0  0  0  0  0
  2  1  1  0
  2  4  1  0
  3  2  2  0
  5  4  1  0
  5  7  1  0
  5  6  1  1
  7  8  2  0
  7  9  1  0
  9 10  1  0
 10 13  1  0
 10 11  1  6
 11 12  1  0
 13 20  1  0
 13 14  2  0
 16 17  2  0
 16 15  1  0
 19 18  1  1
 18 16  1  0
 19 21  1  0
 20 19  1  0
 21 22  1  0
 23 21  2  0
M  END
$$$$
