NCN.pdb
     RDKit          3D

 23 22  0  0  1  0  0  0  0  0999 V2000
   14.9939  -15.6040  -17.3864 N   0  0  0  0  0  0  0  0  0  0  0  0
   15.8835  -15.2328  -16.3649 C   0  0  0  0  0  0  0  0  0  0  0  0
   16.9156  -15.9233  -16.0749 O   0  0  0  0  0  0  0  0  0  0  0  0
   15.6252  -13.9991  -15.5899 C   0  0  0  0  0  0  0  0  0  0  0  0
   16.7158  -12.9784  -15.8550 C   0  0  2  0  0  0  0  0  0  0  0  0
   17.9909  -13.4778  -15.4389 N   0  0  0  0  0  0  0  0  0  0  0  0
   16.3655  -11.6830  -15.2520 C   0  0  0  0  0  0  0  0  0  0  0  0
   15.1941  -11.2581  -15.3717 O   0  0  0  0  0  0  0  0  0  0  0  0
   17.2668  -10.8495  -14.5241 N   0  0  0  0  0  0  0  0  0  0  0  0
   16.8757   -9.5658  -14.0192 C   0  0  1  0  0  0  0  0  0  0  0  0
   17.1584   -9.3657  -12.5570 C   0  0  0  0  0  0  0  0  0  0  0  0
   16.2880  -10.5074  -11.4764 S   0  0  0  0  0  0  0  0  0  0  0  0
   17.5112   -8.4829  -14.8091 C   0  0  0  0  0  0  0  0  0  0  0  0
   18.7280   -8.4932  -15.1395 O   0  0  0  0  0  0  0  0  0  0  0  0
   17.9273   -4.2638  -17.9041 N   0  0  0  0  0  0  0  0  0  0  0  0
   16.5679   -4.5514  -17.6741 C   0  0  0  0  0  0  0  0  0  0  0  0
   15.6777   -3.8899  -18.3012 O   0  0  0  0  0  0  0  0  0  0  0  0
   16.1387   -5.6046  -16.7206 C   0  0  0  0  0  0  0  0  0  0  0  0
   17.3348   -6.3303  -16.0929 C   0  0  2  0  0  0  0  0  0  0  0  0
   16.7506   -7.3494  -15.2436 N   0  0  0  0  0  0  0  0  0  0  0  0
   18.0869   -5.3278  -15.3025 C   0  0  0  0  0  0  0  0  0  0  0  0
   19.1823   -4.6415  -15.7830 O   0  0  0  0  0  0  0  0  0  0  0  0
   17.7036   -5.0935  -14.1330 O   0  0  0  0  0  0  0  0  0  0  0  0
  2  1  1  0
  2  4  1  0
  3  2  2  0
  5  4  1  0
  5  7  1  0
  5  6  1  1
  7  8  2  0
  7  9  1  0
  9 10  1  0
 10 13  1  0
 10 11  1  1
 11 12  1  0
 13 20  1  0
 13 14  2  0
 16 17  2  0
 16 15  1  0
 19 18  1  1
 18 16  1  0
 19 21  1  0
 20 19  1  0
 21 22  1  0
 23 21  2  0
M  END
$$$$
