NCN.pdb
     RDKit          3D

 23 22  0  0  1  0  0  0  0  0999 V2000
   15.1291  -13.5869  -10.5037 N   0  0  0  0  0  0  0  0  0  0  0  0
   14.0871  -12.6500  -10.5977 C   0  0  0  0  0  0  0  0  0  0  0  0
   12.8808  -12.9394  -10.3022 O   0  0  0  0  0  0  0  0  0  0  0  0
   14.3861  -11.2750  -11.0549 C   0  0  0  0  0  0  0  0  0  0  0  0
   14.2097  -10.2947   -9.9107 C   0  0  2  0  0  0  0  0  0  0  0  0
   12.8301  -10.1815   -9.5468 N   0  0  0  0  0  0  0  0  0  0  0  0
   14.8405   -9.0058  -10.2357 C   0  0  0  0  0  0  0  0  0  0  0  0
   14.2660   -8.2381  -11.0405 O   0  0  0  0  0  0  0  0  0  0  0  0
   16.0795   -8.5435   -9.6991 N   0  0  0  0  0  0  0  0  0  0  0  0
   16.6392   -7.2746  -10.0628 C   0  0  1  0  0  0  0  0  0  0  0  0
   16.7348   -6.2944   -8.9278 C   0  0  0  0  0  0  0  0  0  0  0  0
   17.6495   -4.7989   -9.3224 S   0  0  0  0  0  0  0  0  0  0  0  0
   17.9727   -7.4562  -10.6867 C   0  0  0  0  0  0  0  0  0  0  0  0
   18.9495   -7.9806  -10.0861 O   0  0  0  0  0  0  0  0  0  0  0  0
   17.5652   -9.4603  -14.6161 N   0  0  0  0  0  0  0  0  0  0  0  0
   18.7399   -9.0996  -13.9280 C   0  0  0  0  0  0  0  0  0  0  0  0
   19.3328   -9.9702  -13.2110 O   0  0  0  0  0  0  0  0  0  0  0  0
   19.3106   -7.7322  -14.0121 C   0  0  0  0  0  0  0  0  0  0  0  0
   19.5363   -7.1198  -12.6245 C   0  0  2  0  0  0  0  0  0  0  0  0
   18.2152   -7.0341  -12.0339 N   0  0  0  0  0  0  0  0  0  0  0  0
   20.1286   -5.7777  -12.8315 C   0  0  0  0  0  0  0  0  0  0  0  0
   19.4582   -4.5993  -12.5790 O   0  0  0  0  0  0  0  0  0  0  0  0
   21.3042   -5.7137  -13.2601 O   0  0  0  0  0  0  0  0  0  0  0  0
  2  1  1  0
  2  4  1  0
  3  2  2  0
  5  4  1  0
  5  7  1  0
  5  6  1  6
  7  8  2  0
  7  9  1  0
  9 10  1  0
 10 13  1  0
 10 11  1  1
 11 12  1  0
 13 20  1  0
 13 14  2  0
 16 17  2  0
 16 15  1  0
 19 18  1  6
 18 16  1  0
 19 21  1  0
 20 19  1  0
 21 22  1  0
 23 21  2  0
M  END
$$$$
