NCN.pdb
     RDKit          3D

 23 22  0  0  1  0  0  0  0  0999 V2000
   15.9647  -12.3253  -16.4068 N   0  0  0  0  0  0  0  0  0  0  0  0
   16.7988  -13.2116  -15.7061 C   0  0  0  0  0  0  0  0  0  0  0  0
   16.3406  -14.2023  -15.0465 O   0  0  0  0  0  0  0  0  0  0  0  0
   18.2630  -12.9995  -15.7253 C   0  0  0  0  0  0  0  0  0  0  0  0
   18.6042  -11.7927  -16.5789 C   0  0  2  0  0  0  0  0  0  0  0  0
   18.8856  -12.1865  -17.9259 N   0  0  0  0  0  0  0  0  0  0  0  0
   19.6840  -11.0111  -15.9563 C   0  0  0  0  0  0  0  0  0  0  0  0
   20.8342  -11.5029  -15.9062 O   0  0  0  0  0  0  0  0  0  0  0  0
   19.5304   -9.7093  -15.3920 N   0  0  0  0  0  0  0  0  0  0  0  0
   20.6558   -8.9184  -14.9873 C   0  0  1  0  0  0  0  0  0  0  0  0
   21.6499   -8.6542  -16.0827 C   0  0  0  0  0  0  0  0  0  0  0  0
   22.9118   -7.4482  -15.6558 S   0  0  0  0  0  0  0  0  0  0  0  0
   20.2019   -7.6353  -14.3972 C   0  0  0  0  0  0  0  0  0  0  0  0
   19.4180   -6.8437  -14.9876 O   0  0  0  0  0  0  0  0  0  0  0  0
   19.0185   -3.9766  -10.9093 N   0  0  0  0  0  0  0  0  0  0  0  0
   19.2357   -5.2303  -10.3055 C   0  0  0  0  0  0  0  0  0  0  0  0
   18.9853   -5.3746   -9.0646 O   0  0  0  0  0  0  0  0  0  0  0  0
   19.7491   -6.3926  -11.0724 C   0  0  0  0  0  0  0  0  0  0  0  0
   20.1767   -5.9984  -12.4913 C   0  0  2  0  0  0  0  0  0  0  0  0
   20.6447   -7.2295  -13.0967 N   0  0  0  0  0  0  0  0  0  0  0  0
   21.2697   -5.0072  -12.3574 C   0  0  0  0  0  0  0  0  0  0  0  0
   21.0606   -3.6474  -12.2614 O   0  0  0  0  0  0  0  0  0  0  0  0
   22.4482   -5.4316  -12.3304 O   0  0  0  0  0  0  0  0  0  0  0  0
  2  1  1  0
  2  4  1  0
  3  2  2  0
  5  4  1  0
  5  7  1  0
  5  6  1  6
  7  8  2  0
  7  9  1  0
  9 10  1  0
 10 13  1  0
 10 11  1  6
 11 12  1  0
 13 20  1  0
 13 14  2  0
 16 17  2  0
 16 15  1  0
 19 18  1  1
 18 16  1  0
 19 21  1  0
 20 19  1  0
 21 22  1  0
 23 21  2  0
M  END
$$$$
