NCN.pdb
     RDKit          3D

 23 22  0  0  1  0  0  0  0  0999 V2000
   14.7227  -10.0940  -18.0130 N   0  0  0  0  0  0  0  0  0  0  0  0
   14.5411   -9.4152  -16.7971 C   0  0  0  0  0  0  0  0  0  0  0  0
   13.5147   -8.6949  -16.5646 O   0  0  0  0  0  0  0  0  0  0  0  0
   15.5698   -9.5311  -15.7400 C   0  0  0  0  0  0  0  0  0  0  0  0
   16.6685  -10.4789  -16.1828 C   0  0  2  0  0  0  0  0  0  0  0  0
   16.2990  -11.8383  -15.9301 N   0  0  0  0  0  0  0  0  0  0  0  0
   17.9534  -10.0956  -15.5771 C   0  0  0  0  0  0  0  0  0  0  0  0
   18.1089  -10.2468  -14.3442 O   0  0  0  0  0  0  0  0  0  0  0  0
   19.0647   -9.5546  -16.2907 N   0  0  0  0  0  0  0  0  0  0  0  0
   20.2606   -9.1278  -15.6250 C   0  0  1  0  0  0  0  0  0  0  0  0
   21.4976   -9.8725  -16.0410 C   0  0  0  0  0  0  0  0  0  0  0  0
   23.0180   -9.2267  -15.3337 S   0  0  0  0  0  0  0  0  0  0  0  0
   20.4634   -7.6698  -15.8084 C   0  0  0  0  0  0  0  0  0  0  0  0
   20.4469   -7.1078  -16.9370 O   0  0  0  0  0  0  0  0  0  0  0  0
   20.8805   -2.5847  -14.9371 N   0  0  0  0  0  0  0  0  0  0  0  0
   19.7078   -3.2396  -14.5135 C   0  0  0  0  0  0  0  0  0  0  0  0
   18.6790   -2.5466  -14.2228 O   0  0  0  0  0  0  0  0  0  0  0  0
   19.6330   -4.7171  -14.3947 C   0  0  0  0  0  0  0  0  0  0  0  0
   20.9309   -5.3944  -14.8509 C   0  0  2  0  0  0  0  0  0  0  0  0
   20.6914   -6.8140  -14.6825 N   0  0  0  0  0  0  0  0  0  0  0  0
   22.0105   -4.9142  -13.9571 C   0  0  0  0  0  0  0  0  0  0  0  0
   22.7654   -3.7876  -14.2075 O   0  0  0  0  0  0  0  0  0  0  0  0
   22.2482   -5.5709  -12.9169 O   0  0  0  0  0  0  0  0  0  0  0  0
  2  1  1  0
  2  4  1  0
  3  2  2  0
  5  4  1  0
  5  7  1  0
  5  6  1  1
  7  8  2  0
  7  9  1  0
  9 10  1  0
 10 13  1  0
 10 11  1  6
 11 12  1  0
 13 20  1  0
 13 14  2  0
 16 17  2  0
 16 15  1  0
 19 18  1  1
 18 16  1  0
 19 21  1  0
 20 19  1  0
 21 22  1  0
 23 21  2  0
M  END
$$$$
