NCN.pdb
     RDKit          3D

 23 22  0  0  1  0  0  0  0  0999 V2000
   18.3949  -14.5562  -15.8594 N   0  0  0  0  0  0  0  0  0  0  0  0
   18.7017  -13.3295  -16.4704 C   0  0  0  0  0  0  0  0  0  0  0  0
   18.1172  -12.9309  -17.5315 O   0  0  0  0  0  0  0  0  0  0  0  0
   19.7382  -12.4594  -15.8722 C   0  0  0  0  0  0  0  0  0  0  0  0
   20.5999  -11.8495  -16.9617 C   0  0  2  0  0  0  0  0  0  0  0  0
   21.2703  -12.8692  -17.7096 N   0  0  0  0  0  0  0  0  0  0  0  0
   21.5091  -10.8415  -16.3945 C   0  0  0  0  0  0  0  0  0  0  0  0
   21.4817  -10.6292  -15.1611 O   0  0  0  0  0  0  0  0  0  0  0  0
   22.4428  -10.0671  -17.1464 N   0  0  0  0  0  0  0  0  0  0  0  0
   23.3329   -9.1327  -16.5218 C   0  0  1  0  0  0  0  0  0  0  0  0
   24.7337   -9.1572  -17.0651 C   0  0  0  0  0  0  0  0  0  0  0  0
   25.8178   -7.9090  -16.3613 S   0  0  0  0  0  0  0  0  0  0  0  0
   22.7828   -7.7576  -16.6058 C   0  0  0  0  0  0  0  0  0  0  0  0
   22.3657   -7.2461  -17.6801 O   0  0  0  0  0  0  0  0  0  0  0  0
   19.6120   -4.4913  -15.9364 N   0  0  0  0  0  0  0  0  0  0  0  0
   19.9489   -4.8496  -14.6167 C   0  0  0  0  0  0  0  0  0  0  0  0
   19.1031   -4.6539  -13.6841 O   0  0  0  0  0  0  0  0  0  0  0  0
   21.2630   -5.4499  -14.2773 C   0  0  0  0  0  0  0  0  0  0  0  0
   22.1668   -5.5827  -15.5090 C   0  0  2  0  0  0  0  0  0  0  0  0
   22.6980   -6.9296  -15.4400 N   0  0  0  0  0  0  0  0  0  0  0  0
   23.2374   -4.5672  -15.3755 C   0  0  0  0  0  0  0  0  0  0  0  0
   23.2128   -3.3430  -16.0098 O   0  0  0  0  0  0  0  0  0  0  0  0
   24.2181   -4.8396  -14.6449 O   0  0  0  0  0  0  0  0  0  0  0  0
  2  1  1  0
  2  4  1  0
  3  2  2  0
  5  4  1  0
  5  7  1  0
  5  6  1  1
  7  8  2  0
  7  9  1  0
  9 10  1  0
 10 13  1  0
 10 11  1  6
 11 12  1  0
 13 20  1  0
 13 14  2  0
 16 17  2  0
 16 15  1  0
 19 18  1  1
 18 16  1  0
 19 21  1  0
 20 19  1  0
 21 22  1  0
 23 21  2  0
M  END
$$$$
