NCN.pdb
     RDKit          3D

 23 22  0  0  1  0  0  0  0  0999 V2000
   15.3268  -14.8765  -14.8658 N   0  0  0  0  0  0  0  0  0  0  0  0
   15.9793  -14.1171  -13.8809 C   0  0  0  0  0  0  0  0  0  0  0  0
   15.5561  -14.0497  -12.6798 O   0  0  0  0  0  0  0  0  0  0  0  0
   17.2019  -13.3636  -14.2365 C   0  0  0  0  0  0  0  0  0  0  0  0
   17.4061  -13.3796  -15.7397 C   0  0  2  0  0  0  0  0  0  0  0  0
   17.4599  -14.7229  -16.2307 N   0  0  0  0  0  0  0  0  0  0  0  0
   18.5785  -12.5707  -16.1082 C   0  0  0  0  0  0  0  0  0  0  0  0
   19.5062  -13.1102  -16.7527 O   0  0  0  0  0  0  0  0  0  0  0  0
   18.7533  -11.1910  -15.7878 N   0  0  0  0  0  0  0  0  0  0  0  0
   19.8047  -10.4042  -16.3635 C   0  0  1  0  0  0  0  0  0  0  0  0
   19.8489  -10.4376  -17.8651 C   0  0  0  0  0  0  0  0  0  0  0  0
   21.0072   -9.2727  -18.5932 S   0  0  0  0  0  0  0  0  0  0  0  0
   19.7186   -9.0003  -15.8921 C   0  0  0  0  0  0  0  0  0  0  0  0
   18.6622   -8.3148  -15.9559 O   0  0  0  0  0  0  0  0  0  0  0  0
   20.9983   -4.5490  -13.4446 N   0  0  0  0  0  0  0  0  0  0  0  0
   21.9585   -5.5396  -13.1614 C   0  0  0  0  0  0  0  0  0  0  0  0
   22.8820   -5.2880  -12.3205 O   0  0  0  0  0  0  0  0  0  0  0  0
   21.9279   -6.8721  -13.8142 C   0  0  0  0  0  0  0  0  0  0  0  0
   20.7789   -6.9890  -14.8229 C   0  0  2  0  0  0  0  0  0  0  0  0
   20.8608   -8.3452  -15.3280 N   0  0  0  0  0  0  0  0  0  0  0  0
   21.0334   -5.9937  -15.8906 C   0  0  0  0  0  0  0  0  0  0  0  0
   20.5645   -4.6973  -15.8542 O   0  0  0  0  0  0  0  0  0  0  0  0
   21.7125   -6.3536  -16.8800 O   0  0  0  0  0  0  0  0  0  0  0  0
  2  1  1  0
  2  4  1  0
  3  2  2  0
  5  4  1  0
  5  7  1  0
  5  6  1  1
  7  8  2  0
  7  9  1  0
  9 10  1  0
 10 13  1  0
 10 11  1  6
 11 12  1  0
 13 20  1  0
 13 14  2  0
 16 17  2  0
 16 15  1  0
 19 18  1  1
 18 16  1  0
 19 21  1  0
 20 19  1  0
 21 22  1  0
 23 21  2  0
M  END
$$$$
