NCN.pdb
     RDKit          3D

 23 22  0  0  1  0  0  0  0  0999 V2000
   19.9418   -9.2973  -16.3019 N   0  0  0  0  0  0  0  0  0  0  0  0
   18.8317  -10.1548  -16.2337 C   0  0  0  0  0  0  0  0  0  0  0  0
   18.7063  -11.1703  -16.9948 O   0  0  0  0  0  0  0  0  0  0  0  0
   17.7624   -9.8813  -15.2482 C   0  0  0  0  0  0  0  0  0  0  0  0
   18.3084   -9.0493  -14.1032 C   0  0  2  0  0  0  0  0  0  0  0  0
   19.3331   -9.7610  -13.4018 N   0  0  0  0  0  0  0  0  0  0  0  0
   17.2137   -8.5867  -13.2359 C   0  0  0  0  0  0  0  0  0  0  0  0
   16.2483   -7.9804  -13.7532 O   0  0  0  0  0  0  0  0  0  0  0  0
   17.1552   -8.7747  -11.8224 N   0  0  0  0  0  0  0  0  0  0  0  0
   16.0469   -8.3121  -11.0392 C   0  0  1  0  0  0  0  0  0  0  0  0
   15.3293   -9.3958  -10.2851 C   0  0  0  0  0  0  0  0  0  0  0  0
   16.3700  -10.7882   -9.8298 S   0  0  0  0  0  0  0  0  0  0  0  0
   16.4832   -7.2486  -10.1016 C   0  0  0  0  0  0  0  0  0  0  0  0
   17.4787   -7.3689   -9.3372 O   0  0  0  0  0  0  0  0  0  0  0  0
   18.2591   -2.9608   -7.8135 N   0  0  0  0  0  0  0  0  0  0  0  0
   17.6569   -2.9586   -9.0867 C   0  0  0  0  0  0  0  0  0  0  0  0
   17.4034   -1.8456   -9.6527 O   0  0  0  0  0  0  0  0  0  0  0  0
   17.3071   -4.2167   -9.7919 C   0  0  0  0  0  0  0  0  0  0  0  0
   16.1720   -4.9705   -9.0885 C   0  0  2  0  0  0  0  0  0  0  0  0
   15.7753   -6.0058  -10.0223 N   0  0  0  0  0  0  0  0  0  0  0  0
   15.0794   -3.9968   -8.8580 C   0  0  0  0  0  0  0  0  0  0  0  0
   15.0131   -3.1691   -7.7570 O   0  0  0  0  0  0  0  0  0  0  0  0
   14.1666   -3.9241   -9.7132 O   0  0  0  0  0  0  0  0  0  0  0  0
  2  1  1  0
  2  4  1  0
  3  2  2  0
  5  4  1  0
  5  7  1  0
  5  6  1  1
  7  8  2  0
  7  9  1  0
  9 10  1  0
 10 13  1  0
 10 11  1  1
 11 12  1  0
 13 20  1  0
 13 14  2  0
 16 17  2  0
 16 15  1  0
 19 18  1  6
 18 16  1  0
 19 21  1  0
 20 19  1  0
 21 22  1  0
 23 21  2  0
M  END
$$$$
