FAP.pdb
     RDKit          3D

 24 25  0  0  1  0  0  0  0  0999 V2000
   20.2399  -19.7511  -14.2208 N   0  0  0  0  0  0  0  0  0  0  0  0
   21.4131  -20.4669  -14.6429 C   0  0  1  0  0  0  0  0  0  0  0  0
   21.6465  -20.3410  -16.1253 C   0  0  0  0  0  0  0  0  0  0  0  0
   20.5975  -21.1690  -16.7987 C   0  0  0  0  0  0  0  0  0  0  0  0
   19.5115  -20.5972  -17.4238 C   0  0  0  0  0  0  0  0  0  0  0  0
   18.5416  -21.3755  -18.0471 C   0  0  0  0  0  0  0  0  0  0  0  0
   18.6642  -22.7543  -18.0430 C   0  0  0  0  0  0  0  0  0  0  0  0
   19.7400  -23.3429  -17.4250 C   0  0  0  0  0  0  0  0  0  0  0  0
   20.6950  -22.5435  -16.8095 C   0  0  0  0  0  0  0  0  0  0  0  0
   22.5763  -20.0363  -13.8356 C   0  0  0  0  0  0  0  0  0  0  0  0
   22.7668  -18.8067  -13.7131 O   0  0  0  0  0  0  0  0  0  0  0  0
   25.4580  -21.8401  -12.1325 C   0  0  0  0  0  0  0  0  0  0  0  0
   24.8700  -20.8528  -13.0863 C   0  0  2  0  0  0  0  0  0  0  0  0
   23.4552  -20.9485  -13.2151 N   0  0  0  0  0  0  0  0  0  0  0  0
   25.5997  -20.7763  -14.3968 C   0  0  0  0  0  0  0  0  0  0  0  0
   25.0100  -21.1081  -15.4500 O   0  0  0  0  0  0  0  0  0  0  0  0
   26.9436  -20.3391  -14.5021 N   0  0  0  0  0  0  0  0  0  0  0  0
   27.8889  -20.0265  -13.4575 C   0  0  0  0  0  0  0  0  0  0  0  0
   28.6084  -18.8078  -14.0292 C   0  0  0  0  0  0  0  0  0  0  0  0
   28.3325  -18.7908  -15.4919 C   0  0  0  0  0  0  0  0  0  0  0  0
   27.6498  -20.1152  -15.7474 C   0  0  1  0  0  0  0  0  0  0  0  0
   28.6986  -21.1317  -15.9838 C   0  0  0  0  0  0  0  0  0  0  0  0
   29.3983  -21.2694  -17.1725 O   0  0  0  0  0  0  0  0  0  0  0  0
   28.9924  -21.9331  -15.0634 O   0  0  0  0  0  0  0  0  0  0  0  0
  2  1  1  1
  2 10  1  0
  3  2  1  0
  4  3  1  0
  5  4  2  0
  6  5  1  0
  7  6  2  0
  7  8  1  0
  8  9  2  0
  9  4  1  0
 10 11  2  0
 13 12  1  6
 13 15  1  0
 14 13  1  0
 14 10  1  0
 15 16  2  0
 15 17  1  0
 17 18  1  0
 17 21  1  0
 18 19  1  0
 20 19  1  0
 20 21  1  0
 21 22  1  1
 22 24  2  0
 22 23  1  0
M  END
$$$$
