FAP.pdb
     RDKit          3D

 24 25  0  0  1  0  0  0  0  0999 V2000
   25.3774  -22.3690  -11.8409 N   0  0  0  0  0  0  0  0  0  0  0  0
   25.9514  -21.1924  -11.2466 C   0  0  1  0  0  0  0  0  0  0  0  0
   24.9258  -20.1098  -11.0372 C   0  0  0  0  0  0  0  0  0  0  0  0
   24.5274  -19.6249  -12.3957 C   0  0  0  0  0  0  0  0  0  0  0  0
   23.2746  -19.8665  -12.9146 C   0  0  0  0  0  0  0  0  0  0  0  0
   22.9137  -19.4115  -14.1786 C   0  0  0  0  0  0  0  0  0  0  0  0
   23.8279  -18.7002  -14.9364 C   0  0  0  0  0  0  0  0  0  0  0  0
   25.0820  -18.4492  -14.4362 C   0  0  0  0  0  0  0  0  0  0  0  0
   25.4179  -18.9145  -13.1711 C   0  0  0  0  0  0  0  0  0  0  0  0
   26.6659  -21.5604  -10.0039 C   0  0  0  0  0  0  0  0  0  0  0  0
   25.9762  -21.9675   -9.0439 O   0  0  0  0  0  0  0  0  0  0  0  0
   30.2889  -21.1421   -8.9049 C   0  0  0  0  0  0  0  0  0  0  0  0
   28.8306  -21.3681   -8.6749 C   0  0  2  0  0  0  0  0  0  0  0  0
   28.0673  -21.4681   -9.8728 N   0  0  0  0  0  0  0  0  0  0  0  0
   28.2360  -20.4502   -7.6456 C   0  0  0  0  0  0  0  0  0  0  0  0
   27.2718  -19.7159   -7.9592 O   0  0  0  0  0  0  0  0  0  0  0  0
   28.7192  -20.3736   -6.3156 N   0  0  0  0  0  0  0  0  0  0  0  0
   29.8161  -21.0793   -5.6982 C   0  0  0  0  0  0  0  0  0  0  0  0
   29.2635  -21.3791   -4.3073 C   0  0  0  0  0  0  0  0  0  0  0  0
   28.1065  -20.4663   -4.0970 C   0  0  0  0  0  0  0  0  0  0  0  0
   28.1679  -19.5251   -5.2784 C   0  0  1  0  0  0  0  0  0  0  0  0
   29.0765  -18.4111   -4.9283 C   0  0  0  0  0  0  0  0  0  0  0  0
   28.7391  -17.3648   -4.0838 O   0  0  0  0  0  0  0  0  0  0  0  0
   30.2336  -18.3896   -5.4143 O   0  0  0  0  0  0  0  0  0  0  0  0
  2  1  1  1
  2 10  1  0
  3  2  1  0
  4  3  1  0
  5  4  2  0
  6  5  1  0
  7  6  2  0
  7  8  1  0
  8  9  2  0
  9  4  1  0
 10 11  2  0
 13 12  1  6
 13 15  1  0
 14 13  1  0
 14 10  1  0
 15 16  2  0
 15 17  1  0
 17 18  1  0
 17 21  1  0
 18 19  1  0
 20 19  1  0
 20 21  1  0
 21 22  1  1
 22 24  2  0
 22 23  1  0
M  END
$$$$
