FAP.pdb
     RDKit          3D

 24 25  0  0  1  0  0  0  0  0999 V2000
   28.9149  -23.9128  -17.6416 N   0  0  0  0  0  0  0  0  0  0  0  0
   27.7144  -23.1230  -17.5934 C   0  0  1  0  0  0  0  0  0  0  0  0
   26.4948  -23.9302  -17.9521 C   0  0  0  0  0  0  0  0  0  0  0  0
   26.1357  -23.5667  -19.3587 C   0  0  0  0  0  0  0  0  0  0  0  0
   26.6589  -24.2417  -20.4393 C   0  0  0  0  0  0  0  0  0  0  0  0
   26.3189  -23.8963  -21.7432 C   0  0  0  0  0  0  0  0  0  0  0  0
   25.4367  -22.8532  -21.9667 C   0  0  0  0  0  0  0  0  0  0  0  0
   24.9045  -22.1682  -20.9021 C   0  0  0  0  0  0  0  0  0  0  0  0
   25.2600  -22.5327  -19.6096 C   0  0  0  0  0  0  0  0  0  0  0  0
   27.6044  -22.4647  -16.2725 C   0  0  0  0  0  0  0  0  0  0  0  0
   27.8059  -23.1705  -15.2604 O   0  0  0  0  0  0  0  0  0  0  0  0
   26.7397  -18.9358  -15.1231 C   0  0  0  0  0  0  0  0  0  0  0  0
   26.9545  -20.4009  -14.9282 C   0  0  2  0  0  0  0  0  0  0  0  0
   27.2870  -21.0984  -16.1242 N   0  0  0  0  0  0  0  0  0  0  0  0
   25.8801  -21.0619  -14.1132 C   0  0  0  0  0  0  0  0  0  0  0  0
   25.1550  -21.9345  -14.6423 O   0  0  0  0  0  0  0  0  0  0  0  0
   25.6433  -20.7426  -12.7529 N   0  0  0  0  0  0  0  0  0  0  0  0
   26.2989  -19.7686  -11.9138 C   0  0  0  0  0  0  0  0  0  0  0  0
   26.3893  -20.5031  -10.5789 C   0  0  0  0  0  0  0  0  0  0  0  0
   25.4156  -21.6275  -10.6384 C   0  0  0  0  0  0  0  0  0  0  0  0
   24.6441  -21.3718  -11.9130 C   0  0  1  0  0  0  0  0  0  0  0  0
   23.5266  -20.4558  -11.5948 C   0  0  0  0  0  0  0  0  0  0  0  0
   23.5254  -19.0986  -11.8771 O   0  0  0  0  0  0  0  0  0  0  0  0
   22.5016  -20.9133  -11.0330 O   0  0  0  0  0  0  0  0  0  0  0  0
  2  1  1  1
  2 10  1  0
  3  2  1  0
  4  3  1  0
  5  4  2  0
  6  5  1  0
  7  6  2  0
  7  8  1  0
  8  9  2  0
  9  4  1  0
 10 11  2  0
 13 12  1  6
 13 15  1  0
 14 13  1  0
 14 10  1  0
 15 16  2  0
 15 17  1  0
 17 18  1  0
 17 21  1  0
 18 19  1  0
 20 19  1  0
 20 21  1  0
 21 22  1  1
 22 24  2  0
 22 23  1  0
M  END
$$$$
