FAP.pdb
     RDKit          3D

 24 25  0  0  1  0  0  0  0  0999 V2000
   20.3799  -20.9544  -11.8811 N   0  0  0  0  0  0  0  0  0  0  0  0
   21.3918  -21.3657  -12.8160 C   0  0  1  0  0  0  0  0  0  0  0  0
   20.9559  -21.1627  -14.2430 C   0  0  0  0  0  0  0  0  0  0  0  0
   19.8537  -22.1417  -14.5004 C   0  0  0  0  0  0  0  0  0  0  0  0
   18.5446  -21.7393  -14.6472 C   0  0  0  0  0  0  0  0  0  0  0  0
   17.5270  -22.6571  -14.8864 C   0  0  0  0  0  0  0  0  0  0  0  0
   17.8292  -24.0047  -14.9799 C   0  0  0  0  0  0  0  0  0  0  0  0
   19.1285  -24.4252  -14.8363 C   0  0  0  0  0  0  0  0  0  0  0  0
   20.1266  -23.4888  -14.5981 C   0  0  0  0  0  0  0  0  0  0  0  0
   22.6679  -20.6866  -12.4988 C   0  0  0  0  0  0  0  0  0  0  0  0
   22.6464  -19.4404  -12.4005 O   0  0  0  0  0  0  0  0  0  0  0  0
   26.2689  -21.8607  -12.1149 C   0  0  0  0  0  0  0  0  0  0  0  0
   25.1976  -20.9563  -12.6295 C   0  0  2  0  0  0  0  0  0  0  0  0
   23.8783  -21.3854  -12.3087 N   0  0  0  0  0  0  0  0  0  0  0  0
   25.3811  -20.5664  -14.0682 C   0  0  0  0  0  0  0  0  0  0  0  0
   24.5439  -20.9424  -14.9195 O   0  0  0  0  0  0  0  0  0  0  0  0
   26.4716  -19.7803  -14.5167 N   0  0  0  0  0  0  0  0  0  0  0  0
   27.6413  -19.3408  -13.7948 C   0  0  0  0  0  0  0  0  0  0  0  0
   27.8312  -17.9217  -14.3237 C   0  0  0  0  0  0  0  0  0  0  0  0
   27.0492  -17.8238  -15.5865 C   0  0  0  0  0  0  0  0  0  0  0  0
   26.6165  -19.2469  -15.8562 C   0  0  1  0  0  0  0  0  0  0  0  0
   27.6985  -19.9185  -16.6094 C   0  0  0  0  0  0  0  0  0  0  0  0
   28.0129  -19.6481  -17.9322 O   0  0  0  0  0  0  0  0  0  0  0  0
   28.3916  -20.7936  -16.0353 O   0  0  0  0  0  0  0  0  0  0  0  0
  2  1  1  1
  2 10  1  0
  3  2  1  0
  4  3  1  0
  5  4  2  0
  6  5  1  0
  7  6  2  0
  7  8  1  0
  8  9  2  0
  9  4  1  0
 10 11  2  0
 13 12  1  6
 13 15  1  0
 14 13  1  0
 14 10  1  0
 15 16  2  0
 15 17  1  0
 17 18  1  0
 17 21  1  0
 18 19  1  0
 20 19  1  0
 20 21  1  0
 21 22  1  6
 22 24  2  0
 22 23  1  0
M  END
$$$$
