FAP.pdb
     RDKit          3D

 24 25  0  0  1  0  0  0  0  0999 V2000
   26.2550  -21.0421  -13.2298 N   0  0  0  0  0  0  0  0  0  0  0  0
   27.2516  -20.8763  -12.2068 C   0  0  1  0  0  0  0  0  0  0  0  0
   28.4402  -20.0943  -12.7002 C   0  0  0  0  0  0  0  0  0  0  0  0
   29.6263  -21.0009  -12.5952 C   0  0  0  0  0  0  0  0  0  0  0  0
   30.3492  -21.1189  -11.4288 C   0  0  0  0  0  0  0  0  0  0  0  0
   31.4503  -21.9643  -11.3411 C   0  0  0  0  0  0  0  0  0  0  0  0
   31.8332  -22.7057  -12.4456 C   0  0  0  0  0  0  0  0  0  0  0  0
   31.1250  -22.6016  -13.6175 C   0  0  0  0  0  0  0  0  0  0  0  0
   30.0291  -21.7501  -13.6793 C   0  0  0  0  0  0  0  0  0  0  0  0
   26.6319  -20.2863  -10.9993 C   0  0  0  0  0  0  0  0  0  0  0  0
   26.2275  -19.1060  -11.0795 O   0  0  0  0  0  0  0  0  0  0  0  0
   24.9600  -20.7915   -7.8916 C   0  0  0  0  0  0  0  0  0  0  0  0
   26.2943  -20.4711   -8.4811 C   0  0  2  0  0  0  0  0  0  0  0  0
   26.4872  -20.9977   -9.7899 N   0  0  0  0  0  0  0  0  0  0  0  0
   27.4408  -20.7246   -7.5447 C   0  0  0  0  0  0  0  0  0  0  0  0
   28.2068  -21.6916   -7.7571 O   0  0  0  0  0  0  0  0  0  0  0  0
   27.7033  -19.9098   -6.4153 N   0  0  0  0  0  0  0  0  0  0  0  0
   27.0370  -18.7059   -5.9805 C   0  0  0  0  0  0  0  0  0  0  0  0
   28.2027  -17.8544   -5.4845 C   0  0  0  0  0  0  0  0  0  0  0  0
   29.3508  -18.7776   -5.2708 C   0  0  0  0  0  0  0  0  0  0  0  0
   28.7463  -20.1529   -5.4393 C   0  0  1  0  0  0  0  0  0  0  0  0
   28.1981  -20.5743   -4.1312 C   0  0  0  0  0  0  0  0  0  0  0  0
   28.9730  -20.9313   -3.0386 O   0  0  0  0  0  0  0  0  0  0  0  0
   26.9534  -20.6193   -3.9754 O   0  0  0  0  0  0  0  0  0  0  0  0
  2  1  1  6
  2 10  1  0
  3  2  1  0
  4  3  1  0
  5  4  2  0
  6  5  1  0
  7  6  2  0
  7  8  1  0
  8  9  2  0
  9  4  1  0
 10 11  2  0
 13 12  1  1
 13 15  1  0
 14 13  1  0
 14 10  1  0
 15 16  2  0
 15 17  1  0
 17 18  1  0
 17 21  1  0
 18 19  1  0
 20 19  1  0
 20 21  1  0
 21 22  1  1
 22 24  2  0
 22 23  1  0
M  END
$$$$
