FAP.pdb
     RDKit          3D

 24 25  0  0  1  0  0  0  0  0999 V2000
   26.9574  -18.3148   -8.0704 N   0  0  0  0  0  0  0  0  0  0  0  0
   27.1789  -19.6671   -8.5057 C   0  0  1  0  0  0  0  0  0  0  0  0
   26.9363  -20.6611   -7.4009 C   0  0  0  0  0  0  0  0  0  0  0  0
   27.9583  -20.3873   -6.3425 C   0  0  0  0  0  0  0  0  0  0  0  0
   29.2986  -20.6294   -6.5473 C   0  0  0  0  0  0  0  0  0  0  0  0
   30.2410  -20.3715   -5.5572 C   0  0  0  0  0  0  0  0  0  0  0  0
   29.8302  -19.8607   -4.3380 C   0  0  0  0  0  0  0  0  0  0  0  0
   28.4980  -19.6127   -4.1149 C   0  0  0  0  0  0  0  0  0  0  0  0
   27.5767  -19.8788   -5.1199 C   0  0  0  0  0  0  0  0  0  0  0  0
   26.3716  -19.9389   -9.7159 C   0  0  0  0  0  0  0  0  0  0  0  0
   25.2274  -19.4378   -9.7676 O   0  0  0  0  0  0  0  0  0  0  0  0
   27.0198  -21.8172  -12.9682 C   0  0  0  0  0  0  0  0  0  0  0  0
   26.2582  -20.8943  -12.0746 C   0  0  2  0  0  0  0  0  0  0  0  0
   26.8423  -20.7269  -10.7869 N   0  0  0  0  0  0  0  0  0  0  0  0
   24.7820  -21.1693  -12.0455 C   0  0  0  0  0  0  0  0  0  0  0  0
   24.2778  -21.7183  -11.0398 O   0  0  0  0  0  0  0  0  0  0  0  0
   23.9176  -20.8317  -13.1166 N   0  0  0  0  0  0  0  0  0  0  0  0
   24.2379  -20.2924  -14.4162 C   0  0  0  0  0  0  0  0  0  0  0  0
   23.1004  -19.3000  -14.6418 C   0  0  0  0  0  0  0  0  0  0  0  0
   22.0176  -19.6605  -13.6860 C   0  0  0  0  0  0  0  0  0  0  0  0
   22.4759  -20.9757  -13.0984 C   0  0  1  0  0  0  0  0  0  0  0  0
   22.0130  -22.0610  -13.9912 C   0  0  0  0  0  0  0  0  0  0  0  0
   22.8248  -22.7266  -14.8965 O   0  0  0  0  0  0  0  0  0  0  0  0
   20.8114  -22.4211  -13.9444 O   0  0  0  0  0  0  0  0  0  0  0  0
  2  1  1  1
  2 10  1  0
  3  2  1  0
  4  3  1  0
  5  4  2  0
  6  5  1  0
  7  6  2  0
  7  8  1  0
  8  9  2  0
  9  4  1  0
 10 11  2  0
 13 12  1  1
 13 15  1  0
 14 13  1  0
 14 10  1  0
 15 16  2  0
 15 17  1  0
 17 18  1  0
 17 21  1  0
 18 19  1  0
 20 19  1  0
 20 21  1  0
 21 22  1  6
 22 24  2  0
 22 23  1  0
M  END
$$$$
