FAP.pdb
     RDKit          3D

 24 25  0  0  1  0  0  0  0  0999 V2000
   23.0333  -13.4016  -16.9842 N   0  0  0  0  0  0  0  0  0  0  0  0
   23.5784  -12.2789  -16.2704 C   0  0  1  0  0  0  0  0  0  0  0  0
   24.9248  -11.8704  -16.8071 C   0  0  0  0  0  0  0  0  0  0  0  0
   25.8419  -13.0352  -16.6026 C   0  0  0  0  0  0  0  0  0  0  0  0
   26.1549  -13.5009  -15.3447 C   0  0  0  0  0  0  0  0  0  0  0  0
   27.0084  -14.5844  -15.1649 C   0  0  0  0  0  0  0  0  0  0  0  0
   27.5584  -15.2127  -16.2690 C   0  0  0  0  0  0  0  0  0  0  0  0
   27.2582  -14.7628  -17.5313 C   0  0  0  0  0  0  0  0  0  0  0  0
   26.4031  -13.6788  -17.6841 C   0  0  0  0  0  0  0  0  0  0  0  0
   22.5981  -11.1702  -16.2630 C   0  0  0  0  0  0  0  0  0  0  0  0
   22.1850  -10.7613  -17.3699 O   0  0  0  0  0  0  0  0  0  0  0  0
   20.7481   -9.2738  -13.5302 C   0  0  0  0  0  0  0  0  0  0  0  0
   21.1846   -9.5165  -14.9377 C   0  0  2  0  0  0  0  0  0  0  0  0
   22.1269  -10.5752  -15.0740 N   0  0  0  0  0  0  0  0  0  0  0  0
   21.5622   -8.2630  -15.6736 C   0  0  0  0  0  0  0  0  0  0  0  0
   22.7659   -8.0437  -15.9387 O   0  0  0  0  0  0  0  0  0  0  0  0
   20.6084   -7.3014  -16.0905 N   0  0  0  0  0  0  0  0  0  0  0  0
   19.1763   -7.2958  -15.9126 C   0  0  0  0  0  0  0  0  0  0  0  0
   18.6888   -6.7354  -17.2459 C   0  0  0  0  0  0  0  0  0  0  0  0
   19.8569   -6.0730  -17.8884 C   0  0  0  0  0  0  0  0  0  0  0  0
   20.9169   -6.0824  -16.8107 C   0  0  1  0  0  0  0  0  0  0  0  0
   20.7277   -4.8774  -15.9732 C   0  0  0  0  0  0  0  0  0  0  0  0
   20.1786   -4.8898  -14.7004 O   0  0  0  0  0  0  0  0  0  0  0  0
   21.0799   -3.7592  -16.4219 O   0  0  0  0  0  0  0  0  0  0  0  0
  2  1  1  6
  2 10  1  0
  3  2  1  0
  4  3  1  0
  5  4  2  0
  6  5  1  0
  7  6  2  0
  7  8  1  0
  8  9  2  0
  9  4  1  0
 10 11  2  0
 13 12  1  1
 13 15  1  0
 14 13  1  0
 14 10  1  0
 15 16  2  0
 15 17  1  0
 17 18  1  0
 17 21  1  0
 18 19  1  0
 20 19  1  0
 20 21  1  0
 21 22  1  1
 22 24  2  0
 22 23  1  0
M  END
$$$$
