FAP.pdb
     RDKit          3D

 24 25  0  0  1  0  0  0  0  0999 V2000
   25.5224  -21.9814  -12.0473 N   0  0  0  0  0  0  0  0  0  0  0  0
   25.7057  -20.8325  -11.2025 C   0  0  1  0  0  0  0  0  0  0  0  0
   24.3928  -20.2128  -10.8021 C   0  0  0  0  0  0  0  0  0  0  0  0
   23.7182  -19.7784  -12.0653 C   0  0  0  0  0  0  0  0  0  0  0  0
   24.3110  -18.8926  -12.9376 C   0  0  0  0  0  0  0  0  0  0  0  0
   23.6758  -18.4948  -14.1094 C   0  0  0  0  0  0  0  0  0  0  0  0
   22.4213  -18.9958  -14.4115 C   0  0  0  0  0  0  0  0  0  0  0  0
   21.8140  -19.8801  -13.5542 C   0  0  0  0  0  0  0  0  0  0  0  0
   22.4693  -20.2617  -12.3903 C   0  0  0  0  0  0  0  0  0  0  0  0
   26.5507  -21.1968  -10.0434 C   0  0  0  0  0  0  0  0  0  0  0  0
   26.0075  -21.8322   -9.1137 O   0  0  0  0  0  0  0  0  0  0  0  0
   30.1664  -20.4771   -9.0777 C   0  0  0  0  0  0  0  0  0  0  0  0
   28.7454  -20.8429   -8.7995 C   0  0  2  0  0  0  0  0  0  0  0  0
   27.9170  -20.8572   -9.9576 N   0  0  0  0  0  0  0  0  0  0  0  0
   28.1531  -20.1055   -7.6329 C   0  0  0  0  0  0  0  0  0  0  0  0
   27.1150  -19.4255   -7.7973 O   0  0  0  0  0  0  0  0  0  0  0  0
   28.7193  -20.1429   -6.3344 N   0  0  0  0  0  0  0  0  0  0  0  0
   29.9179  -20.8039   -5.8771 C   0  0  0  0  0  0  0  0  0  0  0  0
   29.4947  -21.3249   -4.5063 C   0  0  0  0  0  0  0  0  0  0  0  0
   28.2754  -20.5662   -4.1141 C   0  0  0  0  0  0  0  0  0  0  0  0
   28.1658  -19.4870   -5.1669 C   0  0  1  0  0  0  0  0  0  0  0  0
   28.9891  -18.3377   -4.7305 C   0  0  0  0  0  0  0  0  0  0  0  0
   28.6461  -17.4793   -3.6974 O   0  0  0  0  0  0  0  0  0  0  0  0
   30.0735  -18.1039   -5.3180 O   0  0  0  0  0  0  0  0  0  0  0  0
  2  1  1  1
  2 10  1  0
  3  2  1  0
  4  3  1  0
  5  4  2  0
  6  5  1  0
  7  6  2  0
  7  8  1  0
  8  9  2  0
  9  4  1  0
 10 11  2  0
 13 12  1  6
 13 15  1  0
 14 13  1  0
 14 10  1  0
 15 16  2  0
 15 17  1  0
 17 18  1  0
 17 21  1  0
 18 19  1  0
 20 19  1  0
 20 21  1  0
 21 22  1  1
 22 24  2  0
 22 23  1  0
M  END
$$$$
