FAP.pdb
     RDKit          3D

 24 25  0  0  1  0  0  0  0  0999 V2000
   25.2743  -21.7119  -11.8110 N   0  0  0  0  0  0  0  0  0  0  0  0
   26.1181  -20.5478  -11.8205 C   0  0  1  0  0  0  0  0  0  0  0  0
   25.6258  -19.5034  -12.7871 C   0  0  0  0  0  0  0  0  0  0  0  0
   25.4480  -20.1868  -14.1065 C   0  0  0  0  0  0  0  0  0  0  0  0
   24.2095  -20.3203  -14.6942 C   0  0  0  0  0  0  0  0  0  0  0  0
   24.0545  -20.9573  -15.9210 C   0  0  0  0  0  0  0  0  0  0  0  0
   25.1641  -21.4703  -16.5705 C   0  0  0  0  0  0  0  0  0  0  0  0
   26.4073  -21.3470  -16.0005 C   0  0  0  0  0  0  0  0  0  0  0  0
   26.5355  -20.7065  -14.7745 C   0  0  0  0  0  0  0  0  0  0  0  0
   26.2715  -20.0331  -10.4414 C   0  0  0  0  0  0  0  0  0  0  0  0
   26.8380  -18.9275  -10.3006 O   0  0  0  0  0  0  0  0  0  0  0  0
   24.8288  -20.8379   -7.0709 C   0  0  0  0  0  0  0  0  0  0  0  0
   25.9553  -20.3790   -7.9375 C   0  0  2  0  0  0  0  0  0  0  0  0
   25.8092  -20.7348   -9.3085 N   0  0  0  0  0  0  0  0  0  0  0  0
   27.3119  -20.6810   -7.3684 C   0  0  0  0  0  0  0  0  0  0  0  0
   27.9984  -21.6007   -7.8684 O   0  0  0  0  0  0  0  0  0  0  0  0
   27.8627  -19.9645   -6.2769 N   0  0  0  0  0  0  0  0  0  0  0  0
   27.3319  -18.8243   -5.5692 C   0  0  0  0  0  0  0  0  0  0  0  0
   28.5845  -17.9882   -5.3210 C   0  0  0  0  0  0  0  0  0  0  0  0
   29.7514  -18.8937   -5.5073 C   0  0  0  0  0  0  0  0  0  0  0  0
   29.1287  -20.2648   -5.6392 C   0  0  1  0  0  0  0  0  0  0  0  0
   28.9500  -20.8183   -4.2788 C   0  0  0  0  0  0  0  0  0  0  0  0
   29.9817  -21.3107   -3.4947 O   0  0  0  0  0  0  0  0  0  0  0  0
   27.7988  -20.8551   -3.7796 O   0  0  0  0  0  0  0  0  0  0  0  0
  2  1  1  1
  2 10  1  0
  3  2  1  0
  4  3  1  0
  5  4  2  0
  6  5  1  0
  7  6  2  0
  7  8  1  0
  8  9  2  0
  9  4  1  0
 10 11  2  0
 13 12  1  1
 13 15  1  0
 14 13  1  0
 14 10  1  0
 15 16  2  0
 15 17  1  0
 17 18  1  0
 17 21  1  0
 18 19  1  0
 20 19  1  0
 20 21  1  0
 21 22  1  1
 22 24  2  0
 22 23  1  0
M  END
$$$$
