FAP.pdb
     RDKit          3D

 24 25  0  0  1  0  0  0  0  0999 V2000
   26.5716  -21.9594  -10.7617 N   0  0  0  0  0  0  0  0  0  0  0  0
   25.8507  -20.8841  -11.3874 C   0  0  1  0  0  0  0  0  0  0  0  0
   25.4711  -19.8118  -10.4006 C   0  0  0  0  0  0  0  0  0  0  0  0
   24.4767  -20.4213   -9.4630 C   0  0  0  0  0  0  0  0  0  0  0  0
   23.2175  -20.7920   -9.8803 C   0  0  0  0  0  0  0  0  0  0  0  0
   22.3001  -21.3579   -9.0010 C   0  0  0  0  0  0  0  0  0  0  0  0
   22.6534  -21.5556   -7.6773 C   0  0  0  0  0  0  0  0  0  0  0  0
   23.9044  -21.1925   -7.2424 C   0  0  0  0  0  0  0  0  0  0  0  0
   24.8023  -20.6292   -8.1403 C   0  0  0  0  0  0  0  0  0  0  0  0
   26.6280  -20.3652  -12.5349 C   0  0  0  0  0  0  0  0  0  0  0  0
   27.4579  -19.4591  -12.3038 O   0  0  0  0  0  0  0  0  0  0  0  0
   26.8882  -21.1865  -16.2340 C   0  0  0  0  0  0  0  0  0  0  0  0
   26.9172  -20.2593  -15.0636 C   0  0  2  0  0  0  0  0  0  0  0  0
   26.4651  -20.8500  -13.8494 N   0  0  0  0  0  0  0  0  0  0  0  0
   26.3165  -18.9128  -15.3495 C   0  0  0  0  0  0  0  0  0  0  0  0
   25.2498  -18.5819  -14.7838 O   0  0  0  0  0  0  0  0  0  0  0  0
   26.9071  -17.9830  -16.2410 N   0  0  0  0  0  0  0  0  0  0  0  0
   28.1588  -18.0670  -16.9542 C   0  0  0  0  0  0  0  0  0  0  0  0
   28.6757  -16.6335  -16.8665 C   0  0  0  0  0  0  0  0  0  0  0  0
   27.5122  -15.7766  -16.5088 C   0  0  0  0  0  0  0  0  0  0  0  0
   26.3277  -16.7096  -16.6182 C   0  0  1  0  0  0  0  0  0  0  0  0
   25.8679  -16.7012  -18.0245 C   0  0  0  0  0  0  0  0  0  0  0  0
   26.1499  -17.6997  -18.9438 O   0  0  0  0  0  0  0  0  0  0  0  0
   25.1755  -15.7385  -18.4361 O   0  0  0  0  0  0  0  0  0  0  0  0
  2  1  1  1
  2 10  1  0
  3  2  1  0
  4  3  1  0
  5  4  2  0
  6  5  1  0
  7  6  2  0
  7  8  1  0
  8  9  2  0
  9  4  1  0
 10 11  2  0
 13 12  1  6
 13 15  1  0
 14 13  1  0
 14 10  1  0
 15 16  2  0
 15 17  1  0
 17 18  1  0
 17 21  1  0
 18 19  1  0
 20 19  1  0
 20 21  1  0
 21 22  1  6
 22 24  2  0
 22 23  1  0
M  END
$$$$
