FAP.pdb
     RDKit          3D

 24 25  0  0  1  0  0  0  0  0999 V2000
   16.5214  -18.5379    2.2083 N   0  0  0  0  0  0  0  0  0  0  0  0
   16.7757  -18.4318    3.6195 C   0  0  1  0  0  0  0  0  0  0  0  0
   17.7947  -19.4380    4.0851 C   0  0  0  0  0  0  0  0  0  0  0  0
   17.1413  -20.7819    4.0053 C   0  0  0  0  0  0  0  0  0  0  0  0
   16.1751  -21.1742    4.9051 C   0  0  0  0  0  0  0  0  0  0  0  0
   15.5735  -22.4257    4.8226 C   0  0  0  0  0  0  0  0  0  0  0  0
   15.9489  -23.3003    3.8175 C   0  0  0  0  0  0  0  0  0  0  0  0
   16.9105  -22.9272    2.9109 C   0  0  0  0  0  0  0  0  0  0  0  0
   17.4961  -21.6719    3.0149 C   0  0  0  0  0  0  0  0  0  0  0  0
   17.1433  -17.0382    3.9555 C   0  0  0  0  0  0  0  0  0  0  0  0
   18.1395  -16.5517    3.3776 O   0  0  0  0  0  0  0  0  0  0  0  0
   15.7072  -14.3944    6.2939 C   0  0  0  0  0  0  0  0  0  0  0  0
   16.7379  -14.9613    5.3737 C   0  0  2  0  0  0  0  0  0  0  0  0
   16.4217  -16.2610    4.8853 N   0  0  0  0  0  0  0  0  0  0  0  0
   18.1420  -14.8267    5.8892 C   0  0  0  0  0  0  0  0  0  0  0  0
   18.8580  -15.8476    5.9993 O   0  0  0  0  0  0  0  0  0  0  0  0
   18.7061  -13.5812    6.2621 N   0  0  0  0  0  0  0  0  0  0  0  0
   18.1119  -12.2662    6.2474 C   0  0  0  0  0  0  0  0  0  0  0  0
   19.2704  -11.3952    5.7690 C   0  0  0  0  0  0  0  0  0  0  0  0
   20.5156  -12.1866    5.9673 C   0  0  0  0  0  0  0  0  0  0  0  0
   20.0565  -13.3938    6.7529 C   0  0  1  0  0  0  0  0  0  0  0  0
   20.0834  -13.0412    8.1896 C   0  0  0  0  0  0  0  0  0  0  0  0
   21.2359  -12.9836    8.9577 O   0  0  0  0  0  0  0  0  0  0  0  0
   19.0054  -12.7721    8.7737 O   0  0  0  0  0  0  0  0  0  0  0  0
  2  1  1  6
  2 10  1  0
  3  2  1  0
  4  3  1  0
  5  4  2  0
  6  5  1  0
  7  6  2  0
  7  8  1  0
  8  9  2  0
  9  4  1  0
 10 11  2  0
 13 12  1  1
 13 15  1  0
 14 13  1  0
 14 10  1  0
 15 16  2  0
 15 17  1  0
 17 18  1  0
 17 21  1  0
 18 19  1  0
 20 19  1  0
 20 21  1  0
 21 22  1  1
 22 24  2  0
 22 23  1  0
M  END
$$$$
