FAP.pdb
     RDKit          3D

 24 25  0  0  1  0  0  0  0  0999 V2000
   26.1517  -22.2229  -12.5048 N   0  0  0  0  0  0  0  0  0  0  0  0
   27.0690  -21.2449  -11.9858 C   0  0  1  0  0  0  0  0  0  0  0  0
   26.4038  -19.9128  -11.7605 C   0  0  0  0  0  0  0  0  0  0  0  0
   25.1432  -20.1836  -11.0009 C   0  0  0  0  0  0  0  0  0  0  0  0
   25.1088  -20.1742   -9.6240 C   0  0  0  0  0  0  0  0  0  0  0  0
   23.9319  -20.4271   -8.9269 C   0  0  0  0  0  0  0  0  0  0  0  0
   22.7671  -20.6945   -9.6252 C   0  0  0  0  0  0  0  0  0  0  0  0
   22.7814  -20.7083  -10.9983 C   0  0  0  0  0  0  0  0  0  0  0  0
   23.9696  -20.4526  -11.6710 C   0  0  0  0  0  0  0  0  0  0  0  0
   27.7274  -21.7754  -10.7712 C   0  0  0  0  0  0  0  0  0  0  0  0
   27.0393  -22.4901  -10.0105 O   0  0  0  0  0  0  0  0  0  0  0  0
   31.1356  -21.1320   -9.1914 C   0  0  0  0  0  0  0  0  0  0  0  0
   29.6824  -21.4754   -9.1658 C   0  0  2  0  0  0  0  0  0  0  0  0
   29.0749  -21.5057  -10.4533 N   0  0  0  0  0  0  0  0  0  0  0  0
   28.9017  -20.7060   -8.1391 C   0  0  0  0  0  0  0  0  0  0  0  0
   27.8805  -20.0726   -8.4898 O   0  0  0  0  0  0  0  0  0  0  0  0
   29.2690  -20.6615   -6.7711 N   0  0  0  0  0  0  0  0  0  0  0  0
   30.3958  -21.2698   -6.1057 C   0  0  0  0  0  0  0  0  0  0  0  0
   29.7811  -21.7271   -4.7855 C   0  0  0  0  0  0  0  0  0  0  0  0
   28.5060  -20.9768   -4.6207 C   0  0  0  0  0  0  0  0  0  0  0  0
   28.5383  -19.9576   -5.7366 C   0  0  1  0  0  0  0  0  0  0  0  0
   29.2705  -18.7683   -5.2482 C   0  0  0  0  0  0  0  0  0  0  0  0
   28.7536  -17.8482   -4.3494 O   0  0  0  0  0  0  0  0  0  0  0  0
   30.4375  -18.5568   -5.6593 O   0  0  0  0  0  0  0  0  0  0  0  0
  2  1  1  1
  2 10  1  0
  3  2  1  0
  4  3  1  0
  5  4  2  0
  6  5  1  0
  7  6  2  0
  7  8  1  0
  8  9  2  0
  9  4  1  0
 10 11  2  0
 13 12  1  6
 13 15  1  0
 14 13  1  0
 14 10  1  0
 15 16  2  0
 15 17  1  0
 17 18  1  0
 17 21  1  0
 18 19  1  0
 20 19  1  0
 20 21  1  0
 21 22  1  1
 22 24  2  0
 22 23  1  0
M  END
$$$$
