FAP.pdb
     RDKit          3D

 24 25  0  0  1  0  0  0  0  0999 V2000
   24.9737  -22.3488  -12.7404 N   0  0  0  0  0  0  0  0  0  0  0  0
   25.2050  -21.2134  -11.8890 C   0  0  1  0  0  0  0  0  0  0  0  0
   23.9192  -20.6363  -11.3586 C   0  0  0  0  0  0  0  0  0  0  0  0
   23.1452  -20.1478  -12.5426 C   0  0  0  0  0  0  0  0  0  0  0  0
   21.9923  -20.7722  -12.9645 C   0  0  0  0  0  0  0  0  0  0  0  0
   21.2798  -20.3104  -14.0663 C   0  0  0  0  0  0  0  0  0  0  0  0
   21.7333  -19.2006  -14.7581 C   0  0  0  0  0  0  0  0  0  0  0  0
   22.8808  -18.5645  -14.3528 C   0  0  0  0  0  0  0  0  0  0  0  0
   23.5742  -19.0453  -13.2492 C   0  0  0  0  0  0  0  0  0  0  0  0
   26.1593  -21.5801  -10.8189 C   0  0  0  0  0  0  0  0  0  0  0  0
   25.7715  -22.4019   -9.9603 O   0  0  0  0  0  0  0  0  0  0  0  0
   29.6354  -20.3360   -9.8731 C   0  0  0  0  0  0  0  0  0  0  0  0
   28.3003  -20.9441   -9.5938 C   0  0  2  0  0  0  0  0  0  0  0  0
   27.4614  -21.0436  -10.7400 N   0  0  0  0  0  0  0  0  0  0  0  0
   27.6192  -20.3680   -8.3856 C   0  0  0  0  0  0  0  0  0  0  0  0
   26.4939  -19.8336   -8.5095 O   0  0  0  0  0  0  0  0  0  0  0  0
   28.1958  -20.4008   -7.0914 N   0  0  0  0  0  0  0  0  0  0  0  0
   29.4326  -21.0030   -6.6554 C   0  0  0  0  0  0  0  0  0  0  0  0
   29.0489  -21.5758   -5.2937 C   0  0  0  0  0  0  0  0  0  0  0  0
   27.7918  -20.8952   -4.8782 C   0  0  0  0  0  0  0  0  0  0  0  0
   27.6145  -19.8019   -5.9069 C   0  0  1  0  0  0  0  0  0  0  0  0
   28.3752  -18.6176   -5.4508 C   0  0  0  0  0  0  0  0  0  0  0  0
   29.6647  -18.3137   -5.8588 O   0  0  0  0  0  0  0  0  0  0  0  0
   27.8398  -17.8208   -4.6421 O   0  0  0  0  0  0  0  0  0  0  0  0
  2  1  1  1
  2 10  1  0
  3  2  1  0
  4  3  1  0
  5  4  2  0
  6  5  1  0
  7  6  2  0
  7  8  1  0
  8  9  2  0
  9  4  1  0
 10 11  2  0
 13 12  1  6
 13 15  1  0
 14 13  1  0
 14 10  1  0
 15 16  2  0
 15 17  1  0
 17 18  1  0
 17 21  1  0
 18 19  1  0
 20 19  1  0
 20 21  1  0
 21 22  1  1
 22 24  2  0
 22 23  1  0
M  END
$$$$
