FAP.pdb
     RDKit          3D

 24 25  0  0  1  0  0  0  0  0999 V2000
   17.5302  -18.1284    2.2465 N   0  0  0  0  0  0  0  0  0  0  0  0
   16.9019  -17.5990    3.4265 C   0  0  1  0  0  0  0  0  0  0  0  0
   16.8275  -18.6201    4.5309 C   0  0  0  0  0  0  0  0  0  0  0  0
   15.8552  -19.6668    4.0854 C   0  0  0  0  0  0  0  0  0  0  0  0
   14.4969  -19.5170    4.2581 C   0  0  0  0  0  0  0  0  0  0  0  0
   13.6011  -20.4958    3.8406 C   0  0  0  0  0  0  0  0  0  0  0  0
   14.0777  -21.6472    3.2379 C   0  0  0  0  0  0  0  0  0  0  0  0
   15.4286  -21.8148    3.0569 C   0  0  0  0  0  0  0  0  0  0  0  0
   16.3026  -20.8225    3.4828 C   0  0  0  0  0  0  0  0  0  0  0  0
   17.5846  -16.3518    3.8370 C   0  0  0  0  0  0  0  0  0  0  0  0
   18.8272  -16.3937    3.9685 O   0  0  0  0  0  0  0  0  0  0  0  0
   16.4434  -12.7918    4.5602 C   0  0  0  0  0  0  0  0  0  0  0  0
   17.4121  -13.9278    4.6009 C   0  0  2  0  0  0  0  0  0  0  0  0
   16.8930  -15.1464    4.0784 N   0  0  0  0  0  0  0  0  0  0  0  0
   18.1076  -14.0765    5.9236 C   0  0  0  0  0  0  0  0  0  0  0  0
   18.0474  -15.1693    6.5314 O   0  0  0  0  0  0  0  0  0  0  0  0
   18.8414  -13.0249    6.5269 N   0  0  0  0  0  0  0  0  0  0  0  0
   19.0644  -11.6783    6.0585 C   0  0  0  0  0  0  0  0  0  0  0  0
   20.5185  -11.4367    6.4546 C   0  0  0  0  0  0  0  0  0  0  0  0
   20.8634  -12.4628    7.4765 C   0  0  0  0  0  0  0  0  0  0  0  0
   19.5384  -13.1178    7.7939 C   0  0  1  0  0  0  0  0  0  0  0  0
   18.8779  -12.3232    8.8529 C   0  0  0  0  0  0  0  0  0  0  0  0
   17.8256  -11.4486    8.6307 O   0  0  0  0  0  0  0  0  0  0  0  0
   19.2780  -12.4306   10.0378 O   0  0  0  0  0  0  0  0  0  0  0  0
  2  1  1  6
  2 10  1  0
  3  2  1  0
  4  3  1  0
  5  4  2  0
  6  5  1  0
  7  6  2  0
  7  8  1  0
  8  9  2  0
  9  4  1  0
 10 11  2  0
 13 12  1  1
 13 15  1  0
 14 13  1  0
 14 10  1  0
 15 16  2  0
 15 17  1  0
 17 18  1  0
 17 21  1  0
 18 19  1  0
 20 19  1  0
 20 21  1  0
 21 22  1  1
 22 24  2  0
 22 23  1  0
M  END
$$$$
