WCS.pdb
     RDKit          3D

 27 28  0  0  1  0  0  0  0  0999 V2000
   25.9535  -22.8462  -13.9345 N   0  0  0  0  0  0  0  0  0  0  0  0
   25.0938  -21.8815  -13.2299 C   0  0  1  0  0  0  0  0  0  0  0  0
   25.8442  -20.5492  -13.2604 C   0  0  0  0  0  0  0  0  0  0  0  0
   26.9581  -20.7018  -12.2611 C   0  0  0  0  0  0  0  0  0  0  0  0
   28.2960  -20.8963  -12.4510 C   0  0  0  0  0  0  0  0  0  0  0  0
   28.8834  -20.9861  -11.2222 N   0  0  0  0  0  0  0  0  0  0  0  0
   27.9522  -20.8524  -10.2745 C   0  0  0  0  0  0  0  0  0  0  0  0
   27.9518  -20.8435   -8.8765 C   0  0  0  0  0  0  0  0  0  0  0  0
   26.8095  -20.6672   -8.1508 C   0  0  0  0  0  0  0  0  0  0  0  0
   25.5890  -20.4861   -8.7843 C   0  0  0  0  0  0  0  0  0  0  0  0
   25.5870  -20.4948  -10.1657 C   0  0  0  0  0  0  0  0  0  0  0  0
   26.7389  -20.6737  -10.8878 C   0  0  0  0  0  0  0  0  0  0  0  0
   23.7576  -21.7862  -13.8115 C   0  0  0  0  0  0  0  0  0  0  0  0
   23.5658  -21.9084  -15.0694 O   0  0  0  0  0  0  0  0  0  0  0  0
   22.5599  -21.5552  -13.0589 N   0  0  0  0  0  0  0  0  0  0  0  0
   21.2612  -21.6225  -13.6757 C   0  0  1  0  0  0  0  0  0  0  0  0
   20.1995  -22.0150  -12.6402 C   0  0  0  0  0  0  0  0  0  0  0  0
   18.6325  -22.1523  -13.5369 S   0  0  0  0  0  0  0  0  0  0  0  0
   20.8263  -20.3615  -14.3108 C   0  0  0  0  0  0  0  0  0  0  0  0
   20.8165  -19.2739  -13.6874 O   0  0  0  0  0  0  0  0  0  0  0  0
   19.5768  -20.2308  -18.4607 O   0  0  0  0  0  0  0  0  0  0  0  0
   20.1337  -19.1369  -17.8313 C   0  0  0  0  0  0  0  0  0  0  0  0
   19.9397  -19.1273  -16.3525 C   0  0  2  0  0  0  0  0  0  0  0  0
   20.3893  -20.2899  -15.6592 N   0  0  0  0  0  0  0  0  0  0  0  0
   18.5117  -18.8470  -16.0784 C   0  0  0  0  0  0  0  0  0  0  0  0
   17.7846  -19.5777  -15.3720 O   0  0  0  0  0  0  0  0  0  0  0  0
   17.9302  -17.7142  -16.6303 O   0  0  0  0  0  0  0  0  0  0  0  0
  2  1  1  6
  3  2  1  0
  4  3  1  0
  5  4  2  0
  6  5  1  0
  7 12  2  0
  7  6  1  0
  8  7  1  0
  9  8  2  0
  9 10  1  0
 10 11  2  0
 11 12  1  0
 12  4  1  0
 13  2  1  0
 14 13  2  0
 15 13  1  0
 16 15  1  0
 16 17  1  1
 17 18  1  0
 19 16  1  0
 20 19  2  0
 22 21  1  0
 23 22  1  6
 23 24  1  0
 24 19  1  0
 25 27  1  0
 25 23  1  0
 26 25  2  0
M  END
$$$$
