WCS.pdb
     RDKit          3D

 27 28  0  0  1  0  0  0  0  0999 V2000
   28.2649  -19.7222  -16.3606 N   0  0  0  0  0  0  0  0  0  0  0  0
   27.1900  -19.2214  -15.4888 C   0  0  1  0  0  0  0  0  0  0  0  0
   26.1716  -18.5570  -16.4164 C   0  0  0  0  0  0  0  0  0  0  0  0
   26.8725  -17.3452  -16.9669 C   0  0  0  0  0  0  0  0  0  0  0  0
   27.3440  -17.0906  -18.2227 C   0  0  0  0  0  0  0  0  0  0  0  0
   27.9145  -15.8507  -18.2111 N   0  0  0  0  0  0  0  0  0  0  0  0
   27.8113  -15.3264  -16.9873 C   0  0  0  0  0  0  0  0  0  0  0  0
   28.1859  -14.1198  -16.3888 C   0  0  0  0  0  0  0  0  0  0  0  0
   27.9283  -13.8482  -15.0764 C   0  0  0  0  0  0  0  0  0  0  0  0
   27.2738  -14.7737  -14.2771 C   0  0  0  0  0  0  0  0  0  0  0  0
   26.9030  -15.9669  -14.8664 C   0  0  0  0  0  0  0  0  0  0  0  0
   27.1665  -16.2327  -16.1855 C   0  0  0  0  0  0  0  0  0  0  0  0
   26.5968  -20.2708  -14.6643 C   0  0  0  0  0  0  0  0  0  0  0  0
   26.3946  -21.4468  -15.1226 O   0  0  0  0  0  0  0  0  0  0  0  0
   26.1939  -20.0996  -13.2996 N   0  0  0  0  0  0  0  0  0  0  0  0
   25.4023  -21.0916  -12.6206 C   0  0  1  0  0  0  0  0  0  0  0  0
   25.7758  -21.1447  -11.1336 C   0  0  0  0  0  0  0  0  0  0  0  0
   25.0771  -19.6568  -10.3744 S   0  0  0  0  0  0  0  0  0  0  0  0
   23.9446  -20.8691  -12.7112 C   0  0  0  0  0  0  0  0  0  0  0  0
   23.4451  -19.7202  -12.6680 O   0  0  0  0  0  0  0  0  0  0  0  0
   19.4711  -22.9663  -12.9102 O   0  0  0  0  0  0  0  0  0  0  0  0
   20.8422  -23.1152  -12.8801 C   0  0  0  0  0  0  0  0  0  0  0  0
   21.5891  -21.8249  -12.8383 C   0  0  2  0  0  0  0  0  0  0  0  0
   23.0116  -21.9296  -12.8495 N   0  0  0  0  0  0  0  0  0  0  0  0
   21.1082  -21.0534  -11.6694 C   0  0  0  0  0  0  0  0  0  0  0  0
   21.6198  -21.1273  -10.5316 O   0  0  0  0  0  0  0  0  0  0  0  0
   20.0282  -20.1963  -11.8267 O   0  0  0  0  0  0  0  0  0  0  0  0
  2  1  1  6
  3  2  1  0
  4  3  1  0
  5  4  2  0
  6  5  1  0
  7 12  2  0
  7  6  1  0
  8  7  1  0
  9  8  2  0
  9 10  1  0
 10 11  2  0
 11 12  1  0
 12  4  1  0
 13  2  1  0
 14 13  2  0
 15 13  1  0
 16 15  1  0
 16 17  1  1
 17 18  1  0
 19 16  1  0
 20 19  2  0
 22 21  1  0
 23 22  1  1
 23 24  1  0
 24 19  1  0
 25 27  1  0
 25 23  1  0
 26 25  2  0
M  END
$$$$
