WCS.pdb
     RDKit          3D

 27 28  0  0  1  0  0  0  0  0999 V2000
   23.3029  -12.0676  -17.0292 N   0  0  0  0  0  0  0  0  0  0  0  0
   22.7656  -10.8619  -17.6802 C   0  0  1  0  0  0  0  0  0  0  0  0
   21.2632  -11.1021  -17.8356 C   0  0  0  0  0  0  0  0  0  0  0  0
   21.1450  -12.2292  -18.8247 C   0  0  0  0  0  0  0  0  0  0  0  0
   21.5586  -12.3135  -20.1231 C   0  0  0  0  0  0  0  0  0  0  0  0
   21.2033  -13.5438  -20.5955 N   0  0  0  0  0  0  0  0  0  0  0  0
   20.5827  -14.2272  -19.6306 C   0  0  0  0  0  0  0  0  0  0  0  0
   20.0219  -15.5030  -19.5203 C   0  0  0  0  0  0  0  0  0  0  0  0
   19.4483  -15.9477  -18.3644 C   0  0  0  0  0  0  0  0  0  0  0  0
   19.4020  -15.1375  -17.2396 C   0  0  0  0  0  0  0  0  0  0  0  0
   19.9553  -13.8763  -17.3465 C   0  0  0  0  0  0  0  0  0  0  0  0
   20.5288  -13.4363  -18.5118 C   0  0  0  0  0  0  0  0  0  0  0  0
   23.0646   -9.6394  -16.9393 C   0  0  0  0  0  0  0  0  0  0  0  0
   22.8001   -9.5314  -15.6933 O   0  0  0  0  0  0  0  0  0  0  0  0
   23.6675   -8.4715  -17.5107 N   0  0  0  0  0  0  0  0  0  0  0  0
   23.8914   -7.2837  -16.7292 C   0  0  1  0  0  0  0  0  0  0  0  0
   24.9575   -6.4025  -17.3928 C   0  0  0  0  0  0  0  0  0  0  0  0
   25.1681   -4.9566  -16.3236 S   0  0  0  0  0  0  0  0  0  0  0  0
   22.6848   -6.4555  -16.5269 C   0  0  0  0  0  0  0  0  0  0  0  0
   21.9472   -6.1140  -17.4813 O   0  0  0  0  0  0  0  0  0  0  0  0
   20.2157   -6.5788  -13.1771 O   0  0  0  0  0  0  0  0  0  0  0  0
   19.9579   -5.9844  -14.3950 C   0  0  0  0  0  0  0  0  0  0  0  0
   21.1125   -5.2215  -14.9512 C   0  0  2  0  0  0  0  0  0  0  0  0
   22.2777   -5.9880  -15.2502 N   0  0  0  0  0  0  0  0  0  0  0  0
   21.4157   -4.1070  -14.0245 C   0  0  0  0  0  0  0  0  0  0  0  0
   22.5472   -3.8995  -13.5361 O   0  0  0  0  0  0  0  0  0  0  0  0
   20.3981   -3.2345  -13.6654 O   0  0  0  0  0  0  0  0  0  0  0  0
  2  1  1  1
  3  2  1  0
  4  3  1  0
  5  4  2  0
  6  5  1  0
  7 12  2  0
  7  6  1  0
  8  7  1  0
  9  8  2  0
  9 10  1  0
 10 11  2  0
 11 12  1  0
 12  4  1  0
 13  2  1  0
 14 13  2  0
 15 13  1  0
 16 15  1  0
 16 17  1  6
 17 18  1  0
 19 16  1  0
 20 19  2  0
 22 21  1  0
 23 22  1  1
 23 24  1  0
 24 19  1  0
 25 27  1  0
 25 23  1  0
 26 25  2  0
M  END
$$$$
