WCS.pdb
     RDKit          3D

 27 28  0  0  1  0  0  0  0  0999 V2000
   22.7503  -20.1073  -14.8348 N   0  0  0  0  0  0  0  0  0  0  0  0
   22.7462  -21.3711  -14.0805 C   0  0  1  0  0  0  0  0  0  0  0  0
   24.0953  -21.4367  -13.3629 C   0  0  0  0  0  0  0  0  0  0  0  0
   25.1135  -21.6199  -14.4548 C   0  0  0  0  0  0  0  0  0  0  0  0
   25.9195  -20.7086  -15.0743 C   0  0  0  0  0  0  0  0  0  0  0  0
   26.6578  -21.3726  -16.0108 N   0  0  0  0  0  0  0  0  0  0  0  0
   26.3363  -22.6685  -15.9919 C   0  0  0  0  0  0  0  0  0  0  0  0
   26.7538  -23.8058  -16.6895 C   0  0  0  0  0  0  0  0  0  0  0  0
   26.2382  -25.0439  -16.4370 C   0  0  0  0  0  0  0  0  0  0  0  0
   25.2672  -25.2212  -15.4626 C   0  0  0  0  0  0  0  0  0  0  0  0
   24.8529  -24.0987  -14.7721 C   0  0  0  0  0  0  0  0  0  0  0  0
   25.3751  -22.8578  -15.0326 C   0  0  0  0  0  0  0  0  0  0  0  0
   21.6162  -21.4764  -13.1613 C   0  0  0  0  0  0  0  0  0  0  0  0
   21.6166  -20.8801  -12.0306 O   0  0  0  0  0  0  0  0  0  0  0  0
   20.4266  -22.2322  -13.4215 N   0  0  0  0  0  0  0  0  0  0  0  0
   19.5121  -22.5795  -12.3657 C   0  0  1  0  0  0  0  0  0  0  0  0
   18.2666  -21.6857  -12.4244 C   0  0  0  0  0  0  0  0  0  0  0  0
   18.0044  -21.2829  -14.1701 S   0  0  0  0  0  0  0  0  0  0  0  0
   19.0592  -23.9854  -12.3949 C   0  0  0  0  0  0  0  0  0  0  0  0
   19.0127  -24.6453  -13.4597 O   0  0  0  0  0  0  0  0  0  0  0  0
   18.6993  -26.2446   -8.7795 O   0  0  0  0  0  0  0  0  0  0  0  0
   18.8960  -26.8231  -10.0163 C   0  0  0  0  0  0  0  0  0  0  0  0
   18.2841  -26.0618  -11.1435 C   0  0  2  0  0  0  0  0  0  0  0  0
   18.6449  -24.6845  -11.2313 N   0  0  0  0  0  0  0  0  0  0  0  0
   16.8155  -26.2375  -11.0726 C   0  0  0  0  0  0  0  0  0  0  0  0
   16.0095  -25.2918  -10.9387 O   0  0  0  0  0  0  0  0  0  0  0  0
   16.2860  -27.5175  -11.1562 O   0  0  0  0  0  0  0  0  0  0  0  0
  2  1  1  1
  3  2  1  0
  4  3  1  0
  5  4  2  0
  6  5  1  0
  7 12  2  0
  7  6  1  0
  8  7  1  0
  9  8  2  0
  9 10  1  0
 10 11  2  0
 11 12  1  0
 12  4  1  0
 13  2  1  0
 14 13  2  0
 15 13  1  0
 16 15  1  0
 16 17  1  6
 17 18  1  0
 19 16  1  0
 20 19  2  0
 22 21  1  0
 23 22  1  1
 23 24  1  0
 24 19  1  0
 25 27  1  0
 25 23  1  0
 26 25  2  0
M  END
$$$$
