WCS.pdb
     RDKit          3D

 27 28  0  0  1  0  0  0  0  0999 V2000
   23.2319  -18.2243  -16.4787 N   0  0  0  0  0  0  0  0  0  0  0  0
   22.7898  -18.9426  -15.2726 C   0  0  1  0  0  0  0  0  0  0  0  0
   21.3333  -19.3339  -15.5265 C   0  0  0  0  0  0  0  0  0  0  0  0
   20.5421  -18.0751  -15.2986 C   0  0  0  0  0  0  0  0  0  0  0  0
   19.8949  -17.2644  -16.1863 C   0  0  0  0  0  0  0  0  0  0  0  0
   19.3359  -16.2371  -15.4827 N   0  0  0  0  0  0  0  0  0  0  0  0
   19.6146  -16.3847  -14.1851 C   0  0  0  0  0  0  0  0  0  0  0  0
   19.3117  -15.6781  -13.0175 C   0  0  0  0  0  0  0  0  0  0  0  0
   19.7370  -16.0894  -11.7876 C   0  0  0  0  0  0  0  0  0  0  0  0
   20.4956  -17.2424  -11.6498 C   0  0  0  0  0  0  0  0  0  0  0  0
   20.7963  -17.9420  -12.8024 C   0  0  0  0  0  0  0  0  0  0  0  0
   20.3663  -17.5215  -14.0347 C   0  0  0  0  0  0  0  0  0  0  0  0
   23.6333  -20.0930  -14.9595 C   0  0  0  0  0  0  0  0  0  0  0  0
   24.0085  -20.9130  -15.8655 O   0  0  0  0  0  0  0  0  0  0  0  0
   24.1151  -20.4126  -13.6481 N   0  0  0  0  0  0  0  0  0  0  0  0
   24.7258  -21.6842  -13.3621 C   0  0  1  0  0  0  0  0  0  0  0  0
   25.2856  -21.6971  -11.9338 C   0  0  0  0  0  0  0  0  0  0  0  0
   26.0132  -23.3357  -11.6813 S   0  0  0  0  0  0  0  0  0  0  0  0
   23.8137  -22.8384  -13.4987 C   0  0  0  0  0  0  0  0  0  0  0  0
   22.7440  -22.9187  -12.8500 O   0  0  0  0  0  0  0  0  0  0  0  0
   21.3827  -24.8162  -16.0098 O   0  0  0  0  0  0  0  0  0  0  0  0
   22.6824  -25.2663  -15.9054 C   0  0  0  0  0  0  0  0  0  0  0  0
   23.2742  -25.0939  -14.5473 C   0  0  2  0  0  0  0  0  0  0  0  0
   24.0803  -23.9316  -14.3636 N   0  0  0  0  0  0  0  0  0  0  0  0
   24.0150  -26.3306  -14.2087 C   0  0  0  0  0  0  0  0  0  0  0  0
   25.2592  -26.3875  -14.1054 O   0  0  0  0  0  0  0  0  0  0  0  0
   23.3045  -27.5028  -13.9921 O   0  0  0  0  0  0  0  0  0  0  0  0
  2  1  1  6
  3  2  1  0
  4  3  1  0
  5  4  2  0
  6  5  1  0
  7 12  2  0
  7  6  1  0
  8  7  1  0
  9  8  2  0
  9 10  1  0
 10 11  2  0
 11 12  1  0
 12  4  1  0
 13  2  1  0
 14 13  2  0
 15 13  1  0
 16 15  1  0
 16 17  1  1
 17 18  1  0
 19 16  1  0
 20 19  2  0
 22 21  1  0
 23 22  1  6
 23 24  1  0
 24 19  1  0
 25 27  1  0
 25 23  1  0
 26 25  2  0
M  END
$$$$
