WCS.pdb
     RDKit          3D

 27 28  0  0  1  0  0  0  0  0999 V2000
   24.3362  -19.9970  -11.4661 N   0  0  0  0  0  0  0  0  0  0  0  0
   25.7244  -20.3510  -11.8034 C   0  0  1  0  0  0  0  0  0  0  0  0
   26.0567  -21.5897  -10.9703 C   0  0  0  0  0  0  0  0  0  0  0  0
   25.9998  -21.1287   -9.5396 C   0  0  0  0  0  0  0  0  0  0  0  0
   24.9313  -20.9596   -8.7067 C   0  0  0  0  0  0  0  0  0  0  0  0
   25.4033  -20.5080   -7.5083 N   0  0  0  0  0  0  0  0  0  0  0  0
   26.7322  -20.3922   -7.5701 C   0  0  0  0  0  0  0  0  0  0  0  0
   27.7378  -20.0032   -6.6803 C   0  0  0  0  0  0  0  0  0  0  0  0
   29.0568  -19.9971   -7.0311 C   0  0  0  0  0  0  0  0  0  0  0  0
   29.4531  -20.3844   -8.3026 C   0  0  0  0  0  0  0  0  0  0  0  0
   28.4609  -20.7689   -9.1836 C   0  0  0  0  0  0  0  0  0  0  0  0
   27.1377  -20.7711   -8.8239 C   0  0  0  0  0  0  0  0  0  0  0  0
   25.9199  -20.5683  -13.2343 C   0  0  0  0  0  0  0  0  0  0  0  0
   25.0986  -21.2649  -13.9229 O   0  0  0  0  0  0  0  0  0  0  0  0
   27.0151  -20.0399  -13.9928 N   0  0  0  0  0  0  0  0  0  0  0  0
   27.1383  -20.2871  -15.4054 C   0  0  1  0  0  0  0  0  0  0  0  0
   28.1183  -19.2902  -16.0372 C   0  0  0  0  0  0  0  0  0  0  0  0
   29.2718  -18.8037  -14.7291 S   0  0  0  0  0  0  0  0  0  0  0  0
   27.6004  -21.6489  -15.7438 C   0  0  0  0  0  0  0  0  0  0  0  0
   28.3284  -22.3137  -14.9695 O   0  0  0  0  0  0  0  0  0  0  0  0
   24.8940  -24.3671  -16.6880 O   0  0  0  0  0  0  0  0  0  0  0  0
   26.2114  -24.4318  -16.2838 C   0  0  0  0  0  0  0  0  0  0  0  0
   27.1546  -23.7024  -17.1799 C   0  0  2  0  0  0  0  0  0  0  0  0
   27.2598  -22.2971  -16.9596 N   0  0  0  0  0  0  0  0  0  0  0  0
   26.7867  -24.0089  -18.5811 C   0  0  0  0  0  0  0  0  0  0  0  0
   26.4034  -23.1478  -19.4017 O   0  0  0  0  0  0  0  0  0  0  0  0
   26.8639  -25.3212  -19.0256 O   0  0  0  0  0  0  0  0  0  0  0  0
  2  1  1  6
  3  2  1  0
  4  3  1  0
  5  4  2  0
  6  5  1  0
  7 12  2  0
  7  6  1  0
  8  7  1  0
  9  8  2  0
  9 10  1  0
 10 11  2  0
 11 12  1  0
 12  4  1  0
 13  2  1  0
 14 13  2  0
 15 13  1  0
 16 15  1  0
 16 17  1  1
 17 18  1  0
 19 16  1  0
 20 19  2  0
 22 21  1  0
 23 22  1  1
 23 24  1  0
 24 19  1  0
 25 27  1  0
 25 23  1  0
 26 25  2  0
M  END
$$$$
