WCS.pdb
     RDKit          3D

 27 28  0  0  1  0  0  0  0  0999 V2000
   24.4963  -19.3192   -9.1079 N   0  0  0  0  0  0  0  0  0  0  0  0
   25.8066  -19.8859   -9.4657 C   0  0  1  0  0  0  0  0  0  0  0  0
   25.9443  -21.1733   -8.6517 C   0  0  0  0  0  0  0  0  0  0  0  0
   26.1650  -20.7211   -7.2342 C   0  0  0  0  0  0  0  0  0  0  0  0
   25.2818  -20.5834   -6.2022 C   0  0  0  0  0  0  0  0  0  0  0  0
   25.9740  -20.1259   -5.1184 N   0  0  0  0  0  0  0  0  0  0  0  0
   27.2602  -19.9760   -5.4445 C   0  0  0  0  0  0  0  0  0  0  0  0
   28.4144  -19.5658   -4.7708 C   0  0  0  0  0  0  0  0  0  0  0  0
   29.6355  -19.5244   -5.3790 C   0  0  0  0  0  0  0  0  0  0  0  0
   29.7774  -19.8950   -6.7080 C   0  0  0  0  0  0  0  0  0  0  0  0
   28.6381  -20.3004   -7.3758 C   0  0  0  0  0  0  0  0  0  0  0  0
   27.4145  -20.3381   -6.7579 C   0  0  0  0  0  0  0  0  0  0  0  0
   25.9512  -20.1117  -10.9013 C   0  0  0  0  0  0  0  0  0  0  0  0
   24.9347  -20.1733  -11.6739 O   0  0  0  0  0  0  0  0  0  0  0  0
   27.2056  -20.2806  -11.5736 N   0  0  0  0  0  0  0  0  0  0  0  0
   27.2898  -20.3056  -13.0103 C   0  0  1  0  0  0  0  0  0  0  0  0
   28.7455  -20.1307  -13.4617 C   0  0  0  0  0  0  0  0  0  0  0  0
   28.7166  -20.0464  -15.2701 S   0  0  0  0  0  0  0  0  0  0  0  0
   26.7733  -21.5455  -13.6257 C   0  0  0  0  0  0  0  0  0  0  0  0
   27.2483  -22.6717  -13.3473 O   0  0  0  0  0  0  0  0  0  0  0  0
   23.7790  -21.3588  -16.6577 O   0  0  0  0  0  0  0  0  0  0  0  0
   23.7771  -22.4518  -15.8160 C   0  0  0  0  0  0  0  0  0  0  0  0
   25.0847  -22.6975  -15.1420 C   0  0  2  0  0  0  0  0  0  0  0  0
   25.7138  -21.5523  -14.5699 N   0  0  0  0  0  0  0  0  0  0  0  0
   25.9755  -23.3853  -16.1045 C   0  0  0  0  0  0  0  0  0  0  0  0
   27.0229  -22.8807  -16.5628 O   0  0  0  0  0  0  0  0  0  0  0  0
   25.6435  -24.6622  -16.5347 O   0  0  0  0  0  0  0  0  0  0  0  0
  2  1  1  6
  3  2  1  0
  4  3  1  0
  5  4  2  0
  6  5  1  0
  7 12  2  0
  7  6  1  0
  8  7  1  0
  9  8  2  0
  9 10  1  0
 10 11  2  0
 11 12  1  0
 12  4  1  0
 13  2  1  0
 14 13  2  0
 15 13  1  0
 16 15  1  0
 16 17  1  1
 17 18  1  0
 19 16  1  0
 20 19  2  0
 22 21  1  0
 23 22  1  6
 23 24  1  0
 24 19  1  0
 25 27  1  0
 25 23  1  0
 26 25  2  0
M  END
$$$$
