WCS.pdb
     RDKit          3D

 27 28  0  0  1  0  0  0  0  0999 V2000
   27.2680  -19.6584  -17.4421 N   0  0  0  0  0  0  0  0  0  0  0  0
   26.2602  -19.2896  -16.4349 C   0  0  1  0  0  0  0  0  0  0  0  0
   24.9231  -19.2421  -17.1758 C   0  0  0  0  0  0  0  0  0  0  0  0
   24.9692  -17.9784  -17.9904 C   0  0  0  0  0  0  0  0  0  0  0  0
   25.1848  -17.7944  -19.3259 C   0  0  0  0  0  0  0  0  0  0  0  0
   25.1431  -16.4530  -19.5748 N   0  0  0  0  0  0  0  0  0  0  0  0
   24.9071  -15.7976  -18.4355 C   0  0  0  0  0  0  0  0  0  0  0  0
   24.7483  -14.4560  -18.0760 C   0  0  0  0  0  0  0  0  0  0  0  0
   24.4935  -14.0728  -16.7911 C   0  0  0  0  0  0  0  0  0  0  0  0
   24.3797  -15.0158  -15.7803 C   0  0  0  0  0  0  0  0  0  0  0  0
   24.5366  -16.3421  -16.1334 C   0  0  0  0  0  0  0  0  0  0  0  0
   24.7936  -16.7190  -17.4265 C   0  0  0  0  0  0  0  0  0  0  0  0
   26.2385  -20.2043  -15.2966 C   0  0  0  0  0  0  0  0  0  0  0  0
   26.0760  -21.4625  -15.4532 O   0  0  0  0  0  0  0  0  0  0  0  0
   26.3937  -19.8021  -13.9298 N   0  0  0  0  0  0  0  0  0  0  0  0
   25.6409  -20.4263  -12.8736 C   0  0  1  0  0  0  0  0  0  0  0  0
   26.0678  -19.8645  -11.5114 C   0  0  0  0  0  0  0  0  0  0  0  0
   25.1395  -20.7875  -10.2606 S   0  0  0  0  0  0  0  0  0  0  0  0
   24.1779  -20.2581  -12.9916 C   0  0  0  0  0  0  0  0  0  0  0  0
   23.6596  -19.1599  -13.3030 O   0  0  0  0  0  0  0  0  0  0  0  0
   19.9873  -22.6996  -13.4811 O   0  0  0  0  0  0  0  0  0  0  0  0
   21.2636  -22.3081  -13.8287 C   0  0  0  0  0  0  0  0  0  0  0  0
   21.8446  -21.2725  -12.9261 C   0  0  2  0  0  0  0  0  0  0  0  0
   23.2607  -21.3162  -12.7608 N   0  0  0  0  0  0  0  0  0  0  0  0
   21.1409  -21.3497  -11.6255 C   0  0  0  0  0  0  0  0  0  0  0  0
   21.7200  -21.5346  -10.5336 O   0  0  0  0  0  0  0  0  0  0  0  0
   19.7602  -21.2132  -11.5982 O   0  0  0  0  0  0  0  0  0  0  0  0
  2  1  1  6
  3  2  1  0
  4  3  1  0
  5  4  2  0
  6  5  1  0
  7 12  2  0
  7  6  1  0
  8  7  1  0
  9  8  2  0
  9 10  1  0
 10 11  2  0
 11 12  1  0
 12  4  1  0
 13  2  1  0
 14 13  2  0
 15 13  1  0
 16 15  1  0
 16 17  1  1
 17 18  1  0
 19 16  1  0
 20 19  2  0
 22 21  1  0
 23 22  1  6
 23 24  1  0
 24 19  1  0
 25 27  1  0
 25 23  1  0
 26 25  2  0
M  END
$$$$
