WCS.pdb
     RDKit          3D

 27 28  0  0  1  0  0  0  0  0999 V2000
   26.2020  -22.4427   -9.3147 N   0  0  0  0  0  0  0  0  0  0  0  0
   26.1610  -21.0577   -9.8109 C   0  0  1  0  0  0  0  0  0  0  0  0
   27.3508  -20.3448   -9.1665 C   0  0  0  0  0  0  0  0  0  0  0  0
   26.9687  -20.1681   -7.7224 C   0  0  0  0  0  0  0  0  0  0  0  0
   25.7387  -20.1349   -7.1307 C   0  0  0  0  0  0  0  0  0  0  0  0
   25.9241  -19.9365   -5.7930 N   0  0  0  0  0  0  0  0  0  0  0  0
   27.2312  -19.8465   -5.5348 C   0  0  0  0  0  0  0  0  0  0  0  0
   28.0064  -19.6641   -4.3859 C   0  0  0  0  0  0  0  0  0  0  0  0
   29.3701  -19.6255   -4.4274 C   0  0  0  0  0  0  0  0  0  0  0  0
   30.0462  -19.7698   -5.6298 C   0  0  0  0  0  0  0  0  0  0  0  0
   29.2821  -19.9499   -6.7664 C   0  0  0  0  0  0  0  0  0  0  0  0
   27.9122  -19.9863   -6.7166 C   0  0  0  0  0  0  0  0  0  0  0  0
   26.1829  -20.9795  -11.2691 C   0  0  0  0  0  0  0  0  0  0  0  0
   27.1454  -21.4727  -11.9505 O   0  0  0  0  0  0  0  0  0  0  0  0
   25.1613  -20.3641  -12.0638 N   0  0  0  0  0  0  0  0  0  0  0  0
   25.2358  -20.3487  -13.5011 C   0  0  1  0  0  0  0  0  0  0  0  0
   23.8673  -20.6823  -14.1091 C   0  0  0  0  0  0  0  0  0  0  0  0
   24.1670  -21.9044  -15.4110 S   0  0  0  0  0  0  0  0  0  0  0  0
   25.6794  -19.0597  -14.0708 C   0  0  0  0  0  0  0  0  0  0  0  0
   25.1972  -17.9663  -13.6921 O   0  0  0  0  0  0  0  0  0  0  0  0
   29.1712  -16.5506  -16.3202 O   0  0  0  0  0  0  0  0  0  0  0  0
   28.6961  -17.7134  -15.7500 C   0  0  0  0  0  0  0  0  0  0  0  0
   27.2094  -17.7707  -15.6441 C   0  0  2  0  0  0  0  0  0  0  0  0
   26.6722  -18.9659  -15.0806 N   0  0  0  0  0  0  0  0  0  0  0  0
   26.6426  -17.4967  -16.9843 C   0  0  0  0  0  0  0  0  0  0  0  0
   25.8561  -18.2673  -17.5755 O   0  0  0  0  0  0  0  0  0  0  0  0
   26.9946  -16.3238  -17.6371 O   0  0  0  0  0  0  0  0  0  0  0  0
  2  1  1  6
  3  2  1  0
  4  3  1  0
  5  4  2  0
  6  5  1  0
  7 12  2  0
  7  6  1  0
  8  7  1  0
  9  8  2  0
  9 10  1  0
 10 11  2  0
 11 12  1  0
 12  4  1  0
 13  2  1  0
 14 13  2  0
 15 13  1  0
 16 15  1  0
 16 17  1  6
 17 18  1  0
 19 16  1  0
 20 19  2  0
 22 21  1  0
 23 22  1  6
 23 24  1  0
 24 19  1  0
 25 27  1  0
 25 23  1  0
 26 25  2  0
M  END
$$$$
