WCS.pdb
     RDKit          3D

 27 28  0  0  1  0  0  0  0  0999 V2000
   21.0506  -15.1195  -15.0127 N   0  0  0  0  0  0  0  0  0  0  0  0
   20.3544  -16.2777  -15.5959 C   0  0  1  0  0  0  0  0  0  0  0  0
   21.3357  -17.4473  -15.5055 C   0  0  0  0  0  0  0  0  0  0  0  0
   22.4712  -17.0801  -16.4211 C   0  0  0  0  0  0  0  0  0  0  0  0
   23.6690  -16.4839  -16.1494 C   0  0  0  0  0  0  0  0  0  0  0  0
   24.3475  -16.3544  -17.3266 N   0  0  0  0  0  0  0  0  0  0  0  0
   23.6090  -16.8526  -18.3214 C   0  0  0  0  0  0  0  0  0  0  0  0
   23.7751  -17.0065  -19.7009 C   0  0  0  0  0  0  0  0  0  0  0  0
   22.8214  -17.5839  -20.4882 C   0  0  0  0  0  0  0  0  0  0  0  0
   21.6352  -18.0474  -19.9388 C   0  0  0  0  0  0  0  0  0  0  0  0
   21.4689  -17.8960  -18.5758 C   0  0  0  0  0  0  0  0  0  0  0  0
   22.4314  -17.3137  -17.7917 C   0  0  0  0  0  0  0  0  0  0  0  0
   19.0816  -16.5611  -14.9383 C   0  0  0  0  0  0  0  0  0  0  0  0
   19.0058  -16.7301  -13.6735 O   0  0  0  0  0  0  0  0  0  0  0  0
   17.8249  -16.6743  -15.6180 N   0  0  0  0  0  0  0  0  0  0  0  0
   16.6200  -17.0272  -14.9142 C   0  0  1  0  0  0  0  0  0  0  0  0
   15.3956  -16.4352  -15.6241 C   0  0  0  0  0  0  0  0  0  0  0  0
   15.5642  -14.6352  -15.5252 S   0  0  0  0  0  0  0  0  0  0  0  0
   16.4020  -18.4821  -14.7784 C   0  0  0  0  0  0  0  0  0  0  0  0
   17.2209  -19.3198  -15.2245 O   0  0  0  0  0  0  0  0  0  0  0  0
   15.7074  -20.1531  -10.6546 O   0  0  0  0  0  0  0  0  0  0  0  0
   15.7370  -19.2888  -11.7294 C   0  0  0  0  0  0  0  0  0  0  0  0
   15.2449  -19.8907  -13.0022 C   0  0  2  0  0  0  0  0  0  0  0  0
   15.2594  -19.0327  -14.1416 N   0  0  0  0  0  0  0  0  0  0  0  0
   13.8950  -20.4470  -12.7555 C   0  0  0  0  0  0  0  0  0  0  0  0
   12.8474  -19.7665  -12.7900 O   0  0  0  0  0  0  0  0  0  0  0  0
   13.7664  -21.7982  -12.4663 O   0  0  0  0  0  0  0  0  0  0  0  0
  2  1  1  1
  3  2  1  0
  4  3  1  0
  5  4  2  0
  6  5  1  0
  7 12  2  0
  7  6  1  0
  8  7  1  0
  9  8  2  0
  9 10  1  0
 10 11  2  0
 11 12  1  0
 12  4  1  0
 13  2  1  0
 14 13  2  0
 15 13  1  0
 16 15  1  0
 16 17  1  6
 17 18  1  0
 19 16  1  0
 20 19  2  0
 22 21  1  0
 23 22  1  1
 23 24  1  0
 24 19  1  0
 25 27  1  0
 25 23  1  0
 26 25  2  0
M  END
$$$$
