WCS.pdb
     RDKit          3D

 27 28  0  0  1  0  0  0  0  0999 V2000
   23.4126  -19.8221  -10.3118 N   0  0  0  0  0  0  0  0  0  0  0  0
   24.0889  -20.2064  -11.5612 C   0  0  1  0  0  0  0  0  0  0  0  0
   24.7876  -21.5353  -11.2694 C   0  0  0  0  0  0  0  0  0  0  0  0
   25.9033  -21.1933  -10.3202 C   0  0  0  0  0  0  0  0  0  0  0  0
   25.8795  -20.9581   -8.9755 C   0  0  0  0  0  0  0  0  0  0  0  0
   27.1542  -20.6743   -8.5787 N   0  0  0  0  0  0  0  0  0  0  0  0
   27.9697  -20.7267   -9.6348 C   0  0  0  0  0  0  0  0  0  0  0  0
   29.3408  -20.5477   -9.8410 C   0  0  0  0  0  0  0  0  0  0  0  0
   29.9148  -20.6829  -11.0718 C   0  0  0  0  0  0  0  0  0  0  0  0
   29.1465  -21.0094  -12.1794 C   0  0  0  0  0  0  0  0  0  0  0  0
   27.7914  -21.1865  -11.9780 C   0  0  0  0  0  0  0  0  0  0  0  0
   27.2219  -21.0477  -10.7384 C   0  0  0  0  0  0  0  0  0  0  0  0
   23.1733  -20.2914  -12.6958 C   0  0  0  0  0  0  0  0  0  0  0  0
   22.0561  -20.9064  -12.6085 O   0  0  0  0  0  0  0  0  0  0  0  0
   23.4210  -19.7122  -13.9831 N   0  0  0  0  0  0  0  0  0  0  0  0
   22.3816  -19.6125  -14.9738 C   0  0  1  0  0  0  0  0  0  0  0  0
   22.2616  -18.1680  -15.4764 C   0  0  0  0  0  0  0  0  0  0  0  0
   21.4171  -17.2382  -14.1723 S   0  0  0  0  0  0  0  0  0  0  0  0
   22.5809  -20.4835  -16.1504 C   0  0  0  0  0  0  0  0  0  0  0  0
   23.6122  -20.4144  -16.8597 O   0  0  0  0  0  0  0  0  0  0  0  0
   19.4083  -22.8345  -17.8423 O   0  0  0  0  0  0  0  0  0  0  0  0
   20.6680  -23.3904  -17.7580 C   0  0  0  0  0  0  0  0  0  0  0  0
   21.7638  -22.3867  -17.6296 C   0  0  2  0  0  0  0  0  0  0  0  0
   21.6275  -21.4511  -16.5616 N   0  0  0  0  0  0  0  0  0  0  0  0
   21.9179  -21.7054  -18.9353 C   0  0  0  0  0  0  0  0  0  0  0  0
   21.7995  -20.4712  -19.0919 O   0  0  0  0  0  0  0  0  0  0  0  0
   22.2085  -22.4643  -20.0603 O   0  0  0  0  0  0  0  0  0  0  0  0
  2  1  1  1
  3  2  1  0
  4  3  1  0
  5  4  2  0
  6  5  1  0
  7 12  2  0
  7  6  1  0
  8  7  1  0
  9  8  2  0
  9 10  1  0
 10 11  2  0
 11 12  1  0
 12  4  1  0
 13  2  1  0
 14 13  2  0
 15 13  1  0
 16 15  1  0
 16 17  1  6
 17 18  1  0
 19 16  1  0
 20 19  2  0
 22 21  1  0
 23 22  1  6
 23 24  1  0
 24 19  1  0
 25 27  1  0
 25 23  1  0
 26 25  2  0
M  END
$$$$
