WCS.pdb
     RDKit          3D

 27 28  0  0  1  0  0  0  0  0999 V2000
   24.5720  -20.2974   -9.0882 N   0  0  0  0  0  0  0  0  0  0  0  0
   25.9379  -20.2332   -9.6327 C   0  0  1  0  0  0  0  0  0  0  0  0
   26.7339  -21.3140   -8.8998 C   0  0  0  0  0  0  0  0  0  0  0  0
   26.5563  -21.0102   -7.4374 C   0  0  0  0  0  0  0  0  0  0  0  0
   25.4738  -21.1826   -6.6234 C   0  0  0  0  0  0  0  0  0  0  0  0
   25.8125  -20.7377   -5.3783 N   0  0  0  0  0  0  0  0  0  0  0  0
   27.0723  -20.2951   -5.3929 C   0  0  0  0  0  0  0  0  0  0  0  0
   27.9455  -19.7525   -4.4456 C   0  0  0  0  0  0  0  0  0  0  0  0
   29.2245  -19.3926   -4.7575 C   0  0  0  0  0  0  0  0  0  0  0  0
   29.7119  -19.5563   -6.0457 C   0  0  0  0  0  0  0  0  0  0  0  0
   28.8506  -20.0920   -6.9835 C   0  0  0  0  0  0  0  0  0  0  0  0
   27.5665  -20.4501   -6.6625 C   0  0  0  0  0  0  0  0  0  0  0  0
   25.9755  -20.3955  -11.0836 C   0  0  0  0  0  0  0  0  0  0  0  0
   26.1081  -21.5462  -11.6242 O   0  0  0  0  0  0  0  0  0  0  0  0
   25.8695  -19.3185  -12.0233 N   0  0  0  0  0  0  0  0  0  0  0  0
   26.7296  -19.2397  -13.1747 C   0  0  1  0  0  0  0  0  0  0  0  0
   28.0684  -18.5930  -12.7963 C   0  0  0  0  0  0  0  0  0  0  0  0
   29.0279  -18.4638  -14.3263 S   0  0  0  0  0  0  0  0  0  0  0  0
   27.0215  -20.5446  -13.8031 C   0  0  0  0  0  0  0  0  0  0  0  0
   27.6546  -21.4437  -13.2011 O   0  0  0  0  0  0  0  0  0  0  0  0
   24.9387  -24.1532  -15.3294 O   0  0  0  0  0  0  0  0  0  0  0  0
   25.2228  -22.8963  -14.8371 C   0  0  0  0  0  0  0  0  0  0  0  0
   26.2644  -22.1644  -15.6143 C   0  0  2  0  0  0  0  0  0  0  0  0
   26.6131  -20.8718  -15.1223 N   0  0  0  0  0  0  0  0  0  0  0  0
   25.8288  -22.1104  -17.0286 C   0  0  0  0  0  0  0  0  0  0  0  0
   25.1782  -21.1624  -17.5183 O   0  0  0  0  0  0  0  0  0  0  0  0
   26.1506  -23.1640  -17.8726 O   0  0  0  0  0  0  0  0  0  0  0  0
  2  1  1  1
  3  2  1  0
  4  3  1  0
  5  4  2  0
  6  5  1  0
  7 12  2  0
  7  6  1  0
  8  7  1  0
  9  8  2  0
  9 10  1  0
 10 11  2  0
 11 12  1  0
 12  4  1  0
 13  2  1  0
 14 13  2  0
 15 13  1  0
 16 15  1  0
 16 17  1  1
 17 18  1  0
 19 16  1  0
 20 19  2  0
 22 21  1  0
 23 22  1  1
 23 24  1  0
 24 19  1  0
 25 27  1  0
 25 23  1  0
 26 25  2  0
M  END
$$$$
