WCS.pdb
     RDKit          3D

 27 28  0  0  1  0  0  0  0  0999 V2000
   26.9068  -21.6991  -12.5182 N   0  0  0  0  0  0  0  0  0  0  0  0
   25.8313  -21.2722  -11.6087 C   0  0  1  0  0  0  0  0  0  0  0  0
   26.3819  -20.0686  -10.8423 C   0  0  0  0  0  0  0  0  0  0  0  0
   27.6193  -20.5739  -10.1522 C   0  0  0  0  0  0  0  0  0  0  0  0
   28.7434  -21.1546  -10.6652 C   0  0  0  0  0  0  0  0  0  0  0  0
   29.5743  -21.4485   -9.6230 N   0  0  0  0  0  0  0  0  0  0  0  0
   29.0020  -21.0676   -8.4783 C   0  0  0  0  0  0  0  0  0  0  0  0
   29.3651  -21.0961   -7.1286 C   0  0  0  0  0  0  0  0  0  0  0  0
   28.5539  -20.6055   -6.1468 C   0  0  0  0  0  0  0  0  0  0  0  0
   27.3213  -20.0508   -6.4580 C   0  0  0  0  0  0  0  0  0  0  0  0
   26.9604  -20.0219   -7.7912 C   0  0  0  0  0  0  0  0  0  0  0  0
   27.7805  -20.5180   -8.7717 C   0  0  0  0  0  0  0  0  0  0  0  0
   24.5863  -20.9693  -12.3094 C   0  0  0  0  0  0  0  0  0  0  0  0
   24.4009  -19.8439  -12.8866 O   0  0  0  0  0  0  0  0  0  0  0  0
   23.4786  -21.8717  -12.4220 N   0  0  0  0  0  0  0  0  0  0  0  0
   22.3013  -21.5248  -13.1739 C   0  0  1  0  0  0  0  0  0  0  0  0
   22.6185  -21.4906  -14.6745 C   0  0  0  0  0  0  0  0  0  0  0  0
   24.0283  -22.5981  -14.9276 S   0  0  0  0  0  0  0  0  0  0  0  0
   21.1628  -22.4451  -12.9752 C   0  0  0  0  0  0  0  0  0  0  0  0
   21.2786  -23.6847  -13.1218 O   0  0  0  0  0  0  0  0  0  0  0  0
   17.6149  -21.0881  -11.0067 O   0  0  0  0  0  0  0  0  0  0  0  0
   18.0284  -22.4041  -11.0070 C   0  0  0  0  0  0  0  0  0  0  0  0
   18.7515  -22.8098  -12.2467 C   0  0  2  0  0  0  0  0  0  0  0  0
   19.8664  -21.9976  -12.6098 N   0  0  0  0  0  0  0  0  0  0  0  0
   17.7631  -22.9022  -13.3455 C   0  0  0  0  0  0  0  0  0  0  0  0
   17.8250  -22.2233  -14.3930 O   0  0  0  0  0  0  0  0  0  0  0  0
   16.7001  -23.7857  -13.2221 O   0  0  0  0  0  0  0  0  0  0  0  0
  2  1  1  6
  3  2  1  0
  4  3  1  0
  5  4  2  0
  6  5  1  0
  7 12  2  0
  7  6  1  0
  8  7  1  0
  9  8  2  0
  9 10  1  0
 10 11  2  0
 11 12  1  0
 12  4  1  0
 13  2  1  0
 14 13  2  0
 15 13  1  0
 16 15  1  0
 16 17  1  6
 17 18  1  0
 19 16  1  0
 20 19  2  0
 22 21  1  0
 23 22  1  1
 23 24  1  0
 24 19  1  0
 25 27  1  0
 25 23  1  0
 26 25  2  0
M  END
$$$$
