WCS.pdb
     RDKit          3D

 27 28  0  0  1  0  0  0  0  0999 V2000
   27.9982  -21.6040   -9.1232 N   0  0  0  0  0  0  0  0  0  0  0  0
   26.6211  -21.2098   -9.4611 C   0  0  1  0  0  0  0  0  0  0  0  0
   26.2726  -20.0533   -8.5229 C   0  0  0  0  0  0  0  0  0  0  0  0
   27.5710  -19.6764   -7.8636 C   0  0  0  0  0  0  0  0  0  0  0  0
   28.7424  -19.2324   -8.4065 C   0  0  0  0  0  0  0  0  0  0  0  0
   29.6297  -19.0425   -7.3869 N   0  0  0  0  0  0  0  0  0  0  0  0
   29.0458  -19.3538   -6.2270 C   0  0  0  0  0  0  0  0  0  0  0  0
   29.4370  -19.3474   -4.8849 C   0  0  0  0  0  0  0  0  0  0  0  0
   28.5918  -19.7179   -3.8793 C   0  0  0  0  0  0  0  0  0  0  0  0
   27.2935  -20.1189   -4.1574 C   0  0  0  0  0  0  0  0  0  0  0  0
   26.9049  -20.1263   -5.4830 C   0  0  0  0  0  0  0  0  0  0  0  0
   27.7605  -19.7537   -6.4878 C   0  0  0  0  0  0  0  0  0  0  0  0
   26.4644  -20.8563  -10.8695 C   0  0  0  0  0  0  0  0  0  0  0  0
   27.3524  -20.1789  -11.4913 O   0  0  0  0  0  0  0  0  0  0  0  0
   25.3376  -21.2206  -11.6768 N   0  0  0  0  0  0  0  0  0  0  0  0
   25.2454  -20.8269  -13.0581 C   0  0  1  0  0  0  0  0  0  0  0  0
   25.5400  -22.0223  -13.9735 C   0  0  0  0  0  0  0  0  0  0  0  0
   24.5520  -23.4047  -13.3482 S   0  0  0  0  0  0  0  0  0  0  0  0
   23.9297  -20.2772  -13.4447 C   0  0  0  0  0  0  0  0  0  0  0  0
   22.8698  -20.6329  -12.8775 O   0  0  0  0  0  0  0  0  0  0  0  0
   23.6040  -16.6685  -15.4517 O   0  0  0  0  0  0  0  0  0  0  0  0
   22.6651  -17.5923  -15.8618 C   0  0  0  0  0  0  0  0  0  0  0  0
   22.5426  -18.7715  -14.9568 C   0  0  2  0  0  0  0  0  0  0  0  0
   23.7702  -19.3177  -14.4782 N   0  0  0  0  0  0  0  0  0  0  0  0
   21.7216  -19.7945  -15.6441 C   0  0  0  0  0  0  0  0  0  0  0  0
   22.1745  -20.8825  -16.0600 O   0  0  0  0  0  0  0  0  0  0  0  0
   20.3714  -19.5478  -15.8484 O   0  0  0  0  0  0  0  0  0  0  0  0
  2  1  1  6
  3  2  1  0
  4  3  1  0
  5  4  2  0
  6  5  1  0
  7 12  2  0
  7  6  1  0
  8  7  1  0
  9  8  2  0
  9 10  1  0
 10 11  2  0
 11 12  1  0
 12  4  1  0
 13  2  1  0
 14 13  2  0
 15 13  1  0
 16 15  1  0
 16 17  1  6
 17 18  1  0
 19 16  1  0
 20 19  2  0
 22 21  1  0
 23 22  1  6
 23 24  1  0
 24 19  1  0
 25 27  1  0
 25 23  1  0
 26 25  2  0
M  END
$$$$
