KKT.pdb
     RDKit          3D

 26 25  0  0  1  0  0  0  0  0999 V2000
   12.1198  -21.2841   16.2987 N   0  0  0  0  0  0  0  0  0  0  0  0
   11.6521  -19.9200   16.4391 C   0  0  1  0  0  0  0  0  0  0  0  0
   10.7332  -19.6089   15.3025 C   0  0  0  0  0  0  0  0  0  0  0  0
   11.4138  -19.8236   13.9491 C   0  0  0  0  0  0  0  0  0  0  0  0
   12.2008  -18.6165   13.5455 C   0  0  0  0  0  0  0  0  0  0  0  0
   12.7144  -18.7038   12.1259 C   0  0  0  0  0  0  0  0  0  0  0  0
   11.9589  -17.7759   11.3046 N   0  0  0  0  0  0  0  0  0  0  0  0
   11.0113  -19.7012   17.7690 C   0  0  0  0  0  0  0  0  0  0  0  0
   10.4796  -18.5837   17.9561 O   0  0  0  0  0  0  0  0  0  0  0  0
   10.9974  -20.6951   18.7757 N   0  0  0  0  0  0  0  0  0  0  0  0
   10.4768  -20.5683   20.1074 C   0  0  1  0  0  0  0  0  0  0  0  0
   10.2526  -21.8626   20.8029 C   0  0  0  0  0  0  0  0  0  0  0  0
    9.0570  -22.5777   20.1887 C   0  0  0  0  0  0  0  0  0  0  0  0
    8.8856  -23.9569   20.8170 C   0  0  0  0  0  0  0  0  0  0  0  0
    7.6145  -24.6100   20.3445 C   0  0  0  0  0  0  0  0  0  0  0  0
    7.5528  -26.0078   20.7158 N   0  0  0  0  0  0  0  0  0  0  0  0
   11.1604  -19.5342   20.9395 C   0  0  0  0  0  0  0  0  0  0  0  0
   12.3978  -19.3590   20.9152 O   0  0  0  0  0  0  0  0  0  0  0  0
   10.7556  -15.2551   23.4407 C   0  0  0  0  0  0  0  0  0  0  0  0
   10.1753  -16.3654   22.6282 C   0  0  1  0  0  0  0  0  0  0  0  0
    9.9042  -15.9462   21.3146 O   0  0  0  0  0  0  0  0  0  0  0  0
   11.0638  -17.5771   22.5161 C   0  0  2  0  0  0  0  0  0  0  0  0
   10.4353  -18.6782   21.8181 N   0  0  0  0  0  0  0  0  0  0  0  0
   11.6076  -17.9950   23.8291 C   0  0  0  0  0  0  0  0  0  0  0  0
   12.6245  -17.3283   24.4618 O   0  0  0  0  0  0  0  0  0  0  0  0
   11.1064  -19.0061   24.3761 O   0  0  0  0  0  0  0  0  0  0  0  0
  2  1  1  1
  3  4  1  0
  3  2  1  0
  5  4  1  0
  5  6  1  0
  7  6  1  0
  8  2  1  0
  8  9  2  0
 10  8  1  0
 11 10  1  0
 11 12  1  1
 13 12  1  0
 13 14  1  0
 15 14  1  0
 16 15  1  0
 17 11  1  0
 18 17  2  0
 20 19  1  1
 20 22  1  0
 21 20  1  0
 22 24  1  0
 22 23  1  1
 23 17  1  0
 24 25  1  0
 26 24  2  0
M  END
$$$$
