KKT.pdb
     RDKit          3D

 26 25  0  0  1  0  0  0  0  0999 V2000
    5.7207  -16.9454   20.5482 N   0  0  0  0  0  0  0  0  0  0  0  0
    6.5867  -16.0174   21.2466 C   0  0  1  0  0  0  0  0  0  0  0  0
    6.1844  -14.6236   20.8879 C   0  0  0  0  0  0  0  0  0  0  0  0
    6.6910  -14.2276   19.4995 C   0  0  0  0  0  0  0  0  0  0  0  0
    8.0434  -13.5925   19.5815 C   0  0  0  0  0  0  0  0  0  0  0  0
    8.5638  -13.1536   18.2312 C   0  0  0  0  0  0  0  0  0  0  0  0
    9.8227  -12.4583   18.4262 N   0  0  0  0  0  0  0  0  0  0  0  0
    6.5637  -16.2583   22.7191 C   0  0  0  0  0  0  0  0  0  0  0  0
    5.5089  -15.9519   23.3191 O   0  0  0  0  0  0  0  0  0  0  0  0
    7.6682  -16.8037   23.4147 N   0  0  0  0  0  0  0  0  0  0  0  0
    7.7760  -17.0215   24.8295 C   0  0  1  0  0  0  0  0  0  0  0  0
    8.2246  -18.3875   25.2063 C   0  0  0  0  0  0  0  0  0  0  0  0
    7.1635  -19.4058   24.8120 C   0  0  0  0  0  0  0  0  0  0  0  0
    7.6294  -20.8162   25.1585 C   0  0  0  0  0  0  0  0  0  0  0  0
    6.5569  -21.8277   24.8548 C   0  0  0  0  0  0  0  0  0  0  0  0
    6.9758  -23.1753   25.1770 N   0  0  0  0  0  0  0  0  0  0  0  0
    8.4636  -15.9229   25.5706 C   0  0  0  0  0  0  0  0  0  0  0  0
    9.6374  -15.5730   25.3213 O   0  0  0  0  0  0  0  0  0  0  0  0
    7.1126  -12.2151   26.4922 C   0  0  0  0  0  0  0  0  0  0  0  0
    7.5671  -12.9945   27.6819 C   0  0  1  0  0  0  0  0  0  0  0  0
    6.4757  -13.5364   28.3819 O   0  0  0  0  0  0  0  0  0  0  0  0
    8.4791  -14.1477   27.3520 C   0  0  2  0  0  0  0  0  0  0  0  0
    7.8158  -15.2020   26.6152 N   0  0  0  0  0  0  0  0  0  0  0  0
    9.1784  -14.6678   28.5498 C   0  0  0  0  0  0  0  0  0  0  0  0
    9.9467  -13.8791   29.3664 O   0  0  0  0  0  0  0  0  0  0  0  0
    9.0539  -15.8864   28.8182 O   0  0  0  0  0  0  0  0  0  0  0  0
  2  1  1  6
  3  4  1  0
  3  2  1  0
  5  4  1  0
  5  6  1  0
  7  6  1  0
  8  2  1  0
  8  9  2  0
 10  8  1  0
 11 10  1  0
 11 12  1  6
 13 12  1  0
 13 14  1  0
 15 14  1  0
 16 15  1  0
 17 11  1  0
 18 17  2  0
 20 19  1  6
 20 22  1  0
 21 20  1  0
 22 24  1  0
 22 23  1  1
 23 17  1  0
 24 25  1  0
 26 24  2  0
M  END
$$$$
