KKT.pdb
     RDKit          3D

 26 25  0  0  1  0  0  0  0  0999 V2000
    9.7060  -16.2646   19.0373 N   0  0  0  0  0  0  0  0  0  0  0  0
    8.7320  -16.6191   20.0496 C   0  0  1  0  0  0  0  0  0  0  0  0
    8.6062  -18.1075   20.0934 C   0  0  0  0  0  0  0  0  0  0  0  0
    9.2029  -18.7631   18.8463 C   0  0  0  0  0  0  0  0  0  0  0  0
    9.0182  -20.2478   18.8788 C   0  0  0  0  0  0  0  0  0  0  0  0
    9.5629  -20.9297   17.6438 C   0  0  0  0  0  0  0  0  0  0  0  0
    9.4282  -22.3649   17.8125 N   0  0  0  0  0  0  0  0  0  0  0  0
    9.0920  -16.0363   21.3754 C   0  0  0  0  0  0  0  0  0  0  0  0
   10.2926  -16.1254   21.7177 O   0  0  0  0  0  0  0  0  0  0  0  0
    8.1375  -15.4126   22.2128 N   0  0  0  0  0  0  0  0  0  0  0  0
    8.3552  -14.8931   23.5332 C   0  0  1  0  0  0  0  0  0  0  0  0
    7.3290  -13.9170   23.9840 C   0  0  0  0  0  0  0  0  0  0  0  0
    7.6841  -13.3993   25.3712 C   0  0  0  0  0  0  0  0  0  0  0  0
    6.5946  -12.4610   25.8804 C   0  0  0  0  0  0  0  0  0  0  0  0
    6.9005  -11.9875   27.2760 C   0  0  0  0  0  0  0  0  0  0  0  0
    5.8767  -11.0987   27.7834 N   0  0  0  0  0  0  0  0  0  0  0  0
    8.7084  -15.9270   24.5507 C   0  0  0  0  0  0  0  0  0  0  0  0
    7.8560  -16.6757   25.0754 O   0  0  0  0  0  0  0  0  0  0  0  0
   11.5900  -18.4682   23.9157 C   0  0  0  0  0  0  0  0  0  0  0  0
   11.6929  -17.9324   25.3056 C   0  0  1  0  0  0  0  0  0  0  0  0
   12.7265  -16.9862   25.4105 O   0  0  0  0  0  0  0  0  0  0  0  0
   10.4408  -17.2551   25.7997 C   0  0  2  0  0  0  0  0  0  0  0  0
   10.0506  -16.1228   24.9872 N   0  0  0  0  0  0  0  0  0  0  0  0
   10.5265  -16.9003   27.2353 C   0  0  0  0  0  0  0  0  0  0  0  0
   10.7038  -17.8322   28.2248 O   0  0  0  0  0  0  0  0  0  0  0  0
   10.4311  -15.6892   27.5465 O   0  0  0  0  0  0  0  0  0  0  0  0
  2  1  1  6
  3  4  1  0
  3  2  1  0
  5  4  1  0
  5  6  1  0
  7  6  1  0
  8  2  1  0
  8  9  2  0
 10  8  1  0
 11 10  1  0
 11 12  1  1
 13 12  1  0
 13 14  1  0
 15 14  1  0
 16 15  1  0
 17 11  1  0
 18 17  2  0
 20 19  1  6
 20 22  1  0
 21 20  1  0
 22 24  1  0
 22 23  1  6
 23 17  1  0
 24 25  1  0
 26 24  2  0
M  END
$$$$
