KKT.pdb
     RDKit          3D

 26 25  0  0  1  0  0  0  0  0999 V2000
    8.2282  -20.5561   15.8882 N   0  0  0  0  0  0  0  0  0  0  0  0
    9.5951  -20.2974   16.2927 C   0  0  1  0  0  0  0  0  0  0  0  0
   10.1435  -19.1922   15.4496 C   0  0  0  0  0  0  0  0  0  0  0  0
   10.1611  -19.5669   13.9662 C   0  0  0  0  0  0  0  0  0  0  0  0
   10.9650  -18.5850   13.1731 C   0  0  0  0  0  0  0  0  0  0  0  0
   11.1068  -18.9855   11.7219 C   0  0  0  0  0  0  0  0  0  0  0  0
   12.0346  -18.0724   11.0803 N   0  0  0  0  0  0  0  0  0  0  0  0
    9.6810  -19.9998   17.7525 C   0  0  0  0  0  0  0  0  0  0  0  0
    8.8862  -19.1402   18.1953 O   0  0  0  0  0  0  0  0  0  0  0  0
   10.6069  -20.6469   18.6042 N   0  0  0  0  0  0  0  0  0  0  0  0
   10.7286  -20.4898   20.0258 C   0  0  1  0  0  0  0  0  0  0  0  0
   11.3662  -21.6411   20.7166 C   0  0  0  0  0  0  0  0  0  0  0  0
   10.3224  -22.7112   21.0056 C   0  0  0  0  0  0  0  0  0  0  0  0
   10.7538  -24.0462   20.4070 C   0  0  0  0  0  0  0  0  0  0  0  0
    9.6798  -25.0864   20.5799 C   0  0  0  0  0  0  0  0  0  0  0  0
   10.0362  -26.3426   19.9552 N   0  0  0  0  0  0  0  0  0  0  0  0
   11.2412  -19.1551   20.4557 C   0  0  0  0  0  0  0  0  0  0  0  0
   12.0942  -18.5174   19.8013 O   0  0  0  0  0  0  0  0  0  0  0  0
   10.6182  -15.0947   23.2847 C   0  0  0  0  0  0  0  0  0  0  0  0
   10.1830  -16.4520   22.8400 C   0  0  1  0  0  0  0  0  0  0  0  0
    9.0294  -16.3796   22.0410 O   0  0  0  0  0  0  0  0  0  0  0  0
   11.2154  -17.1976   22.0347 C   0  0  2  0  0  0  0  0  0  0  0  0
   10.7835  -18.5238   21.6484 N   0  0  0  0  0  0  0  0  0  0  0  0
   12.5366  -17.2211   22.7042 C   0  0  0  0  0  0  0  0  0  0  0  0
   13.3519  -16.1221   22.7846 O   0  0  0  0  0  0  0  0  0  0  0  0
   12.9149  -18.3014   23.2166 O   0  0  0  0  0  0  0  0  0  0  0  0
  2  1  1  6
  3  4  1  0
  3  2  1  0
  5  4  1  0
  5  6  1  0
  7  6  1  0
  8  2  1  0
  8  9  2  0
 10  8  1  0
 11 10  1  0
 11 12  1  6
 13 12  1  0
 13 14  1  0
 15 14  1  0
 16 15  1  0
 17 11  1  0
 18 17  2  0
 20 19  1  6
 20 22  1  0
 21 20  1  0
 22 24  1  0
 22 23  1  1
 23 17  1  0
 24 25  1  0
 26 24  2  0
M  END
$$$$
