KKT.pdb
     RDKit          3D

 26 25  0  0  1  0  0  0  0  0999 V2000
    7.3435  -16.0458   19.5016 N   0  0  0  0  0  0  0  0  0  0  0  0
    8.5625  -15.3222   19.2028 C   0  0  1  0  0  0  0  0  0  0  0  0
    8.2012  -13.9712   18.6763 C   0  0  0  0  0  0  0  0  0  0  0  0
    7.3362  -14.0666   17.4178 C   0  0  0  0  0  0  0  0  0  0  0  0
    8.1839  -14.1863   16.1905 C   0  0  0  0  0  0  0  0  0  0  0  0
    7.3787  -14.0862   14.9144 C   0  0  0  0  0  0  0  0  0  0  0  0
    7.1343  -12.6836   14.6326 N   0  0  0  0  0  0  0  0  0  0  0  0
    9.4565  -15.2509   20.3956 C   0  0  0  0  0  0  0  0  0  0  0  0
   10.5371  -14.6369   20.2482 O   0  0  0  0  0  0  0  0  0  0  0  0
    9.1143  -15.8413   21.6348 N   0  0  0  0  0  0  0  0  0  0  0  0
    9.9541  -15.9687   22.7920 C   0  0  1  0  0  0  0  0  0  0  0  0
    9.2163  -16.1986   24.0616 C   0  0  0  0  0  0  0  0  0  0  0  0
   10.2040  -16.4152   25.2000 C   0  0  0  0  0  0  0  0  0  0  0  0
    9.4622  -16.7841   26.4808 C   0  0  0  0  0  0  0  0  0  0  0  0
   10.4160  -16.9103   27.6383 C   0  0  0  0  0  0  0  0  0  0  0  0
    9.7323  -17.2426   28.8702 N   0  0  0  0  0  0  0  0  0  0  0  0
   11.1368  -16.8592   22.5991 C   0  0  0  0  0  0  0  0  0  0  0  0
   11.0420  -18.1045   22.5471 O   0  0  0  0  0  0  0  0  0  0  0  0
   14.0170  -16.3963   19.9212 C   0  0  0  0  0  0  0  0  0  0  0  0
   14.5941  -16.6429   21.2761 C   0  0  1  0  0  0  0  0  0  0  0  0
   15.1105  -15.4600   21.8317 O   0  0  0  0  0  0  0  0  0  0  0  0
   13.6088  -17.1908   22.2757 C   0  0  2  0  0  0  0  0  0  0  0  0
   12.4552  -16.3367   22.4612 N   0  0  0  0  0  0  0  0  0  0  0  0
   14.2528  -17.5352   23.5645 C   0  0  0  0  0  0  0  0  0  0  0  0
   15.2520  -18.4673   23.6736 O   0  0  0  0  0  0  0  0  0  0  0  0
   13.8572  -16.9400   24.5950 O   0  0  0  0  0  0  0  0  0  0  0  0
  2  1  1  1
  3  4  1  0
  3  2  1  0
  5  4  1  0
  5  6  1  0
  7  6  1  0
  8  2  1  0
  8  9  2  0
 10  8  1  0
 11 10  1  0
 11 12  1  1
 13 12  1  0
 13 14  1  0
 15 14  1  0
 16 15  1  0
 17 11  1  0
 18 17  2  0
 20 19  1  6
 20 22  1  0
 21 20  1  0
 22 24  1  0
 22 23  1  1
 23 17  1  0
 24 25  1  0
 26 24  2  0
M  END
$$$$
