KKT.pdb
     RDKit          3D

 26 25  0  0  1  0  0  0  0  0999 V2000
    5.3741  -15.5155   20.7206 N   0  0  0  0  0  0  0  0  0  0  0  0
    6.7138  -15.3639   21.2511 C   0  0  1  0  0  0  0  0  0  0  0  0
    7.1371  -13.9404   21.0844 C   0  0  0  0  0  0  0  0  0  0  0  0
    7.3429  -13.5796   19.6118 C   0  0  0  0  0  0  0  0  0  0  0  0
    8.7864  -13.6797   19.2304 C   0  0  0  0  0  0  0  0  0  0  0  0
    9.0215  -13.4038   17.7623 C   0  0  0  0  0  0  0  0  0  0  0  0
   10.4524  -13.3817   17.5208 N   0  0  0  0  0  0  0  0  0  0  0  0
    6.7897  -15.8208   22.6697 C   0  0  0  0  0  0  0  0  0  0  0  0
    5.8946  -15.4050   23.4394 O   0  0  0  0  0  0  0  0  0  0  0  0
    7.8137  -16.6788   23.1352 N   0  0  0  0  0  0  0  0  0  0  0  0
    8.0029  -17.1482   24.4785 C   0  0  1  0  0  0  0  0  0  0  0  0
    8.2119  -18.6155   24.5906 C   0  0  0  0  0  0  0  0  0  0  0  0
    8.3457  -19.0067   26.0560 C   0  0  0  0  0  0  0  0  0  0  0  0
    8.5943  -20.5064   26.1824 C   0  0  0  0  0  0  0  0  0  0  0  0
    8.7324  -20.9097   27.6259 C   0  0  0  0  0  0  0  0  0  0  0  0
    8.9184  -22.3376   27.7744 N   0  0  0  0  0  0  0  0  0  0  0  0
    8.9524  -16.3289   25.2886 C   0  0  0  0  0  0  0  0  0  0  0  0
   10.1444  -16.1528   24.9562 O   0  0  0  0  0  0  0  0  0  0  0  0
    8.6347  -12.6048   26.5200 C   0  0  0  0  0  0  0  0  0  0  0  0
    8.8475  -13.5416   27.6631 C   0  0  1  0  0  0  0  0  0  0  0  0
    7.6367  -13.8331   28.3138 O   0  0  0  0  0  0  0  0  0  0  0  0
    9.4524  -14.8649   27.2716 C   0  0  2  0  0  0  0  0  0  0  0  0
    8.5515  -15.6936   26.4994 N   0  0  0  0  0  0  0  0  0  0  0  0
   10.0086  -15.5918   28.4362 C   0  0  0  0  0  0  0  0  0  0  0  0
   10.9278  -15.0401   29.2905 O   0  0  0  0  0  0  0  0  0  0  0  0
    9.6127  -16.7643   28.6390 O   0  0  0  0  0  0  0  0  0  0  0  0
  2  1  1  1
  3  4  1  0
  3  2  1  0
  5  4  1  0
  5  6  1  0
  7  6  1  0
  8  2  1  0
  8  9  2  0
 10  8  1  0
 11 10  1  0
 11 12  1  6
 13 12  1  0
 13 14  1  0
 15 14  1  0
 16 15  1  0
 17 11  1  0
 18 17  2  0
 20 19  1  6
 20 22  1  0
 21 20  1  0
 22 24  1  0
 22 23  1  1
 23 17  1  0
 24 25  1  0
 26 24  2  0
M  END
$$$$
