KKT.pdb
     RDKit          3D

 26 25  0  0  1  0  0  0  0  0999 V2000
    6.0942  -16.2794   20.2677 N   0  0  0  0  0  0  0  0  0  0  0  0
    7.1391  -15.5175   20.9209 C   0  0  1  0  0  0  0  0  0  0  0  0
    6.8860  -14.0626   20.6917 C   0  0  0  0  0  0  0  0  0  0  0  0
    7.0014  -13.6942   19.2112 C   0  0  0  0  0  0  0  0  0  0  0  0
    8.4215  -13.7747   18.7462 C   0  0  0  0  0  0  0  0  0  0  0  0
    8.5825  -13.3807   17.2951 C   0  0  0  0  0  0  0  0  0  0  0  0
    9.9781  -13.5353   16.9277 N   0  0  0  0  0  0  0  0  0  0  0  0
    7.2342  -15.8600   22.3702 C   0  0  0  0  0  0  0  0  0  0  0  0
    6.2097  -15.6589   23.0604 O   0  0  0  0  0  0  0  0  0  0  0  0
    8.4136  -16.3854   22.9485 N   0  0  0  0  0  0  0  0  0  0  0  0
    8.6597  -16.6244   24.3424 C   0  0  1  0  0  0  0  0  0  0  0  0
    9.5434  -17.7874   24.6174 C   0  0  0  0  0  0  0  0  0  0  0  0
    9.7067  -17.9667   26.1206 C   0  0  0  0  0  0  0  0  0  0  0  0
   10.5808  -19.1812   26.4165 C   0  0  0  0  0  0  0  0  0  0  0  0
   10.7220  -19.3948   27.8997 C   0  0  0  0  0  0  0  0  0  0  0  0
   11.6376  -20.4730   28.2073 N   0  0  0  0  0  0  0  0  0  0  0  0
    8.9950  -15.3992   25.1269 C   0  0  0  0  0  0  0  0  0  0  0  0
   10.0674  -14.7748   24.9771 O   0  0  0  0  0  0  0  0  0  0  0  0
    6.5842  -12.1858   25.7868 C   0  0  0  0  0  0  0  0  0  0  0  0
    7.1466  -12.7921   27.0300 C   0  0  1  0  0  0  0  0  0  0  0  0
    6.2065  -13.6255   27.6595 O   0  0  0  0  0  0  0  0  0  0  0  0
    8.3785  -13.6300   26.8048 C   0  0  2  0  0  0  0  0  0  0  0  0
    8.1034  -14.8646   26.1014 N   0  0  0  0  0  0  0  0  0  0  0  0
    9.1312  -13.8657   28.0586 C   0  0  0  0  0  0  0  0  0  0  0  0
    9.4164  -15.1197   28.5331 O   0  0  0  0  0  0  0  0  0  0  0  0
    9.5196  -12.8644   28.7061 O   0  0  0  0  0  0  0  0  0  0  0  0
  2  1  1  1
  3  4  1  0
  3  2  1  0
  5  4  1  0
  5  6  1  0
  7  6  1  0
  8  2  1  0
  8  9  2  0
 10  8  1  0
 11 10  1  0
 11 12  1  6
 13 12  1  0
 13 14  1  0
 15 14  1  0
 16 15  1  0
 17 11  1  0
 18 17  2  0
 20 19  1  6
 20 22  1  0
 21 20  1  0
 22 24  1  0
 22 23  1  1
 23 17  1  0
 24 25  1  0
 26 24  2  0
M  END
$$$$
