KKT.pdb
     RDKit          3D

 26 25  0  0  1  0  0  0  0  0999 V2000
    8.6364  -18.9291   16.2773 N   0  0  0  0  0  0  0  0  0  0  0  0
    9.9245  -19.3041   16.8242 C   0  0  1  0  0  0  0  0  0  0  0  0
   10.9735  -18.4225   16.2278 C   0  0  0  0  0  0  0  0  0  0  0  0
   11.8688  -19.1884   15.2517 C   0  0  0  0  0  0  0  0  0  0  0  0
   12.9140  -18.2926   14.6648 C   0  0  0  0  0  0  0  0  0  0  0  0
   13.9020  -19.0402   13.7979 C   0  0  0  0  0  0  0  0  0  0  0  0
   14.8290  -18.0822   13.2241 N   0  0  0  0  0  0  0  0  0  0  0  0
    9.9153  -19.2538   18.3156 C   0  0  0  0  0  0  0  0  0  0  0  0
    9.4074  -18.2358   18.8374 O   0  0  0  0  0  0  0  0  0  0  0  0
   10.4490  -20.2943   19.1118 N   0  0  0  0  0  0  0  0  0  0  0  0
   10.5293  -20.3311   20.5446 C   0  0  1  0  0  0  0  0  0  0  0  0
   10.7292  -21.6903   21.1118 C   0  0  0  0  0  0  0  0  0  0  0  0
   10.6207  -21.6366   22.6297 C   0  0  0  0  0  0  0  0  0  0  0  0
   10.9166  -23.0073   23.2299 C   0  0  0  0  0  0  0  0  0  0  0  0
   10.7905  -22.9773   24.7294 C   0  0  0  0  0  0  0  0  0  0  0  0
   12.0393  -23.3033   25.3850 N   0  0  0  0  0  0  0  0  0  0  0  0
   11.4099  -19.2820   21.1387 C   0  0  0  0  0  0  0  0  0  0  0  0
   12.6222  -19.1779   20.8526 O   0  0  0  0  0  0  0  0  0  0  0  0
   10.3364  -15.3241   22.0785 C   0  0  0  0  0  0  0  0  0  0  0  0
   10.9928  -16.1174   23.1597 C   0  0  1  0  0  0  0  0  0  0  0  0
   10.0479  -16.6020   24.0800 O   0  0  0  0  0  0  0  0  0  0  0  0
   11.7623  -17.3149   22.6656 C   0  0  2  0  0  0  0  0  0  0  0  0
   10.9150  -18.3288   22.0751 N   0  0  0  0  0  0  0  0  0  0  0  0
   12.6508  -17.8778   23.7087 C   0  0  0  0  0  0  0  0  0  0  0  0
   13.6971  -17.1796   24.2537 O   0  0  0  0  0  0  0  0  0  0  0  0
   12.4252  -19.0469   24.1024 O   0  0  0  0  0  0  0  0  0  0  0  0
  2  1  1  6
  3  4  1  0
  3  2  1  0
  5  4  1  0
  5  6  1  0
  7  6  1  0
  8  2  1  0
  8  9  2  0
 10  8  1  0
 11 10  1  0
 11 12  1  6
 13 12  1  0
 13 14  1  0
 15 14  1  0
 16 15  1  0
 17 11  1  0
 18 17  2  0
 20 19  1  6
 20 22  1  0
 21 20  1  0
 22 24  1  0
 22 23  1  1
 23 17  1  0
 24 25  1  0
 26 24  2  0
M  END
$$$$
