KKT.pdb
     RDKit          3D

 26 25  0  0  1  0  0  0  0  0999 V2000
   10.2927  -19.1677   17.5064 N   0  0  0  0  0  0  0  0  0  0  0  0
    9.5382  -19.1255   18.7425 C   0  0  1  0  0  0  0  0  0  0  0  0
    9.5507  -20.4870   19.3584 C   0  0  0  0  0  0  0  0  0  0  0  0
    8.7463  -21.4907   18.5297 C   0  0  0  0  0  0  0  0  0  0  0  0
    7.2798  -21.2055   18.6150 C   0  0  0  0  0  0  0  0  0  0  0  0
    6.4448  -22.2181   17.8639 C   0  0  0  0  0  0  0  0  0  0  0  0
    5.0448  -21.8699   18.0228 N   0  0  0  0  0  0  0  0  0  0  0  0
   10.0655  -18.0763   19.6635 C   0  0  0  0  0  0  0  0  0  0  0  0
   11.3046  -18.0579   19.8387 O   0  0  0  0  0  0  0  0  0  0  0  0
    9.2216  -17.1443   20.3119 N   0  0  0  0  0  0  0  0  0  0  0  0
    9.6142  -16.1284   21.2471 C   0  0  1  0  0  0  0  0  0  0  0  0
    8.6852  -14.9705   21.3191 C   0  0  0  0  0  0  0  0  0  0  0  0
    8.5230  -14.3528   19.9368 C   0  0  0  0  0  0  0  0  0  0  0  0
    7.4769  -13.2434   19.9728 C   0  0  0  0  0  0  0  0  0  0  0  0
    7.2906  -12.6342   18.6091 C   0  0  0  0  0  0  0  0  0  0  0  0
    6.2626  -11.6151   18.6064 N   0  0  0  0  0  0  0  0  0  0  0  0
   10.0489  -16.6506   22.5764 C   0  0  0  0  0  0  0  0  0  0  0  0
    9.2473  -16.8688   23.5103 O   0  0  0  0  0  0  0  0  0  0  0  0
   12.4092  -19.7658   23.1441 C   0  0  0  0  0  0  0  0  0  0  0  0
   12.8733  -18.5970   23.9490 C   0  0  1  0  0  0  0  0  0  0  0  0
   13.9957  -17.9888   23.3617 O   0  0  0  0  0  0  0  0  0  0  0  0
   11.8390  -17.5145   24.1176 C   0  0  2  0  0  0  0  0  0  0  0  0
   11.4161  -16.9340   22.8611 N   0  0  0  0  0  0  0  0  0  0  0  0
   12.2660  -16.4793   25.0872 C   0  0  0  0  0  0  0  0  0  0  0  0
   12.5434  -16.7565   26.4008 O   0  0  0  0  0  0  0  0  0  0  0  0
   12.3750  -15.2997   24.6755 O   0  0  0  0  0  0  0  0  0  0  0  0
  2  1  1  6
  3  4  1  0
  3  2  1  0
  5  4  1  0
  5  6  1  0
  7  6  1  0
  8  2  1  0
  8  9  2  0
 10  8  1  0
 11 10  1  0
 11 12  1  1
 13 12  1  0
 13 14  1  0
 15 14  1  0
 16 15  1  0
 17 11  1  0
 18 17  2  0
 20 19  1  6
 20 22  1  0
 21 20  1  0
 22 24  1  0
 22 23  1  6
 23 17  1  0
 24 25  1  0
 26 24  2  0
M  END
$$$$
