KKT.pdb
     RDKit          3D

 26 25  0  0  1  0  0  0  0  0999 V2000
    5.9585  -15.4051   20.9748 N   0  0  0  0  0  0  0  0  0  0  0  0
    7.2705  -15.0467   21.4741 C   0  0  1  0  0  0  0  0  0  0  0  0
    7.4260  -13.5627   21.3911 C   0  0  0  0  0  0  0  0  0  0  0  0
    7.4583  -13.0770   19.9406 C   0  0  0  0  0  0  0  0  0  0  0  0
    8.4789  -13.8281   19.1447 C   0  0  0  0  0  0  0  0  0  0  0  0
    8.5463  -13.3713   17.7047 C   0  0  0  0  0  0  0  0  0  0  0  0
    9.4371  -14.2593   16.9806 N   0  0  0  0  0  0  0  0  0  0  0  0
    7.4852  -15.5679   22.8558 C   0  0  0  0  0  0  0  0  0  0  0  0
    6.6620  -15.2030   23.7251 O   0  0  0  0  0  0  0  0  0  0  0  0
    8.5585  -16.4300   23.1818 N   0  0  0  0  0  0  0  0  0  0  0  0
    8.7965  -17.0746   24.4422 C   0  0  1  0  0  0  0  0  0  0  0  0
    9.1341  -18.5183   24.3374 C   0  0  0  0  0  0  0  0  0  0  0  0
    9.3044  -19.1102   25.7299 C   0  0  0  0  0  0  0  0  0  0  0  0
    9.7367  -20.5699   25.6348 C   0  0  0  0  0  0  0  0  0  0  0  0
    9.8298  -21.1943   27.0011 C   0  0  0  0  0  0  0  0  0  0  0  0
   10.3932  -22.5268   26.9509 N   0  0  0  0  0  0  0  0  0  0  0  0
    9.6755  -16.3041   25.3710 C   0  0  0  0  0  0  0  0  0  0  0  0
   10.8114  -15.8983   25.0435 O   0  0  0  0  0  0  0  0  0  0  0  0
    9.1303  -12.9249   27.1572 C   0  0  0  0  0  0  0  0  0  0  0  0
    9.3919  -14.0017   28.1580 C   0  0  1  0  0  0  0  0  0  0  0  0
    8.1949  -14.4683   28.7274 O   0  0  0  0  0  0  0  0  0  0  0  0
   10.0970  -15.2085   27.5953 C   0  0  2  0  0  0  0  0  0  0  0  0
    9.2667  -15.9829   26.6978 N   0  0  0  0  0  0  0  0  0  0  0  0
   10.6969  -16.0506   28.6561 C   0  0  0  0  0  0  0  0  0  0  0  0
   11.5882  -15.5665   29.5782 O   0  0  0  0  0  0  0  0  0  0  0  0
   10.3663  -17.2595   28.7019 O   0  0  0  0  0  0  0  0  0  0  0  0
  2  1  1  1
  3  4  1  0
  3  2  1  0
  5  4  1  0
  5  6  1  0
  7  6  1  0
  8  2  1  0
  8  9  2  0
 10  8  1  0
 11 10  1  0
 11 12  1  6
 13 12  1  0
 13 14  1  0
 15 14  1  0
 16 15  1  0
 17 11  1  0
 18 17  2  0
 20 19  1  6
 20 22  1  0
 21 20  1  0
 22 24  1  0
 22 23  1  1
 23 17  1  0
 24 25  1  0
 26 24  2  0
M  END
$$$$
