KKT.pdb
     RDKit          3D

 26 25  0  0  1  0  0  0  0  0999 V2000
    7.6907  -15.8704   19.4134 N   0  0  0  0  0  0  0  0  0  0  0  0
    8.5839  -14.7365   19.5382 C   0  0  1  0  0  0  0  0  0  0  0  0
    7.9947  -13.5786   18.7997 C   0  0  0  0  0  0  0  0  0  0  0  0
    8.7258  -13.3166   17.4814 C   0  0  0  0  0  0  0  0  0  0  0  0
    7.9124  -13.7803   16.3141 C   0  0  0  0  0  0  0  0  0  0  0  0
    8.6376  -13.6170   14.9972 C   0  0  0  0  0  0  0  0  0  0  0  0
    7.8091  -14.1722   13.9429 N   0  0  0  0  0  0  0  0  0  0  0  0
    8.8612  -14.4203   20.9700 C   0  0  0  0  0  0  0  0  0  0  0  0
    9.9297  -13.8151   21.2119 O   0  0  0  0  0  0  0  0  0  0  0  0
    7.9727  -14.7793   22.0107 N   0  0  0  0  0  0  0  0  0  0  0  0
    8.1304  -14.5107   23.4120 C   0  0  1  0  0  0  0  0  0  0  0  0
    7.0676  -13.6497   23.9937 C   0  0  0  0  0  0  0  0  0  0  0  0
    7.3675  -13.3818   25.4623 C   0  0  0  0  0  0  0  0  0  0  0  0
    6.3224  -12.4403   26.0522 C   0  0  0  0  0  0  0  0  0  0  0  0
    6.6283  -12.1309   27.4931 C   0  0  0  0  0  0  0  0  0  0  0  0
    5.6532  -11.2320   28.0733 N   0  0  0  0  0  0  0  0  0  0  0  0
    8.4676  -15.7103   24.2344 C   0  0  0  0  0  0  0  0  0  0  0  0
    7.6106  -16.5497   24.5857 O   0  0  0  0  0  0  0  0  0  0  0  0
   10.7216  -18.4567   23.2126 C   0  0  0  0  0  0  0  0  0  0  0  0
   11.1884  -18.0032   24.5564 C   0  0  1  0  0  0  0  0  0  0  0  0
   12.3308  -17.1917   24.4507 O   0  0  0  0  0  0  0  0  0  0  0  0
   10.1678  -17.2069   25.3275 C   0  0  2  0  0  0  0  0  0  0  0  0
    9.7988  -15.9712   24.6706 N   0  0  0  0  0  0  0  0  0  0  0  0
   10.5789  -16.9830   26.7329 C   0  0  0  0  0  0  0  0  0  0  0  0
   10.8483  -18.0068   27.6036 O   0  0  0  0  0  0  0  0  0  0  0  0
   10.6815  -15.7985   27.1319 O   0  0  0  0  0  0  0  0  0  0  0  0
  2  1  1  1
  3  4  1  0
  3  2  1  0
  5  4  1  0
  5  6  1  0
  7  6  1  0
  8  2  1  0
  8  9  2  0
 10  8  1  0
 11 10  1  0
 11 12  1  1
 13 12  1  0
 13 14  1  0
 15 14  1  0
 16 15  1  0
 17 11  1  0
 18 17  2  0
 20 19  1  6
 20 22  1  0
 21 20  1  0
 22 24  1  0
 22 23  1  6
 23 17  1  0
 24 25  1  0
 26 24  2  0
M  END
$$$$
