KKT.pdb
     RDKit          3D

 26 25  0  0  1  0  0  0  0  0999 V2000
    8.2761  -16.5013   19.9783 N   0  0  0  0  0  0  0  0  0  0  0  0
    9.4513  -16.9856   20.6737 C   0  0  1  0  0  0  0  0  0  0  0  0
   10.6281  -16.8774   19.7591 C   0  0  0  0  0  0  0  0  0  0  0  0
   10.4021  -17.6414   18.4528 C   0  0  0  0  0  0  0  0  0  0  0  0
   11.6042  -17.5570   17.5657 C   0  0  0  0  0  0  0  0  0  0  0  0
   11.4531  -18.3720   16.3009 C   0  0  0  0  0  0  0  0  0  0  0  0
   12.5979  -18.1140   15.4469 N   0  0  0  0  0  0  0  0  0  0  0  0
    9.6579  -16.2578   21.9601 C   0  0  0  0  0  0  0  0  0  0  0  0
   10.8233  -16.2493   22.4164 O   0  0  0  0  0  0  0  0  0  0  0  0
    8.6018  -15.6069   22.6401 N   0  0  0  0  0  0  0  0  0  0  0  0
    8.6330  -15.0692   23.9707 C   0  0  1  0  0  0  0  0  0  0  0  0
    7.5956  -14.0392   24.2393 C   0  0  0  0  0  0  0  0  0  0  0  0
    7.7772  -13.4784   25.6432 C   0  0  0  0  0  0  0  0  0  0  0  0
    6.7710  -12.3614   25.9007 C   0  0  0  0  0  0  0  0  0  0  0  0
    6.9208  -11.8120   27.2940 C   0  0  0  0  0  0  0  0  0  0  0  0
    5.9989  -10.7259   27.5505 N   0  0  0  0  0  0  0  0  0  0  0  0
    8.7724  -16.0955   25.0460 C   0  0  0  0  0  0  0  0  0  0  0  0
    7.7893  -16.6713   25.5602 O   0  0  0  0  0  0  0  0  0  0  0  0
   10.5290  -19.3892   24.8444 C   0  0  0  0  0  0  0  0  0  0  0  0
   11.0714  -18.6711   26.0359 C   0  0  1  0  0  0  0  0  0  0  0  0
   12.3314  -18.1123   25.7627 O   0  0  0  0  0  0  0  0  0  0  0  0
   10.2001  -17.5436   26.5258 C   0  0  2  0  0  0  0  0  0  0  0  0
   10.0463  -16.4827   25.5535 N   0  0  0  0  0  0  0  0  0  0  0  0
   10.6427  -17.0261   27.8413 C   0  0  0  0  0  0  0  0  0  0  0  0
   10.7114  -17.8073   28.9656 O   0  0  0  0  0  0  0  0  0  0  0  0
   10.9664  -15.8169   27.9167 O   0  0  0  0  0  0  0  0  0  0  0  0
  2  1  1  6
  3  4  1  0
  3  2  1  0
  5  4  1  0
  5  6  1  0
  7  6  1  0
  8  2  1  0
  8  9  2  0
 10  8  1  0
 11 10  1  0
 11 12  1  1
 13 12  1  0
 13 14  1  0
 15 14  1  0
 16 15  1  0
 17 11  1  0
 18 17  2  0
 20 19  1  6
 20 22  1  0
 21 20  1  0
 22 24  1  0
 22 23  1  6
 23 17  1  0
 24 25  1  0
 26 24  2  0
M  END
$$$$
