KKT.pdb
     RDKit          3D

 26 25  0  0  1  0  0  0  0  0999 V2000
    6.7105  -16.0708   20.4281 N   0  0  0  0  0  0  0  0  0  0  0  0
    7.7428  -15.2724   21.0573 C   0  0  1  0  0  0  0  0  0  0  0  0
    7.3057  -13.8434   21.0648 C   0  0  0  0  0  0  0  0  0  0  0  0
    8.0838  -13.0079   20.0462 C   0  0  0  0  0  0  0  0  0  0  0  0
    7.9132  -13.5514   18.6625 C   0  0  0  0  0  0  0  0  0  0  0  0
    8.7297  -12.7986   17.6361 C   0  0  0  0  0  0  0  0  0  0  0  0
    8.6357  -13.4990   16.3685 N   0  0  0  0  0  0  0  0  0  0  0  0
    8.0627  -15.7798   22.4237 C   0  0  0  0  0  0  0  0  0  0  0  0
    7.1392  -15.7343   23.2673 O   0  0  0  0  0  0  0  0  0  0  0  0
    9.3384  -16.2886   22.7632 N   0  0  0  0  0  0  0  0  0  0  0  0
    9.7458  -16.8221   24.0321 C   0  0  1  0  0  0  0  0  0  0  0  0
   10.6854  -17.9701   23.9403 C   0  0  0  0  0  0  0  0  0  0  0  0
   10.0050  -19.1385   23.2400 C   0  0  0  0  0  0  0  0  0  0  0  0
   10.9723  -20.3101   23.1050 C   0  0  0  0  0  0  0  0  0  0  0  0
   10.3406  -21.4454   22.3450 C   0  0  0  0  0  0  0  0  0  0  0  0
   11.2293  -22.5823   22.2312 N   0  0  0  0  0  0  0  0  0  0  0  0
   10.1344  -15.7893   25.0377 C   0  0  0  0  0  0  0  0  0  0  0  0
   10.9991  -14.9163   24.8083 O   0  0  0  0  0  0  0  0  0  0  0  0
    8.5005  -12.8166   26.4035 C   0  0  0  0  0  0  0  0  0  0  0  0
    8.7676  -13.7378   27.5478 C   0  0  1  0  0  0  0  0  0  0  0  0
    7.6287  -14.4970   27.8660 O   0  0  0  0  0  0  0  0  0  0  0  0
    9.8821  -14.7212   27.3007 C   0  0  2  0  0  0  0  0  0  0  0  0
    9.5364  -15.7376   26.3300 N   0  0  0  0  0  0  0  0  0  0  0  0
   10.3957  -15.3118   28.5583 C   0  0  0  0  0  0  0  0  0  0  0  0
   10.8935  -14.5567   29.5884 O   0  0  0  0  0  0  0  0  0  0  0  0
   10.3684  -16.5603   28.6736 O   0  0  0  0  0  0  0  0  0  0  0  0
  2  1  1  1
  3  4  1  0
  3  2  1  0
  5  4  1  0
  5  6  1  0
  7  6  1  0
  8  2  1  0
  8  9  2  0
 10  8  1  0
 11 10  1  0
 11 12  1  6
 13 12  1  0
 13 14  1  0
 15 14  1  0
 16 15  1  0
 17 11  1  0
 18 17  2  0
 20 19  1  6
 20 22  1  0
 21 20  1  0
 22 24  1  0
 22 23  1  6
 23 17  1  0
 24 25  1  0
 26 24  2  0
M  END
$$$$
