CNY.pdb
     RDKit          3D

 27 27  0  0  1  0  0  0  0  0999 V2000
    7.0348  -14.8364   18.9481 N   0  0  0  0  0  0  0  0  0  0  0  0
    8.1339  -14.4634   19.8118 C   0  0  1  0  0  0  0  0  0  0  0  0
    7.7646  -13.1298   20.4642 C   0  0  0  0  0  0  0  0  0  0  0  0
    7.7370  -11.8488   19.2018 S   0  0  0  0  0  0  0  0  0  0  0  0
    8.3977  -15.4825   20.8581 C   0  0  0  0  0  0  0  0  0  0  0  0
    7.4257  -16.2097   21.1993 O   0  0  0  0  0  0  0  0  0  0  0  0
   10.7787  -19.7194   22.7815 N   0  0  0  0  0  0  0  0  0  0  0  0
   11.5911  -18.5553   22.7918 C   0  0  0  0  0  0  0  0  0  0  0  0
   12.5772  -18.5396   23.5678 O   0  0  0  0  0  0  0  0  0  0  0  0
   11.2280  -17.4426   21.8951 C   0  0  0  0  0  0  0  0  0  0  0  0
    9.9718  -16.7120   22.3255 C   0  0  2  0  0  0  0  0  0  0  0  0
    9.6628  -15.6206   21.4297 N   0  0  0  0  0  0  0  0  0  0  0  0
    9.9996  -16.2768   23.7364 C   0  0  0  0  0  0  0  0  0  0  0  0
   10.7477  -15.3354   24.1012 O   0  0  0  0  0  0  0  0  0  0  0  0
    6.5616  -10.8350   26.1360 O   0  0  0  0  0  0  0  0  0  0  0  0
    6.8916  -12.1858   26.2787 C   0  0  0  0  0  0  0  0  0  0  0  0
    8.1178  -12.5381   26.7914 C   0  0  0  0  0  0  0  0  0  0  0  0
    8.4941  -13.8523   26.9532 C   0  0  0  0  0  0  0  0  0  0  0  0
    7.5874  -14.8321   26.5785 C   0  0  0  0  0  0  0  0  0  0  0  0
    7.9888  -16.2685   26.7567 C   0  0  0  0  0  0  0  0  0  0  0  0
    9.3672  -16.5306   26.1512 C   0  0  2  0  0  0  0  0  0  0  0  0
    9.2094  -16.8693   24.7532 N   0  0  0  0  0  0  0  0  0  0  0  0
   10.0016  -17.6026   26.9271 C   0  0  0  0  0  0  0  0  0  0  0  0
   10.3766  -17.4784   28.2561 O   0  0  0  0  0  0  0  0  0  0  0  0
    6.3599  -14.4711   26.0653 C   0  0  0  0  0  0  0  0  0  0  0  0
    5.9841  -13.1410   25.9037 C   0  0  0  0  0  0  0  0  0  0  0  0
   10.2168  -18.6996   26.3483 O   0  0  0  0  0  0  0  0  0  0  0  0
  2  1  1  6
  2  5  1  0
  3  2  1  0
  3  4  1  0
  5  6  2  0
  7  8  1  0
  8  9  2  0
 10  8  1  0
 11 10  1  6
 11 13  1  0
 12 11  1  0
 12  5  1  0
 13 14  2  0
 15 16  1  0
 16 26  2  0
 17 18  2  0
 17 16  1  0
 18 19  1  0
 19 20  1  0
 19 25  2  0
 21 20  1  1
 21 23  1  0
 22 13  1  0
 22 21  1  0
 23 27  2  0
 23 24  1  0
 26 25  1  0
M  END
$$$$
