CNY.pdb
     RDKit          3D

 27 27  0  0  1  0  0  0  0  0999 V2000
    7.1915  -15.3964   17.7113 N   0  0  0  0  0  0  0  0  0  0  0  0
    8.1234  -14.8991   18.7001 C   0  0  1  0  0  0  0  0  0  0  0  0
    7.7119  -13.4626   19.0280 C   0  0  0  0  0  0  0  0  0  0  0  0
    8.9291  -12.7451   20.1411 S   0  0  0  0  0  0  0  0  0  0  0  0
    8.1227  -15.7203   19.9364 C   0  0  0  0  0  0  0  0  0  0  0  0
    6.9962  -16.0347   20.4077 O   0  0  0  0  0  0  0  0  0  0  0  0
    8.6491  -19.8252   23.1363 N   0  0  0  0  0  0  0  0  0  0  0  0
    9.8244  -19.1399   22.7310 C   0  0  0  0  0  0  0  0  0  0  0  0
   10.8500  -19.2708   23.4421 O   0  0  0  0  0  0  0  0  0  0  0  0
    9.7676  -18.3210   21.5061 C   0  0  0  0  0  0  0  0  0  0  0  0
    9.3229  -16.8944   21.7595 C   0  0  2  0  0  0  0  0  0  0  0  0
    9.3157  -16.1192   20.5396 N   0  0  0  0  0  0  0  0  0  0  0  0
   10.0823  -16.2246   22.8344 C   0  0  0  0  0  0  0  0  0  0  0  0
   11.2860  -15.9063   22.6651 O   0  0  0  0  0  0  0  0  0  0  0  0
    4.8221  -12.6205   26.5973 O   0  0  0  0  0  0  0  0  0  0  0  0
    6.1391  -12.9685   26.2840 C   0  0  0  0  0  0  0  0  0  0  0  0
    7.1678  -12.5417   27.0902 C   0  0  0  0  0  0  0  0  0  0  0  0
    8.4824  -12.8550   26.8285 C   0  0  0  0  0  0  0  0  0  0  0  0
    8.7489  -13.6277   25.7084 C   0  0  0  0  0  0  0  0  0  0  0  0
   10.1805  -13.9780   25.4188 C   0  0  0  0  0  0  0  0  0  0  0  0
   10.3455  -15.4838   25.2172 C   0  0  2  0  0  0  0  0  0  0  0  0
    9.5280  -15.9002   24.0981 N   0  0  0  0  0  0  0  0  0  0  0  0
    9.9718  -16.1479   26.4714 C   0  0  0  0  0  0  0  0  0  0  0  0
    8.9473  -17.0757   26.5806 O   0  0  0  0  0  0  0  0  0  0  0  0
    7.7122  -14.0520   24.9048 C   0  0  0  0  0  0  0  0  0  0  0  0
    6.3849  -13.7326   25.1738 C   0  0  0  0  0  0  0  0  0  0  0  0
   10.6225  -15.8555   27.5086 O   0  0  0  0  0  0  0  0  0  0  0  0
  2  1  1  6
  2  5  1  0
  3  2  1  0
  3  4  1  0
  5  6  2  0
  7  8  1  0
  8  9  2  0
 10  8  1  0
 11 10  1  6
 11 13  1  0
 12 11  1  0
 12  5  1  0
 13 14  2  0
 15 16  1  0
 16 26  2  0
 17 18  2  0
 17 16  1  0
 18 19  1  0
 19 20  1  0
 19 25  2  0
 21 20  1  1
 21 23  1  0
 22 13  1  0
 22 21  1  0
 23 27  2  0
 23 24  1  0
 26 25  1  0
M  END
$$$$
