CNY.pdb
     RDKit          3D

 27 27  0  0  1  0  0  0  0  0999 V2000
    7.9322  -14.8639   16.4060 N   0  0  0  0  0  0  0  0  0  0  0  0
    9.1154  -14.7487   17.2307 C   0  0  1  0  0  0  0  0  0  0  0  0
    9.1979  -13.2962   17.7037 C   0  0  0  0  0  0  0  0  0  0  0  0
    7.8533  -12.9788   18.8556 S   0  0  0  0  0  0  0  0  0  0  0  0
    9.0757  -15.6604   18.4012 C   0  0  0  0  0  0  0  0  0  0  0  0
    7.9638  -16.1909   18.6694 O   0  0  0  0  0  0  0  0  0  0  0  0
    9.8746  -19.6107   19.6181 N   0  0  0  0  0  0  0  0  0  0  0  0
   11.1261  -18.9511   19.5004 C   0  0  0  0  0  0  0  0  0  0  0  0
   11.9681  -19.4359   18.7062 O   0  0  0  0  0  0  0  0  0  0  0  0
   11.3581  -17.7437   20.3142 C   0  0  0  0  0  0  0  0  0  0  0  0
   10.1841  -16.7850   20.3116 C   0  0  2  0  0  0  0  0  0  0  0  0
   10.2187  -15.9111   19.1608 N   0  0  0  0  0  0  0  0  0  0  0  0
   10.0388  -16.0309   21.5729 C   0  0  0  0  0  0  0  0  0  0  0  0
   11.0344  -15.4842   22.1102 O   0  0  0  0  0  0  0  0  0  0  0  0
    6.5501  -11.3314   28.1486 O   0  0  0  0  0  0  0  0  0  0  0  0
    6.7332  -12.1452   27.0270 C   0  0  0  0  0  0  0  0  0  0  0  0
    6.0906  -13.3584   26.9520 C   0  0  0  0  0  0  0  0  0  0  0  0
    6.2354  -14.1987   25.8714 C   0  0  0  0  0  0  0  0  0  0  0  0
    7.0625  -13.7828   24.8391 C   0  0  0  0  0  0  0  0  0  0  0  0
    7.2217  -14.6920   23.6542 C   0  0  0  0  0  0  0  0  0  0  0  0
    8.6837  -15.0947   23.4659 C   0  0  2  0  0  0  0  0  0  0  0  0
    8.8041  -15.8718   22.2511 N   0  0  0  0  0  0  0  0  0  0  0  0
    9.1015  -15.8389   24.6597 C   0  0  0  0  0  0  0  0  0  0  0  0
    8.8199  -17.1795   24.8739 O   0  0  0  0  0  0  0  0  0  0  0  0
    7.7034  -12.5650   24.9214 C   0  0  0  0  0  0  0  0  0  0  0  0
    7.5537  -11.7191   26.0161 C   0  0  0  0  0  0  0  0  0  0  0  0
    9.7545  -15.2202   25.5402 O   0  0  0  0  0  0  0  0  0  0  0  0
  2  1  1  1
  2  5  1  0
  3  2  1  0
  3  4  1  0
  5  6  2  0
  7  8  1  0
  8  9  2  0
 10  8  1  0
 11 10  1  1
 11 13  1  0
 12 11  1  0
 12  5  1  0
 13 14  2  0
 15 16  1  0
 16 26  2  0
 17 18  2  0
 17 16  1  0
 18 19  1  0
 19 20  1  0
 19 25  2  0
 21 20  1  1
 21 23  1  0
 22 13  1  0
 22 21  1  0
 23 27  2  0
 23 24  1  0
 26 25  1  0
M  END
$$$$
