CNY.pdb
     RDKit          3D

 27 27  0  0  1  0  0  0  0  0999 V2000
    7.2991  -14.4592   16.9327 N   0  0  0  0  0  0  0  0  0  0  0  0
    8.0803  -14.0694   18.0864 C   0  0  1  0  0  0  0  0  0  0  0  0
    7.2641  -13.0285   18.8551 C   0  0  0  0  0  0  0  0  0  0  0  0
    8.0806  -12.6847   20.4206 S   0  0  0  0  0  0  0  0  0  0  0  0
    8.3918  -15.2208   18.9696 C   0  0  0  0  0  0  0  0  0  0  0  0
    7.4869  -16.0873   19.1121 O   0  0  0  0  0  0  0  0  0  0  0  0
   10.1848  -19.6467   20.6539 N   0  0  0  0  0  0  0  0  0  0  0  0
   11.1618  -18.6176   20.6144 C   0  0  0  0  0  0  0  0  0  0  0  0
   12.2128  -18.7858   21.2792 O   0  0  0  0  0  0  0  0  0  0  0  0
   10.8829  -17.4211   19.7991 C   0  0  0  0  0  0  0  0  0  0  0  0
    9.9373  -16.4456   20.4710 C   0  0  2  0  0  0  0  0  0  0  0  0
    9.6284  -15.3294   19.6062 N   0  0  0  0  0  0  0  0  0  0  0  0
   10.3992  -16.0016   21.8014 C   0  0  0  0  0  0  0  0  0  0  0  0
   11.5216  -15.4539   21.9394 O   0  0  0  0  0  0  0  0  0  0  0  0
   10.8773  -14.4245   30.4570 O   0  0  0  0  0  0  0  0  0  0  0  0
   10.4209  -14.7725   29.1825 C   0  0  0  0  0  0  0  0  0  0  0  0
    9.8711  -13.8105   28.3684 C   0  0  0  0  0  0  0  0  0  0  0  0
    9.4061  -14.0980   27.1051 C   0  0  0  0  0  0  0  0  0  0  0  0
    9.5078  -15.4089   26.6649 C   0  0  0  0  0  0  0  0  0  0  0  0
    9.0071  -15.7295   25.2856 C   0  0  0  0  0  0  0  0  0  0  0  0
   10.1651  -15.8367   24.2942 C   0  0  2  0  0  0  0  0  0  0  0  0
    9.6352  -16.1547   22.9857 N   0  0  0  0  0  0  0  0  0  0  0  0
   11.0915  -16.8586   24.7953 C   0  0  0  0  0  0  0  0  0  0  0  0
   12.3084  -16.5728   25.3951 O   0  0  0  0  0  0  0  0  0  0  0  0
   10.0603  -16.3679   27.4868 C   0  0  0  0  0  0  0  0  0  0  0  0
   10.5290  -16.0722   28.7632 C   0  0  0  0  0  0  0  0  0  0  0  0
   10.7585  -18.0662   24.6715 O   0  0  0  0  0  0  0  0  0  0  0  0
  2  1  1  6
  2  5  1  0
  3  2  1  0
  3  4  1  0
  5  6  2  0
  7  8  1  0
  8  9  2  0
 10  8  1  0
 11 10  1  6
 11 13  1  0
 12 11  1  0
 12  5  1  0
 13 14  2  0
 15 16  1  0
 16 26  2  0
 17 18  2  0
 17 16  1  0
 18 19  1  0
 19 20  1  0
 19 25  2  0
 21 20  1  1
 21 23  1  0
 22 13  1  0
 22 21  1  0
 23 27  2  0
 23 24  1  0
 26 25  1  0
M  END
$$$$
