CNY.pdb
     RDKit          3D

 27 27  0  0  1  0  0  0  0  0999 V2000
    7.7545  -18.5449   15.9267 N   0  0  0  0  0  0  0  0  0  0  0  0
    8.7027  -17.7093   16.6310 C   0  0  1  0  0  0  0  0  0  0  0  0
    8.1991  -16.2683   16.5295 C   0  0  0  0  0  0  0  0  0  0  0  0
    8.3093  -15.7294   14.8169 S   0  0  0  0  0  0  0  0  0  0  0  0
    8.8429  -18.0969   18.0569 C   0  0  0  0  0  0  0  0  0  0  0  0
    7.8059  -18.5243   18.6330 O   0  0  0  0  0  0  0  0  0  0  0  0
   10.7815  -20.9659   22.1900 N   0  0  0  0  0  0  0  0  0  0  0  0
   11.5070  -19.8765   21.6404 C   0  0  0  0  0  0  0  0  0  0  0  0
   12.3334  -19.2928   22.3827 O   0  0  0  0  0  0  0  0  0  0  0  0
   11.2459  -19.5002   20.2388 C   0  0  0  0  0  0  0  0  0  0  0  0
   10.2186  -18.3949   20.0969 C   0  0  2  0  0  0  0  0  0  0  0  0
   10.0667  -17.9893   18.7179 N   0  0  0  0  0  0  0  0  0  0  0  0
   10.4682  -17.2430   20.9865 C   0  0  0  0  0  0  0  0  0  0  0  0
   11.4402  -16.4739   20.7803 O   0  0  0  0  0  0  0  0  0  0  0  0
    7.2573  -12.4458   18.3680 O   0  0  0  0  0  0  0  0  0  0  0  0
    7.6407  -13.0539   19.5668 C   0  0  0  0  0  0  0  0  0  0  0  0
    6.9402  -14.1402   20.0353 C   0  0  0  0  0  0  0  0  0  0  0  0
    7.2743  -14.7767   21.2092 C   0  0  0  0  0  0  0  0  0  0  0  0
    8.3571  -14.2849   21.9222 C   0  0  0  0  0  0  0  0  0  0  0  0
    8.7309  -14.9772   23.2017 C   0  0  0  0  0  0  0  0  0  0  0  0
    9.9737  -15.8457   23.0111 C   0  0  2  0  0  0  0  0  0  0  0  0
    9.6558  -16.9281   22.1047 N   0  0  0  0  0  0  0  0  0  0  0  0
   10.3976  -16.3190   24.3340 C   0  0  0  0  0  0  0  0  0  0  0  0
   11.0558  -15.5292   25.2643 O   0  0  0  0  0  0  0  0  0  0  0  0
    9.0546  -13.1953   21.4460 C   0  0  0  0  0  0  0  0  0  0  0  0
    8.7128  -12.5554   20.2586 C   0  0  0  0  0  0  0  0  0  0  0  0
   10.1471  -17.5142   24.6394 O   0  0  0  0  0  0  0  0  0  0  0  0
  2  1  1  1
  2  5  1  0
  3  2  1  0
  3  4  1  0
  5  6  2  0
  7  8  1  0
  8  9  2  0
 10  8  1  0
 11 10  1  6
 11 13  1  0
 12 11  1  0
 12  5  1  0
 13 14  2  0
 15 16  1  0
 16 26  2  0
 17 18  2  0
 17 16  1  0
 18 19  1  0
 19 20  1  0
 19 25  2  0
 21 20  1  1
 21 23  1  0
 22 13  1  0
 22 21  1  0
 23 27  2  0
 23 24  1  0
 26 25  1  0
M  END
$$$$
