CNY.pdb
     RDKit          3D

 27 27  0  0  1  0  0  0  0  0999 V2000
    7.1265  -14.6608   18.6868 N   0  0  0  0  0  0  0  0  0  0  0  0
    8.2181  -14.3773   19.5930 C   0  0  1  0  0  0  0  0  0  0  0  0
    7.8730  -13.0793   20.3255 C   0  0  0  0  0  0  0  0  0  0  0  0
    8.2145  -11.6864   19.2398 S   0  0  0  0  0  0  0  0  0  0  0  0
    8.4326  -15.4701   20.5742 C   0  0  0  0  0  0  0  0  0  0  0  0
    7.4007  -16.0331   21.0305 O   0  0  0  0  0  0  0  0  0  0  0  0
    9.6793  -19.4105   20.4085 N   0  0  0  0  0  0  0  0  0  0  0  0
   10.8777  -18.6496   20.4141 C   0  0  0  0  0  0  0  0  0  0  0  0
   11.6574  -18.7827   19.4399 O   0  0  0  0  0  0  0  0  0  0  0  0
   11.1310  -17.7548   21.5583 C   0  0  0  0  0  0  0  0  0  0  0  0
    9.9334  -16.9032   21.9294 C   0  0  2  0  0  0  0  0  0  0  0  0
    9.7172  -15.8479   20.9657 N   0  0  0  0  0  0  0  0  0  0  0  0
    9.9859  -16.3860   23.3115 C   0  0  0  0  0  0  0  0  0  0  0  0
   10.9367  -15.6546   23.6856 O   0  0  0  0  0  0  0  0  0  0  0  0
    6.4326  -10.4945   26.3198 O   0  0  0  0  0  0  0  0  0  0  0  0
    6.7807  -11.8481   26.3032 C   0  0  0  0  0  0  0  0  0  0  0  0
    5.7953  -12.8055   26.2500 C   0  0  0  0  0  0  0  0  0  0  0  0
    6.0819  -14.1517   26.2316 C   0  0  0  0  0  0  0  0  0  0  0  0
    7.4165  -14.5261   26.2689 C   0  0  0  0  0  0  0  0  0  0  0  0
    7.7374  -15.9933   26.2440 C   0  0  0  0  0  0  0  0  0  0  0  0
    9.1304  -16.2390   25.6658 C   0  0  2  0  0  0  0  0  0  0  0  0
    8.9989  -16.6666   24.2895 N   0  0  0  0  0  0  0  0  0  0  0  0
    9.7965  -17.2381   26.5095 C   0  0  0  0  0  0  0  0  0  0  0  0
   10.2670  -16.9815   27.7882 O   0  0  0  0  0  0  0  0  0  0  0  0
    8.3989  -13.5605   26.3220 C   0  0  0  0  0  0  0  0  0  0  0  0
    8.1040  -12.2007   26.3404 C   0  0  0  0  0  0  0  0  0  0  0  0
    9.9484  -18.3966   26.0412 O   0  0  0  0  0  0  0  0  0  0  0  0
  2  1  1  6
  2  5  1  0
  3  2  1  0
  3  4  1  0
  5  6  2  0
  7  8  1  0
  8  9  2  0
 10  8  1  0
 11 10  1  6
 11 13  1  0
 12 11  1  0
 12  5  1  0
 13 14  2  0
 15 16  1  0
 16 26  2  0
 17 18  2  0
 17 16  1  0
 18 19  1  0
 19 20  1  0
 19 25  2  0
 21 20  1  1
 21 23  1  0
 22 13  1  0
 22 21  1  0
 23 27  2  0
 23 24  1  0
 26 25  1  0
M  END
$$$$
