CNY.pdb
     RDKit          3D

 27 27  0  0  1  0  0  0  0  0999 V2000
    5.6665  -19.8071   21.3781 N   0  0  0  0  0  0  0  0  0  0  0  0
    5.3468  -18.4346   21.7058 C   0  0  1  0  0  0  0  0  0  0  0  0
    4.9879  -18.3959   23.1924 C   0  0  0  0  0  0  0  0  0  0  0  0
    6.4439  -18.8254   24.1572 S   0  0  0  0  0  0  0  0  0  0  0  0
    6.4787  -17.5136   21.4346 C   0  0  0  0  0  0  0  0  0  0  0  0
    7.5791  -18.0441   21.1220 O   0  0  0  0  0  0  0  0  0  0  0  0
    8.0051  -11.7100   20.4825 N   0  0  0  0  0  0  0  0  0  0  0  0
    7.9930  -13.0773   20.1009 C   0  0  0  0  0  0  0  0  0  0  0  0
    8.9093  -13.4792   19.3435 O   0  0  0  0  0  0  0  0  0  0  0  0
    6.9104  -13.9360   20.6153 C   0  0  0  0  0  0  0  0  0  0  0  0
    7.4116  -15.2263   21.2329 C   0  0  2  0  0  0  0  0  0  0  0  0
    6.3220  -16.1302   21.5240 N   0  0  0  0  0  0  0  0  0  0  0  0
    8.2827  -15.0161   22.4067 C   0  0  0  0  0  0  0  0  0  0  0  0
    9.0279  -14.0070   22.4783 O   0  0  0  0  0  0  0  0  0  0  0  0
    6.1910  -10.5335   26.6400 O   0  0  0  0  0  0  0  0  0  0  0  0
    6.7290  -11.8101   26.4541 C   0  0  0  0  0  0  0  0  0  0  0  0
    8.0847  -12.0038   26.5771 C   0  0  0  0  0  0  0  0  0  0  0  0
    8.6670  -13.2390   26.4045 C   0  0  0  0  0  0  0  0  0  0  0  0
    7.8354  -14.3052   26.0970 C   0  0  0  0  0  0  0  0  0  0  0  0
    8.4628  -15.6573   25.9120 C   0  0  0  0  0  0  0  0  0  0  0  0
    9.2592  -15.7173   24.6091 C   0  0  2  0  0  0  0  0  0  0  0  0
    8.3419  -15.9087   23.5063 N   0  0  0  0  0  0  0  0  0  0  0  0
   10.2362  -16.8056   24.7303 C   0  0  0  0  0  0  0  0  0  0  0  0
   11.2526  -16.8319   25.6729 O   0  0  0  0  0  0  0  0  0  0  0  0
    6.4771  -14.1032   25.9754 C   0  0  0  0  0  0  0  0  0  0  0  0
    5.8933  -12.8523   26.1510 C   0  0  0  0  0  0  0  0  0  0  0  0
   10.1432  -17.7718   23.9288 O   0  0  0  0  0  0  0  0  0  0  0  0
  2  1  1  1
  2  5  1  0
  3  2  1  0
  3  4  1  0
  5  6  2  0
  7  8  1  0
  8  9  2  0
 10  8  1  0
 11 10  1  1
 11 13  1  0
 12 11  1  0
 12  5  1  0
 13 14  2  0
 15 16  1  0
 16 26  2  0
 17 18  2  0
 17 16  1  0
 18 19  1  0
 19 20  1  0
 19 25  2  0
 21 20  1  1
 21 23  1  0
 22 13  1  0
 22 21  1  0
 23 27  2  0
 23 24  1  0
 26 25  1  0
M  END
$$$$
