CNY.pdb
     RDKit          3D

 27 27  0  0  1  0  0  0  0  0999 V2000
    7.5328  -14.1535   20.7172 N   0  0  0  0  0  0  0  0  0  0  0  0
    7.7255  -14.6090   19.3575 C   0  0  1  0  0  0  0  0  0  0  0  0
    8.1916  -13.4042   18.5381 C   0  0  0  0  0  0  0  0  0  0  0  0
    7.8945  -11.9033   19.4839 S   0  0  0  0  0  0  0  0  0  0  0  0
    8.7274  -15.7004   19.2670 C   0  0  0  0  0  0  0  0  0  0  0  0
    8.9403  -16.1810   18.1208 O   0  0  0  0  0  0  0  0  0  0  0  0
   13.6311  -15.4971   18.8865 N   0  0  0  0  0  0  0  0  0  0  0  0
   12.8135  -14.7235   19.7515 C   0  0  0  0  0  0  0  0  0  0  0  0
   13.3850  -13.9363   20.5444 O   0  0  0  0  0  0  0  0  0  0  0  0
   11.3512  -14.8918   19.6655 C   0  0  0  0  0  0  0  0  0  0  0  0
   10.8218  -15.9959   20.5588 C   0  0  2  0  0  0  0  0  0  0  0  0
    9.3950  -16.1643   20.4007 N   0  0  0  0  0  0  0  0  0  0  0  0
   11.2053  -15.8394   21.9762 C   0  0  0  0  0  0  0  0  0  0  0  0
   12.4131  -15.7275   22.3039 O   0  0  0  0  0  0  0  0  0  0  0  0
   10.7495  -15.0108   30.7505 O   0  0  0  0  0  0  0  0  0  0  0  0
   10.4477  -15.0215   29.3857 C   0  0  0  0  0  0  0  0  0  0  0  0
    9.9724  -16.1715   28.8010 C   0  0  0  0  0  0  0  0  0  0  0  0
    9.6597  -16.2376   27.4621 C   0  0  0  0  0  0  0  0  0  0  0  0
    9.8397  -15.0919   26.7020 C   0  0  0  0  0  0  0  0  0  0  0  0
    9.4960  -15.1547   25.2412 C   0  0  0  0  0  0  0  0  0  0  0  0
   10.6753  -15.6797   24.4236 C   0  0  2  0  0  0  0  0  0  0  0  0
   10.2693  -15.8047   23.0402 N   0  0  0  0  0  0  0  0  0  0  0  0
   11.0941  -16.9581   25.0101 C   0  0  0  0  0  0  0  0  0  0  0  0
   10.5405  -18.1834   24.6714 O   0  0  0  0  0  0  0  0  0  0  0  0
   10.3165  -13.9426   27.2954 C   0  0  0  0  0  0  0  0  0  0  0  0
   10.6312  -13.8809   28.6495 C   0  0  0  0  0  0  0  0  0  0  0  0
   12.0112  -16.9377   25.8721 O   0  0  0  0  0  0  0  0  0  0  0  0
  2  1  1  1
  2  5  1  0
  3  2  1  0
  3  4  1  0
  5  6  2  0
  7  8  1  0
  8  9  2  0
 10  8  1  0
 11 10  1  6
 11 13  1  0
 12 11  1  0
 12  5  1  0
 13 14  2  0
 15 16  1  0
 16 26  2  0
 17 18  2  0
 17 16  1  0
 18 19  1  0
 19 20  1  0
 19 25  2  0
 21 20  1  1
 21 23  1  0
 22 13  1  0
 22 21  1  0
 23 27  2  0
 23 24  1  0
 26 25  1  0
M  END
$$$$
