CNY.pdb
     RDKit          3D

 27 27  0  0  1  0  0  0  0  0999 V2000
    6.5371  -18.7734   21.4875 N   0  0  0  0  0  0  0  0  0  0  0  0
    7.9167  -19.0767   21.1743 C   0  0  1  0  0  0  0  0  0  0  0  0
    7.9411  -19.6693   19.7641 C   0  0  0  0  0  0  0  0  0  0  0  0
    6.7664  -21.0289   19.6805 S   0  0  0  0  0  0  0  0  0  0  0  0
    8.7841  -17.8736   21.2325 C   0  0  0  0  0  0  0  0  0  0  0  0
    9.9930  -18.0300   20.9101 O   0  0  0  0  0  0  0  0  0  0  0  0
    8.6756  -15.3412   19.1995 N   0  0  0  0  0  0  0  0  0  0  0  0
    8.2904  -14.2045   19.9577 C   0  0  0  0  0  0  0  0  0  0  0  0
    7.7491  -13.2519   19.3460 O   0  0  0  0  0  0  0  0  0  0  0  0
    8.5490  -14.2134   21.4093 C   0  0  0  0  0  0  0  0  0  0  0  0
    9.1474  -15.5155   21.9032 C   0  0  2  0  0  0  0  0  0  0  0  0
    8.2764  -16.6352   21.6261 N   0  0  0  0  0  0  0  0  0  0  0  0
    9.5573  -15.4730   23.3212 C   0  0  0  0  0  0  0  0  0  0  0  0
   10.4604  -14.6873   23.7032 O   0  0  0  0  0  0  0  0  0  0  0  0
    6.2376  -10.8060   26.3433 O   0  0  0  0  0  0  0  0  0  0  0  0
    6.7076  -12.1212   26.3990 C   0  0  0  0  0  0  0  0  0  0  0  0
    7.9440  -12.3815   26.9412 C   0  0  0  0  0  0  0  0  0  0  0  0
    8.4553  -13.6571   27.0209 C   0  0  0  0  0  0  0  0  0  0  0  0
    7.6764  -14.6943   26.5306 C   0  0  0  0  0  0  0  0  0  0  0  0
    8.2254  -16.0896   26.6186 C   0  0  0  0  0  0  0  0  0  0  0  0
    9.4349  -16.2607   25.7004 C   0  0  2  0  0  0  0  0  0  0  0  0
    8.9812  -16.2897   24.3265 N   0  0  0  0  0  0  0  0  0  0  0  0
   10.1275  -17.4927   26.0956 C   0  0  0  0  0  0  0  0  0  0  0  0
   10.7397  -17.6758   27.3261 O   0  0  0  0  0  0  0  0  0  0  0  0
    6.4378  -14.4254   25.9886 C   0  0  0  0  0  0  0  0  0  0  0  0
    5.9253  -13.1341   25.9103 C   0  0  0  0  0  0  0  0  0  0  0  0
   10.1664  -18.4380   25.2653 O   0  0  0  0  0  0  0  0  0  0  0  0
  2  1  1  6
  2  5  1  0
  3  2  1  0
  3  4  1  0
  5  6  2  0
  7  8  1  0
  8  9  2  0
 10  8  1  0
 11 10  1  1
 11 13  1  0
 12 11  1  0
 12  5  1  0
 13 14  2  0
 15 16  1  0
 16 26  2  0
 17 18  2  0
 17 16  1  0
 18 19  1  0
 19 20  1  0
 19 25  2  0
 21 20  1  1
 21 23  1  0
 22 13  1  0
 22 21  1  0
 23 27  2  0
 23 24  1  0
 26 25  1  0
M  END
$$$$
