CNY.pdb
     RDKit          3D

 27 27  0  0  1  0  0  0  0  0999 V2000
    7.1265  -14.7496   18.9000 N   0  0  0  0  0  0  0  0  0  0  0  0
    7.9592  -14.2542   19.9745 C   0  0  1  0  0  0  0  0  0  0  0  0
    7.1660  -13.1627   20.6956 C   0  0  0  0  0  0  0  0  0  0  0  0
    8.1484  -12.5335   22.0647 S   0  0  0  0  0  0  0  0  0  0  0  0
    8.3351  -15.3232   20.9331 C   0  0  0  0  0  0  0  0  0  0  0  0
    7.4306  -16.1412   21.2535 O   0  0  0  0  0  0  0  0  0  0  0  0
   10.8836  -18.9287   20.2803 N   0  0  0  0  0  0  0  0  0  0  0  0
   11.3569  -17.6071   20.4911 C   0  0  0  0  0  0  0  0  0  0  0  0
   11.7424  -16.9591   19.4880 O   0  0  0  0  0  0  0  0  0  0  0  0
   11.3662  -17.0803   21.8682 C   0  0  0  0  0  0  0  0  0  0  0  0
   10.0311  -16.5066   22.2991 C   0  0  2  0  0  0  0  0  0  0  0  0
    9.6287  -15.4096   21.4483 N   0  0  0  0  0  0  0  0  0  0  0  0
    9.9824  -16.1422   23.7293 C   0  0  0  0  0  0  0  0  0  0  0  0
   10.7515  -15.2631   24.1924 O   0  0  0  0  0  0  0  0  0  0  0  0
    6.6589  -10.6676   26.2015 O   0  0  0  0  0  0  0  0  0  0  0  0
    6.9244  -12.0374   26.2861 C   0  0  0  0  0  0  0  0  0  0  0  0
    7.7987  -12.5054   27.2384 C   0  0  0  0  0  0  0  0  0  0  0  0
    8.0960  -13.8433   27.3658 C   0  0  0  0  0  0  0  0  0  0  0  0
    7.4794  -14.7256   26.4917 C   0  0  0  0  0  0  0  0  0  0  0  0
    7.7950  -16.1878   26.6276 C   0  0  0  0  0  0  0  0  0  0  0  0
    9.1879  -16.4999   26.0823 C   0  0  2  0  0  0  0  0  0  0  0  0
    9.0924  -16.7378   24.6581 N   0  0  0  0  0  0  0  0  0  0  0  0
    9.7084  -17.6584   26.8177 C   0  0  0  0  0  0  0  0  0  0  0  0
   10.0162  -18.8749   26.2282 O   0  0  0  0  0  0  0  0  0  0  0  0
    6.6038  -14.2488   25.5395 C   0  0  0  0  0  0  0  0  0  0  0  0
    6.3065  -12.8952   25.4149 C   0  0  0  0  0  0  0  0  0  0  0  0
    9.8849  -17.5370   28.0582 O   0  0  0  0  0  0  0  0  0  0  0  0
  2  1  1  6
  2  5  1  0
  3  2  1  0
  3  4  1  0
  5  6  2  0
  7  8  1  0
  8  9  2  0
 10  8  1  0
 11 10  1  6
 11 13  1  0
 12 11  1  0
 12  5  1  0
 13 14  2  0
 15 16  1  0
 16 26  2  0
 17 18  2  0
 17 16  1  0
 18 19  1  0
 19 20  1  0
 19 25  2  0
 21 20  1  1
 21 23  1  0
 22 13  1  0
 22 21  1  0
 23 27  2  0
 23 24  1  0
 26 25  1  0
M  END
$$$$
