AMA.pdb
     RDKit          3D

 19 18  0  0  1  0  0  0  0  0999 V2000
    8.3594  -15.2097   19.2379 C   0  0  0  0  0  0  0  0  0  0  0  0
    8.4211  -16.3745   20.2121 C   0  0  2  0  0  0  0  0  0  0  0  0
    7.0906  -16.9496   20.2697 N   0  0  0  0  0  0  0  0  0  0  0  0
    8.8099  -15.8499   21.5259 C   0  0  0  0  0  0  0  0  0  0  0  0
   10.0361  -15.6651   21.7866 O   0  0  0  0  0  0  0  0  0  0  0  0
    7.2037  -11.6093   27.8788 C   0  0  0  0  0  0  0  0  0  0  0  0
    6.4593  -12.5192   26.5122 S   0  0  0  0  0  0  0  0  0  0  0  0
    7.7149  -13.6197   25.8069 C   0  0  0  0  0  0  0  0  0  0  0  0
    7.2171  -14.1326   24.4766 C   0  0  0  0  0  0  0  0  0  0  0  0
    8.2838  -14.9568   23.8225 C   0  0  2  0  0  0  0  0  0  0  0  0
    7.8942  -15.5223   22.5615 N   0  0  0  0  0  0  0  0  0  0  0  0
    8.6261  -16.0695   24.7483 C   0  0  0  0  0  0  0  0  0  0  0  0
    7.7002  -16.8398   25.1169 O   0  0  0  0  0  0  0  0  0  0  0  0
   11.5805  -18.1022   25.3432 C   0  0  0  0  0  0  0  0  0  0  0  0
   10.3245  -17.5236   25.9202 C   0  0  2  0  0  0  0  0  0  0  0  0
    9.9443  -16.2868   25.2220 N   0  0  0  0  0  0  0  0  0  0  0  0
   10.4889  -17.1643   27.3578 C   0  0  0  0  0  0  0  0  0  0  0  0
   10.4936  -15.8205   27.6715 O   0  0  0  0  0  0  0  0  0  0  0  0
   10.6196  -18.0261   28.2655 O   0  0  0  0  0  0  0  0  0  0  0  0
  2  1  1  6
  3  2  1  0
  4  2  1  0
  5  4  2  0
  7  6  1  0
  7  8  1  0
  8  9  1  0
 10  9  1  1
 10 12  1  0
 10 11  1  0
 11  4  1  0
 12 16  1  0
 13 12  2  0
 15 17  1  0
 15 14  1  6
 16 15  1  0
 17 19  2  0
 17 18  1  0
M  END
$$$$
