AMA.pdb
     RDKit          3D

 19 18  0  0  1  0  0  0  0  0999 V2000
    8.0546  -14.7493   18.9653 C   0  0  0  0  0  0  0  0  0  0  0  0
    7.7260  -15.7205   20.0871 C   0  0  2  0  0  0  0  0  0  0  0  0
    6.2818  -15.7370   20.2237 N   0  0  0  0  0  0  0  0  0  0  0  0
    8.3514  -15.2240   21.3178 C   0  0  0  0  0  0  0  0  0  0  0  0
    9.6145  -15.2192   21.4184 O   0  0  0  0  0  0  0  0  0  0  0  0
    5.6181  -12.5052   27.1923 C   0  0  0  0  0  0  0  0  0  0  0  0
    7.1759  -11.7796   26.6478 S   0  0  0  0  0  0  0  0  0  0  0  0
    8.1257  -13.0532   25.7756 C   0  0  0  0  0  0  0  0  0  0  0  0
    7.3860  -13.4300   24.5140 C   0  0  0  0  0  0  0  0  0  0  0  0
    8.2552  -14.3031   23.6613 C   0  0  2  0  0  0  0  0  0  0  0  0
    7.6328  -14.7331   22.4408 N   0  0  0  0  0  0  0  0  0  0  0  0
    8.6042  -15.5093   24.4584 C   0  0  0  0  0  0  0  0  0  0  0  0
    7.6692  -16.2729   24.8182 O   0  0  0  0  0  0  0  0  0  0  0  0
   11.5822  -17.6321   24.9155 C   0  0  0  0  0  0  0  0  0  0  0  0
   10.2911  -17.0991   25.4581 C   0  0  2  0  0  0  0  0  0  0  0  0
    9.9385  -15.8219   24.8208 N   0  0  0  0  0  0  0  0  0  0  0  0
   10.3732  -16.8326   26.9227 C   0  0  0  0  0  0  0  0  0  0  0  0
   10.3834  -17.9296   27.7597 O   0  0  0  0  0  0  0  0  0  0  0  0
   10.4316  -15.6706   27.4023 O   0  0  0  0  0  0  0  0  0  0  0  0
  2  1  1  6
  3  2  1  0
  4  2  1  0
  5  4  2  0
  7  6  1  0
  7  8  1  0
  8  9  1  0
 10  9  1  1
 10 12  1  0
 10 11  1  0
 11  4  1  0
 12 16  1  0
 13 12  2  0
 15 17  1  0
 15 14  1  6
 16 15  1  0
 17 19  2  0
 17 18  1  0
M  END
$$$$
