AMA.pdb
     RDKit          3D

 19 18  0  0  1  0  0  0  0  0999 V2000
    7.2501  -17.7195   20.1469 C   0  0  0  0  0  0  0  0  0  0  0  0
    7.4033  -16.2110   20.0445 C   0  0  2  0  0  0  0  0  0  0  0  0
    8.2875  -15.9500   18.9243 N   0  0  0  0  0  0  0  0  0  0  0  0
    8.0024  -15.7277   21.2934 C   0  0  0  0  0  0  0  0  0  0  0  0
    9.2639  -15.6908   21.4076 O   0  0  0  0  0  0  0  0  0  0  0  0
    7.3273  -11.5575   27.9376 C   0  0  0  0  0  0  0  0  0  0  0  0
    6.4283  -12.3773   26.6075 S   0  0  0  0  0  0  0  0  0  0  0  0
    7.6112  -13.3353   25.6238 C   0  0  0  0  0  0  0  0  0  0  0  0
    6.8797  -13.9583   24.4587 C   0  0  0  0  0  0  0  0  0  0  0  0
    7.8530  -14.6877   23.5837 C   0  0  2  0  0  0  0  0  0  0  0  0
    7.2594  -15.2840   22.4201 N   0  0  0  0  0  0  0  0  0  0  0  0
    8.4716  -15.7674   24.3985 C   0  0  0  0  0  0  0  0  0  0  0  0
    7.7303  -16.7000   24.8075 O   0  0  0  0  0  0  0  0  0  0  0  0
   11.9286  -17.0607   24.8941 C   0  0  0  0  0  0  0  0  0  0  0  0
   10.4972  -16.9554   25.3246 C   0  0  2  0  0  0  0  0  0  0  0  0
    9.8511  -15.7790   24.7244 N   0  0  0  0  0  0  0  0  0  0  0  0
   10.3728  -16.7987   26.8020 C   0  0  0  0  0  0  0  0  0  0  0  0
   10.8608  -17.8253   27.5845 O   0  0  0  0  0  0  0  0  0  0  0  0
    9.8510  -15.7873   27.3390 O   0  0  0  0  0  0  0  0  0  0  0  0
  2  1  1  1
  3  2  1  0
  4  2  1  0
  5  4  2  0
  7  6  1  0
  7  8  1  0
  8  9  1  0
 10  9  1  1
 10 12  1  0
 10 11  1  0
 11  4  1  0
 12 16  1  0
 13 12  2  0
 15 17  1  0
 15 14  1  1
 16 15  1  0
 17 19  2  0
 17 18  1  0
M  END
$$$$
