AMA.pdb
     RDKit          3D

 19 18  0  0  1  0  0  0  0  0999 V2000
    7.0989  -16.7560   20.3113 C   0  0  0  0  0  0  0  0  0  0  0  0
    7.2429  -15.2504   20.4597 C   0  0  2  0  0  0  0  0  0  0  0  0
    8.0698  -14.7933   19.3589 N   0  0  0  0  0  0  0  0  0  0  0  0
    7.9018  -14.9796   21.7422 C   0  0  0  0  0  0  0  0  0  0  0  0
    9.1654  -14.8984   21.7903 O   0  0  0  0  0  0  0  0  0  0  0  0
    7.6570  -11.1067   27.2606 C   0  0  0  0  0  0  0  0  0  0  0  0
    6.1801  -11.9672   26.6878 S   0  0  0  0  0  0  0  0  0  0  0  0
    6.5544  -12.7469   25.0952 C   0  0  0  0  0  0  0  0  0  0  0  0
    6.9732  -14.1767   25.3425 C   0  0  0  0  0  0  0  0  0  0  0  0
    7.8758  -14.6362   24.2384 C   0  0  2  0  0  0  0  0  0  0  0  0
    7.2162  -14.7956   22.9729 N   0  0  0  0  0  0  0  0  0  0  0  0
    8.4449  -15.9510   24.6379 C   0  0  0  0  0  0  0  0  0  0  0  0
    7.6619  -16.9337   24.7260 O   0  0  0  0  0  0  0  0  0  0  0  0
   11.7031  -17.6691   24.6312 C   0  0  0  0  0  0  0  0  0  0  0  0
   10.3761  -17.4407   25.2887 C   0  0  2  0  0  0  0  0  0  0  0  0
    9.8228  -16.1298   24.9188 N   0  0  0  0  0  0  0  0  0  0  0  0
   10.4853  -17.4495   26.7756 C   0  0  0  0  0  0  0  0  0  0  0  0
   10.9033  -18.6243   27.3665 O   0  0  0  0  0  0  0  0  0  0  0  0
   10.2152  -16.4459   27.4852 O   0  0  0  0  0  0  0  0  0  0  0  0
  2  1  1  6
  3  2  1  0
  4  2  1  0
  5  4  2  0
  7  6  1  0
  7  8  1  0
  8  9  1  0
 10  9  1  1
 10 12  1  0
 10 11  1  0
 11  4  1  0
 12 16  1  0
 13 12  2  0
 15 17  1  0
 15 14  1  6
 16 15  1  0
 17 19  2  0
 17 18  1  0
M  END
$$$$
