AMA.pdb
     RDKit          3D

 19 18  0  0  1  0  0  0  0  0999 V2000
    7.2144  -17.1037   19.9882 C   0  0  0  0  0  0  0  0  0  0  0  0
    7.4208  -15.5991   20.0424 C   0  0  2  0  0  0  0  0  0  0  0  0
    8.3324  -15.2575   18.9668 N   0  0  0  0  0  0  0  0  0  0  0  0
    8.0146  -15.2668   21.3422 C   0  0  0  0  0  0  0  0  0  0  0  0
    9.2672  -15.3724   21.5018 O   0  0  0  0  0  0  0  0  0  0  0  0
    6.6262  -10.5642   26.4113 C   0  0  0  0  0  0  0  0  0  0  0  0
    6.5609  -12.2939   26.9150 S   0  0  0  0  0  0  0  0  0  0  0  0
    7.6931  -13.2390   25.8617 C   0  0  0  0  0  0  0  0  0  0  0  0
    6.9395  -13.7096   24.6405 C   0  0  0  0  0  0  0  0  0  0  0  0
    7.8774  -14.4163   23.7101 C   0  0  2  0  0  0  0  0  0  0  0  0
    7.2756  -14.8226   22.4713 N   0  0  0  0  0  0  0  0  0  0  0  0
    8.3761  -15.6312   24.4083 C   0  0  0  0  0  0  0  0  0  0  0  0
    7.5590  -16.5632   24.6327 O   0  0  0  0  0  0  0  0  0  0  0  0
   11.6750  -17.2460   24.9002 C   0  0  0  0  0  0  0  0  0  0  0  0
   10.2532  -17.0459   25.3290 C   0  0  2  0  0  0  0  0  0  0  0  0
    9.7243  -15.7706   24.8234 N   0  0  0  0  0  0  0  0  0  0  0  0
   10.1232  -16.9989   26.8135 C   0  0  0  0  0  0  0  0  0  0  0  0
   10.4951  -18.1298   27.5113 O   0  0  0  0  0  0  0  0  0  0  0  0
    9.6968  -15.9876   27.4291 O   0  0  0  0  0  0  0  0  0  0  0  0
  2  1  1  1
  3  2  1  0
  4  2  1  0
  5  4  2  0
  7  6  1  0
  7  8  1  0
  8  9  1  0
 10  9  1  1
 10 12  1  0
 10 11  1  0
 11  4  1  0
 12 16  1  0
 13 12  2  0
 15 17  1  0
 15 14  1  1
 16 15  1  0
 17 19  2  0
 17 18  1  0
M  END
$$$$
