AMA.pdb
     RDKit          3D

 19 18  0  0  1  0  0  0  0  0999 V2000
    7.6015  -12.5802   19.4185 C   0  0  0  0  0  0  0  0  0  0  0  0
    7.7805  -14.0395   19.8030 C   0  0  2  0  0  0  0  0  0  0  0  0
    6.4652  -14.6506   19.7709 N   0  0  0  0  0  0  0  0  0  0  0  0
    8.3352  -14.0887   21.1603 C   0  0  0  0  0  0  0  0  0  0  0  0
    9.5645  -13.8404   21.3420 O   0  0  0  0  0  0  0  0  0  0  0  0
    6.4430  -10.7849   27.0627 C   0  0  0  0  0  0  0  0  0  0  0  0
    6.6820  -12.5476   26.7706 S   0  0  0  0  0  0  0  0  0  0  0  0
    6.9539  -12.8013   24.9967 C   0  0  0  0  0  0  0  0  0  0  0  0
    7.1452  -14.2776   24.7424 C   0  0  0  0  0  0  0  0  0  0  0  0
    8.1439  -14.4748   23.6430 C   0  0  2  0  0  0  0  0  0  0  0  0
    7.5821  -14.4020   22.3235 N   0  0  0  0  0  0  0  0  0  0  0  0
    8.7500  -15.8215   23.8195 C   0  0  0  0  0  0  0  0  0  0  0  0
    7.9913  -16.8253   23.7599 O   0  0  0  0  0  0  0  0  0  0  0  0
   10.8954  -17.7904   22.5554 C   0  0  0  0  0  0  0  0  0  0  0  0
   10.7640  -17.3352   23.9769 C   0  0  2  0  0  0  0  0  0  0  0  0
   10.1362  -16.0077   24.0497 N   0  0  0  0  0  0  0  0  0  0  0  0
   12.0913  -17.2126   24.6448 C   0  0  0  0  0  0  0  0  0  0  0  0
   12.8365  -18.3667   24.7749 O   0  0  0  0  0  0  0  0  0  0  0  0
   12.5375  -16.1194   25.0800 O   0  0  0  0  0  0  0  0  0  0  0  0
  2  1  1  1
  3  2  1  0
  4  2  1  0
  5  4  2  0
  7  6  1  0
  7  8  1  0
  8  9  1  0
 10  9  1  1
 10 12  1  0
 10 11  1  0
 11  4  1  0
 12 16  1  0
 13 12  2  0
 15 17  1  0
 15 14  1  6
 16 15  1  0
 17 19  2  0
 17 18  1  0
M  END
$$$$
