AMA.pdb
     RDKit          3D

 19 18  0  0  1  0  0  0  0  0999 V2000
    7.3153  -17.0470   20.2672 C   0  0  0  0  0  0  0  0  0  0  0  0
    7.5393  -15.5462   20.3490 C   0  0  2  0  0  0  0  0  0  0  0  0
    8.4964  -15.2036   19.3141 N   0  0  0  0  0  0  0  0  0  0  0  0
    8.0864  -15.2385   21.6750 C   0  0  0  0  0  0  0  0  0  0  0  0
    9.3411  -15.2541   21.8519 O   0  0  0  0  0  0  0  0  0  0  0  0
    5.8637  -11.1374   26.6546 C   0  0  0  0  0  0  0  0  0  0  0  0
    7.5486  -11.7010   26.3495 S   0  0  0  0  0  0  0  0  0  0  0  0
    7.5449  -13.5127   26.2980 C   0  0  0  0  0  0  0  0  0  0  0  0
    6.8475  -13.9598   25.0352 C   0  0  0  0  0  0  0  0  0  0  0  0
    7.8490  -14.5419   24.0849 C   0  0  2  0  0  0  0  0  0  0  0  0
    7.2987  -14.9144   22.8120 N   0  0  0  0  0  0  0  0  0  0  0  0
    8.4211  -15.7586   24.7211 C   0  0  0  0  0  0  0  0  0  0  0  0
    7.6334  -16.6914   25.0312 O   0  0  0  0  0  0  0  0  0  0  0  0
   11.8562  -17.2179   25.2025 C   0  0  0  0  0  0  0  0  0  0  0  0
   10.3816  -17.1648   25.4636 C   0  0  2  0  0  0  0  0  0  0  0  0
    9.8066  -15.8989   24.9855 N   0  0  0  0  0  0  0  0  0  0  0  0
   10.0731  -17.2463   26.9199 C   0  0  0  0  0  0  0  0  0  0  0  0
   10.4113  -18.4169   27.5677 O   0  0  0  0  0  0  0  0  0  0  0  0
    9.5295  -16.3061   27.5556 O   0  0  0  0  0  0  0  0  0  0  0  0
  2  1  1  1
  3  2  1  0
  4  2  1  0
  5  4  2  0
  7  6  1  0
  7  8  1  0
  8  9  1  0
 10  9  1  1
 10 12  1  0
 10 11  1  0
 11  4  1  0
 12 16  1  0
 13 12  2  0
 15 17  1  0
 15 14  1  1
 16 15  1  0
 17 19  2  0
 17 18  1  0
M  END
$$$$
