AMA.pdb
     RDKit          3D

 19 18  0  0  1  0  0  0  0  0999 V2000
    8.8713  -18.2674   21.6992 C   0  0  0  0  0  0  0  0  0  0  0  0
    8.5234  -16.8451   21.2923 C   0  0  2  0  0  0  0  0  0  0  0  0
    9.2363  -16.5709   20.0590 N   0  0  0  0  0  0  0  0  0  0  0  0
    8.9755  -15.9427   22.3570 C   0  0  0  0  0  0  0  0  0  0  0  0
   10.1814  -15.5541   22.3760 O   0  0  0  0  0  0  0  0  0  0  0  0
    5.5019  -11.4455   26.2964 C   0  0  0  0  0  0  0  0  0  0  0  0
    6.7298  -12.3483   27.2591 S   0  0  0  0  0  0  0  0  0  0  0  0
    8.0576  -12.8739   26.1430 C   0  0  0  0  0  0  0  0  0  0  0  0
    7.4807  -13.8178   25.1150 C   0  0  0  0  0  0  0  0  0  0  0  0
    8.5907  -14.5414   24.4155 C   0  0  2  0  0  0  0  0  0  0  0  0
    8.1447  -15.4543   23.4008 N   0  0  0  0  0  0  0  0  0  0  0  0
    9.3433  -15.3130   25.4405 C   0  0  0  0  0  0  0  0  0  0  0  0
    9.7663  -14.6963   26.4541 O   0  0  0  0  0  0  0  0  0  0  0  0
    9.3840  -18.2795   27.1721 C   0  0  0  0  0  0  0  0  0  0  0  0
   10.3236  -17.4563   26.3445 C   0  0  2  0  0  0  0  0  0  0  0  0
    9.5958  -16.7020   25.3135 N   0  0  0  0  0  0  0  0  0  0  0  0
   11.3175  -18.3040   25.6259 C   0  0  0  0  0  0  0  0  0  0  0  0
   11.2359  -18.3346   24.2487 O   0  0  0  0  0  0  0  0  0  0  0  0
   12.2017  -18.9721   26.2220 O   0  0  0  0  0  0  0  0  0  0  0  0
  2  1  1  1
  3  2  1  0
  4  2  1  0
  5  4  2  0
  7  6  1  0
  7  8  1  0
  8  9  1  0
 10  9  1  1
 10 12  1  0
 10 11  1  0
 11  4  1  0
 12 16  1  0
 13 12  2  0
 15 17  1  0
 15 14  1  6
 16 15  1  0
 17 19  2  0
 17 18  1  0
M  END
$$$$
