AMA.pdb
     RDKit          3D

 19 18  0  0  1  0  0  0  0  0999 V2000
   -1.0664  -25.1643   26.2152 C   0  0  0  0  0  0  0  0  0  0  0  0
   -2.5718  -25.3670   26.2604 C   0  0  2  0  0  0  0  0  0  0  0  0
   -2.9923  -25.7205   24.9178 N   0  0  0  0  0  0  0  0  0  0  0  0
   -3.1899  -24.1026   26.6747 C   0  0  0  0  0  0  0  0  0  0  0  0
   -2.9071  -23.6110   27.8078 O   0  0  0  0  0  0  0  0  0  0  0  0
   -2.5035  -18.6249   23.0074 C   0  0  0  0  0  0  0  0  0  0  0  0
   -4.0248  -19.5132   23.3896 S   0  0  0  0  0  0  0  0  0  0  0  0
   -3.7302  -20.5512   24.8458 C   0  0  0  0  0  0  0  0  0  0  0  0
   -5.0407  -21.1671   25.2747 C   0  0  0  0  0  0  0  0  0  0  0  0
   -4.7929  -22.1868   26.3441 C   0  0  2  0  0  0  0  0  0  0  0  0
   -4.1084  -23.3620   25.8833 N   0  0  0  0  0  0  0  0  0  0  0  0
   -6.1136  -22.5987   26.8902 C   0  0  0  0  0  0  0  0  0  0  0  0
   -6.7870  -23.4416   26.2400 O   0  0  0  0  0  0  0  0  0  0  0  0
   -7.7155  -24.0635   29.0378 C   0  0  0  0  0  0  0  0  0  0  0  0
   -7.8598  -22.6078   28.7131 C   0  0  2  0  0  0  0  0  0  0  0  0
   -6.6309  -22.0791   28.1033 N   0  0  0  0  0  0  0  0  0  0  0  0
   -8.1122  -21.7898   29.9337 C   0  0  0  0  0  0  0  0  0  0  0  0
   -7.1307  -20.8917   30.3004 O   0  0  0  0  0  0  0  0  0  0  0  0
   -9.1632  -21.8923   30.6182 O   0  0  0  0  0  0  0  0  0  0  0  0
  2  1  1  6
  3  2  1  0
  4  2  1  0
  5  4  2  0
  7  6  1  0
  7  8  1  0
  8  9  1  0
 10  9  1  6
 10 12  1  0
 10 11  1  0
 11  4  1  0
 12 16  1  0
 13 12  2  0
 15 17  1  0
 15 14  1  1
 16 15  1  0
 17 19  2  0
 17 18  1  0
M  END
$$$$
