AMA.pdb
     RDKit          3D

 19 18  0  0  1  0  0  0  0  0999 V2000
    8.4219  -17.3614   20.1495 C   0  0  0  0  0  0  0  0  0  0  0  0
    8.8972  -15.9220   20.2585 C   0  0  2  0  0  0  0  0  0  0  0  0
   10.1605  -15.8382   19.5503 N   0  0  0  0  0  0  0  0  0  0  0  0
    9.0850  -15.6103   21.6798 C   0  0  0  0  0  0  0  0  0  0  0  0
   10.2143  -15.8095   22.2189 O   0  0  0  0  0  0  0  0  0  0  0  0
    6.2366  -11.5410   27.3171 C   0  0  0  0  0  0  0  0  0  0  0  0
    7.6216  -12.1506   26.3374 S   0  0  0  0  0  0  0  0  0  0  0  0
    7.3751  -13.9211   26.0388 C   0  0  0  0  0  0  0  0  0  0  0  0
    7.0899  -14.1294   24.5704 C   0  0  0  0  0  0  0  0  0  0  0  0
    8.2735  -14.7710   23.9127 C   0  0  2  0  0  0  0  0  0  0  0  0
    8.0714  -15.0870   22.5267 N   0  0  0  0  0  0  0  0  0  0  0  0
    8.5663  -16.0335   24.6424 C   0  0  0  0  0  0  0  0  0  0  0  0
    7.7151  -16.9604   24.5884 O   0  0  0  0  0  0  0  0  0  0  0  0
   11.3161  -18.1074   25.4818 C   0  0  0  0  0  0  0  0  0  0  0  0
   10.0669  -17.5011   26.0449 C   0  0  2  0  0  0  0  0  0  0  0  0
    9.7577  -16.2233   25.3866 N   0  0  0  0  0  0  0  0  0  0  0  0
   10.2011  -17.2057   27.5001 C   0  0  0  0  0  0  0  0  0  0  0  0
   10.0137  -15.8965   27.8938 O   0  0  0  0  0  0  0  0  0  0  0  0
   10.4722  -18.0900   28.3533 O   0  0  0  0  0  0  0  0  0  0  0  0
  2  1  1  1
  3  2  1  0
  4  2  1  0
  5  4  2  0
  7  6  1  0
  7  8  1  0
  8  9  1  0
 10  9  1  1
 10 12  1  0
 10 11  1  0
 11  4  1  0
 12 16  1  0
 13 12  2  0
 15 17  1  0
 15 14  1  6
 16 15  1  0
 17 19  2  0
 17 18  1  0
M  END
$$$$
