AMA.pdb
     RDKit          3D

 19 18  0  0  1  0  0  0  0  0999 V2000
    7.2673  -18.4479   21.0055 C   0  0  0  0  0  0  0  0  0  0  0  0
    7.2461  -16.9489   20.7563 C   0  0  2  0  0  0  0  0  0  0  0  0
    7.9626  -16.7153   19.5167 N   0  0  0  0  0  0  0  0  0  0  0  0
    7.9299  -16.2911   21.8752 C   0  0  0  0  0  0  0  0  0  0  0  0
    9.1864  -16.1323   21.8328 O   0  0  0  0  0  0  0  0  0  0  0  0
    6.7031  -11.0131   26.0955 C   0  0  0  0  0  0  0  0  0  0  0  0
    6.8220  -12.5522   27.0265 S   0  0  0  0  0  0  0  0  0  0  0  0
    7.8802  -13.6982   26.1035 C   0  0  0  0  0  0  0  0  0  0  0  0
    7.0712  -14.3097   24.9844 C   0  0  0  0  0  0  0  0  0  0  0  0
    7.9586  -15.1584   24.1259 C   0  0  2  0  0  0  0  0  0  0  0  0
    7.2769  -15.8025   23.0385 N   0  0  0  0  0  0  0  0  0  0  0  0
    8.5542  -16.2100   24.9929 C   0  0  0  0  0  0  0  0  0  0  0  0
    7.7806  -17.0565   25.5144 O   0  0  0  0  0  0  0  0  0  0  0  0
   11.9848  -17.6155   25.5130 C   0  0  0  0  0  0  0  0  0  0  0  0
   10.5502  -17.4511   25.9136 C   0  0  2  0  0  0  0  0  0  0  0  0
    9.9465  -16.2880   25.2471 N   0  0  0  0  0  0  0  0  0  0  0  0
   10.4069  -17.2203   27.3795 C   0  0  0  0  0  0  0  0  0  0  0  0
   10.1452  -15.9284   27.7880 O   0  0  0  0  0  0  0  0  0  0  0  0
   10.5147  -18.1425   28.2289 O   0  0  0  0  0  0  0  0  0  0  0  0
  2  1  1  1
  3  2  1  0
  4  2  1  0
  5  4  2  0
  7  6  1  0
  7  8  1  0
  8  9  1  0
 10  9  1  1
 10 12  1  0
 10 11  1  0
 11  4  1  0
 12 16  1  0
 13 12  2  0
 15 17  1  0
 15 14  1  1
 16 15  1  0
 17 19  2  0
 17 18  1  0
M  END
$$$$
