AMA.pdb
     RDKit          3D

 19 18  0  0  1  0  0  0  0  0999 V2000
    7.5103  -18.1827   20.1373 C   0  0  0  0  0  0  0  0  0  0  0  0
    7.4610  -16.6667   20.0437 C   0  0  2  0  0  0  0  0  0  0  0  0
    8.2172  -16.2902   18.8644 N   0  0  0  0  0  0  0  0  0  0  0  0
    8.0859  -16.1148   21.2509 C   0  0  0  0  0  0  0  0  0  0  0  0
    9.3441  -15.9699   21.2923 O   0  0  0  0  0  0  0  0  0  0  0  0
    7.3933  -11.1851   27.1164 C   0  0  0  0  0  0  0  0  0  0  0  0
    6.5381  -12.6364   26.4745 S   0  0  0  0  0  0  0  0  0  0  0  0
    7.7238  -13.6254   25.5255 C   0  0  0  0  0  0  0  0  0  0  0  0
    6.9939  -14.2928   24.3842 C   0  0  0  0  0  0  0  0  0  0  0  0
    7.9722  -15.0324   23.5235 C   0  0  2  0  0  0  0  0  0  0  0  0
    7.3722  -15.7175   22.4133 N   0  0  0  0  0  0  0  0  0  0  0  0
    8.6563  -16.0384   24.3793 C   0  0  0  0  0  0  0  0  0  0  0  0
    7.9542  -16.9372   24.9139 O   0  0  0  0  0  0  0  0  0  0  0  0
   12.2211  -17.1287   24.8523 C   0  0  0  0  0  0  0  0  0  0  0  0
   10.7631  -17.1638   25.1961 C   0  0  2  0  0  0  0  0  0  0  0  0
   10.0549  -16.0170   24.6087 N   0  0  0  0  0  0  0  0  0  0  0  0
   10.5386  -17.0906   26.6682 C   0  0  0  0  0  0  0  0  0  0  0  0
   10.0732  -15.8934   27.1726 O   0  0  0  0  0  0  0  0  0  0  0  0
   10.7552  -18.0605   27.4402 O   0  0  0  0  0  0  0  0  0  0  0  0
  2  1  1  1
  3  2  1  0
  4  2  1  0
  5  4  2  0
  7  6  1  0
  7  8  1  0
  8  9  1  0
 10  9  1  1
 10 12  1  0
 10 11  1  0
 11  4  1  0
 12 16  1  0
 13 12  2  0
 15 17  1  0
 15 14  1  1
 16 15  1  0
 17 19  2  0
 17 18  1  0
M  END
$$$$
