MVQ.pdb
     RDKit          3D

 25 24  0  0  1  0  0  0  0  0999 V2000
    9.3256  -15.3542   12.8204 C   0  0  0  0  0  0  0  0  0  0  0  0
    8.5085  -16.9615   12.8991 S   0  0  0  0  0  0  0  0  0  0  0  0
    8.1171  -17.3832   14.6054 C   0  0  0  0  0  0  0  0  0  0  0  0
    8.7306  -16.3930   15.5630 C   0  0  0  0  0  0  0  0  0  0  0  0
    8.9127  -17.0641   16.9209 C   0  0  2  0  0  0  0  0  0  0  0  0
    7.6177  -17.6516   17.2794 N   0  0  0  0  0  0  0  0  0  0  0  0
    9.3023  -16.0196   17.9066 C   0  0  0  0  0  0  0  0  0  0  0  0
   10.4187  -15.4920   17.8341 O   0  0  0  0  0  0  0  0  0  0  0  0
    7.8474  -13.3566   21.8540 C   0  0  0  0  0  0  0  0  0  0  0  0
    7.5273  -14.1231   20.6069 C   0  0  1  0  0  0  0  0  0  0  0  0
    7.0420  -13.1122   19.5782 C   0  0  0  0  0  0  0  0  0  0  0  0
    8.7569  -14.7648   20.0456 C   0  0  2  0  0  0  0  0  0  0  0  0
    8.4030  -15.6326   18.9194 N   0  0  0  0  0  0  0  0  0  0  0  0
    9.5437  -15.5856   20.9728 C   0  0  0  0  0  0  0  0  0  0  0  0
    9.1134  -16.7797   21.1915 O   0  0  0  0  0  0  0  0  0  0  0  0
   15.9790  -17.4911   23.9702 N   0  0  0  0  0  0  0  0  0  0  0  0
   15.0636  -16.5825   23.4045 C   0  0  0  0  0  0  0  0  0  0  0  0
   15.4785  -15.5895   22.7771 O   0  0  0  0  0  0  0  0  0  0  0  0
   13.6001  -16.7954   23.5481 C   0  0  0  0  0  0  0  0  0  0  0  0
   12.8442  -15.8867   22.6250 C   0  0  0  0  0  0  0  0  0  0  0  0
   11.4040  -16.2319   22.4852 C   0  0  2  0  0  0  0  0  0  0  0  0
   10.7105  -15.2499   21.6571 N   0  0  0  0  0  0  0  0  0  0  0  0
   10.7127  -16.2526   23.7890 C   0  0  0  0  0  0  0  0  0  0  0  0
    9.9254  -15.1594   24.2207 O   0  0  0  0  0  0  0  0  0  0  0  0
   10.7492  -17.1993   24.6135 O   0  0  0  0  0  0  0  0  0  0  0  0
  2  1  1  0
  3  4  1  0
  3  2  1  0
  4  5  1  0
  5  6  1  1
  7  8  2  0
  7  5  1  0
 10 12  1  0
 10  9  1  1
 11 10  1  0
 12 13  1  6
 13  7  1  0
 14 15  2  0
 14 12  1  0
 16 17  1  0
 17 18  2  0
 19 17  1  0
 19 20  1  0
 21 20  1  1
 21 22  1  0
 22 14  1  0
 23 21  1  0
 24 23  1  0
 25 23  2  0
M  END
$$$$
