MVQ.pdb
     RDKit          3D

 25 24  0  0  1  0  0  0  0  0999 V2000
    6.8741  -11.0105   26.6470 C   0  0  0  0  0  0  0  0  0  0  0  0
    5.7850  -12.0005   27.6916 S   0  0  0  0  0  0  0  0  0  0  0  0
    5.7483  -13.7074   27.1191 C   0  0  0  0  0  0  0  0  0  0  0  0
    6.6708  -13.9046   25.9427 C   0  0  0  0  0  0  0  0  0  0  0  0
    6.1371  -15.0439   25.0798 C   0  0  2  0  0  0  0  0  0  0  0  0
    5.8836  -16.1735   25.9801 N   0  0  0  0  0  0  0  0  0  0  0  0
    7.1812  -15.3979   24.0802 C   0  0  0  0  0  0  0  0  0  0  0  0
    7.8190  -16.4503   24.2043 O   0  0  0  0  0  0  0  0  0  0  0  0
    9.1007  -14.1770   19.6425 C   0  0  0  0  0  0  0  0  0  0  0  0
    8.2030  -13.8477   20.7962 C   0  0  1  0  0  0  0  0  0  0  0  0
    6.7730  -13.9354   20.2835 C   0  0  0  0  0  0  0  0  0  0  0  0
    8.3418  -14.8635   21.8860 C   0  0  2  0  0  0  0  0  0  0  0  0
    7.4427  -14.5374   22.9960 N   0  0  0  0  0  0  0  0  0  0  0  0
    9.6807  -15.0171   22.4658 C   0  0  0  0  0  0  0  0  0  0  0  0
    9.9909  -14.2093   23.4198 O   0  0  0  0  0  0  0  0  0  0  0  0
   11.7397  -20.1128   25.3630 N   0  0  0  0  0  0  0  0  0  0  0  0
   12.0699  -18.8151   25.7997 C   0  0  0  0  0  0  0  0  0  0  0  0
   11.9685  -18.5189   27.0054 O   0  0  0  0  0  0  0  0  0  0  0  0
   12.5408  -17.7892   24.8336 C   0  0  0  0  0  0  0  0  0  0  0  0
   11.3922  -17.2617   24.0263 C   0  0  0  0  0  0  0  0  0  0  0  0
   11.7777  -16.2161   23.0410 C   0  0  2  0  0  0  0  0  0  0  0  0
   10.6768  -15.9307   22.1259 N   0  0  0  0  0  0  0  0  0  0  0  0
   12.9229  -16.6364   22.2104 C   0  0  0  0  0  0  0  0  0  0  0  0
   14.2364  -16.6738   22.7344 O   0  0  0  0  0  0  0  0  0  0  0  0
   12.8544  -16.9884   21.0067 O   0  0  0  0  0  0  0  0  0  0  0  0
  2  1  1  0
  3  4  1  0
  3  2  1  0
  4  5  1  0
  5  6  1  1
  7  8  2  0
  7  5  1  0
 10 12  1  0
 10  9  1  6
 11 10  1  0
 12 13  1  1
 13  7  1  0
 14 15  2  0
 14 12  1  0
 16 17  1  0
 17 18  2  0
 19 17  1  0
 19 20  1  0
 21 20  1  1
 21 22  1  0
 22 14  1  0
 23 21  1  0
 24 23  1  0
 25 23  2  0
M  END
$$$$
