MVQ.pdb
     RDKit          3D

 25 24  0  0  1  0  0  0  0  0999 V2000
    5.9924  -12.1470   26.8433 C   0  0  0  0  0  0  0  0  0  0  0  0
    7.4146  -13.1001   27.4145 S   0  0  0  0  0  0  0  0  0  0  0  0
    7.4041  -14.7438   26.6793 C   0  0  0  0  0  0  0  0  0  0  0  0
    6.1421  -14.9754   25.8871 C   0  0  0  0  0  0  0  0  0  0  0  0
    6.2088  -16.3556   25.2408 C   0  0  2  0  0  0  0  0  0  0  0  0
    6.6269  -17.2933   26.2880 N   0  0  0  0  0  0  0  0  0  0  0  0
    7.2191  -16.3090   24.1491 C   0  0  0  0  0  0  0  0  0  0  0  0
    8.0104  -17.2484   24.0035 O   0  0  0  0  0  0  0  0  0  0  0  0
    8.6281  -13.8366   20.0538 C   0  0  0  0  0  0  0  0  0  0  0  0
    7.7216  -13.9683   21.2396 C   0  0  1  0  0  0  0  0  0  0  0  0
    6.3335  -14.2855   20.7028 C   0  0  0  0  0  0  0  0  0  0  0  0
    8.1337  -15.1212   22.0997 C   0  0  2  0  0  0  0  0  0  0  0  0
    7.2744  -15.1986   23.2839 N   0  0  0  0  0  0  0  0  0  0  0  0
    9.5168  -15.1064   22.5889 C   0  0  0  0  0  0  0  0  0  0  0  0
    9.7321  -14.4690   23.6871 O   0  0  0  0  0  0  0  0  0  0  0  0
   12.3317  -20.2046   25.4026 N   0  0  0  0  0  0  0  0  0  0  0  0
   11.9012  -18.8683   25.5144 C   0  0  0  0  0  0  0  0  0  0  0  0
   11.0724  -18.5518   26.3889 O   0  0  0  0  0  0  0  0  0  0  0  0
   12.4272  -17.8251   24.5963 C   0  0  0  0  0  0  0  0  0  0  0  0
   11.3155  -17.2334   23.7819 C   0  0  0  0  0  0  0  0  0  0  0  0
   11.7534  -16.1503   22.8611 C   0  0  2  0  0  0  0  0  0  0  0  0
   10.6459  -15.6975   22.0248 N   0  0  0  0  0  0  0  0  0  0  0  0
   12.8200  -16.6016   21.9463 C   0  0  0  0  0  0  0  0  0  0  0  0
   14.1693  -16.6668   22.3661 O   0  0  0  0  0  0  0  0  0  0  0  0
   12.6491  -16.9586   20.7543 O   0  0  0  0  0  0  0  0  0  0  0  0
  2  1  1  0
  3  4  1  0
  3  2  1  0
  4  5  1  0
  5  6  1  1
  7  8  2  0
  7  5  1  0
 10 12  1  0
 10  9  1  6
 11 10  1  0
 12 13  1  1
 13  7  1  0
 14 15  2  0
 14 12  1  0
 16 17  1  0
 17 18  2  0
 19 17  1  0
 19 20  1  0
 21 20  1  1
 21 22  1  0
 22 14  1  0
 23 21  1  0
 24 23  1  0
 25 23  2  0
M  END
$$$$
