MVQ.pdb
     RDKit          3D

 25 24  0  0  1  0  0  0  0  0999 V2000
    6.6555  -11.0789   26.7612 C   0  0  0  0  0  0  0  0  0  0  0  0
    6.4416  -12.4743   27.8857 S   0  0  0  0  0  0  0  0  0  0  0  0
    5.8023  -13.9038   26.9967 C   0  0  0  0  0  0  0  0  0  0  0  0
    6.8413  -14.4703   26.0621 C   0  0  0  0  0  0  0  0  0  0  0  0
    6.2087  -15.5850   25.2348 C   0  0  2  0  0  0  0  0  0  0  0  0
    5.9353  -16.6927   26.1563 N   0  0  0  0  0  0  0  0  0  0  0  0
    7.1863  -16.0024   24.1933 C   0  0  0  0  0  0  0  0  0  0  0  0
    7.6557  -17.1467   24.2144 O   0  0  0  0  0  0  0  0  0  0  0  0
    9.2608  -14.7250   19.8476 C   0  0  0  0  0  0  0  0  0  0  0  0
    8.3533  -14.4003   20.9949 C   0  0  1  0  0  0  0  0  0  0  0  0
    6.9299  -14.4381   20.4580 C   0  0  0  0  0  0  0  0  0  0  0  0
    8.4480  -15.4456   22.0614 C   0  0  2  0  0  0  0  0  0  0  0  0
    7.5763  -15.0977   23.1865 N   0  0  0  0  0  0  0  0  0  0  0  0
    9.7819  -15.6811   22.6251 C   0  0  0  0  0  0  0  0  0  0  0  0
   10.2601  -14.7529   23.3791 O   0  0  0  0  0  0  0  0  0  0  0  0
   13.1266  -19.2485   26.0683 N   0  0  0  0  0  0  0  0  0  0  0  0
   11.7480  -18.9662   26.0112 C   0  0  0  0  0  0  0  0  0  0  0  0
   11.0052  -19.2943   26.9558 O   0  0  0  0  0  0  0  0  0  0  0  0
   11.1655  -18.2773   24.8305 C   0  0  0  0  0  0  0  0  0  0  0  0
   12.2260  -18.0047   23.8056 C   0  0  0  0  0  0  0  0  0  0  0  0
   11.9749  -16.7879   22.9875 C   0  0  2  0  0  0  0  0  0  0  0  0
   10.6142  -16.7866   22.4590 N   0  0  0  0  0  0  0  0  0  0  0  0
   12.8821  -16.7072   21.8262 C   0  0  0  0  0  0  0  0  0  0  0  0
   14.2095  -16.2371   21.9619 O   0  0  0  0  0  0  0  0  0  0  0  0
   12.5843  -17.0324   20.6502 O   0  0  0  0  0  0  0  0  0  0  0  0
  2  1  1  0
  3  4  1  0
  3  2  1  0
  4  5  1  0
  5  6  1  1
  7  8  2  0
  7  5  1  0
 10 12  1  0
 10  9  1  6
 11 10  1  0
 12 13  1  1
 13  7  1  0
 14 15  2  0
 14 12  1  0
 16 17  1  0
 17 18  2  0
 19 17  1  0
 19 20  1  0
 21 20  1  6
 21 22  1  0
 22 14  1  0
 23 21  1  0
 24 23  1  0
 25 23  2  0
M  END
$$$$
