MVQ.pdb
     RDKit          3D

 25 24  0  0  1  0  0  0  0  0999 V2000
    7.7699  -11.6950   19.1187 C   0  0  0  0  0  0  0  0  0  0  0  0
    7.2733  -13.2647   18.3792 S   0  0  0  0  0  0  0  0  0  0  0  0
    7.3930  -14.5933   19.5888 C   0  0  0  0  0  0  0  0  0  0  0  0
    7.8414  -14.0677   20.9290 C   0  0  0  0  0  0  0  0  0  0  0  0
    7.9460  -15.2325   21.9086 C   0  0  2  0  0  0  0  0  0  0  0  0
    6.5819  -15.7241   22.1283 N   0  0  0  0  0  0  0  0  0  0  0  0
    8.5265  -14.7200   23.1794 C   0  0  0  0  0  0  0  0  0  0  0  0
    9.7271  -14.4272   23.2324 O   0  0  0  0  0  0  0  0  0  0  0  0
    7.6482  -12.8014   27.6331 C   0  0  0  0  0  0  0  0  0  0  0  0
    7.1319  -13.3583   26.3413 C   0  0  1  0  0  0  0  0  0  0  0  0
    6.7666  -12.1713   25.4620 C   0  0  0  0  0  0  0  0  0  0  0  0
    8.2009  -14.1223   25.6256 C   0  0  2  0  0  0  0  0  0  0  0  0
    7.7118  -14.5686   24.3186 N   0  0  0  0  0  0  0  0  0  0  0  0
    8.7158  -15.3151   26.3073 C   0  0  0  0  0  0  0  0  0  0  0  0
    7.9233  -16.3283   26.3715 O   0  0  0  0  0  0  0  0  0  0  0  0
   11.7470  -18.8555   23.6087 N   0  0  0  0  0  0  0  0  0  0  0  0
   12.2999  -18.3154   24.7861 C   0  0  0  0  0  0  0  0  0  0  0  0
   13.3665  -17.6737   24.7361 O   0  0  0  0  0  0  0  0  0  0  0  0
   11.6221  -18.5030   26.0949 C   0  0  0  0  0  0  0  0  0  0  0  0
   11.6680  -17.2363   26.8964 C   0  0  0  0  0  0  0  0  0  0  0  0
   10.3461  -16.8132   27.4314 C   0  0  2  0  0  0  0  0  0  0  0  0
    9.9620  -15.5087   26.9004 N   0  0  0  0  0  0  0  0  0  0  0  0
   10.3611  -16.6860   28.9017 C   0  0  0  0  0  0  0  0  0  0  0  0
   10.4932  -17.8206   29.7362 O   0  0  0  0  0  0  0  0  0  0  0  0
   10.2626  -15.6068   29.5366 O   0  0  0  0  0  0  0  0  0  0  0  0
  2  1  1  0
  3  4  1  0
  3  2  1  0
  4  5  1  0
  5  6  1  1
  7  8  2  0
  7  5  1  0
 10 12  1  0
 10  9  1  1
 11 10  1  0
 12 13  1  6
 13  7  1  0
 14 15  2  0
 14 12  1  0
 16 17  1  0
 17 18  2  0
 19 17  1  0
 19 20  1  0
 21 20  1  6
 21 22  1  0
 22 14  1  0
 23 21  1  0
 24 23  1  0
 25 23  2  0
M  END
$$$$
