MVQ.pdb
     RDKit          3D

 25 24  0  0  1  0  0  0  0  0999 V2000
    7.9666  -11.8905   27.2860 C   0  0  0  0  0  0  0  0  0  0  0  0
    6.1661  -11.9938   27.2177 S   0  0  0  0  0  0  0  0  0  0  0  0
    5.6486  -13.6743   26.8295 C   0  0  0  0  0  0  0  0  0  0  0  0
    6.6963  -14.3895   26.0143 C   0  0  0  0  0  0  0  0  0  0  0  0
    6.0119  -15.4214   25.1231 C   0  0  2  0  0  0  0  0  0  0  0  0
    5.5066  -16.4760   26.0082 N   0  0  0  0  0  0  0  0  0  0  0  0
    7.0274  -15.9708   24.1843 C   0  0  0  0  0  0  0  0  0  0  0  0
    7.5025  -17.0955   24.3822 O   0  0  0  0  0  0  0  0  0  0  0  0
    9.3128  -15.3198   19.8138 C   0  0  0  0  0  0  0  0  0  0  0  0
    8.3677  -14.8174   20.8625 C   0  0  1  0  0  0  0  0  0  0  0  0
    6.9626  -14.9553   20.2948 C   0  0  0  0  0  0  0  0  0  0  0  0
    8.4311  -15.6710   22.0898 C   0  0  2  0  0  0  0  0  0  0  0  0
    7.4466  -15.2127   23.0734 N   0  0  0  0  0  0  0  0  0  0  0  0
    9.7228  -15.7178   22.7839 C   0  0  0  0  0  0  0  0  0  0  0  0
   10.1124  -14.6280   23.3490 O   0  0  0  0  0  0  0  0  0  0  0  0
   12.2623  -19.5415   26.6437 N   0  0  0  0  0  0  0  0  0  0  0  0
   11.1941  -18.6319   26.7667 C   0  0  0  0  0  0  0  0  0  0  0  0
   10.4123  -18.7160   27.7329 O   0  0  0  0  0  0  0  0  0  0  0  0
   10.9874  -17.5666   25.7518 C   0  0  0  0  0  0  0  0  0  0  0  0
   12.0348  -17.6505   24.6817 C   0  0  0  0  0  0  0  0  0  0  0  0
   11.8788  -16.6364   23.6047 C   0  0  2  0  0  0  0  0  0  0  0  0
   10.5981  -16.7936   22.9220 N   0  0  0  0  0  0  0  0  0  0  0  0
   12.9279  -16.7605   22.5740 C   0  0  0  0  0  0  0  0  0  0  0  0
   12.6193  -17.1771   21.2578 O   0  0  0  0  0  0  0  0  0  0  0  0
   14.1481  -16.5202   22.7496 O   0  0  0  0  0  0  0  0  0  0  0  0
  2  1  1  0
  3  4  1  0
  3  2  1  0
  4  5  1  0
  5  6  1  1
  7  8  2  0
  7  5  1  0
 10 12  1  0
 10  9  1  6
 11 10  1  0
 12 13  1  1
 13  7  1  0
 14 15  2  0
 14 12  1  0
 16 17  1  0
 17 18  2  0
 19 17  1  0
 19 20  1  0
 21 20  1  1
 21 22  1  0
 22 14  1  0
 23 21  1  0
 24 23  1  0
 25 23  2  0
M  END
$$$$
