MVQ.pdb
     RDKit          3D

 25 24  0  0  1  0  0  0  0  0999 V2000
    8.4212  -11.7039   19.3274 C   0  0  0  0  0  0  0  0  0  0  0  0
    7.4653  -13.0486   18.5958 S   0  0  0  0  0  0  0  0  0  0  0  0
    7.4911  -14.4933   19.6705 C   0  0  0  0  0  0  0  0  0  0  0  0
    8.1178  -14.1670   21.0026 C   0  0  0  0  0  0  0  0  0  0  0  0
    8.0743  -15.4084   21.8882 C   0  0  2  0  0  0  0  0  0  0  0  0
    6.6783  -15.8568   21.9197 N   0  0  0  0  0  0  0  0  0  0  0  0
    8.5288  -15.0224   23.2517 C   0  0  0  0  0  0  0  0  0  0  0  0
    9.7386  -14.9472   23.4978 O   0  0  0  0  0  0  0  0  0  0  0  0
    7.2341  -12.6418   27.3529 C   0  0  0  0  0  0  0  0  0  0  0  0
    6.8475  -13.2900   26.0584 C   0  0  1  0  0  0  0  0  0  0  0  0
    6.7206  -12.1782   25.0271 C   0  0  0  0  0  0  0  0  0  0  0  0
    7.9258  -14.2108   25.5808 C   0  0  2  0  0  0  0  0  0  0  0  0
    7.5846  -14.7433   24.2591 N   0  0  0  0  0  0  0  0  0  0  0  0
    8.2180  -15.3684   26.4336 C   0  0  0  0  0  0  0  0  0  0  0  0
    7.4119  -16.3687   26.3421 O   0  0  0  0  0  0  0  0  0  0  0  0
   10.9388  -19.5007   24.8687 N   0  0  0  0  0  0  0  0  0  0  0  0
   11.7798  -18.4167   25.1870 C   0  0  0  0  0  0  0  0  0  0  0  0
   12.8787  -18.2915   24.6139 O   0  0  0  0  0  0  0  0  0  0  0  0
   11.3692  -17.4145   26.2043 C   0  0  0  0  0  0  0  0  0  0  0  0
   10.0360  -17.7753   26.7886 C   0  0  0  0  0  0  0  0  0  0  0  0
    9.5853  -16.8609   27.8719 C   0  0  2  0  0  0  0  0  0  0  0  0
    9.2632  -15.5404   27.3393 N   0  0  0  0  0  0  0  0  0  0  0  0
   10.6289  -16.6629   28.8965 C   0  0  0  0  0  0  0  0  0  0  0  0
   11.1388  -15.3757   29.1870 O   0  0  0  0  0  0  0  0  0  0  0  0
   11.1496  -17.5746   29.5859 O   0  0  0  0  0  0  0  0  0  0  0  0
  2  1  1  0
  3  4  1  0
  3  2  1  0
  4  5  1  0
  5  6  1  1
  7  8  2  0
  7  5  1  0
 10 12  1  0
 10  9  1  1
 11 10  1  0
 12 13  1  6
 13  7  1  0
 14 15  2  0
 14 12  1  0
 16 17  1  0
 17 18  2  0
 19 17  1  0
 19 20  1  0
 21 20  1  6
 21 22  1  0
 22 14  1  0
 23 21  1  0
 24 23  1  0
 25 23  2  0
M  END
$$$$
