MVQ.pdb
     RDKit          3D

 25 24  0  0  1  0  0  0  0  0999 V2000
    5.0390  -11.3980   26.7557 C   0  0  0  0  0  0  0  0  0  0  0  0
    6.8182  -11.2155   26.9978 S   0  0  0  0  0  0  0  0  0  0  0  0
    7.6619  -12.7656   26.6402 C   0  0  0  0  0  0  0  0  0  0  0  0
    6.8660  -13.6057   25.6735 C   0  0  0  0  0  0  0  0  0  0  0  0
    7.6607  -14.8645   25.3399 C   0  0  2  0  0  0  0  0  0  0  0  0
    9.0662  -14.5682   25.6359 N   0  0  0  0  0  0  0  0  0  0  0  0
    7.4830  -15.1556   23.8914 C   0  0  0  0  0  0  0  0  0  0  0  0
    6.4018  -15.5942   23.4808 O   0  0  0  0  0  0  0  0  0  0  0  0
    8.5220  -13.9612   19.3597 C   0  0  0  0  0  0  0  0  0  0  0  0
    8.6559  -13.8041   20.8439 C   0  0  1  0  0  0  0  0  0  0  0  0
    7.5420  -12.8694   21.2924 C   0  0  0  0  0  0  0  0  0  0  0  0
    8.4392  -15.1109   21.5396 C   0  0  2  0  0  0  0  0  0  0  0  0
    8.5425  -14.9325   22.9902 N   0  0  0  0  0  0  0  0  0  0  0  0
    9.3607  -16.1966   21.1868 C   0  0  0  0  0  0  0  0  0  0  0  0
   10.5439  -16.1342   21.6916 O   0  0  0  0  0  0  0  0  0  0  0  0
    9.7220  -22.0276   21.6982 N   0  0  0  0  0  0  0  0  0  0  0  0
   10.7370  -21.5455   20.8490 C   0  0  0  0  0  0  0  0  0  0  0  0
   11.9331  -21.7567   21.1256 O   0  0  0  0  0  0  0  0  0  0  0  0
   10.3960  -20.7837   19.6198 C   0  0  0  0  0  0  0  0  0  0  0  0
    9.4405  -19.6726   19.9387 C   0  0  0  0  0  0  0  0  0  0  0  0
   10.1045  -18.3872   20.2845 C   0  0  2  0  0  0  0  0  0  0  0  0
    9.1299  -17.3040   20.3726 N   0  0  0  0  0  0  0  0  0  0  0  0
   11.0947  -17.9863   19.2661 C   0  0  0  0  0  0  0  0  0  0  0  0
   12.4766  -18.2260   19.4505 O   0  0  0  0  0  0  0  0  0  0  0  0
   10.8263  -17.4167   18.1794 O   0  0  0  0  0  0  0  0  0  0  0  0
  2  1  1  0
  3  4  1  0
  3  2  1  0
  4  5  1  0
  5  6  1  6
  7  8  2  0
  7  5  1  0
 10 12  1  0
 10  9  1  6
 11 10  1  0
 12 13  1  1
 13  7  1  0
 14 15  2  0
 14 12  1  0
 16 17  1  0
 17 18  2  0
 19 17  1  0
 19 20  1  0
 21 20  1  6
 21 22  1  0
 22 14  1  0
 23 21  1  0
 24 23  1  0
 25 23  2  0
M  END
$$$$
