MVQ.pdb
     RDKit          3D

 25 24  0  0  1  0  0  0  0  0999 V2000
    7.8392  -11.4756   27.1501 C   0  0  0  0  0  0  0  0  0  0  0  0
    6.1340  -12.0122   26.9016 S   0  0  0  0  0  0  0  0  0  0  0  0
    5.9776  -13.7760   27.2286 C   0  0  0  0  0  0  0  0  0  0  0  0
    6.9530  -14.5702   26.3969 C   0  0  0  0  0  0  0  0  0  0  0  0
    6.1908  -15.2802   25.2823 C   0  0  2  0  0  0  0  0  0  0  0  0
    5.3956  -16.3352   25.9191 N   0  0  0  0  0  0  0  0  0  0  0  0
    7.1835  -15.8702   24.3436 C   0  0  0  0  0  0  0  0  0  0  0  0
    7.7114  -16.9565   24.6104 O   0  0  0  0  0  0  0  0  0  0  0  0
    9.2946  -15.5484   19.8618 C   0  0  0  0  0  0  0  0  0  0  0  0
    8.3288  -15.0098   20.8731 C   0  0  1  0  0  0  0  0  0  0  0  0
    6.9340  -15.3953   20.4024 C   0  0  0  0  0  0  0  0  0  0  0  0
    8.5369  -15.6571   22.2059 C   0  0  2  0  0  0  0  0  0  0  0  0
    7.5212  -15.1941   23.1549 N   0  0  0  0  0  0  0  0  0  0  0  0
    9.8382  -15.4290   22.8441 C   0  0  0  0  0  0  0  0  0  0  0  0
    9.8673  -14.5649   23.7987 O   0  0  0  0  0  0  0  0  0  0  0  0
   11.6445  -18.5368   27.0044 N   0  0  0  0  0  0  0  0  0  0  0  0
   11.3312  -17.1728   27.1622 C   0  0  0  0  0  0  0  0  0  0  0  0
   11.0613  -16.7222   28.2918 O   0  0  0  0  0  0  0  0  0  0  0  0
   11.3188  -16.2593   25.9904 C   0  0  0  0  0  0  0  0  0  0  0  0
   11.5309  -17.0301   24.7215 C   0  0  0  0  0  0  0  0  0  0  0  0
   12.0694  -16.2118   23.6021 C   0  0  2  0  0  0  0  0  0  0  0  0
   11.0640  -16.0281   22.5598 N   0  0  0  0  0  0  0  0  0  0  0  0
   13.2341  -16.8526   22.9609 C   0  0  0  0  0  0  0  0  0  0  0  0
   14.5521  -16.5934   23.4045 O   0  0  0  0  0  0  0  0  0  0  0  0
   13.1794  -17.6581   21.9987 O   0  0  0  0  0  0  0  0  0  0  0  0
  2  1  1  0
  3  4  1  0
  3  2  1  0
  4  5  1  0
  5  6  1  1
  7  8  2  0
  7  5  1  0
 10 12  1  0
 10  9  1  6
 11 10  1  0
 12 13  1  1
 13  7  1  0
 14 15  2  0
 14 12  1  0
 16 17  1  0
 17 18  2  0
 19 17  1  0
 19 20  1  0
 21 20  1  1
 21 22  1  0
 22 14  1  0
 23 21  1  0
 24 23  1  0
 25 23  2  0
M  END
$$$$
