MVQ.pdb
     RDKit          3D

 25 24  0  0  1  0  0  0  0  0999 V2000
    6.5018  -21.1049   25.2795 C   0  0  0  0  0  0  0  0  0  0  0  0
    5.5771  -21.2000   23.7324 S   0  0  0  0  0  0  0  0  0  0  0  0
    5.1307  -19.5499   23.1663 C   0  0  0  0  0  0  0  0  0  0  0  0
    5.9759  -18.4984   23.8398 C   0  0  0  0  0  0  0  0  0  0  0  0
    5.5029  -17.1195   23.3905 C   0  0  2  0  0  0  0  0  0  0  0  0
    5.3605  -17.1756   21.9319 N   0  0  0  0  0  0  0  0  0  0  0  0
    6.5404  -16.1244   23.7752 C   0  0  0  0  0  0  0  0  0  0  0  0
    7.5273  -15.9538   23.0494 O   0  0  0  0  0  0  0  0  0  0  0  0
    7.8423  -12.6296   27.0790 C   0  0  0  0  0  0  0  0  0  0  0  0
    6.8067  -13.5433   26.4976 C   0  0  1  0  0  0  0  0  0  0  0  0
    5.8003  -12.6650   25.7687 C   0  0  0  0  0  0  0  0  0  0  0  0
    7.4130  -14.4552   25.4780 C   0  0  2  0  0  0  0  0  0  0  0  0
    6.3994  -15.3788   24.9620 N   0  0  0  0  0  0  0  0  0  0  0  0
    8.5376  -15.2816   25.9308 C   0  0  0  0  0  0  0  0  0  0  0  0
    8.2413  -16.3313   26.6157 O   0  0  0  0  0  0  0  0  0  0  0  0
   14.2600  -15.8218   23.4920 N   0  0  0  0  0  0  0  0  0  0  0  0
   14.3220  -16.7735   24.5284 C   0  0  0  0  0  0  0  0  0  0  0  0
   15.3557  -17.4490   24.6929 O   0  0  0  0  0  0  0  0  0  0  0  0
   13.1623  -16.9826   25.4333 C   0  0  0  0  0  0  0  0  0  0  0  0
   12.0698  -16.0035   25.1216 C   0  0  0  0  0  0  0  0  0  0  0  0
   10.8604  -16.1584   25.9737 C   0  0  2  0  0  0  0  0  0  0  0  0
    9.9012  -15.0883   25.7170 N   0  0  0  0  0  0  0  0  0  0  0  0
   11.1875  -16.1000   27.4117 C   0  0  0  0  0  0  0  0  0  0  0  0
   11.6793  -17.2339   28.1000 O   0  0  0  0  0  0  0  0  0  0  0  0
   11.0690  -15.0845   28.1411 O   0  0  0  0  0  0  0  0  0  0  0  0
  2  1  1  0
  3  4  1  0
  3  2  1  0
  4  5  1  0
  5  6  1  6
  7  8  2  0
  7  5  1  0
 10 12  1  0
 10  9  1  6
 11 10  1  0
 12 13  1  1
 13  7  1  0
 14 15  2  0
 14 12  1  0
 16 17  1  0
 17 18  2  0
 19 17  1  0
 19 20  1  0
 21 20  1  6
 21 22  1  0
 22 14  1  0
 23 21  1  0
 24 23  1  0
 25 23  2  0
M  END
$$$$
