MVQ.pdb
     RDKit          3D

 25 24  0  0  1  0  0  0  0  0999 V2000
    9.9488  -13.0127   28.5990 C   0  0  0  0  0  0  0  0  0  0  0  0
   10.0856  -14.6864   29.2604 S   0  0  0  0  0  0  0  0  0  0  0  0
    8.7471  -15.7179   28.6382 C   0  0  0  0  0  0  0  0  0  0  0  0
    8.8886  -15.9537   27.1556 C   0  0  0  0  0  0  0  0  0  0  0  0
    7.5752  -16.5102   26.6147 C   0  0  2  0  0  0  0  0  0  0  0  0
    7.3644  -17.8066   27.2672 N   0  0  0  0  0  0  0  0  0  0  0  0
    7.7152  -16.6836   25.1433 C   0  0  0  0  0  0  0  0  0  0  0  0
    7.6290  -17.8132   24.6467 O   0  0  0  0  0  0  0  0  0  0  0  0
    8.0868  -14.3842   20.7532 C   0  0  0  0  0  0  0  0  0  0  0  0
    7.8416  -14.3310   22.2305 C   0  0  1  0  0  0  0  0  0  0  0  0
    6.3501  -14.0989   22.4236 C   0  0  0  0  0  0  0  0  0  0  0  0
    8.1686  -15.6425   22.8723 C   0  0  2  0  0  0  0  0  0  0  0  0
    7.9451  -15.5653   24.3183 N   0  0  0  0  0  0  0  0  0  0  0  0
    9.5388  -16.1335   22.6881 C   0  0  0  0  0  0  0  0  0  0  0  0
   10.4678  -15.4935   23.3094 O   0  0  0  0  0  0  0  0  0  0  0  0
   10.0910  -19.6790   24.4390 N   0  0  0  0  0  0  0  0  0  0  0  0
   11.4850  -19.5987   24.6228 C   0  0  0  0  0  0  0  0  0  0  0  0
   11.9800  -19.8285   25.7426 O   0  0  0  0  0  0  0  0  0  0  0  0
   12.3777  -19.2411   23.4901 C   0  0  0  0  0  0  0  0  0  0  0  0
   11.5776  -19.0156   22.2418 C   0  0  0  0  0  0  0  0  0  0  0  0
   11.3937  -17.5810   21.8945 C   0  0  2  0  0  0  0  0  0  0  0  0
    9.9813  -17.2136   21.9265 N   0  0  0  0  0  0  0  0  0  0  0  0
   11.8817  -17.2755   20.5356 C   0  0  0  0  0  0  0  0  0  0  0  0
   13.2630  -17.1330   20.2655 O   0  0  0  0  0  0  0  0  0  0  0  0
   11.1552  -17.1173   19.5234 O   0  0  0  0  0  0  0  0  0  0  0  0
  2  1  1  0
  3  4  1  0
  3  2  1  0
  4  5  1  0
  5  6  1  1
  7  8  2  0
  7  5  1  0
 10 12  1  0
 10  9  1  6
 11 10  1  0
 12 13  1  1
 13  7  1  0
 14 15  2  0
 14 12  1  0
 16 17  1  0
 17 18  2  0
 19 17  1  0
 19 20  1  0
 21 20  1  6
 21 22  1  0
 22 14  1  0
 23 21  1  0
 24 23  1  0
 25 23  2  0
M  END
$$$$
