MVQ.pdb
     RDKit          3D

 25 24  0  0  1  0  0  0  0  0999 V2000
    7.3989  -18.9302   20.3376 C   0  0  0  0  0  0  0  0  0  0  0  0
    5.7655  -18.1926   20.1241 S   0  0  0  0  0  0  0  0  0  0  0  0
    5.8535  -16.4053   20.3249 C   0  0  0  0  0  0  0  0  0  0  0  0
    6.7397  -16.0332   21.4869 C   0  0  0  0  0  0  0  0  0  0  0  0
    6.8285  -14.5128   21.5755 C   0  0  2  0  0  0  0  0  0  0  0  0
    7.5299  -14.0591   20.3701 N   0  0  0  0  0  0  0  0  0  0  0  0
    7.6072  -14.1633   22.7945 C   0  0  0  0  0  0  0  0  0  0  0  0
    8.8432  -14.2015   22.7661 O   0  0  0  0  0  0  0  0  0  0  0  0
    7.3880  -12.6257   27.5225 C   0  0  0  0  0  0  0  0  0  0  0  0
    6.7259  -12.8201   26.1924 C   0  0  1  0  0  0  0  0  0  0  0  0
    6.5652  -11.4400   25.5719 C   0  0  0  0  0  0  0  0  0  0  0  0
    7.5991  -13.6155   25.2738 C   0  0  2  0  0  0  0  0  0  0  0  0
    6.9394  -13.7901   23.9773 N   0  0  0  0  0  0  0  0  0  0  0  0
    7.9761  -14.9568   25.7335 C   0  0  0  0  0  0  0  0  0  0  0  0
    7.0264  -15.8221   25.8241 O   0  0  0  0  0  0  0  0  0  0  0  0
   12.8860  -16.3248   23.3380 N   0  0  0  0  0  0  0  0  0  0  0  0
   12.2738  -17.3269   24.1156 C   0  0  0  0  0  0  0  0  0  0  0  0
   12.2235  -18.4982   23.6947 O   0  0  0  0  0  0  0  0  0  0  0  0
   11.6840  -17.0017   25.4400 C   0  0  0  0  0  0  0  0  0  0  0  0
   10.2925  -17.5512   25.5444 C   0  0  0  0  0  0  0  0  0  0  0  0
    9.4258  -16.8188   26.5062 C   0  0  2  0  0  0  0  0  0  0  0  0
    9.2371  -15.4331   26.0875 N   0  0  0  0  0  0  0  0  0  0  0  0
   10.0149  -16.7776   27.8588 C   0  0  0  0  0  0  0  0  0  0  0  0
   10.2742  -17.9644   28.5838 O   0  0  0  0  0  0  0  0  0  0  0  0
   10.3329  -15.7328   28.4791 O   0  0  0  0  0  0  0  0  0  0  0  0
  2  1  1  0
  3  4  1  0
  3  2  1  0
  4  5  1  0
  5  6  1  6
  7  8  2  0
  7  5  1  0
 10 12  1  0
 10  9  1  1
 11 10  1  0
 12 13  1  6
 13  7  1  0
 14 15  2  0
 14 12  1  0
 16 17  1  0
 17 18  2  0
 19 17  1  0
 19 20  1  0
 21 20  1  6
 21 22  1  0
 22 14  1  0
 23 21  1  0
 24 23  1  0
 25 23  2  0
M  END
$$$$
