MVQ.pdb
     RDKit          3D

 25 24  0  0  1  0  0  0  0  0999 V2000
    7.4235  -12.3413   19.6875 C   0  0  0  0  0  0  0  0  0  0  0  0
    8.4354  -13.3745   20.7674 S   0  0  0  0  0  0  0  0  0  0  0  0
    7.3895  -14.3609   21.8516 C   0  0  0  0  0  0  0  0  0  0  0  0
    6.3137  -15.0706   21.0688 C   0  0  0  0  0  0  0  0  0  0  0  0
    6.5096  -16.5769   21.2103 C   0  0  2  0  0  0  0  0  0  0  0  0
    5.3946  -17.2166   20.5044 N   0  0  0  0  0  0  0  0  0  0  0  0
    6.4727  -16.9159   22.6589 C   0  0  0  0  0  0  0  0  0  0  0  0
    5.5329  -16.5201   23.3589 O   0  0  0  0  0  0  0  0  0  0  0  0
    7.4069  -20.2315   25.9938 C   0  0  0  0  0  0  0  0  0  0  0  0
    7.3972  -19.6893   24.5969 C   0  0  1  0  0  0  0  0  0  0  0  0
    6.0507  -20.0549   23.9895 C   0  0  0  0  0  0  0  0  0  0  0  0
    7.4843  -18.1957   24.6047 C   0  0  2  0  0  0  0  0  0  0  0  0
    7.5046  -17.6851   23.2315 N   0  0  0  0  0  0  0  0  0  0  0  0
    8.6491  -17.6152   25.2822 C   0  0  0  0  0  0  0  0  0  0  0  0
    9.7506  -17.5924   24.6151 O   0  0  0  0  0  0  0  0  0  0  0  0
    9.1737  -12.8117   28.9962 N   0  0  0  0  0  0  0  0  0  0  0  0
    8.6356  -12.9753   27.7050 C   0  0  0  0  0  0  0  0  0  0  0  0
    7.9240  -12.0814   27.2087 O   0  0  0  0  0  0  0  0  0  0  0  0
    8.9084  -14.2089   26.9229 C   0  0  0  0  0  0  0  0  0  0  0  0
    9.7000  -15.1851   27.7411 C   0  0  0  0  0  0  0  0  0  0  0  0
    9.9694  -16.4735   27.0482 C   0  0  2  0  0  0  0  0  0  0  0  0
    8.7302  -17.0741   26.5639 N   0  0  0  0  0  0  0  0  0  0  0  0
   10.5983  -17.4618   27.9460 C   0  0  0  0  0  0  0  0  0  0  0  0
    9.9318  -18.6567   28.3056 O   0  0  0  0  0  0  0  0  0  0  0  0
   11.7384  -17.3505   28.4610 O   0  0  0  0  0  0  0  0  0  0  0  0
  2  1  1  0
  3  4  1  0
  3  2  1  0
  4  5  1  0
  5  6  1  6
  7  8  2  0
  7  5  1  0
 10 12  1  0
 10  9  1  1
 11 10  1  0
 12 13  1  6
 13  7  1  0
 14 15  2  0
 14 12  1  0
 16 17  1  0
 17 18  2  0
 19 17  1  0
 19 20  1  0
 21 20  1  1
 21 22  1  0
 22 14  1  0
 23 21  1  0
 24 23  1  0
 25 23  2  0
M  END
$$$$
