VAH.pdb
     RDKit          3D

 23 23  0  0  1  0  0  0  0  0999 V2000
    5.6967  -12.0133   26.5406 C   0  0  0  0  0  0  0  0  0  0  0  0
    6.7734  -12.9352   26.0141 C   0  0  2  0  0  0  0  0  0  0  0  0
    7.6652  -12.2444   25.0259 C   0  0  0  0  0  0  0  0  0  0  0  0
    6.1633  -14.2001   25.4116 C   0  0  2  0  0  0  0  0  0  0  0  0
    5.2652  -14.8444   26.3161 N   0  0  0  0  0  0  0  0  0  0  0  0
    7.3161  -15.0957   25.0404 C   0  0  0  0  0  0  0  0  0  0  0  0
    7.8678  -15.8438   25.8860 O   0  0  0  0  0  0  0  0  0  0  0  0
    9.0799  -15.9503   21.7664 C   0  0  0  0  0  0  0  0  0  0  0  0
    8.8486  -16.0355   23.2632 C   0  0  2  0  0  0  0  0  0  0  0  0
    7.8341  -15.1379   23.7192 N   0  0  0  0  0  0  0  0  0  0  0  0
   10.1305  -15.9057   23.9674 C   0  0  0  0  0  0  0  0  0  0  0  0
   10.5340  -14.7500   24.2730 O   0  0  0  0  0  0  0  0  0  0  0  0
   10.9688  -16.9861   24.3402 N   0  0  0  0  0  0  0  0  0  0  0  0
   11.6554  -17.1613   25.5675 C   0  0  1  0  0  0  0  0  0  0  0  0
   10.8377  -17.0886   26.8112 C   0  0  0  0  0  0  0  0  0  0  0  0
   10.7268  -15.7525   27.4263 C   0  0  0  0  0  0  0  0  0  0  0  0
   11.0996  -14.5272   26.9864 C   0  0  0  0  0  0  0  0  0  0  0  0
   10.7841  -13.6059   27.9459 N   0  0  0  0  0  0  0  0  0  0  0  0
   10.2227  -14.2850   28.9585 C   0  0  0  0  0  0  0  0  0  0  0  0
   10.1823  -15.5909   28.6546 N   0  0  0  0  0  0  0  0  0  0  0  0
   12.3992  -18.4615   25.6307 C   0  0  0  0  0  0  0  0  0  0  0  0
   13.6648  -18.6211   26.1067 O   0  0  0  0  0  0  0  0  0  0  0  0
   11.7812  -19.4689   25.2033 O   0  0  0  0  0  0  0  0  0  0  0  0
  2  4  1  0
  2  1  1  6
  2  3  1  0
  4  5  1  1
  6  4  1  0
  6  7  2  0
  9  8  1  6
  9 10  1  0
  9 11  1  0
 10  6  1  0
 11 13  1  0
 12 11  2  0
 13 14  1  0
 14 21  1  0
 14 15  1  1
 16 15  1  0
 17 16  2  0
 18 17  1  0
 19 18  1  0
 19 20  2  0
 20 16  1  0
 21 23  2  0
 21 22  1  0
M  END
$$$$
