VAH.pdb
     RDKit          3D

 23 23  0  0  1  0  0  0  0  0999 V2000
    7.6416  -15.4465   15.3808 C   0  0  0  0  0  0  0  0  0  0  0  0
    8.2443  -15.3390   16.7634 C   0  0  2  0  0  0  0  0  0  0  0  0
    8.0532  -16.5984   17.5548 C   0  0  0  0  0  0  0  0  0  0  0  0
    7.6832  -14.1305   17.5117 C   0  0  2  0  0  0  0  0  0  0  0  0
    7.8304  -12.9224   16.7642 N   0  0  0  0  0  0  0  0  0  0  0  0
    8.4160  -14.0638   18.8261 C   0  0  0  0  0  0  0  0  0  0  0  0
    9.6383  -13.7784   18.8849 O   0  0  0  0  0  0  0  0  0  0  0  0
    7.4020  -14.4127   22.4863 C   0  0  0  0  0  0  0  0  0  0  0  0
    8.3924  -14.3032   21.3424 C   0  0  2  0  0  0  0  0  0  0  0  0
    7.7618  -14.3196   20.0599 N   0  0  0  0  0  0  0  0  0  0  0  0
    9.4491  -15.3092   21.5084 C   0  0  0  0  0  0  0  0  0  0  0  0
    9.1942  -16.5054   21.1985 O   0  0  0  0  0  0  0  0  0  0  0  0
   10.7542  -15.0477   21.9955 N   0  0  0  0  0  0  0  0  0  0  0  0
   11.7871  -15.9864   22.2418 C   0  0  1  0  0  0  0  0  0  0  0  0
   13.1570  -15.6119   21.7903 C   0  0  0  0  0  0  0  0  0  0  0  0
   13.3097  -15.3714   20.3431 C   0  0  0  0  0  0  0  0  0  0  0  0
   12.6213  -15.8425   19.2764 C   0  0  0  0  0  0  0  0  0  0  0  0
   13.1716  -15.3213   18.1386 N   0  0  0  0  0  0  0  0  0  0  0  0
   14.1896  -14.5388   18.5297 C   0  0  0  0  0  0  0  0  0  0  0  0
   14.2838  -14.5610   19.8677 N   0  0  0  0  0  0  0  0  0  0  0  0
   11.9071  -16.3430   23.6930 C   0  0  0  0  0  0  0  0  0  0  0  0
   11.1427  -15.8281   24.6952 O   0  0  0  0  0  0  0  0  0  0  0  0
   12.7927  -17.1874   23.9795 O   0  0  0  0  0  0  0  0  0  0  0  0
  2  4  1  0
  2  1  1  6
  2  3  1  0
  4  5  1  6
  6  4  1  0
  6  7  2  0
  9  8  1  1
  9 10  1  0
  9 11  1  0
 10  6  1  0
 11 13  1  0
 12 11  2  0
 13 14  1  0
 14 21  1  0
 14 15  1  1
 16 15  1  0
 17 16  2  0
 18 17  1  0
 19 18  1  0
 19 20  2  0
 20 16  1  0
 21 23  2  0
 21 22  1  0
M  END
$$$$
