VAH.pdb
     RDKit          3D

 23 23  0  0  1  0  0  0  0  0999 V2000
    9.1282  -17.1033   13.8602 C   0  0  0  0  0  0  0  0  0  0  0  0
    9.2205  -16.6998   15.3145 C   0  0  2  0  0  0  0  0  0  0  0  0
    8.1142  -17.2984   16.1309 C   0  0  0  0  0  0  0  0  0  0  0  0
    9.2474  -15.1787   15.4589 C   0  0  2  0  0  0  0  0  0  0  0  0
   10.2977  -14.5867   14.6933 N   0  0  0  0  0  0  0  0  0  0  0  0
    9.4017  -14.8917   16.9296 C   0  0  0  0  0  0  0  0  0  0  0  0
   10.4349  -15.2273   17.5612 O   0  0  0  0  0  0  0  0  0  0  0  0
    7.2706  -13.1256   19.5578 C   0  0  0  0  0  0  0  0  0  0  0  0
    8.4427  -13.9583   19.0741 C   0  0  2  0  0  0  0  0  0  0  0  0
    8.3889  -14.2292   17.6718 N   0  0  0  0  0  0  0  0  0  0  0  0
    8.5770  -15.1544   19.9153 C   0  0  0  0  0  0  0  0  0  0  0  0
    8.2012  -16.2639   19.4468 O   0  0  0  0  0  0  0  0  0  0  0  0
    9.1019  -15.1702   21.2318 N   0  0  0  0  0  0  0  0  0  0  0  0
    9.8739  -16.1912   21.8403 C   0  0  1  0  0  0  0  0  0  0  0  0
   11.1874  -16.5058   21.2107 C   0  0  0  0  0  0  0  0  0  0  0  0
   11.9169  -17.6490   21.7907 C   0  0  0  0  0  0  0  0  0  0  0  0
   11.6346  -18.4553   22.8414 C   0  0  0  0  0  0  0  0  0  0  0  0
   12.6463  -19.3649   22.9761 N   0  0  0  0  0  0  0  0  0  0  0  0
   13.5321  -19.0986   22.0035 C   0  0  0  0  0  0  0  0  0  0  0  0
   13.1000  -18.0576   21.2762 N   0  0  0  0  0  0  0  0  0  0  0  0
   10.1580  -15.9140   23.2860 C   0  0  0  0  0  0  0  0  0  0  0  0
   10.5362  -16.8442   24.2055 O   0  0  0  0  0  0  0  0  0  0  0  0
   10.0291  -14.7185   23.6516 O   0  0  0  0  0  0  0  0  0  0  0  0
  2  4  1  0
  2  1  1  6
  2  3  1  0
  4  5  1  6
  6  4  1  0
  6  7  2  0
  9  8  1  1
  9 10  1  0
  9 11  1  0
 10  6  1  0
 11 13  1  0
 12 11  2  0
 13 14  1  0
 14 21  1  0
 14 15  1  6
 16 15  1  0
 17 16  2  0
 18 17  1  0
 19 18  1  0
 19 20  2  0
 20 16  1  0
 21 23  2  0
 21 22  1  0
M  END
$$$$
