VAH.pdb
     RDKit          3D

 23 23  0  0  1  0  0  0  0  0999 V2000
    8.2179  -13.6241   20.5144 C   0  0  0  0  0  0  0  0  0  0  0  0
    9.1775  -13.2771   19.3985 C   0  0  2  0  0  0  0  0  0  0  0  0
    8.7825  -12.0126   18.6959 C   0  0  0  0  0  0  0  0  0  0  0  0
    9.3086  -14.4356   18.4104 C   0  0  2  0  0  0  0  0  0  0  0  0
    8.0758  -14.7135   17.7450 N   0  0  0  0  0  0  0  0  0  0  0  0
    9.7918  -15.6214   19.2038 C   0  0  0  0  0  0  0  0  0  0  0  0
    8.9927  -16.4718   19.6699 O   0  0  0  0  0  0  0  0  0  0  0  0
   13.0662  -17.3676   19.7563 C   0  0  0  0  0  0  0  0  0  0  0  0
   11.7039  -16.9088   20.2411 C   0  0  2  0  0  0  0  0  0  0  0  0
   11.1713  -15.8351   19.4627 N   0  0  0  0  0  0  0  0  0  0  0  0
   11.7602  -16.6388   21.6834 C   0  0  0  0  0  0  0  0  0  0  0  0
   11.8211  -15.4388   22.0683 O   0  0  0  0  0  0  0  0  0  0  0  0
   11.7517  -17.6278   22.6987 N   0  0  0  0  0  0  0  0  0  0  0  0
   11.1238  -17.5562   23.9672 C   0  0  1  0  0  0  0  0  0  0  0  0
    9.6364  -17.4657   23.9765 C   0  0  0  0  0  0  0  0  0  0  0  0
    9.0754  -16.1306   23.6962 C   0  0  0  0  0  0  0  0  0  0  0  0
    9.6667  -14.9227   23.5379 C   0  0  0  0  0  0  0  0  0  0  0  0
    8.6950  -13.9897   23.3045 N   0  0  0  0  0  0  0  0  0  0  0  0
    7.5234  -14.6444   23.3243 C   0  0  0  0  0  0  0  0  0  0  0  0
    7.7414  -15.9466   23.5616 N   0  0  0  0  0  0  0  0  0  0  0  0
   11.4785  -18.7137   24.8515 C   0  0  0  0  0  0  0  0  0  0  0  0
   11.4313  -18.7073   26.2122 O   0  0  0  0  0  0  0  0  0  0  0  0
   11.8458  -19.7618   24.2631 O   0  0  0  0  0  0  0  0  0  0  0  0
  2  4  1  0
  2  1  1  1
  2  3  1  0
  4  5  1  1
  6  4  1  0
  6  7  2  0
  9  8  1  6
  9 10  1  0
  9 11  1  0
 10  6  1  0
 11 13  1  0
 12 11  2  0
 13 14  1  0
 14 21  1  0
 14 15  1  6
 16 15  1  0
 17 16  2  0
 18 17  1  0
 19 18  1  0
 19 20  2  0
 20 16  1  0
 21 23  2  0
 21 22  1  0
M  END
$$$$
