VAH.pdb
     RDKit          3D

 23 23  0  0  1  0  0  0  0  0999 V2000
    7.9614  -12.2154   19.1895 C   0  0  0  0  0  0  0  0  0  0  0  0
    7.8746  -13.2377   20.3003 C   0  0  2  0  0  0  0  0  0  0  0  0
    8.9068  -12.9978   21.3613 C   0  0  0  0  0  0  0  0  0  0  0  0
    7.9783  -14.6578   19.7454 C   0  0  2  0  0  0  0  0  0  0  0  0
    7.1264  -14.8548   18.6162 N   0  0  0  0  0  0  0  0  0  0  0  0
    7.6243  -15.5860   20.8777 C   0  0  0  0  0  0  0  0  0  0  0  0
    6.4563  -15.6492   21.3368 O   0  0  0  0  0  0  0  0  0  0  0  0
    8.9727  -18.7743   22.1112 C   0  0  0  0  0  0  0  0  0  0  0  0
    8.3066  -17.4518   22.4407 C   0  0  2  0  0  0  0  0  0  0  0  0
    8.5916  -16.4330   21.4797 N   0  0  0  0  0  0  0  0  0  0  0  0
    8.6147  -17.0775   23.8268 C   0  0  0  0  0  0  0  0  0  0  0  0
    8.2168  -17.8326   24.7559 O   0  0  0  0  0  0  0  0  0  0  0  0
    9.3335  -15.9203   24.2179 N   0  0  0  0  0  0  0  0  0  0  0  0
    9.7007  -15.5361   25.5318 C   0  0  1  0  0  0  0  0  0  0  0  0
    8.5901  -15.2775   26.4912 C   0  0  0  0  0  0  0  0  0  0  0  0
    7.7821  -14.0728   26.2242 C   0  0  0  0  0  0  0  0  0  0  0  0
    7.8642  -13.1330   25.2527 C   0  0  0  0  0  0  0  0  0  0  0  0
    6.8796  -12.2070   25.4587 N   0  0  0  0  0  0  0  0  0  0  0  0
    6.2110  -12.5971   26.5552 C   0  0  0  0  0  0  0  0  0  0  0  0
    6.7501  -13.7300   27.0298 N   0  0  0  0  0  0  0  0  0  0  0  0
   10.6016  -16.5352   26.1933 C   0  0  0  0  0  0  0  0  0  0  0  0
   10.2010  -17.7197   26.7322 O   0  0  0  0  0  0  0  0  0  0  0  0
   11.8197  -16.2295   26.2405 O   0  0  0  0  0  0  0  0  0  0  0  0
  2  4  1  0
  2  1  1  6
  2  3  1  0
  4  5  1  6
  6  4  1  0
  6  7  2  0
  9  8  1  6
  9 10  1  0
  9 11  1  0
 10  6  1  0
 11 13  1  0
 12 11  2  0
 13 14  1  0
 14 21  1  0
 14 15  1  1
 16 15  1  0
 17 16  2  0
 18 17  1  0
 19 18  1  0
 19 20  2  0
 20 16  1  0
 21 23  2  0
 21 22  1  0
M  END
$$$$
