VAH.pdb
     RDKit          3D

 23 23  0  0  1  0  0  0  0  0999 V2000
    7.7047  -13.0832   21.0963 C   0  0  0  0  0  0  0  0  0  0  0  0
    8.7550  -13.3124   20.0330 C   0  0  2  0  0  0  0  0  0  0  0  0
    8.8071  -12.1832   19.0476 C   0  0  0  0  0  0  0  0  0  0  0  0
    8.5335  -14.6485   19.3250 C   0  0  2  0  0  0  0  0  0  0  0  0
    7.2914  -14.6816   18.6209 N   0  0  0  0  0  0  0  0  0  0  0  0
    8.5976  -15.7122   20.3897 C   0  0  0  0  0  0  0  0  0  0  0  0
    7.5565  -16.2009   20.8958 O   0  0  0  0  0  0  0  0  0  0  0  0
   11.0691  -18.2283   21.5369 C   0  0  0  0  0  0  0  0  0  0  0  0
    9.9787  -17.2272   21.8686 C   0  0  2  0  0  0  0  0  0  0  0  0
    9.8355  -16.2130   20.8718 N   0  0  0  0  0  0  0  0  0  0  0  0
   10.1805  -16.7123   23.2289 C   0  0  0  0  0  0  0  0  0  0  0  0
   11.3585  -16.4738   23.6126 O   0  0  0  0  0  0  0  0  0  0  0  0
    9.1476  -16.4557   24.1649 N   0  0  0  0  0  0  0  0  0  0  0  0
    9.2817  -16.2353   25.5585 C   0  0  1  0  0  0  0  0  0  0  0  0
    8.0458  -15.8584   26.3010 C   0  0  0  0  0  0  0  0  0  0  0  0
    7.4359  -14.5718   25.9160 C   0  0  0  0  0  0  0  0  0  0  0  0
    7.8980  -13.5499   25.1570 C   0  0  0  0  0  0  0  0  0  0  0  0
    6.9430  -12.5725   25.1152 N   0  0  0  0  0  0  0  0  0  0  0  0
    5.9111  -13.0141   25.8512 C   0  0  0  0  0  0  0  0  0  0  0  0
    6.1987  -14.2284   26.3434 N   0  0  0  0  0  0  0  0  0  0  0  0
    9.8567  -17.4194   26.2760 C   0  0  0  0  0  0  0  0  0  0  0  0
    9.8118  -18.7058   25.8322 O   0  0  0  0  0  0  0  0  0  0  0  0
   10.4199  -17.1764   27.3729 O   0  0  0  0  0  0  0  0  0  0  0  0
  2  4  1  0
  2  1  1  1
  2  3  1  0
  4  5  1  1
  6  4  1  0
  6  7  2  0
  9  8  1  6
  9 10  1  0
  9 11  1  0
 10  6  1  0
 11 13  1  0
 12 11  2  0
 13 14  1  0
 14 21  1  0
 14 15  1  1
 16 15  1  0
 17 16  2  0
 18 17  1  0
 19 18  1  0
 19 20  2  0
 20 16  1  0
 21 23  2  0
 21 22  1  0
M  END
$$$$
