VAH.pdb
     RDKit          3D

 23 23  0  0  1  0  0  0  0  0999 V2000
    7.6634  -12.8044   20.3584 C   0  0  0  0  0  0  0  0  0  0  0  0
    8.4706  -13.1644   19.1316 C   0  0  2  0  0  0  0  0  0  0  0  0
    7.6954  -12.9393   17.8678 C   0  0  0  0  0  0  0  0  0  0  0  0
    8.9787  -14.6032   19.2145 C   0  0  2  0  0  0  0  0  0  0  0  0
    7.9132  -15.5518   19.1473 N   0  0  0  0  0  0  0  0  0  0  0  0
    9.7404  -14.7135   20.5093 C   0  0  0  0  0  0  0  0  0  0  0  0
   10.7840  -14.0455   20.7185 O   0  0  0  0  0  0  0  0  0  0  0  0
    9.1993  -16.5213   23.8167 C   0  0  0  0  0  0  0  0  0  0  0  0
   10.0330  -15.8080   22.7691 C   0  0  2  0  0  0  0  0  0  0  0  0
    9.3166  -15.5762   21.5543 N   0  0  0  0  0  0  0  0  0  0  0  0
   11.3092  -16.5125   22.5923 C   0  0  0  0  0  0  0  0  0  0  0  0
   11.3191  -17.5773   21.9155 O   0  0  0  0  0  0  0  0  0  0  0  0
   12.5531  -16.0920   23.1260 N   0  0  0  0  0  0  0  0  0  0  0  0
   13.8252  -16.6798   22.9145 C   0  0  1  0  0  0  0  0  0  0  0  0
   14.8349  -15.8549   22.1928 C   0  0  0  0  0  0  0  0  0  0  0  0
   14.4620  -15.4374   20.8282 C   0  0  0  0  0  0  0  0  0  0  0  0
   14.5552  -16.0743   19.6368 C   0  0  0  0  0  0  0  0  0  0  0  0
   14.0796  -15.2434   18.6608 N   0  0  0  0  0  0  0  0  0  0  0  0
   13.7031  -14.1100   19.2733 C   0  0  0  0  0  0  0  0  0  0  0  0
   13.9306  -14.2156   20.5911 N   0  0  0  0  0  0  0  0  0  0  0  0
   14.4771  -17.1169   24.1918 C   0  0  0  0  0  0  0  0  0  0  0  0
   15.6305  -17.8350   24.2805 O   0  0  0  0  0  0  0  0  0  0  0  0
   13.8905  -16.7798   25.2510 O   0  0  0  0  0  0  0  0  0  0  0  0
  2  4  1  0
  2  1  1  1
  2  3  1  0
  4  5  1  1
  6  4  1  0
  6  7  2  0
  9  8  1  1
  9 10  1  0
  9 11  1  0
 10  6  1  0
 11 13  1  0
 12 11  2  0
 13 14  1  0
 14 21  1  0
 14 15  1  1
 16 15  1  0
 17 16  2  0
 18 17  1  0
 19 18  1  0
 19 20  2  0
 20 16  1  0
 21 23  2  0
 21 22  1  0
M  END
$$$$
