VAH.pdb
     RDKit          3D

 23 23  0  0  1  0  0  0  0  0999 V2000
   14.2295  -14.9693   15.3220 C   0  0  0  0  0  0  0  0  0  0  0  0
   13.2556  -15.2204   16.4510 C   0  0  2  0  0  0  0  0  0  0  0  0
   13.9101  -15.0832   17.7933 C   0  0  0  0  0  0  0  0  0  0  0  0
   12.5884  -16.5873   16.3033 C   0  0  2  0  0  0  0  0  0  0  0  0
   11.9307  -16.7286   15.0435 N   0  0  0  0  0  0  0  0  0  0  0  0
   11.6230  -16.7180   17.4522 C   0  0  0  0  0  0  0  0  0  0  0  0
   10.5536  -16.0594   17.4920 O   0  0  0  0  0  0  0  0  0  0  0  0
   11.4265  -18.9317   20.5502 C   0  0  0  0  0  0  0  0  0  0  0  0
   11.0083  -17.7721   19.6661 C   0  0  2  0  0  0  0  0  0  0  0  0
   11.8744  -17.5904   18.5438 N   0  0  0  0  0  0  0  0  0  0  0  0
   10.8237  -16.5688   20.4872 C   0  0  0  0  0  0  0  0  0  0  0  0
   11.0946  -15.4466   19.9782 O   0  0  0  0  0  0  0  0  0  0  0  0
   10.3591  -16.5592   21.8262 N   0  0  0  0  0  0  0  0  0  0  0  0
    9.8732  -15.4500   22.5625 C   0  0  1  0  0  0  0  0  0  0  0  0
    8.6122  -14.8217   22.0769 C   0  0  0  0  0  0  0  0  0  0  0  0
    8.7205  -14.0612   20.8176 C   0  0  0  0  0  0  0  0  0  0  0  0
    9.7796  -13.7961   20.0165 C   0  0  0  0  0  0  0  0  0  0  0  0
    9.3506  -13.0325   18.9667 N   0  0  0  0  0  0  0  0  0  0  0  0
    8.0337  -12.8430   19.1444 C   0  0  0  0  0  0  0  0  0  0  0  0
    7.6388  -13.4635   20.2662 N   0  0  0  0  0  0  0  0  0  0  0  0
    9.6502  -15.7726   24.0095 C   0  0  0  0  0  0  0  0  0  0  0  0
    9.6801  -17.0217   24.5504 O   0  0  0  0  0  0  0  0  0  0  0  0
    9.4191  -14.7923   24.7613 O   0  0  0  0  0  0  0  0  0  0  0  0
  2  4  1  0
  2  1  1  6
  2  3  1  0
  4  5  1  6
  6  4  1  0
  6  7  2  0
  9  8  1  1
  9 10  1  0
  9 11  1  0
 10  6  1  0
 11 13  1  0
 12 11  2  0
 13 14  1  0
 14 21  1  0
 14 15  1  6
 16 15  1  0
 17 16  2  0
 18 17  1  0
 19 18  1  0
 19 20  2  0
 20 16  1  0
 21 23  2  0
 21 22  1  0
M  END
$$$$
