VAH.pdb
     RDKit          3D

 23 23  0  0  1  0  0  0  0  0999 V2000
    7.0358  -19.0643   22.9968 C   0  0  0  0  0  0  0  0  0  0  0  0
    5.9847  -18.4802   22.0802 C   0  0  2  0  0  0  0  0  0  0  0  0
    4.8438  -19.4291   21.8635 C   0  0  0  0  0  0  0  0  0  0  0  0
    6.5991  -18.0483   20.7493 C   0  0  2  0  0  0  0  0  0  0  0  0
    7.2042  -19.1424   20.0590 N   0  0  0  0  0  0  0  0  0  0  0  0
    7.6017  -16.9711   21.0710 C   0  0  0  0  0  0  0  0  0  0  0  0
    8.8114  -17.2388   21.2809 O   0  0  0  0  0  0  0  0  0  0  0  0
    7.5069  -13.1648   21.1367 C   0  0  0  0  0  0  0  0  0  0  0  0
    8.1260  -14.5220   21.4126 C   0  0  2  0  0  0  0  0  0  0  0  0
    7.2288  -15.6036   21.1525 N   0  0  0  0  0  0  0  0  0  0  0  0
    8.7092  -14.5321   22.7602 C   0  0  0  0  0  0  0  0  0  0  0  0
    9.6692  -13.7511   23.0054 O   0  0  0  0  0  0  0  0  0  0  0  0
    8.2788  -15.3584   23.8283 N   0  0  0  0  0  0  0  0  0  0  0  0
    8.8178  -15.4263   25.1373 C   0  0  1  0  0  0  0  0  0  0  0  0
    7.8839  -15.1438   26.2638 C   0  0  0  0  0  0  0  0  0  0  0  0
    7.5156  -13.7276   26.4492 C   0  0  0  0  0  0  0  0  0  0  0  0
    8.2487  -12.5915   26.3749 C   0  0  0  0  0  0  0  0  0  0  0  0
    7.4323  -11.5284   26.6439 N   0  0  0  0  0  0  0  0  0  0  0  0
    6.2112  -12.0337   26.8789 C   0  0  0  0  0  0  0  0  0  0  0  0
    6.2490  -13.3697   26.7636 N   0  0  0  0  0  0  0  0  0  0  0  0
    9.4425  -16.7563   25.4346 C   0  0  0  0  0  0  0  0  0  0  0  0
    9.4615  -17.8229   24.5885 O   0  0  0  0  0  0  0  0  0  0  0  0
    9.9852  -16.8682   26.5626 O   0  0  0  0  0  0  0  0  0  0  0  0
  2  4  1  0
  2  1  1  1
  2  3  1  0
  4  5  1  1
  6  4  1  0
  6  7  2  0
  9  8  1  1
  9 10  1  0
  9 11  1  0
 10  6  1  0
 11 13  1  0
 12 11  2  0
 13 14  1  0
 14 21  1  0
 14 15  1  1
 16 15  1  0
 17 16  2  0
 18 17  1  0
 19 18  1  0
 19 20  2  0
 20 16  1  0
 21 23  2  0
 21 22  1  0
M  END
$$$$
