VAH.pdb
     RDKit          3D

 23 23  0  0  1  0  0  0  0  0999 V2000
    9.6669  -14.7649   18.2194 C   0  0  0  0  0  0  0  0  0  0  0  0
    8.2078  -14.4029   18.3815 C   0  0  2  0  0  0  0  0  0  0  0  0
    7.5420  -14.1640   17.0591 C   0  0  0  0  0  0  0  0  0  0  0  0
    8.0433  -13.1960   19.3043 C   0  0  2  0  0  0  0  0  0  0  0  0
    8.6179  -12.0135   18.7465 N   0  0  0  0  0  0  0  0  0  0  0  0
    8.6930  -13.5663   20.6120 C   0  0  0  0  0  0  0  0  0  0  0  0
    9.8817  -13.2505   20.8695 O   0  0  0  0  0  0  0  0  0  0  0  0
    7.5696  -15.4663   23.7264 C   0  0  0  0  0  0  0  0  0  0  0  0
    8.5888  -14.8474   22.7886 C   0  0  2  0  0  0  0  0  0  0  0  0
    7.9945  -14.2886   21.6150 N   0  0  0  0  0  0  0  0  0  0  0  0
    9.6615  -15.8137   22.5206 C   0  0  0  0  0  0  0  0  0  0  0  0
    9.8669  -16.1678   21.3271 O   0  0  0  0  0  0  0  0  0  0  0  0
   10.5010  -16.3933   23.5045 N   0  0  0  0  0  0  0  0  0  0  0  0
   11.8174  -16.8891   23.3316 C   0  0  1  0  0  0  0  0  0  0  0  0
   12.8303  -15.9345   22.7993 C   0  0  0  0  0  0  0  0  0  0  0  0
   12.7631  -15.6739   21.3491 C   0  0  0  0  0  0  0  0  0  0  0  0
   11.9575  -16.1745   20.3826 C   0  0  0  0  0  0  0  0  0  0  0  0
   12.3116  -15.6137   19.1872 N   0  0  0  0  0  0  0  0  0  0  0  0
   13.3302  -14.7780   19.4435 C   0  0  0  0  0  0  0  0  0  0  0  0
   13.6141  -14.8058   20.7542 N   0  0  0  0  0  0  0  0  0  0  0  0
   12.3932  -17.4478   24.5981 C   0  0  0  0  0  0  0  0  0  0  0  0
   13.5729  -18.1205   24.6959 O   0  0  0  0  0  0  0  0  0  0  0  0
   11.7114  -17.2662   25.6382 O   0  0  0  0  0  0  0  0  0  0  0  0
  2  4  1  0
  2  1  1  6
  2  3  1  0
  4  5  1  6
  6  4  1  0
  6  7  2  0
  9  8  1  6
  9 10  1  0
  9 11  1  0
 10  6  1  0
 11 13  1  0
 12 11  2  0
 13 14  1  0
 14 21  1  0
 14 15  1  1
 16 15  1  0
 17 16  2  0
 18 17  1  0
 19 18  1  0
 19 20  2  0
 20 16  1  0
 21 23  2  0
 21 22  1  0
M  END
$$$$
