VAH.pdb
     RDKit          3D

 23 23  0  0  1  0  0  0  0  0999 V2000
    7.3084  -19.4460   17.2463 C   0  0  0  0  0  0  0  0  0  0  0  0
    7.7355  -18.6407   18.4527 C   0  0  2  0  0  0  0  0  0  0  0  0
    6.7065  -18.6803   19.5428 C   0  0  0  0  0  0  0  0  0  0  0  0
    8.0636  -17.2006   18.0602 C   0  0  2  0  0  0  0  0  0  0  0  0
    8.9323  -17.1390   16.9283 N   0  0  0  0  0  0  0  0  0  0  0  0
    8.6841  -16.5579   19.2730 C   0  0  0  0  0  0  0  0  0  0  0  0
    9.8365  -16.8688   19.6661 O   0  0  0  0  0  0  0  0  0  0  0  0
    7.5916  -13.8570   21.7383 C   0  0  0  0  0  0  0  0  0  0  0  0
    8.4836  -14.9757   21.2342 C   0  0  2  0  0  0  0  0  0  0  0  0
    7.9980  -15.5714   20.0291 N   0  0  0  0  0  0  0  0  0  0  0  0
    8.7365  -15.9309   22.3204 C   0  0  0  0  0  0  0  0  0  0  0  0
    7.9949  -16.9475   22.4116 O   0  0  0  0  0  0  0  0  0  0  0  0
    9.7603  -15.8070   23.2927 N   0  0  0  0  0  0  0  0  0  0  0  0
   10.4551  -16.8520   23.9515 C   0  0  1  0  0  0  0  0  0  0  0  0
   11.2589  -17.7689   23.0948 C   0  0  0  0  0  0  0  0  0  0  0  0
   10.5145  -18.8813   22.4749 C   0  0  0  0  0  0  0  0  0  0  0  0
    9.5567  -19.7043   22.9639 C   0  0  0  0  0  0  0  0  0  0  0  0
    9.1965  -20.5846   21.9819 N   0  0  0  0  0  0  0  0  0  0  0  0
    9.9419  -20.2844   20.9068 C   0  0  0  0  0  0  0  0  0  0  0  0
   10.7472  -19.2507   21.1940 N   0  0  0  0  0  0  0  0  0  0  0  0
   11.3863  -16.3455   25.0116 C   0  0  0  0  0  0  0  0  0  0  0  0
   11.7298  -17.0192   26.1439 O   0  0  0  0  0  0  0  0  0  0  0  0
   11.8748  -15.2045   24.8139 O   0  0  0  0  0  0  0  0  0  0  0  0
  2  4  1  0
  2  1  1  6
  2  3  1  0
  4  5  1  6
  6  4  1  0
  6  7  2  0
  9  8  1  1
  9 10  1  0
  9 11  1  0
 10  6  1  0
 11 13  1  0
 12 11  2  0
 13 14  1  0
 14 21  1  0
 14 15  1  6
 16 15  1  0
 17 16  2  0
 18 17  1  0
 19 18  1  0
 19 20  2  0
 20 16  1  0
 21 23  2  0
 21 22  1  0
M  END
$$$$
