AML.pdb
     RDKit          3D

 22 21  0  0  1  0  0  0  0  0999 V2000
   27.8254  -18.8795  -14.8591 C   0  0  0  0  0  0  0  0  0  0  0  0
   28.3188  -20.1651  -14.1826 C   0  0  2  0  0  0  0  0  0  0  0  0
   28.7473  -21.0629  -15.2329 N   0  0  0  0  0  0  0  0  0  0  0  0
   27.2272  -20.7787  -13.3897 C   0  0  0  0  0  0  0  0  0  0  0  0
   26.4553  -21.5894  -13.9516 O   0  0  0  0  0  0  0  0  0  0  0  0
   26.3386  -19.4161   -7.1657 C   0  0  0  0  0  0  0  0  0  0  0  0
   27.5747  -20.6865   -7.5177 S   0  0  0  0  0  0  0  0  0  0  0  0
   27.4023  -21.1710   -9.2631 C   0  0  0  0  0  0  0  0  0  0  0  0
   26.1320  -20.5337   -9.7714 C   0  0  0  0  0  0  0  0  0  0  0  0
   25.9392  -20.8973  -11.2404 C   0  0  2  0  0  0  0  0  0  0  0  0
   27.0575  -20.4565  -12.0221 N   0  0  0  0  0  0  0  0  0  0  0  0
   24.6455  -20.3204  -11.6941 C   0  0  0  0  0  0  0  0  0  0  0  0
   24.6888  -19.1743  -12.2078 O   0  0  0  0  0  0  0  0  0  0  0  0
   22.3176  -21.6094  -16.2914 C   0  0  0  0  0  0  0  0  0  0  0  0
   21.8552  -20.9566  -15.0124 C   0  0  2  0  0  0  0  0  0  0  0  0
   21.4188  -19.5614  -15.3012 C   0  0  0  0  0  0  0  0  0  0  0  0
   22.7026  -21.1970  -13.8390 C   0  0  0  0  0  0  0  0  0  0  0  0
   22.3103  -20.6831  -12.5128 C   0  0  2  0  0  0  0  0  0  0  0  0
   23.4134  -20.9989  -11.5688 N   0  0  0  0  0  0  0  0  0  0  0  0
   21.0511  -21.1611  -11.9367 C   0  0  0  0  0  0  0  0  0  0  0  0
   19.8295  -20.5184  -12.0031 O   0  0  0  0  0  0  0  0  0  0  0  0
   21.0104  -22.2770  -11.2914 O   0  0  0  0  0  0  0  0  0  0  0  0
  2  1  1  6
  2  3  1  0
  4  2  1  0
  5  4  2  0
  7  6  1  0
  8  7  1  0
  8  9  1  0
 10  9  1  1
 10 12  1  0
 10 11  1  0
 11  4  1  0
 12 19  1  0
 13 12  2  0
 15 14  1  6
 16 15  1  0
 17 15  1  0
 18 17  1  6
 18 20  1  0
 19 18  1  0
 20 21  1  0
 22 20  2  0
M  END
$$$$
