AML.pdb
     RDKit          3D

 22 21  0  0  1  0  0  0  0  0999 V2000
   23.8816  -19.5772  -11.1686 C   0  0  0  0  0  0  0  0  0  0  0  0
   24.9754  -20.5028  -11.7170 C   0  0  2  0  0  0  0  0  0  0  0  0
   24.3110  -21.5882  -12.4051 N   0  0  0  0  0  0  0  0  0  0  0  0
   25.8084  -21.0253  -10.6080 C   0  0  0  0  0  0  0  0  0  0  0  0
   25.2751  -21.7649   -9.7491 O   0  0  0  0  0  0  0  0  0  0  0  0
   31.9258  -21.7945  -11.3368 C   0  0  0  0  0  0  0  0  0  0  0  0
   32.0377  -21.9563   -9.5404 S   0  0  0  0  0  0  0  0  0  0  0  0
   30.3619  -21.7788   -8.8540 C   0  0  0  0  0  0  0  0  0  0  0  0
   29.4883  -21.2448   -9.9630 C   0  0  0  0  0  0  0  0  0  0  0  0
   28.0431  -21.1805   -9.4789 C   0  0  2  0  0  0  0  0  0  0  0  0
   27.1820  -20.6964  -10.5183 N   0  0  0  0  0  0  0  0  0  0  0  0
   28.0033  -20.3434   -8.2501 C   0  0  0  0  0  0  0  0  0  0  0  0
   27.4717  -19.2097   -8.3573 O   0  0  0  0  0  0  0  0  0  0  0  0
   25.5540  -20.6824   -3.1453 C   0  0  0  0  0  0  0  0  0  0  0  0
   26.6536  -19.9177   -3.8395 C   0  0  2  0  0  0  0  0  0  0  0  0
   26.3679  -18.4577   -3.7545 C   0  0  0  0  0  0  0  0  0  0  0  0
   27.0933  -20.4720   -5.1249 C   0  0  0  0  0  0  0  0  0  0  0  0
   28.2942  -19.9420   -5.7986 C   0  0  2  0  0  0  0  0  0  0  0  0
   28.5271  -20.7702   -7.0100 N   0  0  0  0  0  0  0  0  0  0  0  0
   29.5396  -19.8772   -5.0303 C   0  0  0  0  0  0  0  0  0  0  0  0
   30.5034  -20.8649   -4.9568 O   0  0  0  0  0  0  0  0  0  0  0  0
   29.8225  -18.8302   -4.3323 O   0  0  0  0  0  0  0  0  0  0  0  0
  2  1  1  1
  2  3  1  0
  4  2  1  0
  5  4  2  0
  7  6  1  0
  8  7  1  0
  8  9  1  0
 10  9  1  6
 10 12  1  0
 10 11  1  0
 11  4  1  0
 12 19  1  0
 13 12  2  0
 15 14  1  6
 16 15  1  0
 17 15  1  0
 18 17  1  1
 18 20  1  0
 19 18  1  0
 20 21  1  0
 22 20  2  0
M  END
$$$$
