AML.pdb
     RDKit          3D

 22 21  0  0  1  0  0  0  0  0999 V2000
   17.4249   -9.7989  -18.6515 C   0  0  0  0  0  0  0  0  0  0  0  0
   18.5544  -10.7966  -18.3640 C   0  0  2  0  0  0  0  0  0  0  0  0
   17.9395  -12.0013  -17.8505 N   0  0  0  0  0  0  0  0  0  0  0  0
   19.4969  -10.2316  -17.3694 C   0  0  0  0  0  0  0  0  0  0  0  0
   19.0515   -9.8591  -16.2595 O   0  0  0  0  0  0  0  0  0  0  0  0
   26.9047  -10.4750  -14.9431 C   0  0  0  0  0  0  0  0  0  0  0  0
   25.7640  -10.7596  -16.3155 S   0  0  0  0  0  0  0  0  0  0  0  0
   24.1806   -9.9625  -15.9056 C   0  0  0  0  0  0  0  0  0  0  0  0
   23.2053  -10.3396  -16.9941 C   0  0  0  0  0  0  0  0  0  0  0  0
   21.8551   -9.6899  -16.7075 C   0  0  2  0  0  0  0  0  0  0  0  0
   20.8758  -10.1137  -17.6654 N   0  0  0  0  0  0  0  0  0  0  0  0
   22.0472   -8.2152  -16.6817 C   0  0  0  0  0  0  0  0  0  0  0  0
   22.1137   -7.6359  -17.7950 O   0  0  0  0  0  0  0  0  0  0  0  0
   18.8488   -4.0203  -16.5012 C   0  0  0  0  0  0  0  0  0  0  0  0
   20.3029   -4.2476  -16.1696 C   0  0  2  0  0  0  0  0  0  0  0  0
   21.1482   -3.3881  -17.0455 C   0  0  0  0  0  0  0  0  0  0  0  0
   20.6941   -5.6482  -15.9743 C   0  0  0  0  0  0  0  0  0  0  0  0
   22.0613   -5.9910  -15.5380 C   0  0  2  0  0  0  0  0  0  0  0  0
   22.1532   -7.4730  -15.4850 N   0  0  0  0  0  0  0  0  0  0  0  0
   22.5305   -5.4477  -14.2611 C   0  0  0  0  0  0  0  0  0  0  0  0
   23.1645   -4.2338  -14.0765 O   0  0  0  0  0  0  0  0  0  0  0  0
   22.3715   -6.1158  -13.1695 O   0  0  0  0  0  0  0  0  0  0  0  0
  2  1  1  1
  2  3  1  0
  4  2  1  0
  5  4  2  0
  7  6  1  0
  8  7  1  0
  8  9  1  0
 10  9  1  6
 10 12  1  0
 10 11  1  0
 11  4  1  0
 12 19  1  0
 13 12  2  0
 15 14  1  6
 16 15  1  0
 17 15  1  0
 18 17  1  1
 18 20  1  0
 19 18  1  0
 20 21  1  0
 22 20  2  0
M  END
$$$$
