AML.pdb
     RDKit          3D

 22 21  0  0  1  0  0  0  0  0999 V2000
   24.0213  -11.7651  -19.8232 C   0  0  0  0  0  0  0  0  0  0  0  0
   23.0684  -12.1017  -18.6688 C   0  0  2  0  0  0  0  0  0  0  0  0
   22.3773  -13.3210  -19.0272 N   0  0  0  0  0  0  0  0  0  0  0  0
   22.1003  -10.9982  -18.4648 C   0  0  0  0  0  0  0  0  0  0  0  0
   21.6164  -10.4264  -19.4688 O   0  0  0  0  0  0  0  0  0  0  0  0
   16.5311  -12.7210  -16.2793 C   0  0  0  0  0  0  0  0  0  0  0  0
   17.5241  -11.4239  -15.5065 S   0  0  0  0  0  0  0  0  0  0  0  0
   18.8553  -10.9711  -16.6614 C   0  0  0  0  0  0  0  0  0  0  0  0
   19.7104   -9.9420  -15.9629 C   0  0  0  0  0  0  0  0  0  0  0  0
   20.8349   -9.5044  -16.8963 C   0  0  2  0  0  0  0  0  0  0  0  0
   21.7272  -10.5953  -17.1604 N   0  0  0  0  0  0  0  0  0  0  0  0
   21.5128   -8.3299  -16.2854 C   0  0  0  0  0  0  0  0  0  0  0  0
   22.4037   -8.5736  -15.4332 O   0  0  0  0  0  0  0  0  0  0  0  0
   24.7317   -3.9137  -17.9733 C   0  0  0  0  0  0  0  0  0  0  0  0
   23.9346   -4.3937  -16.7859 C   0  0  2  0  0  0  0  0  0  0  0  0
   24.8335   -4.5091  -15.6031 C   0  0  0  0  0  0  0  0  0  0  0  0
   22.9915   -5.4843  -17.0581 C   0  0  0  0  0  0  0  0  0  0  0  0
   21.9995   -5.8886  -16.0435 C   0  0  2  0  0  0  0  0  0  0  0  0
   21.1959   -6.9958  -16.6230 N   0  0  0  0  0  0  0  0  0  0  0  0
   21.0847   -4.8651  -15.5322 C   0  0  0  0  0  0  0  0  0  0  0  0
   21.3203   -4.0241  -14.4613 O   0  0  0  0  0  0  0  0  0  0  0  0
   19.9341   -4.6828  -16.0855 O   0  0  0  0  0  0  0  0  0  0  0  0
  2  1  1  6
  2  3  1  0
  4  2  1  0
  5  4  2  0
  7  6  1  0
  8  7  1  0
  8  9  1  0
 10  9  1  1
 10 12  1  0
 10 11  1  0
 11  4  1  0
 12 19  1  0
 13 12  2  0
 15 14  1  6
 16 15  1  0
 17 15  1  0
 18 17  1  6
 18 20  1  0
 19 18  1  0
 20 21  1  0
 22 20  2  0
M  END
$$$$
