AML.pdb
     RDKit          3D

 22 21  0  0  1  0  0  0  0  0999 V2000
   17.9958  -13.6456  -17.5772 C   0  0  0  0  0  0  0  0  0  0  0  0
   18.0589  -12.8720  -18.9006 C   0  0  2  0  0  0  0  0  0  0  0  0
   18.8935  -13.6357  -19.8023 N   0  0  0  0  0  0  0  0  0  0  0  0
   18.6333  -11.5238  -18.6796 C   0  0  0  0  0  0  0  0  0  0  0  0
   19.8783  -11.4012  -18.6157 O   0  0  0  0  0  0  0  0  0  0  0  0
   17.1569   -3.8548  -19.2434 C   0  0  0  0  0  0  0  0  0  0  0  0
   16.4318   -5.4913  -18.9945 S   0  0  0  0  0  0  0  0  0  0  0  0
   17.7782   -6.6485  -18.5957 C   0  0  0  0  0  0  0  0  0  0  0  0
   17.1865   -8.0367  -18.6265 C   0  0  0  0  0  0  0  0  0  0  0  0
   18.2878   -9.0593  -18.3642 C   0  0  2  0  0  0  0  0  0  0  0  0
   17.7931  -10.3932  -18.5426 N   0  0  0  0  0  0  0  0  0  0  0  0
   18.8311   -8.8150  -17.0014 C   0  0  0  0  0  0  0  0  0  0  0  0
   18.3576   -9.5158  -16.0718 O   0  0  0  0  0  0  0  0  0  0  0  0
   23.1080  -10.3813  -14.1643 C   0  0  0  0  0  0  0  0  0  0  0  0
   22.0882   -9.2750  -14.0546 C   0  0  2  0  0  0  0  0  0  0  0  0
   21.4043   -9.3645  -12.7338 C   0  0  0  0  0  0  0  0  0  0  0  0
   21.2718   -9.0483  -15.2525 C   0  0  0  0  0  0  0  0  0  0  0  0
   20.4635   -7.8214  -15.3879 C   0  0  2  0  0  0  0  0  0  0  0  0
   19.8285   -7.8526  -16.7307 N   0  0  0  0  0  0  0  0  0  0  0  0
   21.1393   -6.5326  -15.2203 C   0  0  0  0  0  0  0  0  0  0  0  0
   21.3661   -5.8817  -14.0225 O   0  0  0  0  0  0  0  0  0  0  0  0
   21.5852   -5.8909  -16.2464 O   0  0  0  0  0  0  0  0  0  0  0  0
  2  1  1  1
  2  3  1  0
  4  2  1  0
  5  4  2  0
  7  6  1  0
  8  7  1  0
  8  9  1  0
 10  9  1  1
 10 12  1  0
 10 11  1  0
 11  4  1  0
 12 19  1  0
 13 12  2  0
 15 14  1  6
 16 15  1  0
 17 15  1  0
 18 17  1  6
 18 20  1  0
 19 18  1  0
 20 21  1  0
 22 20  2  0
M  END
$$$$
