AML.pdb
     RDKit          3D

 22 21  0  0  1  0  0  0  0  0999 V2000
   27.2842  -20.0591  -16.4489 C   0  0  0  0  0  0  0  0  0  0  0  0
   27.8630  -21.0265  -15.4083 C   0  0  2  0  0  0  0  0  0  0  0  0
   28.2158  -22.2436  -16.1064 N   0  0  0  0  0  0  0  0  0  0  0  0
   26.8595  -21.3063  -14.3541 C   0  0  0  0  0  0  0  0  0  0  0  0
   25.9288  -22.1065  -14.6039 O   0  0  0  0  0  0  0  0  0  0  0  0
   25.2567  -20.5403   -6.6813 C   0  0  0  0  0  0  0  0  0  0  0  0
   26.2923  -20.0088   -8.0636 S   0  0  0  0  0  0  0  0  0  0  0  0
   25.6206  -20.7455   -9.5857 C   0  0  0  0  0  0  0  0  0  0  0  0
   26.5359  -20.3335  -10.7130 C   0  0  0  0  0  0  0  0  0  0  0  0
   26.0192  -20.9227  -12.0219 C   0  0  2  0  0  0  0  0  0  0  0  0
   26.9484  -20.6821  -13.0871 N   0  0  0  0  0  0  0  0  0  0  0  0
   24.6698  -20.3548  -12.2843 C   0  0  0  0  0  0  0  0  0  0  0  0
   24.6308  -19.2205  -12.8239 O   0  0  0  0  0  0  0  0  0  0  0  0
   21.5201  -19.4411  -15.3954 C   0  0  0  0  0  0  0  0  0  0  0  0
   22.3997  -20.6529  -15.2116 C   0  0  2  0  0  0  0  0  0  0  0  0
   22.4433  -21.4275  -16.4836 C   0  0  0  0  0  0  0  0  0  0  0  0
   22.2130  -21.3829  -13.9526 C   0  0  0  0  0  0  0  0  0  0  0  0
   22.2173  -20.6666  -12.6627 C   0  0  2  0  0  0  0  0  0  0  0  0
   23.4732  -21.0292  -11.9564 N   0  0  0  0  0  0  0  0  0  0  0  0
   21.0899  -20.8846  -11.7531 C   0  0  0  0  0  0  0  0  0  0  0  0
   20.0021  -20.0481  -11.5896 O   0  0  0  0  0  0  0  0  0  0  0  0
   21.0488  -21.9335  -11.0039 O   0  0  0  0  0  0  0  0  0  0  0  0
  2  1  1  6
  2  3  1  0
  4  2  1  0
  5  4  2  0
  7  6  1  0
  8  7  1  0
  8  9  1  0
 10  9  1  1
 10 12  1  0
 10 11  1  0
 11  4  1  0
 12 19  1  0
 13 12  2  0
 15 14  1  6
 16 15  1  0
 17 15  1  0
 18 17  1  6
 18 20  1  0
 19 18  1  0
 20 21  1  0
 22 20  2  0
M  END
$$$$
