AML.pdb
     RDKit          3D

 22 21  0  0  1  0  0  0  0  0999 V2000
   27.5418  -19.0555  -15.4940 C   0  0  0  0  0  0  0  0  0  0  0  0
   28.0587  -20.3119  -14.7812 C   0  0  2  0  0  0  0  0  0  0  0  0
   28.3983  -21.2750  -15.8060 N   0  0  0  0  0  0  0  0  0  0  0  0
   27.0143  -20.8581  -13.8826 C   0  0  0  0  0  0  0  0  0  0  0  0
   26.1890  -21.6790  -14.3453 O   0  0  0  0  0  0  0  0  0  0  0  0
   26.5410  -19.0565   -7.6266 C   0  0  0  0  0  0  0  0  0  0  0  0
   25.7875  -20.6977   -7.5596 S   0  0  0  0  0  0  0  0  0  0  0  0
   25.2802  -21.1531   -9.2466 C   0  0  0  0  0  0  0  0  0  0  0  0
   26.2601  -20.4998  -10.1905 C   0  0  0  0  0  0  0  0  0  0  0  0
   25.9264  -20.9053  -11.6228 C   0  0  2  0  0  0  0  0  0  0  0  0
   26.9478  -20.4611  -12.5258 N   0  0  0  0  0  0  0  0  0  0  0  0
   24.5796  -20.3680  -11.9541 C   0  0  0  0  0  0  0  0  0  0  0  0
   24.4953  -19.1263  -12.1283 O   0  0  0  0  0  0  0  0  0  0  0  0
   22.4773  -18.9243  -15.0825 C   0  0  0  0  0  0  0  0  0  0  0  0
   22.5370  -20.4300  -15.0115 C   0  0  2  0  0  0  0  0  0  0  0  0
   22.2851  -20.9975  -16.3660 C   0  0  0  0  0  0  0  0  0  0  0  0
   21.8567  -21.0349  -13.8607 C   0  0  0  0  0  0  0  0  0  0  0  0
   22.1451  -20.5707  -12.4902 C   0  0  2  0  0  0  0  0  0  0  0  0
   23.4331  -21.1837  -12.0744 N   0  0  0  0  0  0  0  0  0  0  0  0
   21.1457  -20.8339  -11.4521 C   0  0  0  0  0  0  0  0  0  0  0  0
   21.2662  -21.7416  -10.4172 O   0  0  0  0  0  0  0  0  0  0  0  0
   20.0251  -20.1956  -11.4479 O   0  0  0  0  0  0  0  0  0  0  0  0
  2  1  1  6
  2  3  1  0
  4  2  1  0
  5  4  2  0
  7  6  1  0
  8  7  1  0
  8  9  1  0
 10  9  1  1
 10 12  1  0
 10 11  1  0
 11  4  1  0
 12 19  1  0
 13 12  2  0
 15 14  1  6
 16 15  1  0
 17 15  1  0
 18 17  1  6
 18 20  1  0
 19 18  1  0
 20 21  1  0
 22 20  2  0
M  END
$$$$
