AML.pdb
     RDKit          3D

 22 21  0  0  1  0  0  0  0  0999 V2000
   25.9110  -15.4992  -15.5239 C   0  0  0  0  0  0  0  0  0  0  0  0
   27.0071  -16.5663  -15.4064 C   0  0  2  0  0  0  0  0  0  0  0  0
   27.7427  -16.5619  -16.6521 N   0  0  0  0  0  0  0  0  0  0  0  0
   26.4026  -17.8981  -15.1664 C   0  0  0  0  0  0  0  0  0  0  0  0
   25.8791  -18.5055  -16.1287 O   0  0  0  0  0  0  0  0  0  0  0  0
   30.3286  -21.6704  -11.1987 C   0  0  0  0  0  0  0  0  0  0  0  0
   28.5743  -21.3056  -10.9636 S   0  0  0  0  0  0  0  0  0  0  0  0
   27.9357  -20.5922  -12.5108 C   0  0  0  0  0  0  0  0  0  0  0  0
   26.4644  -20.3311  -12.2986 C   0  0  0  0  0  0  0  0  0  0  0  0
   25.8630  -19.7664  -13.5819 C   0  0  2  0  0  0  0  0  0  0  0  0
   26.4149  -18.4757  -13.8745 N   0  0  0  0  0  0  0  0  0  0  0  0
   24.3834  -19.7485  -13.4309 C   0  0  0  0  0  0  0  0  0  0  0  0
   23.9152  -18.9758  -12.5574 O   0  0  0  0  0  0  0  0  0  0  0  0
   19.1228  -20.1697  -14.9947 C   0  0  0  0  0  0  0  0  0  0  0  0
   20.2001  -19.1914  -15.3925 C   0  0  2  0  0  0  0  0  0  0  0  0
   19.7823  -18.4749  -16.6304 C   0  0  0  0  0  0  0  0  0  0  0  0
   21.5748  -19.6969  -15.3056 C   0  0  0  0  0  0  0  0  0  0  0  0
   22.0500  -20.3706  -14.0820 C   0  0  2  0  0  0  0  0  0  0  0  0
   23.5196  -20.5464  -14.2128 N   0  0  0  0  0  0  0  0  0  0  0  0
   21.4538  -21.6626  -13.7344 C   0  0  0  0  0  0  0  0  0  0  0  0
   21.8274  -22.8938  -14.2388 O   0  0  0  0  0  0  0  0  0  0  0  0
   20.4831  -21.7272  -12.8877 O   0  0  0  0  0  0  0  0  0  0  0  0
  2  1  1  6
  2  3  1  0
  4  2  1  0
  5  4  2  0
  7  6  1  0
  8  7  1  0
  8  9  1  0
 10  9  1  1
 10 12  1  0
 10 11  1  0
 11  4  1  0
 12 19  1  0
 13 12  2  0
 15 14  1  6
 16 15  1  0
 17 15  1  0
 18 17  1  6
 18 20  1  0
 19 18  1  0
 20 21  1  0
 22 20  2  0
M  END
$$$$
