AML.pdb
     RDKit          3D

 22 21  0  0  1  0  0  0  0  0999 V2000
   28.3104  -19.3652  -13.8998 C   0  0  0  0  0  0  0  0  0  0  0  0
   28.9218  -20.4796  -13.0406 C   0  0  2  0  0  0  0  0  0  0  0  0
   29.2348  -21.5792  -13.9269 N   0  0  0  0  0  0  0  0  0  0  0  0
   27.9591  -20.9111  -11.9996 C   0  0  0  0  0  0  0  0  0  0  0  0
   27.0718  -21.7409  -12.3047 O   0  0  0  0  0  0  0  0  0  0  0  0
   28.5090  -20.3614   -5.2156 C   0  0  0  0  0  0  0  0  0  0  0  0
   26.9830  -19.5571   -5.7542 S   0  0  0  0  0  0  0  0  0  0  0  0
   26.4385  -20.3579   -7.2948 C   0  0  0  0  0  0  0  0  0  0  0  0
   27.4323  -19.9732   -8.3636 C   0  0  0  0  0  0  0  0  0  0  0  0
   27.0616  -20.6691   -9.6697 C   0  0  2  0  0  0  0  0  0  0  0  0
   28.0382  -20.3966  -10.6835 N   0  0  0  0  0  0  0  0  0  0  0  0
   25.6893  -20.2394  -10.0498 C   0  0  0  0  0  0  0  0  0  0  0  0
   25.5228  -19.0130  -10.2679 O   0  0  0  0  0  0  0  0  0  0  0  0
   23.3758  -19.4777  -13.6229 C   0  0  0  0  0  0  0  0  0  0  0  0
   23.7011  -20.9104  -13.2803 C   0  0  2  0  0  0  0  0  0  0  0  0
   23.5675  -21.7518  -14.5028 C   0  0  0  0  0  0  0  0  0  0  0  0
   23.1274  -21.4046  -12.0235 C   0  0  0  0  0  0  0  0  0  0  0  0
   23.3301  -20.6631  -10.7641 C   0  0  2  0  0  0  0  0  0  0  0  0
   24.6060  -21.1375  -10.1686 N   0  0  0  0  0  0  0  0  0  0  0  0
   22.2810  -20.7419   -9.7449 C   0  0  0  0  0  0  0  0  0  0  0  0
   22.4182  -21.2669   -8.4739 O   0  0  0  0  0  0  0  0  0  0  0  0
   21.0946  -20.3016   -9.9937 O   0  0  0  0  0  0  0  0  0  0  0  0
  2  1  1  6
  2  3  1  0
  4  2  1  0
  5  4  2  0
  7  6  1  0
  8  7  1  0
  8  9  1  0
 10  9  1  1
 10 12  1  0
 10 11  1  0
 11  4  1  0
 12 19  1  0
 13 12  2  0
 15 14  1  6
 16 15  1  0
 17 15  1  0
 18 17  1  6
 18 20  1  0
 19 18  1  0
 20 21  1  0
 22 20  2  0
M  END
$$$$
