AML.pdb
     RDKit          3D

 22 21  0  0  1  0  0  0  0  0999 V2000
   23.2552  -19.2665  -13.8210 C   0  0  0  0  0  0  0  0  0  0  0  0
   24.5893  -19.9016  -13.4075 C   0  0  2  0  0  0  0  0  0  0  0  0
   24.9681  -20.8214  -14.4579 N   0  0  0  0  0  0  0  0  0  0  0  0
   24.4381  -20.6195  -12.1197 C   0  0  0  0  0  0  0  0  0  0  0  0
   23.8869  -21.7443  -12.1168 O   0  0  0  0  0  0  0  0  0  0  0  0
   26.9392  -18.3951   -6.3349 C   0  0  0  0  0  0  0  0  0  0  0  0
   27.0461  -20.1983   -6.2834 S   0  0  0  0  0  0  0  0  0  0  0  0
   25.7378  -20.8703   -7.3546 C   0  0  0  0  0  0  0  0  0  0  0  0
   25.7679  -20.0733   -8.6360 C   0  0  0  0  0  0  0  0  0  0  0  0
   24.8014  -20.6957   -9.6389 C   0  0  2  0  0  0  0  0  0  0  0  0
   24.9069  -20.0471  -10.9133 N   0  0  0  0  0  0  0  0  0  0  0  0
   23.4317  -20.6319   -9.0625 C   0  0  0  0  0  0  0  0  0  0  0  0
   22.8039  -19.5546   -9.2190 O   0  0  0  0  0  0  0  0  0  0  0  0
   18.5302  -22.6653   -7.6081 C   0  0  0  0  0  0  0  0  0  0  0  0
   19.1354  -22.2323   -8.9204 C   0  0  2  0  0  0  0  0  0  0  0  0
   18.3574  -22.8291  -10.0424 C   0  0  0  0  0  0  0  0  0  0  0  0
   20.6007  -22.2738   -8.9838 C   0  0  0  0  0  0  0  0  0  0  0  0
   21.4151  -21.6069   -7.9499 C   0  0  2  0  0  0  0  0  0  0  0  0
   22.8369  -21.7087   -8.3689 N   0  0  0  0  0  0  0  0  0  0  0  0
   21.2990  -22.0859   -6.5704 C   0  0  0  0  0  0  0  0  0  0  0  0
   22.1254  -23.0075   -5.9562 O   0  0  0  0  0  0  0  0  0  0  0  0
   20.3574  -21.6494   -5.8048 O   0  0  0  0  0  0  0  0  0  0  0  0
  2  1  1  6
  2  3  1  0
  4  2  1  0
  5  4  2  0
  7  6  1  0
  8  7  1  0
  8  9  1  0
 10  9  1  1
 10 12  1  0
 10 11  1  0
 11  4  1  0
 12 19  1  0
 13 12  2  0
 15 14  1  1
 16 15  1  0
 17 15  1  0
 18 17  1  6
 18 20  1  0
 19 18  1  0
 20 21  1  0
 22 20  2  0
M  END
$$$$
