AML.pdb
     RDKit          3D

 22 21  0  0  1  0  0  0  0  0999 V2000
   22.1976   -9.2462  -21.5619 C   0  0  0  0  0  0  0  0  0  0  0  0
   23.0374   -9.8327  -20.4196 C   0  0  2  0  0  0  0  0  0  0  0  0
   23.0789  -11.2659  -20.6125 N   0  0  0  0  0  0  0  0  0  0  0  0
   22.4243   -9.5035  -19.1111 C   0  0  0  0  0  0  0  0  0  0  0  0
   21.1755   -9.4605  -19.0233 O   0  0  0  0  0  0  0  0  0  0  0  0
   22.7743  -12.5642  -14.0710 C   0  0  0  0  0  0  0  0  0  0  0  0
   21.7446  -11.0835  -13.9569 S   0  0  0  0  0  0  0  0  0  0  0  0
   22.8014   -9.6373  -14.2771 C   0  0  0  0  0  0  0  0  0  0  0  0
   23.4360   -9.8492  -15.6301 C   0  0  0  0  0  0  0  0  0  0  0  0
   22.7019   -9.0061  -16.6681 C   0  0  2  0  0  0  0  0  0  0  0  0
   23.2325   -9.2419  -17.9791 N   0  0  0  0  0  0  0  0  0  0  0  0
   22.7870   -7.5809  -16.2510 C   0  0  0  0  0  0  0  0  0  0  0  0
   23.9094   -7.0269  -16.3629 O   0  0  0  0  0  0  0  0  0  0  0  0
   21.4786   -3.5765  -17.6952 C   0  0  0  0  0  0  0  0  0  0  0  0
   20.3560   -4.2954  -16.9890 C   0  0  2  0  0  0  0  0  0  0  0  0
   19.0704   -3.5954  -17.2677 C   0  0  0  0  0  0  0  0  0  0  0  0
   20.6420   -4.7134  -15.6119 C   0  0  0  0  0  0  0  0  0  0  0  0
   21.8766   -5.4566  -15.2951 C   0  0  2  0  0  0  0  0  0  0  0  0
   21.6823   -6.8574  -15.7505 N   0  0  0  0  0  0  0  0  0  0  0  0
   22.3269   -5.4764  -13.9013 C   0  0  0  0  0  0  0  0  0  0  0  0
   22.9392   -4.4362  -13.2284 O   0  0  0  0  0  0  0  0  0  0  0  0
   22.1707   -6.5339  -13.1797 O   0  0  0  0  0  0  0  0  0  0  0  0
  2  1  1  6
  2  3  1  0
  4  2  1  0
  5  4  2  0
  7  6  1  0
  8  7  1  0
  8  9  1  0
 10  9  1  1
 10 12  1  0
 10 11  1  0
 11  4  1  0
 12 19  1  0
 13 12  2  0
 15 14  1  1
 16 15  1  0
 17 15  1  0
 18 17  1  1
 18 20  1  0
 19 18  1  0
 20 21  1  0
 22 20  2  0
M  END
$$$$
