AML.pdb
     RDKit          3D

 22 21  0  0  1  0  0  0  0  0999 V2000
   18.3488  -12.4348  -17.8146 C   0  0  0  0  0  0  0  0  0  0  0  0
   18.8953  -11.0240  -18.0692 C   0  0  2  0  0  0  0  0  0  0  0  0
   19.7562  -11.1024  -19.2291 N   0  0  0  0  0  0  0  0  0  0  0  0
   19.6568  -10.5485  -16.8899 C   0  0  0  0  0  0  0  0  0  0  0  0
   19.0688  -10.4593  -15.7875 O   0  0  0  0  0  0  0  0  0  0  0  0
   25.3156  -12.0251  -17.5436 C   0  0  0  0  0  0  0  0  0  0  0  0
   24.9082  -12.2481  -15.7971 S   0  0  0  0  0  0  0  0  0  0  0  0
   23.2212  -11.6214  -15.5285 C   0  0  0  0  0  0  0  0  0  0  0  0
   23.2193  -10.1725  -15.9516 C   0  0  0  0  0  0  0  0  0  0  0  0
   21.7889   -9.6428  -15.9273 C   0  0  2  0  0  0  0  0  0  0  0  0
   21.0239  -10.2007  -17.0041 N   0  0  0  0  0  0  0  0  0  0  0  0
   21.8450   -8.1568  -15.9591 C   0  0  0  0  0  0  0  0  0  0  0  0
   22.1133   -7.6265  -17.0664 O   0  0  0  0  0  0  0  0  0  0  0  0
   18.7213   -3.6994  -16.2914 C   0  0  0  0  0  0  0  0  0  0  0  0
   20.1364   -4.0441  -15.8983 C   0  0  2  0  0  0  0  0  0  0  0  0
   21.0844   -3.3718  -16.8307 C   0  0  0  0  0  0  0  0  0  0  0  0
   20.3709   -5.4512  -15.5547 C   0  0  0  0  0  0  0  0  0  0  0  0
   21.6519   -5.8736  -14.9567 C   0  0  2  0  0  0  0  0  0  0  0  0
   21.6138   -7.3527  -14.8215 N   0  0  0  0  0  0  0  0  0  0  0  0
   22.0297   -5.2957  -13.6648 C   0  0  0  0  0  0  0  0  0  0  0  0
   22.6026   -4.0542  -13.4643 O   0  0  0  0  0  0  0  0  0  0  0  0
   21.8403   -5.9566  -12.5736 O   0  0  0  0  0  0  0  0  0  0  0  0
  2  1  1  1
  2  3  1  0
  4  2  1  0
  5  4  2  0
  7  6  1  0
  8  7  1  0
  8  9  1  0
 10  9  1  6
 10 12  1  0
 10 11  1  0
 11  4  1  0
 12 19  1  0
 13 12  2  0
 15 14  1  6
 16 15  1  0
 17 15  1  0
 18 17  1  1
 18 20  1  0
 19 18  1  0
 20 21  1  0
 22 20  2  0
M  END
$$$$
