AML.pdb
     RDKit          3D

 22 21  0  0  1  0  0  0  0  0999 V2000
   28.2007  -19.4626  -15.4305 C   0  0  0  0  0  0  0  0  0  0  0  0
   26.7867  -20.0472  -15.3168 C   0  0  2  0  0  0  0  0  0  0  0  0
   26.0421  -19.5913  -16.4703 N   0  0  0  0  0  0  0  0  0  0  0  0
   26.1395  -19.5843  -14.0664 C   0  0  0  0  0  0  0  0  0  0  0  0
   25.7842  -18.3863  -13.9783 O   0  0  0  0  0  0  0  0  0  0  0  0
   21.0686  -21.8985  -13.3261 C   0  0  0  0  0  0  0  0  0  0  0  0
   21.1186  -20.1262  -12.9765 S   0  0  0  0  0  0  0  0  0  0  0  0
   22.8629  -19.6099  -12.9355 C   0  0  0  0  0  0  0  0  0  0  0  0
   23.6257  -20.6990  -12.2211 C   0  0  0  0  0  0  0  0  0  0  0  0
   25.0323  -20.2022  -11.9019 C   0  0  2  0  0  0  0  0  0  0  0  0
   25.9254  -20.4772  -12.9894 N   0  0  0  0  0  0  0  0  0  0  0  0
   25.4629  -20.8233  -10.6209 C   0  0  0  0  0  0  0  0  0  0  0  0
   25.6153  -22.0707  -10.6225 O   0  0  0  0  0  0  0  0  0  0  0  0
   28.9299  -20.4998   -7.6813 C   0  0  0  0  0  0  0  0  0  0  0  0
   27.9149  -19.4056   -7.4615 C   0  0  2  0  0  0  0  0  0  0  0  0
   28.4920  -18.3730   -6.5555 C   0  0  0  0  0  0  0  0  0  0  0  0
   26.5402  -19.8589   -7.2216 C   0  0  0  0  0  0  0  0  0  0  0  0
   25.8854  -20.7945   -8.1559 C   0  0  2  0  0  0  0  0  0  0  0  0
   25.6974  -20.0786   -9.4441 N   0  0  0  0  0  0  0  0  0  0  0  0
   24.6038  -21.3798   -7.7551 C   0  0  0  0  0  0  0  0  0  0  0  0
   24.4257  -22.4058   -6.8466 O   0  0  0  0  0  0  0  0  0  0  0  0
   23.5005  -20.9455   -8.2626 O   0  0  0  0  0  0  0  0  0  0  0  0
  2  1  1  6
  2  3  1  0
  4  2  1  0
  5  4  2  0
  7  6  1  0
  8  7  1  0
  8  9  1  0
 10  9  1  6
 10 12  1  0
 10 11  1  0
 11  4  1  0
 12 19  1  0
 13 12  2  0
 15 14  1  1
 16 15  1  0
 17 15  1  0
 18 17  1  1
 18 20  1  0
 19 18  1  0
 20 21  1  0
 22 20  2  0
M  END
$$$$
