AML.pdb
     RDKit          3D

 22 21  0  0  1  0  0  0  0  0999 V2000
   27.8255  -18.3544  -16.2466 C   0  0  0  0  0  0  0  0  0  0  0  0
   28.5741  -19.6936  -16.2502 C   0  0  2  0  0  0  0  0  0  0  0  0
   28.1853  -20.3970  -17.4531 N   0  0  0  0  0  0  0  0  0  0  0  0
   28.2159  -20.4845  -15.0489 C   0  0  0  0  0  0  0  0  0  0  0  0
   27.2881  -21.3219  -15.1322 O   0  0  0  0  0  0  0  0  0  0  0  0
   32.4243  -21.6240  -10.4831 C   0  0  0  0  0  0  0  0  0  0  0  0
   30.9853  -21.8017   -9.4045 S   0  0  0  0  0  0  0  0  0  0  0  0
   29.4964  -21.8138  -10.4505 C   0  0  0  0  0  0  0  0  0  0  0  0
   29.8378  -21.0518  -11.7078 C   0  0  0  0  0  0  0  0  0  0  0  0
   28.6318  -21.0558  -12.6420 C   0  0  2  0  0  0  0  0  0  0  0  0
   28.9077  -20.2991  -13.8283 N   0  0  0  0  0  0  0  0  0  0  0  0
   27.4575  -20.5467  -11.8843 C   0  0  0  0  0  0  0  0  0  0  0  0
   27.4220  -19.3100  -11.6638 O   0  0  0  0  0  0  0  0  0  0  0  0
   23.2878  -19.1086  -12.4156 C   0  0  0  0  0  0  0  0  0  0  0  0
   23.4829  -20.5970  -12.5658 C   0  0  2  0  0  0  0  0  0  0  0  0
   22.2909  -21.1847  -13.2396 C   0  0  0  0  0  0  0  0  0  0  0  0
   24.0331  -21.2830  -11.3912 C   0  0  0  0  0  0  0  0  0  0  0  0
   25.2510  -20.7771  -10.7295 C   0  0  2  0  0  0  0  0  0  0  0  0
   26.4179  -21.3829  -11.4215 N   0  0  0  0  0  0  0  0  0  0  0  0
   25.3932  -21.0022   -9.2891 C   0  0  0  0  0  0  0  0  0  0  0  0
   24.8614  -20.2151   -8.2855 O   0  0  0  0  0  0  0  0  0  0  0  0
   26.0685  -22.0091   -8.8492 O   0  0  0  0  0  0  0  0  0  0  0  0
  2  1  1  1
  2  3  1  0
  4  2  1  0
  5  4  2  0
  7  6  1  0
  8  7  1  0
  8  9  1  0
 10  9  1  1
 10 12  1  0
 10 11  1  0
 11  4  1  0
 12 19  1  0
 13 12  2  0
 15 14  1  1
 16 15  1  0
 17 15  1  0
 18 17  1  6
 18 20  1  0
 19 18  1  0
 20 21  1  0
 22 20  2  0
M  END
$$$$
