RGI.pdb
     RDKit          3D

 24 23  0  0  1  0  0  0  0  0999 V2000
    7.9678  -13.9750   15.9001 N   0  0  0  0  0  0  0  0  0  0  0  0
    7.6948  -13.5644   17.2214 C   0  0  0  0  0  0  0  0  0  0  0  0
    7.9791  -12.3938   17.6685 N   0  0  0  0  0  0  0  0  0  0  0  0
    7.0717  -14.4963   18.1063 N   0  0  0  0  0  0  0  0  0  0  0  0
    6.7537  -14.1380   19.4746 C   0  0  0  0  0  0  0  0  0  0  0  0
    7.5857  -14.9957   20.4379 C   0  0  0  0  0  0  0  0  0  0  0  0
    7.2610  -16.4174   20.1547 C   0  0  0  0  0  0  0  0  0  0  0  0
    7.9392  -17.3428   21.1108 C   0  0  2  0  0  0  0  0  0  0  0  0
    7.1613  -17.4450   22.3558 N   0  0  0  0  0  0  0  0  0  0  0  0
    9.2523  -16.8011   21.5008 C   0  0  0  0  0  0  0  0  0  0  0  0
   10.1881  -16.6883   20.6769 O   0  0  0  0  0  0  0  0  0  0  0  0
    7.8512  -12.1617   18.6679 N   0  0  0  0  0  0  0  0  0  0  0  0
    9.5338  -16.3722   22.8440 C   0  0  0  0  0  0  0  0  0  0  0  0
   10.7924  -15.7394   23.1121 C   0  0  0  0  0  0  0  0  0  0  0  0
   10.8667  -15.4244   24.5588 O   0  0  0  0  0  0  0  0  0  0  0  0
   11.9738  -15.1508   25.0969 C   0  0  0  0  0  0  0  0  0  0  0  0
    6.7400  -12.5886   25.9505 C   0  0  0  0  0  0  0  0  0  0  0  0
    8.1226  -13.1581   25.7998 C   0  0  2  0  0  0  0  0  0  0  0  0
    8.4896  -14.0673   26.9548 C   0  0  0  0  0  0  0  0  0  0  0  0
    8.6114  -13.2485   28.2093 C   0  0  2  0  0  0  0  0  0  0  0  0
    9.7869  -14.8056   26.6821 N   0  0  0  0  0  0  0  0  0  0  0  0
    9.7021  -15.4225   25.3730 C   0  0  0  0  0  0  0  0  0  0  0  0
    9.8721  -15.8846   27.6930 O   0  0  0  0  0  0  0  0  0  0  0  0
   10.6772  -15.8337   28.8212 O   0  0  0  0  0  0  0  0  0  0  0  0
  2  3  2  0
  2  1  1  0
  4  2  1  0
  5  4  1  0
  6  5  1  0
  7  6  1  0
  8  7  1  0
  8  9  1  1
 10 12  1  0
 10  8  1  0
 11 10  2  0
 13 12  1  0
 14 13  1  0
 14 21  1  0
 15 14  2  0
 16 17  1  0
 17 18  1  0
 18 20  1  0
 18 19  1  1
 20 21  1  6
 20 22  1  0
 22 24  2  0
 22 23  1  0
M  END
$$$$
