RGI.pdb
     RDKit          3D

 24 23  0  0  1  0  0  0  0  0999 V2000
    7.4701  -22.9244   20.3133 N   0  0  0  0  0  0  0  0  0  0  0  0
    7.1471  -23.0940   18.9510 C   0  0  0  0  0  0  0  0  0  0  0  0
    7.0698  -24.2440   18.3830 N   0  0  0  0  0  0  0  0  0  0  0  0
    6.8937  -21.9296   18.1638 N   0  0  0  0  0  0  0  0  0  0  0  0
    6.9774  -20.6006   18.7370 C   0  0  0  0  0  0  0  0  0  0  0  0
    5.7133  -20.3142   19.5591 C   0  0  0  0  0  0  0  0  0  0  0  0
    5.7390  -18.8732   19.9194 C   0  0  0  0  0  0  0  0  0  0  0  0
    6.9192  -18.5346   20.7697 C   0  0  2  0  0  0  0  0  0  0  0  0
    7.5003  -19.7596   21.3417 N   0  0  0  0  0  0  0  0  0  0  0  0
    6.5013  -17.7136   21.9191 C   0  0  0  0  0  0  0  0  0  0  0  0
    5.9735  -16.5887   21.7664 O   0  0  0  0  0  0  0  0  0  0  0  0
    6.7849  -24.3290   17.3927 N   0  0  0  0  0  0  0  0  0  0  0  0
    6.6743  -18.1547   23.2766 C   0  0  0  0  0  0  0  0  0  0  0  0
    6.2003  -17.3133   24.3367 C   0  0  0  0  0  0  0  0  0  0  0  0
    7.2082  -16.2562   24.5904 O   0  0  0  0  0  0  0  0  0  0  0  0
    8.2794  -16.2224   23.9260 C   0  0  0  0  0  0  0  0  0  0  0  0
    5.9285  -11.5494   27.5247 C   0  0  0  0  0  0  0  0  0  0  0  0
    6.2824  -12.9248   27.0330 C   0  0  2  0  0  0  0  0  0  0  0  0
    7.2371  -12.8778   25.8576 C   0  0  0  0  0  0  0  0  0  0  0  0
    6.4671  -12.5554   24.6078 C   0  0  1  0  0  0  0  0  0  0  0  0
    7.9737  -14.1944   25.6951 N   0  0  0  0  0  0  0  0  0  0  0  0
    6.9974  -15.2600   25.5816 C   0  0  0  0  0  0  0  0  0  0  0  0
    8.7358  -14.4023   26.9479 O   0  0  0  0  0  0  0  0  0  0  0  0
    8.3981  -15.3318   27.9203 O   0  0  0  0  0  0  0  0  0  0  0  0
  2  3  2  0
  2  1  1  0
  4  2  1  0
  5  4  1  0
  6  5  1  0
  7  6  1  0
  8  7  1  0
  8  9  1  1
 10 12  1  0
 10  8  1  0
 11 10  2  0
 13 12  1  0
 14 13  1  0
 14 21  1  0
 15 14  2  0
 16 17  1  0
 17 18  1  0
 18 20  1  0
 18 19  1  1
 20 21  1  6
 20 22  1  0
 22 24  2  0
 22 23  1  0
M  END
$$$$
