RGI.pdb
     RDKit          3D

 24 23  0  0  1  0  0  0  0  0999 V2000
    7.8706  -13.7812   16.1168 N   0  0  0  0  0  0  0  0  0  0  0  0
    7.7552  -13.3502   17.4547 C   0  0  0  0  0  0  0  0  0  0  0  0
    6.7081  -12.7689   17.9200 N   0  0  0  0  0  0  0  0  0  0  0  0
    8.8573  -13.5709   18.3359 N   0  0  0  0  0  0  0  0  0  0  0  0
    9.9669  -14.4227   17.9549 C   0  0  0  0  0  0  0  0  0  0  0  0
    9.5291  -15.8928   18.0088 C   0  0  0  0  0  0  0  0  0  0  0  0
   10.5304  -16.6210   18.8297 C   0  0  0  0  0  0  0  0  0  0  0  0
    9.8991  -17.3041   19.9983 C   0  0  2  0  0  0  0  0  0  0  0  0
    8.8059  -18.1785   19.5446 N   0  0  0  0  0  0  0  0  0  0  0  0
    9.2764  -16.3136   20.8932 C   0  0  0  0  0  0  0  0  0  0  0  0
    9.9442  -15.4011   21.4302 O   0  0  0  0  0  0  0  0  0  0  0  0
    6.6374  -12.5248   18.9222 N   0  0  0  0  0  0  0  0  0  0  0  0
    7.8718  -16.3371   21.1998 C   0  0  0  0  0  0  0  0  0  0  0  0
    7.3186  -15.2571   21.9640 C   0  0  0  0  0  0  0  0  0  0  0  0
    7.8178  -15.3563   23.3563 O   0  0  0  0  0  0  0  0  0  0  0  0
    8.8155  -16.0783   23.6272 C   0  0  0  0  0  0  0  0  0  0  0  0
    5.3927  -12.1898   27.4130 C   0  0  0  0  0  0  0  0  0  0  0  0
    5.9068  -13.3132   26.5573 C   0  0  2  0  0  0  0  0  0  0  0  0
    7.4056  -13.2295   26.3532 C   0  0  0  0  0  0  0  0  0  0  0  0
    7.7280  -11.9971   25.5556 C   0  0  1  0  0  0  0  0  0  0  0  0
    7.9338  -14.4644   25.6472 N   0  0  0  0  0  0  0  0  0  0  0  0
    7.1907  -14.6471   24.4160 C   0  0  0  0  0  0  0  0  0  0  0  0
    7.6370  -15.6110   26.5364 O   0  0  0  0  0  0  0  0  0  0  0  0
    8.3958  -15.9538   27.6457 O   0  0  0  0  0  0  0  0  0  0  0  0
  2  3  2  0
  2  1  1  0
  4  2  1  0
  5  4  1  0
  6  5  1  0
  7  6  1  0
  8  7  1  0
  8  9  1  6
 10 12  1  0
 10  8  1  0
 11 10  2  0
 13 12  1  0
 14 13  1  0
 14 21  1  0
 15 14  2  0
 16 17  1  0
 17 18  1  0
 18 20  1  0
 18 19  1  1
 20 21  1  6
 20 22  1  0
 22 24  2  0
 22 23  1  0
M  END
$$$$
