RGI.pdb
     RDKit          3D

 24 23  0  0  1  0  0  0  0  0999 V2000
    8.6610  -12.5392   14.9213 N   0  0  0  0  0  0  0  0  0  0  0  0
    8.4765  -13.7566   14.2337 C   0  0  0  0  0  0  0  0  0  0  0  0
    9.0040  -14.0064   13.0890 N   0  0  0  0  0  0  0  0  0  0  0  0
    7.6626  -14.7615   14.8399 N   0  0  0  0  0  0  0  0  0  0  0  0
    7.2281  -14.6479   16.2184 C   0  0  0  0  0  0  0  0  0  0  0  0
    8.3987  -14.9753   17.1556 C   0  0  0  0  0  0  0  0  0  0  0  0
    7.9032  -14.8267   18.5482 C   0  0  0  0  0  0  0  0  0  0  0  0
    8.9672  -15.1301   19.5513 C   0  0  2  0  0  0  0  0  0  0  0  0
    9.5240  -16.4707   19.3102 N   0  0  0  0  0  0  0  0  0  0  0  0
    8.3934  -15.1714   20.9073 C   0  0  0  0  0  0  0  0  0  0  0  0
    7.8931  -14.1553   21.4408 O   0  0  0  0  0  0  0  0  0  0  0  0
    8.8272  -14.9041   12.6073 N   0  0  0  0  0  0  0  0  0  0  0  0
    8.3742  -16.3755   21.6928 C   0  0  0  0  0  0  0  0  0  0  0  0
    7.6168  -16.3879   22.9104 C   0  0  0  0  0  0  0  0  0  0  0  0
    8.2495  -15.4544   23.8726 O   0  0  0  0  0  0  0  0  0  0  0  0
    9.4886  -15.2262   23.8205 C   0  0  0  0  0  0  0  0  0  0  0  0
    5.2120  -11.7353   26.8773 C   0  0  0  0  0  0  0  0  0  0  0  0
    5.9480  -12.9665   26.4288 C   0  0  2  0  0  0  0  0  0  0  0  0
    7.3503  -12.6462   25.9532 C   0  0  0  0  0  0  0  0  0  0  0  0
    7.2724  -11.9004   24.6506 C   0  0  1  0  0  0  0  0  0  0  0  0
    8.1756  -13.9086   25.7863 N   0  0  0  0  0  0  0  0  0  0  0  0
    7.4839  -14.7964   24.8727 C   0  0  0  0  0  0  0  0  0  0  0  0
    8.2148  -14.5590   27.1163 O   0  0  0  0  0  0  0  0  0  0  0  0
    7.5781  -15.7534   27.4188 O   0  0  0  0  0  0  0  0  0  0  0  0
  2  3  2  0
  2  1  1  0
  4  2  1  0
  5  4  1  0
  6  5  1  0
  7  6  1  0
  8  7  1  0
  8  9  1  6
 10 12  1  0
 10  8  1  0
 11 10  2  0
 13 12  1  0
 14 13  1  0
 14 21  1  0
 15 14  2  0
 16 17  1  0
 17 18  1  0
 18 20  1  0
 18 19  1  1
 20 21  1  6
 20 22  1  0
 22 24  2  0
 22 23  1  0
M  END
$$$$
