RGI.pdb
     RDKit          3D

 24 23  0  0  1  0  0  0  0  0999 V2000
    9.8735  -15.1107   17.2833 N   0  0  0  0  0  0  0  0  0  0  0  0
    8.9950  -14.3328   16.5008 C   0  0  0  0  0  0  0  0  0  0  0  0
    8.8226  -14.5172   15.2410 N   0  0  0  0  0  0  0  0  0  0  0  0
    8.2608  -13.2882   17.1408 N   0  0  0  0  0  0  0  0  0  0  0  0
    8.4544  -12.9832   18.5449 C   0  0  0  0  0  0  0  0  0  0  0  0
    7.2588  -13.5042   19.3542 C   0  0  0  0  0  0  0  0  0  0  0  0
    7.7870  -13.9997   20.6512 C   0  0  0  0  0  0  0  0  0  0  0  0
    8.0243  -15.4741   20.6271 C   0  0  2  0  0  0  0  0  0  0  0  0
    6.7527  -16.1952   20.7959 N   0  0  0  0  0  0  0  0  0  0  0  0
    8.8673  -15.8740   21.7669 C   0  0  0  0  0  0  0  0  0  0  0  0
   10.0724  -15.5434   21.8415 O   0  0  0  0  0  0  0  0  0  0  0  0
    8.1672  -13.9259   14.7026 N   0  0  0  0  0  0  0  0  0  0  0  0
    8.3570  -16.6633   22.8551 C   0  0  0  0  0  0  0  0  0  0  0  0
    9.2820  -17.1735   23.8249 C   0  0  0  0  0  0  0  0  0  0  0  0
    9.6411  -16.0802   24.7595 O   0  0  0  0  0  0  0  0  0  0  0  0
   10.5917  -15.2965   24.4907 C   0  0  0  0  0  0  0  0  0  0  0  0
    6.3663  -12.6713   26.8436 C   0  0  0  0  0  0  0  0  0  0  0  0
    7.5676  -13.4224   26.3422 C   0  0  2  0  0  0  0  0  0  0  0  0
    8.3259  -14.0945   27.4684 C   0  0  0  0  0  0  0  0  0  0  0  0
    8.8534  -13.0442   28.4053 C   0  0  2  0  0  0  0  0  0  0  0  0
    9.4660  -14.9415   26.9343 N   0  0  0  0  0  0  0  0  0  0  0  0
    8.9303  -15.8867   25.9746 C   0  0  0  0  0  0  0  0  0  0  0  0
    9.9915  -15.7072   28.0879 O   0  0  0  0  0  0  0  0  0  0  0  0
   11.0119  -15.2653   28.9169 O   0  0  0  0  0  0  0  0  0  0  0  0
  2  3  2  0
  2  1  1  0
  4  2  1  0
  5  4  1  0
  6  5  1  0
  7  6  1  0
  8  7  1  0
  8  9  1  1
 10 12  1  0
 10  8  1  0
 11 10  2  0
 13 12  1  0
 14 13  1  0
 14 21  1  0
 15 14  2  0
 16 17  1  0
 17 18  1  0
 18 20  1  0
 18 19  1  1
 20 21  1  6
 20 22  1  0
 22 24  2  0
 22 23  1  0
M  END
$$$$
