RGI.pdb
     RDKit          3D

 24 23  0  0  1  0  0  0  0  0999 V2000
    9.2367  -14.4712   15.8285 N   0  0  0  0  0  0  0  0  0  0  0  0
    8.0437  -13.7230   15.7505 C   0  0  0  0  0  0  0  0  0  0  0  0
    7.4842  -13.4027   14.6390 N   0  0  0  0  0  0  0  0  0  0  0  0
    7.4273  -13.3003   16.9675 N   0  0  0  0  0  0  0  0  0  0  0  0
    7.8650  -13.8134   18.2508 C   0  0  0  0  0  0  0  0  0  0  0  0
    7.6074  -15.3252   18.3155 C   0  0  0  0  0  0  0  0  0  0  0  0
    8.4909  -15.8778   19.3743 C   0  0  0  0  0  0  0  0  0  0  0  0
    7.7137  -16.3215   20.5700 C   0  0  2  0  0  0  0  0  0  0  0  0
    7.1593  -15.1554   21.2758 N   0  0  0  0  0  0  0  0  0  0  0  0
    8.6016  -16.9911   21.5360 C   0  0  0  0  0  0  0  0  0  0  0  0
    9.2087  -18.0475   21.2485 O   0  0  0  0  0  0  0  0  0  0  0  0
    6.6020  -12.8637   14.6246 N   0  0  0  0  0  0  0  0  0  0  0  0
    8.8216  -16.4723   22.8588 C   0  0  0  0  0  0  0  0  0  0  0  0
   10.1667  -16.1956   23.2718 C   0  0  0  0  0  0  0  0  0  0  0  0
   10.1362  -15.6351   24.6439 O   0  0  0  0  0  0  0  0  0  0  0  0
   11.2082  -15.3265   25.2318 C   0  0  0  0  0  0  0  0  0  0  0  0
    6.2155  -12.2137   25.2580 C   0  0  0  0  0  0  0  0  0  0  0  0
    7.5206  -12.9578   25.2996 C   0  0  2  0  0  0  0  0  0  0  0  0
    7.6646  -13.7782   26.5651 C   0  0  0  0  0  0  0  0  0  0  0  0
    7.6878  -12.8563   27.7520 C   0  0  2  0  0  0  0  0  0  0  0  0
    8.9249  -14.6225   26.5320 N   0  0  0  0  0  0  0  0  0  0  0  0
    8.9082  -15.4321   25.3296 C   0  0  0  0  0  0  0  0  0  0  0  0
    8.8474  -15.5320   27.6983 O   0  0  0  0  0  0  0  0  0  0  0  0
    8.5659  -16.8874   27.6122 O   0  0  0  0  0  0  0  0  0  0  0  0
  2  3  2  0
  2  1  1  0
  4  2  1  0
  5  4  1  0
  6  5  1  0
  7  6  1  0
  8  7  1  0
  8  9  1  1
 10 12  1  0
 10  8  1  0
 11 10  2  0
 13 12  1  0
 14 13  1  0
 14 21  1  0
 15 14  2  0
 16 17  1  0
 17 18  1  0
 18 20  1  0
 18 19  1  1
 20 21  1  6
 20 22  1  0
 22 24  2  0
 22 23  1  0
M  END
$$$$
