RGI.pdb
     RDKit          3D

 24 23  0  0  1  0  0  0  0  0999 V2000
    9.2023  -14.9554   18.0312 N   0  0  0  0  0  0  0  0  0  0  0  0
    8.3220  -13.9264   17.6368 C   0  0  0  0  0  0  0  0  0  0  0  0
    7.9901  -13.7131   16.4140 N   0  0  0  0  0  0  0  0  0  0  0  0
    7.7726  -13.0795   18.6470 N   0  0  0  0  0  0  0  0  0  0  0  0
    6.7125  -13.5411   19.5217 C   0  0  0  0  0  0  0  0  0  0  0  0
    7.2887  -14.5144   20.5592 C   0  0  0  0  0  0  0  0  0  0  0  0
    6.9059  -15.8862   20.1368 C   0  0  0  0  0  0  0  0  0  0  0  0
    7.3430  -16.9145   21.1279 C   0  0  2  0  0  0  0  0  0  0  0  0
    6.5926  -16.7591   22.3842 N   0  0  0  0  0  0  0  0  0  0  0  0
    8.7596  -16.7154   21.4788 C   0  0  0  0  0  0  0  0  0  0  0  0
    9.6737  -16.8721   20.6378 O   0  0  0  0  0  0  0  0  0  0  0  0
    7.4311  -12.8836   16.1524 N   0  0  0  0  0  0  0  0  0  0  0  0
    9.1728  -16.3310   22.8013 C   0  0  0  0  0  0  0  0  0  0  0  0
   10.5577  -16.0363   23.0285 C   0  0  0  0  0  0  0  0  0  0  0  0
   10.7304  -15.6292   24.4434 O   0  0  0  0  0  0  0  0  0  0  0  0
   11.8746  -15.3460   24.8914 C   0  0  0  0  0  0  0  0  0  0  0  0
    6.7742  -12.5790   25.9463 C   0  0  0  0  0  0  0  0  0  0  0  0
    8.0910  -13.2605   25.7005 C   0  0  2  0  0  0  0  0  0  0  0  0
    8.5404  -14.0730   26.8977 C   0  0  0  0  0  0  0  0  0  0  0  0
    8.7730  -13.1511   28.0617 C   0  0  2  0  0  0  0  0  0  0  0  0
    9.8029  -14.8556   26.5878 N   0  0  0  0  0  0  0  0  0  0  0  0
    9.6207  -15.5479   25.3273 C   0  0  0  0  0  0  0  0  0  0  0  0
    9.9340  -15.8736   27.6554 O   0  0  0  0  0  0  0  0  0  0  0  0
   10.6917  -15.7044   28.8048 O   0  0  0  0  0  0  0  0  0  0  0  0
  2  3  2  0
  2  1  1  0
  4  2  1  0
  5  4  1  0
  6  5  1  0
  7  6  1  0
  8  7  1  0
  8  9  1  1
 10 12  1  0
 10  8  1  0
 11 10  2  0
 13 12  1  0
 14 13  1  0
 14 21  1  0
 15 14  2  0
 16 17  1  0
 17 18  1  0
 18 20  1  0
 18 19  1  1
 20 21  1  6
 20 22  1  0
 22 24  2  0
 22 23  1  0
M  END
$$$$
