RGI.pdb
     RDKit          3D

 24 23  0  0  1  0  0  0  0  0999 V2000
    1.2816  -20.9124   19.7626 N   0  0  0  0  0  0  0  0  0  0  0  0
    0.9722  -20.4861   21.0709 C   0  0  0  0  0  0  0  0  0  0  0  0
   -0.2125  -20.1555   21.4427 N   0  0  0  0  0  0  0  0  0  0  0  0
    2.0284  -20.4185   22.0300 N   0  0  0  0  0  0  0  0  0  0  0  0
    3.3421  -19.9228   21.6692 C   0  0  0  0  0  0  0  0  0  0  0  0
    3.2879  -18.3984   21.4981 C   0  0  0  0  0  0  0  0  0  0  0  0
    4.6551  -17.9472   21.1321 C   0  0  0  0  0  0  0  0  0  0  0  0
    5.6528  -18.2836   22.1913 C   0  0  2  0  0  0  0  0  0  0  0  0
    5.1776  -17.8147   23.5028 N   0  0  0  0  0  0  0  0  0  0  0  0
    6.9186  -17.5718   21.9447 C   0  0  0  0  0  0  0  0  0  0  0  0
    7.4997  -17.6280   20.8373 O   0  0  0  0  0  0  0  0  0  0  0  0
   -0.4162  -19.9340   22.4319 N   0  0  0  0  0  0  0  0  0  0  0  0
    7.5569  -16.7744   22.9568 C   0  0  0  0  0  0  0  0  0  0  0  0
    8.7920  -16.1200   22.6365 C   0  0  0  0  0  0  0  0  0  0  0  0
    9.2066  -15.2947   23.7961 O   0  0  0  0  0  0  0  0  0  0  0  0
   10.3362  -14.7344   23.8100 C   0  0  0  0  0  0  0  0  0  0  0  0
    5.6436  -12.5014   27.0224 C   0  0  0  0  0  0  0  0  0  0  0  0
    6.5361  -13.6492   26.6421 C   0  0  2  0  0  0  0  0  0  0  0  0
    7.9392  -13.1879   26.3048 C   0  0  0  0  0  0  0  0  0  0  0  0
    7.8894  -12.2963   25.0958 C   0  0  1  0  0  0  0  0  0  0  0  0
    8.8588  -14.3675   26.0492 N   0  0  0  0  0  0  0  0  0  0  0  0
    8.3500  -15.1138   24.9154 C   0  0  0  0  0  0  0  0  0  0  0  0
    8.7671  -15.2339   27.2469 O   0  0  0  0  0  0  0  0  0  0  0  0
    9.3274  -14.9243   28.4774 O   0  0  0  0  0  0  0  0  0  0  0  0
  2  3  2  0
  2  1  1  0
  4  2  1  0
  5  4  1  0
  6  5  1  0
  7  6  1  0
  8  7  1  0
  8  9  1  1
 10 12  1  0
 10  8  1  0
 11 10  2  0
 13 12  1  0
 14 13  1  0
 14 21  1  0
 15 14  2  0
 16 17  1  0
 17 18  1  0
 18 20  1  0
 18 19  1  1
 20 21  1  6
 20 22  1  0
 22 24  2  0
 22 23  1  0
M  END
$$$$
