RGI.pdb
     RDKit          3D

 24 23  0  0  1  0  0  0  0  0999 V2000
    9.8886  -15.1441   16.1576 N   0  0  0  0  0  0  0  0  0  0  0  0
    8.8691  -14.2278   16.4897 C   0  0  0  0  0  0  0  0  0  0  0  0
    8.0106  -13.7903   15.6397 N   0  0  0  0  0  0  0  0  0  0  0  0
    8.7873  -13.7632   17.8378 N   0  0  0  0  0  0  0  0  0  0  0  0
    7.7551  -14.2404   18.7370 C   0  0  0  0  0  0  0  0  0  0  0  0
    7.0859  -15.4851   18.1381 C   0  0  0  0  0  0  0  0  0  0  0  0
    6.7339  -16.3830   19.2680 C   0  0  0  0  0  0  0  0  0  0  0  0
    7.8463  -16.4906   20.2588 C   0  0  2  0  0  0  0  0  0  0  0  0
    8.3444  -17.8742   20.3137 N   0  0  0  0  0  0  0  0  0  0  0  0
    7.3542  -16.1867   21.6135 C   0  0  0  0  0  0  0  0  0  0  0  0
    6.9611  -15.0407   21.9287 O   0  0  0  0  0  0  0  0  0  0  0  0
    7.2289  -13.1833   15.9390 N   0  0  0  0  0  0  0  0  0  0  0  0
    7.2967  -17.1843   22.6474 C   0  0  0  0  0  0  0  0  0  0  0  0
    6.8051  -16.8047   23.9400 C   0  0  0  0  0  0  0  0  0  0  0  0
    7.7119  -15.7801   24.5105 O   0  0  0  0  0  0  0  0  0  0  0  0
    8.8825  -15.6422   24.0622 C   0  0  0  0  0  0  0  0  0  0  0  0
    5.6538  -11.6670   27.7933 C   0  0  0  0  0  0  0  0  0  0  0  0
    6.3109  -12.9350   27.3251 C   0  0  2  0  0  0  0  0  0  0  0  0
    7.4484  -12.6613   26.3625 C   0  0  0  0  0  0  0  0  0  0  0  0
    6.8940  -12.0665   25.0984 C   0  0  1  0  0  0  0  0  0  0  0  0
    8.2214  -13.9292   26.0507 N   0  0  0  0  0  0  0  0  0  0  0  0
    7.2912  -14.9320   25.5703 C   0  0  0  0  0  0  0  0  0  0  0  0
    8.7814  -14.4023   27.3376 O   0  0  0  0  0  0  0  0  0  0  0  0
    9.8580  -13.8121   27.9829 O   0  0  0  0  0  0  0  0  0  0  0  0
  2  3  2  0
  2  1  1  0
  4  2  1  0
  5  4  1  0
  6  5  1  0
  7  6  1  0
  8  7  1  0
  8  9  1  1
 10 12  1  0
 10  8  1  0
 11 10  2  0
 13 12  1  0
 14 13  1  0
 14 21  1  0
 15 14  2  0
 16 17  1  0
 17 18  1  0
 18 20  1  0
 18 19  1  1
 20 21  1  6
 20 22  1  0
 22 24  2  0
 22 23  1  0
M  END
$$$$
