EGW.pdb
     RDKit          3D

 28 29  0  0  1  0  0  0  0  0999 V2000
   25.9631  -22.2780  -15.6520 N   0  0  0  0  0  0  0  0  0  0  0  0
   26.9906  -21.3467  -15.1322 C   0  0  1  0  0  0  0  0  0  0  0  0
   27.4580  -20.4536  -16.2508 C   0  0  0  0  0  0  0  0  0  0  0  0
   28.1920  -21.2583  -17.2794 C   0  0  0  0  0  0  0  0  0  0  0  0
   27.7258  -20.9427  -18.6603 C   0  0  0  0  0  0  0  0  0  0  0  0
   26.9224  -20.0116  -18.8339 O   0  0  0  0  0  0  0  0  0  0  0  0
   26.3558  -20.5391  -14.0782 C   0  0  0  0  0  0  0  0  0  0  0  0
   25.7737  -19.4437  -14.3145 O   0  0  0  0  0  0  0  0  0  0  0  0
   28.1864  -21.6803  -19.7218 O   0  0  0  0  0  0  0  0  0  0  0  0
   26.3984  -21.0138  -12.7265 N   0  0  0  0  0  0  0  0  0  0  0  0
   25.8476  -20.2553  -11.6501 C   0  0  0  0  0  0  0  0  0  0  0  0
   25.9591  -20.9030  -10.3249 C   0  0  0  0  0  0  0  0  0  0  0  0
   26.4153  -22.0960  -10.2235 O   0  0  0  0  0  0  0  0  0  0  0  0
   25.5970  -20.3084   -9.0897 N   0  0  0  0  0  0  0  0  0  0  0  0
   25.4534  -21.1039   -7.8679 C   0  0  1  0  0  0  0  0  0  0  0  0
   25.5746  -20.2104   -6.6422 C   0  0  0  0  0  0  0  0  0  0  0  0
   26.9132  -19.6318   -6.5088 C   0  0  0  0  0  0  0  0  0  0  0  0
   27.4345  -18.5734   -7.2178 C   0  0  0  0  0  0  0  0  0  0  0  0
   28.7008  -18.3275   -6.8157 N   0  0  0  0  0  0  0  0  0  0  0  0
   29.0104  -19.2238   -5.8435 C   0  0  0  0  0  0  0  0  0  0  0  0
   30.1588  -19.3996   -5.1152 C   0  0  0  0  0  0  0  0  0  0  0  0
   30.2073  -20.4049   -4.1736 C   0  0  0  0  0  0  0  0  0  0  0  0
   29.1273  -21.2419   -3.9435 C   0  0  0  0  0  0  0  0  0  0  0  0
   27.9839  -21.0441   -4.6894 C   0  0  0  0  0  0  0  0  0  0  0  0
   27.8991  -20.0487   -5.6401 C   0  0  0  0  0  0  0  0  0  0  0  0
   24.1291  -21.7622   -7.9257 C   0  0  0  0  0  0  0  0  0  0  0  0
   23.7980  -22.7966   -7.0633 O   0  0  0  0  0  0  0  0  0  0  0  0
   23.2690  -21.3979   -8.7614 O   0  0  0  0  0  0  0  0  0  0  0  0
  2  1  1  6
  3  2  1  0
  3  4  1  0
  5  4  1  0
  5  6  2  0
  7  8  2  0
  7  2  1  0
  9  5  1  0
 10  7  1  0
 11 10  1  0
 11 12  1  0
 12 14  1  0
 13 12  2  0
 14 15  1  0
 15 16  1  1
 15 26  1  0
 17 25  1  0
 17 16  1  0
 18 17  2  0
 19 18  1  0
 19 20  1  0
 20 21  1  0
 20 25  2  0
 21 22  2  0
 22 23  1  0
 24 23  2  0
 25 24  1  0
 26 28  2  0
 26 27  1  0
M  END
$$$$
