EGW.pdb
     RDKit          3D

 28 29  0  0  1  0  0  0  0  0999 V2000
-1073.5800-1108.0006 5375.5664 N   0  0  0  0  0  0  0  0  0  0  0  0
-1074.5828-1108.4447 5376.5625 C   0  0  1  0  0  0  0  0  0  0  0  0
-1074.0806-1108.1289 5377.9468 C   0  0  0  0  0  0  0  0  0  0  0  0
-1074.9269-1108.8186 5378.9688 C   0  0  0  0  0  0  0  0  0  0  0  0
-1076.1163-1109.4707 5378.3545 C   0  0  0  0  0  0  0  0  0  0  0  0
-1076.0157-1110.6266 5377.9106 O   0  0  0  0  0  0  0  0  0  0  0  0
-1075.8232-1107.7000 5376.2959 C   0  0  0  0  0  0  0  0  0  0  0  0
-1076.1835-1107.3628 5375.1318 O   0  0  0  0  0  0  0  0  0  0  0  0
-1077.3099-1108.7959 5378.2852 O   0  0  0  0  0  0  0  0  0  0  0  0
-1076.6626-1107.3375 5377.3984 N   0  0  0  0  0  0  0  0  0  0  0  0
-1078.0839-1107.2969 5377.2783 C   0  0  0  0  0  0  0  0  0  0  0  0
-1078.6965-1108.5729 5376.8481 C   0  0  0  0  0  0  0  0  0  0  0  0
-1077.9984-1109.4480 5376.2251 O   0  0  0  0  0  0  0  0  0  0  0  0
-1080.0452-1108.9501 5377.0698 N   0  0  0  0  0  0  0  0  0  0  0  0
-1080.5040-1109.4319 5378.3726 C   0  0  1  0  0  0  0  0  0  0  0  0
-1081.9791-1109.1074 5378.5645 C   0  0  0  0  0  0  0  0  0  0  0  0
-1082.7197-1109.1343 5377.2993 C   0  0  0  0  0  0  0  0  0  0  0  0
-1083.0178-1108.0619 5376.4893 C   0  0  0  0  0  0  0  0  0  0  0  0
-1083.7140-1108.4780 5375.4116 N   0  0  0  0  0  0  0  0  0  0  0  0
-1083.8784-1109.8232 5375.5132 C   0  0  0  0  0  0  0  0  0  0  0  0
-1084.5057-1110.7183 5374.6880 C   0  0  0  0  0  0  0  0  0  0  0  0
-1084.5243-1112.0525 5375.0352 C   0  0  0  0  0  0  0  0  0  0  0  0
-1083.9227-1112.5111 5376.1968 C   0  0  0  0  0  0  0  0  0  0  0  0
-1083.2959-1111.5900 5377.0103 C   0  0  0  0  0  0  0  0  0  0  0  0
-1083.2576-1110.2480 5376.6948 C   0  0  0  0  0  0  0  0  0  0  0  0
-1080.2646-1110.8916 5378.4116 C   0  0  0  0  0  0  0  0  0  0  0  0
-1080.8010-1111.6863 5379.4126 O   0  0  0  0  0  0  0  0  0  0  0  0
-1079.5671-1111.4493 5377.5312 O   0  0  0  0  0  0  0  0  0  0  0  0
  2  1  1  6
  3  2  1  0
  3  4  1  0
  5  4  1  0
  5  6  2  0
  7  8  2  0
  7  2  1  0
  9  5  1  0
 10  7  1  0
 11 10  1  0
 11 12  1  0
 12 14  1  0
 13 12  2  0
 14 15  1  0
 15 16  1  6
 15 26  1  0
 17 25  1  0
 17 16  1  0
 18 17  2  0
 19 18  1  0
 19 20  1  0
 20 21  1  0
 20 25  2  0
 21 22  2  0
 22 23  1  0
 24 23  2  0
 25 24  1  0
 26 28  2  0
 26 27  1  0
M  END
$$$$
