EGW.pdb
     RDKit          3D

 28 29  0  0  1  0  0  0  0  0999 V2000
   25.9235  -21.5415  -14.9294 N   0  0  0  0  0  0  0  0  0  0  0  0
   27.2980  -21.0092  -14.7852 C   0  0  1  0  0  0  0  0  0  0  0  0
   27.4814  -19.8538  -15.7332 C   0  0  0  0  0  0  0  0  0  0  0  0
   27.3183  -20.3181  -17.1482 C   0  0  0  0  0  0  0  0  0  0  0  0
   26.0029  -19.9032  -17.7153 C   0  0  0  0  0  0  0  0  0  0  0  0
   25.3010  -20.7427  -18.3025 O   0  0  0  0  0  0  0  0  0  0  0  0
   27.4439  -20.5454  -13.3961 C   0  0  0  0  0  0  0  0  0  0  0  0
   26.6084  -19.7785  -12.8408 O   0  0  0  0  0  0  0  0  0  0  0  0
   25.5820  -18.6037  -17.5840 O   0  0  0  0  0  0  0  0  0  0  0  0
   28.5807  -20.9814  -12.6398 N   0  0  0  0  0  0  0  0  0  0  0  0
   28.8166  -20.5181  -11.3106 C   0  0  0  0  0  0  0  0  0  0  0  0
   27.9065  -21.0880  -10.2932 C   0  0  0  0  0  0  0  0  0  0  0  0
   27.9220  -22.3442  -10.0414 O   0  0  0  0  0  0  0  0  0  0  0  0
   26.9713  -20.3491   -9.5251 N   0  0  0  0  0  0  0  0  0  0  0  0
   26.0306  -21.0105   -8.6174 C   0  0  1  0  0  0  0  0  0  0  0  0
   25.8292  -20.1692   -7.3655 C   0  0  0  0  0  0  0  0  0  0  0  0
   27.0671  -19.5196   -6.9297 C   0  0  0  0  0  0  0  0  0  0  0  0
   27.6150  -18.3590   -7.4269 C   0  0  0  0  0  0  0  0  0  0  0  0
   28.7621  -18.0729   -6.7726 N   0  0  0  0  0  0  0  0  0  0  0  0
   28.9669  -19.0451   -5.8468 C   0  0  0  0  0  0  0  0  0  0  0  0
   29.9758  -19.2201   -4.9348 C   0  0  0  0  0  0  0  0  0  0  0  0
   29.9395  -20.3147   -4.0980 C   0  0  0  0  0  0  0  0  0  0  0  0
   28.9116  -21.2422   -4.1536 C   0  0  0  0  0  0  0  0  0  0  0  0
   27.9089  -21.0430   -5.0799 C   0  0  0  0  0  0  0  0  0  0  0  0
   27.9121  -19.9598   -5.9333 C   0  0  0  0  0  0  0  0  0  0  0  0
   24.7606  -21.1901   -9.3558 C   0  0  0  0  0  0  0  0  0  0  0  0
   24.6078  -20.7273  -10.6541 O   0  0  0  0  0  0  0  0  0  0  0  0
   23.7858  -21.7691   -8.8214 O   0  0  0  0  0  0  0  0  0  0  0  0
  2  1  1  1
  3  2  1  0
  3  4  1  0
  5  4  1  0
  5  6  2  0
  7  8  2  0
  7  2  1  0
  9  5  1  0
 10  7  1  0
 11 10  1  0
 11 12  1  0
 12 14  1  0
 13 12  2  0
 14 15  1  0
 15 16  1  1
 15 26  1  0
 17 25  1  0
 17 16  1  0
 18 17  2  0
 19 18  1  0
 19 20  1  0
 20 21  1  0
 20 25  2  0
 21 22  2  0
 22 23  1  0
 24 23  2  0
 25 24  1  0
 26 28  2  0
 26 27  1  0
M  END
$$$$
