EGW.pdb
     RDKit          3D

 28 29  0  0  1  0  0  0  0  0999 V2000
   25.5570  -23.3099  -15.2454 N   0  0  0  0  0  0  0  0  0  0  0  0
   26.4253  -22.1280  -15.0395 C   0  0  1  0  0  0  0  0  0  0  0  0
   26.4037  -21.2775  -16.2819 C   0  0  0  0  0  0  0  0  0  0  0  0
   27.1275  -21.9727  -17.3941 C   0  0  0  0  0  0  0  0  0  0  0  0
   28.2853  -21.1702  -17.8835 C   0  0  0  0  0  0  0  0  0  0  0  0
   28.2816  -19.9381  -17.7273 O   0  0  0  0  0  0  0  0  0  0  0  0
   25.8721  -21.3713  -13.9048 C   0  0  0  0  0  0  0  0  0  0  0  0
   24.6426  -21.1053  -13.7958 O   0  0  0  0  0  0  0  0  0  0  0  0
   29.3394  -21.7972  -18.4989 O   0  0  0  0  0  0  0  0  0  0  0  0
   26.7643  -20.9167  -12.8792 N   0  0  0  0  0  0  0  0  0  0  0  0
   26.3133  -20.0837  -11.8115 C   0  0  0  0  0  0  0  0  0  0  0  0
   25.9413  -20.8143  -10.5803 C   0  0  0  0  0  0  0  0  0  0  0  0
   25.9477  -22.0954  -10.5605 O   0  0  0  0  0  0  0  0  0  0  0  0
   25.5608  -20.2124   -9.3542 N   0  0  0  0  0  0  0  0  0  0  0  0
   25.1770  -21.0163   -8.1911 C   0  0  1  0  0  0  0  0  0  0  0  0
   25.3943  -20.2241   -6.9102 C   0  0  0  0  0  0  0  0  0  0  0  0
   26.7550  -19.6919   -6.8123 C   0  0  0  0  0  0  0  0  0  0  0  0
   27.3989  -18.8864   -7.7239 C   0  0  0  0  0  0  0  0  0  0  0  0
   28.6448  -18.5992   -7.2869 N   0  0  0  0  0  0  0  0  0  0  0  0
   28.8185  -19.2158   -6.0895 C   0  0  0  0  0  0  0  0  0  0  0  0
   29.8939  -19.2420   -5.2392 C   0  0  0  0  0  0  0  0  0  0  0  0
   29.8027  -19.9600   -4.0662 C   0  0  0  0  0  0  0  0  0  0  0  0
   28.6542  -20.6553   -3.7235 C   0  0  0  0  0  0  0  0  0  0  0  0
   27.5867  -20.6129   -4.5961 C   0  0  0  0  0  0  0  0  0  0  0  0
   27.6417  -19.9053   -5.7785 C   0  0  0  0  0  0  0  0  0  0  0  0
   23.7536  -21.3842   -8.3620 C   0  0  0  0  0  0  0  0  0  0  0  0
   23.1569  -22.3517   -7.5676 O   0  0  0  0  0  0  0  0  0  0  0  0
   23.0486  -20.8261   -9.2351 O   0  0  0  0  0  0  0  0  0  0  0  0
  2  1  1  6
  3  2  1  0
  3  4  1  0
  5  4  1  0
  5  6  2  0
  7  8  2  0
  7  2  1  0
  9  5  1  0
 10  7  1  0
 11 10  1  0
 11 12  1  0
 12 14  1  0
 13 12  2  0
 14 15  1  0
 15 16  1  1
 15 26  1  0
 17 25  1  0
 17 16  1  0
 18 17  2  0
 19 18  1  0
 19 20  1  0
 20 21  1  0
 20 25  2  0
 21 22  2  0
 22 23  1  0
 24 23  2  0
 25 24  1  0
 26 28  2  0
 26 27  1  0
M  END
$$$$
