EGW.pdb
     RDKit          3D

 28 29  0  0  1  0  0  0  0  0999 V2000
   18.2211  -38.2635  -12.6292 N   0  0  0  0  0  0  0  0  0  0  0  0
   19.2398  -39.1763  -12.0614 C   0  0  1  0  0  0  0  0  0  0  0  0
   19.8607  -39.9767  -13.1754 C   0  0  0  0  0  0  0  0  0  0  0  0
   20.4284  -39.0586  -14.2143 C   0  0  0  0  0  0  0  0  0  0  0  0
   19.8707  -39.3467  -15.5670 C   0  0  0  0  0  0  0  0  0  0  0  0
   20.1661  -38.6046  -16.5181 O   0  0  0  0  0  0  0  0  0  0  0  0
   20.2637  -38.3404  -11.4140 C   0  0  0  0  0  0  0  0  0  0  0  0
   21.2225  -38.8259  -10.7511 O   0  0  0  0  0  0  0  0  0  0  0  0
   19.0402  -40.4239  -15.7481 O   0  0  0  0  0  0  0  0  0  0  0  0
   20.1710  -36.9157  -11.5402 N   0  0  0  0  0  0  0  0  0  0  0  0
   21.1079  -36.0464  -10.9047 C   0  0  0  0  0  0  0  0  0  0  0  0
   21.0584  -36.0687   -9.4265 C   0  0  0  0  0  0  0  0  0  0  0  0
   20.4611  -37.0217   -8.8128 O   0  0  0  0  0  0  0  0  0  0  0  0
   21.6361  -35.0949   -8.5731 N   0  0  0  0  0  0  0  0  0  0  0  0
   21.5467  -35.2024   -7.1147 C   0  0  1  0  0  0  0  0  0  0  0  0
   22.6221  -34.3493   -6.4582 C   0  0  0  0  0  0  0  0  0  0  0  0
   22.7434  -33.0317   -7.0856 C   0  0  0  0  0  0  0  0  0  0  0  0
   21.7887  -32.0411   -7.1273 C   0  0  0  0  0  0  0  0  0  0  0  0
   22.2666  -30.9673   -7.7938 N   0  0  0  0  0  0  0  0  0  0  0  0
   23.5340  -31.2529   -8.1893 C   0  0  0  0  0  0  0  0  0  0  0  0
   24.4465  -30.5078   -8.8909 C   0  0  0  0  0  0  0  0  0  0  0  0
   25.6848  -31.0485   -9.1633 C   0  0  0  0  0  0  0  0  0  0  0  0
   26.0318  -32.3238   -8.7473 C   0  0  0  0  0  0  0  0  0  0  0  0
   25.0958  -33.0526   -8.0431 C   0  0  0  0  0  0  0  0  0  0  0  0
   23.8472  -32.5444   -7.7524 C   0  0  0  0  0  0  0  0  0  0  0  0
   20.1910  -34.7552   -6.7238 C   0  0  0  0  0  0  0  0  0  0  0  0
   19.7069  -34.9539   -5.4395 O   0  0  0  0  0  0  0  0  0  0  0  0
   19.4430  -34.1820   -7.5500 O   0  0  0  0  0  0  0  0  0  0  0  0
  2  1  1  6
  3  2  1  0
  3  4  1  0
  5  4  1  0
  5  6  2  0
  7  8  2  0
  7  2  1  0
  9  5  1  0
 10  7  1  0
 11 10  1  0
 11 12  1  0
 12 14  1  0
 13 12  2  0
 14 15  1  0
 15 16  1  1
 15 26  1  0
 17 25  1  0
 17 16  1  0
 18 17  2  0
 19 18  1  0
 19 20  1  0
 20 21  1  0
 20 25  2  0
 21 22  2  0
 22 23  1  0
 24 23  2  0
 25 24  1  0
 26 28  2  0
 26 27  1  0
M  END
$$$$
