EGW.pdb
     RDKit          3D

 28 29  0  0  1  0  0  0  0  0999 V2000
   26.7841  -22.2552  -15.6522 N   0  0  0  0  0  0  0  0  0  0  0  0
   27.0502  -20.7986  -15.6817 C   0  0  1  0  0  0  0  0  0  0  0  0
   25.8664  -20.0931  -16.2885 C   0  0  0  0  0  0  0  0  0  0  0  0
   24.7287  -21.0523  -16.4615 C   0  0  0  0  0  0  0  0  0  0  0  0
   25.0499  -22.1125  -17.4598 C   0  0  0  0  0  0  0  0  0  0  0  0
   26.1663  -22.6559  -17.4331 O   0  0  0  0  0  0  0  0  0  0  0  0
   27.2353  -20.3595  -14.2892 C   0  0  0  0  0  0  0  0  0  0  0  0
   26.9401  -19.1969  -13.8948 O   0  0  0  0  0  0  0  0  0  0  0  0
   24.1135  -22.4765  -18.3945 O   0  0  0  0  0  0  0  0  0  0  0  0
   27.7727  -21.2887  -13.3393 N   0  0  0  0  0  0  0  0  0  0  0  0
   27.9411  -20.9399  -11.9655 C   0  0  0  0  0  0  0  0  0  0  0  0
   26.8138  -21.3323  -11.0918 C   0  0  0  0  0  0  0  0  0  0  0  0
   25.8685  -22.0686  -11.5456 O   0  0  0  0  0  0  0  0  0  0  0  0
   26.6641  -20.9608   -9.7316 N   0  0  0  0  0  0  0  0  0  0  0  0
   25.6368  -21.5650   -8.8796 C   0  0  1  0  0  0  0  0  0  0  0  0
   26.0158  -21.4155   -7.4135 C   0  0  0  0  0  0  0  0  0  0  0  0
   26.9086  -20.2774   -7.1855 C   0  0  0  0  0  0  0  0  0  0  0  0
   26.9969  -19.1280   -7.9377 C   0  0  0  0  0  0  0  0  0  0  0  0
   27.9352  -18.3068   -7.4171 N   0  0  0  0  0  0  0  0  0  0  0  0
   28.4624  -18.9168   -6.3243 C   0  0  0  0  0  0  0  0  0  0  0  0
   29.4376  -18.5102   -5.4503 C   0  0  0  0  0  0  0  0  0  0  0  0
   29.7895  -19.3390   -4.4068 C   0  0  0  0  0  0  0  0  0  0  0  0
   29.1845  -20.5711   -4.2174 C   0  0  0  0  0  0  0  0  0  0  0  0
   28.2064  -20.9566   -5.1106 C   0  0  0  0  0  0  0  0  0  0  0  0
   27.8285  -20.1538   -6.1663 C   0  0  0  0  0  0  0  0  0  0  0  0
   24.3596  -20.8794   -9.1784 C   0  0  0  0  0  0  0  0  0  0  0  0
   23.1541  -21.3461   -8.6762 O   0  0  0  0  0  0  0  0  0  0  0  0
   24.3369  -19.8531   -9.8976 O   0  0  0  0  0  0  0  0  0  0  0  0
  2  1  1  1
  3  2  1  0
  3  4  1  0
  5  4  1  0
  5  6  2  0
  7  8  2  0
  7  2  1  0
  9  5  1  0
 10  7  1  0
 11 10  1  0
 11 12  1  0
 12 14  1  0
 13 12  2  0
 14 15  1  0
 15 16  1  1
 15 26  1  0
 17 25  1  0
 17 16  1  0
 18 17  2  0
 19 18  1  0
 19 20  1  0
 20 21  1  0
 20 25  2  0
 21 22  2  0
 22 23  1  0
 24 23  2  0
 25 24  1  0
 26 28  2  0
 26 27  1  0
M  END
$$$$
