EGW.pdb
     RDKit          3D

 28 29  0  0  1  0  0  0  0  0999 V2000
   28.3715  -19.9062  -16.8303 N   0  0  0  0  0  0  0  0  0  0  0  0
   27.1946  -19.0780  -16.4807 C   0  0  1  0  0  0  0  0  0  0  0  0
   25.9447  -19.7739  -16.9507 C   0  0  0  0  0  0  0  0  0  0  0  0
   26.1138  -21.2590  -16.8507 C   0  0  0  0  0  0  0  0  0  0  0  0
   25.4324  -21.8105  -15.6442 C   0  0  0  0  0  0  0  0  0  0  0  0
   25.6214  -22.9962  -15.3268 O   0  0  0  0  0  0  0  0  0  0  0  0
   27.1731  -18.9452  -15.0151 C   0  0  0  0  0  0  0  0  0  0  0  0
   26.3399  -18.2163  -14.4076 O   0  0  0  0  0  0  0  0  0  0  0  0
   24.6068  -21.0067  -14.8991 O   0  0  0  0  0  0  0  0  0  0  0  0
   28.1368  -19.6728  -14.2430 N   0  0  0  0  0  0  0  0  0  0  0  0
   28.2265  -19.5231  -12.8264 C   0  0  0  0  0  0  0  0  0  0  0  0
   27.3132  -20.3981  -12.0594 C   0  0  0  0  0  0  0  0  0  0  0  0
   26.5254  -21.2045  -12.6683 O   0  0  0  0  0  0  0  0  0  0  0  0
   27.2157  -20.4412  -10.6455 N   0  0  0  0  0  0  0  0  0  0  0  0
   26.3623  -21.4182   -9.9645 C   0  0  1  0  0  0  0  0  0  0  0  0
   26.9080  -21.7141   -8.5752 C   0  0  0  0  0  0  0  0  0  0  0  0
   27.1583  -20.4930   -7.8068 C   0  0  0  0  0  0  0  0  0  0  0  0
   26.7351  -19.2191   -8.1115 C   0  0  0  0  0  0  0  0  0  0  0  0
   27.1600  -18.3530   -7.1655 N   0  0  0  0  0  0  0  0  0  0  0  0
   27.8615  -19.0578   -6.2406 C   0  0  0  0  0  0  0  0  0  0  0  0
   28.4962  -18.6542   -5.0941 C   0  0  0  0  0  0  0  0  0  0  0  0
   29.1466  -19.5932   -4.3228 C   0  0  0  0  0  0  0  0  0  0  0  0
   29.1762  -20.9331   -4.6747 C   0  0  0  0  0  0  0  0  0  0  0  0
   28.5300  -21.3130   -5.8327 C   0  0  0  0  0  0  0  0  0  0  0  0
   27.8692  -20.4016   -6.6293 C   0  0  0  0  0  0  0  0  0  0  0  0
   25.0013  -20.8406   -9.8968 C   0  0  0  0  0  0  0  0  0  0  0  0
   23.9014  -21.6192   -9.5694 O   0  0  0  0  0  0  0  0  0  0  0  0
   24.8090  -19.6254  -10.1355 O   0  0  0  0  0  0  0  0  0  0  0  0
  2  1  1  1
  3  2  1  0
  3  4  1  0
  5  4  1  0
  5  6  2  0
  7  8  2  0
  7  2  1  0
  9  5  1  0
 10  7  1  0
 11 10  1  0
 11 12  1  0
 12 14  1  0
 13 12  2  0
 14 15  1  0
 15 16  1  1
 15 26  1  0
 17 25  1  0
 17 16  1  0
 18 17  2  0
 19 18  1  0
 19 20  1  0
 20 21  1  0
 20 25  2  0
 21 22  2  0
 22 23  1  0
 24 23  2  0
 25 24  1  0
 26 28  2  0
 26 27  1  0
M  END
$$$$
