EGW.pdb
     RDKit          3D

 28 29  0  0  1  0  0  0  0  0999 V2000
   26.5024  -19.1878  -18.7303 N   0  0  0  0  0  0  0  0  0  0  0  0
   27.3456  -18.2233  -17.9874 C   0  0  1  0  0  0  0  0  0  0  0  0
   27.0926  -16.8367  -18.5171 C   0  0  0  0  0  0  0  0  0  0  0  0
   27.9789  -16.5657  -19.6941 C   0  0  0  0  0  0  0  0  0  0  0  0
   29.3521  -16.1686  -19.2690 C   0  0  0  0  0  0  0  0  0  0  0  0
   29.5257  -15.0664  -18.7237 O   0  0  0  0  0  0  0  0  0  0  0  0
   26.9518  -18.2981  -16.5713 C   0  0  0  0  0  0  0  0  0  0  0  0
   25.7790  -18.0498  -16.1745 O   0  0  0  0  0  0  0  0  0  0  0  0
   30.4063  -17.0204  -19.4831 O   0  0  0  0  0  0  0  0  0  0  0  0
   27.9388  -18.6685  -15.6002 N   0  0  0  0  0  0  0  0  0  0  0  0
   27.6517  -18.6605  -14.2021 C   0  0  0  0  0  0  0  0  0  0  0  0
   26.8538  -19.8150  -13.7344 C   0  0  0  0  0  0  0  0  0  0  0  0
   26.2278  -20.5525  -14.5746 O   0  0  0  0  0  0  0  0  0  0  0  0
   26.7042  -20.2130  -12.3818 N   0  0  0  0  0  0  0  0  0  0  0  0
   26.0336  -21.4641  -12.0195 C   0  0  1  0  0  0  0  0  0  0  0  0
   26.5998  -22.0049  -10.7148 C   0  0  0  0  0  0  0  0  0  0  0  0
   26.5666  -21.0090   -9.6417 C   0  0  0  0  0  0  0  0  0  0  0  0
   25.5210  -20.1758   -9.3145 C   0  0  0  0  0  0  0  0  0  0  0  0
   25.8635  -19.3952   -8.2662 N   0  0  0  0  0  0  0  0  0  0  0  0
   27.1330  -19.7158   -7.9056 C   0  0  0  0  0  0  0  0  0  0  0  0
   27.9378  -19.2206   -6.9119 C   0  0  0  0  0  0  0  0  0  0  0  0
   29.2085  -19.7329   -6.7618 C   0  0  0  0  0  0  0  0  0  0  0  0
   29.6940  -20.7341   -7.5876 C   0  0  0  0  0  0  0  0  0  0  0  0
   28.8645  -21.2149   -8.5794 C   0  0  0  0  0  0  0  0  0  0  0  0
   27.5874  -20.7265   -8.7594 C   0  0  0  0  0  0  0  0  0  0  0  0
   24.5884  -21.1685  -11.8981 C   0  0  0  0  0  0  0  0  0  0  0  0
   23.6373  -22.1760  -11.9568 O   0  0  0  0  0  0  0  0  0  0  0  0
   24.1870  -19.9920  -11.7379 O   0  0  0  0  0  0  0  0  0  0  0  0
  2  1  1  6
  3  2  1  0
  3  4  1  0
  5  4  1  0
  5  6  2  0
  7  8  2  0
  7  2  1  0
  9  5  1  0
 10  7  1  0
 11 10  1  0
 11 12  1  0
 12 14  1  0
 13 12  2  0
 14 15  1  0
 15 16  1  1
 15 26  1  0
 17 25  1  0
 17 16  1  0
 18 17  2  0
 19 18  1  0
 19 20  1  0
 20 21  1  0
 20 25  2  0
 21 22  2  0
 22 23  1  0
 24 23  2  0
 25 24  1  0
 26 28  2  0
 26 27  1  0
M  END
$$$$
