EGW.pdb
     RDKit          3D

 28 29  0  0  1  0  0  0  0  0999 V2000
   28.1802  -20.4838  -17.3295 N   0  0  0  0  0  0  0  0  0  0  0  0
   28.9876  -19.3842  -16.7532 C   0  0  1  0  0  0  0  0  0  0  0  0
   29.1766  -18.3130  -17.7944 C   0  0  0  0  0  0  0  0  0  0  0  0
   27.8492  -17.8920  -18.3466 C   0  0  0  0  0  0  0  0  0  0  0  0
   27.5352  -18.5975  -19.6224 C   0  0  0  0  0  0  0  0  0  0  0  0
   28.0167  -18.1749  -20.6864 O   0  0  0  0  0  0  0  0  0  0  0  0
   28.2365  -18.8435  -15.6088 C   0  0  0  0  0  0  0  0  0  0  0  0
   28.6413  -17.8585  -14.9303 O   0  0  0  0  0  0  0  0  0  0  0  0
   26.7211  -19.7020  -19.6096 O   0  0  0  0  0  0  0  0  0  0  0  0
   26.9934  -19.4588  -15.2477 N   0  0  0  0  0  0  0  0  0  0  0  0
   26.1820  -18.9419  -14.1933 C   0  0  0  0  0  0  0  0  0  0  0  0
   25.6000  -19.9734  -13.3070 C   0  0  0  0  0  0  0  0  0  0  0  0
   25.0642  -21.0262  -13.8031 O   0  0  0  0  0  0  0  0  0  0  0  0
   25.5746  -19.9162  -11.8905 N   0  0  0  0  0  0  0  0  0  0  0  0
   24.8312  -20.8972  -11.0960 C   0  0  1  0  0  0  0  0  0  0  0  0
   25.1149  -20.6969   -9.6145 C   0  0  0  0  0  0  0  0  0  0  0  0
   26.5263  -20.9096   -9.2873 C   0  0  0  0  0  0  0  0  0  0  0  0
   27.4450  -21.6379  -10.0085 C   0  0  0  0  0  0  0  0  0  0  0  0
   28.6468  -21.6049   -9.3918 N   0  0  0  0  0  0  0  0  0  0  0  0
   28.5170  -20.8555   -8.2667 C   0  0  0  0  0  0  0  0  0  0  0  0
   29.4301  -20.5171   -7.3013 C   0  0  0  0  0  0  0  0  0  0  0  0
   29.0264  -19.7301   -6.2443 C   0  0  0  0  0  0  0  0  0  0  0  0
   27.7235  -19.2720   -6.1312 C   0  0  0  0  0  0  0  0  0  0  0  0
   26.8246  -19.6266   -7.1156 C   0  0  0  0  0  0  0  0  0  0  0  0
   27.1925  -20.4125   -8.1875 C   0  0  0  0  0  0  0  0  0  0  0  0
   23.3947  -20.7101  -11.3994 C   0  0  0  0  0  0  0  0  0  0  0  0
   22.4447  -21.6376  -10.9988 O   0  0  0  0  0  0  0  0  0  0  0  0
   22.9997  -19.7016  -12.0302 O   0  0  0  0  0  0  0  0  0  0  0  0
  2  1  1  6
  3  2  1  0
  3  4  1  0
  5  4  1  0
  5  6  2  0
  7  8  2  0
  7  2  1  0
  9  5  1  0
 10  7  1  0
 11 10  1  0
 11 12  1  0
 12 14  1  0
 13 12  2  0
 14 15  1  0
 15 16  1  1
 15 26  1  0
 17 25  1  0
 17 16  1  0
 18 17  2  0
 19 18  1  0
 19 20  1  0
 20 21  1  0
 20 25  2  0
 21 22  2  0
 22 23  1  0
 24 23  2  0
 25 24  1  0
 26 28  2  0
 26 27  1  0
M  END
$$$$
