EGW.pdb
     RDKit          3D

 28 29  0  0  1  0  0  0  0  0999 V2000
   28.0924  -19.2494  -17.1861 N   0  0  0  0  0  0  0  0  0  0  0  0
   26.7928  -18.6511  -16.8037 C   0  0  1  0  0  0  0  0  0  0  0  0
   25.6802  -19.5650  -17.2445 C   0  0  0  0  0  0  0  0  0  0  0  0
   25.5845  -20.7414  -16.3218 C   0  0  0  0  0  0  0  0  0  0  0  0
   24.4762  -21.6591  -16.7134 C   0  0  0  0  0  0  0  0  0  0  0  0
   23.7224  -22.1123  -15.8365 O   0  0  0  0  0  0  0  0  0  0  0  0
   26.7847  -18.5230  -15.3376 C   0  0  0  0  0  0  0  0  0  0  0  0
   25.8171  -18.0197  -14.7013 O   0  0  0  0  0  0  0  0  0  0  0  0
   24.3000  -21.9931  -18.0326 O   0  0  0  0  0  0  0  0  0  0  0  0
   27.9214  -18.9885  -14.5989 N   0  0  0  0  0  0  0  0  0  0  0  0
   27.9698  -18.9117  -13.1745 C   0  0  0  0  0  0  0  0  0  0  0  0
   27.0929  -19.8790  -12.4792 C   0  0  0  0  0  0  0  0  0  0  0  0
   26.0394  -20.3276  -13.0541 O   0  0  0  0  0  0  0  0  0  0  0  0
   27.3099  -20.3904  -11.1746 N   0  0  0  0  0  0  0  0  0  0  0  0
   26.4338  -21.4115  -10.5950 C   0  0  1  0  0  0  0  0  0  0  0  0
   26.9951  -21.8914   -9.2645 C   0  0  0  0  0  0  0  0  0  0  0  0
   27.1466  -20.7992   -8.3010 C   0  0  0  0  0  0  0  0  0  0  0  0
   26.5079  -19.5800   -8.3211 C   0  0  0  0  0  0  0  0  0  0  0  0
   26.9036  -18.8343   -7.2660 N   0  0  0  0  0  0  0  0  0  0  0  0
   27.8012  -19.5635   -6.5541 C   0  0  0  0  0  0  0  0  0  0  0  0
   28.4940  -19.2668   -5.4085 C   0  0  0  0  0  0  0  0  0  0  0  0
   29.3588  -20.2049   -4.8872 C   0  0  0  0  0  0  0  0  0  0  0  0
   29.5467  -21.4387   -5.4892 C   0  0  0  0  0  0  0  0  0  0  0  0
   28.8378  -21.7123   -6.6405 C   0  0  0  0  0  0  0  0  0  0  0  0
   27.9640  -20.7983   -7.1910 C   0  0  0  0  0  0  0  0  0  0  0  0
   25.0972  -20.7987  -10.4261 C   0  0  0  0  0  0  0  0  0  0  0  0
   23.9617  -21.5767  -10.2566 O   0  0  0  0  0  0  0  0  0  0  0  0
   24.9587  -19.5531  -10.4322 O   0  0  0  0  0  0  0  0  0  0  0  0
  2  1  1  1
  3  2  1  0
  3  4  1  0
  5  4  1  0
  5  6  2  0
  7  8  2  0
  7  2  1  0
  9  5  1  0
 10  7  1  0
 11 10  1  0
 11 12  1  0
 12 14  1  0
 13 12  2  0
 14 15  1  0
 15 16  1  1
 15 26  1  0
 17 25  1  0
 17 16  1  0
 18 17  2  0
 19 18  1  0
 19 20  1  0
 20 21  1  0
 20 25  2  0
 21 22  2  0
 22 23  1  0
 24 23  2  0
 25 24  1  0
 26 28  2  0
 26 27  1  0
M  END
$$$$
