EGW.pdb
     RDKit          3D

 28 29  0  0  1  0  0  0  0  0999 V2000
   12.6474  -22.4393    2.3779 N   0  0  0  0  0  0  0  0  0  0  0  0
   13.8461  -22.0294    3.1449 C   0  0  1  0  0  0  0  0  0  0  0  0
   15.0582  -22.1309    2.2573 C   0  0  0  0  0  0  0  0  0  0  0  0
   15.9633  -23.2207    2.7447 C   0  0  0  0  0  0  0  0  0  0  0  0
   16.9556  -22.7105    3.7342 C   0  0  0  0  0  0  0  0  0  0  0  0
   16.5700  -22.3769    4.8666 O   0  0  0  0  0  0  0  0  0  0  0  0
   13.6438  -20.6315    3.5585 C   0  0  0  0  0  0  0  0  0  0  0  0
   12.6966  -19.9202    3.1211 O   0  0  0  0  0  0  0  0  0  0  0  0
   18.2795  -22.6145    3.3862 O   0  0  0  0  0  0  0  0  0  0  0  0
   14.5585  -20.0512    4.4971 N   0  0  0  0  0  0  0  0  0  0  0  0
   14.4005  -18.7120    4.9647 C   0  0  0  0  0  0  0  0  0  0  0  0
   15.4838  -18.2430    5.8561 C   0  0  0  0  0  0  0  0  0  0  0  0
   16.4424  -19.0293    6.1794 O   0  0  0  0  0  0  0  0  0  0  0  0
   15.5780  -16.9444    6.4174 N   0  0  0  0  0  0  0  0  0  0  0  0
   16.7274  -16.5417    7.2315 C   0  0  1  0  0  0  0  0  0  0  0  0
   17.3211  -15.2463    6.6978 C   0  0  0  0  0  0  0  0  0  0  0  0
   17.6892  -15.3470    5.2840 C   0  0  0  0  0  0  0  0  0  0  0  0
   17.5082  -16.4303    4.4543 C   0  0  0  0  0  0  0  0  0  0  0  0
   17.9735  -16.1473    3.2177 N   0  0  0  0  0  0  0  0  0  0  0  0
   18.4594  -14.8793    3.2358 C   0  0  0  0  0  0  0  0  0  0  0  0
   19.0369  -14.1234    2.2481 C   0  0  0  0  0  0  0  0  0  0  0  0
   19.4498  -12.8415    2.5410 C   0  0  0  0  0  0  0  0  0  0  0  0
   19.2971  -12.2966    3.8058 C   0  0  0  0  0  0  0  0  0  0  0  0
   18.7134  -13.0778    4.7815 C   0  0  0  0  0  0  0  0  0  0  0  0
   18.2882  -14.3643    4.5251 C   0  0  0  0  0  0  0  0  0  0  0  0
   16.2459  -16.3808    8.6218 C   0  0  0  0  0  0  0  0  0  0  0  0
   17.1225  -16.1217    9.6648 O   0  0  0  0  0  0  0  0  0  0  0  0
   15.0256  -16.4755    8.8916 O   0  0  0  0  0  0  0  0  0  0  0  0
  2  1  1  6
  3  2  1  0
  3  4  1  0
  5  4  1  0
  5  6  2  0
  7  8  2  0
  7  2  1  0
  9  5  1  0
 10  7  1  0
 11 10  1  0
 11 12  1  0
 12 14  1  0
 13 12  2  0
 14 15  1  0
 15 16  1  6
 15 26  1  0
 17 25  1  0
 17 16  1  0
 18 17  2  0
 19 18  1  0
 19 20  1  0
 20 21  1  0
 20 25  2  0
 21 22  2  0
 22 23  1  0
 24 23  2  0
 25 24  1  0
 26 28  2  0
 26 27  1  0
M  END
$$$$
