EGW.pdb
     RDKit          3D

 28 29  0  0  1  0  0  0  0  0999 V2000
   23.9400  -20.5438  -15.5328 N   0  0  0  0  0  0  0  0  0  0  0  0
   25.0818  -19.9998  -16.3033 C   0  0  1  0  0  0  0  0  0  0  0  0
   24.7228  -18.6305  -16.8167 C   0  0  0  0  0  0  0  0  0  0  0  0
   23.2631  -18.3681  -16.6055 C   0  0  0  0  0  0  0  0  0  0  0  0
   23.0245  -17.5259  -15.3981 C   0  0  0  0  0  0  0  0  0  0  0  0
   22.1037  -17.8242  -14.6199 O   0  0  0  0  0  0  0  0  0  0  0  0
   26.2258  -19.9055  -15.3822 C   0  0  0  0  0  0  0  0  0  0  0  0
   27.3939  -19.6241  -15.7705 O   0  0  0  0  0  0  0  0  0  0  0  0
   23.8206  -16.4341  -15.1589 O   0  0  0  0  0  0  0  0  0  0  0  0
   26.0072  -20.1421  -13.9855 N   0  0  0  0  0  0  0  0  0  0  0  0
   27.0950  -20.3033  -13.0755 C   0  0  0  0  0  0  0  0  0  0  0  0
   26.7894  -21.1470  -11.8996 C   0  0  0  0  0  0  0  0  0  0  0  0
   26.5131  -22.3893  -12.0480 O   0  0  0  0  0  0  0  0  0  0  0  0
   26.7721  -20.7008  -10.5538 N   0  0  0  0  0  0  0  0  0  0  0  0
   26.4034  -21.5950   -9.4535 C   0  0  1  0  0  0  0  0  0  0  0  0
   27.5014  -21.6121   -8.4001 C   0  0  0  0  0  0  0  0  0  0  0  0
   27.4772  -20.4162   -7.5554 C   0  0  0  0  0  0  0  0  0  0  0  0
   26.8122  -19.2371   -7.8049 C   0  0  0  0  0  0  0  0  0  0  0  0
   27.0264  -18.3642   -6.7960 N   0  0  0  0  0  0  0  0  0  0  0  0
   27.8313  -18.9698   -5.8851 C   0  0  0  0  0  0  0  0  0  0  0  0
   28.3394  -18.5193   -4.6939 C   0  0  0  0  0  0  0  0  0  0  0  0
   29.1460  -19.3546   -3.9514 C   0  0  0  0  0  0  0  0  0  0  0  0
   29.4569  -20.6363   -4.3762 C   0  0  0  0  0  0  0  0  0  0  0  0
   28.9331  -21.0653   -5.5781 C   0  0  0  0  0  0  0  0  0  0  0  0
   28.1226  -20.2575   -6.3477 C   0  0  0  0  0  0  0  0  0  0  0  0
   25.1269  -21.0982   -8.8929 C   0  0  0  0  0  0  0  0  0  0  0  0
   24.4401  -21.8082   -7.9195 O   0  0  0  0  0  0  0  0  0  0  0  0
   24.6326  -20.0161   -9.2874 O   0  0  0  0  0  0  0  0  0  0  0  0
  2  1  1  1
  3  2  1  0
  3  4  1  0
  5  4  1  0
  5  6  2  0
  7  8  2  0
  7  2  1  0
  9  5  1  0
 10  7  1  0
 11 10  1  0
 11 12  1  0
 12 14  1  0
 13 12  2  0
 14 15  1  0
 15 16  1  1
 15 26  1  0
 17 25  1  0
 17 16  1  0
 18 17  2  0
 19 18  1  0
 19 20  1  0
 20 21  1  0
 20 25  2  0
 21 22  2  0
 22 23  1  0
 24 23  2  0
 25 24  1  0
 26 28  2  0
 26 27  1  0
M  END
$$$$
