EGW.pdb
     RDKit          3D

 28 29  0  0  1  0  0  0  0  0999 V2000
   26.5745  -22.9597  -15.7642 N   0  0  0  0  0  0  0  0  0  0  0  0
   27.2781  -21.8238  -15.1256 C   0  0  1  0  0  0  0  0  0  0  0  0
   27.7418  -20.8679  -16.1926 C   0  0  0  0  0  0  0  0  0  0  0  0
   26.8824  -21.0020  -17.4124 C   0  0  0  0  0  0  0  0  0  0  0  0
   26.4111  -19.6746  -17.9021 C   0  0  0  0  0  0  0  0  0  0  0  0
   25.1921  -19.4627  -18.0089 O   0  0  0  0  0  0  0  0  0  0  0  0
   26.3131  -21.1545  -14.2384 C   0  0  0  0  0  0  0  0  0  0  0  0
   25.0665  -21.1869  -14.4371 O   0  0  0  0  0  0  0  0  0  0  0  0
   27.3242  -18.7037  -18.2288 O   0  0  0  0  0  0  0  0  0  0  0  0
   26.8064  -20.4358  -13.1007 N   0  0  0  0  0  0  0  0  0  0  0  0
   25.9226  -19.8051  -12.1742 C   0  0  0  0  0  0  0  0  0  0  0  0
   25.5466  -20.6465  -11.0172 C   0  0  0  0  0  0  0  0  0  0  0  0
   25.2594  -21.8842  -11.1825 O   0  0  0  0  0  0  0  0  0  0  0  0
   25.4696  -20.2029   -9.6727 N   0  0  0  0  0  0  0  0  0  0  0  0
   25.0169  -21.0885   -8.5970 C   0  0  1  0  0  0  0  0  0  0  0  0
   25.4865  -20.5606   -7.2493 C   0  0  0  0  0  0  0  0  0  0  0  0
   26.9101  -20.2174   -7.2546 C   0  0  0  0  0  0  0  0  0  0  0  0
   27.7336  -20.1081   -8.3521 C   0  0  0  0  0  0  0  0  0  0  0  0
   28.9828  -19.7740   -7.9603 N   0  0  0  0  0  0  0  0  0  0  0  0
   28.9793  -19.6642   -6.6067 C   0  0  0  0  0  0  0  0  0  0  0  0
   29.9835  -19.3501   -5.7274 C   0  0  0  0  0  0  0  0  0  0  0  0
   29.7035  -19.3080   -4.3785 C   0  0  0  0  0  0  0  0  0  0  0  0
   28.4354  -19.5744   -3.8877 C   0  0  0  0  0  0  0  0  0  0  0  0
   27.4430  -19.8879   -4.7932 C   0  0  0  0  0  0  0  0  0  0  0  0
   27.6862  -19.9395   -6.1496 C   0  0  0  0  0  0  0  0  0  0  0  0
   23.5397  -21.1459   -8.6679 C   0  0  0  0  0  0  0  0  0  0  0  0
   22.8109  -22.0127   -7.8675 O   0  0  0  0  0  0  0  0  0  0  0  0
   22.9076  -20.4069   -9.4587 O   0  0  0  0  0  0  0  0  0  0  0  0
  2  1  1  6
  3  2  1  0
  3  4  1  0
  5  4  1  0
  5  6  2  0
  7  8  2  0
  7  2  1  0
  9  5  1  0
 10  7  1  0
 11 10  1  0
 11 12  1  0
 12 14  1  0
 13 12  2  0
 14 15  1  0
 15 16  1  1
 15 26  1  0
 17 25  1  0
 17 16  1  0
 18 17  2  0
 19 18  1  0
 19 20  1  0
 20 21  1  0
 20 25  2  0
 21 22  2  0
 22 23  1  0
 24 23  2  0
 25 24  1  0
 26 28  2  0
 26 27  1  0
M  END
$$$$
