EGW.pdb
     RDKit          3D

 28 29  0  0  1  0  0  0  0  0999 V2000
   25.2399  -20.0545  -13.8953 N   0  0  0  0  0  0  0  0  0  0  0  0
   26.2978  -20.6537  -14.7409 C   0  0  1  0  0  0  0  0  0  0  0  0
   26.9162  -19.5778  -15.5937 C   0  0  0  0  0  0  0  0  0  0  0  0
   25.8700  -18.9388  -16.4548 C   0  0  0  0  0  0  0  0  0  0  0  0
   25.0770  -19.9560  -17.2034 C   0  0  0  0  0  0  0  0  0  0  0  0
   25.6567  -20.9369  -17.6976 O   0  0  0  0  0  0  0  0  0  0  0  0
   27.3114  -21.2208  -13.8369 C   0  0  0  0  0  0  0  0  0  0  0  0
   28.3557  -21.7941  -14.2556 O   0  0  0  0  0  0  0  0  0  0  0  0
   23.7204  -19.7999  -17.3390 O   0  0  0  0  0  0  0  0  0  0  0  0
   27.1070  -21.1191  -12.4219 N   0  0  0  0  0  0  0  0  0  0  0  0
   28.0810  -21.5888  -11.4903 C   0  0  0  0  0  0  0  0  0  0  0  0
   27.7743  -21.2804  -10.0764 C   0  0  0  0  0  0  0  0  0  0  0  0
   28.5690  -21.6565   -9.1444 O   0  0  0  0  0  0  0  0  0  0  0  0
   26.6333  -20.5721   -9.6217 N   0  0  0  0  0  0  0  0  0  0  0  0
   25.6150  -21.2128   -8.7858 C   0  0  1  0  0  0  0  0  0  0  0  0
   25.5248  -20.5122   -7.4380 C   0  0  0  0  0  0  0  0  0  0  0  0
   26.7487  -19.7767   -7.1132 C   0  0  0  0  0  0  0  0  0  0  0  0
   27.2801  -18.7064   -7.7964 C   0  0  0  0  0  0  0  0  0  0  0  0
   28.4179  -18.2942   -7.1956 N   0  0  0  0  0  0  0  0  0  0  0  0
   28.6333  -19.0933   -6.1188 C   0  0  0  0  0  0  0  0  0  0  0  0
   29.6392  -19.0948   -5.1869 C   0  0  0  0  0  0  0  0  0  0  0  0
   29.6161  -20.0339   -4.1783 C   0  0  0  0  0  0  0  0  0  0  0  0
   28.6044  -20.9756   -4.0809 C   0  0  0  0  0  0  0  0  0  0  0  0
   27.6044  -20.9527   -5.0309 C   0  0  0  0  0  0  0  0  0  0  0  0
   27.5946  -20.0282   -6.0542 C   0  0  0  0  0  0  0  0  0  0  0  0
   24.3321  -21.1356   -9.5199 C   0  0  0  0  0  0  0  0  0  0  0  0
   23.1740  -21.7058   -9.0130 O   0  0  0  0  0  0  0  0  0  0  0  0
   24.2613  -20.5486  -10.6250 O   0  0  0  0  0  0  0  0  0  0  0  0
  2  1  1  1
  3  2  1  0
  3  4  1  0
  5  4  1  0
  5  6  2  0
  7  8  2  0
  7  2  1  0
  9  5  1  0
 10  7  1  0
 11 10  1  0
 11 12  1  0
 12 14  1  0
 13 12  2  0
 14 15  1  0
 15 16  1  1
 15 26  1  0
 17 25  1  0
 17 16  1  0
 18 17  2  0
 19 18  1  0
 19 20  1  0
 20 21  1  0
 20 25  2  0
 21 22  2  0
 22 23  1  0
 24 23  2  0
 25 24  1  0
 26 28  2  0
 26 27  1  0
M  END
$$$$
