EGW.pdb
     RDKit          3D

 28 29  0  0  1  0  0  0  0  0999 V2000
   25.7436  -17.2528  -16.7712 N   0  0  0  0  0  0  0  0  0  0  0  0
   27.2222  -17.2193  -16.6950 C   0  0  1  0  0  0  0  0  0  0  0  0
   27.7095  -15.8714  -17.1567 C   0  0  0  0  0  0  0  0  0  0  0  0
   27.3027  -15.6367  -18.5793 C   0  0  0  0  0  0  0  0  0  0  0  0
   25.9678  -14.9780  -18.6684 C   0  0  0  0  0  0  0  0  0  0  0  0
   25.4749  -14.7496  -19.7852 O   0  0  0  0  0  0  0  0  0  0  0  0
   27.5924  -17.4303  -15.2862 C   0  0  0  0  0  0  0  0  0  0  0  0
   28.7636  -17.7355  -14.9263 O   0  0  0  0  0  0  0  0  0  0  0  0
   25.2992  -14.6318  -17.5212 O   0  0  0  0  0  0  0  0  0  0  0  0
   26.5833  -17.2833  -14.2791 N   0  0  0  0  0  0  0  0  0  0  0  0
   26.8513  -17.5647  -12.9057 C   0  0  0  0  0  0  0  0  0  0  0  0
   26.7653  -18.9970  -12.5462 C   0  0  0  0  0  0  0  0  0  0  0  0
   26.4474  -19.8685  -13.4299 O   0  0  0  0  0  0  0  0  0  0  0  0
   27.0140  -19.5342  -11.2578 N   0  0  0  0  0  0  0  0  0  0  0  0
   27.2863  -20.9601  -11.0604 C   0  0  1  0  0  0  0  0  0  0  0  0
   28.1243  -21.1663   -9.8071 C   0  0  0  0  0  0  0  0  0  0  0  0
   27.4350  -20.7093   -8.5986 C   0  0  0  0  0  0  0  0  0  0  0  0
   26.0888  -20.4612   -8.4544 C   0  0  0  0  0  0  0  0  0  0  0  0
   25.8270  -20.0547   -7.1927 N   0  0  0  0  0  0  0  0  0  0  0  0
   27.0004  -20.0360   -6.5094 C   0  0  0  0  0  0  0  0  0  0  0  0
   27.2786  -19.7005   -5.2092 C   0  0  0  0  0  0  0  0  0  0  0  0
   28.5811  -19.7701   -4.7638 C   0  0  0  0  0  0  0  0  0  0  0  0
   29.6160  -20.1697   -5.5940 C   0  0  0  0  0  0  0  0  0  0  0  0
   29.3095  -20.5018   -6.8974 C   0  0  0  0  0  0  0  0  0  0  0  0
   28.0182  -20.4440   -7.3780 C   0  0  0  0  0  0  0  0  0  0  0  0
   25.9791  -21.6460  -10.9531 C   0  0  0  0  0  0  0  0  0  0  0  0
   25.8690  -23.0198  -11.1080 O   0  0  0  0  0  0  0  0  0  0  0  0
   24.9331  -20.9970  -10.7180 O   0  0  0  0  0  0  0  0  0  0  0  0
  2  1  1  1
  3  2  1  0
  3  4  1  0
  5  4  1  0
  5  6  2  0
  7  8  2  0
  7  2  1  0
  9  5  1  0
 10  7  1  0
 11 10  1  0
 11 12  1  0
 12 14  1  0
 13 12  2  0
 14 15  1  0
 15 16  1  1
 15 26  1  0
 17 25  1  0
 17 16  1  0
 18 17  2  0
 19 18  1  0
 19 20  1  0
 20 21  1  0
 20 25  2  0
 21 22  2  0
 22 23  1  0
 24 23  2  0
 25 24  1  0
 26 28  2  0
 26 27  1  0
M  END
$$$$
