SSP.pdb
     RDKit          3D

 20 20  0  0  1  0  0  0  0  0999 V2000
   10.3726  -15.5438   19.3513 O   0  0  0  0  0  0  0  0  0  0  0  0
   10.0193  -14.9170   20.5594 C   0  0  0  0  0  0  0  0  0  0  0  0
    8.6027  -15.3394   20.8617 C   0  0  2  0  0  0  0  0  0  0  0  0
    7.6749  -14.7663   19.9431 N   0  0  0  0  0  0  0  0  0  0  0  0
    8.1983  -15.0178   22.2474 C   0  0  0  0  0  0  0  0  0  0  0  0
    7.7817  -13.8562   22.4762 O   0  0  0  0  0  0  0  0  0  0  0  0
    7.0912  -17.6286   25.1673 O   0  0  0  0  0  0  0  0  0  0  0  0
    6.7710  -16.2744   25.1139 C   0  0  0  0  0  0  0  0  0  0  0  0
    7.9941  -15.4503   24.6984 C   0  0  2  0  0  0  0  0  0  0  0  0
    8.2492  -15.9205   23.3178 N   0  0  0  0  0  0  0  0  0  0  0  0
    9.1638  -15.6797   25.5437 C   0  0  0  0  0  0  0  0  0  0  0  0
    9.9366  -16.6390   25.1714 O   0  0  0  0  0  0  0  0  0  0  0  0
    9.4810  -14.9310   26.7042 N   0  0  0  0  0  0  0  0  0  0  0  0
    8.5973  -13.8131   27.1105 C   0  0  0  0  0  0  0  0  0  0  0  0
    8.8979  -13.7209   28.5879 C   0  0  0  0  0  0  0  0  0  0  0  0
   10.4170  -13.8385   28.5516 C   0  0  0  0  0  0  0  0  0  0  0  0
   10.5534  -15.0603   27.6432 C   0  0  1  0  0  0  0  0  0  0  0  0
   10.4388  -16.2676   28.4893 C   0  0  0  0  0  0  0  0  0  0  0  0
    9.3840  -16.9335   28.4625 O   0  0  0  0  0  0  0  0  0  0  0  0
   11.4679  -16.6791   29.3093 O   0  0  0  0  0  0  0  0  0  0  0  0
  2  1  1  0
  3  5  1  0
  3  2  1  0
  3  4  1  6
  5  6  2  0
  7  8  1  0
  9  8  1  1
 10  9  1  0
 10  5  1  0
 11 12  2  0
 11  9  1  0
 13 11  1  0
 14 13  1  0
 14 15  1  0
 16 17  1  0
 16 15  1  0
 17 13  1  0
 17 18  1  1
 18 20  1  0
 19 18  2  0
M  END
$$$$
