SSP.pdb
     RDKit          3D

 20 20  0  0  1  0  0  0  0  0999 V2000
   11.2192  -14.1189   18.7769 O   0  0  0  0  0  0  0  0  0  0  0  0
   10.5367  -13.5403   19.8615 C   0  0  0  0  0  0  0  0  0  0  0  0
    9.0760  -13.8665   19.6704 C   0  0  2  0  0  0  0  0  0  0  0  0
    8.4782  -13.0413   18.6730 N   0  0  0  0  0  0  0  0  0  0  0  0
    8.3040  -13.7702   20.9282 C   0  0  0  0  0  0  0  0  0  0  0  0
    7.8234  -12.6508   21.2304 O   0  0  0  0  0  0  0  0  0  0  0  0
    7.2368  -16.9937   23.5418 O   0  0  0  0  0  0  0  0  0  0  0  0
    6.4378  -15.9530   23.0751 C   0  0  0  0  0  0  0  0  0  0  0  0
    7.2399  -14.6492   23.0093 C   0  0  2  0  0  0  0  0  0  0  0  0
    8.0743  -14.8415   21.8014 N   0  0  0  0  0  0  0  0  0  0  0  0
    8.0799  -14.4238   24.1835 C   0  0  0  0  0  0  0  0  0  0  0  0
    9.2400  -14.9796   24.1495 O   0  0  0  0  0  0  0  0  0  0  0  0
    7.7011  -13.6550   25.3120 N   0  0  0  0  0  0  0  0  0  0  0  0
    6.3842  -12.9754   25.3182 C   0  0  0  0  0  0  0  0  0  0  0  0
    6.1332  -12.8313   26.8006 C   0  0  0  0  0  0  0  0  0  0  0  0
    7.5099  -12.3584   27.2523 C   0  0  0  0  0  0  0  0  0  0  0  0
    8.3780  -13.4003   26.5470 C   0  0  1  0  0  0  0  0  0  0  0  0
    8.4547  -14.5908   27.4207 C   0  0  0  0  0  0  0  0  0  0  0  0
    9.1890  -14.5613   28.4289 O   0  0  0  0  0  0  0  0  0  0  0  0
    7.7352  -15.7358   27.1515 O   0  0  0  0  0  0  0  0  0  0  0  0
  2  1  1  0
  3  5  1  0
  3  2  1  0
  3  4  1  6
  5  6  2  0
  7  8  1  0
  9  8  1  1
 10  9  1  0
 10  5  1  0
 11 12  2  0
 11  9  1  0
 13 11  1  0
 14 13  1  0
 14 15  1  0
 16 17  1  0
 16 15  1  0
 17 13  1  0
 17 18  1  1
 18 20  1  0
 19 18  2  0
M  END
$$$$
