SSP.pdb
     RDKit          3D

 20 20  0  0  1  0  0  0  0  0999 V2000
   11.3452  -17.1514   14.8532 O   0  0  0  0  0  0  0  0  0  0  0  0
   10.5171  -18.2072   15.2733 C   0  0  0  0  0  0  0  0  0  0  0  0
    9.1066  -17.8154   14.9079 C   0  0  2  0  0  0  0  0  0  0  0  0
    9.0460  -17.2061   13.6203 N   0  0  0  0  0  0  0  0  0  0  0  0
    8.4870  -16.9245   15.9128 C   0  0  0  0  0  0  0  0  0  0  0  0
    8.3212  -15.7209   15.5981 O   0  0  0  0  0  0  0  0  0  0  0  0
    6.8889  -18.1630   19.6102 O   0  0  0  0  0  0  0  0  0  0  0  0
    6.3280  -17.2135   18.7598 C   0  0  0  0  0  0  0  0  0  0  0  0
    7.4240  -16.3680   18.1028 C   0  0  2  0  0  0  0  0  0  0  0  0
    8.0744  -17.3334   17.1877 N   0  0  0  0  0  0  0  0  0  0  0  0
    8.3927  -15.8303   19.0556 C   0  0  0  0  0  0  0  0  0  0  0  0
    9.3748  -16.6095   19.3461 O   0  0  0  0  0  0  0  0  0  0  0  0
    8.3128  -14.5472   19.6514 N   0  0  0  0  0  0  0  0  0  0  0  0
    7.1787  -13.6571   19.3082 C   0  0  0  0  0  0  0  0  0  0  0  0
    7.1298  -12.7597   20.5221 C   0  0  0  0  0  0  0  0  0  0  0  0
    8.6168  -12.4720   20.6925 C   0  0  0  0  0  0  0  0  0  0  0  0
    9.1609  -13.8978   20.6040 C   0  0  1  0  0  0  0  0  0  0  0  0
    9.0799  -14.4969   21.9534 C   0  0  0  0  0  0  0  0  0  0  0  0
    9.9500  -14.2114   22.8008 O   0  0  0  0  0  0  0  0  0  0  0  0
    8.0669  -15.3647   22.3022 O   0  0  0  0  0  0  0  0  0  0  0  0
  2  1  1  0
  3  5  1  0
  3  2  1  0
  3  4  1  6
  5  6  2  0
  7  8  1  0
  9  8  1  1
 10  9  1  0
 10  5  1  0
 11 12  2  0
 11  9  1  0
 13 11  1  0
 14 13  1  0
 14 15  1  0
 16 17  1  0
 16 15  1  0
 17 13  1  0
 17 18  1  1
 18 20  1  0
 19 18  2  0
M  END
$$$$
