SSP.pdb
     RDKit          3D

 20 20  0  0  1  0  0  0  0  0999 V2000
   11.1600  -18.2084   16.0597 O   0  0  0  0  0  0  0  0  0  0  0  0
   10.0649  -19.0860   15.9736 C   0  0  0  0  0  0  0  0  0  0  0  0
    8.9168  -18.2831   15.4134 C   0  0  2  0  0  0  0  0  0  0  0  0
    9.2706  -17.6406   14.1906 N   0  0  0  0  0  0  0  0  0  0  0  0
    8.4023  -17.2828   16.3736 C   0  0  0  0  0  0  0  0  0  0  0  0
    8.6234  -16.0724   16.1256 O   0  0  0  0  0  0  0  0  0  0  0  0
    6.4848  -18.2869   19.8668 O   0  0  0  0  0  0  0  0  0  0  0  0
    5.9852  -17.2240   19.1187 C   0  0  0  0  0  0  0  0  0  0  0  0
    7.1196  -16.5132   18.3731 C   0  0  2  0  0  0  0  0  0  0  0  0
    7.6873  -17.5954   17.5372 N   0  0  0  0  0  0  0  0  0  0  0  0
    8.1405  -15.9596   19.2600 C   0  0  0  0  0  0  0  0  0  0  0  0
    9.1113  -16.7530   19.5502 O   0  0  0  0  0  0  0  0  0  0  0  0
    8.1207  -14.6475   19.7947 N   0  0  0  0  0  0  0  0  0  0  0  0
    7.0181  -13.7294   19.4238 C   0  0  0  0  0  0  0  0  0  0  0  0
    7.0229  -12.7743   20.5938 C   0  0  0  0  0  0  0  0  0  0  0  0
    8.5225  -12.5394   20.7312 C   0  0  0  0  0  0  0  0  0  0  0  0
    9.0079  -13.9887   20.7041 C   0  0  1  0  0  0  0  0  0  0  0  0
    8.9229  -14.5196   22.0816 C   0  0  0  0  0  0  0  0  0  0  0  0
    7.9529  -15.2365   22.4004 O   0  0  0  0  0  0  0  0  0  0  0  0
    9.8886  -14.2436   23.0262 O   0  0  0  0  0  0  0  0  0  0  0  0
  2  1  1  0
  3  5  1  0
  3  2  1  0
  3  4  1  6
  5  6  2  0
  7  8  1  0
  9  8  1  1
 10  9  1  0
 10  5  1  0
 11 12  2  0
 11  9  1  0
 13 11  1  0
 14 13  1  0
 14 15  1  0
 16 17  1  0
 16 15  1  0
 17 13  1  0
 17 18  1  1
 18 20  1  0
 19 18  2  0
M  END
$$$$
