SSP.pdb
     RDKit          3D

 20 20  0  0  1  0  0  0  0  0999 V2000
   11.4640  -14.1494   18.8007 O   0  0  0  0  0  0  0  0  0  0  0  0
   10.7705  -13.7763   19.9655 C   0  0  0  0  0  0  0  0  0  0  0  0
    9.3010  -13.8702   19.6365 C   0  0  2  0  0  0  0  0  0  0  0  0
    8.9252  -12.9312   18.6315 N   0  0  0  0  0  0  0  0  0  0  0  0
    8.4409  -13.6996   20.8275 C   0  0  0  0  0  0  0  0  0  0  0  0
    8.0459  -12.5393   21.0971 O   0  0  0  0  0  0  0  0  0  0  0  0
    6.8751  -16.8254   23.1494 O   0  0  0  0  0  0  0  0  0  0  0  0
    6.2089  -15.6406   22.8464 C   0  0  0  0  0  0  0  0  0  0  0  0
    7.1862  -14.4605   22.8481 C   0  0  2  0  0  0  0  0  0  0  0  0
    8.0394  -14.7434   21.6715 N   0  0  0  0  0  0  0  0  0  0  0  0
    7.9957  -14.3780   24.0619 C   0  0  0  0  0  0  0  0  0  0  0  0
    9.0988  -15.0402   24.0379 O   0  0  0  0  0  0  0  0  0  0  0  0
    7.6457  -13.6359   25.2172 N   0  0  0  0  0  0  0  0  0  0  0  0
    6.3594  -12.9006   25.2452 C   0  0  0  0  0  0  0  0  0  0  0  0
    6.1086  -12.8008   26.7313 C   0  0  0  0  0  0  0  0  0  0  0  0
    7.5025  -12.4050   27.2039 C   0  0  0  0  0  0  0  0  0  0  0  0
    8.3278  -13.4567   26.4625 C   0  0  1  0  0  0  0  0  0  0  0  0
    8.3493  -14.6810   27.2916 C   0  0  0  0  0  0  0  0  0  0  0  0
    9.1053  -14.7334   28.2827 O   0  0  0  0  0  0  0  0  0  0  0  0
    7.5549  -15.7693   26.9990 O   0  0  0  0  0  0  0  0  0  0  0  0
  2  1  1  0
  3  5  1  0
  3  2  1  0
  3  4  1  6
  5  6  2  0
  7  8  1  0
  9  8  1  1
 10  9  1  0
 10  5  1  0
 11 12  2  0
 11  9  1  0
 13 11  1  0
 14 13  1  0
 14 15  1  0
 16 17  1  0
 16 15  1  0
 17 13  1  0
 17 18  1  1
 18 20  1  0
 19 18  2  0
M  END
$$$$
