SSP.pdb
     RDKit          3D

 20 20  0  0  1  0  0  0  0  0999 V2000
   -0.3448  -20.9526   21.1606 O   0  0  0  0  0  0  0  0  0  0  0  0
   -0.4902  -19.5547   21.2023 C   0  0  0  0  0  0  0  0  0  0  0  0
    0.3297  -19.0055   20.0610 C   0  0  2  0  0  0  0  0  0  0  0  0
   -0.1618  -19.4492   18.7982 N   0  0  0  0  0  0  0  0  0  0  0  0
    1.7659  -19.3368   20.1833 C   0  0  0  0  0  0  0  0  0  0  0  0
    2.3556  -19.7524   19.1564 O   0  0  0  0  0  0  0  0  0  0  0  0
    5.4510  -17.3451   20.4286 O   0  0  0  0  0  0  0  0  0  0  0  0
    4.1166  -17.7381   20.4924 C   0  0  0  0  0  0  0  0  0  0  0  0
    3.9764  -19.0302   21.3039 C   0  0  2  0  0  0  0  0  0  0  0  0
    2.5089  -19.2178   21.3652 N   0  0  0  0  0  0  0  0  0  0  0  0
    4.5389  -18.9353   22.6492 C   0  0  0  0  0  0  0  0  0  0  0  0
    4.0812  -17.9759   23.3745 O   0  0  0  0  0  0  0  0  0  0  0  0
    5.5210  -19.8097   23.1775 N   0  0  0  0  0  0  0  0  0  0  0  0
    6.0763  -20.8813   22.3178 C   0  0  0  0  0  0  0  0  0  0  0  0
    7.4098  -21.1313   22.9817 C   0  0  0  0  0  0  0  0  0  0  0  0
    6.9752  -21.1392   24.4425 C   0  0  0  0  0  0  0  0  0  0  0  0
    6.1443  -19.8563   24.4649 C   0  0  1  0  0  0  0  0  0  0  0  0
    7.0663  -18.7249   24.7024 C   0  0  0  0  0  0  0  0  0  0  0  0
    7.4221  -18.4624   25.8691 O   0  0  0  0  0  0  0  0  0  0  0  0
    7.5451  -17.9498   23.6676 O   0  0  0  0  0  0  0  0  0  0  0  0
  2  1  1  0
  3  5  1  0
  3  2  1  0
  3  4  1  6
  5  6  2  0
  7  8  1  0
  9  8  1  6
 10  9  1  0
 10  5  1  0
 11 12  2  0
 11  9  1  0
 13 11  1  0
 14 13  1  0
 14 15  1  0
 16 17  1  0
 16 15  1  0
 17 13  1  0
 17 18  1  6
 18 20  1  0
 19 18  2  0
M  END
$$$$
