SSP.pdb
     RDKit          3D

 20 20  0  0  1  0  0  0  0  0999 V2000
   11.3912  -19.1460   20.4187 O   0  0  0  0  0  0  0  0  0  0  0  0
   10.3895  -19.6375   19.5630 C   0  0  0  0  0  0  0  0  0  0  0  0
    9.8760  -18.4532   18.7818 C   0  0  2  0  0  0  0  0  0  0  0  0
   10.8940  -17.8799   17.9644 N   0  0  0  0  0  0  0  0  0  0  0  0
    9.2872  -17.4120   19.6516 C   0  0  0  0  0  0  0  0  0  0  0  0
   10.0265  -16.4590   19.9987 O   0  0  0  0  0  0  0  0  0  0  0  0
    5.6310  -17.7884   21.5230 O   0  0  0  0  0  0  0  0  0  0  0  0
    5.9666  -16.5439   20.9958 C   0  0  0  0  0  0  0  0  0  0  0  0
    7.4859  -16.3461   21.0137 C   0  0  2  0  0  0  0  0  0  0  0  0
    7.9639  -17.4189   20.1120 N   0  0  0  0  0  0  0  0  0  0  0  0
    8.0753  -16.4916   22.3429 C   0  0  0  0  0  0  0  0  0  0  0  0
    8.5649  -17.6518   22.6077 O   0  0  0  0  0  0  0  0  0  0  0  0
    8.1358  -15.4637   23.3164 N   0  0  0  0  0  0  0  0  0  0  0  0
    7.6460  -14.1082   22.9719 C   0  0  0  0  0  0  0  0  0  0  0  0
    7.3187  -13.5561   24.3391 C   0  0  0  0  0  0  0  0  0  0  0  0
    8.5539  -14.0131   25.1062 C   0  0  0  0  0  0  0  0  0  0  0  0
    8.5914  -15.4786   24.6731 C   0  0  1  0  0  0  0  0  0  0  0  0
    7.6994  -16.2391   25.5744 C   0  0  0  0  0  0  0  0  0  0  0  0
    6.5550  -16.5463   25.1835 O   0  0  0  0  0  0  0  0  0  0  0  0
    8.0982  -16.6195   26.8382 O   0  0  0  0  0  0  0  0  0  0  0  0
  2  1  1  0
  3  5  1  0
  3  2  1  0
  3  4  1  1
  5  6  2  0
  7  8  1  0
  9  8  1  1
 10  9  1  0
 10  5  1  0
 11 12  2  0
 11  9  1  0
 13 11  1  0
 14 13  1  0
 14 15  1  0
 16 17  1  0
 16 15  1  0
 17 13  1  0
 17 18  1  1
 18 20  1  0
 19 18  2  0
M  END
$$$$
