SSP.pdb
     RDKit          3D

 20 20  0  0  1  0  0  0  0  0999 V2000
   12.1474  -16.2844   15.1715 O   0  0  0  0  0  0  0  0  0  0  0  0
   11.3902  -17.4461   14.9385 C   0  0  0  0  0  0  0  0  0  0  0  0
   10.0410  -16.9851   14.4452 C   0  0  2  0  0  0  0  0  0  0  0  0
   10.1574  -16.1562   13.2908 N   0  0  0  0  0  0  0  0  0  0  0  0
    9.2649  -16.2822   15.4896 C   0  0  0  0  0  0  0  0  0  0  0  0
    9.2245  -15.0288   15.4386 O   0  0  0  0  0  0  0  0  0  0  0  0
    7.4109  -18.1847   18.6820 O   0  0  0  0  0  0  0  0  0  0  0  0
    6.7822  -17.1210   18.0398 C   0  0  0  0  0  0  0  0  0  0  0  0
    7.8194  -16.1203   17.5195 C   0  0  2  0  0  0  0  0  0  0  0  0
    8.5742  -16.9203   16.5284 N   0  0  0  0  0  0  0  0  0  0  0  0
    8.7126  -15.6153   18.5599 C   0  0  0  0  0  0  0  0  0  0  0  0
    9.7668  -16.3213   18.7753 O   0  0  0  0  0  0  0  0  0  0  0  0
    8.4900  -14.4358   19.3130 N   0  0  0  0  0  0  0  0  0  0  0  0
    7.2857  -13.6168   19.0395 C   0  0  0  0  0  0  0  0  0  0  0  0
    7.1126  -12.8973   20.3562 C   0  0  0  0  0  0  0  0  0  0  0  0
    8.5586  -12.4986   20.6264 C   0  0  0  0  0  0  0  0  0  0  0  0
    9.2414  -13.8434   20.3773 C   0  0  1  0  0  0  0  0  0  0  0  0
    9.1780  -14.6217   21.6330 C   0  0  0  0  0  0  0  0  0  0  0  0
    8.3116  -15.5110   21.7564 O   0  0  0  0  0  0  0  0  0  0  0  0
   10.0522  -14.3915   22.6740 O   0  0  0  0  0  0  0  0  0  0  0  0
  2  1  1  0
  3  5  1  0
  3  2  1  0
  3  4  1  6
  5  6  2  0
  7  8  1  0
  9  8  1  1
 10  9  1  0
 10  5  1  0
 11 12  2  0
 11  9  1  0
 13 11  1  0
 14 13  1  0
 14 15  1  0
 16 17  1  0
 16 15  1  0
 17 13  1  0
 17 18  1  1
 18 20  1  0
 19 18  2  0
M  END
$$$$
