SSP.pdb
     RDKit          3D

 20 20  0  0  1  0  0  0  0  0999 V2000
   10.0539  -13.5945   18.7172 O   0  0  0  0  0  0  0  0  0  0  0  0
    9.8391  -14.2995   19.9146 C   0  0  0  0  0  0  0  0  0  0  0  0
    8.3438  -14.3988   20.0898 C   0  0  2  0  0  0  0  0  0  0  0  0
    7.6572  -13.4095   19.3262 N   0  0  0  0  0  0  0  0  0  0  0  0
    7.9317  -14.3116   21.5075 C   0  0  0  0  0  0  0  0  0  0  0  0
    7.4767  -13.2147   21.9137 O   0  0  0  0  0  0  0  0  0  0  0  0
    7.2947  -17.5373   24.1659 O   0  0  0  0  0  0  0  0  0  0  0  0
    6.5995  -16.3381   24.0335 C   0  0  0  0  0  0  0  0  0  0  0  0
    7.5735  -15.1740   23.8235 C   0  0  2  0  0  0  0  0  0  0  0  0
    8.0152  -15.3684   22.4237 N   0  0  0  0  0  0  0  0  0  0  0  0
    8.7176  -15.2026   24.7320 C   0  0  0  0  0  0  0  0  0  0  0  0
    9.6962  -15.9543   24.3668 O   0  0  0  0  0  0  0  0  0  0  0  0
    8.8046  -14.4743   25.9444 N   0  0  0  0  0  0  0  0  0  0  0  0
    7.7026  -13.5579   26.3211 C   0  0  0  0  0  0  0  0  0  0  0  0
    7.8704  -13.4950   27.8209 C   0  0  0  0  0  0  0  0  0  0  0  0
    9.3837  -13.3350   27.9064 C   0  0  0  0  0  0  0  0  0  0  0  0
    9.8096  -14.4602   26.9633 C   0  0  1  0  0  0  0  0  0  0  0  0
    9.8562  -15.7133   27.7470 C   0  0  0  0  0  0  0  0  0  0  0  0
    8.9287  -16.5397   27.6320 O   0  0  0  0  0  0  0  0  0  0  0  0
   10.8992  -15.9946   28.6038 O   0  0  0  0  0  0  0  0  0  0  0  0
  2  1  1  0
  3  5  1  0
  3  2  1  0
  3  4  1  6
  5  6  2  0
  7  8  1  0
  9  8  1  1
 10  9  1  0
 10  5  1  0
 11 12  2  0
 11  9  1  0
 13 11  1  0
 14 13  1  0
 14 15  1  0
 16 17  1  0
 16 15  1  0
 17 13  1  0
 17 18  1  1
 18 20  1  0
 19 18  2  0
M  END
$$$$
