SSP.pdb
     RDKit          3D

 20 20  0  0  1  0  0  0  0  0999 V2000
   10.9061  -12.9354   19.9886 O   0  0  0  0  0  0  0  0  0  0  0  0
   10.3290  -14.2174   20.0126 C   0  0  0  0  0  0  0  0  0  0  0  0
    8.8505  -14.0248   19.7813 C   0  0  2  0  0  0  0  0  0  0  0  0
    8.5822  -12.8247   19.0596 N   0  0  0  0  0  0  0  0  0  0  0  0
    8.0732  -14.0365   21.0395 C   0  0  0  0  0  0  0  0  0  0  0  0
    7.5438  -12.9589   21.4051 O   0  0  0  0  0  0  0  0  0  0  0  0
    5.9889  -16.5783   24.5667 O   0  0  0  0  0  0  0  0  0  0  0  0
    6.5334  -16.4341   23.2931 C   0  0  0  0  0  0  0  0  0  0  0  0
    7.1692  -15.0489   23.1356 C   0  0  2  0  0  0  0  0  0  0  0  0
    7.8893  -15.1665   21.8472 N   0  0  0  0  0  0  0  0  0  0  0  0
    8.0960  -14.7089   24.2131 C   0  0  0  0  0  0  0  0  0  0  0  0
    9.2702  -15.2267   24.1176 O   0  0  0  0  0  0  0  0  0  0  0  0
    7.7838  -13.8714   25.3126 N   0  0  0  0  0  0  0  0  0  0  0  0
    6.4850  -13.1583   25.3359 C   0  0  0  0  0  0  0  0  0  0  0  0
    6.3006  -12.9287   26.8173 C   0  0  0  0  0  0  0  0  0  0  0  0
    7.7061  -12.4685   27.1857 C   0  0  0  0  0  0  0  0  0  0  0  0
    8.5184  -13.5690   26.5031 C   0  0  1  0  0  0  0  0  0  0  0  0
    8.6036  -14.7127   27.4364 C   0  0  0  0  0  0  0  0  0  0  0  0
    7.8700  -15.7052   27.2536 O   0  0  0  0  0  0  0  0  0  0  0  0
    9.4735  -14.7130   28.5060 O   0  0  0  0  0  0  0  0  0  0  0  0
  2  1  1  0
  3  5  1  0
  3  2  1  0
  3  4  1  1
  5  6  2  0
  7  8  1  0
  9  8  1  1
 10  9  1  0
 10  5  1  0
 11 12  2  0
 11  9  1  0
 13 11  1  0
 14 13  1  0
 14 15  1  0
 16 17  1  0
 16 15  1  0
 17 13  1  0
 17 18  1  1
 18 20  1  0
 19 18  2  0
M  END
$$$$
