SSP.pdb
     RDKit          3D

 20 20  0  0  1  0  0  0  0  0999 V2000
   11.2401  -12.9419   20.0418 O   0  0  0  0  0  0  0  0  0  0  0  0
   10.6883  -14.1860   19.6886 C   0  0  0  0  0  0  0  0  0  0  0  0
    9.2353  -13.9340   19.3698 C   0  0  2  0  0  0  0  0  0  0  0  0
    9.0777  -12.8631   18.4416 N   0  0  0  0  0  0  0  0  0  0  0  0
    8.4265  -13.6705   20.5797 C   0  0  0  0  0  0  0  0  0  0  0  0
    8.0244  -12.4962   20.7651 O   0  0  0  0  0  0  0  0  0  0  0  0
    6.6369  -16.5395   23.0772 O   0  0  0  0  0  0  0  0  0  0  0  0
    6.1671  -15.2716   22.7440 C   0  0  0  0  0  0  0  0  0  0  0  0
    7.3165  -14.2584   22.7379 C   0  0  2  0  0  0  0  0  0  0  0  0
    8.0808  -14.6413   21.5290 N   0  0  0  0  0  0  0  0  0  0  0  0
    8.1634  -14.3333   23.9264 C   0  0  0  0  0  0  0  0  0  0  0  0
    9.1502  -15.1560   23.8523 O   0  0  0  0  0  0  0  0  0  0  0  0
    7.9653  -13.5771   25.1083 N   0  0  0  0  0  0  0  0  0  0  0  0
    6.9221  -12.5247   25.1301 C   0  0  0  0  0  0  0  0  0  0  0  0
    6.6311  -12.4280   26.6090 C   0  0  0  0  0  0  0  0  0  0  0  0
    8.0539  -12.4437   27.1553 C   0  0  0  0  0  0  0  0  0  0  0  0
    8.6055  -13.6443   26.3865 C   0  0  1  0  0  0  0  0  0  0  0  0
    8.2569  -14.8651   27.1445 C   0  0  0  0  0  0  0  0  0  0  0  0
    7.2540  -15.5266   26.8079 O   0  0  0  0  0  0  0  0  0  0  0  0
    9.0114  -15.2941   28.2157 O   0  0  0  0  0  0  0  0  0  0  0  0
  2  1  1  0
  3  5  1  0
  3  2  1  0
  3  4  1  6
  5  6  2  0
  7  8  1  0
  9  8  1  1
 10  9  1  0
 10  5  1  0
 11 12  2  0
 11  9  1  0
 13 11  1  0
 14 13  1  0
 14 15  1  0
 16 17  1  0
 16 15  1  0
 17 13  1  0
 17 18  1  1
 18 20  1  0
 19 18  2  0
M  END
$$$$
