SSP.pdb
     RDKit          3D

 20 20  0  0  1  0  0  0  0  0999 V2000
   10.2517  -13.0304   18.7934 O   0  0  0  0  0  0  0  0  0  0  0  0
    9.2748  -12.7718   19.7711 C   0  0  0  0  0  0  0  0  0  0  0  0
    8.3733  -13.9812   19.8048 C   0  0  2  0  0  0  0  0  0  0  0  0
    7.3960  -13.9386   18.7675 N   0  0  0  0  0  0  0  0  0  0  0  0
    7.7067  -14.1556   21.1135 C   0  0  0  0  0  0  0  0  0  0  0  0
    6.5706  -13.6427   21.2595 O   0  0  0  0  0  0  0  0  0  0  0  0
    6.3388  -16.8336   24.5260 O   0  0  0  0  0  0  0  0  0  0  0  0
    6.9749  -16.4562   23.3461 C   0  0  0  0  0  0  0  0  0  0  0  0
    7.4815  -15.0137   23.4477 C   0  0  2  0  0  0  0  0  0  0  0  0
    8.2573  -14.8528   22.1969 N   0  0  0  0  0  0  0  0  0  0  0  0
    8.3307  -14.7769   24.6131 C   0  0  0  0  0  0  0  0  0  0  0  0
    9.4661  -15.3825   24.6033 O   0  0  0  0  0  0  0  0  0  0  0  0
    7.9854  -13.9475   25.7089 N   0  0  0  0  0  0  0  0  0  0  0  0
    6.7168  -13.1826   25.6685 C   0  0  0  0  0  0  0  0  0  0  0  0
    6.4515  -12.9727   27.1406 C   0  0  0  0  0  0  0  0  0  0  0  0
    7.8490  -12.5768   27.6024 C   0  0  0  0  0  0  0  0  0  0  0  0
    8.6573  -13.6968   26.9474 C   0  0  1  0  0  0  0  0  0  0  0  0
    8.6401  -14.8598   27.8604 C   0  0  0  0  0  0  0  0  0  0  0  0
    7.8574  -15.8039   27.6311 O   0  0  0  0  0  0  0  0  0  0  0  0
    9.4674  -14.9302   28.9612 O   0  0  0  0  0  0  0  0  0  0  0  0
  2  1  1  0
  3  5  1  0
  3  2  1  0
  3  4  1  6
  5  6  2  0
  7  8  1  0
  9  8  1  1
 10  9  1  0
 10  5  1  0
 11 12  2  0
 11  9  1  0
 13 11  1  0
 14 13  1  0
 14 15  1  0
 16 17  1  0
 16 15  1  0
 17 13  1  0
 17 18  1  1
 18 20  1  0
 19 18  2  0
M  END
$$$$
