SSP.pdb
     RDKit          3D

 20 20  0  0  1  0  0  0  0  0999 V2000
   11.1139  -13.2559   19.9771 O   0  0  0  0  0  0  0  0  0  0  0  0
   10.5249  -14.3784   19.3687 C   0  0  0  0  0  0  0  0  0  0  0  0
    9.0727  -14.0328   19.1493 C   0  0  2  0  0  0  0  0  0  0  0  0
    8.9233  -12.9139   18.2783 N   0  0  0  0  0  0  0  0  0  0  0  0
    8.3520  -13.7806   20.4160 C   0  0  0  0  0  0  0  0  0  0  0  0
    8.3174  -12.5996   20.8393 O   0  0  0  0  0  0  0  0  0  0  0  0
    6.4850  -16.7280   22.7947 O   0  0  0  0  0  0  0  0  0  0  0  0
    5.9560  -15.4572   22.5839 C   0  0  0  0  0  0  0  0  0  0  0  0
    7.0792  -14.4216   22.4666 C   0  0  2  0  0  0  0  0  0  0  0  0
    7.7076  -14.7689   21.1717 N   0  0  0  0  0  0  0  0  0  0  0  0
    8.0570  -14.4997   23.5497 C   0  0  0  0  0  0  0  0  0  0  0  0
    9.0570  -15.2815   23.3377 O   0  0  0  0  0  0  0  0  0  0  0  0
    7.9676  -13.7875   24.7715 N   0  0  0  0  0  0  0  0  0  0  0  0
    6.9270  -12.7443   24.9288 C   0  0  0  0  0  0  0  0  0  0  0  0
    6.7755  -12.7024   26.4310 C   0  0  0  0  0  0  0  0  0  0  0  0
    8.2433  -12.7271   26.8408 C   0  0  0  0  0  0  0  0  0  0  0  0
    8.7251  -13.8955   25.9809 C   0  0  1  0  0  0  0  0  0  0  0  0
    8.4540  -15.1451   26.7236 C   0  0  0  0  0  0  0  0  0  0  0  0
    7.4504  -15.8249   26.4280 O   0  0  0  0  0  0  0  0  0  0  0  0
    9.2816  -15.5811   27.7364 O   0  0  0  0  0  0  0  0  0  0  0  0
  2  1  1  0
  3  5  1  0
  3  2  1  0
  3  4  1  6
  5  6  2  0
  7  8  1  0
  9  8  1  1
 10  9  1  0
 10  5  1  0
 11 12  2  0
 11  9  1  0
 13 11  1  0
 14 13  1  0
 14 15  1  0
 16 17  1  0
 16 15  1  0
 17 13  1  0
 17 18  1  1
 18 20  1  0
 19 18  2  0
M  END
$$$$
