CID.pdb
     RDKit          3D

 23 22  0  0  1  0  0  0  0  0999 V2000
    7.3218  -14.7095   20.1364 N   0  0  0  0  0  0  0  0  0  0  0  0
    6.7071  -15.2553   21.3358 C   0  0  1  0  0  0  0  0  0  0  0  0
    6.3637  -16.7120   21.1783 C   0  0  0  0  0  0  0  0  0  0  0  0
    5.3967  -17.1959   22.6553 S   0  0  0  0  0  0  0  0  0  0  0  0
    7.6109  -14.9942   22.4735 C   0  0  0  0  0  0  0  0  0  0  0  0
    8.8666  -14.9875   22.3392 O   0  0  0  0  0  0  0  0  0  0  0  0
    5.8714  -11.7785   26.5628 C   0  0  0  0  0  0  0  0  0  0  0  0
    6.8013  -12.3029   25.4515 C   0  0  0  0  0  0  0  0  0  0  0  0
    7.2597  -13.6508   25.9065 C   0  0  2  0  0  0  0  0  0  0  0  0
    8.0371  -13.4272   27.2045 C   0  0  0  0  0  0  0  0  0  0  0  0
    8.0567  -14.4345   24.8961 C   0  0  2  0  0  0  0  0  0  0  0  0
    7.1245  -14.7340   23.7923 N   0  0  0  0  0  0  0  0  0  0  0  0
    8.6295  -15.6909   25.3918 C   0  0  0  0  0  0  0  0  0  0  0  0
    7.8698  -16.6269   25.7463 O   0  0  0  0  0  0  0  0  0  0  0  0
   10.0207  -15.9334   25.4985 N   0  0  0  0  0  0  0  0  0  0  0  0
   10.5547  -17.2578   25.7913 C   0  0  1  0  0  0  0  0  0  0  0  0
   11.9615  -17.3301   25.2271 C   0  0  0  0  0  0  0  0  0  0  0  0
   12.5628  -18.6177   25.5790 C   0  0  0  0  0  0  0  0  0  0  0  0
   13.0937  -18.8949   26.7006 O   0  0  0  0  0  0  0  0  0  0  0  0
   10.5572  -17.4552   27.2557 C   0  0  0  0  0  0  0  0  0  0  0  0
   10.5377  -18.7022   27.8631 O   0  0  0  0  0  0  0  0  0  0  0  0
   12.5540  -19.6316   24.6001 O   0  0  0  0  0  0  0  0  0  0  0  0
   10.5769  -16.4703   28.0360 O   0  0  0  0  0  0  0  0  0  0  0  0
  2  1  1  6
  3  2  1  0
  4  3  1  0
  5  6  2  0
  5  2  1  0
  8  7  1  0
  8  9  1  0
  9 11  1  0
  9 10  1  1
 11 12  1  6
 11 13  1  0
 12  5  1  0
 13 15  1  0
 14 13  2  0
 15 16  1  0
 16 20  1  0
 17 18  1  0
 16 17  1  1
 18 22  1  0
 19 18  2  0
 20 23  2  0
 20 21  1  0
M  END
$$$$
