CID.pdb
     RDKit          3D

 23 22  0  0  1  0  0  0  0  0999 V2000
    5.6871  -17.6361   21.5346 N   0  0  0  0  0  0  0  0  0  0  0  0
    5.6980  -17.5588   22.9866 C   0  0  1  0  0  0  0  0  0  0  0  0
    5.8106  -18.9189   23.6210 C   0  0  0  0  0  0  0  0  0  0  0  0
    4.3167  -19.8595   23.1374 S   0  0  0  0  0  0  0  0  0  0  0  0
    6.7828  -16.6418   23.3887 C   0  0  0  0  0  0  0  0  0  0  0  0
    7.7533  -16.3815   22.6236 O   0  0  0  0  0  0  0  0  0  0  0  0
    5.6616  -12.4124   26.6491 C   0  0  0  0  0  0  0  0  0  0  0  0
    6.3335  -13.0903   25.4392 C   0  0  0  0  0  0  0  0  0  0  0  0
    7.2841  -14.0926   26.0100 C   0  0  2  0  0  0  0  0  0  0  0  0
    8.3545  -13.2959   26.7572 C   0  0  0  0  0  0  0  0  0  0  0  0
    7.8830  -15.0516   25.0139 C   0  0  2  0  0  0  0  0  0  0  0  0
    6.8034  -15.9940   24.6628 N   0  0  0  0  0  0  0  0  0  0  0  0
    9.0414  -15.8109   25.4975 C   0  0  0  0  0  0  0  0  0  0  0  0
   10.1188  -15.2149   25.7476 O   0  0  0  0  0  0  0  0  0  0  0  0
    9.0304  -17.2105   25.7134 N   0  0  0  0  0  0  0  0  0  0  0  0
   10.2165  -17.9345   26.1536 C   0  0  1  0  0  0  0  0  0  0  0  0
   11.4005  -17.4226   25.3544 C   0  0  0  0  0  0  0  0  0  0  0  0
   12.6250  -18.0715   25.8264 C   0  0  0  0  0  0  0  0  0  0  0  0
   12.6790  -18.9591   26.7352 O   0  0  0  0  0  0  0  0  0  0  0  0
   10.4074  -17.6978   27.5996 C   0  0  0  0  0  0  0  0  0  0  0  0
   11.1517  -18.5301   28.4229 O   0  0  0  0  0  0  0  0  0  0  0  0
   13.8411  -17.6841   25.2286 O   0  0  0  0  0  0  0  0  0  0  0  0
    9.8862  -16.7018   28.1612 O   0  0  0  0  0  0  0  0  0  0  0  0
  2  1  1  6
  3  2  1  0
  4  3  1  0
  5  6  2  0
  5  2  1  0
  8  7  1  0
  8  9  1  0
  9 11  1  0
  9 10  1  6
 11 12  1  1
 11 13  1  0
 12  5  1  0
 13 15  1  0
 14 13  2  0
 15 16  1  0
 16 20  1  0
 17 18  1  0
 16 17  1  6
 18 22  1  0
 19 18  2  0
 20 23  2  0
 20 21  1  0
M  END
$$$$
