CID.pdb
     RDKit          3D

 23 22  0  0  1  0  0  0  0  0999 V2000
    8.1627  -14.5567   19.9803 N   0  0  0  0  0  0  0  0  0  0  0  0
    7.2644  -14.8071   21.0959 C   0  0  1  0  0  0  0  0  0  0  0  0
    6.6687  -16.1880   21.0389 C   0  0  0  0  0  0  0  0  0  0  0  0
    8.0501  -17.3742   21.2260 S   0  0  0  0  0  0  0  0  0  0  0  0
    8.0039  -14.5479   22.3470 C   0  0  0  0  0  0  0  0  0  0  0  0
    9.2637  -14.6185   22.4034 O   0  0  0  0  0  0  0  0  0  0  0  0
    5.8940  -11.3347   26.2253 C   0  0  0  0  0  0  0  0  0  0  0  0
    6.8394  -11.9607   25.1816 C   0  0  0  0  0  0  0  0  0  0  0  0
    7.2687  -13.2721   25.7560 C   0  0  2  0  0  0  0  0  0  0  0  0
    8.0038  -12.9531   27.0587 C   0  0  0  0  0  0  0  0  0  0  0  0
    8.0918  -14.1383   24.8380 C   0  0  2  0  0  0  0  0  0  0  0  0
    7.3446  -14.2023   23.5673 N   0  0  0  0  0  0  0  0  0  0  0  0
    8.3345  -15.5029   25.3189 C   0  0  0  0  0  0  0  0  0  0  0  0
    7.9776  -16.4843   24.6201 O   0  0  0  0  0  0  0  0  0  0  0  0
    8.9658  -15.8026   26.5506 N   0  0  0  0  0  0  0  0  0  0  0  0
   10.0401  -16.7826   26.6508 C   0  0  1  0  0  0  0  0  0  0  0  0
   11.1899  -16.3069   25.7823 C   0  0  0  0  0  0  0  0  0  0  0  0
   11.4950  -17.3252   24.7757 C   0  0  0  0  0  0  0  0  0  0  0  0
   10.6330  -17.9337   24.0661 O   0  0  0  0  0  0  0  0  0  0  0  0
   10.4515  -16.8928   28.0658 C   0  0  0  0  0  0  0  0  0  0  0  0
   10.4639  -15.8224   28.9481 O   0  0  0  0  0  0  0  0  0  0  0  0
   12.8493  -17.6595   24.5749 O   0  0  0  0  0  0  0  0  0  0  0  0
   10.8195  -17.9954   28.5431 O   0  0  0  0  0  0  0  0  0  0  0  0
  2  1  1  6
  3  2  1  0
  4  3  1  0
  5  6  2  0
  5  2  1  0
  8  7  1  0
  8  9  1  0
  9 11  1  0
  9 10  1  1
 11 12  1  6
 11 13  1  0
 12  5  1  0
 13 15  1  0
 14 13  2  0
 15 16  1  0
 16 20  1  0
 17 18  1  0
 16 17  1  6
 18 22  1  0
 19 18  2  0
 20 23  2  0
 20 21  1  0
M  END
$$$$
