CID.pdb
     RDKit          3D

 23 22  0  0  1  0  0  0  0  0999 V2000
    6.7379  -15.4586   20.6998 N   0  0  0  0  0  0  0  0  0  0  0  0
    6.4892  -15.8231   22.0852 C   0  0  1  0  0  0  0  0  0  0  0  0
    6.6117  -17.3067   22.3068 C   0  0  0  0  0  0  0  0  0  0  0  0
    6.1961  -17.6211   24.0615 S   0  0  0  0  0  0  0  0  0  0  0  0
    7.4004  -15.0342   22.9376 C   0  0  0  0  0  0  0  0  0  0  0  0
    8.5526  -14.6955   22.5465 O   0  0  0  0  0  0  0  0  0  0  0  0
    5.5408  -11.3011   26.4882 C   0  0  0  0  0  0  0  0  0  0  0  0
    6.4419  -11.8987   25.3900 C   0  0  0  0  0  0  0  0  0  0  0  0
    7.1700  -13.0342   26.0339 C   0  0  2  0  0  0  0  0  0  0  0  0
    8.0072  -12.4270   27.1606 C   0  0  0  0  0  0  0  0  0  0  0  0
    8.0005  -13.8776   25.1015 C   0  0  2  0  0  0  0  0  0  0  0  0
    7.0385  -14.6060   24.2524 N   0  0  0  0  0  0  0  0  0  0  0  0
    8.8868  -14.8452   25.7577 C   0  0  0  0  0  0  0  0  0  0  0  0
    9.8679  -14.4385   26.4290 O   0  0  0  0  0  0  0  0  0  0  0  0
    8.7074  -16.2483   25.6901 N   0  0  0  0  0  0  0  0  0  0  0  0
    9.5901  -17.1754   26.3873 C   0  0  1  0  0  0  0  0  0  0  0  0
    8.8087  -18.4462   26.6650 C   0  0  0  0  0  0  0  0  0  0  0  0
    9.6699  -19.4075   27.3560 C   0  0  0  0  0  0  0  0  0  0  0  0
   10.5378  -19.1110   28.2365 O   0  0  0  0  0  0  0  0  0  0  0  0
   10.7635  -17.4478   25.5314 C   0  0  0  0  0  0  0  0  0  0  0  0
   10.9754  -16.8413   24.3020 O   0  0  0  0  0  0  0  0  0  0  0  0
    9.5283  -20.7691   27.0212 O   0  0  0  0  0  0  0  0  0  0  0  0
   11.6453  -18.2668   25.8931 O   0  0  0  0  0  0  0  0  0  0  0  0
  2  1  1  6
  3  2  1  0
  4  3  1  0
  5  6  2  0
  5  2  1  0
  8  7  1  0
  8  9  1  0
  9 11  1  0
  9 10  1  1
 11 12  1  6
 11 13  1  0
 12  5  1  0
 13 15  1  0
 14 13  2  0
 15 16  1  0
 16 20  1  0
 17 18  1  0
 16 17  1  6
 18 22  1  0
 19 18  2  0
 20 23  2  0
 20 21  1  0
M  END
$$$$
