CID.pdb
     RDKit          3D

 23 22  0  0  1  0  0  0  0  0999 V2000
    8.2169  -14.6793   20.3092 N   0  0  0  0  0  0  0  0  0  0  0  0
    7.5276  -15.2885   21.4352 C   0  0  1  0  0  0  0  0  0  0  0  0
    7.4303  -16.7836   21.2926 C   0  0  0  0  0  0  0  0  0  0  0  0
    6.1288  -17.1183   20.0497 S   0  0  0  0  0  0  0  0  0  0  0  0
    8.2131  -14.8695   22.6736 C   0  0  0  0  0  0  0  0  0  0  0  0
    9.4727  -14.8494   22.7639 O   0  0  0  0  0  0  0  0  0  0  0  0
    5.6432  -11.5490   26.1830 C   0  0  0  0  0  0  0  0  0  0  0  0
    6.7769  -12.0741   25.2809 C   0  0  0  0  0  0  0  0  0  0  0  0
    7.2585  -13.3344   25.9241 C   0  0  2  0  0  0  0  0  0  0  0  0
    7.8642  -12.9289   27.2686 C   0  0  0  0  0  0  0  0  0  0  0  0
    8.2134  -14.1553   25.0966 C   0  0  2  0  0  0  0  0  0  0  0  0
    7.4986  -14.4621   23.8427 N   0  0  0  0  0  0  0  0  0  0  0  0
    8.6545  -15.4106   25.7145 C   0  0  0  0  0  0  0  0  0  0  0  0
    7.8876  -16.4059   25.7232 O   0  0  0  0  0  0  0  0  0  0  0  0
    9.9240  -15.5877   26.3166 N   0  0  0  0  0  0  0  0  0  0  0  0
   10.3544  -16.8742   26.8499 C   0  0  1  0  0  0  0  0  0  0  0  0
   11.5626  -17.3304   26.0532 C   0  0  0  0  0  0  0  0  0  0  0  0
   12.0806  -18.5759   26.6223 C   0  0  0  0  0  0  0  0  0  0  0  0
   11.3688  -19.5613   26.9950 O   0  0  0  0  0  0  0  0  0  0  0  0
   10.6909  -16.7068   28.2790 C   0  0  0  0  0  0  0  0  0  0  0  0
   10.8967  -17.7672   29.1494 O   0  0  0  0  0  0  0  0  0  0  0  0
   13.4771  -18.6951   26.7697 O   0  0  0  0  0  0  0  0  0  0  0  0
   10.8072  -15.5607   28.7808 O   0  0  0  0  0  0  0  0  0  0  0  0
  2  1  1  6
  3  2  1  0
  4  3  1  0
  5  6  2  0
  5  2  1  0
  8  7  1  0
  8  9  1  0
  9 11  1  0
  9 10  1  1
 11 12  1  6
 11 13  1  0
 12  5  1  0
 13 15  1  0
 14 13  2  0
 15 16  1  0
 16 20  1  0
 17 18  1  0
 16 17  1  6
 18 22  1  0
 19 18  2  0
 20 23  2  0
 20 21  1  0
M  END
$$$$
