CID.pdb
     RDKit          3D

 23 22  0  0  1  0  0  0  0  0999 V2000
    5.5331  -17.8502   22.1638 N   0  0  0  0  0  0  0  0  0  0  0  0
    5.8405  -18.0324   23.5733 C   0  0  1  0  0  0  0  0  0  0  0  0
    6.1570  -19.4673   23.8986 C   0  0  0  0  0  0  0  0  0  0  0  0
    6.2519  -19.5935   25.7223 S   0  0  0  0  0  0  0  0  0  0  0  0
    6.9328  -17.1049   23.9279 C   0  0  0  0  0  0  0  0  0  0  0  0
    7.9471  -16.9566   23.1902 O   0  0  0  0  0  0  0  0  0  0  0  0
    6.0149  -12.5026   26.3457 C   0  0  0  0  0  0  0  0  0  0  0  0
    6.7937  -13.4151   25.3783 C   0  0  0  0  0  0  0  0  0  0  0  0
    7.5950  -14.3347   26.2421 C   0  0  2  0  0  0  0  0  0  0  0  0
    8.7266  -13.4939   26.8349 C   0  0  0  0  0  0  0  0  0  0  0  0
    8.1087  -15.5754   25.5585 C   0  0  2  0  0  0  0  0  0  0  0  0
    6.9118  -16.3199   25.1224 N   0  0  0  0  0  0  0  0  0  0  0  0
    8.9375  -16.4508   26.3946 C   0  0  0  0  0  0  0  0  0  0  0  0
    8.4173  -17.0749   27.3531 O   0  0  0  0  0  0  0  0  0  0  0  0
   10.3241  -16.6526   26.1894 N   0  0  0  0  0  0  0  0  0  0  0  0
   11.0501  -17.7428   26.8291 C   0  0  1  0  0  0  0  0  0  0  0  0
   12.2849  -18.0344   25.9968 C   0  0  0  0  0  0  0  0  0  0  0  0
   13.0932  -19.0564   26.6643 C   0  0  0  0  0  0  0  0  0  0  0  0
   12.7934  -19.6247   27.7615 O   0  0  0  0  0  0  0  0  0  0  0  0
   11.4168  -17.3289   28.1994 C   0  0  0  0  0  0  0  0  0  0  0  0
   11.7566  -18.2204   29.2065 O   0  0  0  0  0  0  0  0  0  0  0  0
   14.2985  -19.4429   26.0447 O   0  0  0  0  0  0  0  0  0  0  0  0
   11.4358  -16.1138   28.5193 O   0  0  0  0  0  0  0  0  0  0  0  0
  2  1  1  6
  3  2  1  0
  4  3  1  0
  5  6  2  0
  5  2  1  0
  8  7  1  0
  8  9  1  0
  9 11  1  0
  9 10  1  6
 11 12  1  1
 11 13  1  0
 12  5  1  0
 13 15  1  0
 14 13  2  0
 15 16  1  0
 16 20  1  0
 17 18  1  0
 16 17  1  6
 18 22  1  0
 19 18  2  0
 20 23  2  0
 20 21  1  0
M  END
$$$$
