CID.pdb
     RDKit          3D

 23 22  0  0  1  0  0  0  0  0999 V2000
    7.8486  -14.9319   19.8346 N   0  0  0  0  0  0  0  0  0  0  0  0
    7.3134  -15.4599   21.0792 C   0  0  1  0  0  0  0  0  0  0  0  0
    7.3309  -16.9646   21.1050 C   0  0  0  0  0  0  0  0  0  0  0  0
    6.1644  -17.5349   19.8148 S   0  0  0  0  0  0  0  0  0  0  0  0
    8.0657  -14.8539   22.1954 C   0  0  0  0  0  0  0  0  0  0  0  0
    9.2106  -14.3471   22.0300 O   0  0  0  0  0  0  0  0  0  0  0  0
    6.5360  -11.8042   27.1009 C   0  0  0  0  0  0  0  0  0  0  0  0
    7.7620  -12.5389   26.5248 C   0  0  0  0  0  0  0  0  0  0  0  0
    7.2355  -13.4183   25.4369 C   0  0  2  0  0  0  0  0  0  0  0  0
    6.2950  -14.4201   26.1085 C   0  0  0  0  0  0  0  0  0  0  0  0
    8.2839  -14.1004   24.5965 C   0  0  2  0  0  0  0  0  0  0  0  0
    7.5488  -14.8026   23.5272 N   0  0  0  0  0  0  0  0  0  0  0  0
    9.1255  -15.0662   25.3114 C   0  0  0  0  0  0  0  0  0  0  0  0
    9.8335  -14.6839   26.2765 O   0  0  0  0  0  0  0  0  0  0  0  0
    9.1960  -16.4423   24.9841 N   0  0  0  0  0  0  0  0  0  0  0  0
   10.0411  -17.3711   25.7243 C   0  0  1  0  0  0  0  0  0  0  0  0
   11.4706  -16.8683   25.6443 C   0  0  0  0  0  0  0  0  0  0  0  0
   12.3528  -17.9669   25.2466 C   0  0  0  0  0  0  0  0  0  0  0  0
   12.4224  -19.0959   25.8272 O   0  0  0  0  0  0  0  0  0  0  0  0
    9.5732  -17.4254   27.1249 C   0  0  0  0  0  0  0  0  0  0  0  0
   10.1637  -18.2128   28.1024 O   0  0  0  0  0  0  0  0  0  0  0  0
   13.1920  -17.7599   24.1334 O   0  0  0  0  0  0  0  0  0  0  0  0
    8.5892  -16.7396   27.4997 O   0  0  0  0  0  0  0  0  0  0  0  0
  2  1  1  6
  3  2  1  0
  4  3  1  0
  5  6  2  0
  5  2  1  0
  8  7  1  0
  8  9  1  0
  9 11  1  0
  9 10  1  1
 11 12  1  6
 11 13  1  0
 12  5  1  0
 13 15  1  0
 14 13  2  0
 15 16  1  0
 16 20  1  0
 17 18  1  0
 16 17  1  1
 18 22  1  0
 19 18  2  0
 20 23  2  0
 20 21  1  0
M  END
$$$$
