CID.pdb
     RDKit          3D

 23 22  0  0  1  0  0  0  0  0999 V2000
    7.7518  -14.1572   20.1213 N   0  0  0  0  0  0  0  0  0  0  0  0
    7.2239  -14.9703   21.2050 C   0  0  1  0  0  0  0  0  0  0  0  0
    7.2253  -16.4353   20.8606 C   0  0  0  0  0  0  0  0  0  0  0  0
    5.4791  -16.9299   20.6220 S   0  0  0  0  0  0  0  0  0  0  0  0
    7.9945  -14.6629   22.4261 C   0  0  0  0  0  0  0  0  0  0  0  0
    9.2522  -14.5491   22.4094 O   0  0  0  0  0  0  0  0  0  0  0  0
    5.7480  -11.6979   26.3686 C   0  0  0  0  0  0  0  0  0  0  0  0
    6.8080  -12.1715   25.3551 C   0  0  0  0  0  0  0  0  0  0  0  0
    7.2957  -13.4902   25.8623 C   0  0  2  0  0  0  0  0  0  0  0  0
    7.9914  -13.2098   27.1951 C   0  0  0  0  0  0  0  0  0  0  0  0
    8.1779  -14.2586   24.9128 C   0  0  2  0  0  0  0  0  0  0  0  0
    7.3693  -14.4757   23.6978 N   0  0  0  0  0  0  0  0  0  0  0  0
    8.6500  -15.5554   25.4105 C   0  0  0  0  0  0  0  0  0  0  0  0
    7.8532  -16.5241   25.4838 O   0  0  0  0  0  0  0  0  0  0  0  0
    9.9821  -15.8023   25.8229 N   0  0  0  0  0  0  0  0  0  0  0  0
   10.4480  -17.1381   26.1742 C   0  0  1  0  0  0  0  0  0  0  0  0
   11.6641  -17.4487   25.3216 C   0  0  0  0  0  0  0  0  0  0  0  0
   12.2153  -18.7475   25.7122 C   0  0  0  0  0  0  0  0  0  0  0  0
   11.5321  -19.7391   26.1205 O   0  0  0  0  0  0  0  0  0  0  0  0
   10.7863  -17.1596   27.6125 C   0  0  0  0  0  0  0  0  0  0  0  0
   10.9441  -18.3255   28.3475 O   0  0  0  0  0  0  0  0  0  0  0  0
   13.6122  -18.9151   25.6306 O   0  0  0  0  0  0  0  0  0  0  0  0
   10.9492  -16.0887   28.2495 O   0  0  0  0  0  0  0  0  0  0  0  0
  2  1  1  6
  3  2  1  0
  4  3  1  0
  5  6  2  0
  5  2  1  0
  8  7  1  0
  8  9  1  0
  9 11  1  0
  9 10  1  1
 11 12  1  6
 11 13  1  0
 12  5  1  0
 13 15  1  0
 14 13  2  0
 15 16  1  0
 16 20  1  0
 17 18  1  0
 16 17  1  6
 18 22  1  0
 19 18  2  0
 20 23  2  0
 20 21  1  0
M  END
$$$$
