CID.pdb
     RDKit          3D

 23 22  0  0  1  0  0  0  0  0999 V2000
    7.6968  -15.3893   20.6036 N   0  0  0  0  0  0  0  0  0  0  0  0
    7.0672  -15.8155   21.8431 C   0  0  1  0  0  0  0  0  0  0  0  0
    6.7963  -17.2959   21.8559 C   0  0  0  0  0  0  0  0  0  0  0  0
    5.2465  -17.5637   20.9195 S   0  0  0  0  0  0  0  0  0  0  0  0
    7.9186  -15.3740   22.9653 C   0  0  0  0  0  0  0  0  0  0  0  0
    9.1746  -15.2961   22.8583 O   0  0  0  0  0  0  0  0  0  0  0  0
    6.0346  -11.7603   26.4360 C   0  0  0  0  0  0  0  0  0  0  0  0
    7.0911  -12.4158   25.5255 C   0  0  0  0  0  0  0  0  0  0  0  0
    7.4888  -13.6834   26.2104 C   0  0  2  0  0  0  0  0  0  0  0  0
    8.2584  -13.2725   27.4665 C   0  0  0  0  0  0  0  0  0  0  0  0
    8.2658  -14.6568   25.3623 C   0  0  2  0  0  0  0  0  0  0  0  0
    7.3784  -15.0085   24.2372 N   0  0  0  0  0  0  0  0  0  0  0  0
    8.6812  -15.8867   26.0457 C   0  0  0  0  0  0  0  0  0  0  0  0
    7.8192  -16.7384   26.3779 O   0  0  0  0  0  0  0  0  0  0  0  0
   10.0265  -16.1941   26.3639 N   0  0  0  0  0  0  0  0  0  0  0  0
   10.4176  -17.4927   26.8982 C   0  0  1  0  0  0  0  0  0  0  0  0
   11.6263  -17.9750   26.1179 C   0  0  0  0  0  0  0  0  0  0  0  0
   12.0578  -19.2730   26.6395 C   0  0  0  0  0  0  0  0  0  0  0  0
   13.1197  -19.8826   26.2970 O   0  0  0  0  0  0  0  0  0  0  0  0
   10.7364  -17.3389   28.3329 C   0  0  0  0  0  0  0  0  0  0  0  0
   11.1107  -16.1354   28.9123 O   0  0  0  0  0  0  0  0  0  0  0  0
   11.2338  -19.8987   27.5964 O   0  0  0  0  0  0  0  0  0  0  0  0
   10.6806  -18.3235   29.1118 O   0  0  0  0  0  0  0  0  0  0  0  0
  2  1  1  6
  3  2  1  0
  4  3  1  0
  5  6  2  0
  5  2  1  0
  8  7  1  0
  8  9  1  0
  9 11  1  0
  9 10  1  1
 11 12  1  6
 11 13  1  0
 12  5  1  0
 13 15  1  0
 14 13  2  0
 15 16  1  0
 16 20  1  0
 17 18  1  0
 16 17  1  6
 18 22  1  0
 19 18  2  0
 20 23  2  0
 20 21  1  0
M  END
$$$$
