CID.pdb
     RDKit          3D

 23 22  0  0  1  0  0  0  0  0999 V2000
    7.9344  -14.5172   20.4040 N   0  0  0  0  0  0  0  0  0  0  0  0
    7.3396  -15.2721   21.4950 C   0  0  1  0  0  0  0  0  0  0  0  0
    7.2278  -16.7372   21.1695 C   0  0  0  0  0  0  0  0  0  0  0  0
    6.2929  -17.5185   22.5355 S   0  0  0  0  0  0  0  0  0  0  0  0
    8.1263  -15.0099   22.7164 C   0  0  0  0  0  0  0  0  0  0  0  0
    9.3814  -14.8729   22.6840 O   0  0  0  0  0  0  0  0  0  0  0  0
    5.9038  -11.9129   26.4816 C   0  0  0  0  0  0  0  0  0  0  0  0
    6.9199  -12.4816   25.4722 C   0  0  0  0  0  0  0  0  0  0  0  0
    7.4416  -13.7410   26.0853 C   0  0  2  0  0  0  0  0  0  0  0  0
    8.1440  -13.3319   27.3808 C   0  0  0  0  0  0  0  0  0  0  0  0
    8.3312  -14.5697   25.1953 C   0  0  2  0  0  0  0  0  0  0  0  0
    7.5206  -14.8950   24.0060 N   0  0  0  0  0  0  0  0  0  0  0  0
    8.8249  -15.8155   25.7922 C   0  0  0  0  0  0  0  0  0  0  0  0
    8.0101  -16.6516   26.2567 O   0  0  0  0  0  0  0  0  0  0  0  0
   10.1968  -16.1558   25.8812 N   0  0  0  0  0  0  0  0  0  0  0  0
   10.6501  -17.3757   26.5380 C   0  0  1  0  0  0  0  0  0  0  0  0
   12.1043  -17.5953   26.1647 C   0  0  0  0  0  0  0  0  0  0  0  0
   12.2031  -17.8768   24.7314 C   0  0  0  0  0  0  0  0  0  0  0  0
   11.2164  -17.9766   23.9358 O   0  0  0  0  0  0  0  0  0  0  0  0
   10.4934  -17.2146   27.9985 C   0  0  0  0  0  0  0  0  0  0  0  0
   10.2785  -15.9922   28.6182 O   0  0  0  0  0  0  0  0  0  0  0  0
   13.4916  -18.0513   24.1877 O   0  0  0  0  0  0  0  0  0  0  0  0
   10.5512  -18.2097   28.7637 O   0  0  0  0  0  0  0  0  0  0  0  0
  2  1  1  6
  3  2  1  0
  4  3  1  0
  5  6  2  0
  5  2  1  0
  8  7  1  0
  8  9  1  0
  9 11  1  0
  9 10  1  1
 11 12  1  6
 11 13  1  0
 12  5  1  0
 13 15  1  0
 14 13  2  0
 15 16  1  0
 16 20  1  0
 17 18  1  0
 16 17  1  1
 18 22  1  0
 19 18  2  0
 20 23  2  0
 20 21  1  0
M  END
$$$$
