CID.pdb
     RDKit          3D

 23 22  0  0  1  0  0  0  0  0999 V2000
    4.3494  -18.4081   22.9961 N   0  0  0  0  0  0  0  0  0  0  0  0
    5.2782  -18.3670   24.1141 C   0  0  1  0  0  0  0  0  0  0  0  0
    5.9921  -19.6787   24.3001 C   0  0  0  0  0  0  0  0  0  0  0  0
    6.8663  -19.5884   25.9058 S   0  0  0  0  0  0  0  0  0  0  0  0
    6.1990  -17.2325   23.9037 C   0  0  0  0  0  0  0  0  0  0  0  0
    6.7113  -16.9905   22.7749 O   0  0  0  0  0  0  0  0  0  0  0  0
    5.9187  -12.6217   26.8194 C   0  0  0  0  0  0  0  0  0  0  0  0
    6.0739  -13.5253   25.5807 C   0  0  0  0  0  0  0  0  0  0  0  0
    7.3678  -14.2505   25.7653 C   0  0  2  0  0  0  0  0  0  0  0  0
    8.4644  -13.1845   25.7631 C   0  0  0  0  0  0  0  0  0  0  0  0
    7.6398  -15.3459   24.7671 C   0  0  2  0  0  0  0  0  0  0  0  0
    6.5672  -16.3408   24.9585 N   0  0  0  0  0  0  0  0  0  0  0  0
    8.9395  -16.0113   24.9094 C   0  0  0  0  0  0  0  0  0  0  0  0
    9.1304  -16.8130   25.8579 O   0  0  0  0  0  0  0  0  0  0  0  0
   10.0268  -15.8118   24.0242 N   0  0  0  0  0  0  0  0  0  0  0  0
   11.2861  -16.5311   24.1714 C   0  0  1  0  0  0  0  0  0  0  0  0
   12.1332  -16.2470   22.9450 C   0  0  0  0  0  0  0  0  0  0  0  0
   11.4872  -16.8190   21.7623 C   0  0  0  0  0  0  0  0  0  0  0  0
   10.7229  -17.8351   21.7658 O   0  0  0  0  0  0  0  0  0  0  0  0
   11.9576  -16.0650   25.4024 C   0  0  0  0  0  0  0  0  0  0  0  0
   12.9978  -16.7477   26.0159 O   0  0  0  0  0  0  0  0  0  0  0  0
   11.7293  -16.1968   20.5211 O   0  0  0  0  0  0  0  0  0  0  0  0
   11.6022  -14.9977   25.9624 O   0  0  0  0  0  0  0  0  0  0  0  0
  2  1  1  6
  3  2  1  0
  4  3  1  0
  5  6  2  0
  5  2  1  0
  8  7  1  0
  8  9  1  0
  9 11  1  0
  9 10  1  6
 11 12  1  1
 11 13  1  0
 12  5  1  0
 13 15  1  0
 14 13  2  0
 15 16  1  0
 16 20  1  0
 17 18  1  0
 16 17  1  6
 18 22  1  0
 19 18  2  0
 20 23  2  0
 20 21  1  0
M  END
$$$$
