CID.pdb
     RDKit          3D

 23 22  0  0  1  0  0  0  0  0999 V2000
    6.8846  -16.3946   22.1675 N   0  0  0  0  0  0  0  0  0  0  0  0
    8.0397  -15.6025   21.7767 C   0  0  1  0  0  0  0  0  0  0  0  0
    7.6788  -14.5384   20.7755 C   0  0  0  0  0  0  0  0  0  0  0  0
    7.9289  -15.2621   19.1129 S   0  0  0  0  0  0  0  0  0  0  0  0
    8.6577  -15.0578   23.0017 C   0  0  0  0  0  0  0  0  0  0  0  0
    9.8066  -14.5334   22.9920 O   0  0  0  0  0  0  0  0  0  0  0  0
    5.7061  -12.2479   26.1647 C   0  0  0  0  0  0  0  0  0  0  0  0
    6.9249  -12.7144   25.3449 C   0  0  0  0  0  0  0  0  0  0  0  0
    7.6165  -13.7357   26.1890 C   0  0  2  0  0  0  0  0  0  0  0  0
    8.1964  -12.9841   27.3882 C   0  0  0  0  0  0  0  0  0  0  0  0
    8.6589  -14.5593   25.4781 C   0  0  2  0  0  0  0  0  0  0  0  0
    7.9985  -15.0891   24.2697 N   0  0  0  0  0  0  0  0  0  0  0  0
    9.2055  -15.6785   26.2533 C   0  0  0  0  0  0  0  0  0  0  0  0
    8.4468  -16.6055   26.6323 O   0  0  0  0  0  0  0  0  0  0  0  0
   10.5705  -15.7945   26.6124 N   0  0  0  0  0  0  0  0  0  0  0  0
   11.0866  -16.9563   27.3256 C   0  0  1  0  0  0  0  0  0  0  0  0
   12.5826  -17.0280   27.0825 C   0  0  0  0  0  0  0  0  0  0  0  0
   12.8336  -17.5084   25.7225 C   0  0  0  0  0  0  0  0  0  0  0  0
   11.9591  -18.0204   24.9546 O   0  0  0  0  0  0  0  0  0  0  0  0
   10.7875  -16.8013   28.7644 C   0  0  0  0  0  0  0  0  0  0  0  0
   10.6433  -17.8685   29.6388 O   0  0  0  0  0  0  0  0  0  0  0  0
   14.1463  -17.3957   25.2222 O   0  0  0  0  0  0  0  0  0  0  0  0
   10.6462  -15.6600   29.2711 O   0  0  0  0  0  0  0  0  0  0  0  0
  2  1  1  1
  3  2  1  0
  4  3  1  0
  5  6  2  0
  5  2  1  0
  8  7  1  0
  8  9  1  0
  9 11  1  0
  9 10  1  1
 11 12  1  6
 11 13  1  0
 12  5  1  0
 13 15  1  0
 14 13  2  0
 15 16  1  0
 16 20  1  0
 17 18  1  0
 16 17  1  1
 18 22  1  0
 19 18  2  0
 20 23  2  0
 20 21  1  0
M  END
$$$$
