CID.pdb
     RDKit          3D

 23 22  0  0  1  0  0  0  0  0999 V2000
    4.8083  -19.1120   23.9810 N   0  0  0  0  0  0  0  0  0  0  0  0
    5.6009  -18.5839   25.0797 C   0  0  1  0  0  0  0  0  0  0  0  0
    6.4380  -19.6507   25.7325 C   0  0  0  0  0  0  0  0  0  0  0  0
    7.1831  -18.9044   27.2287 S   0  0  0  0  0  0  0  0  0  0  0  0
    6.4013  -17.4547   24.5662 C   0  0  0  0  0  0  0  0  0  0  0  0
    6.9186  -17.4740   23.4143 O   0  0  0  0  0  0  0  0  0  0  0  0
    5.7388  -12.4699   26.6836 C   0  0  0  0  0  0  0  0  0  0  0  0
    5.9507  -13.4338   25.5000 C   0  0  0  0  0  0  0  0  0  0  0  0
    7.3125  -14.0196   25.6907 C   0  0  2  0  0  0  0  0  0  0  0  0
    8.3098  -12.8956   25.4060 C   0  0  0  0  0  0  0  0  0  0  0  0
    7.6019  -15.2541   24.8767 C   0  0  2  0  0  0  0  0  0  0  0  0
    6.6401  -16.2743   25.3362 N   0  0  0  0  0  0  0  0  0  0  0  0
    8.9627  -15.7855   25.0112 C   0  0  0  0  0  0  0  0  0  0  0  0
    9.3098  -16.3513   26.0781 O   0  0  0  0  0  0  0  0  0  0  0  0
    9.9422  -15.7078   23.9913 N   0  0  0  0  0  0  0  0  0  0  0  0
   11.0658  -16.6342   23.9258 C   0  0  1  0  0  0  0  0  0  0  0  0
   10.8438  -17.5557   22.7409 C   0  0  0  0  0  0  0  0  0  0  0  0
   12.0249  -18.3997   22.5511 C   0  0  0  0  0  0  0  0  0  0  0  0
   13.0739  -18.0583   21.9188 O   0  0  0  0  0  0  0  0  0  0  0  0
   12.3129  -15.8571   23.7700 C   0  0  0  0  0  0  0  0  0  0  0  0
   13.5458  -16.2790   24.2457 O   0  0  0  0  0  0  0  0  0  0  0  0
   12.0004  -19.6924   23.1118 O   0  0  0  0  0  0  0  0  0  0  0  0
   12.3078  -14.7464   23.1823 O   0  0  0  0  0  0  0  0  0  0  0  0
  2  1  1  6
  3  2  1  0
  4  3  1  0
  5  6  2  0
  5  2  1  0
  8  7  1  0
  8  9  1  0
  9 11  1  0
  9 10  1  6
 11 12  1  1
 11 13  1  0
 12  5  1  0
 13 15  1  0
 14 13  2  0
 15 16  1  0
 16 20  1  0
 17 18  1  0
 16 17  1  6
 18 22  1  0
 19 18  2  0
 20 23  2  0
 20 21  1  0
M  END
$$$$
