CID.pdb
     RDKit          3D

 23 22  0  0  1  0  0  0  0  0999 V2000
    7.4271  -14.1679   20.1630 N   0  0  0  0  0  0  0  0  0  0  0  0
    6.9300  -14.9275   21.2988 C   0  0  1  0  0  0  0  0  0  0  0  0
    6.8533  -16.4005   20.9997 C   0  0  0  0  0  0  0  0  0  0  0  0
    6.0930  -17.2032   22.4586 S   0  0  0  0  0  0  0  0  0  0  0  0
    7.7807  -14.6181   22.4649 C   0  0  0  0  0  0  0  0  0  0  0  0
    9.0220  -14.4159   22.3494 O   0  0  0  0  0  0  0  0  0  0  0  0
    6.0127  -11.6042   26.5817 C   0  0  0  0  0  0  0  0  0  0  0  0
    6.9323  -12.1590   25.4765 C   0  0  0  0  0  0  0  0  0  0  0  0
    7.3563  -13.5146   25.9420 C   0  0  2  0  0  0  0  0  0  0  0  0
    8.1194  -13.3028   27.2504 C   0  0  0  0  0  0  0  0  0  0  0  0
    8.1514  -14.3178   24.9455 C   0  0  2  0  0  0  0  0  0  0  0  0
    7.2562  -14.5282   23.7916 N   0  0  0  0  0  0  0  0  0  0  0  0
    8.6230  -15.6205   25.4281 C   0  0  0  0  0  0  0  0  0  0  0  0
    7.7942  -16.5306   25.6804 O   0  0  0  0  0  0  0  0  0  0  0  0
    9.9882  -15.9369   25.6321 N   0  0  0  0  0  0  0  0  0  0  0  0
   10.4197  -17.2625   26.0580 C   0  0  1  0  0  0  0  0  0  0  0  0
   11.8615  -17.4474   25.6230 C   0  0  0  0  0  0  0  0  0  0  0  0
   11.9540  -17.3095   24.1684 C   0  0  0  0  0  0  0  0  0  0  0  0
   11.2132  -17.9109   23.3281 O   0  0  0  0  0  0  0  0  0  0  0  0
   10.2906  -17.3542   27.5272 C   0  0  0  0  0  0  0  0  0  0  0  0
   10.3217  -18.5509   28.2282 O   0  0  0  0  0  0  0  0  0  0  0  0
   12.9403  -16.4428   23.6562 O   0  0  0  0  0  0  0  0  0  0  0  0
   10.1417  -16.3192   28.2241 O   0  0  0  0  0  0  0  0  0  0  0  0
  2  1  1  6
  3  2  1  0
  4  3  1  0
  5  6  2  0
  5  2  1  0
  8  7  1  0
  8  9  1  0
  9 11  1  0
  9 10  1  1
 11 12  1  6
 11 13  1  0
 12  5  1  0
 13 15  1  0
 14 13  2  0
 15 16  1  0
 16 20  1  0
 17 18  1  0
 16 17  1  1
 18 22  1  0
 19 18  2  0
 20 23  2  0
 20 21  1  0
M  END
$$$$
