NWM.pdb
     RDKit          3D

 31 32  0  0  1  0  0  0  0  0999 V2000
   14.9175  -21.6739    1.2422 N   0  0  0  0  0  0  0  0  0  0  0  0
   14.7337  -20.7326    2.2990 C   0  0  0  0  0  0  0  0  0  0  0  0
   13.5644  -20.5297    2.6676 O   0  0  0  0  0  0  0  0  0  0  0  0
   15.9082  -20.0742    2.8762 C   0  0  0  0  0  0  0  0  0  0  0  0
   15.6014  -18.7597    3.5668 C   0  0  2  0  0  0  0  0  0  0  0  0
   15.2176  -17.7991    2.5033 N   0  0  0  0  0  0  0  0  0  0  0  0
   16.7549  -18.1699    4.2751 C   0  0  0  0  0  0  0  0  0  0  0  0
   17.9111  -18.2846    3.7766 O   0  0  0  0  0  0  0  0  0  0  0  0
   16.6198  -17.4702    5.4984 N   0  0  0  0  0  0  0  0  0  0  0  0
   17.7420  -16.9228    6.2313 C   0  0  1  0  0  0  0  0  0  0  0  0
   17.4092  -15.6023    6.8546 C   0  0  0  0  0  0  0  0  0  0  0  0
   18.0026  -14.4258    6.2014 C   0  0  0  0  0  0  0  0  0  0  0  0
   17.3575  -13.7098    5.1659 C   0  0  0  0  0  0  0  0  0  0  0  0
   18.1161  -12.6729    4.7863 N   0  0  0  0  0  0  0  0  0  0  0  0
   19.2290  -12.6622    5.5115 C   0  0  0  0  0  0  0  0  0  0  0  0
   20.3125  -11.7965    5.4773 C   0  0  0  0  0  0  0  0  0  0  0  0
   21.3428  -12.0540    6.3602 C   0  0  0  0  0  0  0  0  0  0  0  0
   21.3078  -13.1111    7.2325 C   0  0  0  0  0  0  0  0  0  0  0  0
   20.2112  -13.9478    7.2339 C   0  0  0  0  0  0  0  0  0  0  0  0
   19.1691  -13.7413    6.3885 C   0  0  0  0  0  0  0  0  0  0  0  0
   18.2655  -17.8660    7.1997 C   0  0  0  0  0  0  0  0  0  0  0  0
   17.5540  -18.5180    7.9878 O   0  0  0  0  0  0  0  0  0  0  0  0
   19.8230  -23.1421    4.5387 C   0  0  0  0  0  0  0  0  0  0  0  0
   20.9360  -22.1459    5.5545 S   0  0  0  0  0  0  0  0  0  0  0  0
   20.0523  -20.9764    6.5915 C   0  0  0  0  0  0  0  0  0  0  0  0
   21.0053  -20.1023    7.3738 C   0  0  0  0  0  0  0  0  0  0  0  0
   20.2229  -19.0841    8.2223 C   0  0  2  0  0  0  0  0  0  0  0  0
   19.6815  -18.1119    7.2966 N   0  0  0  0  0  0  0  0  0  0  0  0
   21.1383  -18.5041    9.2201 C   0  0  0  0  0  0  0  0  0  0  0  0
   21.6564  -17.3839    8.9991 O   0  0  0  0  0  0  0  0  0  0  0  0
   21.4209  -19.1889   10.3905 O   0  0  0  0  0  0  0  0  0  0  0  0
  2  3  2  0
  2  1  1  0
  4  2  1  0
  5  4  1  0
  5  6  1  6
  7  5  1  0
  7  8  2  0
  9  7  1  0
 10  9  1  0
 10 11  1  1
 11 12  1  0
 12 13  2  0
 12 20  1  0
 13 14  1  0
 14 15  1  0
 15 16  2  0
 16 17  1  0
 18 17  2  0
 19 18  1  0
 20 19  2  0
 20 15  1  0
 21 10  1  0
 22 21  2  0
 23 24  1  0
 25 24  1  0
 25 26  1  0
 27 26  1  6
 27 28  1  0
 28 21  1  0
 29 27  1  0
 30 29  2  0
 31 29  1  0
M  END
$$$$
