NWM.pdb
     RDKit          3D

 31 32  0  0  1  0  0  0  0  0999 V2000
   29.0903  -20.3030  -16.9990 N   0  0  0  0  0  0  0  0  0  0  0  0
   28.1280  -19.2813  -16.7408 C   0  0  0  0  0  0  0  0  0  0  0  0
   27.9859  -18.4145  -17.6199 O   0  0  0  0  0  0  0  0  0  0  0  0
   27.3794  -19.3121  -15.4820 C   0  0  0  0  0  0  0  0  0  0  0  0
   27.8311  -20.3953  -14.5219 C   0  0  2  0  0  0  0  0  0  0  0  0
   28.3087  -21.5284  -15.3519 N   0  0  0  0  0  0  0  0  0  0  0  0
   26.7530  -20.9237  -13.6625 C   0  0  0  0  0  0  0  0  0  0  0  0
   26.0923  -21.9304  -14.0479 O   0  0  0  0  0  0  0  0  0  0  0  0
   26.4274  -20.3486  -12.4104 N   0  0  0  0  0  0  0  0  0  0  0  0
   25.3833  -20.8589  -11.5468 C   0  0  1  0  0  0  0  0  0  0  0  0
   25.5572  -20.3997  -10.1319 C   0  0  0  0  0  0  0  0  0  0  0  0
   26.8617  -20.7013   -9.5235 C   0  0  0  0  0  0  0  0  0  0  0  0
   27.8004  -21.5843  -10.1070 C   0  0  0  0  0  0  0  0  0  0  0  0
   28.9049  -21.6413   -9.3511 N   0  0  0  0  0  0  0  0  0  0  0  0
   28.7506  -20.8462   -8.2982 C   0  0  0  0  0  0  0  0  0  0  0  0
   29.6087  -20.5833   -7.2403 C   0  0  0  0  0  0  0  0  0  0  0  0
   29.1553  -19.7068   -6.2743 C   0  0  0  0  0  0  0  0  0  0  0  0
   27.9188  -19.1189   -6.3464 C   0  0  0  0  0  0  0  0  0  0  0  0
   27.0966  -19.4075   -7.4156 C   0  0  0  0  0  0  0  0  0  0  0  0
   27.4914  -20.2611   -8.3948 C   0  0  0  0  0  0  0  0  0  0  0  0
   24.0621  -20.5546  -12.0599 C   0  0  0  0  0  0  0  0  0  0  0  0
   23.7138  -19.4249  -12.4533 O   0  0  0  0  0  0  0  0  0  0  0  0
   17.2589  -23.7883  -14.6471 C   0  0  0  0  0  0  0  0  0  0  0  0
   18.9667  -23.9873  -14.0934 S   0  0  0  0  0  0  0  0  0  0  0  0
   19.6945  -22.4379  -13.5513 C   0  0  0  0  0  0  0  0  0  0  0  0
   21.1234  -22.6282  -13.0969 C   0  0  0  0  0  0  0  0  0  0  0  0
   21.7156  -21.2900  -12.6201 C   0  0  2  0  0  0  0  0  0  0  0  0
   23.0544  -21.5797  -12.1525 N   0  0  0  0  0  0  0  0  0  0  0  0
   20.8342  -20.7317  -11.5801 C   0  0  0  0  0  0  0  0  0  0  0  0
   20.9299  -21.1543  -10.4036 O   0  0  0  0  0  0  0  0  0  0  0  0
   19.9119  -19.7488  -11.8996 O   0  0  0  0  0  0  0  0  0  0  0  0
  2  3  2  0
  2  1  1  0
  4  2  1  0
  5  4  1  0
  5  6  1  6
  7  5  1  0
  7  8  2  0
  9  7  1  0
 10  9  1  0
 10 11  1  1
 11 12  1  0
 12 13  2  0
 12 20  1  0
 13 14  1  0
 14 15  1  0
 15 16  2  0
 16 17  1  0
 18 17  2  0
 19 18  1  0
 20 19  2  0
 20 15  1  0
 21 10  1  0
 22 21  2  0
 23 24  1  0
 25 24  1  0
 25 26  1  0
 27 26  1  1
 27 28  1  0
 28 21  1  0
 29 27  1  0
 30 29  2  0
 31 29  1  0
M  END
$$$$
