NWM.pdb
     RDKit          3D

 31 32  0  0  1  0  0  0  0  0999 V2000
   24.8400  -23.8976  -20.1096 N   0  0  0  0  0  0  0  0  0  0  0  0
   25.4364  -23.1621  -19.0420 C   0  0  0  0  0  0  0  0  0  0  0  0
   26.3970  -22.4310  -19.3372 O   0  0  0  0  0  0  0  0  0  0  0  0
   24.8940  -23.3077  -17.6890 C   0  0  0  0  0  0  0  0  0  0  0  0
   25.9266  -23.6956  -16.6487 C   0  0  2  0  0  0  0  0  0  0  0  0
   26.0605  -25.1718  -16.7110 N   0  0  0  0  0  0  0  0  0  0  0  0
   25.5380  -23.3629  -15.2636 C   0  0  0  0  0  0  0  0  0  0  0  0
   24.8748  -24.2016  -14.5890 O   0  0  0  0  0  0  0  0  0  0  0  0
   25.8839  -22.1344  -14.6508 N   0  0  0  0  0  0  0  0  0  0  0  0
   25.4889  -21.7767  -13.3045 C   0  0  1  0  0  0  0  0  0  0  0  0
   26.4081  -20.7562  -12.7072 C   0  0  0  0  0  0  0  0  0  0  0  0
   26.2729  -20.5534  -11.2569 C   0  0  0  0  0  0  0  0  0  0  0  0
   25.1122  -20.0101  -10.6578 C   0  0  0  0  0  0  0  0  0  0  0  0
   25.2605  -19.9715   -9.3270 N   0  0  0  0  0  0  0  0  0  0  0  0
   26.4554  -20.4579   -9.0101 C   0  0  0  0  0  0  0  0  0  0  0  0
   27.0607  -20.6112   -7.7714 C   0  0  0  0  0  0  0  0  0  0  0  0
   28.3350  -21.1435   -7.7631 C   0  0  0  0  0  0  0  0  0  0  0  0
   28.9806  -21.5062   -8.9168 C   0  0  0  0  0  0  0  0  0  0  0  0
   28.3426  -21.3372  -10.1280 C   0  0  0  0  0  0  0  0  0  0  0  0
   27.0892  -20.8197  -10.1953 C   0  0  0  0  0  0  0  0  0  0  0  0
   24.1009  -21.3631  -13.2416 C   0  0  0  0  0  0  0  0  0  0  0  0
   23.5800  -20.5585  -14.0375 O   0  0  0  0  0  0  0  0  0  0  0  0
   19.7896  -24.5686   -9.3828 C   0  0  0  0  0  0  0  0  0  0  0  0
   18.9838  -22.9616   -9.5593 S   0  0  0  0  0  0  0  0  0  0  0  0
   19.7585  -21.9430  -10.8188 C   0  0  0  0  0  0  0  0  0  0  0  0
   21.2283  -22.2647  -10.9620 C   0  0  0  0  0  0  0  0  0  0  0  0
   21.8183  -21.5374  -12.1834 C   0  0  2  0  0  0  0  0  0  0  0  0
   23.2224  -21.8862  -12.2270 N   0  0  0  0  0  0  0  0  0  0  0  0
   21.5725  -20.0929  -12.0322 C   0  0  0  0  0  0  0  0  0  0  0  0
   22.4097  -19.3893  -11.4190 O   0  0  0  0  0  0  0  0  0  0  0  0
   20.4297  -19.5190  -12.5645 O   0  0  0  0  0  0  0  0  0  0  0  0
  2  3  2  0
  2  1  1  0
  4  2  1  0
  5  4  1  0
  5  6  1  1
  7  5  1  0
  7  8  2  0
  9  7  1  0
 10  9  1  0
 10 11  1  6
 11 12  1  0
 12 13  2  0
 12 20  1  0
 13 14  1  0
 14 15  1  0
 15 16  2  0
 16 17  1  0
 18 17  2  0
 19 18  1  0
 20 19  2  0
 20 15  1  0
 21 10  1  0
 22 21  2  0
 23 24  1  0
 25 24  1  0
 25 26  1  0
 27 26  1  1
 27 28  1  0
 28 21  1  0
 29 27  1  0
 30 29  2  0
 31 29  1  0
M  END
$$$$
