NWM.pdb
     RDKit          3D

 31 32  0  0  1  0  0  0  0  0999 V2000
   21.4214  -15.8008  -16.7827 N   0  0  0  0  0  0  0  0  0  0  0  0
   20.3471  -15.3753  -15.9451 C   0  0  0  0  0  0  0  0  0  0  0  0
   19.3608  -16.1283  -15.8780 O   0  0  0  0  0  0  0  0  0  0  0  0
   20.4661  -14.1035  -15.2282 C   0  0  0  0  0  0  0  0  0  0  0  0
   21.7719  -13.3742  -15.4779 C   0  0  2  0  0  0  0  0  0  0  0  0
   22.8426  -14.1932  -14.8582 N   0  0  0  0  0  0  0  0  0  0  0  0
   21.8431  -12.0388  -14.8519 C   0  0  0  0  0  0  0  0  0  0  0  0
   21.8478  -11.9464  -13.5910 O   0  0  0  0  0  0  0  0  0  0  0  0
   21.9121  -10.8457  -15.6108 N   0  0  0  0  0  0  0  0  0  0  0  0
   21.9126   -9.5241  -15.0192 C   0  0  1  0  0  0  0  0  0  0  0  0
   23.0900   -8.7141  -15.4671 C   0  0  0  0  0  0  0  0  0  0  0  0
   24.4028   -9.3531  -15.2908 C   0  0  0  0  0  0  0  0  0  0  0  0
   24.7931   -9.9986  -14.0941 C   0  0  0  0  0  0  0  0  0  0  0  0
   26.0224  -10.5128  -14.2325 N   0  0  0  0  0  0  0  0  0  0  0  0
   26.4696  -10.2432  -15.4539 C   0  0  0  0  0  0  0  0  0  0  0  0
   27.6800  -10.5571  -16.0546 C   0  0  0  0  0  0  0  0  0  0  0  0
   27.8616  -10.1224  -17.3528 C   0  0  0  0  0  0  0  0  0  0  0  0
   26.8996   -9.4139  -18.0253 C   0  0  0  0  0  0  0  0  0  0  0  0
   25.7099   -9.1230  -17.3911 C   0  0  0  0  0  0  0  0  0  0  0  0
   25.4768   -9.5265  -16.1158 C   0  0  0  0  0  0  0  0  0  0  0  0
   20.6584   -8.8325  -15.2431 C   0  0  0  0  0  0  0  0  0  0  0  0
   20.0553   -8.8249  -16.3333 O   0  0  0  0  0  0  0  0  0  0  0  0
   15.5147  -10.7158  -11.5223 C   0  0  0  0  0  0  0  0  0  0  0  0
   16.3150   -9.0977  -11.5867 S   0  0  0  0  0  0  0  0  0  0  0  0
   17.2477   -8.8562  -13.1020 C   0  0  0  0  0  0  0  0  0  0  0  0
   17.9630   -7.5248  -13.1038 C   0  0  0  0  0  0  0  0  0  0  0  0
   18.7927   -7.3653  -14.3902 C   0  0  2  0  0  0  0  0  0  0  0  0
   20.0203   -8.1022  -14.1780 N   0  0  0  0  0  0  0  0  0  0  0  0
   19.0013   -5.9283  -14.6380 C   0  0  0  0  0  0  0  0  0  0  0  0
   20.1007   -5.4070  -14.3353 O   0  0  0  0  0  0  0  0  0  0  0  0
   17.9936   -5.1629  -15.2016 O   0  0  0  0  0  0  0  0  0  0  0  0
  2  3  2  0
  2  1  1  0
  4  2  1  0
  5  4  1  0
  5  6  1  1
  7  5  1  0
  7  8  2  0
  9  7  1  0
 10  9  1  0
 10 11  1  6
 11 12  1  0
 12 13  2  0
 12 20  1  0
 13 14  1  0
 14 15  1  0
 15 16  2  0
 16 17  1  0
 18 17  2  0
 19 18  1  0
 20 19  2  0
 20 15  1  0
 21 10  1  0
 22 21  2  0
 23 24  1  0
 25 24  1  0
 25 26  1  0
 27 26  1  1
 27 28  1  0
 28 21  1  0
 29 27  1  0
 30 29  2  0
 31 29  1  0
M  END
$$$$
