NWM.pdb
     RDKit          3D

 31 32  0  0  1  0  0  0  0  0999 V2000
   15.0644  -22.9378   -0.7791 N   0  0  0  0  0  0  0  0  0  0  0  0
   14.8856  -22.5162    0.5725 C   0  0  0  0  0  0  0  0  0  0  0  0
   13.8474  -22.8938    1.1415 O   0  0  0  0  0  0  0  0  0  0  0  0
   15.9138  -21.6810    1.1981 C   0  0  0  0  0  0  0  0  0  0  0  0
   15.3842  -20.7521    2.2732 C   0  0  2  0  0  0  0  0  0  0  0  0
   14.7143  -19.6285    1.5733 N   0  0  0  0  0  0  0  0  0  0  0  0
   16.4345  -20.1567    3.1231 C   0  0  0  0  0  0  0  0  0  0  0  0
   17.6414  -20.4827    2.9342 O   0  0  0  0  0  0  0  0  0  0  0  0
   16.1458  -19.2232    4.1476 N   0  0  0  0  0  0  0  0  0  0  0  0
   17.1634  -18.6005    4.9679 C   0  0  1  0  0  0  0  0  0  0  0  0
   16.8162  -17.1832    5.3054 C   0  0  0  0  0  0  0  0  0  0  0  0
   17.4151  -16.1597    4.4356 C   0  0  0  0  0  0  0  0  0  0  0  0
   17.0965  -14.7846    4.5283 C   0  0  0  0  0  0  0  0  0  0  0  0
   17.8139  -14.0884    3.6365 N   0  0  0  0  0  0  0  0  0  0  0  0
   18.5896  -14.9254    2.9565 C   0  0  0  0  0  0  0  0  0  0  0  0
   19.4924  -14.6790    1.9325 C   0  0  0  0  0  0  0  0  0  0  0  0
   20.1516  -15.7731    1.4074 C   0  0  0  0  0  0  0  0  0  0  0  0
   19.9323  -17.0458    1.8677 C   0  0  0  0  0  0  0  0  0  0  0  0
   19.0260  -17.2469    2.8878 C   0  0  0  0  0  0  0  0  0  0  0  0
   18.3505  -16.2077    3.4420 C   0  0  0  0  0  0  0  0  0  0  0  0
   17.4581  -19.3857    6.1503 C   0  0  0  0  0  0  0  0  0  0  0  0
   16.6058  -20.0457    6.7751 O   0  0  0  0  0  0  0  0  0  0  0  0
   19.4158  -25.0785    7.4054 C   0  0  0  0  0  0  0  0  0  0  0  0
   20.7033  -24.0001    8.0705 S   0  0  0  0  0  0  0  0  0  0  0  0
   20.0593  -22.4062    8.5892 C   0  0  0  0  0  0  0  0  0  0  0  0
   19.7325  -21.5299    7.4020 C   0  0  0  0  0  0  0  0  0  0  0  0
   19.1099  -20.2031    7.8720 C   0  0  2  0  0  0  0  0  0  0  0  0
   18.7980  -19.4519    6.6747 N   0  0  0  0  0  0  0  0  0  0  0  0
   20.0681  -19.5253    8.7622 C   0  0  0  0  0  0  0  0  0  0  0  0
   20.8180  -18.6367    8.2932 O   0  0  0  0  0  0  0  0  0  0  0  0
   20.1371  -19.8654   10.1032 O   0  0  0  0  0  0  0  0  0  0  0  0
  2  3  2  0
  2  1  1  0
  4  2  1  0
  5  4  1  0
  5  6  1  6
  7  5  1  0
  7  8  2  0
  9  7  1  0
 10  9  1  0
 10 11  1  1
 11 12  1  0
 12 13  2  0
 12 20  1  0
 13 14  1  0
 14 15  1  0
 15 16  2  0
 16 17  1  0
 18 17  2  0
 19 18  1  0
 20 19  2  0
 20 15  1  0
 21 10  1  0
 22 21  2  0
 23 24  1  0
 25 24  1  0
 25 26  1  0
 27 26  1  6
 27 28  1  0
 28 21  1  0
 29 27  1  0
 30 29  2  0
 31 29  1  0
M  END
$$$$
