NWM.pdb
     RDKit          3D

 31 32  0  0  1  0  0  0  0  0999 V2000
   21.7202  -30.3929  -16.5359 N   0  0  0  0  0  0  0  0  0  0  0  0
   20.8482  -29.2687  -16.4244 C   0  0  0  0  0  0  0  0  0  0  0  0
   20.0689  -29.0717  -17.3721 O   0  0  0  0  0  0  0  0  0  0  0  0
   20.9200  -28.4301  -15.2255 C   0  0  0  0  0  0  0  0  0  0  0  0
   21.2484  -26.9769  -15.5077 C   0  0  2  0  0  0  0  0  0  0  0  0
   22.6746  -26.9335  -15.9140 N   0  0  0  0  0  0  0  0  0  0  0  0
   21.1145  -26.0920  -14.3334 C   0  0  0  0  0  0  0  0  0  0  0  0
   21.8711  -26.2693  -13.3361 O   0  0  0  0  0  0  0  0  0  0  0  0
   20.1691  -25.0396  -14.2777 N   0  0  0  0  0  0  0  0  0  0  0  0
   20.0693  -24.1163  -13.1670 C   0  0  1  0  0  0  0  0  0  0  0  0
   19.9389  -22.6985  -13.6315 C   0  0  0  0  0  0  0  0  0  0  0  0
   20.7117  -21.7076  -12.8673 C   0  0  0  0  0  0  0  0  0  0  0  0
   22.1103  -21.5460  -13.0048 C   0  0  0  0  0  0  0  0  0  0  0  0
   22.5356  -20.5538  -12.2114 N   0  0  0  0  0  0  0  0  0  0  0  0
   21.4971  -20.0494  -11.5544 C   0  0  0  0  0  0  0  0  0  0  0  0
   21.4390  -19.0246  -10.6212 C   0  0  0  0  0  0  0  0  0  0  0  0
   20.1961  -18.7312  -10.0956 C   0  0  0  0  0  0  0  0  0  0  0  0
   19.0672  -19.4132  -10.4700 C   0  0  0  0  0  0  0  0  0  0  0  0
   19.1691  -20.4255  -11.4013 C   0  0  0  0  0  0  0  0  0  0  0  0
   20.3655  -20.7555  -11.9519 C   0  0  0  0  0  0  0  0  0  0  0  0
   19.0104  -24.4887  -12.2495 C   0  0  0  0  0  0  0  0  0  0  0  0
   17.8686  -24.8324  -12.6106 O   0  0  0  0  0  0  0  0  0  0  0  0
   17.2881  -25.5156   -4.5197 C   0  0  0  0  0  0  0  0  0  0  0  0
   18.4844  -25.0420   -5.7875 S   0  0  0  0  0  0  0  0  0  0  0  0
   17.7573  -24.9907   -7.4285 C   0  0  0  0  0  0  0  0  0  0  0  0
   18.7987  -24.7016   -8.4850 C   0  0  0  0  0  0  0  0  0  0  0  0
   18.1713  -24.7753   -9.8885 C   0  0  2  0  0  0  0  0  0  0  0  0
   19.2356  -24.4890  -10.8268 N   0  0  0  0  0  0  0  0  0  0  0  0
   17.0534  -23.8182   -9.9527 C   0  0  0  0  0  0  0  0  0  0  0  0
   15.8766  -24.2503   -9.9751 O   0  0  0  0  0  0  0  0  0  0  0  0
   17.3010  -22.4557   -9.9855 O   0  0  0  0  0  0  0  0  0  0  0  0
  2  3  2  0
  2  1  1  0
  4  2  1  0
  5  4  1  0
  5  6  1  1
  7  5  1  0
  7  8  2  0
  9  7  1  0
 10  9  1  0
 10 11  1  6
 11 12  1  0
 12 13  2  0
 12 20  1  0
 13 14  1  0
 14 15  1  0
 15 16  2  0
 16 17  1  0
 18 17  2  0
 19 18  1  0
 20 19  2  0
 20 15  1  0
 21 10  1  0
 22 21  2  0
 23 24  1  0
 25 24  1  0
 25 26  1  0
 27 26  1  1
 27 28  1  0
 28 21  1  0
 29 27  1  0
 30 29  2  0
 31 29  1  0
M  END
$$$$
