NWM.pdb
     RDKit          3D

 31 32  0  0  1  0  0  0  0  0999 V2000
   28.9298  -17.4252  -15.1340 N   0  0  0  0  0  0  0  0  0  0  0  0
   27.9061  -17.8978  -16.0087 C   0  0  0  0  0  0  0  0  0  0  0  0
   27.6054  -17.1618  -16.9638 O   0  0  0  0  0  0  0  0  0  0  0  0
   27.2821  -19.1950  -15.7368 C   0  0  0  0  0  0  0  0  0  0  0  0
   27.8063  -19.8827  -14.4912 C   0  0  2  0  0  0  0  0  0  0  0  0
   28.7612  -20.9221  -14.9482 N   0  0  0  0  0  0  0  0  0  0  0  0
   26.7664  -20.5775  -13.7063 C   0  0  0  0  0  0  0  0  0  0  0  0
   26.2980  -21.6719  -14.1323 O   0  0  0  0  0  0  0  0  0  0  0  0
   26.2699  -20.0682  -12.4822 N   0  0  0  0  0  0  0  0  0  0  0  0
   25.3332  -20.7850  -11.6425 C   0  0  1  0  0  0  0  0  0  0  0  0
   25.4918  -20.4242  -10.1976 C   0  0  0  0  0  0  0  0  0  0  0  0
   26.7997  -20.7418   -9.6050 C   0  0  0  0  0  0  0  0  0  0  0  0
   27.7783  -21.5210  -10.2657 C   0  0  0  0  0  0  0  0  0  0  0  0
   28.8754  -21.6190   -9.5031 N   0  0  0  0  0  0  0  0  0  0  0  0
   28.6783  -20.9493   -8.3729 C   0  0  0  0  0  0  0  0  0  0  0  0
   29.5133  -20.7716   -7.2794 C   0  0  0  0  0  0  0  0  0  0  0  0
   29.0154  -20.0226   -6.2314 C   0  0  0  0  0  0  0  0  0  0  0  0
   27.7582  -19.4764   -6.2590 C   0  0  0  0  0  0  0  0  0  0  0  0
   26.9602  -19.6772   -7.3659 C   0  0  0  0  0  0  0  0  0  0  0  0
   27.3989  -20.4040   -8.4254 C   0  0  0  0  0  0  0  0  0  0  0  0
   23.9666  -20.6222  -12.0980 C   0  0  0  0  0  0  0  0  0  0  0  0
   23.4137  -19.5163  -12.2519 O   0  0  0  0  0  0  0  0  0  0  0  0
   17.6617  -24.5524  -15.0150 C   0  0  0  0  0  0  0  0  0  0  0  0
   19.3652  -24.5825  -14.4147 S   0  0  0  0  0  0  0  0  0  0  0  0
   19.8889  -22.9930  -13.7640 C   0  0  0  0  0  0  0  0  0  0  0  0
   21.3324  -23.0277  -13.3174 C   0  0  0  0  0  0  0  0  0  0  0  0
   21.7811  -21.6318  -12.8496 C   0  0  2  0  0  0  0  0  0  0  0  0
   23.1549  -21.7691  -12.4150 N   0  0  0  0  0  0  0  0  0  0  0  0
   20.8676  -21.1778  -11.7869 C   0  0  0  0  0  0  0  0  0  0  0  0
   19.9525  -20.3685  -12.0692 O   0  0  0  0  0  0  0  0  0  0  0  0
   21.0175  -21.6429  -10.4907 O   0  0  0  0  0  0  0  0  0  0  0  0
  2  3  2  0
  2  1  1  0
  4  2  1  0
  5  4  1  0
  5  6  1  6
  7  5  1  0
  7  8  2  0
  9  7  1  0
 10  9  1  0
 10 11  1  1
 11 12  1  0
 12 13  2  0
 12 20  1  0
 13 14  1  0
 14 15  1  0
 15 16  2  0
 16 17  1  0
 18 17  2  0
 19 18  1  0
 20 19  2  0
 20 15  1  0
 21 10  1  0
 22 21  2  0
 23 24  1  0
 25 24  1  0
 25 26  1  0
 27 26  1  1
 27 28  1  0
 28 21  1  0
 29 27  1  0
 30 29  2  0
 31 29  1  0
M  END
$$$$
