NWM.pdb
     RDKit          3D

 31 32  0  0  1  0  0  0  0  0999 V2000
   27.9580  -19.3714  -16.1298 N   0  0  0  0  0  0  0  0  0  0  0  0
   28.7491  -20.4869  -15.7221 C   0  0  0  0  0  0  0  0  0  0  0  0
   29.6589  -20.8365  -16.4930 O   0  0  0  0  0  0  0  0  0  0  0  0
   28.4500  -21.1416  -14.4462 C   0  0  0  0  0  0  0  0  0  0  0  0
   27.2744  -20.5373  -13.7034 C   0  0  2  0  0  0  0  0  0  0  0  0
   27.6639  -19.1514  -13.3446 N   0  0  0  0  0  0  0  0  0  0  0  0
   26.9445  -21.2259  -12.4396 C   0  0  0  0  0  0  0  0  0  0  0  0
   26.7778  -22.4791  -12.4435 O   0  0  0  0  0  0  0  0  0  0  0  0
   26.8104  -20.5366  -11.2103 N   0  0  0  0  0  0  0  0  0  0  0  0
   25.6630  -20.6781  -10.3386 C   0  0  1  0  0  0  0  0  0  0  0  0
   25.9083  -20.0698   -8.9922 C   0  0  0  0  0  0  0  0  0  0  0  0
   27.2030  -20.3961   -8.3757 C   0  0  0  0  0  0  0  0  0  0  0  0
   28.1888  -21.1807   -9.0188 C   0  0  0  0  0  0  0  0  0  0  0  0
   29.2708  -21.2863   -8.2361 N   0  0  0  0  0  0  0  0  0  0  0  0
   29.0570  -20.6164   -7.1091 C   0  0  0  0  0  0  0  0  0  0  0  0
   29.8726  -20.4449   -6.0001 C   0  0  0  0  0  0  0  0  0  0  0  0
   29.3600  -19.6937   -4.9608 C   0  0  0  0  0  0  0  0  0  0  0  0
   28.1069  -19.1396   -5.0112 C   0  0  0  0  0  0  0  0  0  0  0  0
   27.3284  -19.3344   -6.1330 C   0  0  0  0  0  0  0  0  0  0  0  0
   27.7822  -20.0631   -7.1849 C   0  0  0  0  0  0  0  0  0  0  0  0
   24.4525  -20.1704  -10.9536 C   0  0  0  0  0  0  0  0  0  0  0  0
   24.3915  -19.0964  -11.5823 O   0  0  0  0  0  0  0  0  0  0  0  0
   20.4155  -20.0806  -16.8853 C   0  0  0  0  0  0  0  0  0  0  0  0
   21.7790  -20.4940  -15.7750 S   0  0  0  0  0  0  0  0  0  0  0  0
   21.3277  -20.3242  -14.0454 C   0  0  0  0  0  0  0  0  0  0  0  0
   22.4617  -20.7377  -13.1358 C   0  0  0  0  0  0  0  0  0  0  0  0
   22.0614  -20.5473  -11.6619 C   0  0  2  0  0  0  0  0  0  0  0  0
   23.2199  -20.9114  -10.8741 N   0  0  0  0  0  0  0  0  0  0  0  0
   20.8756  -21.3771  -11.3875 C   0  0  0  0  0  0  0  0  0  0  0  0
   21.0188  -22.6085  -11.2000 O   0  0  0  0  0  0  0  0  0  0  0  0
   19.6168  -20.8013  -11.3352 O   0  0  0  0  0  0  0  0  0  0  0  0
  2  3  2  0
  2  1  1  0
  4  2  1  0
  5  4  1  0
  5  6  1  1
  7  5  1  0
  7  8  2  0
  9  7  1  0
 10  9  1  0
 10 11  1  1
 11 12  1  0
 12 13  2  0
 12 20  1  0
 13 14  1  0
 14 15  1  0
 15 16  2  0
 16 17  1  0
 18 17  2  0
 19 18  1  0
 20 19  2  0
 20 15  1  0
 21 10  1  0
 22 21  2  0
 23 24  1  0
 25 24  1  0
 25 26  1  0
 27 26  1  6
 27 28  1  0
 28 21  1  0
 29 27  1  0
 30 29  2  0
 31 29  1  0
M  END
$$$$
