NWM.pdb
     RDKit          3D

 31 32  0  0  1  0  0  0  0  0999 V2000
   30.4167  -24.2667  -17.5013 N   0  0  0  0  0  0  0  0  0  0  0  0
   29.0529  -23.8531  -17.5767 C   0  0  0  0  0  0  0  0  0  0  0  0
   28.5974  -23.6391  -18.7130 O   0  0  0  0  0  0  0  0  0  0  0  0
   28.2849  -23.7080  -16.3377 C   0  0  0  0  0  0  0  0  0  0  0  0
   27.3687  -22.5000  -16.3176 C   0  0  2  0  0  0  0  0  0  0  0  0
   28.2296  -21.3088  -16.5203 N   0  0  0  0  0  0  0  0  0  0  0  0
   26.6648  -22.3016  -15.0349 C   0  0  0  0  0  0  0  0  0  0  0  0
   25.9367  -23.2292  -14.5791 O   0  0  0  0  0  0  0  0  0  0  0  0
   26.7754  -21.1068  -14.2835 N   0  0  0  0  0  0  0  0  0  0  0  0
   26.0615  -20.8755  -13.0453 C   0  0  1  0  0  0  0  0  0  0  0  0
   26.7210  -19.8210  -12.2110 C   0  0  0  0  0  0  0  0  0  0  0  0
   27.6084  -20.3169  -11.1482 C   0  0  0  0  0  0  0  0  0  0  0  0
   28.8365  -20.9687  -11.4089 C   0  0  0  0  0  0  0  0  0  0  0  0
   29.4423  -21.2800  -10.2554 N   0  0  0  0  0  0  0  0  0  0  0  0
   28.6838  -20.8720   -9.2440 C   0  0  0  0  0  0  0  0  0  0  0  0
   28.8826  -20.9778   -7.8752 C   0  0  0  0  0  0  0  0  0  0  0  0
   27.8937  -20.4617   -7.0610 C   0  0  0  0  0  0  0  0  0  0  0  0
   26.7655  -19.8715   -7.5695 C   0  0  0  0  0  0  0  0  0  0  0  0
   26.6072  -19.7867   -8.9371 C   0  0  0  0  0  0  0  0  0  0  0  0
   27.5481  -20.2762   -9.7847 C   0  0  0  0  0  0  0  0  0  0  0  0
   24.6592  -20.5894  -13.2765 C   0  0  0  0  0  0  0  0  0  0  0  0
   24.2494  -19.7449  -14.0957 O   0  0  0  0  0  0  0  0  0  0  0  0
   20.4858  -24.1730  -15.4796 C   0  0  0  0  0  0  0  0  0  0  0  0
   19.3045  -23.1693  -14.5522 S   0  0  0  0  0  0  0  0  0  0  0  0
   20.1005  -21.8387  -13.6467 C   0  0  0  0  0  0  0  0  0  0  0  0
   21.5589  -22.1409  -13.3900 C   0  0  0  0  0  0  0  0  0  0  0  0
   22.2350  -20.9524  -12.6834 C   0  0  2  0  0  0  0  0  0  0  0  0
   23.6346  -21.2975  -12.5530 N   0  0  0  0  0  0  0  0  0  0  0  0
   21.5590  -20.7279  -11.3939 C   0  0  0  0  0  0  0  0  0  0  0  0
   22.0182  -21.2661  -10.3589 O   0  0  0  0  0  0  0  0  0  0  0  0
   20.4298  -19.9284  -11.3268 O   0  0  0  0  0  0  0  0  0  0  0  0
  2  3  2  0
  2  1  1  0
  4  2  1  0
  5  4  1  0
  5  6  1  1
  7  5  1  0
  7  8  2  0
  9  7  1  0
 10  9  1  0
 10 11  1  6
 11 12  1  0
 12 13  2  0
 12 20  1  0
 13 14  1  0
 14 15  1  0
 15 16  2  0
 16 17  1  0
 18 17  2  0
 19 18  1  0
 20 19  2  0
 20 15  1  0
 21 10  1  0
 22 21  2  0
 23 24  1  0
 25 24  1  0
 25 26  1  0
 27 26  1  1
 27 28  1  0
 28 21  1  0
 29 27  1  0
 30 29  2  0
 31 29  1  0
M  END
$$$$
