RLL.pdb
     RDKit          3D

 28 27  0  0  1  0  0  0  0  0999 V2000
   24.1742  -20.5762  -18.7325 N   0  0  0  0  0  0  0  0  0  0  0  0
   24.7050  -19.2582  -18.5372 C   0  0  0  0  0  0  0  0  0  0  0  0
   24.1574  -18.2358  -19.0748 N   0  0  0  0  0  0  0  0  0  0  0  0
   25.8729  -19.0882  -17.7258 N   0  0  0  0  0  0  0  0  0  0  0  0
   26.5677  -20.1814  -17.1312 C   0  0  0  0  0  0  0  0  0  0  0  0
   26.2935  -20.5833  -15.7574 C   0  0  0  0  0  0  0  0  0  0  0  0
   26.9984  -20.0204  -14.5908 C   0  0  0  0  0  0  0  0  0  0  0  0
   27.5724  -20.9374  -13.5952 C   0  0  2  0  0  0  0  0  0  0  0  0
   28.1794  -22.0776  -14.1503 N   0  0  0  0  0  0  0  0  0  0  0  0
   26.5586  -21.3868  -12.5772 C   0  0  0  0  0  0  0  0  0  0  0  0
   25.9718  -22.4926  -12.6389 O   0  0  0  0  0  0  0  0  0  0  0  0
   24.5783  -17.2952  -19.0715 C   0  0  0  0  0  0  0  0  0  0  0  0
   27.4642  -20.9394   -8.1355 C   0  0  2  0  0  0  0  0  0  0  0  0
   26.8122  -19.6771   -8.7761 C   0  0  0  0  0  0  0  0  0  0  0  0
   26.7609  -18.6678   -7.6445 C   0  0  0  0  0  0  0  0  0  0  0  0
   25.4319  -20.0370   -9.2329 C   0  0  2  0  0  0  0  0  0  0  0  0
   25.3274  -20.9417  -10.4100 N   0  0  0  0  0  0  0  0  0  0  0  0
   26.2125  -20.5445  -11.4628 C   0  0  0  0  0  0  0  0  0  0  0  0
   23.8928  -20.8974  -10.9146 O   0  0  0  0  0  0  0  0  0  0  0  0
   22.9998  -20.9225  -10.0366 C   0  0  0  0  0  0  0  0  0  0  0  0
   21.0217  -18.3386  -13.5453 C   0  0  1  0  0  0  0  0  0  0  0  0
   22.1932  -18.9334  -14.3410 C   0  0  0  0  0  0  0  0  0  0  0  0
   22.0223  -18.4330  -15.7475 C   0  0  0  0  0  0  0  0  0  0  0  0
   22.1079  -20.4089  -14.1793 C   0  0  2  0  0  0  0  0  0  0  0  0
   22.2714  -20.9102  -12.7685 N   0  0  0  0  0  0  0  0  0  0  0  0
   23.6327  -20.8320  -12.3052 C   0  0  0  0  0  0  0  0  0  0  0  0
   21.7399  -22.2602  -12.5431 O   0  0  0  0  0  0  0  0  0  0  0  0
   22.5080  -23.2536  -12.5550 O   0  0  0  0  0  0  0  0  0  0  0  0
  2  1  1  0
  3  2  2  0
  4  2  1  0
  5  4  1  0
  6  5  1  0
  7  6  1  0
  8  7  1  0
  8  9  1  6
 10 11  2  0
 10  8  1  0
 13 12  1  6
 13 15  1  0
 14 13  1  0
 16 15  1  1
 16 18  1  0
 16 17  1  0
 17 10  1  0
 18 19  2  0
 21 20  1  1
 21 22  1  0
 23 21  1  0
 24 23  1  1
 25 24  1  0
 25 18  1  0
 26 28  1  0
 26 24  1  0
 27 26  2  0
M  END
$$$$
