RLL.pdb
     RDKit          3D

 28 27  0  0  1  0  0  0  0  0999 V2000
   30.1811  -26.1971  -15.8388 N   0  0  0  0  0  0  0  0  0  0  0  0
   28.9206  -26.2694  -16.5192 C   0  0  0  0  0  0  0  0  0  0  0  0
   28.1686  -27.2980  -16.4155 N   0  0  0  0  0  0  0  0  0  0  0  0
   28.5007  -25.1674  -17.3318 N   0  0  0  0  0  0  0  0  0  0  0  0
   29.1017  -23.8772  -17.2561 C   0  0  0  0  0  0  0  0  0  0  0  0
   29.2094  -23.1762  -15.9830 C   0  0  0  0  0  0  0  0  0  0  0  0
   28.5088  -21.9119  -15.6905 C   0  0  0  0  0  0  0  0  0  0  0  0
   27.0391  -21.9047  -15.6519 C   0  0  2  0  0  0  0  0  0  0  0  0
   26.4332  -21.9453  -16.9199 N   0  0  0  0  0  0  0  0  0  0  0  0
   26.4905  -20.7209  -14.9009 C   0  0  0  0  0  0  0  0  0  0  0  0
   26.7540  -20.4934  -13.6970 O   0  0  0  0  0  0  0  0  0  0  0  0
   27.2872  -27.4152  -16.9364 C   0  0  0  0  0  0  0  0  0  0  0  0
   27.9064  -17.3328  -15.5290 C   0  0  2  0  0  0  0  0  0  0  0  0
   26.6862  -17.3991  -16.4962 C   0  0  0  0  0  0  0  0  0  0  0  0
   26.8090  -16.1437  -17.3394 C   0  0  0  0  0  0  0  0  0  0  0  0
   25.4315  -17.3720  -15.6787 C   0  0  2  0  0  0  0  0  0  0  0  0
   25.1001  -18.6051  -14.9141 N   0  0  0  0  0  0  0  0  0  0  0  0
   25.6190  -19.7777  -15.5506 C   0  0  0  0  0  0  0  0  0  0  0  0
   23.5852  -18.7111  -14.8213 O   0  0  0  0  0  0  0  0  0  0  0  0
   22.9913  -17.7112  -14.3559 C   0  0  0  0  0  0  0  0  0  0  0  0
   20.3723  -18.3635  -17.2859 C   0  0  2  0  0  0  0  0  0  0  0  0
   21.0045  -19.7336  -17.5729 C   0  0  0  0  0  0  0  0  0  0  0  0
   20.2951  -20.2596  -18.7887 C   0  0  0  0  0  0  0  0  0  0  0  0
   20.8325  -20.5451  -16.3390 C   0  0  2  0  0  0  0  0  0  0  0  0
   21.5003  -19.9905  -15.1082 N   0  0  0  0  0  0  0  0  0  0  0  0
   22.9302  -19.8918  -15.2485 C   0  0  0  0  0  0  0  0  0  0  0  0
   21.1643  -20.7012  -13.8681 O   0  0  0  0  0  0  0  0  0  0  0  0
   22.0663  -21.2491  -13.1877 O   0  0  0  0  0  0  0  0  0  0  0  0
  2  1  1  0
  3  2  2  0
  4  2  1  0
  5  4  1  0
  6  5  1  0
  7  6  1  0
  8  7  1  0
  8  9  1  6
 10 11  2  0
 10  8  1  0
 13 12  1  6
 13 15  1  0
 14 13  1  0
 16 15  1  1
 16 18  1  0
 16 17  1  0
 17 10  1  0
 18 19  2  0
 21 20  1  6
 21 22  1  0
 23 21  1  0
 24 23  1  6
 25 24  1  0
 25 18  1  0
 26 28  1  0
 26 24  1  0
 27 26  2  0
M  END
$$$$
