RLL.pdb
     RDKit          3D

 28 27  0  0  1  0  0  0  0  0999 V2000
   14.1154  -12.8528  -14.7037 N   0  0  0  0  0  0  0  0  0  0  0  0
   13.7074  -13.5978  -15.8593 C   0  0  0  0  0  0  0  0  0  0  0  0
   12.5312  -14.0903  -15.9501 N   0  0  0  0  0  0  0  0  0  0  0  0
   14.6390  -13.7942  -16.9292 N   0  0  0  0  0  0  0  0  0  0  0  0
   16.0145  -13.4330  -16.8333 C   0  0  0  0  0  0  0  0  0  0  0  0
   16.9076  -13.5806  -17.9755 C   0  0  0  0  0  0  0  0  0  0  0  0
   18.3309  -13.1958  -17.9483 C   0  0  0  0  0  0  0  0  0  0  0  0
   19.3127  -14.1380  -17.3917 C   0  0  2  0  0  0  0  0  0  0  0  0
   18.7397  -15.2182  -16.6979 N   0  0  0  0  0  0  0  0  0  0  0  0
   20.3052  -13.4627  -16.4833 C   0  0  0  0  0  0  0  0  0  0  0  0
   20.0731  -13.2230  -15.2752 O   0  0  0  0  0  0  0  0  0  0  0  0
   12.2097  -14.6562  -16.7491 C   0  0  0  0  0  0  0  0  0  0  0  0
   26.2913  -13.2390  -16.0489 C   0  0  1  0  0  0  0  0  0  0  0  0
   24.9037  -12.8634  -15.4469 C   0  0  0  0  0  0  0  0  0  0  0  0
   24.5107  -14.0781  -14.6272 C   0  0  0  0  0  0  0  0  0  0  0  0
   23.9414  -12.6463  -16.5739 C   0  0  2  0  0  0  0  0  0  0  0  0
   22.5401  -12.3058  -16.2059 N   0  0  0  0  0  0  0  0  0  0  0  0
   21.5940  -13.0541  -16.9767 C   0  0  0  0  0  0  0  0  0  0  0  0
   22.3326  -10.8199  -16.4585 O   0  0  0  0  0  0  0  0  0  0  0  0
   22.1757  -10.4819  -17.6544 C   0  0  0  0  0  0  0  0  0  0  0  0
   21.5865   -5.6504  -13.1686 C   0  0  1  0  0  0  0  0  0  0  0  0
   21.4567   -6.3078  -14.5507 C   0  0  0  0  0  0  0  0  0  0  0  0
   20.0655   -5.9893  -15.0210 C   0  0  0  0  0  0  0  0  0  0  0  0
   21.7448   -7.7538  -14.3594 C   0  0  2  0  0  0  0  0  0  0  0  0
   22.0341   -8.5228  -15.6217 N   0  0  0  0  0  0  0  0  0  0  0  0
   22.3252   -9.9110  -15.3724 C   0  0  0  0  0  0  0  0  0  0  0  0
   23.0841   -7.9313  -16.4605 O   0  0  0  0  0  0  0  0  0  0  0  0
   24.2922   -8.1969  -16.2445 O   0  0  0  0  0  0  0  0  0  0  0  0
  2  1  1  0
  3  2  2  0
  4  2  1  0
  5  4  1  0
  6  5  1  0
  7  6  1  0
  8  7  1  0
  8  9  1  1
 10 11  2  0
 10  8  1  0
 13 12  1  1
 13 15  1  0
 14 13  1  0
 16 15  1  1
 16 18  1  0
 16 17  1  0
 17 10  1  0
 18 19  2  0
 21 20  1  6
 21 22  1  0
 23 21  1  0
 24 23  1  6
 25 24  1  0
 25 18  1  0
 26 28  1  0
 26 24  1  0
 27 26  2  0
M  END
$$$$
