RLL.pdb
     RDKit          3D

 28 27  0  0  1  0  0  0  0  0999 V2000
   19.0421  -24.5891   -8.1640 N   0  0  0  0  0  0  0  0  0  0  0  0
   17.8023  -24.0902   -8.6845 C   0  0  0  0  0  0  0  0  0  0  0  0
   16.6848  -24.3958   -8.1442 N   0  0  0  0  0  0  0  0  0  0  0  0
   17.8201  -23.2353   -9.8335 N   0  0  0  0  0  0  0  0  0  0  0  0
   18.9512  -23.1176  -10.6927 C   0  0  0  0  0  0  0  0  0  0  0  0
   20.0317  -22.1898  -10.3832 C   0  0  0  0  0  0  0  0  0  0  0  0
   20.3773  -21.0339  -11.2314 C   0  0  0  0  0  0  0  0  0  0  0  0
   20.8181  -21.2716  -12.6136 C   0  0  2  0  0  0  0  0  0  0  0  0
   21.2004  -22.5996  -12.8721 N   0  0  0  0  0  0  0  0  0  0  0  0
   21.9487  -20.3642  -13.0194 C   0  0  0  0  0  0  0  0  0  0  0  0
   21.9225  -19.1225  -12.8517 O   0  0  0  0  0  0  0  0  0  0  0  0
   15.7714  -24.0903   -8.5106 C   0  0  0  0  0  0  0  0  0  0  0  0
   27.9504  -20.9897  -14.3975 C   0  0  1  0  0  0  0  0  0  0  0  0
   26.7409  -20.0068  -14.3939 C   0  0  0  0  0  0  0  0  0  0  0  0
   27.1440  -18.9217  -13.4130 C   0  0  0  0  0  0  0  0  0  0  0  0
   25.5323  -20.7448  -13.9060 C   0  0  2  0  0  0  0  0  0  0  0  0
   24.2129  -20.0898  -14.1188 N   0  0  0  0  0  0  0  0  0  0  0  0
   23.1364  -20.8984  -13.6322 C   0  0  0  0  0  0  0  0  0  0  0  0
   24.0346  -19.8595  -15.6121 O   0  0  0  0  0  0  0  0  0  0  0  0
   23.7519  -20.8710  -16.2947 C   0  0  0  0  0  0  0  0  0  0  0  0
   23.0679  -15.1756  -19.4543 C   0  0  1  0  0  0  0  0  0  0  0  0
   23.1753  -16.7003  -19.3023 C   0  0  0  0  0  0  0  0  0  0  0  0
   21.8668  -17.2492  -19.7968 C   0  0  0  0  0  0  0  0  0  0  0  0
   23.4705  -16.9622  -17.8689 C   0  0  2  0  0  0  0  0  0  0  0  0
   23.9606  -18.3520  -17.5584 N   0  0  0  0  0  0  0  0  0  0  0  0
   24.1894  -18.5593  -16.1517 C   0  0  0  0  0  0  0  0  0  0  0  0
   25.1441  -18.7594  -18.3260 O   0  0  0  0  0  0  0  0  0  0  0  0
   26.2898  -18.3930  -17.9656 O   0  0  0  0  0  0  0  0  0  0  0  0
  2  1  1  0
  3  2  2  0
  4  2  1  0
  5  4  1  0
  6  5  1  0
  7  6  1  0
  8  7  1  0
  8  9  1  1
 10 11  2  0
 10  8  1  0
 13 12  1  6
 13 15  1  0
 14 13  1  0
 16 15  1  1
 16 18  1  0
 16 17  1  0
 17 10  1  0
 18 19  2  0
 21 20  1  6
 21 22  1  0
 23 21  1  0
 24 23  1  1
 25 24  1  0
 25 18  1  0
 26 28  1  0
 26 24  1  0
 27 26  2  0
M  END
$$$$
