RLL.pdb
     RDKit          3D

 28 27  0  0  1  0  0  0  0  0999 V2000
   19.2001  -24.4972   -7.9551 N   0  0  0  0  0  0  0  0  0  0  0  0
   17.9657  -24.2947   -8.6566 C   0  0  0  0  0  0  0  0  0  0  0  0
   17.9377  -23.7194   -9.7978 N   0  0  0  0  0  0  0  0  0  0  0  0
   16.7424  -24.7445   -8.0629 N   0  0  0  0  0  0  0  0  0  0  0  0
   16.6935  -25.4182   -6.8078 C   0  0  0  0  0  0  0  0  0  0  0  0
   17.5036  -26.6051   -6.5644 C   0  0  0  0  0  0  0  0  0  0  0  0
   17.4191  -27.4063   -5.3292 C   0  0  0  0  0  0  0  0  0  0  0  0
   17.0711  -26.7358   -4.0680 C   0  0  2  0  0  0  0  0  0  0  0  0
   17.3599  -25.3599   -4.0526 N   0  0  0  0  0  0  0  0  0  0  0  0
   17.7347  -27.3738   -2.8768 C   0  0  0  0  0  0  0  0  0  0  0  0
   18.1000  -28.5725   -2.8585 O   0  0  0  0  0  0  0  0  0  0  0  0
   17.0675  -23.4899  -10.2998 C   0  0  0  0  0  0  0  0  0  0  0  0
   20.6131  -27.7569    1.6843 C   0  0  1  0  0  0  0  0  0  0  0  0
   20.7206  -26.5688    0.6815 C   0  0  0  0  0  0  0  0  0  0  0  0
   21.3889  -25.4651    1.4798 C   0  0  0  0  0  0  0  0  0  0  0  0
   19.3369  -26.1680    0.2717 C   0  0  2  0  0  0  0  0  0  0  0  0
   18.5419  -27.1728   -0.4854 N   0  0  0  0  0  0  0  0  0  0  0  0
   17.9835  -26.6147   -1.6796 C   0  0  0  0  0  0  0  0  0  0  0  0
   17.4176  -27.6623    0.4152 O   0  0  0  0  0  0  0  0  0  0  0  0
   16.5308  -26.8227    0.6938 C   0  0  0  0  0  0  0  0  0  0  0  0
   12.8766  -30.7414    0.6871 C   0  0  1  0  0  0  0  0  0  0  0  0
   13.9225  -30.2396    1.6939 C   0  0  0  0  0  0  0  0  0  0  0  0
   13.2455  -29.1442    2.4683 C   0  0  0  0  0  0  0  0  0  0  0  0
   15.1048  -29.8149    0.8986 C   0  0  2  0  0  0  0  0  0  0  0  0
   16.3241  -29.4530    1.7051 N   0  0  0  0  0  0  0  0  0  0  0  0
   17.4176  -28.9981    0.8857 C   0  0  0  0  0  0  0  0  0  0  0  0
   16.7824  -30.5120    2.6131 O   0  0  0  0  0  0  0  0  0  0  0  0
   16.0374  -30.9195    3.5381 O   0  0  0  0  0  0  0  0  0  0  0  0
  2  1  1  0
  3  2  2  0
  4  2  1  0
  5  4  1  0
  6  5  1  0
  7  6  1  0
  8  7  1  0
  8  9  1  6
 10 11  2  0
 10  8  1  0
 13 12  1  6
 13 15  1  0
 14 13  1  0
 16 15  1  6
 16 18  1  0
 16 17  1  0
 17 10  1  0
 18 19  2  0
 21 20  1  1
 21 22  1  0
 23 21  1  0
 24 23  1  1
 25 24  1  0
 25 18  1  0
 26 28  1  0
 26 24  1  0
 27 26  2  0
M  END
$$$$
