RLL.pdb
     RDKit          3D

 28 27  0  0  1  0  0  0  0  0999 V2000
   30.0050  -27.8553  -16.8970 N   0  0  0  0  0  0  0  0  0  0  0  0
   31.0808  -27.1814  -17.5644 C   0  0  0  0  0  0  0  0  0  0  0  0
   31.5991  -27.6547  -18.6328 N   0  0  0  0  0  0  0  0  0  0  0  0
   31.5835  -25.9562  -17.0191 N   0  0  0  0  0  0  0  0  0  0  0  0
   30.7395  -24.9606  -16.4464 C   0  0  0  0  0  0  0  0  0  0  0  0
   29.8768  -24.1389  -17.2857 C   0  0  0  0  0  0  0  0  0  0  0  0
   29.1261  -22.9734  -16.7829 C   0  0  0  0  0  0  0  0  0  0  0  0
   28.3374  -23.1124  -15.5500 C   0  0  2  0  0  0  0  0  0  0  0  0
   27.0826  -23.7178  -15.7385 N   0  0  0  0  0  0  0  0  0  0  0  0
   28.1292  -21.7957  -14.8504 C   0  0  0  0  0  0  0  0  0  0  0  0
   28.9204  -20.8301  -14.9615 O   0  0  0  0  0  0  0  0  0  0  0  0
   32.3699  -27.1995  -19.1432 C   0  0  0  0  0  0  0  0  0  0  0  0
   27.8114  -18.3641  -14.9709 C   0  0  2  0  0  0  0  0  0  0  0  0
   26.8246  -18.9917  -16.0010 C   0  0  0  0  0  0  0  0  0  0  0  0
   26.1206  -17.7982  -16.6191 C   0  0  0  0  0  0  0  0  0  0  0  0
   25.8539  -19.8586  -15.2597 C   0  0  2  0  0  0  0  0  0  0  0  0
   26.2753  -20.3453  -13.9179 N   0  0  0  0  0  0  0  0  0  0  0  0
   26.9844  -21.5859  -14.0038 C   0  0  0  0  0  0  0  0  0  0  0  0
   25.0262  -20.5369  -13.0706 O   0  0  0  0  0  0  0  0  0  0  0  0
   24.1046  -19.7087  -13.2543 C   0  0  0  0  0  0  0  0  0  0  0  0
   26.3925  -19.1572   -8.2254 C   0  0  1  0  0  0  0  0  0  0  0  0
   25.3171  -20.1682   -8.6504 C   0  0  0  0  0  0  0  0  0  0  0  0
   25.3175  -21.2301   -7.5871 C   0  0  0  0  0  0  0  0  0  0  0  0
   25.6906  -20.6353  -10.0116 C   0  0  2  0  0  0  0  0  0  0  0  0
   24.5917  -21.3238  -10.7776 N   0  0  0  0  0  0  0  0  0  0  0  0
   24.9568  -21.6040  -12.1422 C   0  0  0  0  0  0  0  0  0  0  0  0
   23.2998  -20.6274  -10.7352 O   0  0  0  0  0  0  0  0  0  0  0  0
   22.3849  -21.0352   -9.9779 O   0  0  0  0  0  0  0  0  0  0  0  0
  2  1  1  0
  3  2  2  0
  4  2  1  0
  5  4  1  0
  6  5  1  0
  7  6  1  0
  8  7  1  0
  8  9  1  6
 10 11  2  0
 10  8  1  0
 13 12  1  6
 13 15  1  0
 14 13  1  0
 16 15  1  6
 16 18  1  0
 16 17  1  0
 17 10  1  0
 18 19  2  0
 21 20  1  1
 21 22  1  0
 23 21  1  0
 24 23  1  1
 25 24  1  0
 25 18  1  0
 26 28  1  0
 26 24  1  0
 27 26  2  0
M  END
$$$$
