RLL.pdb
     RDKit          3D

 28 27  0  0  1  0  0  0  0  0999 V2000
   26.8790  -20.1064  -17.3120 N   0  0  0  0  0  0  0  0  0  0  0  0
   27.1160  -18.6951  -17.4062 C   0  0  0  0  0  0  0  0  0  0  0  0
   26.6725  -18.0121  -18.3916 N   0  0  0  0  0  0  0  0  0  0  0  0
   27.8665  -18.0420  -16.3759 N   0  0  0  0  0  0  0  0  0  0  0  0
   28.4809  -18.7477  -15.3008 C   0  0  0  0  0  0  0  0  0  0  0  0
   27.6770  -19.4845  -14.3339 C   0  0  0  0  0  0  0  0  0  0  0  0
   27.9266  -19.4558  -12.8808 C   0  0  0  0  0  0  0  0  0  0  0  0
   28.5398  -20.6285  -12.2404 C   0  0  2  0  0  0  0  0  0  0  0  0
   28.5514  -21.7802  -13.0466 N   0  0  0  0  0  0  0  0  0  0  0  0
   27.8864  -20.9733  -10.9287 C   0  0  0  0  0  0  0  0  0  0  0  0
   27.0501  -21.8984  -10.8041 O   0  0  0  0  0  0  0  0  0  0  0  0
   26.7485  -16.9863  -18.4550 C   0  0  0  0  0  0  0  0  0  0  0  0
   28.2213  -18.6410   -5.1398 C   0  0  1  0  0  0  0  0  0  0  0  0
   27.5330  -19.7089   -6.0425 C   0  0  0  0  0  0  0  0  0  0  0  0
   27.7577  -21.0185   -5.3100 C   0  0  0  0  0  0  0  0  0  0  0  0
   28.2196  -19.7176   -7.3736 C   0  0  2  0  0  0  0  0  0  0  0  0
   27.5146  -20.4049   -8.4896 N   0  0  0  0  0  0  0  0  0  0  0  0
   28.2029  -20.2367   -9.7335 C   0  0  0  0  0  0  0  0  0  0  0  0
   26.1178  -19.8125   -8.6028 O   0  0  0  0  0  0  0  0  0  0  0  0
   26.0549  -18.6210   -8.9841 C   0  0  0  0  0  0  0  0  0  0  0  0
   21.9537  -21.8440  -10.9870 C   0  0  1  0  0  0  0  0  0  0  0  0
   22.8641  -20.6893  -11.4310 C   0  0  0  0  0  0  0  0  0  0  0  0
   23.1305  -20.9229  -12.8913 C   0  0  0  0  0  0  0  0  0  0  0  0
   24.0634  -20.7356  -10.5534 C   0  0  1  0  0  0  0  0  0  0  0  0
   23.7992  -20.4839   -9.0922 N   0  0  0  0  0  0  0  0  0  0  0  0
   24.9858  -20.6016   -8.2845 C   0  0  0  0  0  0  0  0  0  0  0  0
   22.7209  -21.3031   -8.5248 O   0  0  0  0  0  0  0  0  0  0  0  0
   22.9915  -22.3069   -7.8206 O   0  0  0  0  0  0  0  0  0  0  0  0
  2  1  1  0
  3  2  2  0
  4  2  1  0
  5  4  1  0
  6  5  1  0
  7  6  1  0
  8  7  1  0
  8  9  1  6
 10 11  2  0
 10  8  1  0
 13 12  1  1
 13 15  1  0
 14 13  1  0
 16 15  1  1
 16 18  1  0
 16 17  1  0
 17 10  1  0
 18 19  2  0
 21 20  1  6
 21 22  1  0
 23 21  1  0
 24 23  1  6
 25 24  1  0
 25 18  1  0
 26 28  1  0
 26 24  1  0
 27 26  2  0
M  END
$$$$
