RLL.pdb
     RDKit          3D

 28 27  0  0  1  0  0  0  0  0999 V2000
   22.8768  -22.4944  -13.4878 N   0  0  0  0  0  0  0  0  0  0  0  0
   22.3463  -21.5066  -14.3820 C   0  0  0  0  0  0  0  0  0  0  0  0
   21.7611  -21.8409  -15.4683 N   0  0  0  0  0  0  0  0  0  0  0  0
   22.4786  -20.1198  -14.0497 N   0  0  0  0  0  0  0  0  0  0  0  0
   23.5788  -19.6045  -13.3043 C   0  0  0  0  0  0  0  0  0  0  0  0
   24.8716  -20.2772  -13.3179 C   0  0  0  0  0  0  0  0  0  0  0  0
   25.5259  -20.8032  -12.1055 C   0  0  0  0  0  0  0  0  0  0  0  0
   24.9374  -20.5037  -10.7920 C   0  0  2  0  0  0  0  0  0  0  0  0
   24.6025  -19.1505  -10.6100 N   0  0  0  0  0  0  0  0  0  0  0  0
   25.8262  -20.9303   -9.6542 C   0  0  0  0  0  0  0  0  0  0  0  0
   26.3762  -22.0552   -9.6012 O   0  0  0  0  0  0  0  0  0  0  0  0
   21.2750  -21.1723  -16.0836 C   0  0  0  0  0  0  0  0  0  0  0  0
   28.8473  -18.0555   -5.0896 C   0  0  1  0  0  0  0  0  0  0  0  0
   28.4612  -19.4536   -5.6597 C   0  0  0  0  0  0  0  0  0  0  0  0
   29.7933  -20.1272   -5.9315 C   0  0  0  0  0  0  0  0  0  0  0  0
   27.6961  -19.2518   -6.9314 C   0  0  2  0  0  0  0  0  0  0  0  0
   26.8787  -20.3982   -7.4138 N   0  0  0  0  0  0  0  0  0  0  0  0
   26.0879  -20.0418   -8.5527 C   0  0  0  0  0  0  0  0  0  0  0  0
   25.9620  -20.8352   -6.2809 O   0  0  0  0  0  0  0  0  0  0  0  0
   24.8472  -20.2666   -6.2249 C   0  0  0  0  0  0  0  0  0  0  0  0
   26.1160  -24.4190   -1.3062 C   0  0  1  0  0  0  0  0  0  0  0  0
   25.1825  -23.8229   -2.3704 C   0  0  0  0  0  0  0  0  0  0  0  0
   24.2129  -24.9174   -2.7168 C   0  0  0  0  0  0  0  0  0  0  0  0
   26.0513  -23.3696   -3.4885 C   0  0  2  0  0  0  0  0  0  0  0  0
   25.5192  -22.2063   -4.2834 N   0  0  0  0  0  0  0  0  0  0  0  0
   26.3887  -21.8303   -5.3682 C   0  0  0  0  0  0  0  0  0  0  0  0
   25.1839  -21.0271   -3.4754 O   0  0  0  0  0  0  0  0  0  0  0  0
   26.0721  -20.1921   -3.1743 O   0  0  0  0  0  0  0  0  0  0  0  0
  2  1  1  0
  3  2  2  0
  4  2  1  0
  5  4  1  0
  6  5  1  0
  7  6  1  0
  8  7  1  0
  8  9  1  6
 10 11  2  0
 10  8  1  0
 13 12  1  1
 13 15  1  0
 14 13  1  0
 16 15  1  6
 16 18  1  0
 16 17  1  0
 17 10  1  0
 18 19  2  0
 21 20  1  1
 21 22  1  0
 23 21  1  0
 24 23  1  6
 25 24  1  0
 25 18  1  0
 26 28  1  0
 26 24  1  0
 27 26  2  0
M  END
$$$$
