RLL.pdb
     RDKit          3D

 28 27  0  0  1  0  0  0  0  0999 V2000
   30.5873  -23.3766  -17.5549 N   0  0  0  0  0  0  0  0  0  0  0  0
   29.4290  -23.7208  -18.3273 C   0  0  0  0  0  0  0  0  0  0  0  0
   29.2754  -24.8965  -18.8053 N   0  0  0  0  0  0  0  0  0  0  0  0
   28.4281  -22.7250  -18.5681 N   0  0  0  0  0  0  0  0  0  0  0  0
   28.4210  -21.4606  -17.9104 C   0  0  0  0  0  0  0  0  0  0  0  0
   27.2563  -21.0176  -17.1545 C   0  0  0  0  0  0  0  0  0  0  0  0
   27.3340  -20.0796  -16.0192 C   0  0  0  0  0  0  0  0  0  0  0  0
   27.6675  -20.6016  -14.6859 C   0  0  2  0  0  0  0  0  0  0  0  0
   28.6449  -21.6121  -14.6949 N   0  0  0  0  0  0  0  0  0  0  0  0
   26.4581  -21.1170  -13.9524 C   0  0  0  0  0  0  0  0  0  0  0  0
   25.8680  -22.1769  -14.2673 O   0  0  0  0  0  0  0  0  0  0  0  0
   28.5879  -25.1298  -19.5365 C   0  0  0  0  0  0  0  0  0  0  0  0
   26.0923  -22.1314   -9.3890 C   0  0  2  0  0  0  0  0  0  0  0  0
   26.1548  -20.6245   -9.7817 C   0  0  0  0  0  0  0  0  0  0  0  0
   26.1039  -19.8900   -8.4551 C   0  0  0  0  0  0  0  0  0  0  0  0
   24.9537  -20.3022  -10.6164 C   0  0  2  0  0  0  0  0  0  0  0  0
   24.8934  -20.9126  -11.9724 N   0  0  0  0  0  0  0  0  0  0  0  0
   25.9158  -20.3961  -12.8310 C   0  0  0  0  0  0  0  0  0  0  0  0
   23.5292  -20.6024  -12.5704 O   0  0  0  0  0  0  0  0  0  0  0  0
   23.3480  -19.4204  -12.9432 C   0  0  0  0  0  0  0  0  0  0  0  0
   19.5919  -23.8632  -15.8191 C   0  0  1  0  0  0  0  0  0  0  0  0
   19.8856  -22.4702  -15.2423 C   0  0  0  0  0  0  0  0  0  0  0  0
   20.0787  -21.5725  -16.4318 C   0  0  0  0  0  0  0  0  0  0  0  0
   21.0746  -22.6194  -14.3622 C   0  0  2  0  0  0  0  0  0  0  0  0
   21.4083  -21.4130  -13.5247 N   0  0  0  0  0  0  0  0  0  0  0  0
   22.5542  -21.6238  -12.6782 C   0  0  0  0  0  0  0  0  0  0  0  0
   20.2842  -20.9003  -12.7315 O   0  0  0  0  0  0  0  0  0  0  0  0
   20.1525  -21.2360  -11.5286 O   0  0  0  0  0  0  0  0  0  0  0  0
  2  1  1  0
  3  2  2  0
  4  2  1  0
  5  4  1  0
  6  5  1  0
  7  6  1  0
  8  7  1  0
  8  9  1  6
 10 11  2  0
 10  8  1  0
 13 12  1  1
 13 15  1  0
 14 13  1  0
 16 15  1  1
 16 18  1  0
 16 17  1  0
 17 10  1  0
 18 19  2  0
 21 20  1  6
 21 22  1  0
 23 21  1  0
 24 23  1  6
 25 24  1  0
 25 18  1  0
 26 28  1  0
 26 24  1  0
 27 26  2  0
M  END
$$$$
