RGP.pdb
     RDKit          3D

 23 23  0  0  1  0  0  0  0  0999 V2000
   23.6382  -18.2511  -16.9329 N   0  0  0  0  0  0  0  0  0  0  0  0
   22.7058  -19.2166  -16.4506 C   0  0  0  0  0  0  0  0  0  0  0  0
   21.4608  -19.0427  -16.6843 N   0  0  0  0  0  0  0  0  0  0  0  0
   23.1380  -20.3573  -15.7207 N   0  0  0  0  0  0  0  0  0  0  0  0
   24.5440  -20.7941  -15.8128 C   0  0  0  0  0  0  0  0  0  0  0  0
   24.6281  -21.7491  -16.9644 C   0  0  0  0  0  0  0  0  0  0  0  0
   24.4062  -23.1848  -16.6429 C   0  0  0  0  0  0  0  0  0  0  0  0
   25.1986  -23.7202  -15.4763 C   0  0  2  0  0  0  0  0  0  0  0  0
   26.2834  -24.5385  -16.0388 N   0  0  0  0  0  0  0  0  0  0  0  0
   24.3197  -24.6517  -14.7181 C   0  0  0  0  0  0  0  0  0  0  0  0
   24.2952  -25.8675  -15.0217 O   0  0  0  0  0  0  0  0  0  0  0  0
   20.6798  -19.6092  -16.3413 N   0  0  0  0  0  0  0  0  0  0  0  0
   23.4972  -24.1813  -13.6411 C   0  0  0  0  0  0  0  0  0  0  0  0
   22.6899  -25.1549  -12.9642 C   0  0  0  0  0  0  0  0  0  0  0  0
   21.2875  -25.1565  -13.3971 O   0  0  0  0  0  0  0  0  0  0  0  0
   20.8987  -24.3064  -14.2008 N   0  0  0  0  0  0  0  0  0  0  0  0
   20.4060  -26.1422  -12.8767 C   0  0  0  0  0  0  0  0  0  0  0  0
   20.9175  -27.4058  -12.2649 C   0  0  0  0  0  0  0  0  0  0  0  0
   19.7769  -28.0167  -11.5292 C   0  0  0  0  0  0  0  0  0  0  0  0
   18.7627  -26.9052  -11.4390 C   0  0  2  0  0  0  0  0  0  0  0  0
   18.9861  -26.2436  -12.8214 C   0  0  0  0  0  0  0  0  0  0  0  0
   18.2010  -25.0251  -12.9193 O   0  0  0  0  0  0  0  0  0  0  0  0
   18.5342  -23.9068  -12.5495 O   0  0  0  0  0  0  0  0  0  0  0  0
  2  1  1  0
  3  2  2  0
  4  2  1  0
  5  4  1  0
  6  5  1  0
  7  6  1  0
  8  7  1  0
  8 10  1  0
  8  9  1  6
 10 12  1  0
 10 11  2  0
 12 13  1  0
 13 14  1  0
 14 15  2  0
 16 14  1  0
 16 20  1  0
 17 16  1  0
 18 17  1  0
 18 19  1  0
 19 20  1  0
 20 21  1  1
 21 22  2  0
 21 23  1  0
M  END
$$$$
