RGP.pdb
     RDKit          3D

 23 23  0  0  1  0  0  0  0  0999 V2000
   26.4282  -22.4470  -15.3728 N   0  0  0  0  0  0  0  0  0  0  0  0
   25.0632  -22.8198  -15.5512 C   0  0  0  0  0  0  0  0  0  0  0  0
   24.6561  -23.1296  -16.7231 N   0  0  0  0  0  0  0  0  0  0  0  0
   24.1588  -22.8504  -14.4549 N   0  0  0  0  0  0  0  0  0  0  0  0
   24.5761  -22.3078  -13.1481 C   0  0  0  0  0  0  0  0  0  0  0  0
   24.5881  -20.8154  -13.2806 C   0  0  0  0  0  0  0  0  0  0  0  0
   24.9324  -20.0510  -12.0514 C   0  0  0  0  0  0  0  0  0  0  0  0
   25.1049  -20.8751  -10.7998 C   0  0  2  0  0  0  0  0  0  0  0  0
   23.9326  -20.6115   -9.9520 N   0  0  0  0  0  0  0  0  0  0  0  0
   26.2839  -20.3431  -10.0633 C   0  0  0  0  0  0  0  0  0  0  0  0
   27.3848  -20.2311  -10.6521 O   0  0  0  0  0  0  0  0  0  0  0  0
   23.7204  -23.4478  -16.9912 N   0  0  0  0  0  0  0  0  0  0  0  0
   26.1825  -19.9541   -8.6864 C   0  0  0  0  0  0  0  0  0  0  0  0
   27.4015  -19.9030   -7.9319 C   0  0  0  0  0  0  0  0  0  0  0  0
   27.2380  -20.2949   -6.5269 O   0  0  0  0  0  0  0  0  0  0  0  0
   26.1971  -20.8493   -6.1680 N   0  0  0  0  0  0  0  0  0  0  0  0
   28.2881  -20.0242   -5.6086 C   0  0  0  0  0  0  0  0  0  0  0  0
   29.7188  -20.0010   -6.0393 C   0  0  0  0  0  0  0  0  0  0  0  0
   30.4858  -19.3550   -4.9394 C   0  0  0  0  0  0  0  0  0  0  0  0
   29.4259  -18.7044   -4.0877 C   0  0  2  0  0  0  0  0  0  0  0  0
   28.3117  -19.7737   -4.2064 C   0  0  0  0  0  0  0  0  0  0  0  0
   27.0972  -19.2956   -3.5684 O   0  0  0  0  0  0  0  0  0  0  0  0
   26.2661  -18.5370   -4.0500 O   0  0  0  0  0  0  0  0  0  0  0  0
  2  1  1  0
  3  2  2  0
  4  2  1  0
  5  4  1  0
  6  5  1  0
  7  6  1  0
  8  7  1  0
  8 10  1  0
  8  9  1  1
 10 12  1  0
 10 11  2  0
 12 13  1  0
 13 14  1  0
 14 15  2  0
 16 14  1  0
 16 20  1  0
 17 16  1  0
 18 17  1  0
 18 19  1  0
 19 20  1  0
 20 21  1  6
 21 22  2  0
 21 23  1  0
M  END
$$$$
