RGP.pdb
     RDKit          3D

 23 23  0  0  1  0  0  0  0  0999 V2000
   18.6813   -8.1343  -19.2742 N   0  0  0  0  0  0  0  0  0  0  0  0
   17.3330   -7.7536  -19.0074 C   0  0  0  0  0  0  0  0  0  0  0  0
   16.9312   -6.5998  -19.3849 N   0  0  0  0  0  0  0  0  0  0  0  0
   16.4396   -8.6305  -18.3337 N   0  0  0  0  0  0  0  0  0  0  0  0
   16.9318   -9.9237  -17.8225 C   0  0  0  0  0  0  0  0  0  0  0  0
   15.7488  -10.6443  -17.2514 C   0  0  0  0  0  0  0  0  0  0  0  0
   15.9910  -12.0370  -16.7872 C   0  0  0  0  0  0  0  0  0  0  0  0
   16.1461  -12.2081  -15.2965 C   0  0  2  0  0  0  0  0  0  0  0  0
   16.4761  -10.8839  -14.7485 N   0  0  0  0  0  0  0  0  0  0  0  0
   17.3362  -13.0696  -15.0584 C   0  0  0  0  0  0  0  0  0  0  0  0
   18.4105  -12.5514  -14.6729 O   0  0  0  0  0  0  0  0  0  0  0  0
   16.0057   -6.1866  -19.2394 N   0  0  0  0  0  0  0  0  0  0  0  0
   17.2757  -14.4881  -15.2625 C   0  0  0  0  0  0  0  0  0  0  0  0
   18.4690  -15.2371  -14.9925 C   0  0  0  0  0  0  0  0  0  0  0  0
   18.3212  -16.6787  -15.2251 O   0  0  0  0  0  0  0  0  0  0  0  0
   17.2003  -17.1497  -15.4284 N   0  0  0  0  0  0  0  0  0  0  0  0
   19.4793  -17.5022  -15.2097 C   0  0  0  0  0  0  0  0  0  0  0  0
   20.8511  -16.9225  -15.0883 C   0  0  0  0  0  0  0  0  0  0  0  0
   21.7636  -18.0500  -14.7548 C   0  0  0  0  0  0  0  0  0  0  0  0
   20.8345  -19.1610  -14.3372 C   0  0  2  0  0  0  0  0  0  0  0  0
   19.6729  -18.9085  -15.3300 C   0  0  0  0  0  0  0  0  0  0  0  0
   18.5590  -19.7890  -15.0224 O   0  0  0  0  0  0  0  0  0  0  0  0
   18.1415  -20.7107  -15.7112 O   0  0  0  0  0  0  0  0  0  0  0  0
  2  1  1  0
  3  2  2  0
  4  2  1  0
  5  4  1  0
  6  5  1  0
  7  6  1  0
  8  7  1  0
  8 10  1  0
  8  9  1  1
 10 12  1  0
 10 11  2  0
 12 13  1  0
 13 14  1  0
 14 15  2  0
 16 14  1  0
 16 20  1  0
 17 16  1  0
 18 17  1  0
 18 19  1  0
 19 20  1  0
 20 21  1  1
 21 22  2  0
 21 23  1  0
M  END
$$$$
