RGP.pdb
     RDKit          3D

 23 23  0  0  1  0  0  0  0  0999 V2000
   29.1593  -21.6920  -18.2585 N   0  0  0  0  0  0  0  0  0  0  0  0
   29.5570  -22.7529  -17.3922 C   0  0  0  0  0  0  0  0  0  0  0  0
   30.2904  -23.6899  -17.8603 N   0  0  0  0  0  0  0  0  0  0  0  0
   29.1523  -22.7822  -16.0298 N   0  0  0  0  0  0  0  0  0  0  0  0
   27.7949  -22.3374  -15.6610 C   0  0  0  0  0  0  0  0  0  0  0  0
   27.7593  -20.8509  -15.8453 C   0  0  0  0  0  0  0  0  0  0  0  0
   26.4193  -20.2108  -15.7523 C   0  0  0  0  0  0  0  0  0  0  0  0
   25.3759  -20.9931  -14.9942 C   0  0  2  0  0  0  0  0  0  0  0  0
   25.4519  -22.3807  -15.4752 N   0  0  0  0  0  0  0  0  0  0  0  0
   24.0387  -20.4806  -15.3999 C   0  0  0  0  0  0  0  0  0  0  0  0
   23.5041  -20.9049  -16.4512 O   0  0  0  0  0  0  0  0  0  0  0  0
   30.5878  -24.5440  -17.3801 N   0  0  0  0  0  0  0  0  0  0  0  0
   23.3474  -19.5064  -14.6058 C   0  0  0  0  0  0  0  0  0  0  0  0
   22.0506  -19.0955  -15.0611 C   0  0  0  0  0  0  0  0  0  0  0  0
   20.9476  -19.8229  -14.4221 O   0  0  0  0  0  0  0  0  0  0  0  0
   21.1758  -20.8879  -13.8448 N   0  0  0  0  0  0  0  0  0  0  0  0
   19.6356  -19.2804  -14.4848 C   0  0  0  0  0  0  0  0  0  0  0  0
   19.3885  -17.8789  -14.9403 C   0  0  0  0  0  0  0  0  0  0  0  0
   17.9297  -17.7695  -15.2144 C   0  0  0  0  0  0  0  0  0  0  0  0
   17.4580  -19.2004  -15.2602 C   0  0  2  0  0  0  0  0  0  0  0  0
   18.3527  -19.7994  -14.1468 C   0  0  0  0  0  0  0  0  0  0  0  0
   18.1810  -21.2411  -14.0961 O   0  0  0  0  0  0  0  0  0  0  0  0
   18.6137  -22.0594  -14.8970 O   0  0  0  0  0  0  0  0  0  0  0  0
  2  1  1  0
  3  2  2  0
  4  2  1  0
  5  4  1  0
  6  5  1  0
  7  6  1  0
  8  7  1  0
  8 10  1  0
  8  9  1  6
 10 12  1  0
 10 11  2  0
 12 13  1  0
 13 14  1  0
 14 15  2  0
 16 14  1  0
 16 20  1  0
 17 16  1  0
 18 17  1  0
 18 19  1  0
 19 20  1  0
 20 21  1  6
 21 22  2  0
 21 23  1  0
M  END
$$$$
