RGP.pdb
     RDKit          3D

 23 23  0  0  1  0  0  0  0  0999 V2000
   25.7272  -24.9017  -15.0787 N   0  0  0  0  0  0  0  0  0  0  0  0
   25.4791  -24.1758  -16.2810 C   0  0  0  0  0  0  0  0  0  0  0  0
   26.3223  -24.2607  -17.2385 N   0  0  0  0  0  0  0  0  0  0  0  0
   24.3191  -23.3670  -16.4270 N   0  0  0  0  0  0  0  0  0  0  0  0
   23.3505  -23.2719  -15.3184 C   0  0  0  0  0  0  0  0  0  0  0  0
   23.7693  -22.1074  -14.4737 C   0  0  0  0  0  0  0  0  0  0  0  0
   22.8730  -21.7669  -13.3360 C   0  0  0  0  0  0  0  0  0  0  0  0
   21.4301  -21.5158  -13.6971 C   0  0  2  0  0  0  0  0  0  0  0  0
   21.3703  -20.1778  -14.3044 N   0  0  0  0  0  0  0  0  0  0  0  0
   20.6508  -21.4378  -12.4315 C   0  0  0  0  0  0  0  0  0  0  0  0
   20.3586  -20.3178  -11.9505 O   0  0  0  0  0  0  0  0  0  0  0  0
   26.2953  -23.7667  -18.1350 N   0  0  0  0  0  0  0  0  0  0  0  0
   20.2259  -22.6261  -11.7495 C   0  0  0  0  0  0  0  0  0  0  0  0
   19.4468  -22.4506  -10.5580 C   0  0  0  0  0  0  0  0  0  0  0  0
   18.2776  -23.3351  -10.4867 O   0  0  0  0  0  0  0  0  0  0  0  0
   17.4958  -23.3865  -11.4384 N   0  0  0  0  0  0  0  0  0  0  0  0
   18.0727  -24.1147   -9.3164 C   0  0  0  0  0  0  0  0  0  0  0  0
   19.1896  -24.4165   -8.3708 C   0  0  0  0  0  0  0  0  0  0  0  0
   18.5647  -24.9292   -7.1210 C   0  0  0  0  0  0  0  0  0  0  0  0
   17.1105  -24.5577   -7.2603 C   0  0  2  0  0  0  0  0  0  0  0  0
   16.9343  -24.7843   -8.7823 C   0  0  0  0  0  0  0  0  0  0  0  0
   15.6140  -24.3436   -9.1985 O   0  0  0  0  0  0  0  0  0  0  0  0
   15.2689  -23.1958   -9.4469 O   0  0  0  0  0  0  0  0  0  0  0  0
  2  1  1  0
  3  2  2  0
  4  2  1  0
  5  4  1  0
  6  5  1  0
  7  6  1  0
  8  7  1  0
  8 10  1  0
  8  9  1  1
 10 12  1  0
 10 11  2  0
 12 13  1  0
 13 14  1  0
 14 15  2  0
 16 14  1  0
 16 20  1  0
 17 16  1  0
 18 17  1  0
 18 19  1  0
 19 20  1  0
 20 21  1  1
 21 22  2  0
 21 23  1  0
M  END
$$$$
