RGP.pdb
     RDKit          3D

 23 23  0  0  1  0  0  0  0  0999 V2000
   29.2164  -27.4334  -16.7301 N   0  0  0  0  0  0  0  0  0  0  0  0
   27.8581  -27.3736  -17.1610 C   0  0  0  0  0  0  0  0  0  0  0  0
   27.3326  -28.4114  -17.6917 N   0  0  0  0  0  0  0  0  0  0  0  0
   27.0892  -26.1874  -17.0102 N   0  0  0  0  0  0  0  0  0  0  0  0
   27.6530  -25.0397  -16.2746 C   0  0  0  0  0  0  0  0  0  0  0  0
   28.2363  -24.1122  -17.2967 C   0  0  0  0  0  0  0  0  0  0  0  0
   28.1079  -22.6577  -17.0109 C   0  0  0  0  0  0  0  0  0  0  0  0
   26.7042  -22.1073  -17.0560 C   0  0  2  0  0  0  0  0  0  0  0  0
   26.6114  -21.2776  -18.2666 N   0  0  0  0  0  0  0  0  0  0  0  0
   26.5398  -21.1838  -15.9004 C   0  0  0  0  0  0  0  0  0  0  0  0
   26.7177  -19.9532  -16.0590 O   0  0  0  0  0  0  0  0  0  0  0  0
   26.3743  -28.5141  -18.0375 N   0  0  0  0  0  0  0  0  0  0  0  0
   26.1795  -21.6786  -14.6031 C   0  0  0  0  0  0  0  0  0  0  0  0
   25.8814  -20.7042  -13.5934 C   0  0  0  0  0  0  0  0  0  0  0  0
   24.5497  -20.8659  -12.9979 O   0  0  0  0  0  0  0  0  0  0  0  0
   23.5703  -21.0165  -13.7313 N   0  0  0  0  0  0  0  0  0  0  0  0
   24.4194  -20.8443  -11.5830 C   0  0  0  0  0  0  0  0  0  0  0  0
   25.6130  -20.8993  -10.6857 C   0  0  0  0  0  0  0  0  0  0  0  0
   25.1453  -20.5078   -9.3280 C   0  0  0  0  0  0  0  0  0  0  0  0
   23.7915  -19.8912   -9.5713 C   0  0  2  0  0  0  0  0  0  0  0  0
   23.2929  -20.8131  -10.7116 C   0  0  0  0  0  0  0  0  0  0  0  0
   22.0297  -20.3182  -11.2312 O   0  0  0  0  0  0  0  0  0  0  0  0
   20.9177  -20.7851  -11.0219 O   0  0  0  0  0  0  0  0  0  0  0  0
  2  1  1  0
  3  2  2  0
  4  2  1  0
  5  4  1  0
  6  5  1  0
  7  6  1  0
  8  7  1  0
  8 10  1  0
  8  9  1  6
 10 12  1  0
 10 11  2  0
 12 13  1  0
 13 14  1  0
 14 15  2  0
 16 14  1  0
 16 20  1  0
 17 16  1  0
 18 17  1  0
 18 19  1  0
 19 20  1  0
 20 21  1  6
 21 22  2  0
 21 23  1  0
M  END
$$$$
