RGP.pdb
     RDKit          3D

 23 23  0  0  1  0  0  0  0  0999 V2000
   16.6378  -24.8882  -10.5192 N   0  0  0  0  0  0  0  0  0  0  0  0
   17.9682  -25.0594  -10.0347 C   0  0  0  0  0  0  0  0  0  0  0  0
   18.2267  -26.0590   -9.2805 N   0  0  0  0  0  0  0  0  0  0  0  0
   18.9997  -24.1424  -10.3754 N   0  0  0  0  0  0  0  0  0  0  0  0
   19.7925  -24.3567  -11.6009 C   0  0  0  0  0  0  0  0  0  0  0  0
   18.8173  -24.5164  -12.7273 C   0  0  0  0  0  0  0  0  0  0  0  0
   19.0407  -23.6494  -13.9156 C   0  0  0  0  0  0  0  0  0  0  0  0
   20.2323  -22.7280  -13.8338 C   0  0  2  0  0  0  0  0  0  0  0  0
   19.8425  -21.4696  -14.4874 N   0  0  0  0  0  0  0  0  0  0  0  0
   21.3189  -23.3140  -14.6651 C   0  0  0  0  0  0  0  0  0  0  0  0
   21.2375  -23.2684  -15.9150 O   0  0  0  0  0  0  0  0  0  0  0  0
   19.1212  -26.2876   -8.8376 N   0  0  0  0  0  0  0  0  0  0  0  0
   22.4628  -23.9321  -14.0591 C   0  0  0  0  0  0  0  0  0  0  0  0
   23.4414  -24.4990  -14.9415 C   0  0  0  0  0  0  0  0  0  0  0  0
   24.2989  -23.4976  -15.5866 O   0  0  0  0  0  0  0  0  0  0  0  0
   23.8670  -22.3585  -15.7749 N   0  0  0  0  0  0  0  0  0  0  0  0
   25.6132  -23.8664  -15.9817 C   0  0  0  0  0  0  0  0  0  0  0  0
   26.2135  -25.1747  -15.5808 C   0  0  0  0  0  0  0  0  0  0  0  0
   27.4147  -25.3740  -16.4368 C   0  0  0  0  0  0  0  0  0  0  0  0
   27.2502  -24.3595  -17.5394 C   0  0  2  0  0  0  0  0  0  0  0  0
   26.6273  -23.1979  -16.7262 C   0  0  0  0  0  0  0  0  0  0  0  0
   26.2339  -22.1229  -17.6207 O   0  0  0  0  0  0  0  0  0  0  0  0
   25.2111  -22.0641  -18.2906 O   0  0  0  0  0  0  0  0  0  0  0  0
  2  1  1  0
  3  2  2  0
  4  2  1  0
  5  4  1  0
  6  5  1  0
  7  6  1  0
  8  7  1  0
  8 10  1  0
  8  9  1  6
 10 12  1  0
 10 11  2  0
 12 13  1  0
 13 14  1  0
 14 15  2  0
 16 14  1  0
 16 20  1  0
 17 16  1  0
 18 17  1  0
 18 19  1  0
 19 20  1  0
 20 21  1  6
 21 22  2  0
 21 23  1  0
M  END
$$$$
