RGP.pdb
     RDKit          3D

 23 23  0  0  1  0  0  0  0  0999 V2000
   26.0744  -20.8425   -8.1371 N   0  0  0  0  0  0  0  0  0  0  0  0
   24.7232  -21.2027   -8.4173 C   0  0  0  0  0  0  0  0  0  0  0  0
   23.9657  -21.5575   -7.4502 N   0  0  0  0  0  0  0  0  0  0  0  0
   24.2132  -21.1735   -9.7439 N   0  0  0  0  0  0  0  0  0  0  0  0
   24.9912  -20.5169  -10.8115 C   0  0  0  0  0  0  0  0  0  0  0  0
   25.8349  -21.5778  -11.4500 C   0  0  0  0  0  0  0  0  0  0  0  0
   26.7329  -21.1285  -12.5480 C   0  0  0  0  0  0  0  0  0  0  0  0
   26.0477  -20.7691  -13.8429 C   0  0  2  0  0  0  0  0  0  0  0  0
   26.3134  -21.8675  -14.7839 N   0  0  0  0  0  0  0  0  0  0  0  0
   26.7263  -19.5666  -14.3986 C   0  0  0  0  0  0  0  0  0  0  0  0
   27.7226  -19.7060  -15.1462 O   0  0  0  0  0  0  0  0  0  0  0  0
   22.9716  -21.7987   -7.4966 N   0  0  0  0  0  0  0  0  0  0  0  0
   26.2583  -18.2454  -14.0934 C   0  0  0  0  0  0  0  0  0  0  0  0
   26.7728  -17.1708  -14.8922 C   0  0  0  0  0  0  0  0  0  0  0  0
   25.8287  -16.6925  -15.9092 O   0  0  0  0  0  0  0  0  0  0  0  0
   24.9844  -17.4658  -16.3660 N   0  0  0  0  0  0  0  0  0  0  0  0
   25.9107  -15.3428  -16.3461 C   0  0  0  0  0  0  0  0  0  0  0  0
   26.6388  -14.3059  -15.5539 C   0  0  0  0  0  0  0  0  0  0  0  0
   26.8223  -13.1330  -16.4517 C   0  0  0  0  0  0  0  0  0  0  0  0
   26.5232  -13.6744  -17.8263 C   0  0  2  0  0  0  0  0  0  0  0  0
   25.3753  -14.6517  -17.4710 C   0  0  0  0  0  0  0  0  0  0  0  0
   25.0020  -15.4236  -18.6438 O   0  0  0  0  0  0  0  0  0  0  0  0
   25.6451  -16.3271  -19.1617 O   0  0  0  0  0  0  0  0  0  0  0  0
  2  1  1  0
  3  2  2  0
  4  2  1  0
  5  4  1  0
  6  5  1  0
  7  6  1  0
  8  7  1  0
  8 10  1  0
  8  9  1  6
 10 12  1  0
 10 11  2  0
 12 13  1  0
 13 14  1  0
 14 15  2  0
 16 14  1  0
 16 20  1  0
 17 16  1  0
 18 17  1  0
 18 19  1  0
 19 20  1  0
 20 21  1  6
 21 22  2  0
 21 23  1  0
M  END
$$$$
