RGP.pdb
     RDKit          3D

 23 23  0  0  1  0  0  0  0  0999 V2000
   23.3489  -14.8922  -18.8117 N   0  0  0  0  0  0  0  0  0  0  0  0
   24.5805  -14.3141  -19.2394 C   0  0  0  0  0  0  0  0  0  0  0  0
   24.5870  -13.0985  -19.6360 N   0  0  0  0  0  0  0  0  0  0  0  0
   25.7881  -15.0641  -19.2314 N   0  0  0  0  0  0  0  0  0  0  0  0
   26.0960  -15.9409  -18.0857 C   0  0  0  0  0  0  0  0  0  0  0  0
   25.2646  -17.1768  -18.2480 C   0  0  0  0  0  0  0  0  0  0  0  0
   25.4890  -18.2541  -17.2466 C   0  0  0  0  0  0  0  0  0  0  0  0
   26.8576  -18.2780  -16.6126 C   0  0  2  0  0  0  0  0  0  0  0  0
   27.8227  -18.5278  -17.6936 N   0  0  0  0  0  0  0  0  0  0  0  0
   26.9212  -19.4607  -15.7112 C   0  0  0  0  0  0  0  0  0  0  0  0
   26.6614  -20.6005  -16.1634 O   0  0  0  0  0  0  0  0  0  0  0  0
   25.3989  -12.5420  -19.9181 N   0  0  0  0  0  0  0  0  0  0  0  0
   27.2765  -19.3192  -14.3287 C   0  0  0  0  0  0  0  0  0  0  0  0
   26.2512  -18.8623  -13.4355 C   0  0  0  0  0  0  0  0  0  0  0  0
   25.2972  -19.9102  -13.0533 O   0  0  0  0  0  0  0  0  0  0  0  0
   24.4952  -20.3353  -13.8874 N   0  0  0  0  0  0  0  0  0  0  0  0
   25.3199  -20.4122  -11.7241 C   0  0  0  0  0  0  0  0  0  0  0  0
   26.5742  -20.4224  -10.9119 C   0  0  0  0  0  0  0  0  0  0  0  0
   26.1682  -20.6720   -9.5019 C   0  0  0  0  0  0  0  0  0  0  0  0
   24.6805  -20.4298   -9.5013 C   0  0  2  0  0  0  0  0  0  0  0  0
   24.3276  -21.0087  -10.8939 C   0  0  0  0  0  0  0  0  0  0  0  0
   22.9293  -20.7546  -11.1954 O   0  0  0  0  0  0  0  0  0  0  0  0
   22.4617  -19.7470  -11.7096 O   0  0  0  0  0  0  0  0  0  0  0  0
  2  1  1  0
  3  2  2  0
  4  2  1  0
  5  4  1  0
  6  5  1  0
  7  6  1  0
  8  7  1  0
  8 10  1  0
  8  9  1  6
 10 12  1  0
 10 11  2  0
 12 13  1  0
 13 14  1  0
 14 15  2  0
 16 14  1  0
 16 20  1  0
 17 16  1  0
 18 17  1  0
 18 19  1  0
 19 20  1  0
 20 21  1  1
 21 22  2  0
 21 23  1  0
M  END
$$$$
