RGP.pdb
     RDKit          3D

 23 23  0  0  1  0  0  0  0  0999 V2000
   31.0112  -22.4557  -10.8147 N   0  0  0  0  0  0  0  0  0  0  0  0
   30.2611  -21.6813   -9.8810 C   0  0  0  0  0  0  0  0  0  0  0  0
   30.2845  -22.0110   -8.6458 N   0  0  0  0  0  0  0  0  0  0  0  0
   29.4953  -20.5598  -10.3015 N   0  0  0  0  0  0  0  0  0  0  0  0
   28.2096  -20.7709  -10.9933 C   0  0  0  0  0  0  0  0  0  0  0  0
   28.5267  -21.0025  -12.4393 C   0  0  0  0  0  0  0  0  0  0  0  0
   27.3605  -21.1851  -13.3450 C   0  0  0  0  0  0  0  0  0  0  0  0
   26.0097  -20.9215  -12.7275 C   0  0  2  0  0  0  0  0  0  0  0  0
   25.6524  -22.1225  -11.9576 N   0  0  0  0  0  0  0  0  0  0  0  0
   25.0165  -20.8194  -13.8313 C   0  0  0  0  0  0  0  0  0  0  0  0
   24.2724  -21.7946  -14.0890 O   0  0  0  0  0  0  0  0  0  0  0  0
   29.8770  -21.4983   -7.8587 N   0  0  0  0  0  0  0  0  0  0  0  0
   24.8945  -19.6199  -14.6085 C   0  0  0  0  0  0  0  0  0  0  0  0
   23.8887  -19.6052  -15.6311 C   0  0  0  0  0  0  0  0  0  0  0  0
   22.5742  -19.1595  -15.1540 O   0  0  0  0  0  0  0  0  0  0  0  0
   22.3499  -19.1172  -13.9426 N   0  0  0  0  0  0  0  0  0  0  0  0
   21.5858  -18.7859  -16.1041 C   0  0  0  0  0  0  0  0  0  0  0  0
   21.9474  -18.4130  -17.5052 C   0  0  0  0  0  0  0  0  0  0  0  0
   20.6835  -18.4283  -18.2912 C   0  0  0  0  0  0  0  0  0  0  0  0
   19.7102  -19.1619  -17.4043 C   0  0  2  0  0  0  0  0  0  0  0  0
   20.1719  -18.6303  -16.0248 C   0  0  0  0  0  0  0  0  0  0  0  0
   19.4582  -19.3209  -14.9644 O   0  0  0  0  0  0  0  0  0  0  0  0
   19.6727  -20.4538  -14.5537 O   0  0  0  0  0  0  0  0  0  0  0  0
  2  1  1  0
  3  2  2  0
  4  2  1  0
  5  4  1  0
  6  5  1  0
  7  6  1  0
  8  7  1  0
  8 10  1  0
  8  9  1  1
 10 12  1  0
 10 11  2  0
 12 13  1  0
 13 14  1  0
 14 15  2  0
 16 14  1  0
 16 20  1  0
 17 16  1  0
 18 17  1  0
 18 19  1  0
 19 20  1  0
 20 21  1  6
 21 22  2  0
 21 23  1  0
M  END
$$$$
