SSQ.pdb
     RDKit          3D

 22 21  0  0  1  0  0  0  0  0999 V2000
   -0.7885  -26.6668   24.4404 O   0  0  0  0  0  0  0  0  0  0  0  0
   -1.1760  -25.6704   25.3337 C   0  0  0  0  0  0  0  0  0  0  0  0
   -2.6323  -25.2775   25.1148 C   0  0  2  0  0  0  0  0  0  0  0  0
   -2.8563  -24.7630   23.7977 N   0  0  0  0  0  0  0  0  0  0  0  0
   -3.0562  -24.2971   26.1577 C   0  0  0  0  0  0  0  0  0  0  0  0
   -2.9906  -24.5496   27.3818 O   0  0  0  0  0  0  0  0  0  0  0  0
   -5.1368  -21.0182   24.8447 O   0  0  0  0  0  0  0  0  0  0  0  0
   -4.3873  -20.8168   25.9923 C   0  0  0  0  0  0  0  0  0  0  0  0
   -4.0761  -22.1099   26.7169 C   0  0  2  0  0  0  0  0  0  0  0  0
   -3.5478  -23.0414   25.7393 N   0  0  0  0  0  0  0  0  0  0  0  0
   -5.4059  -22.6605   27.1632 C   0  0  0  0  0  0  0  0  0  0  0  0
   -5.9284  -23.5878   26.4940 O   0  0  0  0  0  0  0  0  0  0  0  0
   -6.0961  -26.7231   29.8826 N   0  0  0  0  0  0  0  0  0  0  0  0
   -7.4555  -26.3802   30.1233 C   0  0  0  0  0  0  0  0  0  0  0  0
   -8.1758  -27.2380   30.6691 O   0  0  0  0  0  0  0  0  0  0  0  0
   -7.9935  -25.0431   29.7349 C   0  0  0  0  0  0  0  0  0  0  0  0
   -6.8817  -24.2561   29.1206 C   0  0  0  0  0  0  0  0  0  0  0  0
   -7.2841  -22.8566   28.7461 C   0  0  2  0  0  0  0  0  0  0  0  0
   -6.0839  -22.1842   28.2899 N   0  0  0  0  0  0  0  0  0  0  0  0
   -7.8897  -22.0725   29.8170 C   0  0  0  0  0  0  0  0  0  0  0  0
   -9.0946  -22.1407   30.1714 O   0  0  0  0  0  0  0  0  0  0  0  0
   -7.1090  -21.1703   30.5234 O   0  0  0  0  0  0  0  0  0  0  0  0
  2  1  1  0
  3  2  1  0
  3  4  1  6
  5  3  1  0
  5 10  1  0
  6  5  2  0
  9  8  1  6
  8  7  1  0
  9 10  1  0
  9 11  1  0
 11 19  1  0
 11 12  2  0
 14 16  1  0
 14 13  1  0
 15 14  2  0
 18 17  1  1
 17 16  1  0
 18 20  1  0
 19 18  1  0
 20 22  1  0
 21 20  2  0
M  END
$$$$
