SSQ.pdb
     RDKit          3D

 22 21  0  0  1  0  0  0  0  0999 V2000
    9.8449  -17.4650   16.7342 O   0  0  0  0  0  0  0  0  0  0  0  0
   10.5002  -17.1024   17.9089 C   0  0  0  0  0  0  0  0  0  0  0  0
    9.7523  -17.6182   19.1327 C   0  0  2  0  0  0  0  0  0  0  0  0
    8.3611  -17.8229   18.8634 N   0  0  0  0  0  0  0  0  0  0  0  0
    9.9492  -16.6835   20.2799 C   0  0  0  0  0  0  0  0  0  0  0  0
   11.0836  -16.3069   20.6510 O   0  0  0  0  0  0  0  0  0  0  0  0
    6.5605  -15.1113   22.2336 O   0  0  0  0  0  0  0  0  0  0  0  0
    7.7365  -14.3933   22.0888 C   0  0  0  0  0  0  0  0  0  0  0  0
    8.9616  -15.2836   22.0692 C   0  0  2  0  0  0  0  0  0  0  0  0
    8.8088  -16.2117   20.9656 N   0  0  0  0  0  0  0  0  0  0  0  0
    8.8948  -16.1013   23.3332 C   0  0  0  0  0  0  0  0  0  0  0  0
    8.3300  -17.2239   23.2946 O   0  0  0  0  0  0  0  0  0  0  0  0
   11.8327  -19.9717   24.3760 N   0  0  0  0  0  0  0  0  0  0  0  0
   12.3363  -19.3301   25.5415 C   0  0  0  0  0  0  0  0  0  0  0  0
   13.2530  -19.9030   26.1612 O   0  0  0  0  0  0  0  0  0  0  0  0
   11.7846  -18.0212   26.0001 C   0  0  0  0  0  0  0  0  0  0  0  0
   10.7635  -17.5737   25.0051 C   0  0  0  0  0  0  0  0  0  0  0  0
    9.7477  -16.6285   25.5841 C   0  0  2  0  0  0  0  0  0  0  0  0
    9.4343  -15.6651   24.5476 N   0  0  0  0  0  0  0  0  0  0  0  0
   10.1708  -15.9142   26.7838 C   0  0  0  0  0  0  0  0  0  0  0  0
   10.5589  -14.7182   26.8148 O   0  0  0  0  0  0  0  0  0  0  0  0
   10.1585  -16.5705   28.0051 O   0  0  0  0  0  0  0  0  0  0  0  0
  2  1  1  0
  3  2  1  0
  3  4  1  6
  5  3  1  0
  5 10  1  0
  6  5  2  0
  9  8  1  1
  8  7  1  0
  9 10  1  0
  9 11  1  0
 11 19  1  0
 11 12  2  0
 14 16  1  0
 14 13  1  0
 15 14  2  0
 18 17  1  6
 17 16  1  0
 18 20  1  0
 19 18  1  0
 20 22  1  0
 21 20  2  0
M  END
$$$$
