SSQ.pdb
     RDKit          3D

 22 21  0  0  1  0  0  0  0  0999 V2000
    8.0738  -12.8936   16.7398 O   0  0  0  0  0  0  0  0  0  0  0  0
    7.8424  -12.8513   18.1130 C   0  0  0  0  0  0  0  0  0  0  0  0
    8.7373  -13.8424   18.8480 C   0  0  2  0  0  0  0  0  0  0  0  0
    8.8555  -15.0827   18.1428 N   0  0  0  0  0  0  0  0  0  0  0  0
    8.2277  -14.0553   20.2349 C   0  0  0  0  0  0  0  0  0  0  0  0
    8.1107  -13.1193   21.0574 O   0  0  0  0  0  0  0  0  0  0  0  0
    7.5099  -17.9860   21.6340 O   0  0  0  0  0  0  0  0  0  0  0  0
    6.6415  -16.9480   21.9306 C   0  0  0  0  0  0  0  0  0  0  0  0
    7.3330  -15.6007   21.9519 C   0  0  2  0  0  0  0  0  0  0  0  0
    7.8668  -15.3634   20.6247 N   0  0  0  0  0  0  0  0  0  0  0  0
    8.5164  -15.7612   22.8708 C   0  0  0  0  0  0  0  0  0  0  0  0
    9.6620  -15.8674   22.3637 O   0  0  0  0  0  0  0  0  0  0  0  0
    8.8811  -13.4068   28.4487 N   0  0  0  0  0  0  0  0  0  0  0  0
    9.9902  -14.2951   28.5138 C   0  0  0  0  0  0  0  0  0  0  0  0
   10.5965  -14.3777   29.5993 O   0  0  0  0  0  0  0  0  0  0  0  0
   10.4077  -15.0952   27.3249 C   0  0  0  0  0  0  0  0  0  0  0  0
    9.3026  -15.0450   26.3203 C   0  0  0  0  0  0  0  0  0  0  0  0
    9.5850  -15.8602   25.0889 C   0  0  2  0  0  0  0  0  0  0  0  0
    8.3952  -15.7971   24.2637 N   0  0  0  0  0  0  0  0  0  0  0  0
    9.9226  -17.2590   25.3289 C   0  0  0  0  0  0  0  0  0  0  0  0
    9.1033  -18.2133   25.3177 O   0  0  0  0  0  0  0  0  0  0  0  0
   11.2390  -17.6045   25.5938 O   0  0  0  0  0  0  0  0  0  0  0  0
  2  1  1  0
  3  2  1  0
  3  4  1  6
  5  3  1  0
  5 10  1  0
  6  5  2  0
  9  8  1  6
  8  7  1  0
  9 10  1  0
  9 11  1  0
 11 19  1  0
 11 12  2  0
 14 16  1  0
 14 13  1  0
 15 14  2  0
 18 17  1  1
 17 16  1  0
 18 20  1  0
 19 18  1  0
 20 22  1  0
 21 20  2  0
M  END
$$$$
