SSQ.pdb
     RDKit          3D

 22 21  0  0  1  0  0  0  0  0999 V2000
    9.0846  -16.9926   15.4199 O   0  0  0  0  0  0  0  0  0  0  0  0
    7.9001  -16.3679   15.0357 C   0  0  0  0  0  0  0  0  0  0  0  0
    8.1249  -14.8826   14.7783 C   0  0  2  0  0  0  0  0  0  0  0  0
    8.8262  -14.6516   13.5517 N   0  0  0  0  0  0  0  0  0  0  0  0
    8.8421  -14.2693   15.9350 C   0  0  0  0  0  0  0  0  0  0  0  0
   10.0612  -13.9891   15.8961 O   0  0  0  0  0  0  0  0  0  0  0  0
    6.8792  -14.0700   19.5762 O   0  0  0  0  0  0  0  0  0  0  0  0
    7.6957  -13.0008   19.2450 C   0  0  0  0  0  0  0  0  0  0  0  0
    8.7690  -13.3779   18.2452 C   0  0  2  0  0  0  0  0  0  0  0  0
    8.1109  -13.9989   17.1121 N   0  0  0  0  0  0  0  0  0  0  0  0
    9.5897  -14.4527   18.9099 C   0  0  0  0  0  0  0  0  0  0  0  0
    9.3219  -15.6555   18.6601 O   0  0  0  0  0  0  0  0  0  0  0  0
   15.4838  -15.3422   17.6240 N   0  0  0  0  0  0  0  0  0  0  0  0
   14.6285  -14.5678   18.4560 C   0  0  0  0  0  0  0  0  0  0  0  0
   15.1325  -13.5957   19.0505 O   0  0  0  0  0  0  0  0  0  0  0  0
   13.1837  -14.9106   18.6077 C   0  0  0  0  0  0  0  0  0  0  0  0
   12.8632  -14.9356   20.0670 C   0  0  0  0  0  0  0  0  0  0  0  0
   11.4213  -15.2533   20.3507 C   0  0  2  0  0  0  0  0  0  0  0  0
   10.6367  -14.1698   19.7930 N   0  0  0  0  0  0  0  0  0  0  0  0
   11.0812  -15.4087   21.7609 C   0  0  0  0  0  0  0  0  0  0  0  0
   10.2935  -14.6661   22.4013 O   0  0  0  0  0  0  0  0  0  0  0  0
   11.6498  -16.4441   22.4869 O   0  0  0  0  0  0  0  0  0  0  0  0
  2  1  1  0
  3  2  1  0
  3  4  1  6
  5  3  1  0
  5 10  1  0
  6  5  2  0
  9  8  1  1
  8  7  1  0
  9 10  1  0
  9 11  1  0
 11 19  1  0
 11 12  2  0
 14 16  1  0
 14 13  1  0
 15 14  2  0
 18 17  1  1
 17 16  1  0
 18 20  1  0
 19 18  1  0
 20 22  1  0
 21 20  2  0
M  END
$$$$
