SSQ.pdb
     RDKit          3D

 22 21  0  0  1  0  0  0  0  0999 V2000
   13.8628  -19.3968   19.2251 O   0  0  0  0  0  0  0  0  0  0  0  0
   12.6784  -18.9202   18.6673 C   0  0  0  0  0  0  0  0  0  0  0  0
   12.7903  -17.4371   18.3337 C   0  0  2  0  0  0  0  0  0  0  0  0
   13.7483  -17.1917   17.2985 N   0  0  0  0  0  0  0  0  0  0  0  0
   13.1165  -16.6621   19.5672 C   0  0  0  0  0  0  0  0  0  0  0  0
   14.2316  -16.1225   19.7449 O   0  0  0  0  0  0  0  0  0  0  0  0
   10.2598  -16.5599   22.5500 O   0  0  0  0  0  0  0  0  0  0  0  0
   11.0604  -15.4389   22.4020 C   0  0  0  0  0  0  0  0  0  0  0  0
   12.3931  -15.7583   21.7573 C   0  0  2  0  0  0  0  0  0  0  0  0
   12.1249  -16.5382   20.5646 N   0  0  0  0  0  0  0  0  0  0  0  0
   13.1060  -16.6727   22.7197 C   0  0  0  0  0  0  0  0  0  0  0  0
   12.9579  -17.9147   22.5916 O   0  0  0  0  0  0  0  0  0  0  0  0
   18.9721  -15.3945   22.8607 N   0  0  0  0  0  0  0  0  0  0  0  0
   18.0535  -15.7621   23.8827 C   0  0  0  0  0  0  0  0  0  0  0  0
   18.4107  -15.5910   25.0641 O   0  0  0  0  0  0  0  0  0  0  0  0
   16.7146  -16.3306   23.5476 C   0  0  0  0  0  0  0  0  0  0  0  0
   15.9960  -16.6113   24.8273 C   0  0  0  0  0  0  0  0  0  0  0  0
   14.6033  -17.1387   24.6204 C   0  0  2  0  0  0  0  0  0  0  0  0
   13.9254  -16.1992   23.7495 N   0  0  0  0  0  0  0  0  0  0  0  0
   13.8145  -17.3143   25.8350 C   0  0  0  0  0  0  0  0  0  0  0  0
   12.7857  -16.6542   26.1314 O   0  0  0  0  0  0  0  0  0  0  0  0
   14.1960  -18.2740   26.7601 O   0  0  0  0  0  0  0  0  0  0  0  0
  2  1  1  0
  3  2  1  0
  3  4  1  6
  5  3  1  0
  5 10  1  0
  6  5  2  0
  9  8  1  1
  8  7  1  0
  9 10  1  0
  9 11  1  0
 11 19  1  0
 11 12  2  0
 14 16  1  0
 14 13  1  0
 15 14  2  0
 18 17  1  1
 17 16  1  0
 18 20  1  0
 19 18  1  0
 20 22  1  0
 21 20  2  0
M  END
$$$$
