SSQ.pdb
     RDKit          3D

 22 21  0  0  1  0  0  0  0  0999 V2000
    7.6673  -15.1263   13.2505 O   0  0  0  0  0  0  0  0  0  0  0  0
    7.6874  -15.8777   14.4235 C   0  0  0  0  0  0  0  0  0  0  0  0
    7.1226  -17.2736   14.1872 C   0  0  2  0  0  0  0  0  0  0  0  0
    5.7559  -17.2338   13.7628 N   0  0  0  0  0  0  0  0  0  0  0  0
    7.2826  -18.1016   15.4189 C   0  0  0  0  0  0  0  0  0  0  0  0
    6.3751  -18.2151   16.2733 O   0  0  0  0  0  0  0  0  0  0  0  0
    9.4562  -21.7418   17.5066 O   0  0  0  0  0  0  0  0  0  0  0  0
    9.2150  -20.9167   16.4201 C   0  0  0  0  0  0  0  0  0  0  0  0
    8.7158  -19.5470   16.8309 C   0  0  2  0  0  0  0  0  0  0  0  0
    8.5055  -18.7781   15.6196 N   0  0  0  0  0  0  0  0  0  0  0  0
    9.8606  -18.8954   17.5625 C   0  0  0  0  0  0  0  0  0  0  0  0
   10.7894  -18.3800   16.8898 O   0  0  0  0  0  0  0  0  0  0  0  0
    9.4900  -19.2299   24.1549 N   0  0  0  0  0  0  0  0  0  0  0  0
   10.2958  -18.4327   23.2954 C   0  0  0  0  0  0  0  0  0  0  0  0
   10.6272  -17.3031   23.7038 O   0  0  0  0  0  0  0  0  0  0  0  0
   10.7251  -18.9346   21.9568 C   0  0  0  0  0  0  0  0  0  0  0  0
   10.6143  -17.8081   20.9813 C   0  0  0  0  0  0  0  0  0  0  0  0
   11.0583  -18.1810   19.5941 C   0  0  2  0  0  0  0  0  0  0  0  0
    9.9345  -18.8392   18.9581 N   0  0  0  0  0  0  0  0  0  0  0  0
   12.2229  -19.0569   19.5246 C   0  0  0  0  0  0  0  0  0  0  0  0
   12.1925  -20.3104   19.6243 O   0  0  0  0  0  0  0  0  0  0  0  0
   13.4795  -18.5027   19.3345 O   0  0  0  0  0  0  0  0  0  0  0  0
  2  1  1  0
  3  2  1  0
  3  4  1  1
  5  3  1  0
  5 10  1  0
  6  5  2  0
  9  8  1  6
  8  7  1  0
  9 10  1  0
  9 11  1  0
 11 19  1  0
 11 12  2  0
 14 16  1  0
 14 13  1  0
 15 14  2  0
 18 17  1  1
 17 16  1  0
 18 20  1  0
 19 18  1  0
 20 22  1  0
 21 20  2  0
M  END
$$$$
