SSQ.pdb
     RDKit          3D

 22 21  0  0  1  0  0  0  0  0999 V2000
    7.8136  -17.6961   14.3792 O   0  0  0  0  0  0  0  0  0  0  0  0
    8.7954  -16.8838   14.9425 C   0  0  0  0  0  0  0  0  0  0  0  0
    8.4413  -15.4098   14.7837 C   0  0  2  0  0  0  0  0  0  0  0  0
    8.7008  -14.9363   13.4578 N   0  0  0  0  0  0  0  0  0  0  0  0
    9.1741  -14.5989   15.8006 C   0  0  0  0  0  0  0  0  0  0  0  0
   10.3508  -14.2097   15.6268 O   0  0  0  0  0  0  0  0  0  0  0  0
    7.4345  -14.0816   19.5596 O   0  0  0  0  0  0  0  0  0  0  0  0
    8.1596  -13.0319   19.0193 C   0  0  0  0  0  0  0  0  0  0  0  0
    9.1976  -13.4974   18.0194 C   0  0  2  0  0  0  0  0  0  0  0  0
    8.5079  -14.2633   16.9993 N   0  0  0  0  0  0  0  0  0  0  0  0
   10.0794  -14.4662   18.7641 C   0  0  0  0  0  0  0  0  0  0  0  0
    9.8575  -15.6977   18.6424 O   0  0  0  0  0  0  0  0  0  0  0  0
   16.5823  -14.2457   21.6801 N   0  0  0  0  0  0  0  0  0  0  0  0
   15.8032  -14.5097   20.5196 C   0  0  0  0  0  0  0  0  0  0  0  0
   16.2391  -14.0939   19.4289 O   0  0  0  0  0  0  0  0  0  0  0  0
   14.5139  -15.2565   20.6103 C   0  0  0  0  0  0  0  0  0  0  0  0
   13.4344  -14.3886   20.0498 C   0  0  0  0  0  0  0  0  0  0  0  0
   12.0761  -15.0317   20.0927 C   0  0  2  0  0  0  0  0  0  0  0  0
   11.1342  -14.0541   19.5849 N   0  0  0  0  0  0  0  0  0  0  0  0
   11.6356  -15.4751   21.4109 C   0  0  0  0  0  0  0  0  0  0  0  0
   10.7413  -14.9201   22.0995 O   0  0  0  0  0  0  0  0  0  0  0  0
   12.2244  -16.5920   21.9839 O   0  0  0  0  0  0  0  0  0  0  0  0
  2  1  1  0
  3  2  1  0
  3  4  1  6
  5  3  1  0
  5 10  1  0
  6  5  2  0
  9  8  1  1
  8  7  1  0
  9 10  1  0
  9 11  1  0
 11 19  1  0
 11 12  2  0
 14 16  1  0
 14 13  1  0
 15 14  2  0
 18 17  1  1
 17 16  1  0
 18 20  1  0
 19 18  1  0
 20 22  1  0
 21 20  2  0
M  END
$$$$
