SSQ.pdb
     RDKit          3D

 22 21  0  0  1  0  0  0  0  0999 V2000
    3.4584  -21.4085   24.1041 O   0  0  0  0  0  0  0  0  0  0  0  0
    3.4170  -21.9683   22.8290 C   0  0  0  0  0  0  0  0  0  0  0  0
    4.4977  -21.3711   21.9354 C   0  0  2  0  0  0  0  0  0  0  0  0
    4.4908  -21.9502   20.6261 N   0  0  0  0  0  0  0  0  0  0  0  0
    5.8335  -21.5194   22.5852 C   0  0  0  0  0  0  0  0  0  0  0  0
    6.3559  -22.6369   22.7970 O   0  0  0  0  0  0  0  0  0  0  0  0
    8.2082  -18.1448   22.9742 O   0  0  0  0  0  0  0  0  0  0  0  0
    8.7293  -19.4259   22.8924 C   0  0  0  0  0  0  0  0  0  0  0  0
    7.8454  -20.4562   23.5641 C   0  0  2  0  0  0  0  0  0  0  0  0
    6.5260  -20.3514   22.9720 N   0  0  0  0  0  0  0  0  0  0  0  0
    7.7120  -20.0105   24.9973 C   0  0  0  0  0  0  0  0  0  0  0  0
    6.8234  -19.1690   25.2857 O   0  0  0  0  0  0  0  0  0  0  0  0
    7.3858  -23.1955   29.7927 N   0  0  0  0  0  0  0  0  0  0  0  0
    8.7592  -23.0760   29.4419 C   0  0  0  0  0  0  0  0  0  0  0  0
    9.5309  -23.9740   29.8298 O   0  0  0  0  0  0  0  0  0  0  0  0
    9.2518  -21.9175   28.6398 C   0  0  0  0  0  0  0  0  0  0  0  0
    8.0749  -21.0731   28.2728 C   0  0  0  0  0  0  0  0  0  0  0  0
    8.4263  -19.9356   27.3545 C   0  0  2  0  0  0  0  0  0  0  0  0
    8.5342  -20.4928   26.0208 N   0  0  0  0  0  0  0  0  0  0  0  0
    9.6628  -19.2314   27.6762 C   0  0  0  0  0  0  0  0  0  0  0  0
   10.7043  -19.2391   26.9710 O   0  0  0  0  0  0  0  0  0  0  0  0
    9.7357  -18.4842   28.8418 O   0  0  0  0  0  0  0  0  0  0  0  0
  2  1  1  0
  3  2  1  0
  3  4  1  6
  5  3  1  0
  5 10  1  0
  6  5  2  0
  9  8  1  6
  8  7  1  0
  9 10  1  0
  9 11  1  0
 11 19  1  0
 11 12  2  0
 14 16  1  0
 14 13  1  0
 15 14  2  0
 18 17  1  1
 17 16  1  0
 18 20  1  0
 19 18  1  0
 20 22  1  0
 21 20  2  0
M  END
$$$$
