SSQ.pdb
     RDKit          3D

 22 21  0  0  1  0  0  0  0  0999 V2000
   15.0530  -17.9844   21.5518 O   0  0  0  0  0  0  0  0  0  0  0  0
   14.1293  -18.3087   20.5606 C   0  0  0  0  0  0  0  0  0  0  0  0
   13.6577  -17.0601   19.8245 C   0  0  2  0  0  0  0  0  0  0  0  0
   14.7538  -16.2883   19.3220 N   0  0  0  0  0  0  0  0  0  0  0  0
   12.7853  -16.2425   20.7183 C   0  0  0  0  0  0  0  0  0  0  0  0
   13.1303  -15.1183   21.1467 O   0  0  0  0  0  0  0  0  0  0  0  0
    9.2298  -17.9572   21.9924 O   0  0  0  0  0  0  0  0  0  0  0  0
    9.2814  -16.5766   21.8899 C   0  0  0  0  0  0  0  0  0  0  0  0
   10.6901  -16.0367   22.0240 C   0  0  2  0  0  0  0  0  0  0  0  0
   11.5267  -16.7639   21.0891 N   0  0  0  0  0  0  0  0  0  0  0  0
   11.1486  -16.4251   23.4058 C   0  0  0  0  0  0  0  0  0  0  0  0
   11.9797  -17.3612   23.5233 O   0  0  0  0  0  0  0  0  0  0  0  0
   10.0456  -13.2190   28.5816 N   0  0  0  0  0  0  0  0  0  0  0  0
   10.7124  -14.3518   29.1254 C   0  0  0  0  0  0  0  0  0  0  0  0
   10.9110  -14.3652   30.3554 O   0  0  0  0  0  0  0  0  0  0  0  0
   11.1553  -15.4783   28.2519 C   0  0  0  0  0  0  0  0  0  0  0  0
   10.7954  -15.1411   26.8413 C   0  0  0  0  0  0  0  0  0  0  0  0
   11.1738  -16.2163   25.8610 C   0  0  2  0  0  0  0  0  0  0  0  0
   10.6894  -15.7888   24.5636 N   0  0  0  0  0  0  0  0  0  0  0  0
   10.6423  -17.5433   26.1524 C   0  0  0  0  0  0  0  0  0  0  0  0
   11.1739  -18.3822   26.9243 O   0  0  0  0  0  0  0  0  0  0  0  0
    9.4607  -17.9490   25.5513 O   0  0  0  0  0  0  0  0  0  0  0  0
  2  1  1  0
  3  2  1  0
  3  4  1  1
  5  3  1  0
  5 10  1  0
  6  5  2  0
  9  8  1  1
  8  7  1  0
  9 10  1  0
  9 11  1  0
 11 19  1  0
 11 12  2  0
 14 16  1  0
 14 13  1  0
 15 14  2  0
 18 17  1  1
 17 16  1  0
 18 20  1  0
 19 18  1  0
 20 22  1  0
 21 20  2  0
M  END
$$$$
