SSQ.pdb
     RDKit          3D

 22 21  0  0  1  0  0  0  0  0999 V2000
   10.6477  -19.0150   19.4708 O   0  0  0  0  0  0  0  0  0  0  0  0
    9.5047  -18.2377   19.2965 C   0  0  0  0  0  0  0  0  0  0  0  0
    9.8623  -16.7611   19.1745 C   0  0  2  0  0  0  0  0  0  0  0  0
   10.6079  -16.4870   17.9834 N   0  0  0  0  0  0  0  0  0  0  0  0
   10.6037  -16.3157   20.3912 C   0  0  0  0  0  0  0  0  0  0  0  0
   11.8054  -15.9680   20.3545 O   0  0  0  0  0  0  0  0  0  0  0  0
    8.4428  -15.7702   23.8564 O   0  0  0  0  0  0  0  0  0  0  0  0
    9.6680  -15.1409   23.7072 C   0  0  0  0  0  0  0  0  0  0  0  0
   10.6245  -15.9309   22.8383 C   0  0  2  0  0  0  0  0  0  0  0  0
    9.9167  -16.2889   21.6244 N   0  0  0  0  0  0  0  0  0  0  0  0
   10.8866  -17.2161   23.5800 C   0  0  0  0  0  0  0  0  0  0  0  0
   10.1794  -18.2206   23.3121 O   0  0  0  0  0  0  0  0  0  0  0  0
   16.1527  -19.4813   24.9882 N   0  0  0  0  0  0  0  0  0  0  0  0
   15.3765  -19.7103   23.8183 C   0  0  0  0  0  0  0  0  0  0  0  0
   15.9724  -20.1285   22.8070 O   0  0  0  0  0  0  0  0  0  0  0  0
   13.9054  -19.4578   23.8077 C   0  0  0  0  0  0  0  0  0  0  0  0
   13.5114  -18.9528   25.1577 C   0  0  0  0  0  0  0  0  0  0  0  0
   12.0537  -18.5971   25.2541 C   0  0  2  0  0  0  0  0  0  0  0  0
   11.8829  -17.3397   24.5538 N   0  0  0  0  0  0  0  0  0  0  0  0
   11.5319  -18.4603   26.6095 C   0  0  0  0  0  0  0  0  0  0  0  0
   11.0789  -17.3974   27.1066 O   0  0  0  0  0  0  0  0  0  0  0  0
   11.5169  -19.5655   27.4466 O   0  0  0  0  0  0  0  0  0  0  0  0
  2  1  1  0
  3  2  1  0
  3  4  1  6
  5  3  1  0
  5 10  1  0
  6  5  2  0
  9  8  1  1
  8  7  1  0
  9 10  1  0
  9 11  1  0
 11 19  1  0
 11 12  2  0
 14 16  1  0
 14 13  1  0
 15 14  2  0
 18 17  1  1
 17 16  1  0
 18 20  1  0
 19 18  1  0
 20 22  1  0
 21 20  2  0
M  END
$$$$
