SSQ.pdb
     RDKit          3D

 22 21  0  0  1  0  0  0  0  0999 V2000
    9.0575  -15.7653   15.7464 O   0  0  0  0  0  0  0  0  0  0  0  0
    8.2310  -15.8635   16.8637 C   0  0  0  0  0  0  0  0  0  0  0  0
    7.7488  -14.4877   17.3085 C   0  0  2  0  0  0  0  0  0  0  0  0
    8.0418  -13.4775   16.3373 N   0  0  0  0  0  0  0  0  0  0  0  0
    8.3383  -14.1478   18.6372 C   0  0  0  0  0  0  0  0  0  0  0  0
    9.4142  -13.5191   18.7525 O   0  0  0  0  0  0  0  0  0  0  0  0
    6.4219  -15.6088   22.0095 O   0  0  0  0  0  0  0  0  0  0  0  0
    7.0741  -14.3911   22.1162 C   0  0  0  0  0  0  0  0  0  0  0  0
    8.1950  -14.2427   21.1085 C   0  0  2  0  0  0  0  0  0  0  0  0
    7.6504  -14.5543   19.8013 N   0  0  0  0  0  0  0  0  0  0  0  0
    9.1859  -15.3303   21.4337 C   0  0  0  0  0  0  0  0  0  0  0  0
    9.1633  -16.3879   20.7542 O   0  0  0  0  0  0  0  0  0  0  0  0
   15.8844  -17.3298   22.3724 N   0  0  0  0  0  0  0  0  0  0  0  0
   14.7395  -16.4856   22.3785 C   0  0  0  0  0  0  0  0  0  0  0  0
   14.9255  -15.2651   22.2104 O   0  0  0  0  0  0  0  0  0  0  0  0
   13.3703  -17.0452   22.5789 C   0  0  0  0  0  0  0  0  0  0  0  0
   12.3930  -15.9169   22.5100 C   0  0  0  0  0  0  0  0  0  0  0  0
   10.9781  -16.3418   22.7890 C   0  0  2  0  0  0  0  0  0  0  0  0
   10.1299  -15.2138   22.4592 N   0  0  0  0  0  0  0  0  0  0  0  0
   10.7081  -16.7531   24.1625 C   0  0  0  0  0  0  0  0  0  0  0  0
   10.0156  -16.1054   24.9889 O   0  0  0  0  0  0  0  0  0  0  0  0
   11.2386  -17.9451   24.6315 O   0  0  0  0  0  0  0  0  0  0  0  0
  2  1  1  0
  3  2  1  0
  3  4  1  6
  5  3  1  0
  5 10  1  0
  6  5  2  0
  9  8  1  1
  8  7  1  0
  9 10  1  0
  9 11  1  0
 11 19  1  0
 11 12  2  0
 14 16  1  0
 14 13  1  0
 15 14  2  0
 18 17  1  1
 17 16  1  0
 18 20  1  0
 19 18  1  0
 20 22  1  0
 21 20  2  0
M  END
$$$$
