RAM.pdb
     RDKit          3D

 25 24  0  0  1  0  0  0  0  0999 V2000
    9.4424  -18.4838   25.7662 N   0  0  0  0  0  0  0  0  0  0  0  0
    8.8181  -19.4973   26.5475 C   0  0  0  0  0  0  0  0  0  0  0  0
    8.8300  -19.4011   27.8289 N   0  0  0  0  0  0  0  0  0  0  0  0
    8.1886  -20.6011   25.9157 N   0  0  0  0  0  0  0  0  0  0  0  0
    6.8769  -20.4375   25.3300 C   0  0  0  0  0  0  0  0  0  0  0  0
    7.0618  -19.7382   23.9901 C   0  0  0  0  0  0  0  0  0  0  0  0
    5.9084  -18.7759   23.8595 C   0  0  0  0  0  0  0  0  0  0  0  0
    5.7405  -18.2916   22.4159 C   0  0  2  0  0  0  0  0  0  0  0  0
    6.3669  -19.2855   21.5631 N   0  0  0  0  0  0  0  0  0  0  0  0
    6.4697  -16.9935   22.3606 C   0  0  0  0  0  0  0  0  0  0  0  0
    5.9578  -16.0237   22.9770 O   0  0  0  0  0  0  0  0  0  0  0  0
    8.4420  -20.1121   28.4735 C   0  0  0  0  0  0  0  0  0  0  0  0
    7.3182  -14.6440   20.7377 C   0  0  1  0  0  0  0  0  0  0  0  0
    8.3313  -15.5048   21.5090 N   0  0  0  0  0  0  0  0  0  0  0  0
    7.6750  -16.7873   21.6738 C   0  0  0  0  0  0  0  0  0  0  0  0
    8.6775  -14.8817   22.7977 O   0  0  0  0  0  0  0  0  0  0  0  0
    9.3104  -13.7975   22.8399 C   0  0  0  0  0  0  0  0  0  0  0  0
    6.0934  -11.0023   26.4460 S   0  0  0  0  0  0  0  0  0  0  0  0
    6.4682  -12.2997   27.6586 C   0  0  0  0  0  0  0  0  0  0  0  0
    7.8201  -13.3488   27.1152 C   0  0  0  0  0  0  0  0  0  0  0  0
    7.5660  -14.0307   25.7936 C   0  0  1  0  0  0  0  0  0  0  0  0
    8.7484  -14.8415   25.3175 N   0  0  0  0  0  0  0  0  0  0  0  0
    8.3220  -15.4591   24.0515 C   0  0  0  0  0  0  0  0  0  0  0  0
    9.2329  -15.8378   26.2665 O   0  0  0  0  0  0  0  0  0  0  0  0
   10.1122  -15.5654   27.2996 O   0  0  0  0  0  0  0  0  0  0  0  0
  1  2  1  0
  2  3  2  0
  4  2  1  0
  5  4  1  0
  6  5  1  0
  7  6  1  0
  7  8  1  0
  8  9  1  6
  8 10  1  0
 10 11  2  0
 13 12  1  6
 14 10  1  0
 14 13  1  0
 15 13  1  0
 15 16  2  0
 17 18  1  0
 19 20  1  0
 19 18  1  0
 21 20  1  6
 21 23  1  0
 21 22  1  0
 22 15  1  0
 23 24  1  0
 25 23  2  0
M  END
$$$$
