RAM.pdb
     RDKit          3D

 25 24  0  0  1  0  0  0  0  0999 V2000
    7.9806  -12.9508   16.3372 N   0  0  0  0  0  0  0  0  0  0  0  0
    8.2364  -14.0030   15.4126 C   0  0  0  0  0  0  0  0  0  0  0  0
    7.8415  -13.8814   14.1958 N   0  0  0  0  0  0  0  0  0  0  0  0
    8.9215  -15.1728   15.8322 N   0  0  0  0  0  0  0  0  0  0  0  0
    9.1548  -15.3985   17.2411 C   0  0  0  0  0  0  0  0  0  0  0  0
    8.0473  -16.3145   17.7439 C   0  0  0  0  0  0  0  0  0  0  0  0
    7.6747  -15.8053   19.1133 C   0  0  0  0  0  0  0  0  0  0  0  0
    8.5637  -16.4155   20.2015 C   0  0  2  0  0  0  0  0  0  0  0  0
    8.7442  -17.8152   19.8613 N   0  0  0  0  0  0  0  0  0  0  0  0
    7.7857  -16.2607   21.4626 C   0  0  0  0  0  0  0  0  0  0  0  0
    7.4606  -15.0915   21.7937 O   0  0  0  0  0  0  0  0  0  0  0  0
    8.0263  -14.5730   13.4480 C   0  0  0  0  0  0  0  0  0  0  0  0
    6.7671  -18.5765   24.1973 C   0  0  2  0  0  0  0  0  0  0  0  0
    6.7038  -17.1802   23.5582 N   0  0  0  0  0  0  0  0  0  0  0  0
    7.3978  -17.3225   22.2929 C   0  0  0  0  0  0  0  0  0  0  0  0
    7.3296  -16.1730   24.4315 O   0  0  0  0  0  0  0  0  0  0  0  0
    6.9364  -14.9800   24.4241 C   0  0  0  0  0  0  0  0  0  0  0  0
    6.4225  -11.2781   26.5757 S   0  0  0  0  0  0  0  0  0  0  0  0
    6.7803  -12.3848   27.9690 C   0  0  0  0  0  0  0  0  0  0  0  0
    8.1286  -13.5104   27.5962 C   0  0  0  0  0  0  0  0  0  0  0  0
    7.7633  -14.5886   26.6063 C   0  0  1  0  0  0  0  0  0  0  0  0
    8.9350  -15.4706   26.2441 N   0  0  0  0  0  0  0  0  0  0  0  0
    8.3984  -16.4842   25.3217 C   0  0  0  0  0  0  0  0  0  0  0  0
    9.6180  -16.0824   27.3786 O   0  0  0  0  0  0  0  0  0  0  0  0
   10.5580  -15.4361   28.1617 O   0  0  0  0  0  0  0  0  0  0  0  0
  1  2  1  0
  2  3  2  0
  4  2  1  0
  5  4  1  0
  6  5  1  0
  7  6  1  0
  7  8  1  0
  8  9  1  6
  8 10  1  0
 10 11  2  0
 13 12  1  6
 14 10  1  0
 14 13  1  0
 15 13  1  0
 15 16  2  0
 17 18  1  0
 19 20  1  0
 19 18  1  0
 21 20  1  6
 21 23  1  0
 21 22  1  0
 22 15  1  0
 23 24  1  0
 25 23  2  0
M  END
$$$$
