RAM.pdb
     RDKit          3D

 25 24  0  0  1  0  0  0  0  0999 V2000
   12.2518  -15.6804   20.8931 N   0  0  0  0  0  0  0  0  0  0  0  0
   12.9973  -15.0202   19.8755 C   0  0  0  0  0  0  0  0  0  0  0  0
   13.8911  -14.1590   20.2085 N   0  0  0  0  0  0  0  0  0  0  0  0
   12.7552  -15.3123   18.5081 N   0  0  0  0  0  0  0  0  0  0  0  0
   11.4222  -15.6714   18.0785 C   0  0  0  0  0  0  0  0  0  0  0  0
   10.4928  -14.5358   18.4847 C   0  0  0  0  0  0  0  0  0  0  0  0
    9.1109  -14.9517   18.0479 C   0  0  0  0  0  0  0  0  0  0  0  0
    8.0510  -13.9405   18.4960 C   0  0  2  0  0  0  0  0  0  0  0  0
    8.5902  -12.6194   18.2281 N   0  0  0  0  0  0  0  0  0  0  0  0
    7.8931  -14.1745   19.9588 C   0  0  0  0  0  0  0  0  0  0  0  0
    8.6327  -13.5077   20.7274 O   0  0  0  0  0  0  0  0  0  0  0  0
   14.4745  -13.6302   19.5364 C   0  0  0  0  0  0  0  0  0  0  0  0
    6.4036  -16.8615   21.9695 C   0  0  1  0  0  0  0  0  0  0  0  0
    6.9053  -15.4090   21.9356 N   0  0  0  0  0  0  0  0  0  0  0  0
    6.9835  -15.0792   20.5256 C   0  0  0  0  0  0  0  0  0  0  0  0
    8.2067  -15.2861   22.6138 O   0  0  0  0  0  0  0  0  0  0  0  0
    9.0838  -14.4948   22.1865 C   0  0  0  0  0  0  0  0  0  0  0  0
    6.2668  -11.4785   25.8392 S   0  0  0  0  0  0  0  0  0  0  0  0
    6.7696  -12.6114   27.1650 C   0  0  0  0  0  0  0  0  0  0  0  0
    8.1252  -13.6728   26.6557 C   0  0  0  0  0  0  0  0  0  0  0  0
    7.8596  -14.4245   25.3749 C   0  0  1  0  0  0  0  0  0  0  0  0
    8.9764  -15.3751   25.0129 N   0  0  0  0  0  0  0  0  0  0  0  0
    8.5440  -16.0419   23.7742 C   0  0  0  0  0  0  0  0  0  0  0  0
    9.3237  -16.3396   26.0508 O   0  0  0  0  0  0  0  0  0  0  0  0
   10.4284  -16.2299   26.8767 O   0  0  0  0  0  0  0  0  0  0  0  0
  1  2  1  0
  2  3  2  0
  4  2  1  0
  5  4  1  0
  6  5  1  0
  7  6  1  0
  7  8  1  0
  8  9  1  1
  8 10  1  0
 10 11  2  0
 13 12  1  1
 14 10  1  0
 14 13  1  0
 15 13  1  0
 15 16  2  0
 17 18  1  0
 19 20  1  0
 19 18  1  0
 21 20  1  6
 21 23  1  0
 21 22  1  0
 22 15  1  0
 23 24  1  0
 25 23  2  0
M  END
$$$$
