RAM.pdb
     RDKit          3D

 25 24  0  0  1  0  0  0  0  0999 V2000
    9.0432  -12.9337   16.5391 N   0  0  0  0  0  0  0  0  0  0  0  0
    7.8918  -13.7242   16.8158 C   0  0  0  0  0  0  0  0  0  0  0  0
    7.5415  -14.6388   15.9837 N   0  0  0  0  0  0  0  0  0  0  0  0
    7.1405  -13.5037   17.9993 N   0  0  0  0  0  0  0  0  0  0  0  0
    7.7601  -13.7115   19.2890 C   0  0  0  0  0  0  0  0  0  0  0  0
    8.2172  -15.1629   19.3447 C   0  0  0  0  0  0  0  0  0  0  0  0
    8.8297  -15.3549   20.7090 C   0  0  0  0  0  0  0  0  0  0  0  0
    9.3417  -16.7860   20.8994 C   0  0  2  0  0  0  0  0  0  0  0  0
    8.4065  -17.6618   20.2169 N   0  0  0  0  0  0  0  0  0  0  0  0
    9.3161  -17.0089   22.3723 C   0  0  0  0  0  0  0  0  0  0  0  0
    8.2472  -16.7296   22.9740 O   0  0  0  0  0  0  0  0  0  0  0  0
    6.7316  -15.2703   16.1139 C   0  0  0  0  0  0  0  0  0  0  0  0
   11.6690  -18.4765   24.8601 C   0  0  2  0  0  0  0  0  0  0  0  0
   10.4140  -17.6400   24.5640 N   0  0  0  0  0  0  0  0  0  0  0  0
   10.3942  -17.5039   23.1204 C   0  0  0  0  0  0  0  0  0  0  0  0
   10.4756  -16.3383   25.2498 O   0  0  0  0  0  0  0  0  0  0  0  0
   11.1959  -15.4097   24.8061 C   0  0  0  0  0  0  0  0  0  0  0  0
    6.2028  -12.2342   25.8506 S   0  0  0  0  0  0  0  0  0  0  0  0
    6.9179  -11.8863   27.4821 C   0  0  0  0  0  0  0  0  0  0  0  0
    8.4514  -12.7832   27.7421 C   0  0  0  0  0  0  0  0  0  0  0  0
    8.5279  -14.0868   26.9867 C   0  0  1  0  0  0  0  0  0  0  0  0
    9.8714  -14.7637   27.1237 N   0  0  0  0  0  0  0  0  0  0  0  0
    9.7360  -16.0574   26.4354 C   0  0  0  0  0  0  0  0  0  0  0  0
   10.3394  -14.9297   28.4954 O   0  0  0  0  0  0  0  0  0  0  0  0
   10.5087  -16.1542   29.1169 O   0  0  0  0  0  0  0  0  0  0  0  0
  1  2  1  0
  2  3  2  0
  4  2  1  0
  5  4  1  0
  6  5  1  0
  7  6  1  0
  7  8  1  0
  8  9  1  6
  8 10  1  0
 10 11  2  0
 13 12  1  6
 14 10  1  0
 14 13  1  0
 15 13  1  0
 15 16  2  0
 17 18  1  0
 19 20  1  0
 19 18  1  0
 21 20  1  6
 21 23  1  0
 21 22  1  0
 22 15  1  0
 23 24  1  0
 25 23  2  0
M  END
$$$$
