RAM.pdb
     RDKit          3D

 25 24  0  0  1  0  0  0  0  0999 V2000
    8.6190  -13.7026   15.2406 N   0  0  0  0  0  0  0  0  0  0  0  0
    8.3189  -13.6042   16.6289 C   0  0  0  0  0  0  0  0  0  0  0  0
    9.2019  -13.1271   17.4314 N   0  0  0  0  0  0  0  0  0  0  0  0
    7.0566  -14.0282   17.1194 N   0  0  0  0  0  0  0  0  0  0  0  0
    6.8667  -14.2126   18.5408 C   0  0  0  0  0  0  0  0  0  0  0  0
    8.2270  -14.5391   19.1421 C   0  0  0  0  0  0  0  0  0  0  0  0
    7.9552  -15.0537   20.5331 C   0  0  0  0  0  0  0  0  0  0  0  0
    8.3578  -16.5247   20.6773 C   0  0  2  0  0  0  0  0  0  0  0  0
    7.2125  -17.3166   20.2664 N   0  0  0  0  0  0  0  0  0  0  0  0
    8.6462  -16.7020   22.1282 C   0  0  0  0  0  0  0  0  0  0  0  0
    7.7641  -16.3157   22.9376 O   0  0  0  0  0  0  0  0  0  0  0  0
    9.0558  -12.9856   18.4464 C   0  0  0  0  0  0  0  0  0  0  0  0
   11.4165  -18.2736   24.0711 C   0  0  1  0  0  0  0  0  0  0  0  0
   10.0972  -17.4853   24.0487 N   0  0  0  0  0  0  0  0  0  0  0  0
    9.8236  -17.2652   22.6418 C   0  0  0  0  0  0  0  0  0  0  0  0
   10.2248  -16.2249   24.7996 O   0  0  0  0  0  0  0  0  0  0  0  0
   10.8430  -15.2452   24.3139 C   0  0  0  0  0  0  0  0  0  0  0  0
    6.1383  -11.9290   26.1922 S   0  0  0  0  0  0  0  0  0  0  0  0
    6.8528  -12.1117   27.8506 C   0  0  0  0  0  0  0  0  0  0  0  0
    8.4505  -12.9294   27.8011 C   0  0  0  0  0  0  0  0  0  0  0  0
    8.4719  -14.1686   26.9409 C   0  0  1  0  0  0  0  0  0  0  0  0
    9.8489  -14.7801   26.8312 N   0  0  0  0  0  0  0  0  0  0  0  0
    9.6650  -16.0427   26.0977 C   0  0  0  0  0  0  0  0  0  0  0  0
   10.5314  -14.9905   28.1032 O   0  0  0  0  0  0  0  0  0  0  0  0
   11.0232  -13.9720   28.9001 O   0  0  0  0  0  0  0  0  0  0  0  0
  1  2  1  0
  2  3  2  0
  4  2  1  0
  5  4  1  0
  6  5  1  0
  7  6  1  0
  7  8  1  0
  8  9  1  1
  8 10  1  0
 10 11  2  0
 13 12  1  6
 14 10  1  0
 14 13  1  0
 15 13  1  0
 15 16  2  0
 17 18  1  0
 19 20  1  0
 19 18  1  0
 21 20  1  6
 21 23  1  0
 21 22  1  0
 22 15  1  0
 23 24  1  0
 25 23  2  0
M  END
$$$$
