RAM.pdb
     RDKit          3D

 25 24  0  0  1  0  0  0  0  0999 V2000
    6.9950  -13.1030   18.0618 N   0  0  0  0  0  0  0  0  0  0  0  0
    7.9636  -13.6832   17.1945 C   0  0  0  0  0  0  0  0  0  0  0  0
    7.8279  -13.5537   15.9232 N   0  0  0  0  0  0  0  0  0  0  0  0
    9.0677  -14.3958   17.7303 N   0  0  0  0  0  0  0  0  0  0  0  0
    9.0713  -14.7631   19.1286 C   0  0  0  0  0  0  0  0  0  0  0  0
    7.9870  -15.8140   19.3250 C   0  0  0  0  0  0  0  0  0  0  0  0
    8.0594  -16.2218   20.7748 C   0  0  0  0  0  0  0  0  0  0  0  0
    7.0528  -17.3302   21.0984 C   0  0  2  0  0  0  0  0  0  0  0  0
    5.8292  -17.0082   20.3865 N   0  0  0  0  0  0  0  0  0  0  0  0
    6.8578  -17.2513   22.5733 C   0  0  0  0  0  0  0  0  0  0  0  0
    6.2435  -16.2466   23.0157 O   0  0  0  0  0  0  0  0  0  0  0  0
    8.5170  -13.8819   15.2239 C   0  0  0  0  0  0  0  0  0  0  0  0
    7.4907  -19.5315   25.4444 C   0  0  1  0  0  0  0  0  0  0  0  0
    7.1903  -18.1148   24.9294 N   0  0  0  0  0  0  0  0  0  0  0  0
    7.3099  -18.2140   23.4877 C   0  0  0  0  0  0  0  0  0  0  0  0
    8.1285  -17.1362   25.5044 O   0  0  0  0  0  0  0  0  0  0  0  0
    9.3057  -17.0434   25.0760 C   0  0  0  0  0  0  0  0  0  0  0  0
    7.7800  -10.4950   26.3811 S   0  0  0  0  0  0  0  0  0  0  0  0
    6.6381  -11.9044   26.4421 C   0  0  0  0  0  0  0  0  0  0  0  0
    7.4893  -13.4632   26.1788 C   0  0  0  0  0  0  0  0  0  0  0  0
    8.0614  -14.0631   27.4393 C   0  0  2  0  0  0  0  0  0  0  0  0
    8.7659  -15.3767   27.1938 N   0  0  0  0  0  0  0  0  0  0  0  0
    7.7654  -16.2512   26.5611 C   0  0  0  0  0  0  0  0  0  0  0  0
    9.3472  -15.9939   28.3808 O   0  0  0  0  0  0  0  0  0  0  0  0
   10.5282  -15.5823   28.9727 O   0  0  0  0  0  0  0  0  0  0  0  0
  1  2  1  0
  2  3  2  0
  4  2  1  0
  5  4  1  0
  6  5  1  0
  7  6  1  0
  7  8  1  0
  8  9  1  6
  8 10  1  0
 10 11  2  0
 13 12  1  6
 14 10  1  0
 14 13  1  0
 15 13  1  0
 15 16  2  0
 17 18  1  0
 19 20  1  0
 19 18  1  0
 21 20  1  6
 21 23  1  0
 21 22  1  0
 22 15  1  0
 23 24  1  0
 25 23  2  0
M  END
$$$$
