RAM.pdb
     RDKit          3D

 25 24  0  0  1  0  0  0  0  0999 V2000
   12.9960  -20.2240   15.5386 N   0  0  0  0  0  0  0  0  0  0  0  0
   11.7267  -20.6432   15.0484 C   0  0  0  0  0  0  0  0  0  0  0  0
   11.6576  -21.6666   14.2744 N   0  0  0  0  0  0  0  0  0  0  0  0
   10.5508  -19.9373   15.4129 N   0  0  0  0  0  0  0  0  0  0  0  0
   10.6515  -18.7661   16.2545 C   0  0  0  0  0  0  0  0  0  0  0  0
   10.5431  -19.2344   17.6994 C   0  0  0  0  0  0  0  0  0  0  0  0
   10.6675  -17.9954   18.5496 C   0  0  0  0  0  0  0  0  0  0  0  0
    9.6684  -18.0073   19.7108 C   0  0  2  0  0  0  0  0  0  0  0  0
    8.3630  -18.2857   19.1398 N   0  0  0  0  0  0  0  0  0  0  0  0
    9.7281  -16.6321   20.2810 C   0  0  0  0  0  0  0  0  0  0  0  0
   10.8337  -16.2541   20.7469 O   0  0  0  0  0  0  0  0  0  0  0  0
   10.7820  -22.0264   13.8554 C   0  0  0  0  0  0  0  0  0  0  0  0
    7.6515  -13.5989   20.2241 C   0  0  2  0  0  0  0  0  0  0  0  0
    8.6435  -14.4662   21.0155 N   0  0  0  0  0  0  0  0  0  0  0  0
    8.6436  -15.7441   20.3303 C   0  0  0  0  0  0  0  0  0  0  0  0
    8.2311  -14.5846   22.4242 O   0  0  0  0  0  0  0  0  0  0  0  0
    7.0624  -14.9322   22.7265 C   0  0  0  0  0  0  0  0  0  0  0  0
    5.5186  -10.8687   26.7693 S   0  0  0  0  0  0  0  0  0  0  0  0
    6.8781  -12.0363   27.0565 C   0  0  0  0  0  0  0  0  0  0  0  0
    6.6075  -13.5954   26.2080 C   0  0  0  0  0  0  0  0  0  0  0  0
    7.2644  -13.6707   24.8520 C   0  0  1  0  0  0  0  0  0  0  0  0
    8.6296  -14.3157   24.8991 N   0  0  0  0  0  0  0  0  0  0  0  0
    9.1154  -14.3181   23.5098 C   0  0  0  0  0  0  0  0  0  0  0  0
    8.6583  -15.6526   25.4821 O   0  0  0  0  0  0  0  0  0  0  0  0
    8.9933  -15.9208   26.7975 O   0  0  0  0  0  0  0  0  0  0  0  0
  1  2  1  0
  2  3  2  0
  4  2  1  0
  5  4  1  0
  6  5  1  0
  7  6  1  0
  7  8  1  0
  8  9  1  6
  8 10  1  0
 10 11  2  0
 13 12  1  6
 14 10  1  0
 14 13  1  0
 15 13  1  0
 15 16  2  0
 17 18  1  0
 19 20  1  0
 19 18  1  0
 21 20  1  1
 21 23  1  0
 21 22  1  0
 22 15  1  0
 23 24  1  0
 25 23  2  0
M  END
$$$$
