RAM.pdb
     RDKit          3D

 25 24  0  0  1  0  0  0  0  0999 V2000
    8.4965  -12.1599   19.2517 N   0  0  0  0  0  0  0  0  0  0  0  0
    8.4178  -13.1917   18.2738 C   0  0  0  0  0  0  0  0  0  0  0  0
    8.2003  -12.8801   17.0462 N   0  0  0  0  0  0  0  0  0  0  0  0
    8.5793  -14.5497   18.6526 N   0  0  0  0  0  0  0  0  0  0  0  0
    8.5611  -14.9087   20.0530 C   0  0  0  0  0  0  0  0  0  0  0  0
    7.1070  -14.9019   20.5047 C   0  0  0  0  0  0  0  0  0  0  0  0
    7.1226  -15.2746   21.9657 C   0  0  0  0  0  0  0  0  0  0  0  0
    7.2606  -16.7880   22.1587 C   0  0  2  0  0  0  0  0  0  0  0  0
    6.2604  -17.4130   21.3123 N   0  0  0  0  0  0  0  0  0  0  0  0
    6.9692  -17.0178   23.6016 C   0  0  0  0  0  0  0  0  0  0  0  0
    5.8624  -16.6048   24.0339 O   0  0  0  0  0  0  0  0  0  0  0  0
    8.1287  -13.5636   16.2720 C   0  0  0  0  0  0  0  0  0  0  0  0
    7.9562  -19.3143   26.1813 C   0  0  2  0  0  0  0  0  0  0  0  0
    7.5877  -17.8466   25.9120 N   0  0  0  0  0  0  0  0  0  0  0  0
    7.8394  -17.6574   24.4965 C   0  0  0  0  0  0  0  0  0  0  0  0
    8.3901  -16.9404   26.7508 O   0  0  0  0  0  0  0  0  0  0  0  0
    8.2535  -16.9280   27.9995 C   0  0  0  0  0  0  0  0  0  0  0  0
    6.5819  -11.5836   24.9490 S   0  0  0  0  0  0  0  0  0  0  0  0
    7.5485  -12.0290   26.4191 C   0  0  0  0  0  0  0  0  0  0  0  0
    8.5918  -13.4597   26.1219 C   0  0  0  0  0  0  0  0  0  0  0  0
    9.3028  -13.9594   27.3551 C   0  0  2  0  0  0  0  0  0  0  0  0
   10.1584  -15.1745   27.0843 N   0  0  0  0  0  0  0  0  0  0  0  0
    9.3526  -16.0399   26.2081 C   0  0  0  0  0  0  0  0  0  0  0  0
   10.6112  -15.8855   28.2749 O   0  0  0  0  0  0  0  0  0  0  0  0
   11.5995  -15.4256   29.1270 O   0  0  0  0  0  0  0  0  0  0  0  0
  1  2  1  0
  2  3  2  0
  4  2  1  0
  5  4  1  0
  6  5  1  0
  7  6  1  0
  7  8  1  0
  8  9  1  6
  8 10  1  0
 10 11  2  0
 13 12  1  6
 14 10  1  0
 14 13  1  0
 15 13  1  0
 15 16  2  0
 17 18  1  0
 19 20  1  0
 19 18  1  0
 21 20  1  6
 21 23  1  0
 21 22  1  0
 22 15  1  0
 23 24  1  0
 25 23  2  0
M  END
$$$$
