RAM.pdb
     RDKit          3D

 25 24  0  0  1  0  0  0  0  0999 V2000
    7.9465  -13.6794   13.3132 N   0  0  0  0  0  0  0  0  0  0  0  0
    7.8633  -14.8465   14.1244 C   0  0  0  0  0  0  0  0  0  0  0  0
    8.0732  -15.9980   13.5938 N   0  0  0  0  0  0  0  0  0  0  0  0
    7.5526  -14.7373   15.5047 N   0  0  0  0  0  0  0  0  0  0  0  0
    7.4714  -13.4307   16.1184 C   0  0  0  0  0  0  0  0  0  0  0  0
    8.7228  -13.2489   16.9667 C   0  0  0  0  0  0  0  0  0  0  0  0
    8.5454  -14.1424   18.1682 C   0  0  0  0  0  0  0  0  0  0  0  0
    9.7200  -14.0140   19.1431 C   0  0  2  0  0  0  0  0  0  0  0  0
   10.8650  -14.6399   18.5070 N   0  0  0  0  0  0  0  0  0  0  0  0
    9.2950  -14.7679   20.3558 C   0  0  0  0  0  0  0  0  0  0  0  0
    8.3492  -14.2822   21.0283 O   0  0  0  0  0  0  0  0  0  0  0  0
    8.0481  -16.8946   14.1106 C   0  0  0  0  0  0  0  0  0  0  0  0
   10.3554  -17.9716   21.9538 C   0  0  2  0  0  0  0  0  0  0  0  0
    9.4383  -16.7383   21.9383 N   0  0  0  0  0  0  0  0  0  0  0  0
    9.8749  -15.9691   20.7892 C   0  0  0  0  0  0  0  0  0  0  0  0
    9.5528  -15.9817   23.1965 O   0  0  0  0  0  0  0  0  0  0  0  0
   10.6100  -15.3678   23.4854 C   0  0  0  0  0  0  0  0  0  0  0  0
    6.0178  -11.2184   28.2439 S   0  0  0  0  0  0  0  0  0  0  0  0
    5.9973  -12.2328   26.7390 C   0  0  0  0  0  0  0  0  0  0  0  0
    7.3877  -13.3674   26.6816 C   0  0  0  0  0  0  0  0  0  0  0  0
    7.4715  -14.1607   25.4012 C   0  0  1  0  0  0  0  0  0  0  0  0
    8.6402  -15.1177   25.3821 N   0  0  0  0  0  0  0  0  0  0  0  0
    8.4917  -15.9007   24.1448 C   0  0  0  0  0  0  0  0  0  0  0  0
    8.7492  -15.9787   26.5546 O   0  0  0  0  0  0  0  0  0  0  0  0
    9.1685  -15.5471   27.8006 O   0  0  0  0  0  0  0  0  0  0  0  0
  1  2  1  0
  2  3  2  0
  4  2  1  0
  5  4  1  0
  6  5  1  0
  7  6  1  0
  7  8  1  0
  8  9  1  6
  8 10  1  0
 10 11  2  0
 13 12  1  6
 14 10  1  0
 14 13  1  0
 15 13  1  0
 15 16  2  0
 17 18  1  0
 19 20  1  0
 19 18  1  0
 21 20  1  6
 21 23  1  0
 21 22  1  0
 22 15  1  0
 23 24  1  0
 25 23  2  0
M  END
$$$$
