RAM.pdb
     RDKit          3D

 25 24  0  0  1  0  0  0  0  0999 V2000
    8.5643  -13.3198   18.2118 N   0  0  0  0  0  0  0  0  0  0  0  0
    8.5744  -12.6699   19.4786 C   0  0  0  0  0  0  0  0  0  0  0  0
    8.9853  -11.4550   19.5593 N   0  0  0  0  0  0  0  0  0  0  0  0
    8.1337  -13.3579   20.6389 N   0  0  0  0  0  0  0  0  0  0  0  0
    8.2924  -14.7925   20.7233 C   0  0  0  0  0  0  0  0  0  0  0  0
    6.9370  -15.3783   21.0952 C   0  0  0  0  0  0  0  0  0  0  0  0
    7.1361  -16.0866   22.4113 C   0  0  0  0  0  0  0  0  0  0  0  0
    7.9912  -17.3470   22.2481 C   0  0  2  0  0  0  0  0  0  0  0  0
    7.2700  -18.2315   21.3508 N   0  0  0  0  0  0  0  0  0  0  0  0
    8.0859  -17.9252   23.6180 C   0  0  0  0  0  0  0  0  0  0  0  0
    7.5078  -19.0249   23.8154 O   0  0  0  0  0  0  0  0  0  0  0  0
    9.0613  -10.9195   20.4420 C   0  0  0  0  0  0  0  0  0  0  0  0
   10.9348  -18.1807   24.2563 C   0  0  1  0  0  0  0  0  0  0  0  0
    9.9125  -17.9043   25.3702 N   0  0  0  0  0  0  0  0  0  0  0  0
    8.7701  -17.3288   24.6872 C   0  0  0  0  0  0  0  0  0  0  0  0
   10.4739  -16.9981   26.3863 O   0  0  0  0  0  0  0  0  0  0  0  0
   11.5531  -17.2718   26.9681 C   0  0  0  0  0  0  0  0  0  0  0  0
    6.0893  -12.1781   25.7655 S   0  0  0  0  0  0  0  0  0  0  0  0
    7.2376  -12.3411   27.1615 C   0  0  0  0  0  0  0  0  0  0  0  0
    8.5009  -13.5768   26.8441 C   0  0  0  0  0  0  0  0  0  0  0  0
    9.4491  -13.7862   27.9987 C   0  0  2  0  0  0  0  0  0  0  0  0
   10.4737  -14.8621   27.7256 N   0  0  0  0  0  0  0  0  0  0  0  0
    9.8400  -15.7787   26.7641 C   0  0  0  0  0  0  0  0  0  0  0  0
   10.9532  -15.5691   28.9081 O   0  0  0  0  0  0  0  0  0  0  0  0
   11.9544  -15.1022   29.7412 O   0  0  0  0  0  0  0  0  0  0  0  0
  1  2  1  0
  2  3  2  0
  4  2  1  0
  5  4  1  0
  6  5  1  0
  7  6  1  0
  7  8  1  0
  8  9  1  6
  8 10  1  0
 10 11  2  0
 13 12  1  6
 14 10  1  0
 14 13  1  0
 15 13  1  0
 15 16  2  0
 17 18  1  0
 19 20  1  0
 19 18  1  0
 21 20  1  6
 21 23  1  0
 21 22  1  0
 22 15  1  0
 23 24  1  0
 25 23  2  0
M  END
$$$$
