RAM.pdb
     RDKit          3D

 25 24  0  0  1  0  0  0  0  0999 V2000
    6.6131  -12.7355   19.2602 N   0  0  0  0  0  0  0  0  0  0  0  0
    7.9149  -12.9533   18.7262 C   0  0  0  0  0  0  0  0  0  0  0  0
    8.1121  -12.7989   17.4658 N   0  0  0  0  0  0  0  0  0  0  0  0
    8.9828  -13.3357   19.5790 N   0  0  0  0  0  0  0  0  0  0  0  0
    9.5546  -14.6583   19.4600 C   0  0  0  0  0  0  0  0  0  0  0  0
    8.4041  -15.6552   19.4931 C   0  0  0  0  0  0  0  0  0  0  0  0
    8.5182  -16.3799   20.8103 C   0  0  0  0  0  0  0  0  0  0  0  0
    7.4993  -17.5189   20.9159 C   0  0  2  0  0  0  0  0  0  0  0  0
    6.4446  -17.2298   19.9611 N   0  0  0  0  0  0  0  0  0  0  0  0
    6.9951  -17.4528   22.3163 C   0  0  0  0  0  0  0  0  0  0  0  0
    6.1870  -16.5283   22.5897 O   0  0  0  0  0  0  0  0  0  0  0  0
    8.9665  -13.1003   16.9652 C   0  0  0  0  0  0  0  0  0  0  0  0
    6.9669  -19.8158   25.1462 C   0  0  1  0  0  0  0  0  0  0  0  0
    6.7877  -18.3662   24.6679 N   0  0  0  0  0  0  0  0  0  0  0  0
    7.3597  -18.3446   23.3356 C   0  0  0  0  0  0  0  0  0  0  0  0
    7.4565  -17.4244   25.5813 O   0  0  0  0  0  0  0  0  0  0  0  0
    7.0623  -17.2856   26.7659 C   0  0  0  0  0  0  0  0  0  0  0  0
    5.7367  -11.6983   26.6535 S   0  0  0  0  0  0  0  0  0  0  0  0
    6.6360  -12.6909   25.4288 C   0  0  0  0  0  0  0  0  0  0  0  0
    8.1606  -13.3584   26.1023 C   0  0  0  0  0  0  0  0  0  0  0  0
    8.0391  -14.7828   26.5842 C   0  0  2  0  0  0  0  0  0  0  0  0
    9.1759  -15.6585   26.1119 N   0  0  0  0  0  0  0  0  0  0  0  0
    8.5708  -16.6286   25.1852 C   0  0  0  0  0  0  0  0  0  0  0  0
    9.9232  -16.3223   27.1744 O   0  0  0  0  0  0  0  0  0  0  0  0
   11.0526  -15.7967   27.7767 O   0  0  0  0  0  0  0  0  0  0  0  0
  1  2  1  0
  2  3  2  0
  4  2  1  0
  5  4  1  0
  6  5  1  0
  7  6  1  0
  7  8  1  0
  8  9  1  6
  8 10  1  0
 10 11  2  0
 13 12  1  6
 14 10  1  0
 14 13  1  0
 15 13  1  0
 15 16  2  0
 17 18  1  0
 19 20  1  0
 19 18  1  0
 21 20  1  6
 21 23  1  0
 21 22  1  0
 22 15  1  0
 23 24  1  0
 25 23  2  0
M  END
$$$$
