RAM.pdb
     RDKit          3D

 25 24  0  0  1  0  0  0  0  0999 V2000
    9.7949  -11.5474   19.7501 N   0  0  0  0  0  0  0  0  0  0  0  0
    9.0630  -12.6548   19.2351 C   0  0  0  0  0  0  0  0  0  0  0  0
    9.2727  -13.0410   18.0275 N   0  0  0  0  0  0  0  0  0  0  0  0
    8.1128  -13.3247   20.0489 N   0  0  0  0  0  0  0  0  0  0  0  0
    7.3116  -14.3881   19.4854 C   0  0  0  0  0  0  0  0  0  0  0  0
    8.1594  -15.6529   19.5014 C   0  0  0  0  0  0  0  0  0  0  0  0
    8.2323  -16.0876   20.9433 C   0  0  0  0  0  0  0  0  0  0  0  0
    9.0415  -17.3786   21.1015 C   0  0  2  0  0  0  0  0  0  0  0  0
    8.2563  -18.4432   20.5036 N   0  0  0  0  0  0  0  0  0  0  0  0
    9.1777  -17.5670   22.5731 C   0  0  0  0  0  0  0  0  0  0  0  0
    8.1186  -17.5510   23.2517 O   0  0  0  0  0  0  0  0  0  0  0  0
    8.8317  -13.8705   17.5926 C   0  0  0  0  0  0  0  0  0  0  0  0
   11.8961  -18.5625   24.8843 C   0  0  1  0  0  0  0  0  0  0  0  0
   10.5535  -17.8428   24.6798 N   0  0  0  0  0  0  0  0  0  0  0  0
   10.3961  -17.7587   23.2408 C   0  0  0  0  0  0  0  0  0  0  0  0
   10.5640  -16.5174   25.3217 O   0  0  0  0  0  0  0  0  0  0  0  0
   11.2205  -15.5673   24.8274 C   0  0  0  0  0  0  0  0  0  0  0  0
    5.7111  -13.2142   26.2789 S   0  0  0  0  0  0  0  0  0  0  0  0
    6.7616  -12.2108   27.3669 C   0  0  0  0  0  0  0  0  0  0  0  0
    8.3640  -12.9750   27.6355 C   0  0  0  0  0  0  0  0  0  0  0  0
    8.5276  -14.3033   26.9392 C   0  0  1  0  0  0  0  0  0  0  0  0
    9.8988  -14.9040   27.1412 N   0  0  0  0  0  0  0  0  0  0  0  0
    9.8437  -16.2367   26.5191 C   0  0  0  0  0  0  0  0  0  0  0  0
   10.3405  -14.9755   28.5297 O   0  0  0  0  0  0  0  0  0  0  0  0
   10.7524  -13.8831   29.2723 O   0  0  0  0  0  0  0  0  0  0  0  0
  1  2  1  0
  2  3  2  0
  4  2  1  0
  5  4  1  0
  6  5  1  0
  7  6  1  0
  7  8  1  0
  8  9  1  1
  8 10  1  0
 10 11  2  0
 13 12  1  1
 14 10  1  0
 14 13  1  0
 15 13  1  0
 15 16  2  0
 17 18  1  0
 19 20  1  0
 19 18  1  0
 21 20  1  6
 21 23  1  0
 21 22  1  0
 22 15  1  0
 23 24  1  0
 25 23  2  0
M  END
$$$$
