DAM.pdb
     RDKit          3D

 22 21  0  0  1  0  0  0  0  0999 V2000
    6.8354  -18.6330   20.8650 N   0  0  0  0  0  0  0  0  0  0  0  0
    8.2477  -18.5250   20.5466 C   0  0  1  0  0  0  0  0  0  0  0  0
    8.5691  -19.4062   19.3594 C   0  0  0  0  0  0  0  0  0  0  0  0
    7.6204  -20.5505   19.4099 C   0  0  0  0  0  0  0  0  0  0  0  0
    7.8335  -21.5755   20.1474 O   0  0  0  0  0  0  0  0  0  0  0  0
    8.6119  -17.1185   20.3656 C   0  0  0  0  0  0  0  0  0  0  0  0
    9.7997  -16.8384   20.0636 O   0  0  0  0  0  0  0  0  0  0  0  0
    6.4465  -20.5739   18.6615 O   0  0  0  0  0  0  0  0  0  0  0  0
    7.0924  -13.8008   19.8619 C   0  0  0  0  0  0  0  0  0  0  0  0
    8.1478  -14.6985   20.4504 C   0  0  2  0  0  0  0  0  0  0  0  0
    7.6800  -16.0407   20.5146 N   0  0  0  0  0  0  0  0  0  0  0  0
    8.5589  -14.1663   21.7855 C   0  0  0  0  0  0  0  0  0  0  0  0
    9.1474  -13.0653   21.9420 O   0  0  0  0  0  0  0  0  0  0  0  0
    6.7977  -11.1792   28.1127 C   0  0  0  0  0  0  0  0  0  0  0  0
    6.4813  -11.9918   26.5543 S   0  0  0  0  0  0  0  0  0  0  0  0
    7.5076  -13.4633   26.2842 C   0  0  0  0  0  0  0  0  0  0  0  0
    7.3660  -14.0132   24.9107 C   0  0  0  0  0  0  0  0  0  0  0  0
    8.6303  -14.5305   24.2789 C   0  0  2  0  0  0  0  0  0  0  0  0
    8.2566  -14.9633   22.9220 N   0  0  0  0  0  0  0  0  0  0  0  0
    9.1304  -15.6793   25.0704 C   0  0  0  0  0  0  0  0  0  0  0  0
    9.0551  -16.8750   24.7404 O   0  0  0  0  0  0  0  0  0  0  0  0
    9.7440  -15.3729   26.3024 O   0  0  0  0  0  0  0  0  0  0  0  0
  2  1  1  6
  3  2  1  0
  4  3  1  0
  4  5  2  0
  6  2  1  0
  6 11  1  0
  7  6  2  0
  8  4  1  0
 10 11  1  0
 10 12  1  0
 10  9  1  1
 12 13  2  0
 14 15  1  0
 16 15  1  0
 17 16  1  0
 18 17  1  1
 18 20  1  0
 19 12  1  0
 19 18  1  0
 20 21  2  0
 20 22  1  0
M  END
$$$$
