DAM.pdb
     RDKit          3D

 22 21  0  0  1  0  0  0  0  0999 V2000
    9.3259  -18.6377   20.8648 N   0  0  0  0  0  0  0  0  0  0  0  0
    8.9277  -17.2418   20.8795 C   0  0  1  0  0  0  0  0  0  0  0  0
    8.0405  -16.9545   19.6880 C   0  0  0  0  0  0  0  0  0  0  0  0
    8.9354  -16.8632   18.5035 C   0  0  0  0  0  0  0  0  0  0  0  0
   10.2062  -16.9858   18.6033 O   0  0  0  0  0  0  0  0  0  0  0  0
    8.3237  -16.9090   22.1710 C   0  0  0  0  0  0  0  0  0  0  0  0
    7.0703  -16.8577   22.2541 O   0  0  0  0  0  0  0  0  0  0  0  0
    8.4453  -16.6416   17.2193 O   0  0  0  0  0  0  0  0  0  0  0  0
    7.7550  -17.9910   24.8253 C   0  0  0  0  0  0  0  0  0  0  0  0
    8.4536  -16.6732   24.6218 C   0  0  2  0  0  0  0  0  0  0  0  0
    9.0910  -16.6390   23.3503 N   0  0  0  0  0  0  0  0  0  0  0  0
    9.4055  -16.4405   25.7508 C   0  0  0  0  0  0  0  0  0  0  0  0
    9.8274  -17.3573   26.5023 O   0  0  0  0  0  0  0  0  0  0  0  0
    6.2926  -10.8849   26.1516 C   0  0  0  0  0  0  0  0  0  0  0  0
    7.0578  -11.9326   27.3787 S   0  0  0  0  0  0  0  0  0  0  0  0
    8.4416  -12.9120   26.7324 C   0  0  0  0  0  0  0  0  0  0  0  0
    9.0669  -13.7709   27.7718 C   0  0  0  0  0  0  0  0  0  0  0  0
   10.2123  -14.6304   27.3087 C   0  0  2  0  0  0  0  0  0  0  0  0
    9.8434  -15.1063   25.9650 N   0  0  0  0  0  0  0  0  0  0  0  0
   10.3656  -15.7731   28.2397 C   0  0  0  0  0  0  0  0  0  0  0  0
    9.7325  -16.8412   28.1873 O   0  0  0  0  0  0  0  0  0  0  0  0
   11.3176  -15.6210   29.2687 O   0  0  0  0  0  0  0  0  0  0  0  0
  2  1  1  1
  3  2  1  0
  4  3  1  0
  4  5  2  0
  6  2  1  0
  6 11  1  0
  7  6  2  0
  8  4  1  0
 10 11  1  0
 10 12  1  0
 10  9  1  1
 12 13  2  0
 14 15  1  0
 16 15  1  0
 17 16  1  0
 18 17  1  1
 18 20  1  0
 19 12  1  0
 19 18  1  0
 20 21  2  0
 20 22  1  0
M  END
$$$$
