DAM.pdb
     RDKit          3D

 22 21  0  0  1  0  0  0  0  0999 V2000
    8.3252  -19.3591   19.9687 N   0  0  0  0  0  0  0  0  0  0  0  0
    8.0660  -18.6660   21.2176 C   0  0  1  0  0  0  0  0  0  0  0  0
    8.7141  -19.4180   22.3593 C   0  0  0  0  0  0  0  0  0  0  0  0
    8.1753  -20.8036   22.3163 C   0  0  0  0  0  0  0  0  0  0  0  0
    8.9312  -21.8291   22.4468 O   0  0  0  0  0  0  0  0  0  0  0  0
    8.4832  -17.2670   21.1074 C   0  0  0  0  0  0  0  0  0  0  0  0
    9.7101  -16.9985   21.1639 O   0  0  0  0  0  0  0  0  0  0  0  0
    6.8203  -21.0668   22.1340 O   0  0  0  0  0  0  0  0  0  0  0  0
    7.0427  -13.9890   20.0986 C   0  0  0  0  0  0  0  0  0  0  0  0
    8.0590  -14.8592   20.7886 C   0  0  2  0  0  0  0  0  0  0  0  0
    7.5613  -16.1838   20.9367 N   0  0  0  0  0  0  0  0  0  0  0  0
    8.4370  -14.2356   22.0936 C   0  0  0  0  0  0  0  0  0  0  0  0
    8.9780  -13.1038   22.1905 O   0  0  0  0  0  0  0  0  0  0  0  0
    7.1004  -10.9602   27.9530 C   0  0  0  0  0  0  0  0  0  0  0  0
    6.5258  -11.9143   26.5571 S   0  0  0  0  0  0  0  0  0  0  0  0
    7.0457  -13.6518   26.6052 C   0  0  0  0  0  0  0  0  0  0  0  0
    7.0563  -14.2814   25.2589 C   0  0  0  0  0  0  0  0  0  0  0  0
    8.4071  -14.4124   24.6081 C   0  0  2  0  0  0  0  0  0  0  0  0
    8.1589  -14.9789   23.2718 N   0  0  0  0  0  0  0  0  0  0  0  0
    9.2441  -15.3322   25.4140 C   0  0  0  0  0  0  0  0  0  0  0  0
    9.6643  -15.1118   26.5626 O   0  0  0  0  0  0  0  0  0  0  0  0
    9.5842  -16.5612   24.8123 O   0  0  0  0  0  0  0  0  0  0  0  0
  2  1  1  6
  3  2  1  0
  4  3  1  0
  4  5  2  0
  6  2  1  0
  6 11  1  0
  7  6  2  0
  8  4  1  0
 10 11  1  0
 10 12  1  0
 10  9  1  1
 12 13  2  0
 14 15  1  0
 16 15  1  0
 17 16  1  0
 18 17  1  1
 18 20  1  0
 19 12  1  0
 19 18  1  0
 20 21  2  0
 20 22  1  0
M  END
$$$$
