DAM.pdb
     RDKit          3D

 22 21  0  0  1  0  0  0  0  0999 V2000
   10.8869  -18.8244   20.8380 N   0  0  0  0  0  0  0  0  0  0  0  0
   11.4547  -17.4933   20.9534 C   0  0  1  0  0  0  0  0  0  0  0  0
   12.5321  -17.3088   19.9074 C   0  0  0  0  0  0  0  0  0  0  0  0
   13.7606  -17.9532   20.4439 C   0  0  0  0  0  0  0  0  0  0  0  0
   14.0570  -17.9155   21.6892 O   0  0  0  0  0  0  0  0  0  0  0  0
   10.3893  -16.4904   20.9005 C   0  0  0  0  0  0  0  0  0  0  0  0
   10.6220  -15.3946   20.3299 O   0  0  0  0  0  0  0  0  0  0  0  0
   14.6576  -18.6353   19.6261 O   0  0  0  0  0  0  0  0  0  0  0  0
    6.7922  -16.2057   20.9459 C   0  0  0  0  0  0  0  0  0  0  0  0
    8.1215  -15.6553   21.3889 C   0  0  2  0  0  0  0  0  0  0  0  0
    9.0895  -16.6951   21.4670 N   0  0  0  0  0  0  0  0  0  0  0  0
    7.9477  -14.9304   22.6847 C   0  0  0  0  0  0  0  0  0  0  0  0
    7.0633  -14.0564   22.8772 O   0  0  0  0  0  0  0  0  0  0  0  0
    6.4899  -11.3385   25.5300 C   0  0  0  0  0  0  0  0  0  0  0  0
    7.0279  -12.3754   26.8807 S   0  0  0  0  0  0  0  0  0  0  0  0
    6.6982  -14.1395   26.6143 C   0  0  0  0  0  0  0  0  0  0  0  0
    7.1506  -14.6089   25.2787 C   0  0  0  0  0  0  0  0  0  0  0  0
    8.6391  -14.7436   25.1017 C   0  0  2  0  0  0  0  0  0  0  0  0
    8.8389  -15.2650   23.7392 N   0  0  0  0  0  0  0  0  0  0  0  0
    9.1599  -15.7018   26.1052 C   0  0  0  0  0  0  0  0  0  0  0  0
    9.1907  -16.9378   25.9800 O   0  0  0  0  0  0  0  0  0  0  0  0
    9.6620  -15.1476   27.3006 O   0  0  0  0  0  0  0  0  0  0  0  0
  2  1  1  6
  3  2  1  0
  4  3  1  0
  4  5  2  0
  6  2  1  0
  6 11  1  0
  7  6  2  0
  8  4  1  0
 10 11  1  0
 10 12  1  0
 10  9  1  1
 12 13  2  0
 14 15  1  0
 16 15  1  0
 17 16  1  0
 18 17  1  1
 18 20  1  0
 19 12  1  0
 19 18  1  0
 20 21  2  0
 20 22  1  0
M  END
$$$$
