DAM.pdb
     RDKit          3D

 22 21  0  0  1  0  0  0  0  0999 V2000
    9.7188  -18.9056   19.7814 N   0  0  0  0  0  0  0  0  0  0  0  0
   10.5900  -17.7492   19.6759 C   0  0  1  0  0  0  0  0  0  0  0  0
   10.9343  -17.5039   18.2232 C   0  0  0  0  0  0  0  0  0  0  0  0
   12.1607  -18.2954   17.9372 C   0  0  0  0  0  0  0  0  0  0  0  0
   13.2646  -18.0795   18.5495 O   0  0  0  0  0  0  0  0  0  0  0  0
    9.9794  -16.6016   20.3496 C   0  0  0  0  0  0  0  0  0  0  0  0
   10.6934  -15.5956   20.5914 O   0  0  0  0  0  0  0  0  0  0  0  0
   12.1804  -19.3163   16.9907 O   0  0  0  0  0  0  0  0  0  0  0  0
    6.6930  -15.1170   20.9441 C   0  0  0  0  0  0  0  0  0  0  0  0
    8.0961  -15.4100   21.4042 C   0  0  2  0  0  0  0  0  0  0  0  0
    8.6038  -16.5659   20.7481 N   0  0  0  0  0  0  0  0  0  0  0  0
    8.1094  -15.5394   22.8935 C   0  0  0  0  0  0  0  0  0  0  0  0
    7.6357  -16.5300   23.5078 O   0  0  0  0  0  0  0  0  0  0  0  0
    7.1283  -10.6279   26.8025 C   0  0  0  0  0  0  0  0  0  0  0  0
    6.1306  -12.0410   27.2460 S   0  0  0  0  0  0  0  0  0  0  0  0
    6.8947  -13.6295   26.8166 C   0  0  0  0  0  0  0  0  0  0  0  0
    7.2872  -13.7050   25.3851 C   0  0  0  0  0  0  0  0  0  0  0  0
    8.5840  -14.4130   25.0982 C   0  0  2  0  0  0  0  0  0  0  0  0
    8.6946  -14.4758   23.6312 N   0  0  0  0  0  0  0  0  0  0  0  0
    8.5263  -15.7778   25.6728 C   0  0  0  0  0  0  0  0  0  0  0  0
    8.0323  -16.7763   25.1221 O   0  0  0  0  0  0  0  0  0  0  0  0
    9.0859  -15.9425   26.9566 O   0  0  0  0  0  0  0  0  0  0  0  0
  2  1  1  6
  3  2  1  0
  4  3  1  0
  4  5  2  0
  6  2  1  0
  6 11  1  0
  7  6  2  0
  8  4  1  0
 10 11  1  0
 10 12  1  0
 10  9  1  6
 12 13  2  0
 14 15  1  0
 16 15  1  0
 17 16  1  0
 18 17  1  6
 18 20  1  0
 19 12  1  0
 19 18  1  0
 20 21  2  0
 20 22  1  0
M  END
$$$$
