DAM.pdb
     RDKit          3D

 22 21  0  0  1  0  0  0  0  0999 V2000
    9.2789  -14.6927   21.7153 N   0  0  0  0  0  0  0  0  0  0  0  0
    8.0048  -15.1610   22.2297 C   0  0  1  0  0  0  0  0  0  0  0  0
    7.1704  -15.7115   21.0940 C   0  0  0  0  0  0  0  0  0  0  0  0
    7.8278  -15.2756   19.8330 C   0  0  0  0  0  0  0  0  0  0  0  0
    8.9132  -14.5959   19.8346 O   0  0  0  0  0  0  0  0  0  0  0  0
    8.2264  -16.1074   23.3246 C   0  0  0  0  0  0  0  0  0  0  0  0
    7.2266  -16.5967   23.9090 O   0  0  0  0  0  0  0  0  0  0  0  0
    7.3043  -15.5817   18.5797 O   0  0  0  0  0  0  0  0  0  0  0  0
   10.7056  -18.4657   24.5198 C   0  0  0  0  0  0  0  0  0  0  0  0
    9.6509  -17.4385   24.8339 C   0  0  2  0  0  0  0  0  0  0  0  0
    9.5296  -16.5070   23.7652 N   0  0  0  0  0  0  0  0  0  0  0  0
    9.9749  -16.7822   26.1374 C   0  0  0  0  0  0  0  0  0  0  0  0
   10.2422  -17.4209   27.1879 O   0  0  0  0  0  0  0  0  0  0  0  0
    5.9536  -11.8983   25.4731 C   0  0  0  0  0  0  0  0  0  0  0  0
    7.1132  -12.1369   26.8100 S   0  0  0  0  0  0  0  0  0  0  0  0
    8.4409  -13.3089   26.4157 C   0  0  0  0  0  0  0  0  0  0  0  0
    9.3543  -13.5435   27.5644 C   0  0  0  0  0  0  0  0  0  0  0  0
   10.3856  -14.6225   27.3710 C   0  0  2  0  0  0  0  0  0  0  0  0
    9.9761  -15.3619   26.1652 N   0  0  0  0  0  0  0  0  0  0  0  0
   10.3783  -15.5149   28.5541 C   0  0  0  0  0  0  0  0  0  0  0  0
   10.7625  -15.2090   29.6957 O   0  0  0  0  0  0  0  0  0  0  0  0
    9.8887  -16.8216   28.3516 O   0  0  0  0  0  0  0  0  0  0  0  0
  2  1  1  6
  3  2  1  0
  4  3  1  0
  4  5  2  0
  6  2  1  0
  6 11  1  0
  7  6  2  0
  8  4  1  0
 10 11  1  0
 10 12  1  0
 10  9  1  6
 12 13  2  0
 14 15  1  0
 16 15  1  0
 17 16  1  0
 18 17  1  1
 18 20  1  0
 19 12  1  0
 19 18  1  0
 20 21  2  0
 20 22  1  0
M  END
$$$$
