DAM.pdb
     RDKit          3D

 22 21  0  0  1  0  0  0  0  0999 V2000
   11.2805  -15.5135   18.1016 N   0  0  0  0  0  0  0  0  0  0  0  0
   11.8210  -15.4898   19.4487 C   0  0  1  0  0  0  0  0  0  0  0  0
   12.5332  -14.1763   19.6868 C   0  0  0  0  0  0  0  0  0  0  0  0
   13.8677  -14.2928   19.0405 C   0  0  0  0  0  0  0  0  0  0  0  0
   14.3080  -13.4043   18.2300 O   0  0  0  0  0  0  0  0  0  0  0  0
   10.7618  -15.7818   20.4163 C   0  0  0  0  0  0  0  0  0  0  0  0
    9.7302  -15.0632   20.4146 O   0  0  0  0  0  0  0  0  0  0  0  0
   14.7157  -15.3709   19.2794 O   0  0  0  0  0  0  0  0  0  0  0  0
    9.6834  -18.5347   22.6372 C   0  0  0  0  0  0  0  0  0  0  0  0
    9.7482  -17.0814   22.2500 C   0  0  2  0  0  0  0  0  0  0  0  0
   10.8403  -16.8496   21.3682 N   0  0  0  0  0  0  0  0  0  0  0  0
    9.8176  -16.2446   23.4869 C   0  0  0  0  0  0  0  0  0  0  0  0
   10.8970  -15.8359   23.9880 O   0  0  0  0  0  0  0  0  0  0  0  0
    7.3172  -10.9046   26.7726 C   0  0  0  0  0  0  0  0  0  0  0  0
    6.1620  -12.2261   26.4438 S   0  0  0  0  0  0  0  0  0  0  0  0
    6.8464  -13.8782   26.7501 C   0  0  0  0  0  0  0  0  0  0  0  0
    7.1509  -14.6113   25.4935 C   0  0  0  0  0  0  0  0  0  0  0  0
    8.5534  -15.1429   25.3691 C   0  0  2  0  0  0  0  0  0  0  0  0
    8.5869  -15.9050   24.1096 N   0  0  0  0  0  0  0  0  0  0  0  0
    8.8368  -16.0315   26.5207 C   0  0  0  0  0  0  0  0  0  0  0  0
    9.1897  -15.6609   27.6532 O   0  0  0  0  0  0  0  0  0  0  0  0
    8.6875  -17.4157   26.2970 O   0  0  0  0  0  0  0  0  0  0  0  0
  2  1  1  6
  3  2  1  0
  4  3  1  0
  4  5  2  0
  6  2  1  0
  6 11  1  0
  7  6  2  0
  8  4  1  0
 10 11  1  0
 10 12  1  0
 10  9  1  1
 12 13  2  0
 14 15  1  0
 16 15  1  0
 17 16  1  0
 18 17  1  1
 18 20  1  0
 19 12  1  0
 19 18  1  0
 20 21  2  0
 20 22  1  0
M  END
$$$$
