DAM.pdb
     RDKit          3D

 22 21  0  0  1  0  0  0  0  0999 V2000
    8.6975  -19.0150   20.2310 N   0  0  0  0  0  0  0  0  0  0  0  0
    9.8044  -18.1903   19.7816 C   0  0  1  0  0  0  0  0  0  0  0  0
   10.0443  -18.4231   18.3060 C   0  0  0  0  0  0  0  0  0  0  0  0
   10.2440  -19.8869   18.1333 C   0  0  0  0  0  0  0  0  0  0  0  0
   11.2197  -20.5072   18.6840 O   0  0  0  0  0  0  0  0  0  0  0  0
    9.5597  -16.7909   20.1359 C   0  0  0  0  0  0  0  0  0  0  0  0
   10.4836  -15.9559   19.9635 O   0  0  0  0  0  0  0  0  0  0  0  0
    9.3831  -20.6672   17.3663 O   0  0  0  0  0  0  0  0  0  0  0  0
    6.7781  -14.5711   21.2679 C   0  0  0  0  0  0  0  0  0  0  0  0
    8.2203  -14.9861   21.1496 C   0  0  2  0  0  0  0  0  0  0  0  0
    8.3158  -16.3223   20.6703 N   0  0  0  0  0  0  0  0  0  0  0  0
    8.8975  -14.7966   22.4688 C   0  0  0  0  0  0  0  0  0  0  0  0
   10.0351  -14.2743   22.5957 O   0  0  0  0  0  0  0  0  0  0  0  0
    5.9659  -11.3098   26.5288 C   0  0  0  0  0  0  0  0  0  0  0  0
    6.4838  -12.5987   27.6511 S   0  0  0  0  0  0  0  0  0  0  0  0
    7.8289  -13.6274   27.0000 C   0  0  0  0  0  0  0  0  0  0  0  0
    7.5985  -14.0433   25.5918 C   0  0  0  0  0  0  0  0  0  0  0  0
    8.6735  -14.8991   24.9776 C   0  0  2  0  0  0  0  0  0  0  0  0
    8.1988  -15.2359   23.6250 N   0  0  0  0  0  0  0  0  0  0  0  0
    8.8364  -16.1272   25.7909 C   0  0  0  0  0  0  0  0  0  0  0  0
    8.3202  -17.2314   25.5484 O   0  0  0  0  0  0  0  0  0  0  0  0
    9.6520  -16.0182   26.9359 O   0  0  0  0  0  0  0  0  0  0  0  0
  2  1  1  6
  3  2  1  0
  4  3  1  0
  4  5  2  0
  6  2  1  0
  6 11  1  0
  7  6  2  0
  8  4  1  0
 10 11  1  0
 10 12  1  0
 10  9  1  1
 12 13  2  0
 14 15  1  0
 16 15  1  0
 17 16  1  0
 18 17  1  1
 18 20  1  0
 19 12  1  0
 19 18  1  0
 20 21  2  0
 20 22  1  0
M  END
$$$$
