DAM.pdb
     RDKit          3D

 22 21  0  0  1  0  0  0  0  0999 V2000
    9.1830  -15.5046   18.7308 N   0  0  0  0  0  0  0  0  0  0  0  0
    8.6828  -14.3776   19.4970 C   0  0  1  0  0  0  0  0  0  0  0  0
    7.6921  -13.5961   18.6622 C   0  0  0  0  0  0  0  0  0  0  0  0
    8.2808  -13.4801   17.3013 C   0  0  0  0  0  0  0  0  0  0  0  0
    9.4223  -13.9831   17.0116 O   0  0  0  0  0  0  0  0  0  0  0  0
    8.1510  -14.8431   20.7793 C   0  0  0  0  0  0  0  0  0  0  0  0
    7.5958  -14.0094   21.5390 O   0  0  0  0  0  0  0  0  0  0  0  0
    7.6263  -12.8211   16.2640 O   0  0  0  0  0  0  0  0  0  0  0  0
    7.7016  -18.0335   22.6865 C   0  0  0  0  0  0  0  0  0  0  0  0
    7.8325  -16.5412   22.5382 C   0  0  2  0  0  0  0  0  0  0  0  0
    8.2303  -16.2058   21.2140 N   0  0  0  0  0  0  0  0  0  0  0  0
    8.7790  -16.0242   23.5734 C   0  0  0  0  0  0  0  0  0  0  0  0
   10.0034  -15.8299   23.3583 O   0  0  0  0  0  0  0  0  0  0  0  0
    5.4112  -12.1416   26.6806 C   0  0  0  0  0  0  0  0  0  0  0  0
    7.1417  -11.7792   26.9319 S   0  0  0  0  0  0  0  0  0  0  0  0
    8.2533  -12.9180   26.0608 C   0  0  0  0  0  0  0  0  0  0  0  0
    8.3241  -14.2535   26.7092 C   0  0  0  0  0  0  0  0  0  0  0  0
    9.1080  -15.3015   25.9659 C   0  0  2  0  0  0  0  0  0  0  0  0
    8.2436  -15.7437   24.8589 N   0  0  0  0  0  0  0  0  0  0  0  0
    9.3951  -16.4301   26.8824 C   0  0  0  0  0  0  0  0  0  0  0  0
    8.7505  -17.4904   26.9513 O   0  0  0  0  0  0  0  0  0  0  0  0
   10.4998  -16.2732   27.7445 O   0  0  0  0  0  0  0  0  0  0  0  0
  2  1  1  6
  3  2  1  0
  4  3  1  0
  4  5  2  0
  6  2  1  0
  6 11  1  0
  7  6  2  0
  8  4  1  0
 10 11  1  0
 10 12  1  0
 10  9  1  6
 12 13  2  0
 14 15  1  0
 16 15  1  0
 17 16  1  0
 18 17  1  1
 18 20  1  0
 19 12  1  0
 19 18  1  0
 20 21  2  0
 20 22  1  0
M  END
$$$$
