DAM.pdb
     RDKit          3D

 22 21  0  0  1  0  0  0  0  0999 V2000
    9.8579  -18.0515   18.6720 N   0  0  0  0  0  0  0  0  0  0  0  0
    8.6264  -17.2891   18.7705 C   0  0  1  0  0  0  0  0  0  0  0  0
    7.6376  -17.7864   17.7389 C   0  0  0  0  0  0  0  0  0  0  0  0
    8.3489  -17.7853   16.4327 C   0  0  0  0  0  0  0  0  0  0  0  0
    9.0895  -18.7626   16.0635 O   0  0  0  0  0  0  0  0  0  0  0  0
    8.1267  -17.3244   20.1462 C   0  0  0  0  0  0  0  0  0  0  0  0
    7.1029  -16.6531   20.4322 O   0  0  0  0  0  0  0  0  0  0  0  0
    8.2502  -16.7250   15.5357 O   0  0  0  0  0  0  0  0  0  0  0  0
    8.4071  -19.4001   23.1756 C   0  0  0  0  0  0  0  0  0  0  0  0
    8.1822  -18.0773   22.4933 C   0  0  2  0  0  0  0  0  0  0  0  0
    8.7465  -18.0888   21.1873 N   0  0  0  0  0  0  0  0  0  0  0  0
    8.7312  -16.9816   23.3494 C   0  0  0  0  0  0  0  0  0  0  0  0
    9.9517  -16.6784   23.3897 O   0  0  0  0  0  0  0  0  0  0  0  0
    6.6984  -10.5804   27.3307 C   0  0  0  0  0  0  0  0  0  0  0  0
    6.3962  -11.8766   26.1401 S   0  0  0  0  0  0  0  0  0  0  0  0
    7.1963  -13.4488   26.5636 C   0  0  0  0  0  0  0  0  0  0  0  0
    7.0062  -14.4858   25.5160 C   0  0  0  0  0  0  0  0  0  0  0  0
    8.2548  -15.1909   25.0586 C   0  0  2  0  0  0  0  0  0  0  0  0
    7.8062  -16.2584   24.1488 N   0  0  0  0  0  0  0  0  0  0  0  0
    8.9422  -15.7689   26.2373 C   0  0  0  0  0  0  0  0  0  0  0  0
    8.7157  -16.8855   26.7337 O   0  0  0  0  0  0  0  0  0  0  0  0
    9.9387  -14.9711   26.8364 O   0  0  0  0  0  0  0  0  0  0  0  0
  2  1  1  1
  3  2  1  0
  4  3  1  0
  4  5  2  0
  6  2  1  0
  6 11  1  0
  7  6  2  0
  8  4  1  0
 10 11  1  0
 10 12  1  0
 10  9  1  1
 12 13  2  0
 14 15  1  0
 16 15  1  0
 17 16  1  0
 18 17  1  1
 18 20  1  0
 19 12  1  0
 19 18  1  0
 20 21  2  0
 20 22  1  0
M  END
$$$$
