DAM.pdb
     RDKit          3D

 22 21  0  0  1  0  0  0  0  0999 V2000
    9.7593  -17.8830   18.0948 N   0  0  0  0  0  0  0  0  0  0  0  0
    8.6954  -16.9169   18.3003 C   0  0  1  0  0  0  0  0  0  0  0  0
    7.6332  -17.0980   17.2383 C   0  0  0  0  0  0  0  0  0  0  0  0
    8.3476  -17.2309   15.9405 C   0  0  0  0  0  0  0  0  0  0  0  0
    7.7326  -17.1683   14.8189 O   0  0  0  0  0  0  0  0  0  0  0  0
    8.1938  -17.0118   19.6726 C   0  0  0  0  0  0  0  0  0  0  0  0
    7.2482  -16.2603   20.0212 O   0  0  0  0  0  0  0  0  0  0  0  0
    9.7239  -17.4288   15.8687 O   0  0  0  0  0  0  0  0  0  0  0  0
    8.4715  -19.2079   22.6594 C   0  0  0  0  0  0  0  0  0  0  0  0
    8.2365  -17.8867   21.9773 C   0  0  2  0  0  0  0  0  0  0  0  0
    8.7269  -17.9218   20.6422 N   0  0  0  0  0  0  0  0  0  0  0  0
    8.8549  -16.7953   22.7905 C   0  0  0  0  0  0  0  0  0  0  0  0
   10.0574  -16.4426   22.6776 O   0  0  0  0  0  0  0  0  0  0  0  0
    6.3968  -10.7166   27.1992 C   0  0  0  0  0  0  0  0  0  0  0  0
    6.0917  -12.3651   26.5840 S   0  0  0  0  0  0  0  0  0  0  0  0
    7.5996  -13.2408   26.0829 C   0  0  0  0  0  0  0  0  0  0  0  0
    7.3396  -14.2811   25.0537 C   0  0  0  0  0  0  0  0  0  0  0  0
    8.5414  -15.0615   24.5934 C   0  0  2  0  0  0  0  0  0  0  0  0
    8.0202  -16.1361   23.7321 N   0  0  0  0  0  0  0  0  0  0  0  0
    9.2286  -15.6319   25.7759 C   0  0  0  0  0  0  0  0  0  0  0  0
    9.0058  -16.7475   26.2761 O   0  0  0  0  0  0  0  0  0  0  0  0
   10.2202  -14.8275   26.3742 O   0  0  0  0  0  0  0  0  0  0  0  0
  2  1  1  6
  3  2  1  0
  4  3  1  0
  4  5  2  0
  6  2  1  0
  6 11  1  0
  7  6  2  0
  8  4  1  0
 10 11  1  0
 10 12  1  0
 10  9  1  1
 12 13  2  0
 14 15  1  0
 16 15  1  0
 17 16  1  0
 18 17  1  1
 18 20  1  0
 19 12  1  0
 19 18  1  0
 20 21  2  0
 20 22  1  0
M  END
$$$$
