DAM.pdb
     RDKit          3D

 22 21  0  0  1  0  0  0  0  0999 V2000
    7.3781  -18.2162   20.9409 N   0  0  0  0  0  0  0  0  0  0  0  0
    8.3594  -17.7967   19.9567 C   0  0  1  0  0  0  0  0  0  0  0  0
    7.8384  -18.0847   18.5658 C   0  0  0  0  0  0  0  0  0  0  0  0
    8.9963  -17.9520   17.6418 C   0  0  0  0  0  0  0  0  0  0  0  0
   10.2051  -18.0625   18.0501 O   0  0  0  0  0  0  0  0  0  0  0  0
    8.7252  -16.3971   20.1824 C   0  0  0  0  0  0  0  0  0  0  0  0
    9.9439  -16.0984   20.2595 O   0  0  0  0  0  0  0  0  0  0  0  0
    8.8347  -17.7025   16.2816 O   0  0  0  0  0  0  0  0  0  0  0  0
    7.1248  -13.0292   20.1955 C   0  0  0  0  0  0  0  0  0  0  0  0
    8.2075  -14.0143   20.5469 C   0  0  2  0  0  0  0  0  0  0  0  0
    7.7615  -15.3460   20.3193 N   0  0  0  0  0  0  0  0  0  0  0  0
    8.6431  -13.7850   21.9584 C   0  0  0  0  0  0  0  0  0  0  0  0
    9.1052  -12.6905   22.3726 O   0  0  0  0  0  0  0  0  0  0  0  0
    7.2238  -10.9984   26.9809 C   0  0  0  0  0  0  0  0  0  0  0  0
    6.1980  -12.3837   26.5144 S   0  0  0  0  0  0  0  0  0  0  0  0
    7.1339  -13.9094   26.2176 C   0  0  0  0  0  0  0  0  0  0  0  0
    7.2594  -14.2293   24.7716 C   0  0  0  0  0  0  0  0  0  0  0  0
    8.6221  -14.6772   24.3161 C   0  0  2  0  0  0  0  0  0  0  0  0
    8.5172  -14.8750   22.8607 N   0  0  0  0  0  0  0  0  0  0  0  0
    8.9613  -15.9528   24.9898 C   0  0  0  0  0  0  0  0  0  0  0  0
    9.0176  -17.0682   24.4448 O   0  0  0  0  0  0  0  0  0  0  0  0
    9.2436  -15.8783   26.3693 O   0  0  0  0  0  0  0  0  0  0  0  0
  2  1  1  1
  3  2  1  0
  4  3  1  0
  4  5  2  0
  6  2  1  0
  6 11  1  0
  7  6  2  0
  8  4  1  0
 10 11  1  0
 10 12  1  0
 10  9  1  1
 12 13  2  0
 14 15  1  0
 16 15  1  0
 17 16  1  0
 18 17  1  1
 18 20  1  0
 19 12  1  0
 19 18  1  0
 20 21  2  0
 20 22  1  0
M  END
$$$$
