DAM.pdb
     RDKit          3D

 22 21  0  0  1  0  0  0  0  0999 V2000
    6.2978  -19.4817   21.4088 N   0  0  0  0  0  0  0  0  0  0  0  0
    6.7911  -18.8444   22.6162 C   0  0  1  0  0  0  0  0  0  0  0  0
    7.7302  -19.7848   23.3391 C   0  0  0  0  0  0  0  0  0  0  0  0
    6.8843  -20.6457   24.2083 C   0  0  0  0  0  0  0  0  0  0  0  0
    5.6405  -20.4052   24.3955 O   0  0  0  0  0  0  0  0  0  0  0  0
    7.3789  -17.5439   22.2892 C   0  0  0  0  0  0  0  0  0  0  0  0
    8.4068  -17.5127   21.5660 O   0  0  0  0  0  0  0  0  0  0  0  0
    7.3931  -21.7621   24.8666 O   0  0  0  0  0  0  0  0  0  0  0  0
    6.4576  -13.9571   22.3600 C   0  0  0  0  0  0  0  0  0  0  0  0
    7.4594  -15.0807   22.3596 C   0  0  2  0  0  0  0  0  0  0  0  0
    6.8398  -16.2999   22.7519 N   0  0  0  0  0  0  0  0  0  0  0  0
    8.6136  -14.7122   23.2354 C   0  0  0  0  0  0  0  0  0  0  0  0
    9.2947  -13.6655   23.0812 O   0  0  0  0  0  0  0  0  0  0  0  0
   10.6933  -13.6758   30.4300 C   0  0  0  0  0  0  0  0  0  0  0  0
    9.6455  -13.7169   28.9845 S   0  0  0  0  0  0  0  0  0  0  0  0
   10.4464  -14.4501   27.5311 C   0  0  0  0  0  0  0  0  0  0  0  0
    9.4872  -14.7257   26.4297 C   0  0  0  0  0  0  0  0  0  0  0  0
   10.0742  -15.3453   25.1900 C   0  0  2  0  0  0  0  0  0  0  0  0
    8.9374  -15.6059   24.2910 N   0  0  0  0  0  0  0  0  0  0  0  0
   10.7470  -16.6138   25.5565 C   0  0  0  0  0  0  0  0  0  0  0  0
   11.9753  -16.7895   25.6261 O   0  0  0  0  0  0  0  0  0  0  0  0
    9.9070  -17.7076   25.8505 O   0  0  0  0  0  0  0  0  0  0  0  0
  2  1  1  6
  3  2  1  0
  4  3  1  0
  4  5  2  0
  6  2  1  0
  6 11  1  0
  7  6  2  0
  8  4  1  0
 10 11  1  0
 10 12  1  0
 10  9  1  1
 12 13  2  0
 14 15  1  0
 16 15  1  0
 17 16  1  0
 18 17  1  1
 18 20  1  0
 19 12  1  0
 19 18  1  0
 20 21  2  0
 20 22  1  0
M  END
$$$$
