DAM.pdb
     RDKit          3D

 22 21  0  0  1  0  0  0  0  0999 V2000
    9.6128  -19.0957   19.4371 N   0  0  0  0  0  0  0  0  0  0  0  0
   10.1565  -17.7718   19.1942 C   0  0  1  0  0  0  0  0  0  0  0  0
   10.1317  -17.4773   17.7104 C   0  0  0  0  0  0  0  0  0  0  0  0
   11.2889  -18.1970   17.1145 C   0  0  0  0  0  0  0  0  0  0  0  0
   12.1118  -18.8675   17.8310 O   0  0  0  0  0  0  0  0  0  0  0  0
    9.4505  -16.7848   20.0135 C   0  0  0  0  0  0  0  0  0  0  0  0
    9.9090  -15.6158   20.0759 O   0  0  0  0  0  0  0  0  0  0  0  0
   11.5440  -18.1859   15.7458 O   0  0  0  0  0  0  0  0  0  0  0  0
    6.2668  -16.5240   21.9778 C   0  0  0  0  0  0  0  0  0  0  0  0
    7.5957  -16.0436   21.4588 C   0  0  2  0  0  0  0  0  0  0  0  0
    8.2585  -17.0838   20.7497 N   0  0  0  0  0  0  0  0  0  0  0  0
    8.4069  -15.5136   22.5972 C   0  0  0  0  0  0  0  0  0  0  0  0
    9.1004  -14.4661   22.5261 O   0  0  0  0  0  0  0  0  0  0  0  0
    6.7891  -10.7585   26.8356 C   0  0  0  0  0  0  0  0  0  0  0  0
    6.4749  -12.4883   26.5225 S   0  0  0  0  0  0  0  0  0  0  0  0
    7.8954  -13.3645   25.8112 C   0  0  0  0  0  0  0  0  0  0  0  0
    7.5995  -14.7925   25.5246 C   0  0  0  0  0  0  0  0  0  0  0  0
    8.7720  -15.6294   25.0888 C   0  0  2  0  0  0  0  0  0  0  0  0
    8.3753  -16.2480   23.8127 N   0  0  0  0  0  0  0  0  0  0  0  0
    9.0291  -16.6702   26.1119 C   0  0  0  0  0  0  0  0  0  0  0  0
    8.4657  -17.7758   26.1792 O   0  0  0  0  0  0  0  0  0  0  0  0
   10.0015  -16.3656   27.0865 O   0  0  0  0  0  0  0  0  0  0  0  0
  2  1  1  6
  3  2  1  0
  4  3  1  0
  4  5  2  0
  6  2  1  0
  6 11  1  0
  7  6  2  0
  8  4  1  0
 10 11  1  0
 10 12  1  0
 10  9  1  1
 12 13  2  0
 14 15  1  0
 16 15  1  0
 17 16  1  0
 18 17  1  1
 18 20  1  0
 19 12  1  0
 19 18  1  0
 20 21  2  0
 20 22  1  0
M  END
$$$$
