DAM.pdb
     RDKit          3D

 22 21  0  0  1  0  0  0  0  0999 V2000
    9.8380  -18.6228   18.8017 N   0  0  0  0  0  0  0  0  0  0  0  0
   10.4758  -18.1466   20.0157 C   0  0  1  0  0  0  0  0  0  0  0  0
   11.6041  -17.2035   19.6599 C   0  0  0  0  0  0  0  0  0  0  0  0
   12.7815  -18.0523   19.3349 C   0  0  0  0  0  0  0  0  0  0  0  0
   12.9618  -19.1978   19.8784 O   0  0  0  0  0  0  0  0  0  0  0  0
    9.4727  -17.5702   20.9129 C   0  0  0  0  0  0  0  0  0  0  0  0
    9.1060  -16.3828   20.7224 O   0  0  0  0  0  0  0  0  0  0  0  0
   13.7537  -17.6534   18.4215 O   0  0  0  0  0  0  0  0  0  0  0  0
    7.2251  -18.6588   23.7043 C   0  0  0  0  0  0  0  0  0  0  0  0
    7.9156  -17.6526   22.8228 C   0  0  2  0  0  0  0  0  0  0  0  0
    8.8843  -18.2931   22.0008 N   0  0  0  0  0  0  0  0  0  0  0  0
    8.5039  -16.5735   23.6738 C   0  0  0  0  0  0  0  0  0  0  0  0
    8.9050  -15.4716   23.2175 O   0  0  0  0  0  0  0  0  0  0  0  0
    7.1941  -11.0029   25.5703 C   0  0  0  0  0  0  0  0  0  0  0  0
    6.7815  -12.3368   26.6836 S   0  0  0  0  0  0  0  0  0  0  0  0
    8.1044  -13.5654   26.8622 C   0  0  0  0  0  0  0  0  0  0  0  0
    7.9188  -14.7375   25.9673 C   0  0  0  0  0  0  0  0  0  0  0  0
    9.0101  -15.7731   26.0100 C   0  0  2  0  0  0  0  0  0  0  0  0
    8.6029  -16.8288   25.0677 N   0  0  0  0  0  0  0  0  0  0  0  0
    9.1076  -16.3153   27.3858 C   0  0  0  0  0  0  0  0  0  0  0  0
    8.5775  -17.3635   27.7914 O   0  0  0  0  0  0  0  0  0  0  0  0
    9.8730  -15.5661   28.3029 O   0  0  0  0  0  0  0  0  0  0  0  0
  2  1  1  6
  3  2  1  0
  4  3  1  0
  4  5  2  0
  6  2  1  0
  6 11  1  0
  7  6  2  0
  8  4  1  0
 10 11  1  0
 10 12  1  0
 10  9  1  1
 12 13  2  0
 14 15  1  0
 16 15  1  0
 17 16  1  0
 18 17  1  1
 18 20  1  0
 19 12  1  0
 19 18  1  0
 20 21  2  0
 20 22  1  0
M  END
$$$$
