DAM.pdb
     RDKit          3D

 22 21  0  0  1  0  0  0  0  0999 V2000
    5.9233  -18.7353   22.5481 N   0  0  0  0  0  0  0  0  0  0  0  0
    7.1776  -19.1585   21.9522 C   0  0  1  0  0  0  0  0  0  0  0  0
    6.9067  -20.1869   20.8760 C   0  0  0  0  0  0  0  0  0  0  0  0
    6.2634  -21.3470   21.5485 C   0  0  0  0  0  0  0  0  0  0  0  0
    5.0532  -21.6867   21.3035 O   0  0  0  0  0  0  0  0  0  0  0  0
    7.9293  -17.9902   21.4898 C   0  0  0  0  0  0  0  0  0  0  0  0
    9.1135  -18.1521   21.1001 O   0  0  0  0  0  0  0  0  0  0  0  0
    6.9379  -22.1314   22.4804 O   0  0  0  0  0  0  0  0  0  0  0  0
    7.3950  -14.5205   20.3705 C   0  0  0  0  0  0  0  0  0  0  0  0
    8.2096  -15.5774   21.0672 C   0  0  2  0  0  0  0  0  0  0  0  0
    7.3818  -16.6668   21.4575 N   0  0  0  0  0  0  0  0  0  0  0  0
    8.9336  -14.9609   22.2207 C   0  0  0  0  0  0  0  0  0  0  0  0
    9.8973  -14.1628   22.0880 O   0  0  0  0  0  0  0  0  0  0  0  0
    5.7409  -12.2114   26.9413 C   0  0  0  0  0  0  0  0  0  0  0  0
    7.4631  -11.7508   27.0455 S   0  0  0  0  0  0  0  0  0  0  0  0
    8.5976  -13.0744   26.5430 C   0  0  0  0  0  0  0  0  0  0  0  0
    8.1830  -13.7303   25.2754 C   0  0  0  0  0  0  0  0  0  0  0  0
    9.1392  -14.7538   24.7246 C   0  0  2  0  0  0  0  0  0  0  0  0
    8.4906  -15.3087   23.5247 N   0  0  0  0  0  0  0  0  0  0  0  0
    9.3483  -15.8141   25.7385 C   0  0  0  0  0  0  0  0  0  0  0  0
    8.8104  -16.9344   25.7379 O   0  0  0  0  0  0  0  0  0  0  0  0
   10.2390  -15.5113   26.7888 O   0  0  0  0  0  0  0  0  0  0  0  0
  2  1  1  6
  3  2  1  0
  4  3  1  0
  4  5  2  0
  6  2  1  0
  6 11  1  0
  7  6  2  0
  8  4  1  0
 10 11  1  0
 10 12  1  0
 10  9  1  1
 12 13  2  0
 14 15  1  0
 16 15  1  0
 17 16  1  0
 18 17  1  1
 18 20  1  0
 19 12  1  0
 19 18  1  0
 20 21  2  0
 20 22  1  0
M  END
$$$$
