DAM.pdb
     RDKit          3D

 22 21  0  0  1  0  0  0  0  0999 V2000
   10.0319  -17.2984   17.5422 N   0  0  0  0  0  0  0  0  0  0  0  0
   10.8290  -17.2693   18.7552 C   0  0  1  0  0  0  0  0  0  0  0  0
   11.9059  -16.2141   18.6296 C   0  0  0  0  0  0  0  0  0  0  0  0
   12.9369  -16.7657   17.7104 C   0  0  0  0  0  0  0  0  0  0  0  0
   13.0503  -18.0231   17.4958 O   0  0  0  0  0  0  0  0  0  0  0  0
    9.9582  -17.1021   19.9202 C   0  0  0  0  0  0  0  0  0  0  0  0
    9.1699  -16.1231   19.9469 O   0  0  0  0  0  0  0  0  0  0  0  0
   13.8360  -15.9494   17.0293 O   0  0  0  0  0  0  0  0  0  0  0  0
    8.6094  -19.1637   22.6539 C   0  0  0  0  0  0  0  0  0  0  0  0
    8.9956  -17.8310   22.0698 C   0  0  2  0  0  0  0  0  0  0  0  0
    9.9577  -18.0011   21.0356 N   0  0  0  0  0  0  0  0  0  0  0  0
    9.4777  -16.9343   23.1645 C   0  0  0  0  0  0  0  0  0  0  0  0
   10.6933  -16.7813   23.4509 O   0  0  0  0  0  0  0  0  0  0  0  0
    6.5515  -10.6788   26.6692 C   0  0  0  0  0  0  0  0  0  0  0  0
    6.3077  -12.4013   26.2659 S   0  0  0  0  0  0  0  0  0  0  0  0
    7.8449  -13.2721   25.8531 C   0  0  0  0  0  0  0  0  0  0  0  0
    7.6153  -14.6970   25.4980 C   0  0  0  0  0  0  0  0  0  0  0  0
    8.8427  -15.4852   25.1270 C   0  0  2  0  0  0  0  0  0  0  0  0
    8.4924  -16.2275   23.9045 N   0  0  0  0  0  0  0  0  0  0  0  0
    9.1656  -16.4226   26.2285 C   0  0  0  0  0  0  0  0  0  0  0  0
    8.7472  -17.5879   26.3351 O   0  0  0  0  0  0  0  0  0  0  0  0
   10.0247  -15.9361   27.2352 O   0  0  0  0  0  0  0  0  0  0  0  0
  2  1  1  6
  3  2  1  0
  4  3  1  0
  4  5  2  0
  6  2  1  0
  6 11  1  0
  7  6  2  0
  8  4  1  0
 10 11  1  0
 10 12  1  0
 10  9  1  1
 12 13  2  0
 14 15  1  0
 16 15  1  0
 17 16  1  0
 18 17  1  1
 18 20  1  0
 19 12  1  0
 19 18  1  0
 20 21  2  0
 20 22  1  0
M  END
$$$$
