SVP.pdb
     RDKit          3D

 21 21  0  0  1  0  0  0  0  0999 V2000
   24.6024    2.1568   -1.2689 O   0  0  0  0  0  0  0  0  0  0  0  0
   25.8392    2.7080   -1.5022 C   0  0  0  0  0  0  0  0  0  0  0  0
   26.9832    1.7414   -1.3028 C   0  0  2  0  0  0  0  0  0  0  0  0
   27.3573    1.8075    0.0933 N   0  0  0  0  0  0  0  0  0  0  0  0
   28.1640    2.0948   -2.1110 C   0  0  0  0  0  0  0  0  0  0  0  0
   28.9547    2.9529   -1.7263 O   0  0  0  0  0  0  0  0  0  0  0  0
   30.7472   -0.0396   -3.0582 C   0  0  0  0  0  0  0  0  0  0  0  0
   30.5597    0.6766   -4.3685 C   0  0  1  0  0  0  0  0  0  0  0  0
   30.4377   -0.2207   -5.5397 C   0  0  0  0  0  0  0  0  0  0  0  0
   29.5057    1.7222   -4.2067 C   0  0  2  0  0  0  0  0  0  0  0  0
   28.4366    1.4717   -3.3472 N   0  0  0  0  0  0  0  0  0  0  0  0
   29.0881    2.3235   -5.4863 C   0  0  0  0  0  0  0  0  0  0  0  0
   28.1877    1.7033   -6.1868 O   0  0  0  0  0  0  0  0  0  0  0  0
   29.5523    3.5261   -6.0715 N   0  0  0  0  0  0  0  0  0  0  0  0
   30.4326    4.5202   -5.5263 C   0  0  0  0  0  0  0  0  0  0  0  0
   30.9083    5.3331   -6.7213 C   0  0  0  0  0  0  0  0  0  0  0  0
   29.8149    5.1899   -7.7537 C   0  0  0  0  0  0  0  0  0  0  0  0
   29.1303    3.9148   -7.4329 C   0  0  1  0  0  0  0  0  0  0  0  0
   29.5572    2.8804   -8.4097 C   0  0  0  0  0  0  0  0  0  0  0  0
   28.9788    2.8879   -9.6543 O   0  0  0  0  0  0  0  0  0  0  0  0
   30.4118    2.0220   -8.1318 O   0  0  0  0  0  0  0  0  0  0  0  0
  2  1  1  0
  3  4  1  1
  3  2  1  0
  5  6  2  0
  5  3  1  0
  8  7  1  1
  8 10  1  0
  9  8  1  0
 10 11  1  6
 10 12  1  0
 11  5  1  0
 12 14  1  0
 13 12  2  0
 14 15  1  0
 14 18  1  0
 15 16  1  0
 16 17  1  0
 18 17  1  0
 19 20  1  0
 18 19  1  6
 21 19  2  0
M  END
$$$$
