SVP.pdb
     RDKit          3D

 21 21  0  0  1  0  0  0  0  0999 V2000
   13.2437  -13.4811    7.5329 O   0  0  0  0  0  0  0  0  0  0  0  0
   13.4436  -14.4399    6.5693 C   0  0  0  0  0  0  0  0  0  0  0  0
   13.7942  -13.8748    5.2125 C   0  0  2  0  0  0  0  0  0  0  0  0
   12.5486  -13.5453    4.5543 N   0  0  0  0  0  0  0  0  0  0  0  0
   14.5154  -14.8452    4.3696 C   0  0  0  0  0  0  0  0  0  0  0  0
   13.9035  -15.6095    3.6275 O   0  0  0  0  0  0  0  0  0  0  0  0
   18.7426  -16.5562    2.5089 C   0  0  0  0  0  0  0  0  0  0  0  0
   18.0570  -15.3999    3.1857 C   0  0  1  0  0  0  0  0  0  0  0  0
   18.1043  -14.1331    2.4211 C   0  0  0  0  0  0  0  0  0  0  0  0
   16.7170  -15.8445    3.6730 C   0  0  2  0  0  0  0  0  0  0  0  0
   15.9232  -14.9393    4.3764 N   0  0  0  0  0  0  0  0  0  0  0  0
   16.7411  -17.1861    4.2836 C   0  0  0  0  0  0  0  0  0  0  0  0
   17.1288  -17.2874    5.5187 O   0  0  0  0  0  0  0  0  0  0  0  0
   16.3856  -18.4182    3.6838 N   0  0  0  0  0  0  0  0  0  0  0  0
   15.8148  -18.6668    2.3904 C   0  0  0  0  0  0  0  0  0  0  0  0
   16.0512  -20.1465    2.1257 C   0  0  0  0  0  0  0  0  0  0  0  0
   16.1484  -20.7793    3.4940 C   0  0  0  0  0  0  0  0  0  0  0  0
   16.5831  -19.6929    4.4040 C   0  0  1  0  0  0  0  0  0  0  0  0
   18.0226  -19.8775    4.7205 C   0  0  0  0  0  0  0  0  0  0  0  0
   18.3680  -20.8624    5.6117 O   0  0  0  0  0  0  0  0  0  0  0  0
   18.9078  -19.1729    4.2062 O   0  0  0  0  0  0  0  0  0  0  0  0
  2  1  1  0
  3  4  1  6
  3  2  1  0
  5  6  2  0
  5  3  1  0
  8  7  1  6
  8 10  1  0
  9  8  1  0
 10 11  1  1
 10 12  1  0
 11  5  1  0
 12 14  1  0
 13 12  2  0
 14 15  1  0
 14 18  1  0
 15 16  1  0
 16 17  1  0
 18 17  1  0
 19 20  1  0
 18 19  1  6
 21 19  2  0
M  END
$$$$
