SVP.pdb
     RDKit          3D

 21 21  0  0  1  0  0  0  0  0999 V2000
   12.0937  -10.8228  -13.0726 O   0  0  0  0  0  0  0  0  0  0  0  0
   12.7625  -11.9719  -13.4193 C   0  0  0  0  0  0  0  0  0  0  0  0
   14.1753  -11.7323  -13.8983 C   0  0  2  0  0  0  0  0  0  0  0  0
   14.7553  -13.0282  -14.1771 N   0  0  0  0  0  0  0  0  0  0  0  0
   15.0080  -11.0668  -12.8804 C   0  0  0  0  0  0  0  0  0  0  0  0
   15.4453  -11.6938  -11.9186 O   0  0  0  0  0  0  0  0  0  0  0  0
   18.3437  -10.0128  -12.5070 C   0  0  0  0  0  0  0  0  0  0  0  0
   17.5804   -8.7159  -12.5331 C   0  0  1  0  0  0  0  0  0  0  0  0
   17.7778   -7.9190  -13.7650 C   0  0  0  0  0  0  0  0  0  0  0  0
   16.1700   -8.9712  -12.1132 C   0  0  2  0  0  0  0  0  0  0  0  0
   15.3365   -9.6971  -12.9631 N   0  0  0  0  0  0  0  0  0  0  0  0
   15.5143   -7.7817  -11.5402 C   0  0  0  0  0  0  0  0  0  0  0  0
   14.9347   -6.9528  -12.3545 O   0  0  0  0  0  0  0  0  0  0  0  0
   15.4289   -7.4112  -10.1765 N   0  0  0  0  0  0  0  0  0  0  0  0
   15.8757   -8.1230   -9.0128 C   0  0  0  0  0  0  0  0  0  0  0  0
   15.9180   -7.0858   -7.9002 C   0  0  0  0  0  0  0  0  0  0  0  0
   14.9098   -6.0357   -8.3041 C   0  0  0  0  0  0  0  0  0  0  0  0
   14.8059   -6.1317   -9.7797 C   0  0  1  0  0  0  0  0  0  0  0  0
   15.5469   -4.9977  -10.3890 C   0  0  0  0  0  0  0  0  0  0  0  0
   16.7806   -5.2497  -10.9351 O   0  0  0  0  0  0  0  0  0  0  0  0
   15.0844   -3.8445  -10.4160 O   0  0  0  0  0  0  0  0  0  0  0  0
  2  1  1  0
  3  4  1  1
  3  2  1  0
  5  6  2  0
  5  3  1  0
  8  7  1  6
  8 10  1  0
  9  8  1  0
 10 11  1  6
 10 12  1  0
 11  5  1  0
 12 14  1  0
 13 12  2  0
 14 15  1  0
 14 18  1  0
 15 16  1  0
 16 17  1  0
 18 17  1  0
 19 20  1  0
 18 19  1  6
 21 19  2  0
M  END
$$$$
