SVP.pdb
     RDKit          3D

 21 21  0  0  1  0  0  0  0  0999 V2000
   20.4384  -11.6063  -20.8726 O   0  0  0  0  0  0  0  0  0  0  0  0
   20.6048  -11.4082  -19.5231 C   0  0  0  0  0  0  0  0  0  0  0  0
   21.7869  -12.1478  -18.9411 C   0  0  2  0  0  0  0  0  0  0  0  0
   21.3604  -13.5093  -18.7008 N   0  0  0  0  0  0  0  0  0  0  0  0
   22.2322  -11.5737  -17.6587 C   0  0  0  0  0  0  0  0  0  0  0  0
   21.6337  -11.8261  -16.6159 O   0  0  0  0  0  0  0  0  0  0  0  0
   26.1012   -9.6731  -17.2951 C   0  0  0  0  0  0  0  0  0  0  0  0
   25.3142  -10.2129  -16.1313 C   0  0  1  0  0  0  0  0  0  0  0  0
   25.7674   -9.7211  -14.8106 C   0  0  0  0  0  0  0  0  0  0  0  0
   23.8560  -10.0946  -16.4314 C   0  0  2  0  0  0  0  0  0  0  0  0
   23.3515  -10.7192  -17.5714 N   0  0  0  0  0  0  0  0  0  0  0  0
   23.3379   -8.7269  -16.2461 C   0  0  0  0  0  0  0  0  0  0  0  0
   23.5562   -7.8591  -17.1870 O   0  0  0  0  0  0  0  0  0  0  0  0
   22.6099   -8.2175  -15.1440 N   0  0  0  0  0  0  0  0  0  0  0  0
   22.1753   -8.8916  -13.9535 C   0  0  0  0  0  0  0  0  0  0  0  0
   21.8383   -7.7840  -12.9661 C   0  0  0  0  0  0  0  0  0  0  0  0
   21.4823   -6.5907  -13.8214 C   0  0  0  0  0  0  0  0  0  0  0  0
   22.1806   -6.8043  -15.1114 C   0  0  1  0  0  0  0  0  0  0  0  0
   23.3678   -5.9134  -15.1692 C   0  0  0  0  0  0  0  0  0  0  0  0
   23.1579   -4.5634  -15.2992 O   0  0  0  0  0  0  0  0  0  0  0  0
   24.5281   -6.3538  -15.1037 O   0  0  0  0  0  0  0  0  0  0  0  0
  2  1  1  0
  3  4  1  1
  3  2  1  0
  5  6  2  0
  5  3  1  0
  8  7  1  6
  8 10  1  0
  9  8  1  0
 10 11  1  6
 10 12  1  0
 11  5  1  0
 12 14  1  0
 13 12  2  0
 14 15  1  0
 14 18  1  0
 15 16  1  0
 16 17  1  0
 18 17  1  0
 19 20  1  0
 18 19  1  1
 21 19  2  0
M  END
$$$$
