SVP.pdb
     RDKit          3D

 21 21  0  0  1  0  0  0  0  0999 V2000
   18.6562  -25.9125  -13.2225 O   0  0  0  0  0  0  0  0  0  0  0  0
   19.4172  -26.5883  -12.2993 C   0  0  0  0  0  0  0  0  0  0  0  0
   20.8351  -26.8473  -12.7525 C   0  0  2  0  0  0  0  0  0  0  0  0
   21.4808  -27.6161  -11.7106 N   0  0  0  0  0  0  0  0  0  0  0  0
   21.5996  -25.6019  -12.9440 C   0  0  0  0  0  0  0  0  0  0  0  0
   21.9284  -24.9123  -11.9818 O   0  0  0  0  0  0  0  0  0  0  0  0
   24.5342  -22.8370  -15.6885 C   0  0  0  0  0  0  0  0  0  0  0  0
   24.0340  -24.1869  -15.2495 C   0  0  1  0  0  0  0  0  0  0  0  0
   25.0561  -25.0278  -14.5865 C   0  0  0  0  0  0  0  0  0  0  0  0
   22.7333  -24.0168  -14.5355 C   0  0  2  0  0  0  0  0  0  0  0  0
   21.9838  -25.1507  -14.2245 N   0  0  0  0  0  0  0  0  0  0  0  0
   21.9162  -22.9168  -15.0793 C   0  0  0  0  0  0  0  0  0  0  0  0
   21.3196  -23.1048  -16.2172 O   0  0  0  0  0  0  0  0  0  0  0  0
   21.6873  -21.6421  -14.5074 N   0  0  0  0  0  0  0  0  0  0  0  0
   22.2103  -21.0853  -13.2921 C   0  0  0  0  0  0  0  0  0  0  0  0
   21.9826  -19.5853  -13.4081 C   0  0  0  0  0  0  0  0  0  0  0  0
   20.8029  -19.4382  -14.3401 C   0  0  0  0  0  0  0  0  0  0  0  0
   20.7963  -20.6671  -15.1693 C   0  0  1  0  0  0  0  0  0  0  0  0
   21.3198  -20.3389  -16.5201 C   0  0  0  0  0  0  0  0  0  0  0  0
   20.4961  -19.6657  -17.3872 O   0  0  0  0  0  0  0  0  0  0  0  0
   22.4672  -20.6543  -16.8785 O   0  0  0  0  0  0  0  0  0  0  0  0
  2  1  1  0
  3  4  1  1
  3  2  1  0
  5  6  2  0
  5  3  1  0
  8  7  1  1
  8 10  1  0
  9  8  1  0
 10 11  1  6
 10 12  1  0
 11  5  1  0
 12 14  1  0
 13 12  2  0
 14 15  1  0
 14 18  1  0
 15 16  1  0
 16 17  1  0
 18 17  1  0
 19 20  1  0
 18 19  1  6
 21 19  2  0
M  END
$$$$
