SVP.pdb
     RDKit          3D

 21 21  0  0  1  0  0  0  0  0999 V2000
   26.9525  -24.8488  -18.4412 O   0  0  0  0  0  0  0  0  0  0  0  0
   27.5535  -24.3785  -17.2986 C   0  0  0  0  0  0  0  0  0  0  0  0
   28.2225  -23.0350  -17.4721 C   0  0  2  0  0  0  0  0  0  0  0  0
   29.6239  -23.2877  -17.7283 N   0  0  0  0  0  0  0  0  0  0  0  0
   28.1212  -22.1972  -16.2637 C   0  0  0  0  0  0  0  0  0  0  0  0
   29.0109  -22.2064  -15.4165 O   0  0  0  0  0  0  0  0  0  0  0  0
   26.5118  -18.1360  -14.1881 C   0  0  0  0  0  0  0  0  0  0  0  0
   26.8990  -18.9571  -15.3885 C   0  0  1  0  0  0  0  0  0  0  0  0
   28.1071  -18.4717  -16.0931 C   0  0  0  0  0  0  0  0  0  0  0  0
   26.8680  -20.4042  -15.0205 C   0  0  2  0  0  0  0  0  0  0  0  0
   27.0122  -21.3573  -16.0280 N   0  0  0  0  0  0  0  0  0  0  0  0
   25.7953  -20.7336  -14.0644 C   0  0  0  0  0  0  0  0  0  0  0  0
   24.6033  -20.9448  -14.5338 O   0  0  0  0  0  0  0  0  0  0  0  0
   25.8952  -20.8551  -12.6574 N   0  0  0  0  0  0  0  0  0  0  0  0
   27.0154  -20.5882  -11.8005 C   0  0  0  0  0  0  0  0  0  0  0  0
   26.4308  -20.4744  -10.4003 C   0  0  0  0  0  0  0  0  0  0  0  0
   25.1650  -21.2982  -10.4353 C   0  0  0  0  0  0  0  0  0  0  0  0
   24.7435  -21.3183  -11.8564 C   0  0  1  0  0  0  0  0  0  0  0  0
   23.5984  -20.3887  -12.0319 C   0  0  0  0  0  0  0  0  0  0  0  0
   22.3657  -20.7878  -11.5794 O   0  0  0  0  0  0  0  0  0  0  0  0
   23.7273  -19.2758  -12.5699 O   0  0  0  0  0  0  0  0  0  0  0  0
  2  1  1  0
  3  4  1  1
  3  2  1  0
  5  6  2  0
  5  3  1  0
  8  7  1  1
  8 10  1  0
  9  8  1  0
 10 11  1  6
 10 12  1  0
 11  5  1  0
 12 14  1  0
 13 12  2  0
 14 15  1  0
 14 18  1  0
 15 16  1  0
 16 17  1  0
 18 17  1  0
 19 20  1  0
 18 19  1  1
 21 19  2  0
M  END
$$$$
