SVP.pdb
     RDKit          3D

 21 21  0  0  1  0  0  0  0  0999 V2000
   21.0766  -10.6668  -16.9076 O   0  0  0  0  0  0  0  0  0  0  0  0
   19.7844  -10.4136  -16.5152 C   0  0  0  0  0  0  0  0  0  0  0  0
   19.3274  -11.2557  -15.3470 C   0  0  2  0  0  0  0  0  0  0  0  0
   19.0822  -12.5886  -15.8537 N   0  0  0  0  0  0  0  0  0  0  0  0
   18.0765  -10.7552  -14.7495 C   0  0  0  0  0  0  0  0  0  0  0  0
   16.9851  -11.1330  -15.1683 O   0  0  0  0  0  0  0  0  0  0  0  0
   15.9495   -8.4216  -11.0047 C   0  0  0  0  0  0  0  0  0  0  0  0
   16.7019   -9.5668  -11.6273 C   0  0  1  0  0  0  0  0  0  0  0  0
   16.1336  -10.9010  -11.3296 C   0  0  0  0  0  0  0  0  0  0  0  0
   16.9693   -9.2521  -13.0626 C   0  0  2  0  0  0  0  0  0  0  0  0
   18.0755   -9.8313  -13.6831 N   0  0  0  0  0  0  0  0  0  0  0  0
   16.8155   -7.8201  -13.3776 C   0  0  0  0  0  0  0  0  0  0  0  0
   17.6554   -6.9848  -12.8456 O   0  0  0  0  0  0  0  0  0  0  0  0
   15.8436   -7.2150  -14.2103 N   0  0  0  0  0  0  0  0  0  0  0  0
   14.7267   -7.8135  -14.8847 C   0  0  0  0  0  0  0  0  0  0  0  0
   13.8145   -6.6537  -15.2564 C   0  0  0  0  0  0  0  0  0  0  0  0
   14.7270   -5.4541  -15.3589 C   0  0  0  0  0  0  0  0  0  0  0  0
   15.8923   -5.7667  -14.4977 C   0  0  1  0  0  0  0  0  0  0  0  0
   15.7768   -4.9958  -13.2333 C   0  0  0  0  0  0  0  0  0  0  0  0
   16.0510   -3.6515  -13.2679 O   0  0  0  0  0  0  0  0  0  0  0  0
   15.4433   -5.5300  -12.1619 O   0  0  0  0  0  0  0  0  0  0  0  0
  2  1  1  0
  3  4  1  6
  3  2  1  0
  5  6  2  0
  5  3  1  0
  8  7  1  6
  8 10  1  0
  9  8  1  0
 10 11  1  1
 10 12  1  0
 11  5  1  0
 12 14  1  0
 13 12  2  0
 14 15  1  0
 14 18  1  0
 15 16  1  0
 16 17  1  0
 18 17  1  0
 19 20  1  0
 18 19  1  1
 21 19  2  0
M  END
$$$$
