SVP.pdb
     RDKit          3D

 21 21  0  0  1  0  0  0  0  0999 V2000
   16.2623  -10.9240  -13.8847 O   0  0  0  0  0  0  0  0  0  0  0  0
   16.4700  -12.0485  -14.6465 C   0  0  0  0  0  0  0  0  0  0  0  0
   16.7411  -11.7545  -16.1035 C   0  0  2  0  0  0  0  0  0  0  0  0
   16.9362  -13.0265  -16.7649 N   0  0  0  0  0  0  0  0  0  0  0  0
   17.9585  -10.9463  -16.2961 C   0  0  0  0  0  0  0  0  0  0  0  0
   19.0655  -11.4776  -16.3359 O   0  0  0  0  0  0  0  0  0  0  0  0
   19.3674   -9.3437  -19.0725 C   0  0  0  0  0  0  0  0  0  0  0  0
   19.0863   -8.1826  -18.1571 C   0  0  1  0  0  0  0  0  0  0  0  0
   18.0231   -7.2721  -18.6390 C   0  0  0  0  0  0  0  0  0  0  0  0
   18.9610   -8.6848  -16.7562 C   0  0  2  0  0  0  0  0  0  0  0  0
   17.9086   -9.5437  -16.4415 N   0  0  0  0  0  0  0  0  0  0  0  0
   19.1682   -7.6321  -15.7452 C   0  0  0  0  0  0  0  0  0  0  0  0
   18.1411   -6.9267  -15.3796 O   0  0  0  0  0  0  0  0  0  0  0  0
   20.3763   -7.2769  -15.0983 N   0  0  0  0  0  0  0  0  0  0  0  0
   21.6798   -7.8648  -15.2235 C   0  0  0  0  0  0  0  0  0  0  0  0
   22.6413   -6.8333  -14.6517 C   0  0  0  0  0  0  0  0  0  0  0  0
   21.8182   -6.0301  -13.6723 C   0  0  0  0  0  0  0  0  0  0  0  0
   20.4151   -6.1592  -14.1330 C   0  0  1  0  0  0  0  0  0  0  0  0
   20.0108   -4.8971  -14.8037 C   0  0  0  0  0  0  0  0  0  0  0  0
   19.6679   -3.8268  -14.0159 O   0  0  0  0  0  0  0  0  0  0  0  0
   19.9759   -4.7884  -16.0412 O   0  0  0  0  0  0  0  0  0  0  0  0
  2  1  1  0
  3  4  1  6
  3  2  1  0
  5  6  2  0
  5  3  1  0
  8  7  1  6
  8 10  1  0
  9  8  1  0
 10 11  1  6
 10 12  1  0
 11  5  1  0
 12 14  1  0
 13 12  2  0
 14 15  1  0
 14 18  1  0
 15 16  1  0
 16 17  1  0
 18 17  1  0
 19 20  1  0
 18 19  1  6
 21 19  2  0
M  END
$$$$
