SVP.pdb
     RDKit          3D

 21 21  0  0  1  0  0  0  0  0999 V2000
   17.2901  -13.1070  -19.3212 O   0  0  0  0  0  0  0  0  0  0  0  0
   17.7167  -12.3965  -18.2252 C   0  0  0  0  0  0  0  0  0  0  0  0
   18.8734  -13.0395  -17.4962 C   0  0  2  0  0  0  0  0  0  0  0  0
   18.3494  -14.1972  -16.8044 N   0  0  0  0  0  0  0  0  0  0  0  0
   19.4752  -12.1407  -16.4949 C   0  0  0  0  0  0  0  0  0  0  0  0
   18.9583  -11.9954  -15.3899 O   0  0  0  0  0  0  0  0  0  0  0  0
   23.2309   -9.5132  -14.8109 C   0  0  0  0  0  0  0  0  0  0  0  0
   22.7289  -10.7061  -15.5792 C   0  0  1  0  0  0  0  0  0  0  0  0
   23.0896  -12.0108  -14.9799 C   0  0  0  0  0  0  0  0  0  0  0  0
   21.2908  -10.4955  -15.9225 C   0  0  2  0  0  0  0  0  0  0  0  0
   20.6570  -11.4157  -16.7566 N   0  0  0  0  0  0  0  0  0  0  0  0
   20.9783   -9.0961  -16.2649 C   0  0  0  0  0  0  0  0  0  0  0  0
   21.5735   -8.5721  -17.2931 O   0  0  0  0  0  0  0  0  0  0  0  0
   20.0864   -8.2195  -15.6013 N   0  0  0  0  0  0  0  0  0  0  0  0
   19.2410   -8.4710  -14.4688 C   0  0  0  0  0  0  0  0  0  0  0  0
   18.8555   -7.0961  -13.9432 C   0  0  0  0  0  0  0  0  0  0  0  0
   18.9541   -6.1773  -15.1382 C   0  0  0  0  0  0  0  0  0  0  0  0
   19.9197   -6.8245  -16.0582 C   0  0  1  0  0  0  0  0  0  0  0  0
   21.2175   -6.1067  -15.9764 C   0  0  0  0  0  0  0  0  0  0  0  0
   21.3057   -4.8621  -16.5479 O   0  0  0  0  0  0  0  0  0  0  0  0
   22.2098   -6.5980  -15.4120 O   0  0  0  0  0  0  0  0  0  0  0  0
  2  1  1  0
  3  4  1  1
  3  2  1  0
  5  6  2  0
  5  3  1  0
  8  7  1  1
  8 10  1  0
  9  8  1  0
 10 11  1  6
 10 12  1  0
 11  5  1  0
 12 14  1  0
 13 12  2  0
 14 15  1  0
 14 18  1  0
 15 16  1  0
 16 17  1  0
 18 17  1  0
 19 20  1  0
 18 19  1  1
 21 19  2  0
M  END
$$$$
