SVP.pdb
     RDKit          3D

 21 21  0  0  1  0  0  0  0  0999 V2000
   24.3047  -25.0349  -16.5624 O   0  0  0  0  0  0  0  0  0  0  0  0
   25.2461  -25.1199  -17.5597 C   0  0  0  0  0  0  0  0  0  0  0  0
   26.6543  -24.8340  -17.0927 C   0  0  2  0  0  0  0  0  0  0  0  0
   27.2171  -26.0897  -16.6455 N   0  0  0  0  0  0  0  0  0  0  0  0
   26.6901  -23.8876  -15.9634 C   0  0  0  0  0  0  0  0  0  0  0  0
   26.9249  -24.2791  -14.8228 O   0  0  0  0  0  0  0  0  0  0  0  0
   26.7855  -19.1493  -14.5445 C   0  0  0  0  0  0  0  0  0  0  0  0
   27.1014  -20.1633  -15.6109 C   0  0  1  0  0  0  0  0  0  0  0  0
   28.4968  -20.1135  -16.1028 C   0  0  0  0  0  0  0  0  0  0  0  0
   26.5833  -21.4975  -15.1845 C   0  0  2  0  0  0  0  0  0  0  0  0
   26.4592  -22.5067  -16.1386 N   0  0  0  0  0  0  0  0  0  0  0  0
   25.4159  -21.4038  -14.2891 C   0  0  0  0  0  0  0  0  0  0  0  0
   24.2407  -21.2874  -14.8289 O   0  0  0  0  0  0  0  0  0  0  0  0
   25.4050  -21.4255  -12.8736 N   0  0  0  0  0  0  0  0  0  0  0  0
   26.4985  -21.5984  -11.9600 C   0  0  0  0  0  0  0  0  0  0  0  0
   25.9788  -21.1102  -10.6157 C   0  0  0  0  0  0  0  0  0  0  0  0
   24.4810  -21.2951  -10.6835 C   0  0  0  0  0  0  0  0  0  0  0  0
   24.1414  -21.2603  -12.1261 C   0  0  1  0  0  0  0  0  0  0  0  0
   23.5328  -19.9436  -12.4456 C   0  0  0  0  0  0  0  0  0  0  0  0
   22.2392  -19.7152  -12.0483 O   0  0  0  0  0  0  0  0  0  0  0  0
   24.1567  -19.0577  -13.0543 O   0  0  0  0  0  0  0  0  0  0  0  0
  2  1  1  0
  3  4  1  1
  3  2  1  0
  5  6  2  0
  5  3  1  0
  8  7  1  1
  8 10  1  0
  9  8  1  0
 10 11  1  6
 10 12  1  0
 11  5  1  0
 12 14  1  0
 13 12  2  0
 14 15  1  0
 14 18  1  0
 15 16  1  0
 16 17  1  0
 18 17  1  0
 19 20  1  0
 18 19  1  6
 21 19  2  0
M  END
$$$$
