SVP.pdb
     RDKit          3D

 21 21  0  0  1  0  0  0  0  0999 V2000
   22.9137  -10.3330  -21.3831 O   0  0  0  0  0  0  0  0  0  0  0  0
   21.9389  -10.1775  -20.4275 C   0  0  0  0  0  0  0  0  0  0  0  0
   22.0936  -11.1043  -19.2443 C   0  0  2  0  0  0  0  0  0  0  0  0
   21.4273  -12.3428  -19.5843 N   0  0  0  0  0  0  0  0  0  0  0  0
   21.4662  -10.5663  -18.0240 C   0  0  0  0  0  0  0  0  0  0  0  0
   20.2472  -10.6033  -17.8756 O   0  0  0  0  0  0  0  0  0  0  0  0
   23.4846  -10.4863  -14.4066 C   0  0  0  0  0  0  0  0  0  0  0  0
   22.0136  -10.1866  -14.5143 C   0  0  1  0  0  0  0  0  0  0  0  0
   21.4166   -9.6215  -13.2831 C   0  0  0  0  0  0  0  0  0  0  0  0
   21.7577   -9.4499  -15.7880 C   0  0  2  0  0  0  0  0  0  0  0  0
   22.2271   -9.9917  -16.9840 N   0  0  0  0  0  0  0  0  0  0  0  0
   22.0036   -8.0006  -15.6757 C   0  0  0  0  0  0  0  0  0  0  0  0
   23.2312   -7.5986  -15.5435 O   0  0  0  0  0  0  0  0  0  0  0  0
   21.0491   -6.9552  -15.6944 N   0  0  0  0  0  0  0  0  0  0  0  0
   19.6355   -7.0209  -15.9351 C   0  0  0  0  0  0  0  0  0  0  0  0
   19.0784   -5.7049  -15.4127 C   0  0  0  0  0  0  0  0  0  0  0  0
   20.2281   -4.7290  -15.5020 C   0  0  0  0  0  0  0  0  0  0  0  0
   21.4567   -5.5568  -15.4480 C   0  0  1  0  0  0  0  0  0  0  0  0
   22.0592   -5.4361  -14.0956 C   0  0  0  0  0  0  0  0  0  0  0  0
   22.7469   -4.2874  -13.7939 O   0  0  0  0  0  0  0  0  0  0  0  0
   21.9573   -6.3357  -13.2443 O   0  0  0  0  0  0  0  0  0  0  0  0
  2  1  1  0
  3  4  1  6
  3  2  1  0
  5  6  2  0
  5  3  1  0
  8  7  1  1
  8 10  1  0
  9  8  1  0
 10 11  1  6
 10 12  1  0
 11  5  1  0
 12 14  1  0
 13 12  2  0
 14 15  1  0
 14 18  1  0
 15 16  1  0
 16 17  1  0
 18 17  1  0
 19 20  1  0
 18 19  1  1
 21 19  2  0
M  END
$$$$
