RLK.pdb
     RDKit          3D

 29 28  0  0  1  0  0  0  0  0999 V2000
    7.8516  -12.6465   17.3108 N   0  0  0  0  0  0  0  0  0  0  0  0
    7.8637  -13.5836   16.2667 C   0  0  0  0  0  0  0  0  0  0  0  0
    8.0787  -13.1850   15.0383 N   0  0  0  0  0  0  0  0  0  0  0  0
    7.6431  -14.9566   16.5444 N   0  0  0  0  0  0  0  0  0  0  0  0
    7.4804  -15.4643   17.8907 C   0  0  0  0  0  0  0  0  0  0  0  0
    8.7531  -16.0115   18.4413 C   0  0  0  0  0  0  0  0  0  0  0  0
    9.2290  -15.4422   19.7189 C   0  0  0  0  0  0  0  0  0  0  0  0
    8.7284  -16.0871   20.9761 C   0  0  2  0  0  0  0  0  0  0  0  0
    7.4287  -16.6545   20.8924 N   0  0  0  0  0  0  0  0  0  0  0  0
    8.9754  -15.2469   22.1755 C   0  0  0  0  0  0  0  0  0  0  0  0
   10.0793  -14.6138   22.3027 O   0  0  0  0  0  0  0  0  0  0  0  0
    8.0936  -13.8811   14.2641 C   0  0  0  0  0  0  0  0  0  0  0  0
    5.5669  -12.6405   26.5273 C   0  0  1  0  0  0  0  0  0  0  0  0
    6.9992  -12.8226   26.0353 C   0  0  0  0  0  0  0  0  0  0  0  0
    7.6960  -11.5256   26.0546 C   0  0  0  0  0  0  0  0  0  0  0  0
    7.1047  -13.6909   24.8583 C   0  0  2  0  0  0  0  0  0  0  0  0
    8.4008  -14.2135   24.3997 N   0  0  0  0  0  0  0  0  0  0  0  0
    8.0583  -15.0780   23.2357 C   0  0  0  0  0  0  0  0  0  0  0  0
    9.1238  -15.0881   25.3194 O   0  0  0  0  0  0  0  0  0  0  0  0
    9.4362  -14.6223   26.4748 N   0  0  0  0  0  0  0  0  0  0  0  0
    9.5276  -16.4260   25.0974 C   0  0  1  0  0  0  0  0  0  0  0  0
   10.3389  -17.1521   26.1430 C   0  0  0  0  0  0  0  0  0  0  0  0
    9.3681  -18.1744   26.6239 C   0  0  0  0  0  0  0  0  0  0  0  0
    9.6796  -19.2511   27.5361 C   0  0  0  0  0  0  0  0  0  0  0  0
    8.6484  -20.2415   27.8991 C   0  0  0  0  0  0  0  0  0  0  0  0
    9.2954  -21.2865   28.8534 N   0  0  0  0  0  0  0  0  0  0  0  0
    8.3986  -21.5743   29.9310 C   0  0  0  0  0  0  0  0  0  0  0  0
   11.5694  -17.6169   25.5270 O   0  0  0  0  0  0  0  0  0  0  0  0
   12.6078  -17.9648   26.1356 O   0  0  0  0  0  0  0  0  0  0  0  0
  2  3  2  0
  2  1  1  0
  4  2  1  0
  5  4  1  0
  6  5  1  0
  7  6  1  0
  8  7  1  0
  8  9  1  6
 10 17  1  0
 10  8  1  0
 11 10  2  0
 13 12  1  1
 14 13  1  0
 15 13  1  0
 16 15  1  6
 16 17  1  0
 18 19  2  0
 18 16  1  0
 20 18  1  0
 21 20  1  0
 21 27  1  0
 21 22  1  1
 23 22  1  0
 24 23  1  0
 25 26  1  0
 25 24  1  0
 27 29  1  0
 28 27  2  0
M  END
$$$$
