RLK.pdb
     RDKit          3D

 29 28  0  0  1  0  0  0  0  0999 V2000
    9.0524  -15.1426   17.0484 N   0  0  0  0  0  0  0  0  0  0  0  0
    8.6147  -13.8805   16.6196 C   0  0  0  0  0  0  0  0  0  0  0  0
    8.6896  -13.5630   15.3517 N   0  0  0  0  0  0  0  0  0  0  0  0
    8.0941  -12.9544   17.5588 N   0  0  0  0  0  0  0  0  0  0  0  0
    8.3603  -13.0499   18.9790 C   0  0  0  0  0  0  0  0  0  0  0  0
    8.2066  -14.4434   19.4859 C   0  0  0  0  0  0  0  0  0  0  0  0
    7.0706  -14.7038   20.3940 C   0  0  0  0  0  0  0  0  0  0  0  0
    7.2491  -15.7945   21.4067 C   0  0  2  0  0  0  0  0  0  0  0  0
    6.1250  -16.6435   21.5901 N   0  0  0  0  0  0  0  0  0  0  0  0
    7.8804  -15.3023   22.6575 C   0  0  0  0  0  0  0  0  0  0  0  0
    9.0665  -14.8245   22.6360 O   0  0  0  0  0  0  0  0  0  0  0  0
    8.4362  -12.6011   15.0438 C   0  0  0  0  0  0  0  0  0  0  0  0
    8.1490  -11.8077   25.6267 C   0  0  2  0  0  0  0  0  0  0  0  0
    6.8095  -12.5375   25.6319 C   0  0  0  0  0  0  0  0  0  0  0  0
    5.8361  -11.7761   26.4324 C   0  0  0  0  0  0  0  0  0  0  0  0
    6.9364  -13.9862   25.8209 C   0  0  2  0  0  0  0  0  0  0  0  0
    7.9646  -14.7681   25.1177 N   0  0  0  0  0  0  0  0  0  0  0  0
    7.2593  -15.3163   23.9254 C   0  0  0  0  0  0  0  0  0  0  0  0
    8.4961  -15.9379   25.8126 O   0  0  0  0  0  0  0  0  0  0  0  0
    7.6637  -16.8261   26.2222 N   0  0  0  0  0  0  0  0  0  0  0  0
    9.8518  -16.2314   26.0918 C   0  0  1  0  0  0  0  0  0  0  0  0
   10.2232  -17.5521   26.7216 C   0  0  0  0  0  0  0  0  0  0  0  0
   10.4508  -18.4062   25.5226 C   0  0  0  0  0  0  0  0  0  0  0  0
   10.7121  -19.8272   25.5527 C   0  0  0  0  0  0  0  0  0  0  0  0
   10.9901  -20.5600   24.3030 C   0  0  0  0  0  0  0  0  0  0  0  0
   11.2295  -22.0552   24.6615 N   0  0  0  0  0  0  0  0  0  0  0  0
   11.6216  -22.7746   23.4881 C   0  0  0  0  0  0  0  0  0  0  0  0
   11.3400  -17.3317   27.6237 O   0  0  0  0  0  0  0  0  0  0  0  0
   12.1276  -16.3579   27.5908 O   0  0  0  0  0  0  0  0  0  0  0  0
  2  3  2  0
  2  1  1  0
  4  2  1  0
  5  4  1  0
  6  5  1  0
  7  6  1  0
  8  7  1  0
  8  9  1  1
 10 17  1  0
 10  8  1  0
 11 10  2  0
 13 12  1  6
 14 13  1  0
 15 13  1  0
 16 15  1  6
 16 17  1  0
 18 19  2  0
 18 16  1  0
 20 18  1  0
 21 20  1  0
 21 27  1  0
 21 22  1  1
 23 22  1  0
 24 23  1  0
 25 26  1  0
 25 24  1  0
 27 29  1  0
 28 27  2  0
M  END
$$$$
