RLK.pdb
     RDKit          3D

 29 28  0  0  1  0  0  0  0  0999 V2000
    8.0628  -12.4013   18.2257 N   0  0  0  0  0  0  0  0  0  0  0  0
    8.3022  -13.3987   17.2684 C   0  0  0  0  0  0  0  0  0  0  0  0
    8.5916  -13.0613   16.0370 N   0  0  0  0  0  0  0  0  0  0  0  0
    8.2296  -14.7662   17.6366 N   0  0  0  0  0  0  0  0  0  0  0  0
    7.4935  -15.2242   18.7965 C   0  0  0  0  0  0  0  0  0  0  0  0
    8.0529  -14.6799   20.0666 C   0  0  0  0  0  0  0  0  0  0  0  0
    9.0789  -15.4947   20.7494 C   0  0  0  0  0  0  0  0  0  0  0  0
    8.6346  -16.2788   21.9472 C   0  0  2  0  0  0  0  0  0  0  0  0
    7.3023  -16.7689   21.8928 N   0  0  0  0  0  0  0  0  0  0  0  0
    9.0142  -15.6199   23.2227 C   0  0  0  0  0  0  0  0  0  0  0  0
   10.1934  -15.1501   23.3794 O   0  0  0  0  0  0  0  0  0  0  0  0
    8.6359  -13.7929   15.2974 C   0  0  0  0  0  0  0  0  0  0  0  0
    7.8780  -11.8076   25.1147 C   0  0  2  0  0  0  0  0  0  0  0  0
    6.8358  -12.8830   25.4048 C   0  0  0  0  0  0  0  0  0  0  0  0
    5.6179  -12.2566   25.9455 C   0  0  0  0  0  0  0  0  0  0  0  0
    7.3934  -14.0746   26.0527 C   0  0  2  0  0  0  0  0  0  0  0  0
    8.6072  -14.7315   25.5444 N   0  0  0  0  0  0  0  0  0  0  0  0
    8.1499  -15.4596   24.3277 C   0  0  0  0  0  0  0  0  0  0  0  0
    9.2093  -15.7563   26.3934 O   0  0  0  0  0  0  0  0  0  0  0  0
    9.6167  -15.4096   27.5610 N   0  0  0  0  0  0  0  0  0  0  0  0
    9.3977  -17.1253   26.0889 C   0  0  1  0  0  0  0  0  0  0  0  0
    9.9846  -18.0541   27.1241 C   0  0  0  0  0  0  0  0  0  0  0  0
    9.6582  -19.3903   26.5522 C   0  0  0  0  0  0  0  0  0  0  0  0
   10.1105  -20.6549   27.0856 C   0  0  0  0  0  0  0  0  0  0  0  0
    9.9088  -21.9004   26.3214 C   0  0  0  0  0  0  0  0  0  0  0  0
   10.4261  -23.0873   27.1846 N   0  0  0  0  0  0  0  0  0  0  0  0
   10.4049  -24.2907   26.4103 C   0  0  0  0  0  0  0  0  0  0  0  0
   11.3850  -17.7133   27.3041 O   0  0  0  0  0  0  0  0  0  0  0  0
   12.1713  -17.3435   26.4015 O   0  0  0  0  0  0  0  0  0  0  0  0
  2  3  2  0
  2  1  1  0
  4  2  1  0
  5  4  1  0
  6  5  1  0
  7  6  1  0
  8  7  1  0
  8  9  1  1
 10 17  1  0
 10  8  1  0
 11 10  2  0
 13 12  1  6
 14 13  1  0
 15 13  1  0
 16 15  1  6
 16 17  1  0
 18 19  2  0
 18 16  1  0
 20 18  1  0
 21 20  1  0
 21 27  1  0
 21 22  1  6
 23 22  1  0
 24 23  1  0
 25 26  1  0
 25 24  1  0
 27 29  1  0
 28 27  2  0
M  END
$$$$
