RLK.pdb
     RDKit          3D

 29 28  0  0  1  0  0  0  0  0999 V2000
    8.1595  -15.6173   16.2167 N   0  0  0  0  0  0  0  0  0  0  0  0
    8.5973  -14.2860   16.1488 C   0  0  0  0  0  0  0  0  0  0  0  0
    8.6256  -13.6694   14.9942 N   0  0  0  0  0  0  0  0  0  0  0  0
    9.0075  -13.6140   17.3282 N   0  0  0  0  0  0  0  0  0  0  0  0
    8.0660  -13.0413   18.2677 C   0  0  0  0  0  0  0  0  0  0  0  0
    7.0247  -14.0224   18.6866 C   0  0  0  0  0  0  0  0  0  0  0  0
    6.7906  -14.1711   20.1378 C   0  0  0  0  0  0  0  0  0  0  0  0
    7.5540  -15.2534   20.8398 C   0  0  2  0  0  0  0  0  0  0  0  0
    6.9166  -16.5225   20.8742 N   0  0  0  0  0  0  0  0  0  0  0  0
    8.1184  -14.7941   22.1343 C   0  0  0  0  0  0  0  0  0  0  0  0
    9.2294  -14.1613   22.1648 O   0  0  0  0  0  0  0  0  0  0  0  0
    8.9944  -12.6974   14.9361 C   0  0  0  0  0  0  0  0  0  0  0  0
    6.0943  -12.4372   27.1930 C   0  0  1  0  0  0  0  0  0  0  0  0
    7.3543  -13.0388   26.5789 C   0  0  0  0  0  0  0  0  0  0  0  0
    8.4707  -12.0882   26.7130 C   0  0  0  0  0  0  0  0  0  0  0  0
    7.1148  -13.7076   25.2959 C   0  0  2  0  0  0  0  0  0  0  0  0
    8.1587  -14.5066   24.6365 N   0  0  0  0  0  0  0  0  0  0  0  0
    7.5100  -15.0042   23.3911 C   0  0  0  0  0  0  0  0  0  0  0  0
    8.6102  -15.7086   25.3329 O   0  0  0  0  0  0  0  0  0  0  0  0
    7.7437  -16.6238   25.5803 N   0  0  0  0  0  0  0  0  0  0  0  0
    9.9210  -16.0070   25.7743 C   0  0  1  0  0  0  0  0  0  0  0  0
   10.2003  -17.3121   26.4796 C   0  0  0  0  0  0  0  0  0  0  0  0
   11.2108  -17.9334   25.5786 C   0  0  0  0  0  0  0  0  0  0  0  0
   11.0264  -18.1757   24.1659 C   0  0  0  0  0  0  0  0  0  0  0  0
   12.0834  -18.8401   23.3801 C   0  0  0  0  0  0  0  0  0  0  0  0
   11.5814  -18.9793   21.9138 N   0  0  0  0  0  0  0  0  0  0  0  0
   12.6183  -19.5385   21.1012 C   0  0  0  0  0  0  0  0  0  0  0  0
   10.5943  -17.0190   27.8465 O   0  0  0  0  0  0  0  0  0  0  0  0
   10.9160  -15.8927   28.2911 O   0  0  0  0  0  0  0  0  0  0  0  0
  2  3  2  0
  2  1  1  0
  4  2  1  0
  5  4  1  0
  6  5  1  0
  7  6  1  0
  8  7  1  0
  8  9  1  1
 10 17  1  0
 10  8  1  0
 11 10  2  0
 13 12  1  1
 14 13  1  0
 15 13  1  0
 16 15  1  6
 16 17  1  0
 18 19  2  0
 18 16  1  0
 20 18  1  0
 21 20  1  0
 21 27  1  0
 21 22  1  1
 23 22  1  0
 24 23  1  0
 25 26  1  0
 25 24  1  0
 27 29  1  0
 28 27  2  0
M  END
$$$$
