RLK.pdb
     RDKit          3D

 29 28  0  0  1  0  0  0  0  0999 V2000
    9.8861  -16.0739   14.7545 N   0  0  0  0  0  0  0  0  0  0  0  0
    8.5830  -15.6033   14.9760 C   0  0  0  0  0  0  0  0  0  0  0  0
    7.5744  -16.1707   14.3637 N   0  0  0  0  0  0  0  0  0  0  0  0
    8.3629  -14.5165   15.8599 N   0  0  0  0  0  0  0  0  0  0  0  0
    9.3982  -13.9935   16.7269 C   0  0  0  0  0  0  0  0  0  0  0  0
   10.5015  -14.9737   16.9373 C   0  0  0  0  0  0  0  0  0  0  0  0
   11.1372  -14.9896   18.2709 C   0  0  0  0  0  0  0  0  0  0  0  0
   10.8191  -16.1544   19.1592 C   0  0  2  0  0  0  0  0  0  0  0  0
    9.9287  -17.1141   18.6075 N   0  0  0  0  0  0  0  0  0  0  0  0
   10.5123  -15.7334   20.5498 C   0  0  0  0  0  0  0  0  0  0  0  0
   11.3892  -15.1123   21.2435 O   0  0  0  0  0  0  0  0  0  0  0  0
    6.6067  -15.8254   14.5325 C   0  0  0  0  0  0  0  0  0  0  0  0
    8.6906  -12.4859   22.4697 C   0  0  2  0  0  0  0  0  0  0  0  0
    7.6920  -13.5240   21.9681 C   0  0  0  0  0  0  0  0  0  0  0  0
    6.3637  -12.9039   21.8292 C   0  0  0  0  0  0  0  0  0  0  0  0
    7.8244  -14.8264   22.6290 C   0  0  2  0  0  0  0  0  0  0  0  0
    9.0952  -15.5667   22.6257 N   0  0  0  0  0  0  0  0  0  0  0  0
    9.2833  -15.9692   21.2037 C   0  0  0  0  0  0  0  0  0  0  0  0
    9.1341  -16.8169   23.3801 O   0  0  0  0  0  0  0  0  0  0  0  0
    8.6940  -17.8799   22.8093 N   0  0  0  0  0  0  0  0  0  0  0  0
    9.6182  -17.0146   24.6949 C   0  0  1  0  0  0  0  0  0  0  0  0
    9.4933  -18.3695   25.3486 C   0  0  0  0  0  0  0  0  0  0  0  0
   10.7489  -18.4377   26.1471 C   0  0  0  0  0  0  0  0  0  0  0  0
   11.1381  -19.5453   26.9898 C   0  0  0  0  0  0  0  0  0  0  0  0
   12.4308  -19.5225   27.7000 C   0  0  0  0  0  0  0  0  0  0  0  0
   12.6216  -20.8978   28.4025 N   0  0  0  0  0  0  0  0  0  0  0  0
   13.9654  -21.0111   28.8817 C   0  0  0  0  0  0  0  0  0  0  0  0
    8.2286  -18.4197   26.0612 O   0  0  0  0  0  0  0  0  0  0  0  0
    7.7399  -19.4308   26.6165 O   0  0  0  0  0  0  0  0  0  0  0  0
  2  3  2  0
  2  1  1  0
  4  2  1  0
  5  4  1  0
  6  5  1  0
  7  6  1  0
  8  7  1  0
  8  9  1  6
 10 17  1  0
 10  8  1  0
 11 10  2  0
 13 12  1  6
 14 13  1  0
 15 13  1  0
 16 15  1  6
 16 17  1  0
 18 19  2  0
 18 16  1  0
 20 18  1  0
 21 20  1  0
 21 27  1  0
 21 22  1  1
 23 22  1  0
 24 23  1  0
 25 26  1  0
 25 24  1  0
 27 29  1  0
 28 27  2  0
M  END
$$$$
