RLK.pdb
     RDKit          3D

 29 28  0  0  1  0  0  0  0  0999 V2000
    9.8025  -14.5283   16.4525 N   0  0  0  0  0  0  0  0  0  0  0  0
    8.4623  -14.3101   16.0991 C   0  0  0  0  0  0  0  0  0  0  0  0
    7.9966  -14.8049   14.9800 N   0  0  0  0  0  0  0  0  0  0  0  0
    7.6183  -13.5555   16.9529 N   0  0  0  0  0  0  0  0  0  0  0  0
    8.0790  -12.9877   18.2028 C   0  0  0  0  0  0  0  0  0  0  0  0
    8.7286  -14.0066   19.0759 C   0  0  0  0  0  0  0  0  0  0  0  0
    8.6358  -13.7945   20.5351 C   0  0  0  0  0  0  0  0  0  0  0  0
    8.1056  -14.9335   21.3528 C   0  0  2  0  0  0  0  0  0  0  0  0
    6.7509  -15.2813   21.1041 N   0  0  0  0  0  0  0  0  0  0  0  0
    8.4753  -14.8162   22.7862 C   0  0  0  0  0  0  0  0  0  0  0  0
    9.7046  -14.7375   23.1305 O   0  0  0  0  0  0  0  0  0  0  0  0
    7.0193  -14.5945   14.6889 C   0  0  0  0  0  0  0  0  0  0  0  0
    8.0515  -11.7368   26.2726 C   0  0  2  0  0  0  0  0  0  0  0  0
    6.7780  -12.4804   25.8830 C   0  0  0  0  0  0  0  0  0  0  0  0
    5.6155  -11.8297   26.5102 C   0  0  0  0  0  0  0  0  0  0  0  0
    6.9157  -13.9393   25.9374 C   0  0  2  0  0  0  0  0  0  0  0  0
    8.0182  -14.6353   25.2568 N   0  0  0  0  0  0  0  0  0  0  0  0
    7.5483  -14.7830   23.8507 C   0  0  0  0  0  0  0  0  0  0  0  0
    8.3155  -15.9950   25.7000 O   0  0  0  0  0  0  0  0  0  0  0  0
    7.4811  -16.9238   25.3986 N   0  0  0  0  0  0  0  0  0  0  0  0
    9.4436  -16.4348   26.4322 C   0  0  1  0  0  0  0  0  0  0  0  0
    9.5999  -17.8978   26.7698 C   0  0  0  0  0  0  0  0  0  0  0  0
    9.8792  -18.4896   25.4316 C   0  0  0  0  0  0  0  0  0  0  0  0
   10.2522  -19.8652   25.1934 C   0  0  0  0  0  0  0  0  0  0  0  0
   10.5504  -20.3298   23.8254 C   0  0  0  0  0  0  0  0  0  0  0  0
   11.0432  -21.8033   23.9112 N   0  0  0  0  0  0  0  0  0  0  0  0
   11.4447  -22.2528   22.6131 C   0  0  0  0  0  0  0  0  0  0  0  0
   10.6185  -18.0247   27.7974 O   0  0  0  0  0  0  0  0  0  0  0  0
   10.7437  -18.9865   28.5904 O   0  0  0  0  0  0  0  0  0  0  0  0
  2  3  2  0
  2  1  1  0
  4  2  1  0
  5  4  1  0
  6  5  1  0
  7  6  1  0
  8  7  1  0
  8  9  1  1
 10 17  1  0
 10  8  1  0
 11 10  2  0
 13 12  1  6
 14 13  1  0
 15 13  1  0
 16 15  1  6
 16 17  1  0
 18 19  2  0
 18 16  1  0
 20 18  1  0
 21 20  1  0
 21 27  1  0
 21 22  1  1
 23 22  1  0
 24 23  1  0
 25 26  1  0
 25 24  1  0
 27 29  1  0
 28 27  2  0
M  END
$$$$
