RLK.pdb
     RDKit          3D

 29 28  0  0  1  0  0  0  0  0999 V2000
    7.4024  -15.0981   15.7583 N   0  0  0  0  0  0  0  0  0  0  0  0
    8.0621  -13.8614   15.6971 C   0  0  0  0  0  0  0  0  0  0  0  0
    8.2469  -13.2802   14.5386 N   0  0  0  0  0  0  0  0  0  0  0  0
    8.5263  -13.2462   16.8875 N   0  0  0  0  0  0  0  0  0  0  0  0
    8.9942  -14.0065   18.0277 C   0  0  0  0  0  0  0  0  0  0  0  0
    8.0369  -13.9519   19.1692 C   0  0  0  0  0  0  0  0  0  0  0  0
    8.6168  -13.8666   20.5254 C   0  0  0  0  0  0  0  0  0  0  0  0
    8.5598  -15.1066   21.3657 C   0  0  2  0  0  0  0  0  0  0  0  0
    7.4260  -15.9350   21.1506 N   0  0  0  0  0  0  0  0  0  0  0  0
    8.8842  -14.8361   22.7894 C   0  0  0  0  0  0  0  0  0  0  0  0
   10.0505  -14.4271   23.1183 O   0  0  0  0  0  0  0  0  0  0  0  0
    8.7359  -12.3620   14.4930 C   0  0  0  0  0  0  0  0  0  0  0  0
    8.2172  -11.8618   26.1422 C   0  0  2  0  0  0  0  0  0  0  0  0
    7.0208  -12.7416   25.7939 C   0  0  0  0  0  0  0  0  0  0  0  0
    5.7977  -12.1638   26.3754 C   0  0  0  0  0  0  0  0  0  0  0  0
    7.2909  -14.1758   25.9380 C   0  0  2  0  0  0  0  0  0  0  0  0
    8.4326  -14.8162   25.2675 N   0  0  0  0  0  0  0  0  0  0  0  0
    7.9784  -14.9985   23.8604 C   0  0  0  0  0  0  0  0  0  0  0  0
    8.8002  -16.1549   25.7217 O   0  0  0  0  0  0  0  0  0  0  0  0
    8.3174  -17.1613   25.0865 N   0  0  0  0  0  0  0  0  0  0  0  0
    9.6535  -16.4950   26.7980 C   0  0  1  0  0  0  0  0  0  0  0  0
   10.1015  -17.9247   26.9824 C   0  0  0  0  0  0  0  0  0  0  0  0
   10.8964  -18.1554   25.7439 C   0  0  0  0  0  0  0  0  0  0  0  0
   11.5344  -19.4019   25.3867 C   0  0  0  0  0  0  0  0  0  0  0  0
   12.2994  -19.5137   24.1304 C   0  0  0  0  0  0  0  0  0  0  0  0
   12.8996  -20.9474   24.0550 N   0  0  0  0  0  0  0  0  0  0  0  0
   13.7101  -21.0687   22.8818 C   0  0  0  0  0  0  0  0  0  0  0  0
   10.7841  -18.0299   28.2601 O   0  0  0  0  0  0  0  0  0  0  0  0
   11.3096  -17.0832   28.8904 O   0  0  0  0  0  0  0  0  0  0  0  0
  2  3  2  0
  2  1  1  0
  4  2  1  0
  5  4  1  0
  6  5  1  0
  7  6  1  0
  8  7  1  0
  8  9  1  1
 10 17  1  0
 10  8  1  0
 11 10  2  0
 13 12  1  6
 14 13  1  0
 15 13  1  0
 16 15  1  6
 16 17  1  0
 18 19  2  0
 18 16  1  0
 20 18  1  0
 21 20  1  0
 21 27  1  0
 21 22  1  1
 23 22  1  0
 24 23  1  0
 25 26  1  0
 25 24  1  0
 27 29  1  0
 28 27  2  0
M  END
$$$$
