RLK.pdb
     RDKit          3D

 29 28  0  0  1  0  0  0  0  0999 V2000
    8.2980  -12.2425   16.7454 N   0  0  0  0  0  0  0  0  0  0  0  0
    8.4784  -13.6338   16.7412 C   0  0  0  0  0  0  0  0  0  0  0  0
    7.9057  -14.3605   15.8149 N   0  0  0  0  0  0  0  0  0  0  0  0
    9.2783  -14.2476   17.7384 N   0  0  0  0  0  0  0  0  0  0  0  0
    9.4668  -15.6813   17.8147 C   0  0  0  0  0  0  0  0  0  0  0  0
    8.8306  -16.2667   19.0292 C   0  0  0  0  0  0  0  0  0  0  0  0
    9.4414  -15.9317   20.3321 C   0  0  0  0  0  0  0  0  0  0  0  0
    8.8235  -16.5513   21.5492 C   0  0  2  0  0  0  0  0  0  0  0  0
    7.5124  -17.0678   21.3692 N   0  0  0  0  0  0  0  0  0  0  0  0
    9.0131  -15.7164   22.7626 C   0  0  0  0  0  0  0  0  0  0  0  0
   10.1789  -15.2981   23.0815 O   0  0  0  0  0  0  0  0  0  0  0  0
    8.0489  -15.3918   15.8048 C   0  0  0  0  0  0  0  0  0  0  0  0
    5.4988  -12.3781   26.5006 C   0  0  1  0  0  0  0  0  0  0  0  0
    6.9297  -12.8326   26.2310 C   0  0  0  0  0  0  0  0  0  0  0  0
    7.8390  -11.6780   26.3203 C   0  0  0  0  0  0  0  0  0  0  0  0
    7.0421  -13.7653   25.1050 C   0  0  2  0  0  0  0  0  0  0  0  0
    8.2733  -14.5312   24.8586 N   0  0  0  0  0  0  0  0  0  0  0  0
    7.9736  -15.3265   23.6350 C   0  0  0  0  0  0  0  0  0  0  0  0
    8.6510  -15.5182   25.8670 O   0  0  0  0  0  0  0  0  0  0  0  0
    8.8910  -15.1022   27.0581 N   0  0  0  0  0  0  0  0  0  0  0  0
    8.7806  -16.9169   25.6968 C   0  0  1  0  0  0  0  0  0  0  0  0
    9.1530  -17.7881   26.8720 C   0  0  0  0  0  0  0  0  0  0  0  0
    8.1304  -18.8678   26.7849 C   0  0  0  0  0  0  0  0  0  0  0  0
    8.0502  -20.0088   27.6682 C   0  0  0  0  0  0  0  0  0  0  0  0
    7.0532  -21.0689   27.4266 C   0  0  0  0  0  0  0  0  0  0  0  0
    7.1856  -22.1256   28.5613 N   0  0  0  0  0  0  0  0  0  0  0  0
    6.3347  -23.2417   28.2811 C   0  0  0  0  0  0  0  0  0  0  0  0
   10.5507  -18.1608   26.7414 O   0  0  0  0  0  0  0  0  0  0  0  0
   11.2756  -18.6186   27.6551 O   0  0  0  0  0  0  0  0  0  0  0  0
  2  3  2  0
  2  1  1  0
  4  2  1  0
  5  4  1  0
  6  5  1  0
  7  6  1  0
  8  7  1  0
  8  9  1  6
 10 17  1  0
 10  8  1  0
 11 10  2  0
 13 12  1  1
 14 13  1  0
 15 13  1  0
 16 15  1  6
 16 17  1  0
 18 19  2  0
 18 16  1  0
 20 18  1  0
 21 20  1  0
 21 27  1  0
 21 22  1  1
 23 22  1  0
 24 23  1  0
 25 26  1  0
 25 24  1  0
 27 29  1  0
 28 27  2  0
M  END
$$$$
