RLK.pdb
     RDKit          3D

 29 28  0  0  1  0  0  0  0  0999 V2000
   10.2085  -14.1028   17.0154 N   0  0  0  0  0  0  0  0  0  0  0  0
    8.9018  -13.6913   16.7125 C   0  0  0  0  0  0  0  0  0  0  0  0
    8.4979  -13.6752   15.4672 N   0  0  0  0  0  0  0  0  0  0  0  0
    8.0247  -13.2944   17.7536 N   0  0  0  0  0  0  0  0  0  0  0  0
    8.2238  -13.6855   19.1336 C   0  0  0  0  0  0  0  0  0  0  0  0
    7.8702  -15.1147   19.3680 C   0  0  0  0  0  0  0  0  0  0  0  0
    8.7347  -15.8747   20.2942 C   0  0  0  0  0  0  0  0  0  0  0  0
    8.0951  -16.3919   21.5474 C   0  0  2  0  0  0  0  0  0  0  0  0
    6.6997  -16.6430   21.4586 N   0  0  0  0  0  0  0  0  0  0  0  0
    8.5262  -15.6368   22.7513 C   0  0  0  0  0  0  0  0  0  0  0  0
    9.7585  -15.3369   22.9169 O   0  0  0  0  0  0  0  0  0  0  0  0
    7.5588  -13.2909   15.2333 C   0  0  0  0  0  0  0  0  0  0  0  0
    5.8522  -11.7887   26.6325 C   0  0  1  0  0  0  0  0  0  0  0  0
    7.1747  -12.4705   26.2965 C   0  0  0  0  0  0  0  0  0  0  0  0
    8.2459  -11.4626   26.2282 C   0  0  0  0  0  0  0  0  0  0  0  0
    7.0565  -13.4831   25.2423 C   0  0  2  0  0  0  0  0  0  0  0  0
    8.1737  -14.3780   24.9045 N   0  0  0  0  0  0  0  0  0  0  0  0
    7.6573  -15.2017   23.7756 C   0  0  0  0  0  0  0  0  0  0  0  0
    8.5780  -15.3443   25.9225 O   0  0  0  0  0  0  0  0  0  0  0  0
    7.7656  -16.2979   26.2056 N   0  0  0  0  0  0  0  0  0  0  0  0
    9.7904  -15.3707   26.6516 C   0  0  1  0  0  0  0  0  0  0  0  0
   10.0651  -16.4977   27.6175 C   0  0  0  0  0  0  0  0  0  0  0  0
   11.2876  -17.1113   27.0277 C   0  0  0  0  0  0  0  0  0  0  0  0
   11.3968  -18.4818   26.5824 C   0  0  0  0  0  0  0  0  0  0  0  0
   12.6606  -18.9794   26.0069 C   0  0  0  0  0  0  0  0  0  0  0  0
   12.4640  -20.4758   25.6280 N   0  0  0  0  0  0  0  0  0  0  0  0
   13.6036  -20.9411   24.8980 C   0  0  0  0  0  0  0  0  0  0  0  0
   10.1593  -15.9414   28.9559 O   0  0  0  0  0  0  0  0  0  0  0  0
   10.1677  -14.7222   29.2439 O   0  0  0  0  0  0  0  0  0  0  0  0
  2  3  2  0
  2  1  1  0
  4  2  1  0
  5  4  1  0
  6  5  1  0
  7  6  1  0
  8  7  1  0
  8  9  1  6
 10 17  1  0
 10  8  1  0
 11 10  2  0
 13 12  1  1
 14 13  1  0
 15 13  1  0
 16 15  1  6
 16 17  1  0
 18 19  2  0
 18 16  1  0
 20 18  1  0
 21 20  1  0
 21 27  1  0
 21 22  1  1
 23 22  1  0
 24 23  1  0
 25 26  1  0
 25 24  1  0
 27 29  1  0
 28 27  2  0
M  END
$$$$
