RLK.pdb
     RDKit          3D

 29 28  0  0  1  0  0  0  0  0999 V2000
    8.4818  -12.9811   14.6315 N   0  0  0  0  0  0  0  0  0  0  0  0
    8.2641  -13.8359   15.7225 C   0  0  0  0  0  0  0  0  0  0  0  0
    8.4827  -15.1204   15.5954 N   0  0  0  0  0  0  0  0  0  0  0  0
    7.8086  -13.3071   16.9570 N   0  0  0  0  0  0  0  0  0  0  0  0
    7.4273  -14.1475   18.0729 C   0  0  0  0  0  0  0  0  0  0  0  0
    8.6078  -14.6017   18.8619 C   0  0  0  0  0  0  0  0  0  0  0  0
    8.6142  -14.2775   20.3033 C   0  0  0  0  0  0  0  0  0  0  0  0
    8.1133  -15.3368   21.2382 C   0  0  2  0  0  0  0  0  0  0  0  0
    6.7502  -15.7001   21.0708 N   0  0  0  0  0  0  0  0  0  0  0  0
    8.5351  -15.0934   22.6411 C   0  0  0  0  0  0  0  0  0  0  0  0
    9.7660  -14.8823   22.9167 O   0  0  0  0  0  0  0  0  0  0  0  0
    8.7355  -15.5121   14.6643 C   0  0  0  0  0  0  0  0  0  0  0  0
    8.2550  -11.8594   26.0771 C   0  0  2  0  0  0  0  0  0  0  0  0
    6.9850  -12.5938   25.6595 C   0  0  0  0  0  0  0  0  0  0  0  0
    5.8096  -11.8997   26.2116 C   0  0  0  0  0  0  0  0  0  0  0  0
    7.0916  -14.0520   25.7724 C   0  0  2  0  0  0  0  0  0  0  0  0
    8.1762  -14.7985   25.1169 N   0  0  0  0  0  0  0  0  0  0  0  0
    7.6581  -15.0743   23.7476 C   0  0  0  0  0  0  0  0  0  0  0  0
    8.5026  -16.1111   25.6683 O   0  0  0  0  0  0  0  0  0  0  0  0
    7.5599  -16.9786   25.7596 N   0  0  0  0  0  0  0  0  0  0  0  0
    9.7643  -16.5663   26.1190 C   0  0  1  0  0  0  0  0  0  0  0  0
    9.9163  -17.9759   26.6372 C   0  0  0  0  0  0  0  0  0  0  0  0
   10.8324  -18.5735   25.6260 C   0  0  0  0  0  0  0  0  0  0  0  0
   10.4110  -19.2409   24.4154 C   0  0  0  0  0  0  0  0  0  0  0  0
   11.4113  -19.7268   23.4462 C   0  0  0  0  0  0  0  0  0  0  0  0
   10.6541  -20.4039   22.2674 N   0  0  0  0  0  0  0  0  0  0  0  0
   11.5848  -20.7661   21.2423 C   0  0  0  0  0  0  0  0  0  0  0  0
   10.3711  -17.9111   28.0151 O   0  0  0  0  0  0  0  0  0  0  0  0
   10.8035  -16.8892   28.5969 O   0  0  0  0  0  0  0  0  0  0  0  0
  2  3  2  0
  2  1  1  0
  4  2  1  0
  5  4  1  0
  6  5  1  0
  7  6  1  0
  8  7  1  0
  8  9  1  1
 10 17  1  0
 10  8  1  0
 11 10  2  0
 13 12  1  6
 14 13  1  0
 15 13  1  0
 16 15  1  6
 16 17  1  0
 18 19  2  0
 18 16  1  0
 20 18  1  0
 21 20  1  0
 21 27  1  0
 21 22  1  1
 23 22  1  0
 24 23  1  0
 25 26  1  0
 25 24  1  0
 27 29  1  0
 28 27  2  0
M  END
$$$$
