RLK.pdb
     RDKit          3D

 29 28  0  0  1  0  0  0  0  0999 V2000
    8.0065  -12.7981   18.5397 N   0  0  0  0  0  0  0  0  0  0  0  0
    8.5159  -13.5871   17.4973 C   0  0  0  0  0  0  0  0  0  0  0  0
    9.0180  -13.0128   16.4333 N   0  0  0  0  0  0  0  0  0  0  0  0
    8.4850  -15.0012   17.5989 N   0  0  0  0  0  0  0  0  0  0  0  0
    7.7388  -15.6936   18.6289 C   0  0  0  0  0  0  0  0  0  0  0  0
    8.1453  -15.2674   19.9984 C   0  0  0  0  0  0  0  0  0  0  0  0
    8.8265  -16.2742   20.8381 C   0  0  0  0  0  0  0  0  0  0  0  0
    8.0649  -16.8002   22.0172 C   0  0  2  0  0  0  0  0  0  0  0  0
    6.6522  -16.8186   21.8692 N   0  0  0  0  0  0  0  0  0  0  0  0
    8.5589  -16.2398   23.3006 C   0  0  0  0  0  0  0  0  0  0  0  0
    9.8150  -16.1400   23.5194 O   0  0  0  0  0  0  0  0  0  0  0  0
    9.3888  -13.5982   15.6562 C   0  0  0  0  0  0  0  0  0  0  0  0
    7.9511  -12.0754   25.4802 C   0  0  2  0  0  0  0  0  0  0  0  0
    6.7930  -13.0605   25.6028 C   0  0  0  0  0  0  0  0  0  0  0  0
    5.6184  -12.3733   26.1652 C   0  0  0  0  0  0  0  0  0  0  0  0
    7.1947  -14.3691   26.1287 C   0  0  2  0  0  0  0  0  0  0  0  0
    8.3144  -15.1235   25.5455 N   0  0  0  0  0  0  0  0  0  0  0  0
    7.7271  -15.7876   24.3482 C   0  0  0  0  0  0  0  0  0  0  0  0
    8.8674  -16.2119   26.3475 O   0  0  0  0  0  0  0  0  0  0  0  0
    8.0954  -17.1942   26.6454 N   0  0  0  0  0  0  0  0  0  0  0  0
   10.1868  -16.3310   26.8447 C   0  0  1  0  0  0  0  0  0  0  0  0
   10.5667  -17.5165   27.6984 C   0  0  0  0  0  0  0  0  0  0  0  0
   11.7578  -18.0420   26.9746 C   0  0  0  0  0  0  0  0  0  0  0  0
   11.8805  -19.3779   26.4373 C   0  0  0  0  0  0  0  0  0  0  0  0
   13.1109  -19.7878   25.7343 C   0  0  0  0  0  0  0  0  0  0  0  0
   12.8615  -21.1852   25.0967 N   0  0  0  0  0  0  0  0  0  0  0  0
   14.0372  -21.6142   24.4026 C   0  0  0  0  0  0  0  0  0  0  0  0
   10.7467  -17.0583   29.0649 O   0  0  0  0  0  0  0  0  0  0  0  0
   10.7746  -15.8630   29.4394 O   0  0  0  0  0  0  0  0  0  0  0  0
  2  3  2  0
  2  1  1  0
  4  2  1  0
  5  4  1  0
  6  5  1  0
  7  6  1  0
  8  7  1  0
  8  9  1  6
 10 17  1  0
 10  8  1  0
 11 10  2  0
 13 12  1  6
 14 13  1  0
 15 13  1  0
 16 15  1  6
 16 17  1  0
 18 19  2  0
 18 16  1  0
 20 18  1  0
 21 20  1  0
 21 27  1  0
 21 22  1  1
 23 22  1  0
 24 23  1  0
 25 26  1  0
 25 24  1  0
 27 29  1  0
 28 27  2  0
M  END
$$$$
