RLK.pdb
     RDKit          3D

 29 28  0  0  1  0  0  0  0  0999 V2000
    8.0078  -12.7785   17.0619 N   0  0  0  0  0  0  0  0  0  0  0  0
    8.3460  -13.9434   16.3569 C   0  0  0  0  0  0  0  0  0  0  0  0
    8.3642  -13.9285   15.0479 N   0  0  0  0  0  0  0  0  0  0  0  0
    8.6657  -15.1310   17.0627 N   0  0  0  0  0  0  0  0  0  0  0  0
    7.9337  -15.5634   18.2349 C   0  0  0  0  0  0  0  0  0  0  0  0
    7.7328  -14.4548   19.2111 C   0  0  0  0  0  0  0  0  0  0  0  0
    8.5890  -14.4600   20.4152 C   0  0  0  0  0  0  0  0  0  0  0  0
    8.1816  -15.3727   21.5322 C   0  0  2  0  0  0  0  0  0  0  0  0
    6.8569  -15.8794   21.4508 N   0  0  0  0  0  0  0  0  0  0  0  0
    8.5753  -14.8432   22.8626 C   0  0  0  0  0  0  0  0  0  0  0  0
    9.7251  -14.3085   23.0290 O   0  0  0  0  0  0  0  0  0  0  0  0
    8.6889  -14.7688   14.5258 C   0  0  0  0  0  0  0  0  0  0  0  0
    7.4432  -11.4987   25.6110 C   0  0  2  0  0  0  0  0  0  0  0  0
    6.4629  -12.6644   25.6940 C   0  0  0  0  0  0  0  0  0  0  0  0
    5.2433  -12.2340   26.3978 C   0  0  0  0  0  0  0  0  0  0  0  0
    7.0998  -13.9369   26.0481 C   0  0  2  0  0  0  0  0  0  0  0  0
    8.2845  -14.4318   25.3307 N   0  0  0  0  0  0  0  0  0  0  0  0
    7.7559  -14.8801   24.0120 C   0  0  0  0  0  0  0  0  0  0  0  0
    8.9528  -15.6051   25.8880 O   0  0  0  0  0  0  0  0  0  0  0  0
    9.2979  -15.5722   27.1246 N   0  0  0  0  0  0  0  0  0  0  0  0
    9.2691  -16.8131   25.2225 C   0  0  1  0  0  0  0  0  0  0  0  0
   10.0761  -17.8747   25.9299 C   0  0  0  0  0  0  0  0  0  0  0  0
    9.5547  -19.1206   25.3017 C   0  0  0  0  0  0  0  0  0  0  0  0
   10.0715  -20.4492   25.5387 C   0  0  0  0  0  0  0  0  0  0  0  0
    9.6465  -21.5764   24.6874 C   0  0  0  0  0  0  0  0  0  0  0  0
   10.2873  -22.8775   25.2513 N   0  0  0  0  0  0  0  0  0  0  0  0
    9.8527  -24.0016   24.4794 C   0  0  0  0  0  0  0  0  0  0  0  0
   11.4855  -17.5656   25.7637 O   0  0  0  0  0  0  0  0  0  0  0  0
   12.3809  -17.7427   26.6221 O   0  0  0  0  0  0  0  0  0  0  0  0
  2  3  2  0
  2  1  1  0
  4  2  1  0
  5  4  1  0
  6  5  1  0
  7  6  1  0
  8  7  1  0
  8  9  1  1
 10 17  1  0
 10  8  1  0
 11 10  2  0
 13 12  1  6
 14 13  1  0
 15 13  1  0
 16 15  1  6
 16 17  1  0
 18 19  2  0
 18 16  1  0
 20 18  1  0
 21 20  1  0
 21 27  1  0
 21 22  1  6
 23 22  1  0
 24 23  1  0
 25 26  1  0
 25 24  1  0
 27 29  1  0
 28 27  2  0
M  END
$$$$
