RLK.pdb
     RDKit          3D

 29 28  0  0  1  0  0  0  0  0999 V2000
    9.4798  -15.4530   16.0916 N   0  0  0  0  0  0  0  0  0  0  0  0
    8.3789  -14.6618   15.7305 C   0  0  0  0  0  0  0  0  0  0  0  0
    7.7934  -14.8516   14.5750 N   0  0  0  0  0  0  0  0  0  0  0  0
    7.9050  -13.6607   16.6161 N   0  0  0  0  0  0  0  0  0  0  0  0
    8.5529  -13.3635   17.8766 C   0  0  0  0  0  0  0  0  0  0  0  0
    8.3661  -14.4553   18.8743 C   0  0  0  0  0  0  0  0  0  0  0  0
    8.9855  -14.2622   20.2016 C   0  0  0  0  0  0  0  0  0  0  0  0
    8.7238  -15.3193   21.2316 C   0  0  2  0  0  0  0  0  0  0  0  0
    7.5559  -16.0996   21.0187 N   0  0  0  0  0  0  0  0  0  0  0  0
    8.9011  -14.8115   22.6158 C   0  0  0  0  0  0  0  0  0  0  0  0
    9.9675  -14.1847   22.9407 O   0  0  0  0  0  0  0  0  0  0  0  0
    6.9456  -14.2997   14.3283 C   0  0  0  0  0  0  0  0  0  0  0  0
    5.2502  -12.3785   26.6634 C   0  0  1  0  0  0  0  0  0  0  0  0
    6.6904  -12.8409   26.4672 C   0  0  0  0  0  0  0  0  0  0  0  0
    7.6092  -11.7245   26.7454 C   0  0  0  0  0  0  0  0  0  0  0  0
    6.8803  -13.6610   25.2663 C   0  0  2  0  0  0  0  0  0  0  0  0
    8.1662  -14.3117   24.9728 N   0  0  0  0  0  0  0  0  0  0  0  0
    7.9543  -14.9669   23.6517 C   0  0  0  0  0  0  0  0  0  0  0  0
    8.5808  -15.3901   25.8666 O   0  0  0  0  0  0  0  0  0  0  0  0
    7.8286  -15.6641   26.8709 N   0  0  0  0  0  0  0  0  0  0  0  0
    9.7345  -16.2022   25.7589 C   0  0  1  0  0  0  0  0  0  0  0  0
    9.7554  -17.5706   26.3959 C   0  0  0  0  0  0  0  0  0  0  0  0
    8.5571  -18.2087   25.7828 C   0  0  0  0  0  0  0  0  0  0  0  0
    8.1690  -19.5894   25.9604 C   0  0  0  0  0  0  0  0  0  0  0  0
    6.9994  -20.1322   25.2439 C   0  0  0  0  0  0  0  0  0  0  0  0
    6.7604  -21.5876   25.7401 N   0  0  0  0  0  0  0  0  0  0  0  0
    5.5916  -22.1242   25.1124 C   0  0  0  0  0  0  0  0  0  0  0  0
   11.0526  -18.1735   26.1441 O   0  0  0  0  0  0  0  0  0  0  0  0
   11.8459  -17.8505   25.2298 O   0  0  0  0  0  0  0  0  0  0  0  0
  2  3  2  0
  2  1  1  0
  4  2  1  0
  5  4  1  0
  6  5  1  0
  7  6  1  0
  8  7  1  0
  8  9  1  1
 10 17  1  0
 10  8  1  0
 11 10  2  0
 13 12  1  1
 14 13  1  0
 15 13  1  0
 16 15  1  6
 16 17  1  0
 18 19  2  0
 18 16  1  0
 20 18  1  0
 21 20  1  0
 21 27  1  0
 21 22  1  1
 23 22  1  0
 24 23  1  0
 25 26  1  0
 25 24  1  0
 27 29  1  0
 28 27  2  0
M  END
$$$$
