NKR.pdb
     RDKit          3D

 29 28  0  0  1  0  0  0  0  0999 V2000
   10.4533  -17.2799   12.2897 N   0  0  0  0  0  0  0  0  0  0  0  0
   11.1355  -17.1834   13.5465 C   0  0  0  0  0  0  0  0  0  0  0  0
   12.2944  -16.6842   13.5607 O   0  0  0  0  0  0  0  0  0  0  0  0
   10.4939  -17.6565   14.7828 C   0  0  0  0  0  0  0  0  0  0  0  0
   11.3342  -17.2515   15.9579 C   0  0  2  0  0  0  0  0  0  0  0  0
   12.6553  -17.8351   15.9169 N   0  0  0  0  0  0  0  0  0  0  0  0
   10.7277  -17.5523   17.2656 C   0  0  0  0  0  0  0  0  0  0  0  0
    9.5761  -17.0982   17.5766 O   0  0  0  0  0  0  0  0  0  0  0  0
   11.3546  -18.3462   18.2550 N   0  0  0  0  0  0  0  0  0  0  0  0
   10.6890  -18.7189   19.5104 C   0  0  1  0  0  0  0  0  0  0  0  0
   11.3648  -19.9106   20.1102 C   0  0  0  0  0  0  0  0  0  0  0  0
   10.7928  -20.4302   21.3905 C   0  0  0  0  0  0  0  0  0  0  0  0
   11.6639  -21.6432   21.7638 C   0  0  0  0  0  0  0  0  0  0  0  0
   11.1316  -22.3274   22.9879 C   0  0  0  0  0  0  0  0  0  0  0  0
   11.9438  -23.4854   23.2827 N   0  0  0  0  0  0  0  0  0  0  0  0
   10.8148  -17.5369   20.3912 C   0  0  0  0  0  0  0  0  0  0  0  0
   11.9331  -16.9140   20.4835 O   0  0  0  0  0  0  0  0  0  0  0  0
    7.7084  -14.4970   17.7919 N   0  0  0  0  0  0  0  0  0  0  0  0
    8.0979  -13.1434   17.9517 C   0  0  0  0  0  0  0  0  0  0  0  0
    8.4957  -12.4707   16.9346 N   0  0  0  0  0  0  0  0  0  0  0  0
    8.0439  -12.5490   19.2289 N   0  0  0  0  0  0  0  0  0  0  0  0
    7.8291  -13.3759   20.3844 C   0  0  0  0  0  0  0  0  0  0  0  0
    9.1834  -14.0507   20.6741 C   0  0  0  0  0  0  0  0  0  0  0  0
    8.9695  -14.8924   21.8808 C   0  0  0  0  0  0  0  0  0  0  0  0
   10.0563  -15.9321   22.1278 C   0  0  2  0  0  0  0  0  0  0  0  0
    9.7663  -16.9943   21.1788 N   0  0  0  0  0  0  0  0  0  0  0  0
    9.9761  -16.3788   23.5283 C   0  0  0  0  0  0  0  0  0  0  0  0
    9.4080  -17.4037   23.9241 O   0  0  0  0  0  0  0  0  0  0  0  0
   10.6048  -15.5595   24.4886 O   0  0  0  0  0  0  0  0  0  0  0  0
  1  2  1  0
  2  3  2  0
  4  5  1  0
  4  2  1  0
  5  6  1  6
  7  5  1  0
  7  8  2  0
  9  7  1  0
 10  9  1  0
 11 12  1  0
 10 11  1  1
 12 13  1  0
 13 14  1  0
 14 15  1  0
 16 17  2  0
 16 10  1  0
 18 19  1  0
 19 20  2  0
 21 19  1  0
 21 22  1  0
 22 23  1  0
 23 24  1  0
 25 24  1  1
 25 27  1  0
 25 26  1  0
 26 16  1  0
 27 29  1  0
 28 27  2  0
M  END
$$$$
