NKR.pdb
     RDKit          3D

 29 28  0  0  1  0  0  0  0  0999 V2000
    9.4502  -13.7476   17.9279 N   0  0  0  0  0  0  0  0  0  0  0  0
    8.1211  -13.3491   18.2871 C   0  0  0  0  0  0  0  0  0  0  0  0
    7.4875  -12.5985   17.4949 O   0  0  0  0  0  0  0  0  0  0  0  0
    7.5190  -13.8077   19.5485 C   0  0  0  0  0  0  0  0  0  0  0  0
    8.5217  -14.6334   20.2993 C   0  0  2  0  0  0  0  0  0  0  0  0
    9.1119  -15.6642   19.4769 N   0  0  0  0  0  0  0  0  0  0  0  0
    7.9943  -15.2548   21.5257 C   0  0  0  0  0  0  0  0  0  0  0  0
    7.3781  -14.5610   22.4021 O   0  0  0  0  0  0  0  0  0  0  0  0
    8.1245  -16.6320   21.8236 N   0  0  0  0  0  0  0  0  0  0  0  0
    7.5575  -17.2370   23.0362 C   0  0  1  0  0  0  0  0  0  0  0  0
    7.4060  -18.7126   22.8454 C   0  0  0  0  0  0  0  0  0  0  0  0
    6.9430  -19.4966   24.0317 C   0  0  0  0  0  0  0  0  0  0  0  0
    6.8592  -20.9558   23.5487 C   0  0  0  0  0  0  0  0  0  0  0  0
    6.4026  -21.8599   24.6551 C   0  0  0  0  0  0  0  0  0  0  0  0
    6.4135  -23.2286   24.1926 N   0  0  0  0  0  0  0  0  0  0  0  0
    8.5225  -16.9369   24.1168 C   0  0  0  0  0  0  0  0  0  0  0  0
    9.7838  -17.0501   23.9086 O   0  0  0  0  0  0  0  0  0  0  0  0
    6.0089  -13.5360   25.8527 N   0  0  0  0  0  0  0  0  0  0  0  0
    6.3224  -12.2210   26.2795 C   0  0  0  0  0  0  0  0  0  0  0  0
    5.3778  -11.4038   26.5711 N   0  0  0  0  0  0  0  0  0  0  0  0
    7.6714  -11.8240   26.3796 N   0  0  0  0  0  0  0  0  0  0  0  0
    8.5778  -12.5978   27.1826 C   0  0  0  0  0  0  0  0  0  0  0  0
    9.0236  -13.7751   26.2945 C   0  0  0  0  0  0  0  0  0  0  0  0
    8.8223  -15.0008   27.1114 C   0  0  0  0  0  0  0  0  0  0  0  0
    9.2156  -16.2977   26.4140 C   0  0  2  0  0  0  0  0  0  0  0  0
    8.1726  -16.5095   25.4240 N   0  0  0  0  0  0  0  0  0  0  0  0
    9.2803  -17.3745   27.4159 C   0  0  0  0  0  0  0  0  0  0  0  0
    8.4055  -18.2263   27.6126 O   0  0  0  0  0  0  0  0  0  0  0  0
   10.4440  -17.4272   28.2108 O   0  0  0  0  0  0  0  0  0  0  0  0
  1  2  1  0
  2  3  2  0
  4  5  1  0
  4  2  1  0
  5  6  1  6
  7  5  1  0
  7  8  2  0
  9  7  1  0
 10  9  1  0
 11 12  1  0
 10 11  1  6
 12 13  1  0
 13 14  1  0
 14 15  1  0
 16 17  2  0
 16 10  1  0
 18 19  1  0
 19 20  2  0
 21 19  1  0
 21 22  1  0
 22 23  1  0
 23 24  1  0
 25 24  1  1
 25 27  1  0
 25 26  1  0
 26 16  1  0
 27 29  1  0
 28 27  2  0
M  END
$$$$
