NKR.pdb
     RDKit          3D

 29 28  0  0  1  0  0  0  0  0999 V2000
   14.6955  -19.2847   17.9454 N   0  0  0  0  0  0  0  0  0  0  0  0
   14.2734  -19.8144   19.2086 C   0  0  0  0  0  0  0  0  0  0  0  0
   14.3008  -21.0655   19.3713 O   0  0  0  0  0  0  0  0  0  0  0  0
   13.8216  -18.9157   20.2820 C   0  0  0  0  0  0  0  0  0  0  0  0
   13.8913  -17.4978   19.7968 C   0  0  2  0  0  0  0  0  0  0  0  0
   15.1996  -16.9149   19.9866 N   0  0  0  0  0  0  0  0  0  0  0  0
   12.8869  -16.6044   20.3980 C   0  0  0  0  0  0  0  0  0  0  0  0
   13.1131  -16.0111   21.5052 O   0  0  0  0  0  0  0  0  0  0  0  0
   11.6256  -16.3391   19.8138 N   0  0  0  0  0  0  0  0  0  0  0  0
   10.6727  -15.3802   20.3884 C   0  0  1  0  0  0  0  0  0  0  0  0
    9.8159  -14.8040   19.3064 C   0  0  0  0  0  0  0  0  0  0  0  0
    8.7264  -13.8754   19.7388 C   0  0  0  0  0  0  0  0  0  0  0  0
    7.9606  -13.5180   18.4522 C   0  0  0  0  0  0  0  0  0  0  0  0
    6.8458  -12.5574   18.7428 C   0  0  0  0  0  0  0  0  0  0  0  0
    6.1121  -12.2908   17.5270 N   0  0  0  0  0  0  0  0  0  0  0  0
    9.8618  -16.1568   21.3519 C   0  0  0  0  0  0  0  0  0  0  0  0
    9.4277  -17.3238   21.0404 O   0  0  0  0  0  0  0  0  0  0  0  0
    9.8430  -13.8536   29.3626 N   0  0  0  0  0  0  0  0  0  0  0  0
   10.7865  -14.8413   28.9835 C   0  0  0  0  0  0  0  0  0  0  0  0
   11.8083  -15.0642   29.7260 N   0  0  0  0  0  0  0  0  0  0  0  0
   10.5918  -15.5700   27.7924 N   0  0  0  0  0  0  0  0  0  0  0  0
    9.5206  -15.2039   26.9073 C   0  0  0  0  0  0  0  0  0  0  0  0
    9.6765  -16.1036   25.6665 C   0  0  0  0  0  0  0  0  0  0  0  0
    8.5166  -15.7933   24.7898 C   0  0  0  0  0  0  0  0  0  0  0  0
    8.5465  -16.4855   23.4322 C   0  0  2  0  0  0  0  0  0  0  0  0
    9.5041  -15.7181   22.6533 N   0  0  0  0  0  0  0  0  0  0  0  0
    7.1913  -16.4614   22.8573 C   0  0  0  0  0  0  0  0  0  0  0  0
    6.7487  -15.5916   22.0976 O   0  0  0  0  0  0  0  0  0  0  0  0
    6.3370  -17.5262   23.2111 O   0  0  0  0  0  0  0  0  0  0  0  0
  1  2  1  0
  2  3  2  0
  4  5  1  0
  4  2  1  0
  5  6  1  1
  7  5  1  0
  7  8  2  0
  9  7  1  0
 10  9  1  0
 11 12  1  0
 10 11  1  6
 12 13  1  0
 13 14  1  0
 14 15  1  0
 16 17  2  0
 16 10  1  0
 18 19  1  0
 19 20  2  0
 21 19  1  0
 21 22  1  0
 22 23  1  0
 23 24  1  0
 25 24  1  1
 25 27  1  0
 25 26  1  0
 26 16  1  0
 27 29  1  0
 28 27  2  0
M  END
$$$$
