NKR.pdb
     RDKit          3D

 29 28  0  0  1  0  0  0  0  0999 V2000
   16.5435  -16.3734   17.7557 N   0  0  0  0  0  0  0  0  0  0  0  0
   15.2736  -16.0629   17.1681 C   0  0  0  0  0  0  0  0  0  0  0  0
   15.0255  -16.5053   16.0126 O   0  0  0  0  0  0  0  0  0  0  0  0
   14.2910  -15.2487   17.8999 C   0  0  0  0  0  0  0  0  0  0  0  0
   13.2489  -16.1514   18.4915 C   0  0  2  0  0  0  0  0  0  0  0  0
   12.4033  -16.7498   17.4843 N   0  0  0  0  0  0  0  0  0  0  0  0
   12.3930  -15.5048   19.5004 C   0  0  0  0  0  0  0  0  0  0  0  0
   12.8951  -14.9796   20.5498 O   0  0  0  0  0  0  0  0  0  0  0  0
   10.9850  -15.4162   19.3915 N   0  0  0  0  0  0  0  0  0  0  0  0
   10.1584  -14.6993   20.3715 C   0  0  1  0  0  0  0  0  0  0  0  0
    8.8125  -14.4097   19.7871 C   0  0  0  0  0  0  0  0  0  0  0  0
    8.7930  -13.6865   18.4784 C   0  0  0  0  0  0  0  0  0  0  0  0
    7.3195  -13.6890   18.0330 C   0  0  0  0  0  0  0  0  0  0  0  0
    7.1617  -13.0136   16.7030 C   0  0  0  0  0  0  0  0  0  0  0  0
    5.7817  -13.0957   16.2831 N   0  0  0  0  0  0  0  0  0  0  0  0
   10.0488  -15.6058   21.5356 C   0  0  0  0  0  0  0  0  0  0  0  0
    9.9625  -16.8746   21.3625 O   0  0  0  0  0  0  0  0  0  0  0  0
   10.7841  -14.1719   30.2032 N   0  0  0  0  0  0  0  0  0  0  0  0
   10.9731  -15.5657   30.0270 C   0  0  0  0  0  0  0  0  0  0  0  0
   11.4042  -16.2783   31.0024 N   0  0  0  0  0  0  0  0  0  0  0  0
   10.6846  -16.1557   28.7795 N   0  0  0  0  0  0  0  0  0  0  0  0
   10.6595  -15.3362   27.5994 C   0  0  0  0  0  0  0  0  0  0  0  0
   10.2033  -16.2624   26.4559 C   0  0  0  0  0  0  0  0  0  0  0  0
   10.1886  -15.4204   25.2307 C   0  0  0  0  0  0  0  0  0  0  0  0
    9.8765  -16.1783   23.9457 C   0  0  2  0  0  0  0  0  0  0  0  0
   10.0345  -15.1895   22.8922 N   0  0  0  0  0  0  0  0  0  0  0  0
    8.5065  -16.7107   24.0297 C   0  0  0  0  0  0  0  0  0  0  0  0
    8.1760  -17.7566   24.6010 O   0  0  0  0  0  0  0  0  0  0  0  0
    7.4961  -15.9537   23.4014 O   0  0  0  0  0  0  0  0  0  0  0  0
  1  2  1  0
  2  3  2  0
  4  5  1  0
  4  2  1  0
  5  6  1  6
  7  5  1  0
  7  8  2  0
  9  7  1  0
 10  9  1  0
 11 12  1  0
 10 11  1  6
 12 13  1  0
 13 14  1  0
 14 15  1  0
 16 17  2  0
 16 10  1  0
 18 19  1  0
 19 20  2  0
 21 19  1  0
 21 22  1  0
 22 23  1  0
 23 24  1  0
 25 24  1  1
 25 27  1  0
 25 26  1  0
 26 16  1  0
 27 29  1  0
 28 27  2  0
M  END
$$$$
