NKR.pdb
     RDKit          3D

 29 28  0  0  1  0  0  0  0  0999 V2000
   10.7916  -17.1785   15.1062 N   0  0  0  0  0  0  0  0  0  0  0  0
    9.9779  -18.3562   15.1793 C   0  0  0  0  0  0  0  0  0  0  0  0
    9.6485  -18.9230   14.1010 O   0  0  0  0  0  0  0  0  0  0  0  0
    9.5426  -18.8836   16.4817 C   0  0  0  0  0  0  0  0  0  0  0  0
   10.0113  -17.9596   17.5669 C   0  0  2  0  0  0  0  0  0  0  0  0
   11.4519  -17.9134   17.6661 N   0  0  0  0  0  0  0  0  0  0  0  0
    9.4579  -18.2621   18.8975 C   0  0  0  0  0  0  0  0  0  0  0  0
    8.4745  -17.5978   19.3675 O   0  0  0  0  0  0  0  0  0  0  0  0
    9.9574  -19.2842   19.7390 N   0  0  0  0  0  0  0  0  0  0  0  0
    9.3441  -19.6159   21.0320 C   0  0  1  0  0  0  0  0  0  0  0  0
    9.8926  -20.9121   21.5377 C   0  0  0  0  0  0  0  0  0  0  0  0
    9.3625  -21.3966   22.8494 C   0  0  0  0  0  0  0  0  0  0  0  0
   10.0672  -22.7416   23.1023 C   0  0  0  0  0  0  0  0  0  0  0  0
    9.6449  -23.3277   24.4168 C   0  0  0  0  0  0  0  0  0  0  0  0
   10.4594  -24.4842   24.7112 N   0  0  0  0  0  0  0  0  0  0  0  0
    9.6985  -18.4996   21.9361 C   0  0  0  0  0  0  0  0  0  0  0  0
   10.9270  -18.1706   22.1082 O   0  0  0  0  0  0  0  0  0  0  0  0
    6.7142  -12.5953   19.1604 N   0  0  0  0  0  0  0  0  0  0  0  0
    8.0994  -12.8207   18.9608 C   0  0  0  0  0  0  0  0  0  0  0  0
    8.6735  -12.3664   17.9077 N   0  0  0  0  0  0  0  0  0  0  0  0
    8.8335  -13.5431   19.9236 N   0  0  0  0  0  0  0  0  0  0  0  0
    8.1449  -14.1434   21.0328 C   0  0  0  0  0  0  0  0  0  0  0  0
    9.2451  -14.6803   21.9679 C   0  0  0  0  0  0  0  0  0  0  0  0
    8.5372  -15.4043   23.0565 C   0  0  0  0  0  0  0  0  0  0  0  0
    9.2454  -16.6627   23.5444 C   0  0  2  0  0  0  0  0  0  0  0  0
    8.7662  -17.7149   22.6635 N   0  0  0  0  0  0  0  0  0  0  0  0
    8.8894  -16.8911   24.9546 C   0  0  0  0  0  0  0  0  0  0  0  0
    8.0898  -17.7406   25.3650 O   0  0  0  0  0  0  0  0  0  0  0  0
    9.5214  -16.0645   25.9064 O   0  0  0  0  0  0  0  0  0  0  0  0
  1  2  1  0
  2  3  2  0
  4  5  1  0
  4  2  1  0
  5  6  1  1
  7  5  1  0
  7  8  2  0
  9  7  1  0
 10  9  1  0
 11 12  1  0
 10 11  1  1
 12 13  1  0
 13 14  1  0
 14 15  1  0
 16 17  2  0
 16 10  1  0
 18 19  1  0
 19 20  2  0
 21 19  1  0
 21 22  1  0
 22 23  1  0
 23 24  1  0
 25 24  1  6
 25 27  1  0
 25 26  1  0
 26 16  1  0
 27 29  1  0
 28 27  2  0
M  END
$$$$
