NKR.pdb
     RDKit          3D

 29 28  0  0  1  0  0  0  0  0999 V2000
    9.2994  -13.4224   16.0227 N   0  0  0  0  0  0  0  0  0  0  0  0
    7.9085  -13.5203   16.3546 C   0  0  0  0  0  0  0  0  0  0  0  0
    7.0651  -13.0579   15.5377 O   0  0  0  0  0  0  0  0  0  0  0  0
    7.4840  -14.1452   17.6168 C   0  0  0  0  0  0  0  0  0  0  0  0
    8.6997  -14.5275   18.4085 C   0  0  2  0  0  0  0  0  0  0  0  0
    9.7063  -15.1702   17.5953 N   0  0  0  0  0  0  0  0  0  0  0  0
    8.4171  -15.3851   19.5717 C   0  0  0  0  0  0  0  0  0  0  0  0
    7.4968  -15.0835   20.4031 O   0  0  0  0  0  0  0  0  0  0  0  0
    9.1230  -16.5785   19.8541 N   0  0  0  0  0  0  0  0  0  0  0  0
    8.7966  -17.4398   20.9985 C   0  0  1  0  0  0  0  0  0  0  0  0
    9.3867  -18.7991   20.7968 C   0  0  0  0  0  0  0  0  0  0  0  0
    8.6218  -19.7370   19.9184 C   0  0  0  0  0  0  0  0  0  0  0  0
    9.5216  -20.9764   19.7639 C   0  0  0  0  0  0  0  0  0  0  0  0
    8.8837  -21.9912   18.8622 C   0  0  0  0  0  0  0  0  0  0  0  0
    9.8209  -23.0597   18.6024 N   0  0  0  0  0  0  0  0  0  0  0  0
    9.3895  -16.7723   22.1782 C   0  0  0  0  0  0  0  0  0  0  0  0
   10.4527  -16.0639   22.0552 O   0  0  0  0  0  0  0  0  0  0  0  0
    4.9672  -11.6202   25.5751 N   0  0  0  0  0  0  0  0  0  0  0  0
    6.1938  -11.4457   26.2639 C   0  0  0  0  0  0  0  0  0  0  0  0
    6.3173  -10.4926   27.1134 N   0  0  0  0  0  0  0  0  0  0  0  0
    7.2674  -12.3229   26.0082 N   0  0  0  0  0  0  0  0  0  0  0  0
    7.2769  -13.6243   26.6176 C   0  0  0  0  0  0  0  0  0  0  0  0
    8.6059  -14.2766   26.1915 C   0  0  0  0  0  0  0  0  0  0  0  0
    8.2725  -15.1770   25.0564 C   0  0  0  0  0  0  0  0  0  0  0  0
    9.4441  -16.0028   24.5385 C   0  0  2  0  0  0  0  0  0  0  0  0
    8.8689  -16.8375   23.4967 N   0  0  0  0  0  0  0  0  0  0  0  0
   10.0035  -16.7843   25.6538 C   0  0  0  0  0  0  0  0  0  0  0  0
   10.4824  -16.3131   26.6921 O   0  0  0  0  0  0  0  0  0  0  0  0
    9.9847  -18.1873   25.5126 O   0  0  0  0  0  0  0  0  0  0  0  0
  1  2  1  0
  2  3  2  0
  4  5  1  0
  4  2  1  0
  5  6  1  6
  7  5  1  0
  7  8  2  0
  9  7  1  0
 10  9  1  0
 11 12  1  0
 10 11  1  6
 12 13  1  0
 13 14  1  0
 14 15  1  0
 16 17  2  0
 16 10  1  0
 18 19  1  0
 19 20  2  0
 21 19  1  0
 21 22  1  0
 22 23  1  0
 23 24  1  0
 25 24  1  1
 25 27  1  0
 25 26  1  0
 26 16  1  0
 27 29  1  0
 28 27  2  0
M  END
$$$$
