NKR.pdb
     RDKit          3D

 29 28  0  0  1  0  0  0  0  0999 V2000
    3.5920  -25.5952   18.9724 N   0  0  0  0  0  0  0  0  0  0  0  0
    3.1623  -26.9558   18.8363 C   0  0  0  0  0  0  0  0  0  0  0  0
    2.3014  -27.2253   17.9539 O   0  0  0  0  0  0  0  0  0  0  0  0
    3.7156  -28.0045   19.7069 C   0  0  0  0  0  0  0  0  0  0  0  0
    4.6929  -27.3847   20.6617 C   0  0  2  0  0  0  0  0  0  0  0  0
    4.2098  -26.1392   21.2122 N   0  0  0  0  0  0  0  0  0  0  0  0
    6.0321  -27.1591   20.0926 C   0  0  0  0  0  0  0  0  0  0  0  0
    6.9534  -28.0344   20.2118 O   0  0  0  0  0  0  0  0  0  0  0  0
    6.3958  -25.9872   19.3879 N   0  0  0  0  0  0  0  0  0  0  0  0
    7.7494  -25.7676   18.8613 C   0  0  1  0  0  0  0  0  0  0  0  0
    7.7375  -24.6366   17.8828 C   0  0  0  0  0  0  0  0  0  0  0  0
    9.0268  -24.3422   17.1847 C   0  0  0  0  0  0  0  0  0  0  0  0
    8.7123  -23.1866   16.2178 C   0  0  0  0  0  0  0  0  0  0  0  0
    9.9313  -22.7974   15.4352 C   0  0  0  0  0  0  0  0  0  0  0  0
    9.6109  -21.6880   14.5668 N   0  0  0  0  0  0  0  0  0  0  0  0
    8.5845  -25.4433   20.0387 C   0  0  0  0  0  0  0  0  0  0  0  0
    8.0823  -24.8060   21.0331 O   0  0  0  0  0  0  0  0  0  0  0  0
   16.2246  -28.6294   22.7669 N   0  0  0  0  0  0  0  0  0  0  0  0
   16.0088  -27.4979   23.5932 C   0  0  0  0  0  0  0  0  0  0  0  0
   16.8892  -27.1695   24.4662 N   0  0  0  0  0  0  0  0  0  0  0  0
   14.8269  -26.7435   23.4468 N   0  0  0  0  0  0  0  0  0  0  0  0
   13.7567  -27.2572   22.6370 C   0  0  0  0  0  0  0  0  0  0  0  0
   12.6136  -26.2310   22.7533 C   0  0  0  0  0  0  0  0  0  0  0  0
   11.8121  -26.3708   21.5090 C   0  0  0  0  0  0  0  0  0  0  0  0
   10.6797  -25.3603   21.3688 C   0  0  2  0  0  0  0  0  0  0  0  0
    9.9527  -25.7901   20.1858 N   0  0  0  0  0  0  0  0  0  0  0  0
   11.2596  -24.0146   21.2263 C   0  0  0  0  0  0  0  0  0  0  0  0
   11.5815  -23.4805   20.1583 O   0  0  0  0  0  0  0  0  0  0  0  0
   11.4587  -23.2844   22.4163 O   0  0  0  0  0  0  0  0  0  0  0  0
  1  2  1  0
  2  3  2  0
  4  5  1  0
  4  2  1  0
  5  6  1  6
  7  5  1  0
  7  8  2  0
  9  7  1  0
 10  9  1  0
 11 12  1  0
 10 11  1  6
 12 13  1  0
 13 14  1  0
 14 15  1  0
 16 17  2  0
 16 10  1  0
 18 19  1  0
 19 20  2  0
 21 19  1  0
 21 22  1  0
 22 23  1  0
 23 24  1  0
 25 24  1  6
 25 27  1  0
 25 26  1  0
 26 16  1  0
 27 29  1  0
 28 27  2  0
M  END
$$$$
