NKR.pdb
     RDKit          3D

 29 28  0  0  1  0  0  0  0  0999 V2000
    7.4111  -17.2079   17.4857 N   0  0  0  0  0  0  0  0  0  0  0  0
    8.4260  -16.2101   17.3167 C   0  0  0  0  0  0  0  0  0  0  0  0
    8.7086  -15.8375   16.1446 O   0  0  0  0  0  0  0  0  0  0  0  0
    9.1153  -15.6404   18.4847 C   0  0  0  0  0  0  0  0  0  0  0  0
    8.5927  -16.2939   19.7299 C   0  0  2  0  0  0  0  0  0  0  0  0
    7.1495  -16.3564   19.7544 N   0  0  0  0  0  0  0  0  0  0  0  0
    9.0574  -15.6691   20.9797 C   0  0  0  0  0  0  0  0  0  0  0  0
   10.3030  -15.5533   21.2337 O   0  0  0  0  0  0  0  0  0  0  0  0
    8.1859  -15.1612   21.9721 N   0  0  0  0  0  0  0  0  0  0  0  0
    8.6612  -14.7034   23.2845 C   0  0  1  0  0  0  0  0  0  0  0  0
    7.5960  -13.8988   23.9590 C   0  0  0  0  0  0  0  0  0  0  0  0
    7.9078  -13.3928   25.3312 C   0  0  0  0  0  0  0  0  0  0  0  0
    6.7063  -12.5149   25.7249 C   0  0  0  0  0  0  0  0  0  0  0  0
    6.9341  -11.8624   27.0561 C   0  0  0  0  0  0  0  0  0  0  0  0
    5.8689  -10.9223   27.3191 N   0  0  0  0  0  0  0  0  0  0  0  0
    8.9617  -15.9344   24.0482 C   0  0  0  0  0  0  0  0  0  0  0  0
    8.0919  -16.8747   24.1294 O   0  0  0  0  0  0  0  0  0  0  0  0
   14.8765  -19.5112   28.0520 N   0  0  0  0  0  0  0  0  0  0  0  0
   15.1618  -20.2840   26.8984 C   0  0  0  0  0  0  0  0  0  0  0  0
   16.3401  -20.7608   26.7265 N   0  0  0  0  0  0  0  0  0  0  0  0
   14.1460  -20.5212   25.9500 N   0  0  0  0  0  0  0  0  0  0  0  0
   13.6392  -19.4267   25.1689 C   0  0  0  0  0  0  0  0  0  0  0  0
   12.2162  -19.1598   25.6956 C   0  0  0  0  0  0  0  0  0  0  0  0
   11.7691  -17.9014   25.0423 C   0  0  0  0  0  0  0  0  0  0  0  0
   10.3619  -17.4564   25.4225 C   0  0  2  0  0  0  0  0  0  0  0  0
   10.1799  -16.1921   24.7289 N   0  0  0  0  0  0  0  0  0  0  0  0
   10.2862  -17.3216   26.8867 C   0  0  0  0  0  0  0  0  0  0  0  0
   10.1894  -18.2568   27.6902 O   0  0  0  0  0  0  0  0  0  0  0  0
   10.3292  -16.0097   27.4023 O   0  0  0  0  0  0  0  0  0  0  0  0
  1  2  1  0
  2  3  2  0
  4  5  1  0
  4  2  1  0
  5  6  1  6
  7  5  1  0
  7  8  2  0
  9  7  1  0
 10  9  1  0
 11 12  1  0
 10 11  1  1
 12 13  1  0
 13 14  1  0
 14 15  1  0
 16 17  2  0
 16 10  1  0
 18 19  1  0
 19 20  2  0
 21 19  1  0
 21 22  1  0
 22 23  1  0
 23 24  1  0
 25 24  1  1
 25 27  1  0
 25 26  1  0
 26 16  1  0
 27 29  1  0
 28 27  2  0
M  END
$$$$
