NKR.pdb
     RDKit          3D

 29 28  0  0  1  0  0  0  0  0999 V2000
   17.4852  -13.9787   15.7625 N   0  0  0  0  0  0  0  0  0  0  0  0
   16.1501  -14.4005   16.0691 C   0  0  0  0  0  0  0  0  0  0  0  0
   15.5470  -15.1293   15.2339 O   0  0  0  0  0  0  0  0  0  0  0  0
   15.5074  -13.9899   17.3269 C   0  0  0  0  0  0  0  0  0  0  0  0
   14.8470  -15.1827   17.9530 C   0  0  2  0  0  0  0  0  0  0  0  0
   14.2248  -16.0441   16.9740 N   0  0  0  0  0  0  0  0  0  0  0  0
   13.8517  -14.8486   18.9855 C   0  0  0  0  0  0  0  0  0  0  0  0
   14.2110  -14.5495   20.1731 O   0  0  0  0  0  0  0  0  0  0  0  0
   12.4562  -14.8329   18.7514 N   0  0  0  0  0  0  0  0  0  0  0  0
   11.4899  -14.3688   19.7557 C   0  0  1  0  0  0  0  0  0  0  0  0
   10.3013  -13.7654   19.0774 C   0  0  0  0  0  0  0  0  0  0  0  0
    9.1510  -13.3868   19.9548 C   0  0  0  0  0  0  0  0  0  0  0  0
    8.0785  -12.8280   19.0024 C   0  0  0  0  0  0  0  0  0  0  0  0
    6.8370  -12.4532   19.7562 C   0  0  0  0  0  0  0  0  0  0  0  0
    5.8298  -11.9966   18.8264 N   0  0  0  0  0  0  0  0  0  0  0  0
   11.1084  -15.5739   20.5246 C   0  0  0  0  0  0  0  0  0  0  0  0
   10.8672  -16.6793   19.9186 O   0  0  0  0  0  0  0  0  0  0  0  0
   13.5277  -18.3703   28.2601 N   0  0  0  0  0  0  0  0  0  0  0  0
   12.3984  -19.1918   28.0164 C   0  0  0  0  0  0  0  0  0  0  0  0
   12.0428  -20.0612   28.8898 N   0  0  0  0  0  0  0  0  0  0  0  0
   11.6762  -19.0448   26.8146 N   0  0  0  0  0  0  0  0  0  0  0  0
   11.7434  -17.8011   26.0977 C   0  0  0  0  0  0  0  0  0  0  0  0
   10.9615  -18.0288   24.7900 C   0  0  0  0  0  0  0  0  0  0  0  0
   11.1905  -16.8156   23.9617 C   0  0  0  0  0  0  0  0  0  0  0  0
   10.5684  -16.8718   22.5715 C   0  0  2  0  0  0  0  0  0  0  0  0
   10.9823  -15.6314   21.9369 N   0  0  0  0  0  0  0  0  0  0  0  0
    9.1069  -16.9835   22.7099 C   0  0  0  0  0  0  0  0  0  0  0  0
    8.4927  -18.0042   23.0422 O   0  0  0  0  0  0  0  0  0  0  0  0
    8.3569  -15.8207   22.4377 O   0  0  0  0  0  0  0  0  0  0  0  0
  1  2  1  0
  2  3  2  0
  4  5  1  0
  4  2  1  0
  5  6  1  6
  7  5  1  0
  7  8  2  0
  9  7  1  0
 10  9  1  0
 11 12  1  0
 10 11  1  6
 12 13  1  0
 13 14  1  0
 14 15  1  0
 16 17  2  0
 16 10  1  0
 18 19  1  0
 19 20  2  0
 21 19  1  0
 21 22  1  0
 22 23  1  0
 23 24  1  0
 25 24  1  1
 25 27  1  0
 25 26  1  0
 26 16  1  0
 27 29  1  0
 28 27  2  0
M  END
$$$$
