NKR.pdb
     RDKit          3D

 29 28  0  0  1  0  0  0  0  0999 V2000
    9.5591  -15.3255   14.5929 N   0  0  0  0  0  0  0  0  0  0  0  0
    8.2536  -14.9341   15.0366 C   0  0  0  0  0  0  0  0  0  0  0  0
    7.4676  -14.4150   14.1969 O   0  0  0  0  0  0  0  0  0  0  0  0
    7.8488  -15.1359   16.4364 C   0  0  0  0  0  0  0  0  0  0  0  0
    9.0161  -15.6702   17.2128 C   0  0  2  0  0  0  0  0  0  0  0  0
    9.7913  -16.6243   16.4538 N   0  0  0  0  0  0  0  0  0  0  0  0
    8.6541  -16.2793   18.5036 C   0  0  0  0  0  0  0  0  0  0  0  0
    7.9044  -15.6646   19.3338 O   0  0  0  0  0  0  0  0  0  0  0  0
    9.0957  -17.5587   18.9166 N   0  0  0  0  0  0  0  0  0  0  0  0
    8.6376  -18.1911   20.1608 C   0  0  1  0  0  0  0  0  0  0  0  0
    9.1608  -19.5898   20.2431 C   0  0  0  0  0  0  0  0  0  0  0  0
    8.8259  -20.3576   21.4819 C   0  0  0  0  0  0  0  0  0  0  0  0
    9.4977  -21.7311   21.3045 C   0  0  0  0  0  0  0  0  0  0  0  0
    9.2264  -22.6156   22.4852 C   0  0  0  0  0  0  0  0  0  0  0  0
    9.7997  -23.9207   22.2498 N   0  0  0  0  0  0  0  0  0  0  0  0
    9.1813  -17.3548   21.2535 C   0  0  0  0  0  0  0  0  0  0  0  0
   10.3353  -16.8056   21.1358 O   0  0  0  0  0  0  0  0  0  0  0  0
    4.9028  -12.1662   26.6235 N   0  0  0  0  0  0  0  0  0  0  0  0
    6.2576  -11.8168   26.8515 C   0  0  0  0  0  0  0  0  0  0  0  0
    6.5396  -10.8152   27.6014 N   0  0  0  0  0  0  0  0  0  0  0  0
    7.2832  -12.5749   26.2507 N   0  0  0  0  0  0  0  0  0  0  0  0
    6.9449  -13.5687   25.2694 C   0  0  0  0  0  0  0  0  0  0  0  0
    8.2687  -14.2696   24.9094 C   0  0  0  0  0  0  0  0  0  0  0  0
    7.9249  -15.2868   23.8812 C   0  0  0  0  0  0  0  0  0  0  0  0
    9.0995  -16.1404   23.4178 C   0  0  2  0  0  0  0  0  0  0  0  0
    8.5162  -17.0826   22.4772 N   0  0  0  0  0  0  0  0  0  0  0  0
    9.6988  -16.7993   24.5901 C   0  0  0  0  0  0  0  0  0  0  0  0
    9.4115  -17.9287   25.0042 O   0  0  0  0  0  0  0  0  0  0  0  0
   10.6820  -16.0696   25.2897 O   0  0  0  0  0  0  0  0  0  0  0  0
  1  2  1  0
  2  3  2  0
  4  5  1  0
  4  2  1  0
  5  6  1  6
  7  5  1  0
  7  8  2  0
  9  7  1  0
 10  9  1  0
 11 12  1  0
 10 11  1  1
 12 13  1  0
 13 14  1  0
 14 15  1  0
 16 17  2  0
 16 10  1  0
 18 19  1  0
 19 20  2  0
 21 19  1  0
 21 22  1  0
 22 23  1  0
 23 24  1  0
 25 24  1  1
 25 27  1  0
 25 26  1  0
 26 16  1  0
 27 29  1  0
 28 27  2  0
M  END
$$$$
