NKR.pdb
     RDKit          3D

 29 28  0  0  1  0  0  0  0  0999 V2000
    9.2698  -13.7643   14.9427 N   0  0  0  0  0  0  0  0  0  0  0  0
    7.8969  -13.8267   15.3497 C   0  0  0  0  0  0  0  0  0  0  0  0
    7.0175  -13.3949   14.5544 O   0  0  0  0  0  0  0  0  0  0  0  0
    7.5314  -14.3814   16.6622 C   0  0  0  0  0  0  0  0  0  0  0  0
    8.7803  -14.7813   17.3911 C   0  0  2  0  0  0  0  0  0  0  0  0
    9.7300  -15.4482   16.5305 N   0  0  0  0  0  0  0  0  0  0  0  0
    8.5442  -15.6257   18.5742 C   0  0  0  0  0  0  0  0  0  0  0  0
    7.6815  -15.2967   19.4555 O   0  0  0  0  0  0  0  0  0  0  0  0
    9.2350  -16.8353   18.8229 N   0  0  0  0  0  0  0  0  0  0  0  0
    8.9563  -17.6807   19.9914 C   0  0  1  0  0  0  0  0  0  0  0  0
    9.6391  -19.0024   19.8376 C   0  0  0  0  0  0  0  0  0  0  0  0
    9.4866  -19.9698   20.9678 C   0  0  0  0  0  0  0  0  0  0  0  0
   10.2505  -21.2323   20.5298 C   0  0  0  0  0  0  0  0  0  0  0  0
   10.1070  -22.3244   21.5480 C   0  0  0  0  0  0  0  0  0  0  0  0
   10.9551  -23.4358   21.1834 N   0  0  0  0  0  0  0  0  0  0  0  0
    9.4910  -16.9380   21.1539 C   0  0  0  0  0  0  0  0  0  0  0  0
   10.5745  -16.2585   21.0457 O   0  0  0  0  0  0  0  0  0  0  0  0
    4.9392  -12.4112   26.8902 N   0  0  0  0  0  0  0  0  0  0  0  0
    6.2247  -11.8190   26.8098 C   0  0  0  0  0  0  0  0  0  0  0  0
    6.3989  -10.6166   27.2209 N   0  0  0  0  0  0  0  0  0  0  0  0
    7.3005  -12.5589   26.2781 N   0  0  0  0  0  0  0  0  0  0  0  0
    7.0363  -13.6156   25.3407 C   0  0  0  0  0  0  0  0  0  0  0  0
    8.4154  -14.1665   24.9309 C   0  0  0  0  0  0  0  0  0  0  0  0
    8.1481  -15.2246   23.9214 C   0  0  0  0  0  0  0  0  0  0  0  0
    9.3892  -15.9640   23.4358 C   0  0  2  0  0  0  0  0  0  0  0  0
    8.8905  -16.8970   22.4391 N   0  0  0  0  0  0  0  0  0  0  0  0
   10.0203  -16.6365   24.5835 C   0  0  0  0  0  0  0  0  0  0  0  0
    9.8463  -17.8169   24.9091 O   0  0  0  0  0  0  0  0  0  0  0  0
   10.8947  -15.8568   25.3685 O   0  0  0  0  0  0  0  0  0  0  0  0
  1  2  1  0
  2  3  2  0
  4  5  1  0
  4  2  1  0
  5  6  1  6
  7  5  1  0
  7  8  2  0
  9  7  1  0
 10  9  1  0
 11 12  1  0
 10 11  1  6
 12 13  1  0
 13 14  1  0
 14 15  1  0
 16 17  2  0
 16 10  1  0
 18 19  1  0
 19 20  2  0
 21 19  1  0
 21 22  1  0
 22 23  1  0
 23 24  1  0
 25 24  1  1
 25 27  1  0
 25 26  1  0
 26 16  1  0
 27 29  1  0
 28 27  2  0
M  END
$$$$
