NKR.pdb
     RDKit          3D

 29 28  0  0  1  0  0  0  0  0999 V2000
    8.2791  -15.7080   13.8367 N   0  0  0  0  0  0  0  0  0  0  0  0
    7.5532  -16.8490   14.3116 C   0  0  0  0  0  0  0  0  0  0  0  0
    7.4061  -17.8306   13.5323 O   0  0  0  0  0  0  0  0  0  0  0  0
    6.9974  -16.8669   15.6735 C   0  0  0  0  0  0  0  0  0  0  0  0
    8.0134  -17.4502   16.6107 C   0  0  2  0  0  0  0  0  0  0  0  0
    8.4188  -18.7818   16.2231 N   0  0  0  0  0  0  0  0  0  0  0  0
    7.5872  -17.4800   18.0199 C   0  0  0  0  0  0  0  0  0  0  0  0
    7.1625  -16.4259   18.6010 O   0  0  0  0  0  0  0  0  0  0  0  0
    7.6136  -18.6461   18.8211 N   0  0  0  0  0  0  0  0  0  0  0  0
    7.1977  -18.6486   20.2299 C   0  0  1  0  0  0  0  0  0  0  0  0
    7.0092  -20.0550   20.7023 C   0  0  0  0  0  0  0  0  0  0  0  0
    6.6567  -20.2349   22.1444 C   0  0  0  0  0  0  0  0  0  0  0  0
    6.5689  -21.7571   22.3559 C   0  0  0  0  0  0  0  0  0  0  0  0
    6.2762  -22.0815   23.7908 C   0  0  0  0  0  0  0  0  0  0  0  0
    6.2809  -23.5152   23.9699 N   0  0  0  0  0  0  0  0  0  0  0  0
    8.2936  -17.9823   20.9674 C   0  0  0  0  0  0  0  0  0  0  0  0
    9.5131  -18.3285   20.7673 O   0  0  0  0  0  0  0  0  0  0  0  0
    6.8791  -12.7094   19.2914 N   0  0  0  0  0  0  0  0  0  0  0  0
    8.1569  -12.6252   18.6834 C   0  0  0  0  0  0  0  0  0  0  0  0
    8.2511  -12.5562   17.4061 N   0  0  0  0  0  0  0  0  0  0  0  0
    9.3131  -12.6181   19.4900 N   0  0  0  0  0  0  0  0  0  0  0  0
    9.2098  -12.9831   20.8760 C   0  0  0  0  0  0  0  0  0  0  0  0
    9.3250  -14.5189   20.9143 C   0  0  0  0  0  0  0  0  0  0  0  0
    9.2117  -14.9005   22.3467 C   0  0  0  0  0  0  0  0  0  0  0  0
    9.2778  -16.4004   22.6091 C   0  0  2  0  0  0  0  0  0  0  0  0
    8.1200  -16.9424   21.9175 N   0  0  0  0  0  0  0  0  0  0  0  0
    9.2351  -16.6302   24.0627 C   0  0  0  0  0  0  0  0  0  0  0  0
    8.2254  -16.9228   24.7143 O   0  0  0  0  0  0  0  0  0  0  0  0
   10.4556  -16.5030   24.7575 O   0  0  0  0  0  0  0  0  0  0  0  0
  1  2  1  0
  2  3  2  0
  4  5  1  0
  4  2  1  0
  5  6  1  6
  7  5  1  0
  7  8  2  0
  9  7  1  0
 10  9  1  0
 11 12  1  0
 10 11  1  1
 12 13  1  0
 13 14  1  0
 14 15  1  0
 16 17  2  0
 16 10  1  0
 18 19  1  0
 19 20  2  0
 21 19  1  0
 21 22  1  0
 22 23  1  0
 23 24  1  0
 25 24  1  1
 25 27  1  0
 25 26  1  0
 26 16  1  0
 27 29  1  0
 28 27  2  0
M  END
$$$$
