QEY.pdb
     RDKit          3D

 31 31  0  0  1  0  0  0  0  0999 V2000
    9.7636  -12.6511   19.3570 N   0  0  0  0  0  0  0  0  0  0  0  0
    8.3881  -12.4419   19.1791 C   0  0  0  0  0  0  0  0  0  0  0  0
    8.0103  -11.5649   18.3719 O   0  0  0  0  0  0  0  0  0  0  0  0
    7.4292  -13.2404   19.9256 C   0  0  0  0  0  0  0  0  0  0  0  0
    7.9714  -14.1495   20.9767 C   0  0  0  0  0  0  0  0  0  0  0  0
    7.6837  -15.5965   20.7988 C   0  0  2  0  0  0  0  0  0  0  0  0
    6.3310  -15.9675   20.5817 N   0  0  0  0  0  0  0  0  0  0  0  0
    8.3212  -16.3540   21.9168 C   0  0  0  0  0  0  0  0  0  0  0  0
    7.5386  -16.9475   22.7036 O   0  0  0  0  0  0  0  0  0  0  0  0
    9.7041  -16.4467   22.1424 N   0  0  0  0  0  0  0  0  0  0  0  0
   10.2893  -17.2945   23.2056 C   0  0  1  0  0  0  0  0  0  0  0  0
   11.5346  -17.9443   22.7197 C   0  0  0  0  0  0  0  0  0  0  0  0
   11.2963  -18.7065   21.4484 C   0  0  0  0  0  0  0  0  0  0  0  0
   12.5899  -19.3098   21.0201 C   0  0  0  0  0  0  0  0  0  0  0  0
   13.1056  -19.1565   19.8903 O   0  0  0  0  0  0  0  0  0  0  0  0
   10.5337  -16.3967   24.3643 C   0  0  0  0  0  0  0  0  0  0  0  0
   10.5657  -15.1489   24.2556 O   0  0  0  0  0  0  0  0  0  0  0  0
   13.2830  -20.1062   21.9444 O   0  0  0  0  0  0  0  0  0  0  0  0
    6.0727  -11.2126   26.0040 O   0  0  0  0  0  0  0  0  0  0  0  0
    6.7362  -12.4149   26.1842 C   0  0  0  0  0  0  0  0  0  0  0  0
    8.0022  -12.5314   26.6710 C   0  0  0  0  0  0  0  0  0  0  0  0
    8.6656  -13.7232   26.8519 C   0  0  0  0  0  0  0  0  0  0  0  0
    8.0165  -14.9102   26.5205 C   0  0  0  0  0  0  0  0  0  0  0  0
    8.6087  -16.2475   26.6622 C   0  0  0  0  0  0  0  0  0  0  0  0
   10.0878  -16.2908   26.8267 C   0  0  2  0  0  0  0  0  0  0  0  0
   10.7471  -16.8934   25.6802 N   0  0  0  0  0  0  0  0  0  0  0  0
   10.4360  -16.9867   28.0835 C   0  0  0  0  0  0  0  0  0  0  0  0
   10.7403  -16.2919   29.2559 O   0  0  0  0  0  0  0  0  0  0  0  0
    6.7103  -14.8085   26.0170 C   0  0  0  0  0  0  0  0  0  0  0  0
    6.0765  -13.5974   25.8488 C   0  0  0  0  0  0  0  0  0  0  0  0
   10.4776  -18.2321   28.1672 O   0  0  0  0  0  0  0  0  0  0  0  0
  2  1  1  0
  3  2  2  0
  4  2  1  0
  5  4  1  0
  6  7  1  1
  6  5  1  0
  8  6  1  0
  9  8  2  0
 10  8  1  0
 11 10  1  0
 11 12  1  6
 13 12  1  0
 14 13  1  0
 14 15  2  0
 16 26  1  0
 16 11  1  0
 17 16  2  0
 18 14  1  0
 20 21  2  0
 20 19  1  0
 22 21  1  0
 23 22  2  0
 24 23  1  0
 25 24  1  6
 25 26  1  0
 27 28  1  0
 27 25  1  0
 29 23  1  0
 29 30  2  0
 30 20  1  0
 31 27  2  0
M  END
$$$$
