QEY.pdb
     RDKit          3D

 31 31  0  0  1  0  0  0  0  0999 V2000
    8.4227  -12.2613   18.9710 N   0  0  0  0  0  0  0  0  0  0  0  0
    8.7444  -13.6186   19.1180 C   0  0  0  0  0  0  0  0  0  0  0  0
    9.9360  -13.9742   18.9872 O   0  0  0  0  0  0  0  0  0  0  0  0
    7.6999  -14.5843   19.4196 C   0  0  0  0  0  0  0  0  0  0  0  0
    7.5137  -14.9618   20.8507 C   0  0  0  0  0  0  0  0  0  0  0  0
    6.5247  -16.0382   21.1177 C   0  0  2  0  0  0  0  0  0  0  0  0
    5.2010  -15.8346   20.6475 N   0  0  0  0  0  0  0  0  0  0  0  0
    6.5779  -16.3906   22.5679 C   0  0  0  0  0  0  0  0  0  0  0  0
    5.9392  -15.6365   23.3471 O   0  0  0  0  0  0  0  0  0  0  0  0
    7.2764  -17.4830   23.1070 N   0  0  0  0  0  0  0  0  0  0  0  0
    7.1464  -17.9004   24.5214 C   0  0  1  0  0  0  0  0  0  0  0  0
    7.1291  -19.3832   24.6216 C   0  0  0  0  0  0  0  0  0  0  0  0
    6.9220  -19.8355   26.0381 C   0  0  0  0  0  0  0  0  0  0  0  0
    7.0134  -21.3226   26.0681 C   0  0  0  0  0  0  0  0  0  0  0  0
    7.2668  -22.0390   25.0739 O   0  0  0  0  0  0  0  0  0  0  0  0
    8.2995  -17.2974   25.2393 C   0  0  0  0  0  0  0  0  0  0  0  0
    9.4180  -17.1319   24.6996 O   0  0  0  0  0  0  0  0  0  0  0  0
    6.8020  -21.9707   27.2946 O   0  0  0  0  0  0  0  0  0  0  0  0
    5.8085  -11.2835   24.9130 O   0  0  0  0  0  0  0  0  0  0  0  0
    6.6121  -12.1681   25.6129 C   0  0  0  0  0  0  0  0  0  0  0  0
    7.9032  -12.4566   25.2914 C   0  0  0  0  0  0  0  0  0  0  0  0
    8.7056  -13.3343   25.9834 C   0  0  0  0  0  0  0  0  0  0  0  0
    8.1825  -13.9877   27.0969 C   0  0  0  0  0  0  0  0  0  0  0  0
    8.9281  -14.9482   27.9218 C   0  0  0  0  0  0  0  0  0  0  0  0
    9.3334  -16.2110   27.2453 C   0  0  2  0  0  0  0  0  0  0  0  0
    8.2118  -16.8643   26.5915 N   0  0  0  0  0  0  0  0  0  0  0  0
   10.0000  -17.1098   28.2111 C   0  0  0  0  0  0  0  0  0  0  0  0
   11.1649  -16.7396   28.8863 O   0  0  0  0  0  0  0  0  0  0  0  0
    6.8525  -13.7019   27.4425 C   0  0  0  0  0  0  0  0  0  0  0  0
    6.0778  -12.8167   26.7263 C   0  0  0  0  0  0  0  0  0  0  0  0
    9.5601  -18.2481   28.4768 O   0  0  0  0  0  0  0  0  0  0  0  0
  2  1  1  0
  3  2  2  0
  4  2  1  0
  5  4  1  0
  6  7  1  1
  6  5  1  0
  8  6  1  0
  9  8  2  0
 10  8  1  0
 11 10  1  0
 11 12  1  6
 13 12  1  0
 14 13  1  0
 14 15  2  0
 16 26  1  0
 16 11  1  0
 17 16  2  0
 18 14  1  0
 20 21  2  0
 20 19  1  0
 22 21  1  0
 23 22  2  0
 24 23  1  0
 25 24  1  1
 25 26  1  0
 27 28  1  0
 27 25  1  0
 29 23  1  0
 29 30  2  0
 30 20  1  0
 31 27  2  0
M  END
$$$$
