QEY.pdb
     RDKit          3D

 31 31  0  0  1  0  0  0  0  0999 V2000
    6.8183  -21.0713   16.2562 N   0  0  0  0  0  0  0  0  0  0  0  0
    7.2806  -20.1902   15.2677 C   0  0  0  0  0  0  0  0  0  0  0  0
    7.1069  -20.4868   14.0654 O   0  0  0  0  0  0  0  0  0  0  0  0
    7.9467  -18.9552   15.6491 C   0  0  0  0  0  0  0  0  0  0  0  0
    7.9465  -18.6004   17.0980 C   0  0  0  0  0  0  0  0  0  0  0  0
    9.1424  -17.8685   17.5903 C   0  0  2  0  0  0  0  0  0  0  0  0
   10.3313  -17.9769   16.8226 N   0  0  0  0  0  0  0  0  0  0  0  0
    9.3494  -18.2008   19.0314 C   0  0  0  0  0  0  0  0  0  0  0  0
    8.7149  -19.1955   19.4694 O   0  0  0  0  0  0  0  0  0  0  0  0
   10.1867  -17.4939   19.9096 N   0  0  0  0  0  0  0  0  0  0  0  0
   10.5011  -17.9687   21.2761 C   0  0  1  0  0  0  0  0  0  0  0  0
   11.8867  -18.5034   21.3299 C   0  0  0  0  0  0  0  0  0  0  0  0
   12.2484  -18.9533   22.7159 C   0  0  0  0  0  0  0  0  0  0  0  0
   13.6495  -19.4600   22.6881 C   0  0  0  0  0  0  0  0  0  0  0  0
   13.9694  -20.6682   22.7511 O   0  0  0  0  0  0  0  0  0  0  0  0
   10.3092  -16.8009   22.1750 C   0  0  0  0  0  0  0  0  0  0  0  0
   11.1859  -15.9198   22.3325 O   0  0  0  0  0  0  0  0  0  0  0  0
   14.6873  -18.5213   22.5836 O   0  0  0  0  0  0  0  0  0  0  0  0
    6.4580  -10.6660   27.3906 O   0  0  0  0  0  0  0  0  0  0  0  0
    6.7371  -11.7781   26.6138 C   0  0  0  0  0  0  0  0  0  0  0  0
    7.2389  -12.9485   27.0950 C   0  0  0  0  0  0  0  0  0  0  0  0
    7.5177  -14.0560   26.3276 C   0  0  0  0  0  0  0  0  0  0  0  0
    7.2778  -14.0008   24.9566 C   0  0  0  0  0  0  0  0  0  0  0  0
    7.5319  -15.1078   24.0244 C   0  0  0  0  0  0  0  0  0  0  0  0
    8.9618  -15.4613   23.8071 C   0  0  2  0  0  0  0  0  0  0  0  0
    9.1131  -16.6020   22.9192 N   0  0  0  0  0  0  0  0  0  0  0  0
    9.6285  -15.6898   25.1064 C   0  0  0  0  0  0  0  0  0  0  0  0
    9.4933  -16.8894   25.8082 O   0  0  0  0  0  0  0  0  0  0  0  0
    6.7603  -12.8013   24.4434 C   0  0  0  0  0  0  0  0  0  0  0  0
    6.4930  -11.7115   25.2418 C   0  0  0  0  0  0  0  0  0  0  0  0
   10.3483  -14.8249   25.6484 O   0  0  0  0  0  0  0  0  0  0  0  0
  2  1  1  0
  3  2  2  0
  4  2  1  0
  5  4  1  0
  6  7  1  6
  6  5  1  0
  8  6  1  0
  9  8  2  0
 10  8  1  0
 11 10  1  0
 11 12  1  6
 13 12  1  0
 14 13  1  0
 14 15  2  0
 16 26  1  0
 16 11  1  0
 17 16  2  0
 18 14  1  0
 20 21  2  0
 20 19  1  0
 22 21  1  0
 23 22  2  0
 24 23  1  0
 25 24  1  1
 25 26  1  0
 27 28  1  0
 27 25  1  0
 29 23  1  0
 29 30  2  0
 30 20  1  0
 31 27  2  0
M  END
$$$$
