QEY.pdb
     RDKit          3D

 31 31  0  0  1  0  0  0  0  0999 V2000
    8.9141  -12.5048   18.6582 N   0  0  0  0  0  0  0  0  0  0  0  0
    8.3203  -13.5069   17.8767 C   0  0  0  0  0  0  0  0  0  0  0  0
    8.1665  -13.3059   16.6522 O   0  0  0  0  0  0  0  0  0  0  0  0
    7.8979  -14.7543   18.4932 C   0  0  0  0  0  0  0  0  0  0  0  0
    8.6322  -15.9917   18.0996 C   0  0  0  0  0  0  0  0  0  0  0  0
    8.1790  -17.2516   18.7441 C   0  0  2  0  0  0  0  0  0  0  0  0
    6.7862  -17.5246   18.7276 N   0  0  0  0  0  0  0  0  0  0  0  0
    8.7699  -17.3304   20.1133 C   0  0  0  0  0  0  0  0  0  0  0  0
    7.9535  -17.3500   21.0709 O   0  0  0  0  0  0  0  0  0  0  0  0
   10.1442  -17.3840   20.3964 N   0  0  0  0  0  0  0  0  0  0  0  0
   10.6755  -17.7205   21.7366 C   0  0  1  0  0  0  0  0  0  0  0  0
   12.1282  -18.0234   21.6540 C   0  0  0  0  0  0  0  0  0  0  0  0
   12.6745  -18.4612   22.9822 C   0  0  0  0  0  0  0  0  0  0  0  0
   13.7672  -19.4433   22.7332 C   0  0  0  0  0  0  0  0  0  0  0  0
   13.7187  -20.6542   23.0453 O   0  0  0  0  0  0  0  0  0  0  0  0
   10.3898  -16.5470   22.6025 C   0  0  0  0  0  0  0  0  0  0  0  0
   10.2517  -15.3889   22.1448 O   0  0  0  0  0  0  0  0  0  0  0  0
   14.9347  -18.9841   22.1047 O   0  0  0  0  0  0  0  0  0  0  0  0
    5.6962  -11.0575   27.1378 O   0  0  0  0  0  0  0  0  0  0  0  0
    6.2993  -12.1118   26.4725 C   0  0  0  0  0  0  0  0  0  0  0  0
    6.0029  -13.4244   26.6789 C   0  0  0  0  0  0  0  0  0  0  0  0
    6.5991  -14.4753   26.0206 C   0  0  0  0  0  0  0  0  0  0  0  0
    7.5798  -14.2027   25.0697 C   0  0  0  0  0  0  0  0  0  0  0  0
    8.2952  -15.2281   24.2978 C   0  0  0  0  0  0  0  0  0  0  0  0
    9.6501  -15.5916   24.7965 C   0  0  2  0  0  0  0  0  0  0  0  0
   10.2515  -16.6585   24.0140 N   0  0  0  0  0  0  0  0  0  0  0  0
    9.5835  -15.9394   26.2316 C   0  0  0  0  0  0  0  0  0  0  0  0
    9.5622  -17.2639   26.6733 O   0  0  0  0  0  0  0  0  0  0  0  0
    7.8979  -12.8544   24.8443 C   0  0  0  0  0  0  0  0  0  0  0  0
    7.2802  -11.8271   25.5223 C   0  0  0  0  0  0  0  0  0  0  0  0
    9.5422  -15.0704   27.1277 O   0  0  0  0  0  0  0  0  0  0  0  0
  2  1  1  0
  3  2  2  0
  4  2  1  0
  5  4  1  0
  6  7  1  1
  6  5  1  0
  8  6  1  0
  9  8  2  0
 10  8  1  0
 11 10  1  0
 11 12  1  6
 13 12  1  0
 14 13  1  0
 14 15  2  0
 16 26  1  0
 16 11  1  0
 17 16  2  0
 18 14  1  0
 20 21  2  0
 20 19  1  0
 22 21  1  0
 23 22  2  0
 24 23  1  0
 25 24  1  6
 25 26  1  0
 27 28  1  0
 27 25  1  0
 29 23  1  0
 29 30  2  0
 30 20  1  0
 31 27  2  0
M  END
$$$$
