QEY.pdb
     RDKit          3D

 31 31  0  0  1  0  0  0  0  0999 V2000
    6.5330  -13.0802   18.2001 N   0  0  0  0  0  0  0  0  0  0  0  0
    7.7315  -13.4557   17.5755 C   0  0  0  0  0  0  0  0  0  0  0  0
    7.8758  -13.2214   16.3557 O   0  0  0  0  0  0  0  0  0  0  0  0
    8.7806  -14.1034   18.3463 C   0  0  0  0  0  0  0  0  0  0  0  0
    8.5019  -14.3694   19.7874 C   0  0  0  0  0  0  0  0  0  0  0  0
    9.5824  -15.0522   20.5453 C   0  0  2  0  0  0  0  0  0  0  0  0
   10.5259  -15.8030   19.7964 N   0  0  0  0  0  0  0  0  0  0  0  0
    8.9674  -15.8365   21.6574 C   0  0  0  0  0  0  0  0  0  0  0  0
    7.8305  -16.3262   21.4300 O   0  0  0  0  0  0  0  0  0  0  0  0
    9.5603  -16.0596   22.9106 N   0  0  0  0  0  0  0  0  0  0  0  0
   10.0874  -17.3791   23.3262 C   0  0  1  0  0  0  0  0  0  0  0  0
   11.1313  -17.8401   22.3740 C   0  0  0  0  0  0  0  0  0  0  0  0
   12.4653  -17.2231   22.6804 C   0  0  0  0  0  0  0  0  0  0  0  0
   13.4734  -17.8154   21.7566 C   0  0  0  0  0  0  0  0  0  0  0  0
   14.5079  -18.4158   22.1244 O   0  0  0  0  0  0  0  0  0  0  0  0
   10.6163  -17.1992   24.7032 C   0  0  0  0  0  0  0  0  0  0  0  0
   11.2581  -18.0937   25.3013 O   0  0  0  0  0  0  0  0  0  0  0  0
   13.2524  -17.6951   20.3761 O   0  0  0  0  0  0  0  0  0  0  0  0
    6.3863  -10.2153   26.1518 O   0  0  0  0  0  0  0  0  0  0  0  0
    6.8592  -11.5168   26.1298 C   0  0  0  0  0  0  0  0  0  0  0  0
    8.1568  -11.8620   25.9045 C   0  0  0  0  0  0  0  0  0  0  0  0
    8.6315  -13.1532   25.8818 C   0  0  0  0  0  0  0  0  0  0  0  0
    7.7400  -14.2006   26.1023 C   0  0  0  0  0  0  0  0  0  0  0  0
    8.1133  -15.6218   26.1035 C   0  0  0  0  0  0  0  0  0  0  0  0
    9.4991  -15.9309   26.5517 C   0  0  2  0  0  0  0  0  0  0  0  0
   10.4310  -15.9954   25.4383 N   0  0  0  0  0  0  0  0  0  0  0  0
    9.5073  -17.1799   27.3423 C   0  0  0  0  0  0  0  0  0  0  0  0
   10.0706  -18.3614   26.8560 O   0  0  0  0  0  0  0  0  0  0  0  0
    6.3981  -13.8626   26.3363 C   0  0  0  0  0  0  0  0  0  0  0  0
    5.9575  -12.5578   26.3519 C   0  0  0  0  0  0  0  0  0  0  0  0
    9.0119  -17.2486   28.4867 O   0  0  0  0  0  0  0  0  0  0  0  0
  2  1  1  0
  3  2  2  0
  4  2  1  0
  5  4  1  0
  6  7  1  6
  6  5  1  0
  8  6  1  0
  9  8  2  0
 10  8  1  0
 11 10  1  0
 11 12  1  6
 13 12  1  0
 14 13  1  0
 14 15  2  0
 16 26  1  0
 16 11  1  0
 17 16  2  0
 18 14  1  0
 20 21  2  0
 20 19  1  0
 22 21  1  0
 23 22  2  0
 24 23  1  0
 25 24  1  6
 25 26  1  0
 27 28  1  0
 27 25  1  0
 29 23  1  0
 29 30  2  0
 30 20  1  0
 31 27  2  0
M  END
$$$$
