QEY.pdb
     RDKit          3D

 31 31  0  0  1  0  0  0  0  0999 V2000
   12.3017  -14.2772   20.6038 N   0  0  0  0  0  0  0  0  0  0  0  0
   12.5856  -13.6276   19.3935 C   0  0  0  0  0  0  0  0  0  0  0  0
   13.7651  -13.6126   18.9785 O   0  0  0  0  0  0  0  0  0  0  0  0
   11.5162  -12.9887   18.6435 C   0  0  0  0  0  0  0  0  0  0  0  0
   10.1520  -13.0140   19.2464 C   0  0  0  0  0  0  0  0  0  0  0  0
    9.2165  -14.0312   18.7003 C   0  0  2  0  0  0  0  0  0  0  0  0
    8.0529  -13.5554   18.0411 N   0  0  0  0  0  0  0  0  0  0  0  0
    8.9114  -15.0271   19.7704 C   0  0  0  0  0  0  0  0  0  0  0  0
    8.0017  -14.7113   20.5808 O   0  0  0  0  0  0  0  0  0  0  0  0
    9.5566  -16.2643   19.9282 N   0  0  0  0  0  0  0  0  0  0  0  0
    9.2358  -17.2029   21.0271 C   0  0  1  0  0  0  0  0  0  0  0  0
    9.7160  -18.5695   20.6943 C   0  0  0  0  0  0  0  0  0  0  0  0
    9.4739  -19.5273   21.8248 C   0  0  0  0  0  0  0  0  0  0  0  0
   10.0175  -20.8575   21.4302 C   0  0  0  0  0  0  0  0  0  0  0  0
    9.3483  -21.7665   20.8901 O   0  0  0  0  0  0  0  0  0  0  0  0
    9.8877  -16.6542   22.2446 C   0  0  0  0  0  0  0  0  0  0  0  0
   11.0639  -16.2225   22.2434 O   0  0  0  0  0  0  0  0  0  0  0  0
   11.3744  -21.1143   21.6787 O   0  0  0  0  0  0  0  0  0  0  0  0
   11.2479  -14.6836   30.8529 O   0  0  0  0  0  0  0  0  0  0  0  0
   10.7024  -14.8678   29.5933 C   0  0  0  0  0  0  0  0  0  0  0  0
   10.5823  -13.8893   28.6544 C   0  0  0  0  0  0  0  0  0  0  0  0
   10.0413  -14.0673   27.4020 C   0  0  0  0  0  0  0  0  0  0  0  0
    9.5758  -15.3306   27.0447 C   0  0  0  0  0  0  0  0  0  0  0  0
    8.9757  -15.6566   25.7436 C   0  0  0  0  0  0  0  0  0  0  0  0
    9.9156  -16.1435   24.6965 C   0  0  2  0  0  0  0  0  0  0  0  0
    9.2188  -16.5797   23.4980 N   0  0  0  0  0  0  0  0  0  0  0  0
   10.7748  -17.2129   25.2469 C   0  0  0  0  0  0  0  0  0  0  0  0
   10.3509  -18.5415   25.3184 O   0  0  0  0  0  0  0  0  0  0  0  0
    9.6919  -16.3514   28.0009 C   0  0  0  0  0  0  0  0  0  0  0  0
   10.2393  -16.1372   29.2463 C   0  0  0  0  0  0  0  0  0  0  0  0
   11.9253  -16.9889   25.6783 O   0  0  0  0  0  0  0  0  0  0  0  0
  2  1  1  0
  3  2  2  0
  4  2  1  0
  5  4  1  0
  6  7  1  1
  6  5  1  0
  8  6  1  0
  9  8  2  0
 10  8  1  0
 11 10  1  0
 11 12  1  6
 13 12  1  0
 14 13  1  0
 14 15  2  0
 16 26  1  0
 16 11  1  0
 17 16  2  0
 18 14  1  0
 20 21  2  0
 20 19  1  0
 22 21  1  0
 23 22  2  0
 24 23  1  0
 25 24  1  1
 25 26  1  0
 27 28  1  0
 27 25  1  0
 29 23  1  0
 29 30  2  0
 30 20  1  0
 31 27  2  0
M  END
$$$$
