QEY.pdb
     RDKit          3D

 31 31  0  0  1  0  0  0  0  0999 V2000
    7.6718  -12.1525   18.6650 N   0  0  0  0  0  0  0  0  0  0  0  0
    7.2485  -13.4129   18.2182 C   0  0  0  0  0  0  0  0  0  0  0  0
    6.8883  -13.5417   17.0277 O   0  0  0  0  0  0  0  0  0  0  0  0
    7.2360  -14.5421   19.1342 C   0  0  0  0  0  0  0  0  0  0  0  0
    7.6700  -14.2853   20.5381 C   0  0  0  0  0  0  0  0  0  0  0  0
    9.1117  -14.5027   20.8249 C   0  0  2  0  0  0  0  0  0  0  0  0
    9.9724  -14.6989   19.7134 N   0  0  0  0  0  0  0  0  0  0  0  0
    9.2401  -15.5761   21.8552 C   0  0  0  0  0  0  0  0  0  0  0  0
    8.1672  -16.1129   22.2355 O   0  0  0  0  0  0  0  0  0  0  0  0
   10.4506  -16.0166   22.4141 N   0  0  0  0  0  0  0  0  0  0  0  0
   10.5303  -17.1434   23.3710 C   0  0  1  0  0  0  0  0  0  0  0  0
   11.7673  -17.9330   23.1356 C   0  0  0  0  0  0  0  0  0  0  0  0
   11.9137  -19.0375   24.1418 C   0  0  0  0  0  0  0  0  0  0  0  0
   13.2088  -19.7289   23.8863 C   0  0  0  0  0  0  0  0  0  0  0  0
   13.4440  -20.4524   22.8928 O   0  0  0  0  0  0  0  0  0  0  0  0
   10.4940  -16.5384   24.7278 C   0  0  0  0  0  0  0  0  0  0  0  0
   11.0497  -15.4477   24.9950 O   0  0  0  0  0  0  0  0  0  0  0  0
   14.2411  -19.5602   24.8218 O   0  0  0  0  0  0  0  0  0  0  0  0
    6.7762  -11.1809   25.4485 O   0  0  0  0  0  0  0  0  0  0  0  0
    7.1578  -12.4151   25.9479 C   0  0  0  0  0  0  0  0  0  0  0  0
    6.5181  -13.5866   25.6799 C   0  0  0  0  0  0  0  0  0  0  0  0
    6.8932  -14.8149   26.1734 C   0  0  0  0  0  0  0  0  0  0  0  0
    8.0044  -14.8919   27.0098 C   0  0  0  0  0  0  0  0  0  0  0  0
    8.5104  -16.1363   27.6052 C   0  0  0  0  0  0  0  0  0  0  0  0
    9.8586  -16.5749   27.1503 C   0  0  2  0  0  0  0  0  0  0  0  0
    9.8228  -17.1569   25.8191 N   0  0  0  0  0  0  0  0  0  0  0  0
   10.4461  -17.5060   28.1366 C   0  0  0  0  0  0  0  0  0  0  0  0
   10.6981  -17.1260   29.4564 O   0  0  0  0  0  0  0  0  0  0  0  0
    8.6760  -13.6933   27.2967 C   0  0  0  0  0  0  0  0  0  0  0  0
    8.2721  -12.4803   26.7847 C   0  0  0  0  0  0  0  0  0  0  0  0
   10.7498  -18.6820   27.8456 O   0  0  0  0  0  0  0  0  0  0  0  0
  2  1  1  0
  3  2  2  0
  4  2  1  0
  5  4  1  0
  6  7  1  6
  6  5  1  0
  8  6  1  0
  9  8  2  0
 10  8  1  0
 11 10  1  0
 11 12  1  6
 13 12  1  0
 14 13  1  0
 14 15  2  0
 16 26  1  0
 16 11  1  0
 17 16  2  0
 18 14  1  0
 20 21  2  0
 20 19  1  0
 22 21  1  0
 23 22  2  0
 24 23  1  0
 25 24  1  1
 25 26  1  0
 27 28  1  0
 27 25  1  0
 29 23  1  0
 29 30  2  0
 30 20  1  0
 31 27  2  0
M  END
$$$$
