QEY.pdb
     RDKit          3D

 31 31  0  0  1  0  0  0  0  0999 V2000
    7.3177  -11.8143   20.2589 N   0  0  0  0  0  0  0  0  0  0  0  0
    8.4794  -12.5787   20.4418 C   0  0  0  0  0  0  0  0  0  0  0  0
    9.5887  -12.0018   20.4369 O   0  0  0  0  0  0  0  0  0  0  0  0
    8.3801  -14.0166   20.6349 C   0  0  0  0  0  0  0  0  0  0  0  0
    7.0096  -14.5996   20.7187 C   0  0  0  0  0  0  0  0  0  0  0  0
    6.9376  -16.0618   20.9739 C   0  0  2  0  0  0  0  0  0  0  0  0
    5.6663  -16.6806   20.8493 N   0  0  0  0  0  0  0  0  0  0  0  0
    7.6005  -16.3547   22.2796 C   0  0  0  0  0  0  0  0  0  0  0  0
    6.8886  -16.2157   23.3081 O   0  0  0  0  0  0  0  0  0  0  0  0
    8.9343  -16.7666   22.4323 N   0  0  0  0  0  0  0  0  0  0  0  0
    9.3988  -17.5740   23.5829 C   0  0  1  0  0  0  0  0  0  0  0  0
   10.4680  -18.5135   23.1550 C   0  0  0  0  0  0  0  0  0  0  0  0
   10.8725  -19.4309   24.2725 C   0  0  0  0  0  0  0  0  0  0  0  0
   11.9748  -20.3043   23.7795 C   0  0  0  0  0  0  0  0  0  0  0  0
   11.8088  -21.3447   23.1042 O   0  0  0  0  0  0  0  0  0  0  0  0
    9.8719  -16.6049   24.6053 C   0  0  0  0  0  0  0  0  0  0  0  0
   10.6952  -15.6973   24.3443 O   0  0  0  0  0  0  0  0  0  0  0  0
   13.2934  -19.9393   24.0907 O   0  0  0  0  0  0  0  0  0  0  0  0
    6.2658  -10.9063   24.9210 O   0  0  0  0  0  0  0  0  0  0  0  0
    6.9843  -11.8844   25.5882 C   0  0  0  0  0  0  0  0  0  0  0  0
    8.3434  -11.9580   25.6171 C   0  0  0  0  0  0  0  0  0  0  0  0
    9.0617  -12.9274   26.2784 C   0  0  0  0  0  0  0  0  0  0  0  0
    8.3717  -13.9162   26.9760 C   0  0  0  0  0  0  0  0  0  0  0  0
    9.0138  -15.0077   27.7213 C   0  0  0  0  0  0  0  0  0  0  0  0
   10.0278  -15.7997   26.9719 C   0  0  2  0  0  0  0  0  0  0  0  0
    9.4201  -16.6403   25.9539 N   0  0  0  0  0  0  0  0  0  0  0  0
   10.8474  -16.5908   27.9139 C   0  0  0  0  0  0  0  0  0  0  0  0
   11.0259  -17.9678   27.7655 O   0  0  0  0  0  0  0  0  0  0  0  0
    6.9697  -13.8554   26.9567 C   0  0  0  0  0  0  0  0  0  0  0  0
    6.2829  -12.8697   26.2835 C   0  0  0  0  0  0  0  0  0  0  0  0
   11.4248  -16.0736   28.8932 O   0  0  0  0  0  0  0  0  0  0  0  0
  2  1  1  0
  3  2  2  0
  4  2  1  0
  5  4  1  0
  6  7  1  1
  6  5  1  0
  8  6  1  0
  9  8  2  0
 10  8  1  0
 11 10  1  0
 11 12  1  6
 13 12  1  0
 14 13  1  0
 14 15  2  0
 16 26  1  0
 16 11  1  0
 17 16  2  0
 18 14  1  0
 20 21  2  0
 20 19  1  0
 22 21  1  0
 23 22  2  0
 24 23  1  0
 25 24  1  1
 25 26  1  0
 27 28  1  0
 27 25  1  0
 29 23  1  0
 29 30  2  0
 30 20  1  0
 31 27  2  0
M  END
$$$$
