QEY.pdb
     RDKit          3D

 31 31  0  0  1  0  0  0  0  0999 V2000
    7.6308  -15.9077   16.0574 N   0  0  0  0  0  0  0  0  0  0  0  0
    7.7101  -14.5689   15.6467 C   0  0  0  0  0  0  0  0  0  0  0  0
    7.6906  -14.3105   14.4234 O   0  0  0  0  0  0  0  0  0  0  0  0
    7.8107  -13.5096   16.6377 C   0  0  0  0  0  0  0  0  0  0  0  0
    7.7487  -13.9113   18.0730 C   0  0  0  0  0  0  0  0  0  0  0  0
    9.0467  -13.9520   18.7953 C   0  0  2  0  0  0  0  0  0  0  0  0
   10.2271  -13.9837   18.0077 N   0  0  0  0  0  0  0  0  0  0  0  0
    8.9970  -15.0454   19.8113 C   0  0  0  0  0  0  0  0  0  0  0  0
    7.9069  -15.1856   20.4243 O   0  0  0  0  0  0  0  0  0  0  0  0
   10.0611  -15.9081   20.1200 N   0  0  0  0  0  0  0  0  0  0  0  0
    9.9474  -17.0001   21.1131 C   0  0  1  0  0  0  0  0  0  0  0  0
   10.9650  -18.0495   20.8440 C   0  0  0  0  0  0  0  0  0  0  0  0
   12.3503  -17.4725   20.7990 C   0  0  0  0  0  0  0  0  0  0  0  0
   13.2884  -18.5510   20.3778 C   0  0  0  0  0  0  0  0  0  0  0  0
   14.1492  -19.0738   21.1205 O   0  0  0  0  0  0  0  0  0  0  0  0
   10.1244  -16.3680   22.4463 C   0  0  0  0  0  0  0  0  0  0  0  0
   11.0300  -15.5353   22.6830 O   0  0  0  0  0  0  0  0  0  0  0  0
   13.2051  -19.0175   19.0570 O   0  0  0  0  0  0  0  0  0  0  0  0
    6.1271  -11.0694   28.1288 O   0  0  0  0  0  0  0  0  0  0  0  0
    6.5946  -11.9463   27.1641 C   0  0  0  0  0  0  0  0  0  0  0  0
    7.7575  -11.7857   26.4746 C   0  0  0  0  0  0  0  0  0  0  0  0
    8.2261  -12.6538   25.5156 C   0  0  0  0  0  0  0  0  0  0  0  0
    7.4748  -13.7863   25.2099 C   0  0  0  0  0  0  0  0  0  0  0  0
    7.8578  -14.7909   24.2084 C   0  0  0  0  0  0  0  0  0  0  0  0
    9.0006  -15.6725   24.5740 C   0  0  2  0  0  0  0  0  0  0  0  0
    9.2744  -16.6647   23.5479 N   0  0  0  0  0  0  0  0  0  0  0  0
    8.7525  -16.3018   25.8882 C   0  0  0  0  0  0  0  0  0  0  0  0
    9.1972  -15.7277   27.0809 O   0  0  0  0  0  0  0  0  0  0  0  0
    6.2728  -13.9675   25.9115 C   0  0  0  0  0  0  0  0  0  0  0  0
    5.8339  -13.0771   26.8660 C   0  0  0  0  0  0  0  0  0  0  0  0
    8.1329  -17.3799   26.0056 O   0  0  0  0  0  0  0  0  0  0  0  0
  2  1  1  0
  3  2  2  0
  4  2  1  0
  5  4  1  0
  6  7  1  6
  6  5  1  0
  8  6  1  0
  9  8  2  0
 10  8  1  0
 11 10  1  0
 11 12  1  6
 13 12  1  0
 14 13  1  0
 14 15  2  0
 16 26  1  0
 16 11  1  0
 17 16  2  0
 18 14  1  0
 20 21  2  0
 20 19  1  0
 22 21  1  0
 23 22  2  0
 24 23  1  0
 25 24  1  6
 25 26  1  0
 27 28  1  0
 27 25  1  0
 29 23  1  0
 29 30  2  0
 30 20  1  0
 31 27  2  0
M  END
$$$$
