QEY.pdb
     RDKit          3D

 31 31  0  0  1  0  0  0  0  0999 V2000
    8.5463  -12.4123   18.0135 N   0  0  0  0  0  0  0  0  0  0  0  0
    8.3347  -12.8750   19.3206 C   0  0  0  0  0  0  0  0  0  0  0  0
    8.2077  -12.0406   20.2432 O   0  0  0  0  0  0  0  0  0  0  0  0
    8.2640  -14.3034   19.5832 C   0  0  0  0  0  0  0  0  0  0  0  0
    8.4026  -15.2188   18.4136 C   0  0  0  0  0  0  0  0  0  0  0  0
    8.1647  -16.6608   18.6824 C   0  0  2  0  0  0  0  0  0  0  0  0
    6.8519  -17.1540   18.4632 N   0  0  0  0  0  0  0  0  0  0  0  0
    8.6889  -16.9890   20.0417 C   0  0  0  0  0  0  0  0  0  0  0  0
    7.8419  -17.0177   20.9721 O   0  0  0  0  0  0  0  0  0  0  0  0
   10.0328  -17.2624   20.3432 N   0  0  0  0  0  0  0  0  0  0  0  0
   10.4824  -17.6970   21.6851 C   0  0  1  0  0  0  0  0  0  0  0  0
   11.9280  -18.0412   21.6579 C   0  0  0  0  0  0  0  0  0  0  0  0
   12.4306  -18.4101   23.0237 C   0  0  0  0  0  0  0  0  0  0  0  0
   13.8817  -18.7304   22.9129 C   0  0  0  0  0  0  0  0  0  0  0  0
   14.7978  -17.8782   22.8940 O   0  0  0  0  0  0  0  0  0  0  0  0
   10.1856  -16.5699   22.6070 C   0  0  0  0  0  0  0  0  0  0  0  0
   10.5988  -15.4049   22.4027 O   0  0  0  0  0  0  0  0  0  0  0  0
   14.2531  -20.0806   22.8238 O   0  0  0  0  0  0  0  0  0  0  0  0
    6.0288  -11.1571   28.2273 O   0  0  0  0  0  0  0  0  0  0  0  0
    6.5054  -12.0712   27.3025 C   0  0  0  0  0  0  0  0  0  0  0  0
    7.6435  -11.9084   26.5734 C   0  0  0  0  0  0  0  0  0  0  0  0
    8.1212  -12.8134   25.6537 C   0  0  0  0  0  0  0  0  0  0  0  0
    7.4067  -13.9889   25.4345 C   0  0  0  0  0  0  0  0  0  0  0  0
    7.8029  -15.0357   24.4824 C   0  0  0  0  0  0  0  0  0  0  0  0
    9.1569  -15.6211   24.6843 C   0  0  2  0  0  0  0  0  0  0  0  0
    9.4086  -16.7364   23.7870 N   0  0  0  0  0  0  0  0  0  0  0  0
    9.3332  -16.0097   26.0995 C   0  0  0  0  0  0  0  0  0  0  0  0
    9.5040  -17.3403   26.4871 O   0  0  0  0  0  0  0  0  0  0  0  0
    6.2305  -14.1731   26.1778 C   0  0  0  0  0  0  0  0  0  0  0  0
    5.7817  -13.2450   27.0910 C   0  0  0  0  0  0  0  0  0  0  0  0
    9.3391  -15.1721   27.0259 O   0  0  0  0  0  0  0  0  0  0  0  0
  2  1  1  0
  3  2  2  0
  4  2  1  0
  5  4  1  0
  6  7  1  1
  6  5  1  0
  8  6  1  0
  9  8  2  0
 10  8  1  0
 11 10  1  0
 11 12  1  6
 13 12  1  0
 14 13  1  0
 14 15  2  0
 16 26  1  0
 16 11  1  0
 17 16  2  0
 18 14  1  0
 20 21  2  0
 20 19  1  0
 22 21  1  0
 23 22  2  0
 24 23  1  0
 25 24  1  1
 25 26  1  0
 27 28  1  0
 27 25  1  0
 29 23  1  0
 29 30  2  0
 30 20  1  0
 31 27  2  0
M  END
$$$$
