QEY.pdb
     RDKit          3D

 31 31  0  0  1  0  0  0  0  0999 V2000
   14.6139  -19.0164   19.7087 N   0  0  0  0  0  0  0  0  0  0  0  0
   14.3768  -17.9513   18.8274 C   0  0  0  0  0  0  0  0  0  0  0  0
   15.0718  -17.8582   17.7921 O   0  0  0  0  0  0  0  0  0  0  0  0
   13.3356  -16.9807   19.1243 C   0  0  0  0  0  0  0  0  0  0  0  0
   12.5568  -17.1799   20.3809 C   0  0  0  0  0  0  0  0  0  0  0  0
   11.0918  -17.3677   20.2172 C   0  0  2  0  0  0  0  0  0  0  0  0
   10.6051  -17.5559   18.8972 N   0  0  0  0  0  0  0  0  0  0  0  0
   10.3828  -16.2748   20.9472 C   0  0  0  0  0  0  0  0  0  0  0  0
   10.9190  -15.8808   22.0154 O   0  0  0  0  0  0  0  0  0  0  0  0
    9.1857  -15.6710   20.5299 N   0  0  0  0  0  0  0  0  0  0  0  0
    8.4630  -14.6709   21.3478 C   0  0  1  0  0  0  0  0  0  0  0  0
    7.3152  -14.1139   20.5854 C   0  0  0  0  0  0  0  0  0  0  0  0
    7.7766  -13.1962   19.4905 C   0  0  0  0  0  0  0  0  0  0  0  0
    7.7977  -13.9685   18.2162 C   0  0  0  0  0  0  0  0  0  0  0  0
    7.3797  -15.1411   18.0893 O   0  0  0  0  0  0  0  0  0  0  0  0
    8.0335  -15.3775   22.5826 C   0  0  0  0  0  0  0  0  0  0  0  0
    8.2454  -16.5981   22.7694 O   0  0  0  0  0  0  0  0  0  0  0  0
    8.3213  -13.3419   17.0751 O   0  0  0  0  0  0  0  0  0  0  0  0
   11.0134  -15.5868   30.5683 O   0  0  0  0  0  0  0  0  0  0  0  0
   10.5620  -15.4037   29.2718 C   0  0  0  0  0  0  0  0  0  0  0  0
   10.4487  -16.3967   28.3474 C   0  0  0  0  0  0  0  0  0  0  0  0
   10.0008  -16.2199   27.0585 C   0  0  0  0  0  0  0  0  0  0  0  0
    9.6305  -14.9422   26.6453 C   0  0  0  0  0  0  0  0  0  0  0  0
    9.1384  -14.6151   25.3000 C   0  0  0  0  0  0  0  0  0  0  0  0
    7.7126  -14.9478   25.0292 C   0  0  2  0  0  0  0  0  0  0  0  0
    7.3520  -14.7144   23.6408 N   0  0  0  0  0  0  0  0  0  0  0  0
    6.8350  -14.1991   25.9535 C   0  0  0  0  0  0  0  0  0  0  0  0
    6.2895  -14.7863   27.0969 O   0  0  0  0  0  0  0  0  0  0  0  0
    9.7411  -13.9064   27.5859 C   0  0  0  0  0  0  0  0  0  0  0  0
   10.1940  -14.1198   28.8689 C   0  0  0  0  0  0  0  0  0  0  0  0
    6.5326  -13.0022   25.7641 O   0  0  0  0  0  0  0  0  0  0  0  0
  2  1  1  0
  3  2  2  0
  4  2  1  0
  5  4  1  0
  6  7  1  6
  6  5  1  0
  8  6  1  0
  9  8  2  0
 10  8  1  0
 11 10  1  0
 11 12  1  6
 13 12  1  0
 14 13  1  0
 14 15  2  0
 16 26  1  0
 16 11  1  0
 17 16  2  0
 18 14  1  0
 20 21  2  0
 20 19  1  0
 22 21  1  0
 23 22  2  0
 24 23  1  0
 25 24  1  6
 25 26  1  0
 27 28  1  0
 27 25  1  0
 29 23  1  0
 29 30  2  0
 30 20  1  0
 31 27  2  0
M  END
$$$$
