QEY.pdb
     RDKit          3D

 31 31  0  0  1  0  0  0  0  0999 V2000
    9.2561  -13.9132   15.6868 N   0  0  0  0  0  0  0  0  0  0  0  0
    7.8893  -13.8325   15.9912 C   0  0  0  0  0  0  0  0  0  0  0  0
    7.0677  -13.7233   15.0549 O   0  0  0  0  0  0  0  0  0  0  0  0
    7.4494  -13.8785   17.3764 C   0  0  0  0  0  0  0  0  0  0  0  0
    8.4685  -14.2428   18.4030 C   0  0  0  0  0  0  0  0  0  0  0  0
    9.0989  -15.5797   18.2503 C   0  0  2  0  0  0  0  0  0  0  0  0
    8.5325  -16.4586   17.2903 N   0  0  0  0  0  0  0  0  0  0  0  0
    9.2346  -16.2040   19.6001 C   0  0  0  0  0  0  0  0  0  0  0  0
    8.2262  -16.1324   20.3497 O   0  0  0  0  0  0  0  0  0  0  0  0
   10.3858  -16.8514   20.0770 N   0  0  0  0  0  0  0  0  0  0  0  0
   10.4612  -17.4702   21.4197 C   0  0  1  0  0  0  0  0  0  0  0  0
   11.7888  -18.1076   21.6197 C   0  0  0  0  0  0  0  0  0  0  0  0
   11.8882  -18.7579   22.9692 C   0  0  0  0  0  0  0  0  0  0  0  0
   13.2371  -19.3807   23.0857 C   0  0  0  0  0  0  0  0  0  0  0  0
   14.2800  -18.7633   23.3971 O   0  0  0  0  0  0  0  0  0  0  0  0
   10.2045  -16.3782   22.3944 C   0  0  0  0  0  0  0  0  0  0  0  0
   10.8756  -15.3203   22.4142 O   0  0  0  0  0  0  0  0  0  0  0  0
   13.3519  -20.7556   22.8299 O   0  0  0  0  0  0  0  0  0  0  0  0
    5.7149  -10.7998   27.6130 O   0  0  0  0  0  0  0  0  0  0  0  0
    6.1886  -11.7224   26.6951 C   0  0  0  0  0  0  0  0  0  0  0  0
    6.9983  -11.4182   25.6438 C   0  0  0  0  0  0  0  0  0  0  0  0
    7.4715  -12.3308   24.7295 C   0  0  0  0  0  0  0  0  0  0  0  0
    7.1106  -13.6691   24.8676 C   0  0  0  0  0  0  0  0  0  0  0  0
    7.5432  -14.7431   23.9630 C   0  0  0  0  0  0  0  0  0  0  0  0
    8.8798  -15.3346   24.2464 C   0  0  2  0  0  0  0  0  0  0  0  0
    9.1755  -16.4584   23.3735 N   0  0  0  0  0  0  0  0  0  0  0  0
    8.9726  -15.7129   25.6723 C   0  0  0  0  0  0  0  0  0  0  0  0
    9.0170  -17.0465   26.0841 O   0  0  0  0  0  0  0  0  0  0  0  0
    6.2761  -14.0005   25.9464 C   0  0  0  0  0  0  0  0  0  0  0  0
    5.8206  -13.0599   26.8433 C   0  0  0  0  0  0  0  0  0  0  0  0
    9.0160  -14.8634   26.5867 O   0  0  0  0  0  0  0  0  0  0  0  0
  2  1  1  0
  3  2  2  0
  4  2  1  0
  5  4  1  0
  6  7  1  6
  6  5  1  0
  8  6  1  0
  9  8  2  0
 10  8  1  0
 11 10  1  0
 11 12  1  1
 13 12  1  0
 14 13  1  0
 14 15  2  0
 16 26  1  0
 16 11  1  0
 17 16  2  0
 18 14  1  0
 20 21  2  0
 20 19  1  0
 22 21  1  0
 23 22  2  0
 24 23  1  0
 25 24  1  6
 25 26  1  0
 27 28  1  0
 27 25  1  0
 29 23  1  0
 29 30  2  0
 30 20  1  0
 31 27  2  0
M  END
$$$$
