QEY.pdb
     RDKit          3D

 31 31  0  0  1  0  0  0  0  0999 V2000
    6.5559  -12.4025   19.0965 N   0  0  0  0  0  0  0  0  0  0  0  0
    6.9961  -13.4963   18.3368 C   0  0  0  0  0  0  0  0  0  0  0  0
    6.3859  -13.7850   17.2842 O   0  0  0  0  0  0  0  0  0  0  0  0
    8.1454  -14.2710   18.7766 C   0  0  0  0  0  0  0  0  0  0  0  0
    8.8370  -13.8187   20.0185 C   0  0  0  0  0  0  0  0  0  0  0  0
   10.0443  -14.5911   20.4107 C   0  0  2  0  0  0  0  0  0  0  0  0
   10.7413  -15.2738   19.3797 N   0  0  0  0  0  0  0  0  0  0  0  0
    9.6951  -15.4772   21.5609 C   0  0  0  0  0  0  0  0  0  0  0  0
    8.4955  -15.8516   21.6301 O   0  0  0  0  0  0  0  0  0  0  0  0
   10.5959  -15.9113   22.5468 N   0  0  0  0  0  0  0  0  0  0  0  0
   10.2807  -16.9999   23.4992 C   0  0  1  0  0  0  0  0  0  0  0  0
   11.1972  -18.1508   23.2881 C   0  0  0  0  0  0  0  0  0  0  0  0
   10.7211  -19.0345   22.1717 C   0  0  0  0  0  0  0  0  0  0  0  0
   11.6581  -20.1880   22.0616 C   0  0  0  0  0  0  0  0  0  0  0  0
   11.4238  -21.2344   21.4167 O   0  0  0  0  0  0  0  0  0  0  0  0
   10.4121  -16.4129   24.8581 C   0  0  0  0  0  0  0  0  0  0  0  0
   11.3001  -15.5783   25.1492 O   0  0  0  0  0  0  0  0  0  0  0  0
   12.8914  -20.1002   22.7252 O   0  0  0  0  0  0  0  0  0  0  0  0
    7.3829  -10.4706   25.7678 O   0  0  0  0  0  0  0  0  0  0  0  0
    7.6067  -11.7428   26.2672 C   0  0  0  0  0  0  0  0  0  0  0  0
    6.6396  -12.6860   26.4361 C   0  0  0  0  0  0  0  0  0  0  0  0
    6.8569  -13.9510   26.9316 C   0  0  0  0  0  0  0  0  0  0  0  0
    8.1510  -14.3174   27.2940 C   0  0  0  0  0  0  0  0  0  0  0  0
    8.5203  -15.6322   27.8363 C   0  0  0  0  0  0  0  0  0  0  0  0
    9.7507  -16.2489   27.2683 C   0  0  2  0  0  0  0  0  0  0  0  0
    9.5354  -16.7578   25.9240 N   0  0  0  0  0  0  0  0  0  0  0  0
   10.2527  -17.3021   28.1758 C   0  0  0  0  0  0  0  0  0  0  0  0
   10.4315  -18.6211   27.7536 O   0  0  0  0  0  0  0  0  0  0  0  0
    9.1606  -13.3569   27.1264 C   0  0  0  0  0  0  0  0  0  0  0  0
    8.9067  -12.0988   26.6269 C   0  0  0  0  0  0  0  0  0  0  0  0
   10.5443  -17.0723   29.3683 O   0  0  0  0  0  0  0  0  0  0  0  0
  2  1  1  0
  3  2  2  0
  4  2  1  0
  5  4  1  0
  6  7  1  6
  6  5  1  0
  8  6  1  0
  9  8  2  0
 10  8  1  0
 11 10  1  0
 11 12  1  1
 13 12  1  0
 14 13  1  0
 14 15  2  0
 16 26  1  0
 16 11  1  0
 17 16  2  0
 18 14  1  0
 20 21  2  0
 20 19  1  0
 22 21  1  0
 23 22  2  0
 24 23  1  0
 25 24  1  1
 25 26  1  0
 27 28  1  0
 27 25  1  0
 29 23  1  0
 29 30  2  0
 30 20  1  0
 31 27  2  0
M  END
$$$$
