FFA.pdb
     RDKit          3D

 28 29  0  0  1  0  0  0  0  0999 V2000
    7.1397  -17.8248   22.0573 N   0  0  0  0  0  0  0  0  0  0  0  0
    7.7500  -16.5663   21.7568 C   0  0  1  0  0  0  0  0  0  0  0  0
    6.7513  -15.4673   21.5071 C   0  0  0  0  0  0  0  0  0  0  0  0
    7.3176  -14.2618   20.9078 C   0  0  0  0  0  0  0  0  0  0  0  0
    7.7101  -14.1749   19.5889 C   0  0  0  0  0  0  0  0  0  0  0  0
    8.2425  -13.0285   19.0420 C   0  0  0  0  0  0  0  0  0  0  0  0
    8.4014  -11.8943   19.8357 C   0  0  0  0  0  0  0  0  0  0  0  0
    8.0155  -11.9589   21.1574 C   0  0  0  0  0  0  0  0  0  0  0  0
    7.4768  -13.1356   21.6906 C   0  0  0  0  0  0  0  0  0  0  0  0
    8.5612  -16.1522   22.9228 C   0  0  0  0  0  0  0  0  0  0  0  0
    9.6717  -15.6097   22.7227 O   0  0  0  0  0  0  0  0  0  0  0  0
    8.1214  -16.3502   24.2490 N   0  0  0  0  0  0  0  0  0  0  0  0
    8.9664  -15.9559   25.3448 C   0  0  1  0  0  0  0  0  0  0  0  0
    8.1044  -15.6858   26.5630 C   0  0  0  0  0  0  0  0  0  0  0  0
    7.5754  -14.2893   26.3972 C   0  0  0  0  0  0  0  0  0  0  0  0
    8.4275  -13.1981   26.3339 C   0  0  0  0  0  0  0  0  0  0  0  0
    7.9348  -11.9126   26.1808 C   0  0  0  0  0  0  0  0  0  0  0  0
    6.5750  -11.6958   26.0880 C   0  0  0  0  0  0  0  0  0  0  0  0
    5.7474  -12.7858   26.1525 C   0  0  0  0  0  0  0  0  0  0  0  0
    6.2160  -14.0784   26.3050 C   0  0  0  0  0  0  0  0  0  0  0  0
   10.0065  -16.9685   25.5945 C   0  0  0  0  0  0  0  0  0  0  0  0
   10.7332  -16.8323   26.6116 O   0  0  0  0  0  0  0  0  0  0  0  0
   11.0025  -20.2839   24.2804 C   0  0  0  0  0  0  0  0  0  0  0  0
   11.2460  -19.0406   25.1193 C   0  0  2  0  0  0  0  0  0  0  0  0
   10.2325  -18.0861   24.7521 N   0  0  0  0  0  0  0  0  0  0  0  0
   12.6134  -18.5199   24.9097 C   0  0  0  0  0  0  0  0  0  0  0  0
   13.5824  -19.1795   25.3244 O   0  0  0  0  0  0  0  0  0  0  0  0
   12.8227  -17.3239   24.2664 O   0  0  0  0  0  0  0  0  0  0  0  0
  2 10  1  0
  2  1  1  1
  3  2  1  0
  3  4  1  0
  4  5  2  0
  4  9  1  0
  5  6  1  0
  6  7  2  0
  8  7  1  0
  9  8  2  0
 10 11  2  0
 12 13  1  0
 12 10  1  0
 13 21  1  0
 14 15  1  0
 13 14  1  1
 15 20  2  0
 16 17  2  0
 16 15  1  0
 17 18  1  0
 18 19  2  0
 20 19  1  0
 21 22  2  0
 24 23  1  6
 24 26  1  0
 25 21  1  0
 25 24  1  0
 26 27  2  0
 26 28  1  0
M  END
$$$$
