FFA.pdb
     RDKit          3D

 28 29  0  0  1  0  0  0  0  0999 V2000
   11.6240  -17.3498   21.6046 N   0  0  0  0  0  0  0  0  0  0  0  0
   10.6719  -16.3007   21.4066 C   0  0  1  0  0  0  0  0  0  0  0  0
    9.5591  -16.6794   20.4654 C   0  0  0  0  0  0  0  0  0  0  0  0
    8.5748  -15.6244   20.2390 C   0  0  0  0  0  0  0  0  0  0  0  0
    7.2325  -15.7558   20.5258 C   0  0  0  0  0  0  0  0  0  0  0  0
    6.3195  -14.7488   20.3049 C   0  0  0  0  0  0  0  0  0  0  0  0
    6.7461  -13.5354   19.7691 C   0  0  0  0  0  0  0  0  0  0  0  0
    8.0839  -13.3821   19.4747 C   0  0  0  0  0  0  0  0  0  0  0  0
    8.9932  -14.4203   19.7082 C   0  0  0  0  0  0  0  0  0  0  0  0
   10.0443  -15.9896   22.7099 C   0  0  0  0  0  0  0  0  0  0  0  0
   10.3712  -16.6641   23.7128 O   0  0  0  0  0  0  0  0  0  0  0  0
    9.0916  -14.9588   22.8550 N   0  0  0  0  0  0  0  0  0  0  0  0
    8.7220  -14.5122   24.1719 C   0  0  1  0  0  0  0  0  0  0  0  0
    7.8312  -13.2909   24.0491 C   0  0  0  0  0  0  0  0  0  0  0  0
    7.5290  -12.8534   25.4544 C   0  0  0  0  0  0  0  0  0  0  0  0
    6.2654  -13.0083   26.0021 C   0  0  0  0  0  0  0  0  0  0  0  0
    5.9920  -12.6033   27.2981 C   0  0  0  0  0  0  0  0  0  0  0  0
    6.9826  -12.0337   28.0721 C   0  0  0  0  0  0  0  0  0  0  0  0
    8.2258  -11.8882   27.5147 C   0  0  0  0  0  0  0  0  0  0  0  0
    8.5225  -12.2849   26.2231 C   0  0  0  0  0  0  0  0  0  0  0  0
    8.0938  -15.6026   24.9374 C   0  0  0  0  0  0  0  0  0  0  0  0
    7.9600  -15.4537   26.1787 O   0  0  0  0  0  0  0  0  0  0  0  0
    6.2028  -18.7055   24.3021 C   0  0  0  0  0  0  0  0  0  0  0  0
    7.0437  -17.8127   25.1990 C   0  0  2  0  0  0  0  0  0  0  0  0
    7.6328  -16.8085   24.3518 N   0  0  0  0  0  0  0  0  0  0  0  0
    8.0590  -18.6010   25.9290 C   0  0  0  0  0  0  0  0  0  0  0  0
    7.6911  -19.5565   26.6344 O   0  0  0  0  0  0  0  0  0  0  0  0
    9.3944  -18.2909   25.8364 O   0  0  0  0  0  0  0  0  0  0  0  0
  2 10  1  0
  2  1  1  1
  3  2  1  0
  3  4  1  0
  4  5  2  0
  4  9  1  0
  5  6  1  0
  6  7  2  0
  8  7  1  0
  9  8  2  0
 10 11  2  0
 12 13  1  0
 12 10  1  0
 13 21  1  0
 14 15  1  0
 13 14  1  6
 15 20  2  0
 16 17  2  0
 16 15  1  0
 17 18  1  0
 18 19  2  0
 20 19  1  0
 21 22  2  0
 24 23  1  6
 24 26  1  0
 25 21  1  0
 25 24  1  0
 26 27  2  0
 26 28  1  0
M  END
$$$$
