FFA.pdb
     RDKit          3D

 28 29  0  0  1  0  0  0  0  0999 V2000
    9.4900  -16.5107   19.3406 N   0  0  0  0  0  0  0  0  0  0  0  0
    8.6978  -17.0731   20.3906 C   0  0  1  0  0  0  0  0  0  0  0  0
    9.1246  -18.4650   20.7752 C   0  0  0  0  0  0  0  0  0  0  0  0
    8.4111  -19.0198   21.9224 C   0  0  0  0  0  0  0  0  0  0  0  0
    8.9345  -19.0715   23.1970 C   0  0  0  0  0  0  0  0  0  0  0  0
    8.2456  -19.5990   24.2665 C   0  0  0  0  0  0  0  0  0  0  0  0
    6.9626  -20.1087   24.0777 C   0  0  0  0  0  0  0  0  0  0  0  0
    6.4197  -20.0670   22.8115 C   0  0  0  0  0  0  0  0  0  0  0  0
    7.1395  -19.5258   21.7399 C   0  0  0  0  0  0  0  0  0  0  0  0
    8.8542  -16.2282   21.5951 C   0  0  0  0  0  0  0  0  0  0  0  0
    9.9932  -15.7971   21.8856 O   0  0  0  0  0  0  0  0  0  0  0  0
    7.7610  -15.8953   22.4232 N   0  0  0  0  0  0  0  0  0  0  0  0
    7.9660  -15.0409   23.5625 C   0  0  1  0  0  0  0  0  0  0  0  0
    6.6671  -14.3292   23.8884 C   0  0  0  0  0  0  0  0  0  0  0  0
    6.9153  -13.5731   25.1629 C   0  0  0  0  0  0  0  0  0  0  0  0
    7.6571  -12.4025   25.1742 C   0  0  0  0  0  0  0  0  0  0  0  0
    7.8830  -11.7092   26.3518 C   0  0  0  0  0  0  0  0  0  0  0  0
    7.3683  -12.1771   27.5438 C   0  0  0  0  0  0  0  0  0  0  0  0
    6.6375  -13.3357   27.5141 C   0  0  0  0  0  0  0  0  0  0  0  0
    6.3987  -14.0452   26.3508 C   0  0  0  0  0  0  0  0  0  0  0  0
    8.4990  -15.8070   24.7021 C   0  0  0  0  0  0  0  0  0  0  0  0
    7.7055  -16.5403   25.3454 O   0  0  0  0  0  0  0  0  0  0  0  0
   11.7543  -17.0689   25.6897 C   0  0  0  0  0  0  0  0  0  0  0  0
   10.3237  -16.7282   26.0723 C   0  0  2  0  0  0  0  0  0  0  0  0
    9.8552  -15.7627   25.1124 N   0  0  0  0  0  0  0  0  0  0  0  0
   10.2525  -16.2242   27.4600 C   0  0  0  0  0  0  0  0  0  0  0  0
   10.6608  -16.9447   28.3874 O   0  0  0  0  0  0  0  0  0  0  0  0
    9.7437  -14.9773   27.7331 O   0  0  0  0  0  0  0  0  0  0  0  0
  2 10  1  0
  2  1  1  6
  3  2  1  0
  3  4  1  0
  4  5  2  0
  4  9  1  0
  5  6  1  0
  6  7  2  0
  8  7  1  0
  9  8  2  0
 10 11  2  0
 12 13  1  0
 12 10  1  0
 13 21  1  0
 14 15  1  0
 13 14  1  1
 15 20  2  0
 16 17  2  0
 16 15  1  0
 17 18  1  0
 18 19  2  0
 20 19  1  0
 21 22  2  0
 24 23  1  6
 24 26  1  0
 25 21  1  0
 25 24  1  0
 26 27  2  0
 26 28  1  0
M  END
$$$$
