FFA.pdb
     RDKit          3D

 28 29  0  0  1  0  0  0  0  0999 V2000
    8.8459  -19.5113   16.3239 N   0  0  0  0  0  0  0  0  0  0  0  0
    8.5050  -19.6657   17.7045 C   0  0  1  0  0  0  0  0  0  0  0  0
    9.3606  -20.6794   18.4171 C   0  0  0  0  0  0  0  0  0  0  0  0
    9.1535  -22.0577   17.9804 C   0  0  0  0  0  0  0  0  0  0  0  0
    8.0220  -22.7904   18.2704 C   0  0  0  0  0  0  0  0  0  0  0  0
    7.8453  -24.0897   17.8495 C   0  0  0  0  0  0  0  0  0  0  0  0
    8.8386  -24.7127   17.0967 C   0  0  0  0  0  0  0  0  0  0  0  0
    9.9784  -23.9987   16.7951 C   0  0  0  0  0  0  0  0  0  0  0  0
   10.1352  -22.6789   17.2343 C   0  0  0  0  0  0  0  0  0  0  0  0
    8.7194  -18.3693   18.3847 C   0  0  0  0  0  0  0  0  0  0  0  0
    9.6407  -17.6227   17.9829 O   0  0  0  0  0  0  0  0  0  0  0  0
    7.9188  -17.9513   19.4690 N   0  0  0  0  0  0  0  0  0  0  0  0
    8.1607  -16.6711   20.0796 C   0  0  1  0  0  0  0  0  0  0  0  0
    6.8366  -16.0682   20.5079 C   0  0  0  0  0  0  0  0  0  0  0  0
    7.1639  -14.7324   21.1128 C   0  0  0  0  0  0  0  0  0  0  0  0
    7.2136  -14.5553   22.4864 C   0  0  0  0  0  0  0  0  0  0  0  0
    7.5159  -13.3217   23.0390 C   0  0  0  0  0  0  0  0  0  0  0  0
    7.7748  -12.2391   22.2232 C   0  0  0  0  0  0  0  0  0  0  0  0
    7.7213  -12.4321   20.8678 C   0  0  0  0  0  0  0  0  0  0  0  0
    7.4217  -13.6542   20.2929 C   0  0  0  0  0  0  0  0  0  0  0  0
    9.1184  -16.7943   21.1919 C   0  0  0  0  0  0  0  0  0  0  0  0
    8.8468  -17.5970   22.1209 O   0  0  0  0  0  0  0  0  0  0  0  0
   12.6094  -15.8108   21.8864 C   0  0  0  0  0  0  0  0  0  0  0  0
   11.2653  -16.3726   22.3183 C   0  0  2  0  0  0  0  0  0  0  0  0
   10.3275  -16.0585   21.2719 N   0  0  0  0  0  0  0  0  0  0  0  0
   10.8562  -15.8199   23.6268 C   0  0  0  0  0  0  0  0  0  0  0  0
   11.5957  -15.9867   24.6123 O   0  0  0  0  0  0  0  0  0  0  0  0
    9.6762  -15.1292   23.7638 O   0  0  0  0  0  0  0  0  0  0  0  0
  2 10  1  0
  2  1  1  6
  3  2  1  0
  3  4  1  0
  4  5  2  0
  4  9  1  0
  5  6  1  0
  6  7  2  0
  8  7  1  0
  9  8  2  0
 10 11  2  0
 12 13  1  0
 12 10  1  0
 13 21  1  0
 14 15  1  0
 13 14  1  1
 15 20  2  0
 16 17  2  0
 16 15  1  0
 17 18  1  0
 18 19  2  0
 20 19  1  0
 21 22  2  0
 24 23  1  6
 24 26  1  0
 25 21  1  0
 25 24  1  0
 26 27  2  0
 26 28  1  0
M  END
$$$$
