FFA.pdb
     RDKit          3D

 28 29  0  0  1  0  0  0  0  0999 V2000
   10.2449  -17.5278   20.1085 N   0  0  0  0  0  0  0  0  0  0  0  0
    9.6741  -16.5750   21.0100 C   0  0  1  0  0  0  0  0  0  0  0  0
    8.2310  -16.2660   20.7110 C   0  0  0  0  0  0  0  0  0  0  0  0
    7.9173  -14.8405   20.6588 C   0  0  0  0  0  0  0  0  0  0  0  0
    7.5534  -14.0961   21.7609 C   0  0  0  0  0  0  0  0  0  0  0  0
    7.2611  -12.7521   21.6912 C   0  0  0  0  0  0  0  0  0  0  0  0
    7.3288  -12.0936   20.4651 C   0  0  0  0  0  0  0  0  0  0  0  0
    7.6906  -12.8185   19.3499 C   0  0  0  0  0  0  0  0  0  0  0  0
    7.9831  -14.1839   19.4459 C   0  0  0  0  0  0  0  0  0  0  0  0
    9.7174  -17.1425   22.3757 C   0  0  0  0  0  0  0  0  0  0  0  0
   10.5787  -18.0119   22.6405 O   0  0  0  0  0  0  0  0  0  0  0  0
    8.8196  -16.7341   23.3850 N   0  0  0  0  0  0  0  0  0  0  0  0
    9.3142  -16.0136   24.5279 C   0  0  1  0  0  0  0  0  0  0  0  0
    8.1472  -15.3684   25.2502 C   0  0  0  0  0  0  0  0  0  0  0  0
    8.7268  -14.7033   26.4664 C   0  0  0  0  0  0  0  0  0  0  0  0
    9.1157  -15.4392   27.5745 C   0  0  0  0  0  0  0  0  0  0  0  0
    9.6495  -14.8212   28.6932 C   0  0  0  0  0  0  0  0  0  0  0  0
    9.8042  -13.4500   28.7227 C   0  0  0  0  0  0  0  0  0  0  0  0
    9.4145  -12.7384   27.6187 C   0  0  0  0  0  0  0  0  0  0  0  0
    8.8790  -13.3331   26.4904 C   0  0  0  0  0  0  0  0  0  0  0  0
   10.1078  -16.8964   25.4000 C   0  0  0  0  0  0  0  0  0  0  0  0
   10.6158  -16.4018   26.4384 O   0  0  0  0  0  0  0  0  0  0  0  0
   10.9330  -20.5050   25.6717 C   0  0  0  0  0  0  0  0  0  0  0  0
   11.0925  -19.0485   26.0743 C   0  0  2  0  0  0  0  0  0  0  0  0
   10.3297  -18.2709   25.1327 N   0  0  0  0  0  0  0  0  0  0  0  0
   12.5184  -18.6600   26.1023 C   0  0  0  0  0  0  0  0  0  0  0  0
   13.2780  -19.2043   26.9225 O   0  0  0  0  0  0  0  0  0  0  0  0
   13.0088  -17.7110   25.2380 O   0  0  0  0  0  0  0  0  0  0  0  0
  2 10  1  0
  2  1  1  6
  3  2  1  0
  3  4  1  0
  4  5  2  0
  4  9  1  0
  5  6  1  0
  6  7  2  0
  8  7  1  0
  9  8  2  0
 10 11  2  0
 12 13  1  0
 12 10  1  0
 13 21  1  0
 14 15  1  0
 13 14  1  1
 15 20  2  0
 16 17  2  0
 16 15  1  0
 17 18  1  0
 18 19  2  0
 20 19  1  0
 21 22  2  0
 24 23  1  6
 24 26  1  0
 25 21  1  0
 25 24  1  0
 26 27  2  0
 26 28  1  0
M  END
$$$$
