FFA.pdb
     RDKit          3D

 28 29  0  0  1  0  0  0  0  0999 V2000
    7.7067  -15.5471   23.1039 N   0  0  0  0  0  0  0  0  0  0  0  0
    8.7138  -16.2912   22.4123 C   0  0  1  0  0  0  0  0  0  0  0  0
    9.0815  -15.6950   21.0793 C   0  0  0  0  0  0  0  0  0  0  0  0
    8.4306  -14.4204   20.7881 C   0  0  0  0  0  0  0  0  0  0  0  0
    9.1091  -13.2884   20.3886 C   0  0  0  0  0  0  0  0  0  0  0  0
    8.4770  -12.0950   20.1187 C   0  0  0  0  0  0  0  0  0  0  0  0
    7.0927  -12.0023   20.2477 C   0  0  0  0  0  0  0  0  0  0  0  0
    6.3942  -13.1220   20.6459 C   0  0  0  0  0  0  0  0  0  0  0  0
    7.0591  -14.3241   20.9146 C   0  0  0  0  0  0  0  0  0  0  0  0
    9.9424  -16.2895   23.2367 C   0  0  0  0  0  0  0  0  0  0  0  0
   10.8456  -17.1162   22.9748 O   0  0  0  0  0  0  0  0  0  0  0  0
   10.1254  -15.3866   24.3057 N   0  0  0  0  0  0  0  0  0  0  0  0
    9.4945  -15.6467   25.5723 C   0  0  1  0  0  0  0  0  0  0  0  0
    7.9893  -15.6393   25.3871 C   0  0  0  0  0  0  0  0  0  0  0  0
    7.5302  -14.2597   25.7660 C   0  0  0  0  0  0  0  0  0  0  0  0
    8.4364  -13.2419   26.0181 C   0  0  0  0  0  0  0  0  0  0  0  0
    8.0081  -11.9718   26.3670 C   0  0  0  0  0  0  0  0  0  0  0  0
    6.6595  -11.6968   26.4701 C   0  0  0  0  0  0  0  0  0  0  0  0
    5.7779  -12.7146   26.2174 C   0  0  0  0  0  0  0  0  0  0  0  0
    6.1818  -13.9906   25.8675 C   0  0  0  0  0  0  0  0  0  0  0  0
    9.9918  -16.9042   26.1564 C   0  0  0  0  0  0  0  0  0  0  0  0
   10.0626  -16.9878   27.4090 O   0  0  0  0  0  0  0  0  0  0  0  0
   11.3536  -20.1645   25.0104 C   0  0  0  0  0  0  0  0  0  0  0  0
   10.7658  -19.2382   26.0618 C   0  0  2  0  0  0  0  0  0  0  0  0
   10.3941  -18.0232   25.3846 N   0  0  0  0  0  0  0  0  0  0  0  0
   11.7298  -19.0010   27.1570 C   0  0  0  0  0  0  0  0  0  0  0  0
   11.5742  -19.5934   28.2391 O   0  0  0  0  0  0  0  0  0  0  0  0
   12.7875  -18.1395   26.9925 O   0  0  0  0  0  0  0  0  0  0  0  0
  2 10  1  0
  2  1  1  1
  3  2  1  0
  3  4  1  0
  4  5  2  0
  4  9  1  0
  5  6  1  0
  6  7  2  0
  8  7  1  0
  9  8  2  0
 10 11  2  0
 12 13  1  0
 12 10  1  0
 13 21  1  0
 14 15  1  0
 13 14  1  6
 15 20  2  0
 16 17  2  0
 16 15  1  0
 17 18  1  0
 18 19  2  0
 20 19  1  0
 21 22  2  0
 24 23  1  6
 24 26  1  0
 25 21  1  0
 25 24  1  0
 26 27  2  0
 26 28  1  0
M  END
$$$$
