FFA.pdb
     RDKit          3D

 28 29  0  0  1  0  0  0  0  0999 V2000
   11.6655  -16.0726   21.7423 N   0  0  0  0  0  0  0  0  0  0  0  0
   10.4330  -15.4812   22.1639 C   0  0  1  0  0  0  0  0  0  0  0  0
    9.2566  -15.8970   21.3208 C   0  0  0  0  0  0  0  0  0  0  0  0
    8.3540  -14.8056   20.9641 C   0  0  0  0  0  0  0  0  0  0  0  0
    7.0214  -14.7685   21.3163 C   0  0  0  0  0  0  0  0  0  0  0  0
    6.1859  -13.7299   20.9701 C   0  0  0  0  0  0  0  0  0  0  0  0
    6.6854  -12.6588   20.2320 C   0  0  0  0  0  0  0  0  0  0  0  0
    8.0150  -12.6751   19.8690 C   0  0  0  0  0  0  0  0  0  0  0  0
    8.8447  -13.7421   20.2327 C   0  0  0  0  0  0  0  0  0  0  0  0
   10.1505  -15.9292   23.5454 C   0  0  0  0  0  0  0  0  0  0  0  0
   11.1094  -16.2546   24.2819 O   0  0  0  0  0  0  0  0  0  0  0  0
    8.8366  -16.0002   24.0555 N   0  0  0  0  0  0  0  0  0  0  0  0
    8.6290  -16.0834   25.4768 C   0  0  1  0  0  0  0  0  0  0  0  0
    7.1941  -15.7060   25.7910 C   0  0  0  0  0  0  0  0  0  0  0  0
    7.1799  -14.2109   25.9391 C   0  0  0  0  0  0  0  0  0  0  0  0
    6.1859  -13.4382   25.3599 C   0  0  0  0  0  0  0  0  0  0  0  0
    6.1773  -12.0602   25.4994 C   0  0  0  0  0  0  0  0  0  0  0  0
    7.1676  -11.4286   26.2242 C   0  0  0  0  0  0  0  0  0  0  0  0
    8.1422  -12.2079   26.7898 C   0  0  0  0  0  0  0  0  0  0  0  0
    8.1717  -13.5853   26.6642 C   0  0  0  0  0  0  0  0  0  0  0  0
    8.9918  -17.4188   25.9816 C   0  0  0  0  0  0  0  0  0  0  0  0
    8.7409  -17.6852   27.1845 O   0  0  0  0  0  0  0  0  0  0  0  0
   10.1675  -20.6665   24.6602 C   0  0  0  0  0  0  0  0  0  0  0  0
    9.9482  -19.6784   25.7935 C   0  0  2  0  0  0  0  0  0  0  0  0
    9.6073  -18.4181   25.1864 N   0  0  0  0  0  0  0  0  0  0  0  0
   11.1468  -19.5842   26.6534 C   0  0  0  0  0  0  0  0  0  0  0  0
   11.7521  -18.5009   26.7316 O   0  0  0  0  0  0  0  0  0  0  0  0
   11.5953  -20.6732   27.3614 O   0  0  0  0  0  0  0  0  0  0  0  0
  2 10  1  0
  2  1  1  6
  3  2  1  0
  3  4  1  0
  4  5  2  0
  4  9  1  0
  5  6  1  0
  6  7  2  0
  8  7  1  0
  9  8  2  0
 10 11  2  0
 12 13  1  0
 12 10  1  0
 13 21  1  0
 14 15  1  0
 13 14  1  6
 15 20  2  0
 16 17  2  0
 16 15  1  0
 17 18  1  0
 18 19  2  0
 20 19  1  0
 21 22  2  0
 24 23  1  6
 24 26  1  0
 25 21  1  0
 25 24  1  0
 26 27  2  0
 26 28  1  0
M  END
$$$$
