FFA.pdb
     RDKit          3D

 28 29  0  0  1  0  0  0  0  0999 V2000
    8.6807  -17.5767   20.8839 N   0  0  0  0  0  0  0  0  0  0  0  0
    9.8419  -16.7482   20.9912 C   0  0  1  0  0  0  0  0  0  0  0  0
    9.9798  -15.7701   19.8545 C   0  0  0  0  0  0  0  0  0  0  0  0
    8.9288  -14.7574   19.7988 C   0  0  0  0  0  0  0  0  0  0  0  0
    7.5868  -15.0529   19.6847 C   0  0  0  0  0  0  0  0  0  0  0  0
    6.6103  -14.0831   19.6335 C   0  0  0  0  0  0  0  0  0  0  0  0
    6.9688  -12.7382   19.6981 C   0  0  0  0  0  0  0  0  0  0  0  0
    8.3051  -12.4200   19.8124 C   0  0  0  0  0  0  0  0  0  0  0  0
    9.2796  -13.4235   19.8625 C   0  0  0  0  0  0  0  0  0  0  0  0
    9.7315  -15.9506   22.2325 C   0  0  0  0  0  0  0  0  0  0  0  0
   10.7202  -15.2809   22.6089 O   0  0  0  0  0  0  0  0  0  0  0  0
    8.5488  -15.9228   23.0019 N   0  0  0  0  0  0  0  0  0  0  0  0
    8.4718  -15.0687   24.1571 C   0  0  1  0  0  0  0  0  0  0  0  0
    7.2211  -14.2163   24.0607 C   0  0  0  0  0  0  0  0  0  0  0  0
    7.1541  -13.4296   25.3391 C   0  0  0  0  0  0  0  0  0  0  0  0
    8.0111  -12.3669   25.5777 C   0  0  0  0  0  0  0  0  0  0  0  0
    7.9452  -11.6448   26.7578 C   0  0  0  0  0  0  0  0  0  0  0  0
    7.0166  -11.9749   27.7239 C   0  0  0  0  0  0  0  0  0  0  0  0
    6.1774  -13.0281   27.4713 C   0  0  0  0  0  0  0  0  0  0  0  0
    6.2244  -13.7638   26.3008 C   0  0  0  0  0  0  0  0  0  0  0  0
    8.5292  -15.8601   25.3981 C   0  0  0  0  0  0  0  0  0  0  0  0
    8.7751  -15.2573   26.4738 O   0  0  0  0  0  0  0  0  0  0  0  0
    7.4365  -19.1535   26.5779 C   0  0  0  0  0  0  0  0  0  0  0  0
    8.3124  -17.9207   26.7257 C   0  0  2  0  0  0  0  0  0  0  0  0
    8.3226  -17.2618   25.4456 N   0  0  0  0  0  0  0  0  0  0  0  0
    9.6697  -18.2872   27.1822 C   0  0  0  0  0  0  0  0  0  0  0  0
    9.8063  -18.8560   28.2794 O   0  0  0  0  0  0  0  0  0  0  0  0
   10.7730  -18.0077   26.4124 O   0  0  0  0  0  0  0  0  0  0  0  0
  2 10  1  0
  2  1  1  6
  3  2  1  0
  3  4  1  0
  4  5  2  0
  4  9  1  0
  5  6  1  0
  6  7  2  0
  8  7  1  0
  9  8  2  0
 10 11  2  0
 12 13  1  0
 12 10  1  0
 13 21  1  0
 14 15  1  0
 13 14  1  6
 15 20  2  0
 16 17  2  0
 16 15  1  0
 17 18  1  0
 18 19  2  0
 20 19  1  0
 21 22  2  0
 24 23  1  6
 24 26  1  0
 25 21  1  0
 25 24  1  0
 26 27  2  0
 26 28  1  0
M  END
$$$$
