FFA.pdb
     RDKit          3D

 28 29  0  0  1  0  0  0  0  0999 V2000
    7.9670  -16.6969   26.1242 N   0  0  0  0  0  0  0  0  0  0  0  0
    7.1174  -16.7389   24.9742 C   0  0  1  0  0  0  0  0  0  0  0  0
    6.1589  -15.5798   24.9021 C   0  0  0  0  0  0  0  0  0  0  0  0
    6.6225  -14.3704   25.5771 C   0  0  0  0  0  0  0  0  0  0  0  0
    5.8767  -13.2147   25.6745 C   0  0  0  0  0  0  0  0  0  0  0  0
    6.3318  -12.0839   26.3154 C   0  0  0  0  0  0  0  0  0  0  0  0
    7.5973  -12.0829   26.8985 C   0  0  0  0  0  0  0  0  0  0  0  0
    8.3602  -13.2277   26.8130 C   0  0  0  0  0  0  0  0  0  0  0  0
    7.8759  -14.3649   26.1563 C   0  0  0  0  0  0  0  0  0  0  0  0
    7.9671  -16.6690   23.7649 C   0  0  0  0  0  0  0  0  0  0  0  0
    7.6401  -17.3383   22.7586 O   0  0  0  0  0  0  0  0  0  0  0  0
    9.1310  -15.8727   23.7129 N   0  0  0  0  0  0  0  0  0  0  0  0
   10.0274  -15.9957   22.5941 C   0  0  1  0  0  0  0  0  0  0  0  0
   10.3394  -14.6130   22.0548 C   0  0  0  0  0  0  0  0  0  0  0  0
    9.0356  -14.0567   21.5567 C   0  0  0  0  0  0  0  0  0  0  0  0
    8.3834  -13.0353   22.2291 C   0  0  0  0  0  0  0  0  0  0  0  0
    7.1817  -12.5258   21.7657 C   0  0  0  0  0  0  0  0  0  0  0  0
    6.6091  -13.0317   20.6163 C   0  0  0  0  0  0  0  0  0  0  0  0
    7.2675  -14.0411   19.9644 C   0  0  0  0  0  0  0  0  0  0  0  0
    8.4682  -14.5659   20.4079 C   0  0  0  0  0  0  0  0  0  0  0  0
   11.2364  -16.7474   22.9722 C   0  0  0  0  0  0  0  0  0  0  0  0
   12.0907  -16.9821   22.0799 O   0  0  0  0  0  0  0  0  0  0  0  0
   13.5813  -17.2094   25.4104 C   0  0  0  0  0  0  0  0  0  0  0  0
   12.6582  -18.0257   24.5214 C   0  0  2  0  0  0  0  0  0  0  0  0
   11.4888  -17.2197   24.2847 N   0  0  0  0  0  0  0  0  0  0  0  0
   12.3310  -19.3238   25.1481 C   0  0  0  0  0  0  0  0  0  0  0  0
   11.1398  -19.6110   25.3591 O   0  0  0  0  0  0  0  0  0  0  0  0
   13.3222  -20.2092   25.4971 O   0  0  0  0  0  0  0  0  0  0  0  0
  2 10  1  0
  2  1  1  1
  3  2  1  0
  3  4  1  0
  4  5  2  0
  4  9  1  0
  5  6  1  0
  6  7  2  0
  8  7  1  0
  9  8  2  0
 10 11  2  0
 12 13  1  0
 12 10  1  0
 13 21  1  0
 14 15  1  0
 13 14  1  1
 15 20  2  0
 16 17  2  0
 16 15  1  0
 17 18  1  0
 18 19  2  0
 20 19  1  0
 21 22  2  0
 24 23  1  1
 24 26  1  0
 25 21  1  0
 25 24  1  0
 26 27  2  0
 26 28  1  0
M  END
$$$$
