FFA.pdb
     RDKit          3D

 28 29  0  0  1  0  0  0  0  0999 V2000
   10.7644  -16.6597   20.3803 N   0  0  0  0  0  0  0  0  0  0  0  0
    9.9225  -15.8927   21.2458 C   0  0  1  0  0  0  0  0  0  0  0  0
    8.4666  -15.9567   20.8667 C   0  0  0  0  0  0  0  0  0  0  0  0
    7.9516  -14.7410   20.2421 C   0  0  0  0  0  0  0  0  0  0  0  0
    7.7598  -14.6008   18.8839 C   0  0  0  0  0  0  0  0  0  0  0  0
    7.2731  -13.4456   18.3136 C   0  0  0  0  0  0  0  0  0  0  0  0
    6.9533  -12.3576   19.1233 C   0  0  0  0  0  0  0  0  0  0  0  0
    7.1372  -12.4758   20.4842 C   0  0  0  0  0  0  0  0  0  0  0  0
    7.6334  -13.6605   21.0406 C   0  0  0  0  0  0  0  0  0  0  0  0
   10.0344  -16.4455   22.6137 C   0  0  0  0  0  0  0  0  0  0  0  0
   10.9302  -17.2870   22.8526 O   0  0  0  0  0  0  0  0  0  0  0  0
    9.1641  -16.0535   23.6531 N   0  0  0  0  0  0  0  0  0  0  0  0
    9.7007  -15.7473   24.9525 C   0  0  1  0  0  0  0  0  0  0  0  0
    8.7049  -14.8907   25.7106 C   0  0  0  0  0  0  0  0  0  0  0  0
    9.3090  -14.6507   27.0653 C   0  0  0  0  0  0  0  0  0  0  0  0
    9.8833  -13.4328   27.3933 C   0  0  0  0  0  0  0  0  0  0  0  0
   10.4388  -13.2166   28.6436 C   0  0  0  0  0  0  0  0  0  0  0  0
   10.4291  -14.2196   29.5915 C   0  0  0  0  0  0  0  0  0  0  0  0
    9.8572  -15.4169   29.2502 C   0  0  0  0  0  0  0  0  0  0  0  0
    9.2965  -15.6563   28.0084 C   0  0  0  0  0  0  0  0  0  0  0  0
   10.0597  -16.9799   25.6745 C   0  0  0  0  0  0  0  0  0  0  0  0
   10.5576  -16.8692   26.8238 O   0  0  0  0  0  0  0  0  0  0  0  0
   10.1491  -20.6394   25.0309 C   0  0  0  0  0  0  0  0  0  0  0  0
   10.3148  -19.4156   25.9161 C   0  0  2  0  0  0  0  0  0  0  0  0
    9.8748  -18.2820   25.1451 N   0  0  0  0  0  0  0  0  0  0  0  0
   11.7139  -19.2781   26.3729 C   0  0  0  0  0  0  0  0  0  0  0  0
   12.0797  -19.8859   27.3940 O   0  0  0  0  0  0  0  0  0  0  0  0
   12.6069  -18.4916   25.6859 O   0  0  0  0  0  0  0  0  0  0  0  0
  2 10  1  0
  2  1  1  6
  3  2  1  0
  3  4  1  0
  4  5  2  0
  4  9  1  0
  5  6  1  0
  6  7  2  0
  8  7  1  0
  9  8  2  0
 10 11  2  0
 12 13  1  0
 12 10  1  0
 13 21  1  0
 14 15  1  0
 13 14  1  1
 15 20  2  0
 16 17  2  0
 16 15  1  0
 17 18  1  0
 18 19  2  0
 20 19  1  0
 21 22  2  0
 24 23  1  6
 24 26  1  0
 25 21  1  0
 25 24  1  0
 26 27  2  0
 26 28  1  0
M  END
$$$$
