FFA.pdb
     RDKit          3D

 28 29  0  0  1  0  0  0  0  0999 V2000
    9.0891  -16.9790   19.0088 N   0  0  0  0  0  0  0  0  0  0  0  0
    8.2296  -17.4316   20.0589 C   0  0  1  0  0  0  0  0  0  0  0  0
    8.4357  -18.8811   20.4110 C   0  0  0  0  0  0  0  0  0  0  0  0
    7.6369  -19.3472   21.5413 C   0  0  0  0  0  0  0  0  0  0  0  0
    6.2615  -19.4425   21.5187 C   0  0  0  0  0  0  0  0  0  0  0  0
    5.5255  -19.8844   22.5956 C   0  0  0  0  0  0  0  0  0  0  0  0
    6.1761  -20.2571   23.7701 C   0  0  0  0  0  0  0  0  0  0  0  0
    7.5510  -20.1697   23.8149 C   0  0  0  0  0  0  0  0  0  0  0  0
    8.2774  -19.7175   22.7071 C   0  0  0  0  0  0  0  0  0  0  0  0
    8.5302  -16.6472   21.2770 C   0  0  0  0  0  0  0  0  0  0  0  0
    9.7237  -16.3736   21.5387 O   0  0  0  0  0  0  0  0  0  0  0  0
    7.5148  -16.2001   22.1491 N   0  0  0  0  0  0  0  0  0  0  0  0
    7.8578  -15.3724   23.2749 C   0  0  1  0  0  0  0  0  0  0  0  0
    6.6912  -14.4560   23.5899 C   0  0  0  0  0  0  0  0  0  0  0  0
    7.0614  -13.7299   24.8522 C   0  0  0  0  0  0  0  0  0  0  0  0
    6.4914  -14.0645   26.0703 C   0  0  0  0  0  0  0  0  0  0  0  0
    6.8362  -13.3920   27.2311 C   0  0  0  0  0  0  0  0  0  0  0  0
    7.7614  -12.3687   27.1930 C   0  0  0  0  0  0  0  0  0  0  0  0
    8.3148  -12.0513   25.9805 C   0  0  0  0  0  0  0  0  0  0  0  0
    7.9863  -12.7084   24.8082 C   0  0  0  0  0  0  0  0  0  0  0  0
    8.2637  -16.1966   24.4262 C   0  0  0  0  0  0  0  0  0  0  0  0
    7.3711  -16.8315   25.0438 O   0  0  0  0  0  0  0  0  0  0  0  0
   11.1578  -17.9986   25.4977 C   0  0  0  0  0  0  0  0  0  0  0  0
    9.9065  -17.2500   25.9253 C   0  0  2  0  0  0  0  0  0  0  0  0
    9.6033  -16.3127   24.8752 N   0  0  0  0  0  0  0  0  0  0  0  0
   10.1059  -16.5881   27.2318 C   0  0  0  0  0  0  0  0  0  0  0  0
    9.3534  -16.8778   28.1783 O   0  0  0  0  0  0  0  0  0  0  0  0
   11.1065  -15.6632   27.4093 O   0  0  0  0  0  0  0  0  0  0  0  0
  2 10  1  0
  2  1  1  6
  3  2  1  0
  3  4  1  0
  4  5  2  0
  4  9  1  0
  5  6  1  0
  6  7  2  0
  8  7  1  0
  9  8  2  0
 10 11  2  0
 12 13  1  0
 12 10  1  0
 13 21  1  0
 14 15  1  0
 13 14  1  1
 15 20  2  0
 16 17  2  0
 16 15  1  0
 17 18  1  0
 18 19  2  0
 20 19  1  0
 21 22  2  0
 24 23  1  6
 24 26  1  0
 25 21  1  0
 25 24  1  0
 26 27  2  0
 26 28  1  0
M  END
$$$$
