FFA.pdb
     RDKit          3D

 28 29  0  0  1  0  0  0  0  0999 V2000
   11.4488  -17.3719   21.3002 N   0  0  0  0  0  0  0  0  0  0  0  0
   10.5147  -16.2920   21.2133 C   0  0  1  0  0  0  0  0  0  0  0  0
    9.3793  -16.5649   20.2626 C   0  0  0  0  0  0  0  0  0  0  0  0
    8.4399  -15.4570   20.1104 C   0  0  0  0  0  0  0  0  0  0  0  0
    7.1193  -15.5141   20.5028 C   0  0  0  0  0  0  0  0  0  0  0  0
    6.2485  -14.4580   20.3507 C   0  0  0  0  0  0  0  0  0  0  0  0
    6.6978  -13.2698   19.7782 C   0  0  0  0  0  0  0  0  0  0  0  0
    8.0146  -13.1906   19.3786 C   0  0  0  0  0  0  0  0  0  0  0  0
    8.8808  -14.2777   19.5436 C   0  0  0  0  0  0  0  0  0  0  0  0
    9.9150  -16.0866   22.5502 C   0  0  0  0  0  0  0  0  0  0  0  0
   10.3244  -16.7814   23.5079 O   0  0  0  0  0  0  0  0  0  0  0  0
    8.8988  -15.1339   22.7765 N   0  0  0  0  0  0  0  0  0  0  0  0
    8.6241  -14.6921   24.1180 C   0  0  1  0  0  0  0  0  0  0  0  0
    7.8433  -13.3932   24.0618 C   0  0  0  0  0  0  0  0  0  0  0  0
    7.6422  -12.9666   25.4884 C   0  0  0  0  0  0  0  0  0  0  0  0
    8.6724  -12.4038   26.2250 C   0  0  0  0  0  0  0  0  0  0  0  0
    8.4819  -12.0121   27.5398 C   0  0  0  0  0  0  0  0  0  0  0  0
    7.2516  -12.1774   28.1431 C   0  0  0  0  0  0  0  0  0  0  0  0
    6.2446  -12.7353   27.4002 C   0  0  0  0  0  0  0  0  0  0  0  0
    6.4110  -13.1341   26.0861 C   0  0  0  0  0  0  0  0  0  0  0  0
    7.9310  -15.7424   24.8834 C   0  0  0  0  0  0  0  0  0  0  0  0
    7.6922  -15.5289   26.0994 O   0  0  0  0  0  0  0  0  0  0  0  0
    6.1192  -18.8974   24.2601 C   0  0  0  0  0  0  0  0  0  0  0  0
    6.8710  -17.9442   25.1739 C   0  0  2  0  0  0  0  0  0  0  0  0
    7.5192  -16.9787   24.3250 N   0  0  0  0  0  0  0  0  0  0  0  0
    7.8288  -18.6758   26.0296 C   0  0  0  0  0  0  0  0  0  0  0  0
    7.4043  -19.5579   26.7963 O   0  0  0  0  0  0  0  0  0  0  0  0
    9.1728  -18.3932   25.9866 O   0  0  0  0  0  0  0  0  0  0  0  0
  2 10  1  0
  2  1  1  1
  3  2  1  0
  3  4  1  0
  4  5  2  0
  4  9  1  0
  5  6  1  0
  6  7  2  0
  8  7  1  0
  9  8  2  0
 10 11  2  0
 12 13  1  0
 12 10  1  0
 13 21  1  0
 14 15  1  0
 13 14  1  6
 15 20  2  0
 16 17  2  0
 16 15  1  0
 17 18  1  0
 18 19  2  0
 20 19  1  0
 21 22  2  0
 24 23  1  6
 24 26  1  0
 25 21  1  0
 25 24  1  0
 26 27  2  0
 26 28  1  0
M  END
$$$$
