FFA.pdb
     RDKit          3D

 28 29  0  0  1  0  0  0  0  0999 V2000
    9.3845  -17.8925   19.2197 N   0  0  0  0  0  0  0  0  0  0  0  0
    8.5120  -18.1113   20.3320 C   0  0  1  0  0  0  0  0  0  0  0  0
    8.5159  -19.5367   20.8175 C   0  0  0  0  0  0  0  0  0  0  0  0
    7.6186  -19.7942   21.9408 C   0  0  0  0  0  0  0  0  0  0  0  0
    8.0518  -20.0145   23.2312 C   0  0  0  0  0  0  0  0  0  0  0  0
    7.1895  -20.2559   24.2775 C   0  0  0  0  0  0  0  0  0  0  0  0
    5.8155  -20.2836   24.0475 C   0  0  0  0  0  0  0  0  0  0  0  0
    5.3603  -20.0659   22.7648 C   0  0  0  0  0  0  0  0  0  0  0  0
    6.2564  -19.8226   21.7174 C   0  0  0  0  0  0  0  0  0  0  0  0
    8.9757  -17.2727   21.4593 C   0  0  0  0  0  0  0  0  0  0  0  0
   10.2061  -17.1053   21.6201 O   0  0  0  0  0  0  0  0  0  0  0  0
    8.0751  -16.6584   22.3554 N   0  0  0  0  0  0  0  0  0  0  0  0
    8.5533  -15.6534   23.2672 C   0  0  1  0  0  0  0  0  0  0  0  0
    7.5327  -14.5348   23.3516 C   0  0  0  0  0  0  0  0  0  0  0  0
    7.5128  -13.8865   21.9963 C   0  0  0  0  0  0  0  0  0  0  0  0
    6.6365  -14.3071   21.0084 C   0  0  0  0  0  0  0  0  0  0  0  0
    6.6220  -13.7061   19.7606 C   0  0  0  0  0  0  0  0  0  0  0  0
    7.4880  -12.6692   19.4783 C   0  0  0  0  0  0  0  0  0  0  0  0
    8.3473  -12.2664   20.4665 C   0  0  0  0  0  0  0  0  0  0  0  0
    8.3801  -12.8511   21.7198 C   0  0  0  0  0  0  0  0  0  0  0  0
    8.8639  -16.2434   24.5806 C   0  0  0  0  0  0  0  0  0  0  0  0
    9.1999  -15.4693   25.5128 O   0  0  0  0  0  0  0  0  0  0  0  0
    8.2401  -19.3011   26.4465 C   0  0  0  0  0  0  0  0  0  0  0  0
    9.1303  -18.1004   26.1731 C   0  0  2  0  0  0  0  0  0  0  0  0
    8.8046  -17.6338   24.8505 N   0  0  0  0  0  0  0  0  0  0  0  0
   10.5581  -18.4579   26.3094 C   0  0  0  0  0  0  0  0  0  0  0  0
   10.9689  -18.9064   27.3938 O   0  0  0  0  0  0  0  0  0  0  0  0
   11.4288  -18.3007   25.2580 O   0  0  0  0  0  0  0  0  0  0  0  0
  2 10  1  0
  2  1  1  6
  3  2  1  0
  3  4  1  0
  4  5  2  0
  4  9  1  0
  5  6  1  0
  6  7  2  0
  8  7  1  0
  9  8  2  0
 10 11  2  0
 12 13  1  0
 12 10  1  0
 13 21  1  0
 14 15  1  0
 13 14  1  1
 15 20  2  0
 16 17  2  0
 16 15  1  0
 17 18  1  0
 18 19  2  0
 20 19  1  0
 21 22  2  0
 24 23  1  6
 24 26  1  0
 25 21  1  0
 25 24  1  0
 26 27  2  0
 26 28  1  0
M  END
$$$$
