FFA.pdb
     RDKit          3D

 28 29  0  0  1  0  0  0  0  0999 V2000
    8.4445  -17.2588   20.4094 N   0  0  0  0  0  0  0  0  0  0  0  0
    9.7221  -16.6821   20.6951 C   0  0  1  0  0  0  0  0  0  0  0  0
   10.0403  -15.4890   19.8334 C   0  0  0  0  0  0  0  0  0  0  0  0
    8.9660  -14.5034   19.7464 C   0  0  0  0  0  0  0  0  0  0  0  0
    7.7593  -14.6270   20.4022 C   0  0  0  0  0  0  0  0  0  0  0  0
    6.7580  -13.6863   20.3074 C   0  0  0  0  0  0  0  0  0  0  0  0
    6.9485  -12.5520   19.5210 C   0  0  0  0  0  0  0  0  0  0  0  0
    8.1475  -12.4080   18.8564 C   0  0  0  0  0  0  0  0  0  0  0  0
    9.1505  -13.3779   18.9683 C   0  0  0  0  0  0  0  0  0  0  0  0
    9.7163  -16.2095   22.0972 C   0  0  0  0  0  0  0  0  0  0  0  0
   10.7947  -15.8352   22.6117 O   0  0  0  0  0  0  0  0  0  0  0  0
    8.5354  -16.1685   22.8686 N   0  0  0  0  0  0  0  0  0  0  0  0
    8.5349  -15.4806   24.1323 C   0  0  1  0  0  0  0  0  0  0  0  0
    7.1726  -14.8522   24.3540 C   0  0  0  0  0  0  0  0  0  0  0  0
    7.2835  -14.0550   25.6228 C   0  0  0  0  0  0  0  0  0  0  0  0
    7.8545  -12.7923   25.6335 C   0  0  0  0  0  0  0  0  0  0  0  0
    7.9544  -12.0614   26.8059 C   0  0  0  0  0  0  0  0  0  0  0  0
    7.4825  -12.5837   27.9930 C   0  0  0  0  0  0  0  0  0  0  0  0
    6.9211  -13.8331   27.9639 C   0  0  0  0  0  0  0  0  0  0  0  0
    6.8104  -14.5817   26.8059 C   0  0  0  0  0  0  0  0  0  0  0  0
    8.9290  -16.3889   25.2228 C   0  0  0  0  0  0  0  0  0  0  0  0
    8.2226  -17.4087   25.4284 O   0  0  0  0  0  0  0  0  0  0  0  0
   11.7325  -17.7577   26.6400 C   0  0  0  0  0  0  0  0  0  0  0  0
   10.3917  -17.1669   27.0425 C   0  0  2  0  0  0  0  0  0  0  0  0
   10.0593  -16.1764   26.0517 N   0  0  0  0  0  0  0  0  0  0  0  0
   10.4503  -16.6018   28.4072 C   0  0  0  0  0  0  0  0  0  0  0  0
   10.2299  -15.3890   28.5701 O   0  0  0  0  0  0  0  0  0  0  0  0
   10.7435  -17.3971   29.4887 O   0  0  0  0  0  0  0  0  0  0  0  0
  2 10  1  0
  2  1  1  6
  3  2  1  0
  3  4  1  0
  4  5  2  0
  4  9  1  0
  5  6  1  0
  6  7  2  0
  8  7  1  0
  9  8  2  0
 10 11  2  0
 12 13  1  0
 12 10  1  0
 13 21  1  0
 14 15  1  0
 13 14  1  1
 15 20  2  0
 16 17  2  0
 16 15  1  0
 17 18  1  0
 18 19  2  0
 20 19  1  0
 21 22  2  0
 24 23  1  6
 24 26  1  0
 25 21  1  0
 25 24  1  0
 26 27  2  0
 26 28  1  0
M  END
$$$$
