LNE.pdb
     RDKit          3D

 26 25  0  0  1  0  0  0  0  0999 V2000
    7.2417  -11.5449   27.5252 C   0  0  0  0  0  0  0  0  0  0  0  0
    6.5371  -12.5727   26.6969 C   0  0  1  0  0  0  0  0  0  0  0  0
    5.7246  -11.8134   25.6386 C   0  0  0  0  0  0  0  0  0  0  0  0
    7.4492  -13.5008   25.9624 C   0  0  0  0  0  0  0  0  0  0  0  0
    6.6404  -14.5324   25.2119 C   0  0  2  0  0  0  0  0  0  0  0  0
    5.6212  -15.0162   26.1221 N   0  0  0  0  0  0  0  0  0  0  0  0
    7.4586  -15.6957   24.8062 C   0  0  0  0  0  0  0  0  0  0  0  0
    7.6145  -16.6682   25.5819 O   0  0  0  0  0  0  0  0  0  0  0  0
    8.8871  -14.4399   21.6023 N   0  0  0  0  0  0  0  0  0  0  0  0
    9.0209  -15.6749   20.9276 C   0  0  0  0  0  0  0  0  0  0  0  0
    9.1760  -15.6194   19.6815 O   0  0  0  0  0  0  0  0  0  0  0  0
    8.9840  -16.9655   21.6233 C   0  0  0  0  0  0  0  0  0  0  0  0
    8.9528  -16.8413   23.1301 C   0  0  2  0  0  0  0  0  0  0  0  0
    8.0978  -15.7437   23.5112 N   0  0  0  0  0  0  0  0  0  0  0  0
   10.3089  -16.7324   23.6766 C   0  0  0  0  0  0  0  0  0  0  0  0
   10.7412  -15.6058   24.0244 O   0  0  0  0  0  0  0  0  0  0  0  0
   11.1521  -17.8530   23.8276 N   0  0  0  0  0  0  0  0  0  0  0  0
   12.4462  -17.8094   24.5101 C   0  0  1  0  0  0  0  0  0  0  0  0
   13.1720  -16.5408   24.1725 C   0  0  0  0  0  0  0  0  0  0  0  0
   13.6814  -16.4903   22.7584 C   0  0  0  0  0  0  0  0  0  0  0  0
   15.0027  -15.7462   22.7229 C   0  0  0  0  0  0  0  0  0  0  0  0
   15.5452  -15.4050   21.6622 O   0  0  0  0  0  0  0  0  0  0  0  0
   12.1780  -17.8677   25.9495 C   0  0  0  0  0  0  0  0  0  0  0  0
   11.0296  -17.7297   26.4153 O   0  0  0  0  0  0  0  0  0  0  0  0
   15.5754  -15.4663   23.9525 O   0  0  0  0  0  0  0  0  0  0  0  0
   13.2104  -18.0826   26.8648 O   0  0  0  0  0  0  0  0  0  0  0  0
  2  1  1  6
  3  2  1  0
  4  5  1  0
  4  2  1  0
  5  6  1  1
  7  5  1  0
  7  8  2  0
  9 10  1  0
 10 11  2  0
 12 10  1  0
 13 12  1  6
 13 14  1  0
 14  7  1  0
 15 17  1  0
 15 13  1  0
 16 15  2  0
 18 17  1  0
 18 19  1  1
 19 20  1  0
 20 21  1  0
 21 22  2  0
 23 18  1  0
 24 23  2  0
 25 21  1  0
 26 23  1  0
M  END
$$$$
