LNE.pdb
     RDKit          3D

 26 25  0  0  1  0  0  0  0  0999 V2000
    7.8260  -11.9678   19.3402 C   0  0  0  0  0  0  0  0  0  0  0  0
    8.2867  -13.2629   19.9312 C   0  0  1  0  0  0  0  0  0  0  0  0
    7.8918  -13.2427   21.4146 C   0  0  0  0  0  0  0  0  0  0  0  0
    7.6523  -14.4739   19.3281 C   0  0  0  0  0  0  0  0  0  0  0  0
    8.3973  -15.7152   19.7587 C   0  0  2  0  0  0  0  0  0  0  0  0
    8.5442  -15.6433   21.1990 N   0  0  0  0  0  0  0  0  0  0  0  0
    9.7563  -15.7796   19.1787 C   0  0  0  0  0  0  0  0  0  0  0  0
    9.9237  -16.1021   17.9789 O   0  0  0  0  0  0  0  0  0  0  0  0
   12.8970  -15.1114   15.7264 N   0  0  0  0  0  0  0  0  0  0  0  0
   12.2082  -15.4699   16.9076 C   0  0  0  0  0  0  0  0  0  0  0  0
   11.5567  -16.5444   16.8729 O   0  0  0  0  0  0  0  0  0  0  0  0
   12.2371  -14.6479   18.1218 C   0  0  0  0  0  0  0  0  0  0  0  0
   12.2463  -15.4553   19.4005 C   0  0  2  0  0  0  0  0  0  0  0  0
   10.9231  -15.4742   19.9746 N   0  0  0  0  0  0  0  0  0  0  0  0
   13.2696  -14.9609   20.3268 C   0  0  0  0  0  0  0  0  0  0  0  0
   14.4436  -14.7961   19.9124 O   0  0  0  0  0  0  0  0  0  0  0  0
   12.9833  -14.6615   21.6750 N   0  0  0  0  0  0  0  0  0  0  0  0
   13.9109  -14.9166   22.7782 C   0  0  1  0  0  0  0  0  0  0  0  0
   13.1735  -15.4627   23.9647 C   0  0  0  0  0  0  0  0  0  0  0  0
   12.4564  -16.7562   23.6916 C   0  0  0  0  0  0  0  0  0  0  0  0
   11.7624  -17.2266   24.9557 C   0  0  0  0  0  0  0  0  0  0  0  0
   10.8625  -16.5731   25.5025 O   0  0  0  0  0  0  0  0  0  0  0  0
   14.8914  -15.8955   22.3009 C   0  0  0  0  0  0  0  0  0  0  0  0
   14.5855  -16.8048   21.5044 O   0  0  0  0  0  0  0  0  0  0  0  0
   12.1935  -18.4379   25.4705 O   0  0  0  0  0  0  0  0  0  0  0  0
   16.2208  -15.8465   22.7250 O   0  0  0  0  0  0  0  0  0  0  0  0
  2  1  1  6
  3  2  1  0
  4  5  1  0
  4  2  1  0
  5  6  1  1
  7  5  1  0
  7  8  2  0
  9 10  1  0
 10 11  2  0
 12 10  1  0
 13 12  1  6
 13 14  1  0
 14  7  1  0
 15 17  1  0
 15 13  1  0
 16 15  2  0
 18 17  1  0
 18 19  1  1
 19 20  1  0
 20 21  1  0
 21 22  2  0
 23 18  1  0
 24 23  2  0
 25 21  1  0
 26 23  1  0
M  END
$$$$
