LNE.pdb
     RDKit          3D

 26 25  0  0  1  0  0  0  0  0999 V2000
    7.2586  -12.0646   27.4225 C   0  0  0  0  0  0  0  0  0  0  0  0
    6.6993  -13.0477   26.4430 C   0  0  1  0  0  0  0  0  0  0  0  0
    6.1832  -12.2397   25.2440 C   0  0  0  0  0  0  0  0  0  0  0  0
    7.6990  -14.0235   25.9126 C   0  0  0  0  0  0  0  0  0  0  0  0
    7.0383  -14.9513   24.9206 C   0  0  2  0  0  0  0  0  0  0  0  0
    6.0267  -15.6953   25.6447 N   0  0  0  0  0  0  0  0  0  0  0  0
    7.9893  -15.9332   24.3559 C   0  0  0  0  0  0  0  0  0  0  0  0
    8.2412  -17.0004   24.9637 O   0  0  0  0  0  0  0  0  0  0  0  0
    7.7713  -16.9715   20.0266 N   0  0  0  0  0  0  0  0  0  0  0  0
    8.7283  -15.9824   20.3494 C   0  0  0  0  0  0  0  0  0  0  0  0
    8.4971  -14.8202   19.9300 O   0  0  0  0  0  0  0  0  0  0  0  0
    9.9349  -16.2729   21.1307 C   0  0  0  0  0  0  0  0  0  0  0  0
    9.6550  -16.5919   22.5822 C   0  0  2  0  0  0  0  0  0  0  0  0
    8.6514  -15.6912   23.0946 N   0  0  0  0  0  0  0  0  0  0  0  0
   10.8917  -16.5853   23.3697 C   0  0  0  0  0  0  0  0  0  0  0  0
   11.2781  -15.5123   23.8954 O   0  0  0  0  0  0  0  0  0  0  0  0
   11.6691  -17.7466   23.5603 N   0  0  0  0  0  0  0  0  0  0  0  0
   12.4640  -18.0034   24.7623 C   0  0  1  0  0  0  0  0  0  0  0  0
   11.5676  -18.2002   25.9488 C   0  0  0  0  0  0  0  0  0  0  0  0
   12.2896  -18.6564   27.1866 C   0  0  0  0  0  0  0  0  0  0  0  0
   11.2852  -18.9042   28.2959 C   0  0  0  0  0  0  0  0  0  0  0  0
   10.9927  -18.0388   29.1334 O   0  0  0  0  0  0  0  0  0  0  0  0
   13.2435  -19.2191   24.5136 C   0  0  0  0  0  0  0  0  0  0  0  0
   14.3700  -19.3981   25.0175 O   0  0  0  0  0  0  0  0  0  0  0  0
   10.7071  -20.1625   28.3220 O   0  0  0  0  0  0  0  0  0  0  0  0
   12.7485  -20.2349   23.6934 O   0  0  0  0  0  0  0  0  0  0  0  0
  2  1  1  1
  3  2  1  0
  4  5  1  0
  4  2  1  0
  5  6  1  1
  7  5  1  0
  7  8  2  0
  9 10  1  0
 10 11  2  0
 12 10  1  0
 13 12  1  6
 13 14  1  0
 14  7  1  0
 15 17  1  0
 15 13  1  0
 16 15  2  0
 18 17  1  0
 18 19  1  1
 19 20  1  0
 20 21  1  0
 21 22  2  0
 23 18  1  0
 24 23  2  0
 25 21  1  0
 26 23  1  0
M  END
$$$$
