LNE.pdb
     RDKit          3D

 26 25  0  0  1  0  0  0  0  0999 V2000
    7.0175  -12.3393   19.1658 C   0  0  0  0  0  0  0  0  0  0  0  0
    7.8311  -13.4646   19.7230 C   0  0  1  0  0  0  0  0  0  0  0  0
    9.3042  -13.0450   19.6197 C   0  0  0  0  0  0  0  0  0  0  0  0
    7.5632  -13.7626   21.1626 C   0  0  0  0  0  0  0  0  0  0  0  0
    8.3772  -14.9566   21.6024 C   0  0  2  0  0  0  0  0  0  0  0  0
    7.9931  -16.0673   20.7540 N   0  0  0  0  0  0  0  0  0  0  0  0
    8.0863  -15.3462   22.9992 C   0  0  0  0  0  0  0  0  0  0  0  0
    7.0226  -14.9836   23.5547 O   0  0  0  0  0  0  0  0  0  0  0  0
    5.7121  -16.8538   24.6740 N   0  0  0  0  0  0  0  0  0  0  0  0
    6.2935  -17.8013   23.8008 C   0  0  0  0  0  0  0  0  0  0  0  0
    5.5320  -18.3144   22.9424 O   0  0  0  0  0  0  0  0  0  0  0  0
    7.7081  -18.1817   23.8732 C   0  0  0  0  0  0  0  0  0  0  0  0
    8.5617  -17.1982   24.6419 C   0  0  2  0  0  0  0  0  0  0  0  0
    9.0150  -16.1517   23.7586 N   0  0  0  0  0  0  0  0  0  0  0  0
    9.6576  -17.8828   25.3347 C   0  0  0  0  0  0  0  0  0  0  0  0
    9.4048  -18.8983   26.0288 O   0  0  0  0  0  0  0  0  0  0  0  0
   10.9944  -17.4408   25.2503 N   0  0  0  0  0  0  0  0  0  0  0  0
   12.1316  -18.1852   25.7935 C   0  0  1  0  0  0  0  0  0  0  0  0
   13.4221  -17.5953   25.3070 C   0  0  0  0  0  0  0  0  0  0  0  0
   13.4239  -17.2644   23.8400 C   0  0  0  0  0  0  0  0  0  0  0  0
   14.7900  -16.7390   23.4416 C   0  0  0  0  0  0  0  0  0  0  0  0
   15.7175  -17.4881   23.1031 O   0  0  0  0  0  0  0  0  0  0  0  0
   12.0534  -18.0894   27.2536 C   0  0  0  0  0  0  0  0  0  0  0  0
   12.7775  -18.7753   28.0020 O   0  0  0  0  0  0  0  0  0  0  0  0
   14.9457  -15.3633   23.4770 O   0  0  0  0  0  0  0  0  0  0  0  0
   11.1547  -17.2161   27.8693 O   0  0  0  0  0  0  0  0  0  0  0  0
  2  1  1  1
  3  2  1  0
  4  5  1  0
  4  2  1  0
  5  6  1  6
  7  5  1  0
  7  8  2  0
  9 10  1  0
 10 11  2  0
 12 10  1  0
 13 12  1  6
 13 14  1  0
 14  7  1  0
 15 17  1  0
 15 13  1  0
 16 15  2  0
 18 17  1  0
 18 19  1  6
 19 20  1  0
 20 21  1  0
 21 22  2  0
 23 18  1  0
 24 23  2  0
 25 21  1  0
 26 23  1  0
M  END
$$$$
