LNE.pdb
     RDKit          3D

 26 25  0  0  1  0  0  0  0  0999 V2000
    6.9370  -12.5066   19.3789 C   0  0  0  0  0  0  0  0  0  0  0  0
    8.1520  -13.3491   19.1493 C   0  0  1  0  0  0  0  0  0  0  0  0
    9.3227  -12.3872   18.9024 C   0  0  0  0  0  0  0  0  0  0  0  0
    8.5322  -14.2088   20.3108 C   0  0  0  0  0  0  0  0  0  0  0  0
    9.7998  -14.9682   19.9975 C   0  0  2  0  0  0  0  0  0  0  0  0
    9.5711  -15.6809   18.7561 N   0  0  0  0  0  0  0  0  0  0  0  0
   10.1173  -15.9752   21.0331 C   0  0  0  0  0  0  0  0  0  0  0  0
   10.2376  -15.6389   22.2348 O   0  0  0  0  0  0  0  0  0  0  0  0
    7.7418  -19.9667   20.1959 N   0  0  0  0  0  0  0  0  0  0  0  0
    8.5169  -19.6424   21.3326 C   0  0  0  0  0  0  0  0  0  0  0  0
    7.8841  -19.3159   22.3685 O   0  0  0  0  0  0  0  0  0  0  0  0
    9.9830  -19.6778   21.3279 C   0  0  0  0  0  0  0  0  0  0  0  0
   10.6225  -18.3560   21.6895 C   0  0  2  0  0  0  0  0  0  0  0  0
   10.2968  -17.3675   20.6906 N   0  0  0  0  0  0  0  0  0  0  0  0
   12.0654  -18.5102   21.8990 C   0  0  0  0  0  0  0  0  0  0  0  0
   12.7709  -18.9910   20.9781 O   0  0  0  0  0  0  0  0  0  0  0  0
   12.6954  -18.1362   23.1043 N   0  0  0  0  0  0  0  0  0  0  0  0
   14.1057  -18.3959   23.3980 C   0  0  1  0  0  0  0  0  0  0  0  0
   14.8779  -17.1103   23.4281 C   0  0  0  0  0  0  0  0  0  0  0  0
   15.8645  -16.9678   22.3021 C   0  0  0  0  0  0  0  0  0  0  0  0
   16.6701  -15.6968   22.4930 C   0  0  0  0  0  0  0  0  0  0  0  0
   17.5054  -15.3083   21.6641 O   0  0  0  0  0  0  0  0  0  0  0  0
   14.1614  -19.0471   24.7095 C   0  0  0  0  0  0  0  0  0  0  0  0
   13.2297  -18.9577   25.5334 O   0  0  0  0  0  0  0  0  0  0  0  0
   16.4187  -14.9872   23.6555 O   0  0  0  0  0  0  0  0  0  0  0  0
   15.2729  -19.8012   25.0908 O   0  0  0  0  0  0  0  0  0  0  0  0
  2  1  1  1
  3  2  1  0
  4  5  1  0
  4  2  1  0
  5  6  1  6
  7  5  1  0
  7  8  2  0
  9 10  1  0
 10 11  2  0
 12 10  1  0
 13 12  1  6
 13 14  1  0
 14  7  1  0
 15 17  1  0
 15 13  1  0
 16 15  2  0
 18 17  1  0
 18 19  1  1
 19 20  1  0
 20 21  1  0
 21 22  2  0
 23 18  1  0
 24 23  2  0
 25 21  1  0
 26 23  1  0
M  END
$$$$
