LNE.pdb
     RDKit          3D

 26 25  0  0  1  0  0  0  0  0999 V2000
    5.9331  -11.2912   26.2809 C   0  0  0  0  0  0  0  0  0  0  0  0
    6.8135  -12.4951   26.4009 C   0  0  1  0  0  0  0  0  0  0  0  0
    7.6045  -12.3418   27.7076 C   0  0  0  0  0  0  0  0  0  0  0  0
    6.0743  -13.7908   26.4889 C   0  0  0  0  0  0  0  0  0  0  0  0
    7.0371  -14.9451   26.3407 C   0  0  2  0  0  0  0  0  0  0  0  0
    8.3649  -14.4260   26.6026 N   0  0  0  0  0  0  0  0  0  0  0  0
    7.0408  -15.4959   24.9680 C   0  0  0  0  0  0  0  0  0  0  0  0
    6.0407  -16.1066   24.5226 O   0  0  0  0  0  0  0  0  0  0  0  0
    7.2223  -15.8759   19.7207 N   0  0  0  0  0  0  0  0  0  0  0  0
    8.4144  -15.4925   20.3765 C   0  0  0  0  0  0  0  0  0  0  0  0
    9.4832  -15.6471   19.7332 O   0  0  0  0  0  0  0  0  0  0  0  0
    8.4287  -14.9413   21.7355 C   0  0  0  0  0  0  0  0  0  0  0  0
    8.2574  -15.9860   22.8153 C   0  0  2  0  0  0  0  0  0  0  0  0
    8.1912  -15.3461   24.1066 N   0  0  0  0  0  0  0  0  0  0  0  0
    9.3068  -17.0063   22.7306 C   0  0  0  0  0  0  0  0  0  0  0  0
    9.5222  -17.5747   21.6317 O   0  0  0  0  0  0  0  0  0  0  0  0
   10.0890  -17.3762   23.8445 N   0  0  0  0  0  0  0  0  0  0  0  0
   11.4629  -17.8710   23.7437 C   0  0  1  0  0  0  0  0  0  0  0  0
   12.3799  -16.7757   23.2860 C   0  0  0  0  0  0  0  0  0  0  0  0
   13.8365  -17.1480   23.3229 C   0  0  0  0  0  0  0  0  0  0  0  0
   14.6716  -15.9706   22.8568 C   0  0  0  0  0  0  0  0  0  0  0  0
   15.4422  -15.3616   23.6126 O   0  0  0  0  0  0  0  0  0  0  0  0
   11.8557  -18.3312   25.0783 C   0  0  0  0  0  0  0  0  0  0  0  0
   12.9126  -18.9624   25.2766 O   0  0  0  0  0  0  0  0  0  0  0  0
   14.5246  -15.6098   21.5278 O   0  0  0  0  0  0  0  0  0  0  0  0
   11.0520  -18.0773   26.1915 O   0  0  0  0  0  0  0  0  0  0  0  0
  2  1  1  1
  3  2  1  0
  4  5  1  0
  4  2  1  0
  5  6  1  6
  7  5  1  0
  7  8  2  0
  9 10  1  0
 10 11  2  0
 12 10  1  0
 13 12  1  6
 13 14  1  0
 14  7  1  0
 15 17  1  0
 15 13  1  0
 16 15  2  0
 18 17  1  0
 18 19  1  1
 19 20  1  0
 20 21  1  0
 21 22  2  0
 23 18  1  0
 24 23  2  0
 25 21  1  0
 26 23  1  0
M  END
$$$$
