LNE.pdb
     RDKit          3D

 26 25  0  0  1  0  0  0  0  0999 V2000
    5.3873  -10.9222   26.1622 C   0  0  0  0  0  0  0  0  0  0  0  0
    6.5976  -11.6922   25.7368 C   0  0  1  0  0  0  0  0  0  0  0  0
    7.5486  -11.7311   26.9413 C   0  0  0  0  0  0  0  0  0  0  0  0
    6.3210  -13.1100   25.3544 C   0  0  0  0  0  0  0  0  0  0  0  0
    7.6206  -13.8505   25.1438 C   0  0  2  0  0  0  0  0  0  0  0  0
    8.4837  -12.9805   24.3697 N   0  0  0  0  0  0  0  0  0  0  0  0
    7.4342  -15.0943   24.3656 C   0  0  0  0  0  0  0  0  0  0  0  0
    6.5191  -15.8995   24.6585 O   0  0  0  0  0  0  0  0  0  0  0  0
    6.7157  -14.7619   20.1914 N   0  0  0  0  0  0  0  0  0  0  0  0
    8.0484  -15.0518   20.5629 C   0  0  0  0  0  0  0  0  0  0  0  0
    8.8754  -14.1102   20.4655 O   0  0  0  0  0  0  0  0  0  0  0  0
    8.4680  -16.3737   21.0397 C   0  0  0  0  0  0  0  0  0  0  0  0
    8.1317  -16.6294   22.4917 C   0  0  2  0  0  0  0  0  0  0  0  0
    8.2972  -15.4144   23.2517 N   0  0  0  0  0  0  0  0  0  0  0  0
    8.9116  -17.7519   23.0221 C   0  0  0  0  0  0  0  0  0  0  0  0
    8.9934  -18.8118   22.3535 O   0  0  0  0  0  0  0  0  0  0  0  0
    9.5780  -17.6858   24.2634 N   0  0  0  0  0  0  0  0  0  0  0  0
   10.2260  -18.8339   24.8993 C   0  0  1  0  0  0  0  0  0  0  0  0
   10.9369  -18.4062   26.1489 C   0  0  0  0  0  0  0  0  0  0  0  0
   11.5927  -19.5372   26.8922 C   0  0  0  0  0  0  0  0  0  0  0  0
   12.3001  -18.9936   28.1189 C   0  0  0  0  0  0  0  0  0  0  0  0
   13.4275  -19.3780   28.4611 O   0  0  0  0  0  0  0  0  0  0  0  0
    9.1727  -19.7992   25.2250 C   0  0  0  0  0  0  0  0  0  0  0  0
    7.9968  -19.4473   25.4444 O   0  0  0  0  0  0  0  0  0  0  0  0
   11.6108  -18.0349   28.8427 O   0  0  0  0  0  0  0  0  0  0  0  0
    9.4493  -21.1656   25.3029 O   0  0  0  0  0  0  0  0  0  0  0  0
  2  1  1  1
  3  2  1  0
  4  5  1  0
  4  2  1  0
  5  6  1  6
  7  5  1  0
  7  8  2  0
  9 10  1  0
 10 11  2  0
 12 10  1  0
 13 12  1  6
 13 14  1  0
 14  7  1  0
 15 17  1  0
 15 13  1  0
 16 15  2  0
 18 17  1  0
 18 19  1  1
 19 20  1  0
 20 21  1  0
 21 22  2  0
 23 18  1  0
 24 23  2  0
 25 21  1  0
 26 23  1  0
M  END
$$$$
