LNE.pdb
     RDKit          3D

 26 25  0  0  1  0  0  0  0  0999 V2000
    6.8597  -11.7095   27.2068 C   0  0  0  0  0  0  0  0  0  0  0  0
    6.3998  -12.7392   26.2235 C   0  0  1  0  0  0  0  0  0  0  0  0
    6.1315  -12.0064   24.9015 C   0  0  0  0  0  0  0  0  0  0  0  0
    7.4062  -13.8052   25.9340 C   0  0  0  0  0  0  0  0  0  0  0  0
    6.8000  -14.8565   25.0347 C   0  0  2  0  0  0  0  0  0  0  0  0
    5.8337  -15.5883   25.8295 N   0  0  0  0  0  0  0  0  0  0  0  0
    7.8062  -15.8293   24.5565 C   0  0  0  0  0  0  0  0  0  0  0  0
    8.0426  -16.8749   25.2066 O   0  0  0  0  0  0  0  0  0  0  0  0
    7.8894  -15.4299   19.8601 N   0  0  0  0  0  0  0  0  0  0  0  0
    8.4684  -16.5049   20.5724 C   0  0  0  0  0  0  0  0  0  0  0  0
    7.8702  -17.6085   20.5065 O   0  0  0  0  0  0  0  0  0  0  0  0
    9.7013  -16.3644   21.3541 C   0  0  0  0  0  0  0  0  0  0  0  0
    9.5023  -16.5593   22.8405 C   0  0  2  0  0  0  0  0  0  0  0  0
    8.5411  -15.6030   23.3332 N   0  0  0  0  0  0  0  0  0  0  0  0
   10.7826  -16.5093   23.5532 C   0  0  0  0  0  0  0  0  0  0  0  0
   11.4933  -15.4777   23.4655 O   0  0  0  0  0  0  0  0  0  0  0  0
   11.2494  -17.5837   24.3389 N   0  0  0  0  0  0  0  0  0  0  0  0
   12.5363  -17.5806   25.0362 C   0  0  1  0  0  0  0  0  0  0  0  0
   12.5032  -18.5295   26.1974 C   0  0  0  0  0  0  0  0  0  0  0  0
   11.3751  -18.2742   27.1585 C   0  0  0  0  0  0  0  0  0  0  0  0
   11.4131  -19.3068   28.2690 C   0  0  0  0  0  0  0  0  0  0  0  0
   10.3915  -19.8674   28.6908 O   0  0  0  0  0  0  0  0  0  0  0  0
   13.5529  -18.0039   24.0694 C   0  0  0  0  0  0  0  0  0  0  0  0
   13.2525  -18.5439   22.9863 O   0  0  0  0  0  0  0  0  0  0  0  0
   12.6639  -19.5918   28.7909 O   0  0  0  0  0  0  0  0  0  0  0  0
   14.9123  -17.8163   24.3273 O   0  0  0  0  0  0  0  0  0  0  0  0
  2  1  1  1
  3  2  1  0
  4  5  1  0
  4  2  1  0
  5  6  1  1
  7  5  1  0
  7  8  2  0
  9 10  1  0
 10 11  2  0
 12 10  1  0
 13 12  1  6
 13 14  1  0
 14  7  1  0
 15 17  1  0
 15 13  1  0
 16 15  2  0
 18 17  1  0
 18 19  1  1
 19 20  1  0
 20 21  1  0
 21 22  2  0
 23 18  1  0
 24 23  2  0
 25 21  1  0
 26 23  1  0
M  END
$$$$
