LNE.pdb
     RDKit          3D

 26 25  0  0  1  0  0  0  0  0999 V2000
    2.4727  -18.6851   19.9036 C   0  0  0  0  0  0  0  0  0  0  0  0
    3.2887  -18.4150   21.1284 C   0  0  1  0  0  0  0  0  0  0  0  0
    2.9090  -19.4837   22.1630 C   0  0  0  0  0  0  0  0  0  0  0  0
    4.7646  -18.5171   20.9184 C   0  0  0  0  0  0  0  0  0  0  0  0
    5.4959  -17.9780   22.1252 C   0  0  2  0  0  0  0  0  0  0  0  0
    4.6298  -16.9915   22.7399 N   0  0  0  0  0  0  0  0  0  0  0  0
    6.7534  -17.2929   21.7554 C   0  0  0  0  0  0  0  0  0  0  0  0
    7.7284  -17.9441   21.3116 O   0  0  0  0  0  0  0  0  0  0  0  0
    6.7226  -12.7366   19.1044 N   0  0  0  0  0  0  0  0  0  0  0  0
    7.5280  -13.7522   19.6684 C   0  0  0  0  0  0  0  0  0  0  0  0
    7.9539  -14.6333   18.8795 O   0  0  0  0  0  0  0  0  0  0  0  0
    7.8626  -13.7967   21.0956 C   0  0  0  0  0  0  0  0  0  0  0  0
    8.1383  -15.1916   21.6105 C   0  0  2  0  0  0  0  0  0  0  0  0
    6.8926  -15.8615   21.8946 N   0  0  0  0  0  0  0  0  0  0  0  0
    9.0495  -15.1575   22.7586 C   0  0  0  0  0  0  0  0  0  0  0  0
    8.9279  -14.2434   23.6110 O   0  0  0  0  0  0  0  0  0  0  0  0
   10.0646  -16.1194   22.9430 N   0  0  0  0  0  0  0  0  0  0  0  0
   11.0306  -16.0799   24.0420 C   0  0  1  0  0  0  0  0  0  0  0  0
   10.8049  -17.2308   24.9771 C   0  0  0  0  0  0  0  0  0  0  0  0
    9.3734  -17.3906   25.4094 C   0  0  0  0  0  0  0  0  0  0  0  0
    9.2643  -18.5523   26.3787 C   0  0  0  0  0  0  0  0  0  0  0  0
   10.2243  -19.2902   26.6426 O   0  0  0  0  0  0  0  0  0  0  0  0
   12.3666  -16.1698   23.4467 C   0  0  0  0  0  0  0  0  0  0  0  0
   12.5387  -16.4651   22.2475 O   0  0  0  0  0  0  0  0  0  0  0  0
    8.0213  -18.7451   26.9582 O   0  0  0  0  0  0  0  0  0  0  0  0
   13.5108  -15.9253   24.2087 O   0  0  0  0  0  0  0  0  0  0  0  0
  2  1  1  6
  3  2  1  0
  4  5  1  0
  4  2  1  0
  5  6  1  6
  7  5  1  0
  7  8  2  0
  9 10  1  0
 10 11  2  0
 12 10  1  0
 13 12  1  1
 13 14  1  0
 14  7  1  0
 15 17  1  0
 15 13  1  0
 16 15  2  0
 18 17  1  0
 18 19  1  1
 19 20  1  0
 20 21  1  0
 21 22  2  0
 23 18  1  0
 24 23  2  0
 25 21  1  0
 26 23  1  0
M  END
$$$$
