LNE.pdb
     RDKit          3D

 26 25  0  0  1  0  0  0  0  0999 V2000
    6.8305  -12.0494   19.2950 C   0  0  0  0  0  0  0  0  0  0  0  0
    7.4384  -13.4001   19.5065 C   0  0  1  0  0  0  0  0  0  0  0  0
    8.7902  -13.4006   18.7788 C   0  0  0  0  0  0  0  0  0  0  0  0
    7.7138  -13.7330   20.9369 C   0  0  0  0  0  0  0  0  0  0  0  0
    8.3100  -15.1171   21.0389 C   0  0  2  0  0  0  0  0  0  0  0  0
    7.4290  -16.0126   20.3156 N   0  0  0  0  0  0  0  0  0  0  0  0
    8.3747  -15.5951   22.4371 C   0  0  0  0  0  0  0  0  0  0  0  0
    8.9748  -14.9279   23.3125 O   0  0  0  0  0  0  0  0  0  0  0  0
    7.8655  -18.6396   26.7075 N   0  0  0  0  0  0  0  0  0  0  0  0
    6.7944  -18.8779   25.8163 C   0  0  0  0  0  0  0  0  0  0  0  0
    5.8972  -19.6629   26.2147 O   0  0  0  0  0  0  0  0  0  0  0  0
    6.7126  -18.2539   24.4916 C   0  0  0  0  0  0  0  0  0  0  0  0
    7.8911  -17.3635   24.1671 C   0  0  2  0  0  0  0  0  0  0  0  0
    7.7514  -16.8377   22.8310 N   0  0  0  0  0  0  0  0  0  0  0  0
    9.1579  -18.0705   24.3789 C   0  0  0  0  0  0  0  0  0  0  0  0
    9.2194  -19.3025   24.1439 O   0  0  0  0  0  0  0  0  0  0  0  0
   10.3183  -17.4144   24.8400 N   0  0  0  0  0  0  0  0  0  0  0  0
   11.6459  -18.0305   24.8596 C   0  0  1  0  0  0  0  0  0  0  0  0
   12.6512  -17.1254   24.2114 C   0  0  0  0  0  0  0  0  0  0  0  0
   14.0687  -17.6159   24.3191 C   0  0  0  0  0  0  0  0  0  0  0  0
   14.9917  -16.6606   23.5867 C   0  0  0  0  0  0  0  0  0  0  0  0
   15.2464  -15.5249   24.0122 O   0  0  0  0  0  0  0  0  0  0  0  0
   11.9995  -18.2510   26.2644 C   0  0  0  0  0  0  0  0  0  0  0  0
   11.3769  -17.7062   27.1974 O   0  0  0  0  0  0  0  0  0  0  0  0
   15.5394  -17.1314   22.4050 O   0  0  0  0  0  0  0  0  0  0  0  0
   13.0594  -19.0894   26.6157 O   0  0  0  0  0  0  0  0  0  0  0  0
  2  1  1  1
  3  2  1  0
  4  5  1  0
  4  2  1  0
  5  6  1  6
  7  5  1  0
  7  8  2  0
  9 10  1  0
 10 11  2  0
 12 10  1  0
 13 12  1  6
 13 14  1  0
 14  7  1  0
 15 17  1  0
 15 13  1  0
 16 15  2  0
 18 17  1  0
 18 19  1  1
 19 20  1  0
 20 21  1  0
 21 22  2  0
 23 18  1  0
 24 23  2  0
 25 21  1  0
 26 23  1  0
M  END
$$$$
