LNE.pdb
     RDKit          3D

 26 25  0  0  1  0  0  0  0  0999 V2000
    8.1447  -12.3267   27.6310 C   0  0  0  0  0  0  0  0  0  0  0  0
    7.1804  -13.0636   26.7559 C   0  0  1  0  0  0  0  0  0  0  0  0
    6.6635  -12.0596   25.7159 C   0  0  0  0  0  0  0  0  0  0  0  0
    7.7835  -14.2024   25.9994 C   0  0  0  0  0  0  0  0  0  0  0  0
    6.7341  -14.8614   25.1357 C   0  0  2  0  0  0  0  0  0  0  0  0
    5.6373  -15.2305   26.0085 N   0  0  0  0  0  0  0  0  0  0  0  0
    7.2314  -16.1019   24.5023 C   0  0  0  0  0  0  0  0  0  0  0  0
    6.9376  -17.2239   24.9783 O   0  0  0  0  0  0  0  0  0  0  0  0
    6.0828  -16.5000   21.3638 N   0  0  0  0  0  0  0  0  0  0  0  0
    7.2634  -16.6032   20.5931 C   0  0  0  0  0  0  0  0  0  0  0  0
    7.1652  -16.3106   19.3746 O   0  0  0  0  0  0  0  0  0  0  0  0
    8.5465  -17.0271   21.1628 C   0  0  0  0  0  0  0  0  0  0  0  0
    8.4997  -17.2590   22.6564 C   0  0  2  0  0  0  0  0  0  0  0  0
    8.0655  -16.0557   23.3232 N   0  0  0  0  0  0  0  0  0  0  0  0
    9.7857  -17.7602   23.1511 C   0  0  0  0  0  0  0  0  0  0  0  0
   10.2452  -18.8328   22.6871 O   0  0  0  0  0  0  0  0  0  0  0  0
   10.5313  -17.0784   24.1353 N   0  0  0  0  0  0  0  0  0  0  0  0
   11.7139  -17.6385   24.7910 C   0  0  1  0  0  0  0  0  0  0  0  0
   12.9253  -16.8110   24.4783 C   0  0  0  0  0  0  0  0  0  0  0  0
   13.1951  -16.6610   23.0065 C   0  0  0  0  0  0  0  0  0  0  0  0
   14.4315  -15.8061   22.8033 C   0  0  0  0  0  0  0  0  0  0  0  0
   15.0399  -15.2821   23.7473 O   0  0  0  0  0  0  0  0  0  0  0  0
   11.4550  -17.6263   26.2333 C   0  0  0  0  0  0  0  0  0  0  0  0
   12.2309  -18.1611   27.0499 O   0  0  0  0  0  0  0  0  0  0  0  0
   14.8475  -15.6415   21.4926 O   0  0  0  0  0  0  0  0  0  0  0  0
   10.3163  -17.0082   26.7538 O   0  0  0  0  0  0  0  0  0  0  0  0
  2  1  1  1
  3  2  1  0
  4  5  1  0
  4  2  1  0
  5  6  1  1
  7  5  1  0
  7  8  2  0
  9 10  1  0
 10 11  2  0
 12 10  1  0
 13 12  1  6
 13 14  1  0
 14  7  1  0
 15 17  1  0
 15 13  1  0
 16 15  2  0
 18 17  1  0
 18 19  1  1
 19 20  1  0
 20 21  1  0
 21 22  2  0
 23 18  1  0
 24 23  2  0
 25 21  1  0
 26 23  1  0
M  END
$$$$
