RGE.pdb
     RDKit          3D

 25 24  0  0  1  0  0  0  0  0999 V2000
   30.7147  -21.6944   -8.9622 N   0  0  0  0  0  0  0  0  0  0  0  0
   31.1953  -22.1456  -10.2294 C   0  0  0  0  0  0  0  0  0  0  0  0
   32.1228  -23.0290  -10.2331 N   0  0  0  0  0  0  0  0  0  0  0  0
   30.6307  -21.6036  -11.3990 N   0  0  0  0  0  0  0  0  0  0  0  0
   29.3624  -20.9393  -11.3790 C   0  0  0  0  0  0  0  0  0  0  0  0
   28.2520  -21.9062  -11.0240 C   0  0  0  0  0  0  0  0  0  0  0  0
   26.9604  -21.1655  -11.1207 C   0  0  0  0  0  0  0  0  0  0  0  0
   26.0736  -21.8069  -12.1299 C   0  0  2  0  0  0  0  0  0  0  0  0
   26.6469  -21.8066  -13.4497 N   0  0  0  0  0  0  0  0  0  0  0  0
   24.7790  -21.0862  -12.1276 C   0  0  0  0  0  0  0  0  0  0  0  0
   24.0854  -20.8788  -11.1073 O   0  0  0  0  0  0  0  0  0  0  0  0
   32.5788  -23.4103  -11.0651 N   0  0  0  0  0  0  0  0  0  0  0  0
   24.2633  -20.5793  -13.3829 C   0  0  0  0  0  0  0  0  0  0  0  0
   22.9896  -19.9156  -13.3472 C   0  0  0  0  0  0  0  0  0  0  0  0
   21.9720  -20.6197  -14.1035 O   0  0  0  0  0  0  0  0  0  0  0  0
   22.3550  -21.4173  -15.0156 N   0  0  0  0  0  0  0  0  0  0  0  0
   20.5980  -20.4745  -13.8909 C   0  0  1  0  0  0  0  0  0  0  0  0
   19.6366  -21.2320  -14.7364 C   0  0  0  0  0  0  0  0  0  0  0  0
   18.5893  -21.8177  -13.8415 C   0  0  0  0  0  0  0  0  0  0  0  0
   19.1009  -22.9906  -13.0843 C   0  0  0  0  0  0  0  0  0  0  0  0
   18.1132  -23.6135  -12.2025 O   0  0  0  0  0  0  0  0  0  0  0  0
   17.0320  -24.0354  -12.7160 C   0  0  0  0  0  0  0  0  0  0  0  0
   19.0692  -20.2426  -15.6841 O   0  0  0  0  0  0  0  0  0  0  0  0
   18.7399  -18.9393  -15.3340 O   0  0  0  0  0  0  0  0  0  0  0  0
   18.2283  -23.7981  -10.8367 O   0  0  0  0  0  0  0  0  0  0  0  0
  1  2  1  0
  2  3  2  0
  4  2  1  0
  5  4  1  0
  6  5  1  0
  6  7  1  0
  7  8  1  0
  8  9  1  6
 10 12  1  0
 10  8  1  0
 11 10  2  0
 13 14  1  0
 13 12  1  0
 14 16  1  0
 15 14  2  0
 16 17  1  0
 17 22  1  0
 18 19  1  0
 17 18  1  6
 20 24  1  0
 20 19  1  0
 21 20  2  0
 22 25  2  0
 22 23  1  0
M  END
$$$$
