RGE.pdb
     RDKit          3D

 25 24  0  0  1  0  0  0  0  0999 V2000
   24.7840  -20.0841  -17.1848 N   0  0  0  0  0  0  0  0  0  0  0  0
   24.1851  -19.4128  -18.2944 C   0  0  0  0  0  0  0  0  0  0  0  0
   24.5397  -19.7756  -19.4705 N   0  0  0  0  0  0  0  0  0  0  0  0
   23.2438  -18.3973  -18.0427 N   0  0  0  0  0  0  0  0  0  0  0  0
   22.6726  -18.2122  -16.7428 C   0  0  0  0  0  0  0  0  0  0  0  0
   21.5635  -19.2128  -16.4930 C   0  0  0  0  0  0  0  0  0  0  0  0
   20.9304  -18.8682  -15.1866 C   0  0  0  0  0  0  0  0  0  0  0  0
   21.6601  -19.5302  -14.0705 C   0  0  2  0  0  0  0  0  0  0  0  0
   22.1743  -20.8235  -14.4360 N   0  0  0  0  0  0  0  0  0  0  0  0
   20.7323  -19.6478  -12.9213 C   0  0  0  0  0  0  0  0  0  0  0  0
   20.1194  -18.6875  -12.4044 O   0  0  0  0  0  0  0  0  0  0  0  0
   24.2342  -19.3423  -20.3449 N   0  0  0  0  0  0  0  0  0  0  0  0
   20.5059  -20.9561  -12.3416 C   0  0  0  0  0  0  0  0  0  0  0  0
   19.6436  -21.0236  -11.1944 C   0  0  0  0  0  0  0  0  0  0  0  0
   19.3531  -22.3868  -10.7941 O   0  0  0  0  0  0  0  0  0  0  0  0
   19.5773  -23.3134  -11.6342 N   0  0  0  0  0  0  0  0  0  0  0  0
   18.8421  -22.7430   -9.5426 C   0  0  1  0  0  0  0  0  0  0  0  0
   18.7443  -24.1792   -9.1673 C   0  0  0  0  0  0  0  0  0  0  0  0
   18.5888  -24.2633   -7.6809 C   0  0  0  0  0  0  0  0  0  0  0  0
   18.5083  -25.6718   -7.2114 C   0  0  0  0  0  0  0  0  0  0  0  0
   18.3951  -25.8155   -5.7596 O   0  0  0  0  0  0  0  0  0  0  0  0
   18.3653  -24.7617   -5.0530 C   0  0  0  0  0  0  0  0  0  0  0  0
   17.5544  -24.7008   -9.8820 O   0  0  0  0  0  0  0  0  0  0  0  0
   17.4568  -25.9955  -10.3759 O   0  0  0  0  0  0  0  0  0  0  0  0
   18.3157  -27.0014   -5.0526 O   0  0  0  0  0  0  0  0  0  0  0  0
  1  2  1  0
  2  3  2  0
  4  2  1  0
  5  4  1  0
  6  5  1  0
  6  7  1  0
  7  8  1  0
  8  9  1  6
 10 12  1  0
 10  8  1  0
 11 10  2  0
 13 14  1  0
 13 12  1  0
 14 16  1  0
 15 14  2  0
 16 17  1  0
 17 22  1  0
 18 19  1  0
 17 18  1  6
 20 24  1  0
 20 19  1  0
 21 20  2  0
 22 25  2  0
 22 23  1  0
M  END
$$$$
