RGE.pdb
     RDKit          3D

 25 24  0  0  1  0  0  0  0  0999 V2000
   31.3836  -21.8632  -10.7676 N   0  0  0  0  0  0  0  0  0  0  0  0
   30.4176  -21.5345   -9.7680 C   0  0  0  0  0  0  0  0  0  0  0  0
   30.8464  -21.2781   -8.5885 N   0  0  0  0  0  0  0  0  0  0  0  0
   29.0566  -21.5077  -10.1253 N   0  0  0  0  0  0  0  0  0  0  0  0
   28.6348  -21.7033  -11.4796 C   0  0  0  0  0  0  0  0  0  0  0  0
   27.5281  -20.7363  -11.8454 C   0  0  0  0  0  0  0  0  0  0  0  0
   26.2481  -21.2960  -11.3212 C   0  0  0  0  0  0  0  0  0  0  0  0
   25.4440  -21.8715  -12.4341 C   0  0  2  0  0  0  0  0  0  0  0  0
   26.2626  -22.4511  -13.4657 N   0  0  0  0  0  0  0  0  0  0  0  0
   24.5944  -20.7934  -12.9919 C   0  0  0  0  0  0  0  0  0  0  0  0
   24.8595  -20.1482  -14.0305 O   0  0  0  0  0  0  0  0  0  0  0  0
   30.2666  -21.0174   -7.7876 N   0  0  0  0  0  0  0  0  0  0  0  0
   23.3684  -20.4471  -12.3022 C   0  0  0  0  0  0  0  0  0  0  0  0
   22.5416  -19.4377  -12.9034 C   0  0  0  0  0  0  0  0  0  0  0  0
   21.8011  -19.9317  -14.0482 O   0  0  0  0  0  0  0  0  0  0  0  0
   21.9507  -21.1515  -14.3712 N   0  0  0  0  0  0  0  0  0  0  0  0
   20.9345  -19.1491  -14.8169 C   0  0  1  0  0  0  0  0  0  0  0  0
   20.1554  -19.7760  -15.9182 C   0  0  0  0  0  0  0  0  0  0  0  0
   18.9312  -18.9474  -16.1539 C   0  0  0  0  0  0  0  0  0  0  0  0
   17.9669  -19.0511  -15.0269 C   0  0  0  0  0  0  0  0  0  0  0  0
   16.6923  -18.3722  -15.2626 O   0  0  0  0  0  0  0  0  0  0  0  0
   15.6429  -19.0804  -15.3520 C   0  0  0  0  0  0  0  0  0  0  0  0
   21.0578  -19.7832  -17.0949 O   0  0  0  0  0  0  0  0  0  0  0  0
   20.9511  -20.6875  -18.1438 O   0  0  0  0  0  0  0  0  0  0  0  0
   16.4978  -17.0102  -15.4035 O   0  0  0  0  0  0  0  0  0  0  0  0
  1  2  1  0
  2  3  2  0
  4  2  1  0
  5  4  1  0
  6  5  1  0
  6  7  1  0
  7  8  1  0
  8  9  1  6
 10 12  1  0
 10  8  1  0
 11 10  2  0
 13 14  1  0
 13 12  1  0
 14 16  1  0
 15 14  2  0
 16 17  1  0
 17 22  1  0
 18 19  1  0
 17 18  1  6
 20 24  1  0
 20 19  1  0
 21 20  2  0
 22 25  2  0
 22 23  1  0
M  END
$$$$
