RGE.pdb
     RDKit          3D

 25 24  0  0  1  0  0  0  0  0999 V2000
   29.3064  -24.1040  -16.7632 N   0  0  0  0  0  0  0  0  0  0  0  0
   29.9258  -23.0169  -17.4524 C   0  0  0  0  0  0  0  0  0  0  0  0
   30.5443  -23.2796  -18.5428 N   0  0  0  0  0  0  0  0  0  0  0  0
   29.8255  -21.7242  -16.9053 N   0  0  0  0  0  0  0  0  0  0  0  0
   28.7677  -21.3721  -16.0067 C   0  0  0  0  0  0  0  0  0  0  0  0
   27.9072  -20.2711  -16.5907 C   0  0  0  0  0  0  0  0  0  0  0  0
   26.8572  -19.9371  -15.5846 C   0  0  0  0  0  0  0  0  0  0  0  0
   26.1686  -21.1757  -15.1287 C   0  0  2  0  0  0  0  0  0  0  0  0
   25.6198  -21.9369  -16.2195 N   0  0  0  0  0  0  0  0  0  0  0  0
   25.0991  -20.7841  -14.1809 C   0  0  0  0  0  0  0  0  0  0  0  0
   24.8106  -19.6028  -13.8870 O   0  0  0  0  0  0  0  0  0  0  0  0
   31.1271  -22.6250  -19.0695 N   0  0  0  0  0  0  0  0  0  0  0  0
   24.3228  -21.8257  -13.5397 C   0  0  0  0  0  0  0  0  0  0  0  0
   23.2879  -21.4080  -12.6350 C   0  0  0  0  0  0  0  0  0  0  0  0
   21.9618  -21.5298  -13.2094 O   0  0  0  0  0  0  0  0  0  0  0  0
   21.4794  -22.6971  -13.3481 N   0  0  0  0  0  0  0  0  0  0  0  0
   21.1835  -20.4432  -13.6192 C   0  0  1  0  0  0  0  0  0  0  0  0
   19.8354  -20.6796  -14.2019 C   0  0  0  0  0  0  0  0  0  0  0  0
   18.8561  -19.8068  -13.4810 C   0  0  0  0  0  0  0  0  0  0  0  0
   18.5004  -20.3582  -12.1467 C   0  0  0  0  0  0  0  0  0  0  0  0
   17.0613  -20.4768  -11.9100 O   0  0  0  0  0  0  0  0  0  0  0  0
   16.2703  -19.9169  -12.7296 C   0  0  0  0  0  0  0  0  0  0  0  0
   19.9495  -20.3216  -15.6364 O   0  0  0  0  0  0  0  0  0  0  0  0
   19.1632  -20.8800  -16.6361 O   0  0  0  0  0  0  0  0  0  0  0  0
   16.4504  -21.1473  -10.8661 O   0  0  0  0  0  0  0  0  0  0  0  0
  1  2  1  0
  2  3  2  0
  4  2  1  0
  5  4  1  0
  6  5  1  0
  6  7  1  0
  7  8  1  0
  8  9  1  6
 10 12  1  0
 10  8  1  0
 11 10  2  0
 13 14  1  0
 13 12  1  0
 14 16  1  0
 15 14  2  0
 16 17  1  0
 17 22  1  0
 18 19  1  0
 17 18  1  6
 20 24  1  0
 20 19  1  0
 21 20  2  0
 22 25  2  0
 22 23  1  0
M  END
$$$$
