RGE.pdb
     RDKit          3D

 25 24  0  0  1  0  0  0  0  0999 V2000
   27.9633  -19.9503  -15.6662 N   0  0  0  0  0  0  0  0  0  0  0  0
   27.5627  -21.2951  -15.9335 C   0  0  0  0  0  0  0  0  0  0  0  0
   28.4777  -22.1392  -16.2350 N   0  0  0  0  0  0  0  0  0  0  0  0
   26.1965  -21.6228  -15.8518 N   0  0  0  0  0  0  0  0  0  0  0  0
   25.2324  -20.6909  -15.3494 C   0  0  0  0  0  0  0  0  0  0  0  0
   23.8634  -21.3312  -15.2501 C   0  0  0  0  0  0  0  0  0  0  0  0
   22.8976  -20.2705  -14.8398 C   0  0  0  0  0  0  0  0  0  0  0  0
   22.9773  -20.0420  -13.3709 C   0  0  2  0  0  0  0  0  0  0  0  0
   23.2575  -21.2482  -12.6380 N   0  0  0  0  0  0  0  0  0  0  0  0
   21.6920  -19.4535  -12.9272 C   0  0  0  0  0  0  0  0  0  0  0  0
   21.1568  -18.4484  -13.4453 O   0  0  0  0  0  0  0  0  0  0  0  0
   28.3329  -23.1347  -16.4177 N   0  0  0  0  0  0  0  0  0  0  0  0
   20.9912  -20.0691  -11.8189 C   0  0  0  0  0  0  0  0  0  0  0  0
   19.6961  -20.6279  -12.0923 C   0  0  0  0  0  0  0  0  0  0  0  0
   19.0998  -21.2513  -10.9266 O   0  0  0  0  0  0  0  0  0  0  0  0
   19.8325  -21.4183   -9.9020 N   0  0  0  0  0  0  0  0  0  0  0  0
   17.7705  -21.6790  -10.8616 C   0  0  2  0  0  0  0  0  0  0  0  0
   17.4685  -23.1100  -10.5896 C   0  0  0  0  0  0  0  0  0  0  0  0
   18.1511  -23.9374  -11.6337 C   0  0  0  0  0  0  0  0  0  0  0  0
   17.9351  -25.3923  -11.4158 C   0  0  0  0  0  0  0  0  0  0  0  0
   18.6488  -26.2534  -12.3594 O   0  0  0  0  0  0  0  0  0  0  0  0
   18.6299  -27.5067  -12.1603 C   0  0  0  0  0  0  0  0  0  0  0  0
   17.9974  -23.3808   -9.2310 O   0  0  0  0  0  0  0  0  0  0  0  0
   19.3509  -23.4813   -8.9355 O   0  0  0  0  0  0  0  0  0  0  0  0
   19.3607  -25.8441  -13.4722 O   0  0  0  0  0  0  0  0  0  0  0  0
  1  2  1  0
  2  3  2  0
  4  2  1  0
  5  4  1  0
  6  5  1  0
  6  7  1  0
  7  8  1  0
  8  9  1  1
 10 12  1  0
 10  8  1  0
 11 10  2  0
 13 14  1  0
 13 12  1  0
 14 16  1  0
 15 14  2  0
 16 17  1  0
 17 22  1  0
 18 19  1  0
 17 18  1  6
 20 24  1  0
 20 19  1  0
 21 20  2  0
 22 25  2  0
 22 23  1  0
M  END
$$$$
