RGE.pdb
     RDKit          3D

 25 24  0  0  1  0  0  0  0  0999 V2000
   28.8916  -22.7750  -16.2441 N   0  0  0  0  0  0  0  0  0  0  0  0
   29.2517  -21.8508  -17.2720 C   0  0  0  0  0  0  0  0  0  0  0  0
   29.9248  -22.2990  -18.2653 N   0  0  0  0  0  0  0  0  0  0  0  0
   28.8521  -20.5074  -17.1442 N   0  0  0  0  0  0  0  0  0  0  0  0
   27.9738  -20.0849  -16.0952 C   0  0  0  0  0  0  0  0  0  0  0  0
   28.5793  -20.3696  -14.7365 C   0  0  0  0  0  0  0  0  0  0  0  0
   27.5943  -19.9355  -13.7033 C   0  0  0  0  0  0  0  0  0  0  0  0
   26.5650  -20.9911  -13.4976 C   0  0  2  0  0  0  0  0  0  0  0  0
   25.4290  -20.8326  -14.3664 N   0  0  0  0  0  0  0  0  0  0  0  0
   26.1413  -20.9491  -12.0784 C   0  0  0  0  0  0  0  0  0  0  0  0
   26.9089  -21.1157  -11.1047 O   0  0  0  0  0  0  0  0  0  0  0  0
   30.2393  -21.7495  -19.0682 N   0  0  0  0  0  0  0  0  0  0  0  0
   24.7467  -20.6996  -11.7763 C   0  0  0  0  0  0  0  0  0  0  0  0
   24.3948  -20.5406  -10.3925 C   0  0  0  0  0  0  0  0  0  0  0  0
   22.9769  -20.3037  -10.2008 O   0  0  0  0  0  0  0  0  0  0  0  0
   22.5715  -19.0995  -10.1929 N   0  0  0  0  0  0  0  0  0  0  0  0
   22.0308  -21.3176  -10.0244 C   0  0  1  0  0  0  0  0  0  0  0  0
   20.6902  -21.1938  -10.6572 C   0  0  0  0  0  0  0  0  0  0  0  0
   20.7730  -21.7604  -12.0402 C   0  0  0  0  0  0  0  0  0  0  0  0
   19.4728  -21.6673  -12.7555 C   0  0  0  0  0  0  0  0  0  0  0  0
   19.4867  -22.2369  -14.1033 O   0  0  0  0  0  0  0  0  0  0  0  0
   20.6083  -22.3979  -14.6750 C   0  0  0  0  0  0  0  0  0  0  0  0
   19.7654  -21.9667   -9.7933 O   0  0  0  0  0  0  0  0  0  0  0  0
   20.1866  -22.8724   -8.8279 O   0  0  0  0  0  0  0  0  0  0  0  0
   18.3863  -22.6290  -14.8435 O   0  0  0  0  0  0  0  0  0  0  0  0
  1  2  1  0
  2  3  2  0
  4  2  1  0
  5  4  1  0
  6  5  1  0
  6  7  1  0
  7  8  1  0
  8  9  1  6
 10 12  1  0
 10  8  1  0
 11 10  2  0
 13 14  1  0
 13 12  1  0
 14 16  1  0
 15 14  2  0
 16 17  1  0
 17 22  1  0
 18 19  1  0
 17 18  1  1
 20 24  1  0
 20 19  1  0
 21 20  2  0
 22 25  2  0
 22 23  1  0
M  END
$$$$
