RGE.pdb
     RDKit          3D

 25 24  0  0  1  0  0  0  0  0999 V2000
   25.9444  -21.7475  -10.6446 N   0  0  0  0  0  0  0  0  0  0  0  0
   24.8093  -21.1217  -11.2447 C   0  0  0  0  0  0  0  0  0  0  0  0
   23.9841  -20.5201  -10.4715 N   0  0  0  0  0  0  0  0  0  0  0  0
   24.6560  -21.1952  -12.6418 N   0  0  0  0  0  0  0  0  0  0  0  0
   25.3194  -22.2013  -13.4151 C   0  0  0  0  0  0  0  0  0  0  0  0
   26.1204  -21.5776  -14.5391 C   0  0  0  0  0  0  0  0  0  0  0  0
   25.1528  -21.0695  -15.5550 C   0  0  0  0  0  0  0  0  0  0  0  0
   24.9367  -19.6078  -15.3741 C   0  0  2  0  0  0  0  0  0  0  0  0
   25.0931  -19.1907  -14.0058 N   0  0  0  0  0  0  0  0  0  0  0  0
   23.5766  -19.2808  -15.8627 C   0  0  0  0  0  0  0  0  0  0  0  0
   23.2025  -19.4015  -17.0503 O   0  0  0  0  0  0  0  0  0  0  0  0
   23.1261  -20.0490  -10.7670 N   0  0  0  0  0  0  0  0  0  0  0  0
   22.5982  -18.7855  -14.9161 C   0  0  0  0  0  0  0  0  0  0  0  0
   21.2702  -18.5490  -15.4106 C   0  0  0  0  0  0  0  0  0  0  0  0
   20.3661  -19.6475  -15.1296 O   0  0  0  0  0  0  0  0  0  0  0  0
   20.8699  -20.7461  -14.7374 N   0  0  0  0  0  0  0  0  0  0  0  0
   18.9767  -19.5717  -15.2639 C   0  0  1  0  0  0  0  0  0  0  0  0
   18.1343  -20.7381  -14.8859 C   0  0  0  0  0  0  0  0  0  0  0  0
   17.0047  -20.2424  -14.0381 C   0  0  0  0  0  0  0  0  0  0  0  0
   16.2005  -19.2058  -14.7379 C   0  0  0  0  0  0  0  0  0  0  0  0
   15.0387  -18.7358  -13.9827 O   0  0  0  0  0  0  0  0  0  0  0  0
   14.3006  -17.8473  -14.5087 C   0  0  0  0  0  0  0  0  0  0  0  0
   17.6576  -21.3200  -16.1638 O   0  0  0  0  0  0  0  0  0  0  0  0
   17.8832  -20.7422  -17.4067 O   0  0  0  0  0  0  0  0  0  0  0  0
   14.6448  -19.1614  -12.7272 O   0  0  0  0  0  0  0  0  0  0  0  0
  1  2  1  0
  2  3  2  0
  4  2  1  0
  5  4  1  0
  6  5  1  0
  6  7  1  0
  7  8  1  0
  8  9  1  1
 10 12  1  0
 10  8  1  0
 11 10  2  0
 13 14  1  0
 13 12  1  0
 14 16  1  0
 15 14  2  0
 16 17  1  0
 17 22  1  0
 18 19  1  0
 17 18  1  6
 20 24  1  0
 20 19  1  0
 21 20  2  0
 22 25  2  0
 22 23  1  0
M  END
$$$$
