RGE.pdb
     RDKit          3D

 25 24  0  0  1  0  0  0  0  0999 V2000
   22.4414  -19.3134  -13.5518 N   0  0  0  0  0  0  0  0  0  0  0  0
   21.3555  -19.3548  -12.6247 C   0  0  0  0  0  0  0  0  0  0  0  0
   20.2059  -18.9702  -13.0381 N   0  0  0  0  0  0  0  0  0  0  0  0
   21.6001  -19.8128  -11.3166 N   0  0  0  0  0  0  0  0  0  0  0  0
   22.9301  -20.0574  -10.8460 C   0  0  0  0  0  0  0  0  0  0  0  0
   23.4284  -21.4088  -11.3144 C   0  0  0  0  0  0  0  0  0  0  0  0
   24.6537  -21.7355  -10.5281 C   0  0  0  0  0  0  0  0  0  0  0  0
   25.8494  -21.1065  -11.1532 C   0  0  2  0  0  0  0  0  0  0  0  0
   25.6818  -19.6939  -11.3696 N   0  0  0  0  0  0  0  0  0  0  0  0
   26.1147  -21.7989  -12.4360 C   0  0  0  0  0  0  0  0  0  0  0  0
   26.2791  -23.0335  -12.5539 O   0  0  0  0  0  0  0  0  0  0  0  0
   19.3586  -18.9078  -12.4692 N   0  0  0  0  0  0  0  0  0  0  0  0
   26.1931  -21.0101  -13.6486 C   0  0  0  0  0  0  0  0  0  0  0  0
   26.4077  -21.7203  -14.8789 C   0  0  0  0  0  0  0  0  0  0  0  0
   25.1821  -21.9230  -15.6273 O   0  0  0  0  0  0  0  0  0  0  0  0
   25.2619  -22.5152  -16.7488 N   0  0  0  0  0  0  0  0  0  0  0  0
   23.9208  -21.5071  -15.1912 C   0  0  1  0  0  0  0  0  0  0  0  0
   22.7174  -21.8213  -16.0074 C   0  0  0  0  0  0  0  0  0  0  0  0
   21.5122  -21.6970  -15.1285 C   0  0  0  0  0  0  0  0  0  0  0  0
   21.3578  -22.8724  -14.2309 C   0  0  0  0  0  0  0  0  0  0  0  0
   20.2327  -22.7739  -13.3006 O   0  0  0  0  0  0  0  0  0  0  0  0
   19.5832  -21.6844  -13.2578 C   0  0  0  0  0  0  0  0  0  0  0  0
   22.7085  -20.8279  -17.1083 O   0  0  0  0  0  0  0  0  0  0  0  0
   22.1010  -21.0446  -18.3386 O   0  0  0  0  0  0  0  0  0  0  0  0
   19.7866  -23.7601  -12.4397 O   0  0  0  0  0  0  0  0  0  0  0  0
  1  2  1  0
  2  3  2  0
  4  2  1  0
  5  4  1  0
  6  5  1  0
  6  7  1  0
  7  8  1  0
  8  9  1  6
 10 12  1  0
 10  8  1  0
 11 10  2  0
 13 14  1  0
 13 12  1  0
 14 16  1  0
 15 14  2  0
 16 17  1  0
 17 22  1  0
 18 19  1  0
 17 18  1  6
 20 24  1  0
 20 19  1  0
 21 20  2  0
 22 25  2  0
 22 23  1  0
M  END
$$$$
