RGE.pdb
     RDKit          3D

 25 24  0  0  1  0  0  0  0  0999 V2000
   16.5614  -19.2139    1.9035 N   0  0  0  0  0  0  0  0  0  0  0  0
   17.1677  -18.0627    1.3139 C   0  0  0  0  0  0  0  0  0  0  0  0
   18.2820  -18.2246    0.7033 N   0  0  0  0  0  0  0  0  0  0  0  0
   16.5165  -16.8205    1.4309 N   0  0  0  0  0  0  0  0  0  0  0  0
   16.1579  -16.2812    2.7079 C   0  0  0  0  0  0  0  0  0  0  0  0
   16.9136  -14.9979    2.9835 C   0  0  0  0  0  0  0  0  0  0  0  0
   16.4607  -14.4830    4.3087 C   0  0  0  0  0  0  0  0  0  0  0  0
   17.1387  -13.1947    4.6194 C   0  0  2  0  0  0  0  0  0  0  0  0
   17.9033  -12.6903    3.5097 N   0  0  0  0  0  0  0  0  0  0  0  0
   18.0132  -13.4081    5.7963 C   0  0  0  0  0  0  0  0  0  0  0  0
   19.2156  -13.0678    5.8565 O   0  0  0  0  0  0  0  0  0  0  0  0
   18.8365  -17.4832    0.2692 N   0  0  0  0  0  0  0  0  0  0  0  0
   17.4570  -14.0538    6.9678 C   0  0  0  0  0  0  0  0  0  0  0  0
   18.3204  -14.2001    8.1067 C   0  0  0  0  0  0  0  0  0  0  0  0
   18.7081  -15.5779    8.3398 O   0  0  0  0  0  0  0  0  0  0  0  0
   18.7432  -16.3624    7.3408 N   0  0  0  0  0  0  0  0  0  0  0  0
   19.0448  -16.0948    9.5943 C   0  0  1  0  0  0  0  0  0  0  0  0
   19.6490  -17.4503    9.6957 C   0  0  0  0  0  0  0  0  0  0  0  0
   20.9807  -17.4198    9.0129 C   0  0  0  0  0  0  0  0  0  0  0  0
   21.8749  -16.3811    9.5896 C   0  0  0  0  0  0  0  0  0  0  0  0
   23.2963  -16.7275    9.5580 O   0  0  0  0  0  0  0  0  0  0  0  0
   23.6317  -17.8390    9.0453 C   0  0  0  0  0  0  0  0  0  0  0  0
   19.7738  -17.7268   11.1473 O   0  0  0  0  0  0  0  0  0  0  0  0
   20.1383  -18.9614   11.6693 O   0  0  0  0  0  0  0  0  0  0  0  0
   24.3422  -15.9602   10.0374 O   0  0  0  0  0  0  0  0  0  0  0  0
  1  2  1  0
  2  3  2  0
  4  2  1  0
  5  4  1  0
  6  5  1  0
  6  7  1  0
  7  8  1  0
  8  9  1  6
 10 12  1  0
 10  8  1  0
 11 10  2  0
 13 14  1  0
 13 12  1  0
 14 16  1  0
 15 14  2  0
 16 17  1  0
 17 22  1  0
 18 19  1  0
 17 18  1  1
 20 24  1  0
 20 19  1  0
 21 20  2  0
 22 25  2  0
 22 23  1  0
M  END
$$$$
