RGE.pdb
     RDKit          3D

 25 24  0  0  1  0  0  0  0  0999 V2000
   23.0280  -33.7508  -13.6192 N   0  0  0  0  0  0  0  0  0  0  0  0
   21.7689  -33.1139  -13.3971 C   0  0  0  0  0  0  0  0  0  0  0  0
   20.7836  -33.4720  -14.1330 N   0  0  0  0  0  0  0  0  0  0  0  0
   21.6741  -32.1353  -12.3901 N   0  0  0  0  0  0  0  0  0  0  0  0
   22.8037  -31.7770  -11.5865 C   0  0  0  0  0  0  0  0  0  0  0  0
   22.5692  -32.1376  -10.1342 C   0  0  0  0  0  0  0  0  0  0  0  0
   23.7943  -31.7585   -9.3715 C   0  0  0  0  0  0  0  0  0  0  0  0
   24.8238  -32.8276   -9.4869 C   0  0  2  0  0  0  0  0  0  0  0  0
   24.2971  -34.1359   -9.2014 N   0  0  0  0  0  0  0  0  0  0  0  0
   25.9309  -32.5011   -8.5577 C   0  0  0  0  0  0  0  0  0  0  0  0
   26.5945  -31.4412   -8.5911 O   0  0  0  0  0  0  0  0  0  0  0  0
   19.8575  -33.0387  -14.1406 N   0  0  0  0  0  0  0  0  0  0  0  0
   26.2849  -33.4623   -7.5333 C   0  0  0  0  0  0  0  0  0  0  0  0
   27.3308  -33.0912   -6.6208 C   0  0  0  0  0  0  0  0  0  0  0  0
   27.4950  -34.0463   -5.5419 O   0  0  0  0  0  0  0  0  0  0  0  0
   26.6974  -35.0344   -5.4966 N   0  0  0  0  0  0  0  0  0  0  0  0
   28.4753  -33.9461   -4.5503 C   0  0  1  0  0  0  0  0  0  0  0  0
   28.5954  -35.0134   -3.5211 C   0  0  0  0  0  0  0  0  0  0  0  0
   29.9271  -34.8695   -2.8530 C   0  0  0  0  0  0  0  0  0  0  0  0
   30.1396  -35.9098   -1.8120 C   0  0  0  0  0  0  0  0  0  0  0  0
   31.0167  -37.0049   -2.2276 O   0  0  0  0  0  0  0  0  0  0  0  0
   32.0572  -36.7195   -2.8960 C   0  0  0  0  0  0  0  0  0  0  0  0
   27.4725  -34.7905   -2.5786 O   0  0  0  0  0  0  0  0  0  0  0  0
   26.8844  -35.7993   -1.8263 O   0  0  0  0  0  0  0  0  0  0  0  0
   30.8339  -38.3508   -1.9679 O   0  0  0  0  0  0  0  0  0  0  0  0
  1  2  1  0
  2  3  2  0
  4  2  1  0
  5  4  1  0
  6  5  1  0
  6  7  1  0
  7  8  1  0
  8  9  1  1
 10 12  1  0
 10  8  1  0
 11 10  2  0
 13 14  1  0
 13 12  1  0
 14 16  1  0
 15 14  2  0
 16 17  1  0
 17 22  1  0
 18 19  1  0
 17 18  1  1
 20 24  1  0
 20 19  1  0
 21 20  2  0
 22 25  2  0
 22 23  1  0
M  END
$$$$
