RGE.pdb
     RDKit          3D

 25 24  0  0  1  0  0  0  0  0999 V2000
   21.3869  -28.9406  -12.4449 N   0  0  0  0  0  0  0  0  0  0  0  0
   20.4227  -28.4867  -13.3961 C   0  0  0  0  0  0  0  0  0  0  0  0
   20.0545  -29.3080  -14.3074 N   0  0  0  0  0  0  0  0  0  0  0  0
   19.9293  -27.1734  -13.2851 N   0  0  0  0  0  0  0  0  0  0  0  0
   19.7150  -26.5601  -12.0091 C   0  0  0  0  0  0  0  0  0  0  0  0
   18.2552  -26.6350  -11.6125 C   0  0  0  0  0  0  0  0  0  0  0  0
   17.9622  -25.4573  -10.7445 C   0  0  0  0  0  0  0  0  0  0  0  0
   19.2116  -24.9717  -10.0970 C   0  0  2  0  0  0  0  0  0  0  0  0
   20.2177  -25.9956   -9.9987 N   0  0  0  0  0  0  0  0  0  0  0  0
   18.8620  -24.4586   -8.7516 C   0  0  0  0  0  0  0  0  0  0  0  0
   17.9299  -23.6572   -8.5193 O   0  0  0  0  0  0  0  0  0  0  0  0
   19.3864  -29.1077  -15.0552 N   0  0  0  0  0  0  0  0  0  0  0  0
   19.6411  -24.9029   -7.6140 C   0  0  0  0  0  0  0  0  0  0  0  0
   19.3801  -24.2663   -6.3528 C   0  0  0  0  0  0  0  0  0  0  0  0
   18.2826  -24.8830   -5.6328 O   0  0  0  0  0  0  0  0  0  0  0  0
   18.4931  -26.0065   -5.0778 N   0  0  0  0  0  0  0  0  0  0  0  0
   17.0097  -24.3179   -5.5126 C   0  0  1  0  0  0  0  0  0  0  0  0
   16.0015  -24.9535   -4.6223 C   0  0  0  0  0  0  0  0  0  0  0  0
   15.0294  -23.8999   -4.1916 C   0  0  0  0  0  0  0  0  0  0  0  0
   13.9997  -24.4418   -3.2658 C   0  0  0  0  0  0  0  0  0  0  0  0
   12.9974  -23.4630   -2.8431 O   0  0  0  0  0  0  0  0  0  0  0  0
   13.0984  -22.2749   -3.2778 C   0  0  0  0  0  0  0  0  0  0  0  0
   15.3536  -26.0087   -5.4383 O   0  0  0  0  0  0  0  0  0  0  0  0
   15.2451  -25.9565   -6.8222 O   0  0  0  0  0  0  0  0  0  0  0  0
   11.9251  -23.6931   -2.0006 O   0  0  0  0  0  0  0  0  0  0  0  0
  1  2  1  0
  2  3  2  0
  4  2  1  0
  5  4  1  0
  6  5  1  0
  6  7  1  0
  7  8  1  0
  8  9  1  1
 10 12  1  0
 10  8  1  0
 11 10  2  0
 13 14  1  0
 13 12  1  0
 14 16  1  0
 15 14  2  0
 16 17  1  0
 17 22  1  0
 18 19  1  0
 17 18  1  6
 20 24  1  0
 20 19  1  0
 21 20  2  0
 22 25  2  0
 22 23  1  0
M  END
$$$$
