RGE.pdb
     RDKit          3D

 25 24  0  0  1  0  0  0  0  0999 V2000
   19.3339  -24.1804   -6.6944 N   0  0  0  0  0  0  0  0  0  0  0  0
   18.8222  -23.0372   -7.3812 C   0  0  0  0  0  0  0  0  0  0  0  0
   17.5504  -22.9277   -7.4876 N   0  0  0  0  0  0  0  0  0  0  0  0
   19.7315  -22.0969   -7.9005 N   0  0  0  0  0  0  0  0  0  0  0  0
   21.0735  -22.4627   -8.2403 C   0  0  0  0  0  0  0  0  0  0  0  0
   21.8511  -21.2617   -8.7371 C   0  0  0  0  0  0  0  0  0  0  0  0
   21.4485  -21.0175  -10.1530 C   0  0  0  0  0  0  0  0  0  0  0  0
   22.4750  -21.5653  -11.0817 C   0  0  2  0  0  0  0  0  0  0  0  0
   22.8636  -22.9095  -10.7460 N   0  0  0  0  0  0  0  0  0  0  0  0
   23.6503  -20.6636  -11.0507 C   0  0  0  0  0  0  0  0  0  0  0  0
   23.6050  -19.4329  -11.2708 O   0  0  0  0  0  0  0  0  0  0  0  0
   17.0558  -22.1731   -7.9687 N   0  0  0  0  0  0  0  0  0  0  0  0
   24.9502  -21.2260  -10.7468 C   0  0  0  0  0  0  0  0  0  0  0  0
   26.0781  -20.3382  -10.8071 C   0  0  0  0  0  0  0  0  0  0  0  0
   26.8788  -20.5333  -12.0005 O   0  0  0  0  0  0  0  0  0  0  0  0
   27.5316  -21.6182  -12.1071 N   0  0  0  0  0  0  0  0  0  0  0  0
   26.9761  -19.6021  -13.0386 C   0  0  1  0  0  0  0  0  0  0  0  0
   27.5075  -20.0256  -14.3620 C   0  0  0  0  0  0  0  0  0  0  0  0
   26.6426  -21.1322  -14.8795 C   0  0  0  0  0  0  0  0  0  0  0  0
   25.3800  -20.6171  -15.4722 C   0  0  0  0  0  0  0  0  0  0  0  0
   24.5090  -21.6547  -16.0254 O   0  0  0  0  0  0  0  0  0  0  0  0
   23.3690  -21.3101  -16.4640 C   0  0  0  0  0  0  0  0  0  0  0  0
   27.4453  -18.8207  -15.2240 O   0  0  0  0  0  0  0  0  0  0  0  0
   28.1601  -18.6799  -16.4066 O   0  0  0  0  0  0  0  0  0  0  0  0
   24.7958  -23.0039  -16.1258 O   0  0  0  0  0  0  0  0  0  0  0  0
  1  2  1  0
  2  3  2  0
  4  2  1  0
  5  4  1  0
  6  5  1  0
  6  7  1  0
  7  8  1  0
  8  9  1  1
 10 12  1  0
 10  8  1  0
 11 10  2  0
 13 14  1  0
 13 12  1  0
 14 16  1  0
 15 14  2  0
 16 17  1  0
 17 22  1  0
 18 19  1  0
 17 18  1  6
 20 24  1  0
 20 19  1  0
 21 20  2  0
 22 25  2  0
 22 23  1  0
M  END
$$$$
