RGE.pdb
     RDKit          3D

 25 24  0  0  1  0  0  0  0  0999 V2000
   29.6343  -24.8812  -16.6239 N   0  0  0  0  0  0  0  0  0  0  0  0
   28.3439  -24.4079  -17.0127 C   0  0  0  0  0  0  0  0  0  0  0  0
   27.3634  -24.6367  -16.2209 N   0  0  0  0  0  0  0  0  0  0  0  0
   28.2154  -23.7196  -18.2335 N   0  0  0  0  0  0  0  0  0  0  0  0
   29.3576  -23.3991  -19.0354 C   0  0  0  0  0  0  0  0  0  0  0  0
   29.9327  -22.0541  -18.6427 C   0  0  0  0  0  0  0  0  0  0  0  0
   28.9013  -21.0179  -18.9403 C   0  0  0  0  0  0  0  0  0  0  0  0
   29.0413  -19.8686  -18.0045 C   0  0  2  0  0  0  0  0  0  0  0  0
   29.6409  -20.2451  -16.7519 N   0  0  0  0  0  0  0  0  0  0  0  0
   27.6950  -19.2916  -17.7813 C   0  0  0  0  0  0  0  0  0  0  0  0
   26.9482  -18.8635  -18.6891 O   0  0  0  0  0  0  0  0  0  0  0  0
   26.3960  -24.3408  -16.3699 N   0  0  0  0  0  0  0  0  0  0  0  0
   27.1904  -19.2080  -16.4259 C   0  0  0  0  0  0  0  0  0  0  0  0
   25.9155  -18.5723  -16.2399 C   0  0  0  0  0  0  0  0  0  0  0  0
   24.8111  -19.5109  -16.2912 O   0  0  0  0  0  0  0  0  0  0  0  0
   25.0519  -20.6899  -16.6992 N   0  0  0  0  0  0  0  0  0  0  0  0
   23.5001  -19.1979  -15.9201 C   0  0  1  0  0  0  0  0  0  0  0  0
   22.4803  -20.2775  -15.8339 C   0  0  0  0  0  0  0  0  0  0  0  0
   21.4410  -19.8591  -14.8411 C   0  0  0  0  0  0  0  0  0  0  0  0
   21.9195  -20.0106  -13.4415 C   0  0  0  0  0  0  0  0  0  0  0  0
   20.9269  -19.6578  -12.4259 O   0  0  0  0  0  0  0  0  0  0  0  0
   21.2671  -19.7267  -11.2051 C   0  0  0  0  0  0  0  0  0  0  0  0
   21.9219  -20.4126  -17.2009 O   0  0  0  0  0  0  0  0  0  0  0  0
   21.2988  -21.5620  -17.6701 O   0  0  0  0  0  0  0  0  0  0  0  0
   19.6257  -19.2480  -12.6528 O   0  0  0  0  0  0  0  0  0  0  0  0
  1  2  1  0
  2  3  2  0
  4  2  1  0
  5  4  1  0
  6  5  1  0
  6  7  1  0
  7  8  1  0
  8  9  1  1
 10 12  1  0
 10  8  1  0
 11 10  2  0
 13 14  1  0
 13 12  1  0
 14 16  1  0
 15 14  2  0
 16 17  1  0
 17 22  1  0
 18 19  1  0
 17 18  1  6
 20 24  1  0
 20 19  1  0
 21 20  2  0
 22 25  2  0
 22 23  1  0
M  END
$$$$
