IML.pdb
     RDKit          3D

 25 24  0  0  1  0  0  0  0  0999 V2000
    4.1427  -21.5669   22.7892 C   0  0  0  0  0  0  0  0  0  0  0  0
    5.1959  -20.9261   23.6381 C   0  0  0  0  0  0  0  0  0  0  0  0
    5.7341  -19.6404   23.0648 C   0  0  2  0  0  0  0  0  0  0  0  0
    6.3016  -19.7757   21.6953 C   0  0  0  0  0  0  0  0  0  0  0  0
    6.8456  -19.1646   23.9891 C   0  0  2  0  0  0  0  0  0  0  0  0
    6.4079  -19.1331   25.3672 N   0  0  0  0  0  0  0  0  0  0  0  0
    7.3440  -17.8200   23.6101 C   0  0  0  0  0  0  0  0  0  0  0  0
    8.0218  -17.6102   22.5688 O   0  0  0  0  0  0  0  0  0  0  0  0
    4.7402  -12.0553   25.8313 C   0  0  0  0  0  0  0  0  0  0  0  0
    6.5225  -11.7505   25.7023 S   0  0  0  0  0  0  0  0  0  0  0  0
    7.2887  -12.9497   24.5514 C   0  0  0  0  0  0  0  0  0  0  0  0
    6.7269  -14.3217   24.7517 C   0  0  0  0  0  0  0  0  0  0  0  0
    7.6084  -15.3521   24.1579 C   0  0  2  0  0  0  0  0  0  0  0  0
    7.0745  -16.6945   24.4169 N   0  0  0  0  0  0  0  0  0  0  0  0
    8.9470  -15.3289   24.7361 C   0  0  0  0  0  0  0  0  0  0  0  0
    9.7201  -14.3481   24.4585 O   0  0  0  0  0  0  0  0  0  0  0  0
   10.3455  -15.0888   29.9330 C   0  0  0  0  0  0  0  0  0  0  0  0
   10.5934  -14.9491   28.4487 C   0  0  2  0  0  0  0  0  0  0  0  0
    9.9484  -13.7723   27.8171 C   0  0  0  0  0  0  0  0  0  0  0  0
   10.5173  -16.2059   27.6765 C   0  0  0  0  0  0  0  0  0  0  0  0
   10.7946  -16.1580   26.2109 C   0  0  2  0  0  0  0  0  0  0  0  0
    9.4490  -16.3069   25.5883 N   0  0  0  0  0  0  0  0  0  0  0  0
   11.7038  -17.1627   25.6780 C   0  0  0  0  0  0  0  0  0  0  0  0
   13.1024  -17.0735   25.6905 O   0  0  0  0  0  0  0  0  0  0  0  0
   11.2481  -18.2121   25.1497 O   0  0  0  0  0  0  0  0  0  0  0  0
  1  2  1  0
  3  4  1  6
  3  2  1  0
  5  3  1  0
  5  6  1  1
  7  5  1  0
  8  7  2  0
 10 11  1  0
 10  9  1  0
 11 12  1  0
 13 12  1  1
 13 14  1  0
 14  7  1  0
 15 22  1  0
 15 13  1  0
 16 15  2  0
 18 19  1  6
 18 17  1  0
 20 18  1  0
 21 20  1  1
 21 22  1  0
 23 24  1  0
 23 21  1  0
 25 23  2  0
M  END
$$$$
