IML.pdb
     RDKit          3D

 25 24  0  0  1  0  0  0  0  0999 V2000
    7.8851  -12.1198   18.8303 C   0  0  0  0  0  0  0  0  0  0  0  0
    8.1145  -13.5798   19.0674 C   0  0  0  0  0  0  0  0  0  0  0  0
    7.9713  -13.9869   20.5115 C   0  0  2  0  0  0  0  0  0  0  0  0
    8.8951  -13.2768   21.4379 C   0  0  0  0  0  0  0  0  0  0  0  0
    8.2768  -15.4756   20.5929 C   0  0  2  0  0  0  0  0  0  0  0  0
    7.4028  -16.2410   19.7315 N   0  0  0  0  0  0  0  0  0  0  0  0
    8.1599  -15.9902   21.9792 C   0  0  0  0  0  0  0  0  0  0  0  0
    7.0535  -16.1314   22.5655 O   0  0  0  0  0  0  0  0  0  0  0  0
   12.5340  -19.9198   24.4343 C   0  0  0  0  0  0  0  0  0  0  0  0
   11.5104  -19.7530   25.9210 S   0  0  0  0  0  0  0  0  0  0  0  0
   10.2776  -18.4193   25.6950 C   0  0  0  0  0  0  0  0  0  0  0  0
   10.2942  -17.9039   24.2906 C   0  0  0  0  0  0  0  0  0  0  0  0
    9.2736  -16.8493   24.0963 C   0  0  2  0  0  0  0  0  0  0  0  0
    9.3075  -16.3514   22.7160 N   0  0  0  0  0  0  0  0  0  0  0  0
    9.5102  -15.6920   24.9514 C   0  0  0  0  0  0  0  0  0  0  0  0
   10.4526  -14.8829   24.6448 O   0  0  0  0  0  0  0  0  0  0  0  0
    8.0456  -11.9101   25.3141 C   0  0  0  0  0  0  0  0  0  0  0  0
    7.1503  -12.8447   26.0946 C   0  0  2  0  0  0  0  0  0  0  0  0
    5.7993  -12.3098   26.3922 C   0  0  0  0  0  0  0  0  0  0  0  0
    7.8068  -13.5654   27.2043 C   0  0  0  0  0  0  0  0  0  0  0  0
    9.1195  -14.2262   26.9451 C   0  0  2  0  0  0  0  0  0  0  0  0
    8.7679  -15.3943   26.0895 N   0  0  0  0  0  0  0  0  0  0  0  0
    9.8759  -14.6699   28.1075 C   0  0  0  0  0  0  0  0  0  0  0  0
   10.6886  -13.8505   28.9026 O   0  0  0  0  0  0  0  0  0  0  0  0
    9.8339  -15.8771   28.4667 O   0  0  0  0  0  0  0  0  0  0  0  0
  1  2  1  0
  3  4  1  1
  3  2  1  0
  5  3  1  0
  5  6  1  6
  7  5  1  0
  8  7  2  0
 10 11  1  0
 10  9  1  0
 11 12  1  0
 13 12  1  6
 13 14  1  0
 14  7  1  0
 15 22  1  0
 15 13  1  0
 16 15  2  0
 18 19  1  1
 18 17  1  0
 20 18  1  0
 21 20  1  1
 21 22  1  0
 23 24  1  0
 23 21  1  0
 25 23  2  0
M  END
$$$$
