IML.pdb
     RDKit          3D

 25 24  0  0  1  0  0  0  0  0999 V2000
    6.9546  -12.7374   26.8811 C   0  0  0  0  0  0  0  0  0  0  0  0
    6.8844  -14.2114   26.6306 C   0  0  0  0  0  0  0  0  0  0  0  0
    5.8844  -14.5970   25.5710 C   0  0  2  0  0  0  0  0  0  0  0  0
    4.4646  -14.4207   25.9818 C   0  0  0  0  0  0  0  0  0  0  0  0
    6.1037  -16.0703   25.2586 C   0  0  2  0  0  0  0  0  0  0  0  0
    6.2089  -16.8558   26.4683 N   0  0  0  0  0  0  0  0  0  0  0  0
    7.3181  -16.2873   24.4350 C   0  0  0  0  0  0  0  0  0  0  0  0
    7.9367  -17.3846   24.4044 O   0  0  0  0  0  0  0  0  0  0  0  0
    9.7700  -12.1014   19.7173 C   0  0  0  0  0  0  0  0  0  0  0  0
    8.0467  -12.6500   19.8402 S   0  0  0  0  0  0  0  0  0  0  0  0
    7.9321  -14.1500   20.8826 C   0  0  0  0  0  0  0  0  0  0  0  0
    9.0929  -14.2421   21.8218 C   0  0  0  0  0  0  0  0  0  0  0  0
    8.9704  -15.4211   22.7087 C   0  0  2  0  0  0  0  0  0  0  0  0
    7.8434  -15.2519   23.6335 N   0  0  0  0  0  0  0  0  0  0  0  0
   10.1537  -15.6079   23.5403 C   0  0  0  0  0  0  0  0  0  0  0  0
   11.2958  -15.7057   22.9721 O   0  0  0  0  0  0  0  0  0  0  0  0
   11.3885  -13.2820   26.8410 C   0  0  0  0  0  0  0  0  0  0  0  0
   10.5496  -14.3933   27.4289 C   0  0  2  0  0  0  0  0  0  0  0  0
   10.1222  -14.1757   28.8325 C   0  0  0  0  0  0  0  0  0  0  0  0
   11.0028  -15.7619   27.1077 C   0  0  0  0  0  0  0  0  0  0  0  0
   11.3464  -16.0833   25.6915 C   0  0  2  0  0  0  0  0  0  0  0  0
   10.1314  -15.6794   24.9293 N   0  0  0  0  0  0  0  0  0  0  0  0
   11.6849  -17.4675   25.3923 C   0  0  0  0  0  0  0  0  0  0  0  0
   10.9357  -18.3226   24.5728 O   0  0  0  0  0  0  0  0  0  0  0  0
   12.7209  -17.9869   25.8873 O   0  0  0  0  0  0  0  0  0  0  0  0
  1  2  1  0
  3  4  1  1
  3  2  1  0
  5  3  1  0
  5  6  1  1
  7  5  1  0
  8  7  2  0
 10 11  1  0
 10  9  1  0
 11 12  1  0
 13 12  1  1
 13 14  1  0
 14  7  1  0
 15 22  1  0
 15 13  1  0
 16 15  2  0
 18 19  1  1
 18 17  1  0
 20 18  1  0
 21 20  1  1
 21 22  1  0
 23 24  1  0
 23 21  1  0
 25 23  2  0
M  END
$$$$
