IML.pdb
     RDKit          3D

 25 24  0  0  1  0  0  0  0  0999 V2000
   11.5259  -20.2678   19.7643 C   0  0  0  0  0  0  0  0  0  0  0  0
   10.7568  -18.9844   19.7242 C   0  0  0  0  0  0  0  0  0  0  0  0
   10.7514  -18.2423   21.0360 C   0  0  2  0  0  0  0  0  0  0  0  0
   10.2483  -19.0430   22.1856 C   0  0  0  0  0  0  0  0  0  0  0  0
    9.8386  -17.0361   20.8682 C   0  0  2  0  0  0  0  0  0  0  0  0
   10.2408  -16.2232   19.7417 N   0  0  0  0  0  0  0  0  0  0  0  0
    9.8074  -16.1909   22.0868 C   0  0  0  0  0  0  0  0  0  0  0  0
   10.7918  -15.5022   22.4668 O   0  0  0  0  0  0  0  0  0  0  0  0
    6.9745  -11.5136   26.4074 C   0  0  0  0  0  0  0  0  0  0  0  0
    6.0381  -12.9327   25.7786 S   0  0  0  0  0  0  0  0  0  0  0  0
    7.0615  -14.4484   25.8490 C   0  0  0  0  0  0  0  0  0  0  0  0
    7.1656  -15.0901   24.5016 C   0  0  0  0  0  0  0  0  0  0  0  0
    8.5744  -15.3909   24.1604 C   0  0  2  0  0  0  0  0  0  0  0  0
    8.6493  -16.1208   22.8893 N   0  0  0  0  0  0  0  0  0  0  0  0
    9.2106  -16.2444   25.1570 C   0  0  0  0  0  0  0  0  0  0  0  0
    9.1672  -17.5131   24.9984 O   0  0  0  0  0  0  0  0  0  0  0  0
   11.0632  -13.5652   27.2899 C   0  0  0  0  0  0  0  0  0  0  0  0
   10.5295  -14.4645   28.3811 C   0  0  2  0  0  0  0  0  0  0  0  0
   10.4825  -13.8481   29.7294 C   0  0  0  0  0  0  0  0  0  0  0  0
   11.0091  -15.8608   28.3372 C   0  0  0  0  0  0  0  0  0  0  0  0
   10.6523  -16.6985   27.1549 C   0  0  2  0  0  0  0  0  0  0  0  0
    9.8796  -15.7713   26.2810 N   0  0  0  0  0  0  0  0  0  0  0  0
    9.8772  -17.9043   27.4101 C   0  0  0  0  0  0  0  0  0  0  0  0
    8.5396  -18.0978   27.0391 O   0  0  0  0  0  0  0  0  0  0  0  0
   10.4025  -18.8787   28.0124 O   0  0  0  0  0  0  0  0  0  0  0  0
  1  2  1  0
  3  4  1  1
  3  2  1  0
  5  3  1  0
  5  6  1  6
  7  5  1  0
  8  7  2  0
 10 11  1  0
 10  9  1  0
 11 12  1  0
 13 12  1  1
 13 14  1  0
 14  7  1  0
 15 22  1  0
 15 13  1  0
 16 15  2  0
 18 19  1  1
 18 17  1  0
 20 18  1  0
 21 20  1  1
 21 22  1  0
 23 24  1  0
 23 21  1  0
 25 23  2  0
M  END
$$$$
