IML.pdb
     RDKit          3D

 25 24  0  0  1  0  0  0  0  0999 V2000
   11.7025  -20.2518   19.3432 C   0  0  0  0  0  0  0  0  0  0  0  0
   10.7115  -19.1303   19.3647 C   0  0  0  0  0  0  0  0  0  0  0  0
   10.7306  -18.3320   20.6429 C   0  0  2  0  0  0  0  0  0  0  0  0
   10.4650  -19.1367   21.8666 C   0  0  0  0  0  0  0  0  0  0  0  0
    9.6420  -17.2744   20.5305 C   0  0  2  0  0  0  0  0  0  0  0  0
    9.8174  -16.4608   19.3477 N   0  0  0  0  0  0  0  0  0  0  0  0
    9.6019  -16.3916   21.7219 C   0  0  0  0  0  0  0  0  0  0  0  0
   10.5208  -15.5753   21.9996 O   0  0  0  0  0  0  0  0  0  0  0  0
    6.8234  -11.8425   26.4130 C   0  0  0  0  0  0  0  0  0  0  0  0
    6.1514  -13.0323   25.2218 S   0  0  0  0  0  0  0  0  0  0  0  0
    6.8713  -14.6905   25.5078 C   0  0  0  0  0  0  0  0  0  0  0  0
    6.9895  -15.4537   24.2266 C   0  0  0  0  0  0  0  0  0  0  0  0
    8.4054  -15.5988   23.8195 C   0  0  2  0  0  0  0  0  0  0  0  0
    8.5096  -16.4292   22.6139 N   0  0  0  0  0  0  0  0  0  0  0  0
    9.2051  -16.2641   24.8414 C   0  0  0  0  0  0  0  0  0  0  0  0
    9.1375  -17.5376   24.9431 O   0  0  0  0  0  0  0  0  0  0  0  0
   11.1085  -12.9306   28.1980 C   0  0  0  0  0  0  0  0  0  0  0  0
   10.6907  -14.3822   28.2464 C   0  0  2  0  0  0  0  0  0  0  0  0
   10.2411  -14.8574   29.5776 C   0  0  0  0  0  0  0  0  0  0  0  0
   11.5613  -15.3134   27.5003 C   0  0  0  0  0  0  0  0  0  0  0  0
   10.9206  -16.3704   26.6641 C   0  0  2  0  0  0  0  0  0  0  0  0
   10.0566  -15.6049   25.7219 N   0  0  0  0  0  0  0  0  0  0  0  0
   10.1295  -17.3744   27.3614 C   0  0  0  0  0  0  0  0  0  0  0  0
    8.7306  -17.4569   27.3412 O   0  0  0  0  0  0  0  0  0  0  0  0
   10.6989  -18.2592   28.0550 O   0  0  0  0  0  0  0  0  0  0  0  0
  1  2  1  0
  3  4  1  1
  3  2  1  0
  5  3  1  0
  5  6  1  6
  7  5  1  0
  8  7  2  0
 10 11  1  0
 10  9  1  0
 11 12  1  0
 13 12  1  1
 13 14  1  0
 14  7  1  0
 15 22  1  0
 15 13  1  0
 16 15  2  0
 18 19  1  1
 18 17  1  0
 20 18  1  0
 21 20  1  1
 21 22  1  0
 23 24  1  0
 23 21  1  0
 25 23  2  0
M  END
$$$$
