IML.pdb
     RDKit          3D

 25 24  0  0  1  0  0  0  0  0999 V2000
   10.4033  -17.5913   17.9340 C   0  0  0  0  0  0  0  0  0  0  0  0
    9.3423  -16.6421   18.3961 C   0  0  0  0  0  0  0  0  0  0  0  0
    9.6147  -16.0461   19.7534 C   0  0  2  0  0  0  0  0  0  0  0  0
    9.9329  -17.0498   20.8055 C   0  0  0  0  0  0  0  0  0  0  0  0
    8.3579  -15.3010   20.1794 C   0  0  2  0  0  0  0  0  0  0  0  0
    7.9932  -14.2875   19.2143 N   0  0  0  0  0  0  0  0  0  0  0  0
    8.5146  -14.6658   21.5106 C   0  0  0  0  0  0  0  0  0  0  0  0
    9.0577  -13.5403   21.6718 O   0  0  0  0  0  0  0  0  0  0  0  0
    6.6675  -11.1779   26.1589 C   0  0  0  0  0  0  0  0  0  0  0  0
    5.5623  -12.5960   25.9282 S   0  0  0  0  0  0  0  0  0  0  0  0
    5.9105  -13.4173   24.3301 C   0  0  0  0  0  0  0  0  0  0  0  0
    6.6174  -14.7194   24.5374 C   0  0  0  0  0  0  0  0  0  0  0  0
    7.9955  -14.6710   23.9987 C   0  0  2  0  0  0  0  0  0  0  0  0
    8.0522  -15.3088   22.6781 N   0  0  0  0  0  0  0  0  0  0  0  0
    8.9399  -15.3959   24.8408 C   0  0  0  0  0  0  0  0  0  0  0  0
    9.3028  -16.5709   24.4878 O   0  0  0  0  0  0  0  0  0  0  0  0
   11.1910  -14.8010   30.5242 C   0  0  0  0  0  0  0  0  0  0  0  0
   11.4008  -15.4688   29.1847 C   0  0  2  0  0  0  0  0  0  0  0  0
   12.8080  -15.8244   28.8792 C   0  0  0  0  0  0  0  0  0  0  0  0
   10.6350  -14.8866   28.0639 C   0  0  0  0  0  0  0  0  0  0  0  0
   10.3888  -15.7293   26.8572 C   0  0  2  0  0  0  0  0  0  0  0  0
    9.4907  -14.8909   26.0140 N   0  0  0  0  0  0  0  0  0  0  0  0
    9.7879  -17.0372   27.0770 C   0  0  0  0  0  0  0  0  0  0  0  0
    8.4272  -17.2700   27.3191 O   0  0  0  0  0  0  0  0  0  0  0  0
   10.5047  -18.0736   27.0623 O   0  0  0  0  0  0  0  0  0  0  0  0
  1  2  1  0
  3  4  1  1
  3  2  1  0
  5  3  1  0
  5  6  1  6
  7  5  1  0
  8  7  2  0
 10 11  1  0
 10  9  1  0
 11 12  1  0
 13 12  1  1
 13 14  1  0
 14  7  1  0
 15 22  1  0
 15 13  1  0
 16 15  2  0
 18 19  1  6
 18 17  1  0
 20 18  1  0
 21 20  1  1
 21 22  1  0
 23 24  1  0
 23 21  1  0
 25 23  2  0
M  END
$$$$
