IML.pdb
     RDKit          3D

 25 24  0  0  1  0  0  0  0  0999 V2000
   10.7178  -20.0936   21.3068 C   0  0  0  0  0  0  0  0  0  0  0  0
   10.4078  -18.6805   20.9230 C   0  0  0  0  0  0  0  0  0  0  0  0
    8.9390  -18.4221   20.7054 C   0  0  2  0  0  0  0  0  0  0  0  0
    8.3414  -19.2096   19.5926 C   0  0  0  0  0  0  0  0  0  0  0  0
    8.7854  -16.9453   20.3715 C   0  0  2  0  0  0  0  0  0  0  0  0
    9.6353  -16.5636   19.2654 N   0  0  0  0  0  0  0  0  0  0  0  0
    9.0909  -16.0791   21.5362 C   0  0  0  0  0  0  0  0  0  0  0  0
   10.1822  -15.4619   21.6621 O   0  0  0  0  0  0  0  0  0  0  0  0
    5.8035  -11.3016   25.9831 C   0  0  0  0  0  0  0  0  0  0  0  0
    5.7394  -13.1022   26.1828 S   0  0  0  0  0  0  0  0  0  0  0  0
    7.3009  -13.8600   25.6022 C   0  0  0  0  0  0  0  0  0  0  0  0
    7.0935  -14.6049   24.3215 C   0  0  0  0  0  0  0  0  0  0  0  0
    8.3818  -15.0669   23.7573 C   0  0  2  0  0  0  0  0  0  0  0  0
    8.1522  -15.9057   22.5750 N   0  0  0  0  0  0  0  0  0  0  0  0
    9.1305  -15.8898   24.7000 C   0  0  0  0  0  0  0  0  0  0  0  0
    9.0111  -17.1620   24.6360 O   0  0  0  0  0  0  0  0  0  0  0  0
   10.1919  -13.2115   27.5162 C   0  0  0  0  0  0  0  0  0  0  0  0
   10.5953  -14.4668   28.2549 C   0  0  2  0  0  0  0  0  0  0  0  0
   10.9680  -14.2613   29.6758 C   0  0  0  0  0  0  0  0  0  0  0  0
   11.4633  -15.3916   27.4979 C   0  0  0  0  0  0  0  0  0  0  0  0
   10.8326  -16.2964   26.4927 C   0  0  2  0  0  0  0  0  0  0  0  0
    9.9858  -15.3842   25.6735 N   0  0  0  0  0  0  0  0  0  0  0  0
   10.0277  -17.3953   27.0070 C   0  0  0  0  0  0  0  0  0  0  0  0
    8.6323  -17.4866   26.9135 O   0  0  0  0  0  0  0  0  0  0  0  0
   10.5802  -18.3637   27.5945 O   0  0  0  0  0  0  0  0  0  0  0  0
  1  2  1  0
  3  4  1  6
  3  2  1  0
  5  3  1  0
  5  6  1  6
  7  5  1  0
  8  7  2  0
 10 11  1  0
 10  9  1  0
 11 12  1  0
 13 12  1  1
 13 14  1  0
 14  7  1  0
 15 22  1  0
 15 13  1  0
 16 15  2  0
 18 19  1  1
 18 17  1  0
 20 18  1  0
 21 20  1  1
 21 22  1  0
 23 24  1  0
 23 21  1  0
 25 23  2  0
M  END
$$$$
