IML.pdb
     RDKit          3D

 25 24  0  0  1  0  0  0  0  0999 V2000
    5.3571  -21.2421   24.8261 C   0  0  0  0  0  0  0  0  0  0  0  0
    5.7017  -20.6290   23.5048 C   0  0  0  0  0  0  0  0  0  0  0  0
    6.6781  -19.4854   23.6060 C   0  0  2  0  0  0  0  0  0  0  0  0
    6.2053  -18.3550   24.4511 C   0  0  0  0  0  0  0  0  0  0  0  0
    6.9016  -18.9570   22.1964 C   0  0  2  0  0  0  0  0  0  0  0  0
    7.2115  -20.0277   21.2749 N   0  0  0  0  0  0  0  0  0  0  0  0
    7.9887  -17.9490   22.1483 C   0  0  0  0  0  0  0  0  0  0  0  0
    9.2084  -18.2605   22.0926 O   0  0  0  0  0  0  0  0  0  0  0  0
    8.1975  -11.7501   19.4774 C   0  0  0  0  0  0  0  0  0  0  0  0
    7.2711  -13.2484   19.0494 S   0  0  0  0  0  0  0  0  0  0  0  0
    7.9394  -14.6883   19.9603 C   0  0  0  0  0  0  0  0  0  0  0  0
    8.2254  -14.3372   21.3862 C   0  0  0  0  0  0  0  0  0  0  0  0
    8.7169  -15.5138   22.1381 C   0  0  2  0  0  0  0  0  0  0  0  0
    7.6968  -16.5688   22.1630 N   0  0  0  0  0  0  0  0  0  0  0  0
    9.0046  -15.1940   23.5315 C   0  0  0  0  0  0  0  0  0  0  0  0
   10.0016  -14.4372   23.7957 O   0  0  0  0  0  0  0  0  0  0  0  0
    5.8249  -12.7248   27.0507 C   0  0  0  0  0  0  0  0  0  0  0  0
    7.1973  -13.2217   26.6588 C   0  0  2  0  0  0  0  0  0  0  0  0
    7.8651  -12.4335   25.5944 C   0  0  0  0  0  0  0  0  0  0  0  0
    7.3256  -14.6882   26.5385 C   0  0  0  0  0  0  0  0  0  0  0  0
    8.6008  -15.2491   26.0033 C   0  0  2  0  0  0  0  0  0  0  0  0
    8.2563  -15.6522   24.6108 N   0  0  0  0  0  0  0  0  0  0  0  0
    9.1777  -16.3775   26.7202 C   0  0  0  0  0  0  0  0  0  0  0  0
    9.4325  -17.6399   26.1675 O   0  0  0  0  0  0  0  0  0  0  0  0
    9.4864  -16.2635   27.9367 O   0  0  0  0  0  0  0  0  0  0  0  0
  1  2  1  0
  3  4  1  1
  3  2  1  0
  5  3  1  0
  5  6  1  6
  7  5  1  0
  8  7  2  0
 10 11  1  0
 10  9  1  0
 11 12  1  0
 13 12  1  6
 13 14  1  0
 14  7  1  0
 15 22  1  0
 15 13  1  0
 16 15  2  0
 18 19  1  6
 18 17  1  0
 20 18  1  0
 21 20  1  1
 21 22  1  0
 23 24  1  0
 23 21  1  0
 25 23  2  0
M  END
$$$$
