IML.pdb
     RDKit          3D

 25 24  0  0  1  0  0  0  0  0999 V2000
    6.4672  -20.5082   27.7664 C   0  0  0  0  0  0  0  0  0  0  0  0
    6.3265  -20.3571   26.2840 C   0  0  0  0  0  0  0  0  0  0  0  0
    7.1637  -19.2441   25.7081 C   0  0  2  0  0  0  0  0  0  0  0  0
    6.8984  -17.9092   26.3110 C   0  0  0  0  0  0  0  0  0  0  0  0
    6.8435  -19.1609   24.2226 C   0  0  2  0  0  0  0  0  0  0  0  0
    6.9150  -20.4615   23.5942 N   0  0  0  0  0  0  0  0  0  0  0  0
    7.7532  -18.2302   23.5109 C   0  0  0  0  0  0  0  0  0  0  0  0
    8.9278  -18.5424   23.1785 O   0  0  0  0  0  0  0  0  0  0  0  0
    6.1299  -13.5758   19.1608 C   0  0  0  0  0  0  0  0  0  0  0  0
    7.3356  -12.7024   20.1950 S   0  0  0  0  0  0  0  0  0  0  0  0
    8.3107  -13.8986   21.1788 C   0  0  0  0  0  0  0  0  0  0  0  0
    7.4281  -14.9462   21.7803 C   0  0  0  0  0  0  0  0  0  0  0  0
    8.2130  -15.9072   22.5878 C   0  0  2  0  0  0  0  0  0  0  0  0
    7.3327  -16.9278   23.1685 N   0  0  0  0  0  0  0  0  0  0  0  0
    8.8832  -15.2620   23.7108 C   0  0  0  0  0  0  0  0  0  0  0  0
    9.9824  -14.6430   23.4981 O   0  0  0  0  0  0  0  0  0  0  0  0
    8.3769  -11.6374   25.3391 C   0  0  0  0  0  0  0  0  0  0  0  0
    7.4413  -12.6575   25.9458 C   0  0  2  0  0  0  0  0  0  0  0  0
    6.1951  -12.0956   26.5214 C   0  0  0  0  0  0  0  0  0  0  0  0
    8.0938  -13.7109   26.7498 C   0  0  0  0  0  0  0  0  0  0  0  0
    9.1384  -14.5563   26.1010 C   0  0  2  0  0  0  0  0  0  0  0  0
    8.4016  -15.2632   25.0157 N   0  0  0  0  0  0  0  0  0  0  0  0
    9.8256  -15.5216   26.9471 C   0  0  0  0  0  0  0  0  0  0  0  0
    9.8258  -16.9095   26.7527 O   0  0  0  0  0  0  0  0  0  0  0  0
   10.4830  -15.1304   27.9486 O   0  0  0  0  0  0  0  0  0  0  0  0
  1  2  1  0
  3  4  1  1
  3  2  1  0
  5  3  1  0
  5  6  1  6
  7  5  1  0
  8  7  2  0
 10 11  1  0
 10  9  1  0
 11 12  1  0
 13 12  1  1
 13 14  1  0
 14  7  1  0
 15 22  1  0
 15 13  1  0
 16 15  2  0
 18 19  1  1
 18 17  1  0
 20 18  1  0
 21 20  1  1
 21 22  1  0
 23 24  1  0
 23 21  1  0
 25 23  2  0
M  END
$$$$
