IML.pdb
     RDKit          3D

 25 24  0  0  1  0  0  0  0  0999 V2000
    7.9985  -22.9556   18.9853 C   0  0  0  0  0  0  0  0  0  0  0  0
    7.7536  -21.5428   18.5559 C   0  0  0  0  0  0  0  0  0  0  0  0
    8.5452  -20.5276   19.3396 C   0  0  2  0  0  0  0  0  0  0  0  0
    8.2817  -20.5501   20.8045 C   0  0  0  0  0  0  0  0  0  0  0  0
    8.1604  -19.1521   18.8140 C   0  0  2  0  0  0  0  0  0  0  0  0
    8.2768  -19.0865   17.3740 N   0  0  0  0  0  0  0  0  0  0  0  0
    8.9884  -18.0779   19.4146 C   0  0  0  0  0  0  0  0  0  0  0  0
   10.2013  -17.9038   19.1208 O   0  0  0  0  0  0  0  0  0  0  0  0
    7.5918  -11.6869   21.3454 C   0  0  0  0  0  0  0  0  0  0  0  0
    6.7222  -12.9469   20.3747 S   0  0  0  0  0  0  0  0  0  0  0  0
    7.8318  -14.3622   20.0348 C   0  0  0  0  0  0  0  0  0  0  0  0
    8.3476  -14.9587   21.3061 C   0  0  0  0  0  0  0  0  0  0  0  0
    9.2084  -16.1322   21.0352 C   0  0  2  0  0  0  0  0  0  0  0  0
    8.4410  -17.1859   20.3608 N   0  0  0  0  0  0  0  0  0  0  0  0
    9.7260  -16.7282   22.2613 C   0  0  0  0  0  0  0  0  0  0  0  0
    9.1799  -17.7970   22.7041 O   0  0  0  0  0  0  0  0  0  0  0  0
   13.6098  -19.9422   21.6295 C   0  0  0  0  0  0  0  0  0  0  0  0
   12.6451  -19.3593   22.6364 C   0  0  2  0  0  0  0  0  0  0  0  0
   11.5515  -20.2711   23.0520 C   0  0  0  0  0  0  0  0  0  0  0  0
   12.2452  -17.9593   22.3881 C   0  0  0  0  0  0  0  0  0  0  0  0
   11.8373  -17.1191   23.5520 C   0  0  2  0  0  0  0  0  0  0  0  0
   10.7934  -16.2157   22.9912 N   0  0  0  0  0  0  0  0  0  0  0  0
   12.8805  -16.3346   24.1974 C   0  0  0  0  0  0  0  0  0  0  0  0
   13.6024  -15.2976   23.5911 O   0  0  0  0  0  0  0  0  0  0  0  0
   13.2003  -16.5692   25.3935 O   0  0  0  0  0  0  0  0  0  0  0  0
  1  2  1  0
  3  4  1  1
  3  2  1  0
  5  3  1  0
  5  6  1  6
  7  5  1  0
  8  7  2  0
 10 11  1  0
 10  9  1  0
 11 12  1  0
 13 12  1  1
 13 14  1  0
 14  7  1  0
 15 22  1  0
 15 13  1  0
 16 15  2  0
 18 19  1  6
 18 17  1  0
 20 18  1  0
 21 20  1  6
 21 22  1  0
 23 24  1  0
 23 21  1  0
 25 23  2  0
M  END
$$$$
