IML.pdb
     RDKit          3D

 25 24  0  0  1  0  0  0  0  0999 V2000
    6.5862  -20.9376   27.0354 C   0  0  0  0  0  0  0  0  0  0  0  0
    6.2884  -20.5159   25.6305 C   0  0  0  0  0  0  0  0  0  0  0  0
    7.1281  -19.3575   25.1567 C   0  0  2  0  0  0  0  0  0  0  0  0
    6.9225  -18.1015   25.9286 C   0  0  0  0  0  0  0  0  0  0  0  0
    6.7471  -19.0868   23.7084 C   0  0  2  0  0  0  0  0  0  0  0  0
    6.7663  -20.3006   22.9224 N   0  0  0  0  0  0  0  0  0  0  0  0
    7.6442  -18.0885   23.0767 C   0  0  0  0  0  0  0  0  0  0  0  0
    8.8480  -18.3321   22.7950 O   0  0  0  0  0  0  0  0  0  0  0  0
    6.2333  -13.8199   18.6848 C   0  0  0  0  0  0  0  0  0  0  0  0
    7.4483  -12.7759   19.5334 S   0  0  0  0  0  0  0  0  0  0  0  0
    8.2196  -13.6962   20.9146 C   0  0  0  0  0  0  0  0  0  0  0  0
    7.3411  -14.8182   21.3702 C   0  0  0  0  0  0  0  0  0  0  0  0
    8.0461  -15.6904   22.3365 C   0  0  2  0  0  0  0  0  0  0  0  0
    7.1775  -16.7960   22.7576 N   0  0  0  0  0  0  0  0  0  0  0  0
    8.4139  -14.9765   23.5538 C   0  0  0  0  0  0  0  0  0  0  0  0
    8.0117  -13.7716   23.7057 O   0  0  0  0  0  0  0  0  0  0  0  0
    6.6522  -12.7147   27.5143 C   0  0  0  0  0  0  0  0  0  0  0  0
    7.7131  -13.0039   26.4774 C   0  0  2  0  0  0  0  0  0  0  0  0
    7.5416  -12.2832   25.1924 C   0  0  0  0  0  0  0  0  0  0  0  0
    8.1114  -14.4216   26.3623 C   0  0  0  0  0  0  0  0  0  0  0  0
    9.4635  -14.7383   25.8160 C   0  0  2  0  0  0  0  0  0  0  0  0
    9.1749  -15.5224   24.5822 N   0  0  0  0  0  0  0  0  0  0  0  0
   10.3664  -15.4848   26.6806 C   0  0  0  0  0  0  0  0  0  0  0  0
   11.2735  -14.9152   27.5845 O   0  0  0  0  0  0  0  0  0  0  0  0
   10.3752  -16.7446   26.6496 O   0  0  0  0  0  0  0  0  0  0  0  0
  1  2  1  0
  3  4  1  1
  3  2  1  0
  5  3  1  0
  5  6  1  6
  7  5  1  0
  8  7  2  0
 10 11  1  0
 10  9  1  0
 11 12  1  0
 13 12  1  6
 13 14  1  0
 14  7  1  0
 15 22  1  0
 15 13  1  0
 16 15  2  0
 18 19  1  6
 18 17  1  0
 20 18  1  0
 21 20  1  1
 21 22  1  0
 23 24  1  0
 23 21  1  0
 25 23  2  0
M  END
$$$$
