IML.pdb
     RDKit          3D

 25 24  0  0  1  0  0  0  0  0999 V2000
    8.0315  -12.5591   18.5843 C   0  0  0  0  0  0  0  0  0  0  0  0
    8.0071  -14.0019   18.9819 C   0  0  0  0  0  0  0  0  0  0  0  0
    7.5563  -14.2295   20.4019 C   0  0  2  0  0  0  0  0  0  0  0  0
    8.4183  -13.5776   21.4255 C   0  0  0  0  0  0  0  0  0  0  0  0
    7.5861  -15.7308   20.6496 C   0  0  2  0  0  0  0  0  0  0  0  0
    6.7805  -16.4410   19.6810 N   0  0  0  0  0  0  0  0  0  0  0  0
    7.1176  -16.0768   22.0137 C   0  0  0  0  0  0  0  0  0  0  0  0
    5.9193  -15.9432   22.3798 O   0  0  0  0  0  0  0  0  0  0  0  0
    9.1738  -21.2183   24.5054 C   0  0  0  0  0  0  0  0  0  0  0  0
    7.3920  -20.8853   24.5259 S   0  0  0  0  0  0  0  0  0  0  0  0
    7.0649  -19.1557   24.0248 C   0  0  0  0  0  0  0  0  0  0  0  0
    7.9402  -18.2033   24.7764 C   0  0  0  0  0  0  0  0  0  0  0  0
    7.6624  -16.8021   24.3881 C   0  0  2  0  0  0  0  0  0  0  0  0
    8.0131  -16.5813   22.9801 N   0  0  0  0  0  0  0  0  0  0  0  0
    8.4557  -15.8513   25.1582 C   0  0  0  0  0  0  0  0  0  0  0  0
    9.6578  -15.6129   24.7907 O   0  0  0  0  0  0  0  0  0  0  0  0
    7.8458  -11.9013   25.2825 C   0  0  0  0  0  0  0  0  0  0  0  0
    7.1200  -12.5085   26.4609 C   0  0  2  0  0  0  0  0  0  0  0  0
    6.0087  -11.6868   26.9992 C   0  0  0  0  0  0  0  0  0  0  0  0
    7.9858  -13.1472   27.4728 C   0  0  0  0  0  0  0  0  0  0  0  0
    8.8871  -14.2552   27.0404 C   0  0  2  0  0  0  0  0  0  0  0  0
    7.9900  -15.1670   26.2761 N   0  0  0  0  0  0  0  0  0  0  0  0
    9.5729  -14.9958   28.0899 C   0  0  0  0  0  0  0  0  0  0  0  0
    9.3585  -16.3463   28.3969 O   0  0  0  0  0  0  0  0  0  0  0  0
   10.4335  -14.4225   28.8102 O   0  0  0  0  0  0  0  0  0  0  0  0
  1  2  1  0
  3  4  1  1
  3  2  1  0
  5  3  1  0
  5  6  1  6
  7  5  1  0
  8  7  2  0
 10 11  1  0
 10  9  1  0
 11 12  1  0
 13 12  1  1
 13 14  1  0
 14  7  1  0
 15 22  1  0
 15 13  1  0
 16 15  2  0
 18 19  1  1
 18 17  1  0
 20 18  1  0
 21 20  1  1
 21 22  1  0
 23 24  1  0
 23 21  1  0
 25 23  2  0
M  END
$$$$
