IML.pdb
     RDKit          3D

 25 24  0  0  1  0  0  0  0  0999 V2000
   12.4373  -20.9821   20.2782 C   0  0  0  0  0  0  0  0  0  0  0  0
   11.6147  -19.8210   19.8139 C   0  0  0  0  0  0  0  0  0  0  0  0
   11.4313  -18.7534   20.8618 C   0  0  2  0  0  0  0  0  0  0  0  0
   10.8213  -19.2428   22.1283 C   0  0  0  0  0  0  0  0  0  0  0  0
   10.5075  -17.6971   20.2728 C   0  0  2  0  0  0  0  0  0  0  0  0
   11.0273  -17.1774   19.0273 N   0  0  0  0  0  0  0  0  0  0  0  0
   10.2853  -16.5698   21.2109 C   0  0  0  0  0  0  0  0  0  0  0  0
   11.1468  -15.6745   21.4207 O   0  0  0  0  0  0  0  0  0  0  0  0
    6.2531  -12.7642   26.2908 C   0  0  0  0  0  0  0  0  0  0  0  0
    6.9659  -14.1616   25.3824 S   0  0  0  0  0  0  0  0  0  0  0  0
    7.0227  -13.7901   23.5912 C   0  0  0  0  0  0  0  0  0  0  0  0
    7.3243  -15.0208   22.7959 C   0  0  0  0  0  0  0  0  0  0  0  0
    8.7677  -15.3465   22.8421 C   0  0  2  0  0  0  0  0  0  0  0  0
    9.0738  -16.4497   21.9237 N   0  0  0  0  0  0  0  0  0  0  0  0
    9.1881  -15.7914   24.1656 C   0  0  0  0  0  0  0  0  0  0  0  0
    8.8425  -16.9580   24.5612 O   0  0  0  0  0  0  0  0  0  0  0  0
    9.8719  -15.8300   29.3238 C   0  0  0  0  0  0  0  0  0  0  0  0
   10.4545  -14.5700   28.7263 C   0  0  2  0  0  0  0  0  0  0  0  0
   10.3019  -13.3549   29.5632 C   0  0  0  0  0  0  0  0  0  0  0  0
   10.2031  -14.3828   27.2829 C   0  0  0  0  0  0  0  0  0  0  0  0
   10.3403  -15.5618   26.3783 C   0  0  2  0  0  0  0  0  0  0  0  0
    9.9576  -15.0307   25.0397 N   0  0  0  0  0  0  0  0  0  0  0  0
    9.5385  -16.7348   26.6966 C   0  0  0  0  0  0  0  0  0  0  0  0
    8.1377  -16.7776   26.7025 O   0  0  0  0  0  0  0  0  0  0  0  0
   10.0996  -17.8212   27.0014 O   0  0  0  0  0  0  0  0  0  0  0  0
  1  2  1  0
  3  4  1  1
  3  2  1  0
  5  3  1  0
  5  6  1  6
  7  5  1  0
  8  7  2  0
 10 11  1  0
 10  9  1  0
 11 12  1  0
 13 12  1  1
 13 14  1  0
 14  7  1  0
 15 22  1  0
 15 13  1  0
 16 15  2  0
 18 19  1  1
 18 17  1  0
 20 18  1  0
 21 20  1  1
 21 22  1  0
 23 24  1  0
 23 21  1  0
 25 23  2  0
M  END
$$$$
