IML.pdb
     RDKit          3D

 25 24  0  0  1  0  0  0  0  0999 V2000
    5.8317  -21.0788   26.8420 C   0  0  0  0  0  0  0  0  0  0  0  0
    5.8405  -20.7250   25.3876 C   0  0  0  0  0  0  0  0  0  0  0  0
    6.6824  -19.5172   25.0650 C   0  0  2  0  0  0  0  0  0  0  0  0
    6.2101  -18.2585   25.7040 C   0  0  0  0  0  0  0  0  0  0  0  0
    6.6353  -19.3246   23.5561 C   0  0  2  0  0  0  0  0  0  0  0  0
    6.8280  -20.5767   22.8584 N   0  0  0  0  0  0  0  0  0  0  0  0
    7.6524  -18.3508   23.0897 C   0  0  0  0  0  0  0  0  0  0  0  0
    8.8701  -18.6452   22.9550 O   0  0  0  0  0  0  0  0  0  0  0  0
    6.3531  -13.2532   19.1865 C   0  0  0  0  0  0  0  0  0  0  0  0
    7.5962  -12.5129   20.2786 S   0  0  0  0  0  0  0  0  0  0  0  0
    8.4659  -13.8166   21.2240 C   0  0  0  0  0  0  0  0  0  0  0  0
    7.5471  -14.9534   21.5427 C   0  0  0  0  0  0  0  0  0  0  0  0
    8.2431  -15.9999   22.3251 C   0  0  2  0  0  0  0  0  0  0  0  0
    7.2916  -17.0248   22.7703 N   0  0  0  0  0  0  0  0  0  0  0  0
    8.8580  -15.4640   23.5338 C   0  0  0  0  0  0  0  0  0  0  0  0
    9.9901  -14.8756   23.4393 O   0  0  0  0  0  0  0  0  0  0  0  0
    8.1634  -11.8661   25.5807 C   0  0  0  0  0  0  0  0  0  0  0  0
    7.2099  -12.9905   25.9132 C   0  0  2  0  0  0  0  0  0  0  0  0
    5.8834  -12.5552   26.4142 C   0  0  0  0  0  0  0  0  0  0  0  0
    7.8117  -14.1376   26.6229 C   0  0  0  0  0  0  0  0  0  0  0  0
    8.9338  -14.8707   25.9666 C   0  0  2  0  0  0  0  0  0  0  0  0
    8.2896  -15.5392   24.8011 N   0  0  0  0  0  0  0  0  0  0  0  0
    9.6428  -15.8526   26.7748 C   0  0  0  0  0  0  0  0  0  0  0  0
   10.5321  -15.5512   27.8152 O   0  0  0  0  0  0  0  0  0  0  0  0
    9.4822  -17.0839   26.5599 O   0  0  0  0  0  0  0  0  0  0  0  0
  1  2  1  0
  3  4  1  1
  3  2  1  0
  5  3  1  0
  5  6  1  6
  7  5  1  0
  8  7  2  0
 10 11  1  0
 10  9  1  0
 11 12  1  0
 13 12  1  1
 13 14  1  0
 14  7  1  0
 15 22  1  0
 15 13  1  0
 16 15  2  0
 18 19  1  1
 18 17  1  0
 20 18  1  0
 21 20  1  1
 21 22  1  0
 23 24  1  0
 23 21  1  0
 25 23  2  0
M  END
$$$$
