RIA.pdb
     RDKit          3D

 25 24  0  0  1  0  0  0  0  0999 V2000
   20.8495  -20.3205  -11.8415 N   0  0  0  0  0  0  0  0  0  0  0  0
   19.4344  -20.0336  -11.8759 C   0  0  0  0  0  0  0  0  0  0  0  0
   18.7981  -19.8719  -10.7663 N   0  0  0  0  0  0  0  0  0  0  0  0
   18.7353  -19.9288  -13.0949 N   0  0  0  0  0  0  0  0  0  0  0  0
   19.4377  -19.9551  -14.3928 C   0  0  0  0  0  0  0  0  0  0  0  0
   19.9254  -18.5699  -14.6774 C   0  0  0  0  0  0  0  0  0  0  0  0
   21.3772  -18.3137  -14.4645 C   0  0  0  0  0  0  0  0  0  0  0  0
   22.2870  -18.6701  -15.6030 C   0  0  2  0  0  0  0  0  0  0  0  0
   21.5627  -19.4676  -16.5622 N   0  0  0  0  0  0  0  0  0  0  0  0
   23.4269  -19.5065  -15.0872 C   0  0  0  0  0  0  0  0  0  0  0  0
   23.3755  -20.7477  -15.1707 O   0  0  0  0  0  0  0  0  0  0  0  0
   17.7757  -19.7410  -10.6698 C   0  0  0  0  0  0  0  0  0  0  0  0
   27.5214  -16.8146  -15.7168 C   0  0  0  0  0  0  0  0  0  0  0  0
   27.3262  -18.2861  -15.6726 C   0  0  2  0  0  0  0  0  0  0  0  0
   27.0532  -18.8870  -14.3384 C   0  0  0  0  0  0  0  0  0  0  0  0
   28.2604  -19.5666  -13.7359 C   0  0  2  0  0  0  0  0  0  0  0  0
   25.7888  -19.6974  -14.2402 N   0  0  0  0  0  0  0  0  0  0  0  0
   24.5910  -18.9187  -14.4921 C   0  0  0  0  0  0  0  0  0  0  0  0
   25.7508  -20.3339  -12.9023 O   0  0  0  0  0  0  0  0  0  0  0  0
   26.5553  -21.2500  -12.5736 C   0  0  0  0  0  0  0  0  0  0  0  0
   24.1725  -21.7939  -10.6484 C   0  0  1  0  0  0  0  0  0  0  0  0
   24.7582  -20.3751  -10.5868 N   0  0  0  0  0  0  0  0  0  0  0  0
   24.7928  -19.9118  -11.9569 C   0  0  0  0  0  0  0  0  0  0  0  0
   26.0983  -20.5010   -9.9853 O   0  0  0  0  0  0  0  0  0  0  0  0
   27.1593  -20.3211  -10.6290 O   0  0  0  0  0  0  0  0  0  0  0  0
  1  2  1  0
  2  3  2  0
  4  5  1  0
  4  2  1  0
  6  7  1  0
  6  5  1  0
  8  7  1  0
  8  9  1  6
  8 10  1  0
 10 11  2  0
 13 12  1  0
 14 13  1  0
 14 15  1  1
 16 14  1  0
 16 17  1  6
 17 10  1  0
 18 19  2  0
 18 16  1  0
 21 20  1  1
 21 22  1  0
 22 18  1  0
 23 25  1  0
 23 21  1  0
 24 23  2  0
M  END
$$$$
