RIA.pdb
     RDKit          3D

 25 24  0  0  1  0  0  0  0  0999 V2000
   18.5430  -24.5005   -6.3439 N   0  0  0  0  0  0  0  0  0  0  0  0
   17.8758  -25.2607   -7.3749 C   0  0  0  0  0  0  0  0  0  0  0  0
   16.6918  -25.7197   -7.1517 N   0  0  0  0  0  0  0  0  0  0  0  0
   18.4917  -25.5125   -8.6171 N   0  0  0  0  0  0  0  0  0  0  0  0
   19.4131  -24.5384   -9.2339 C   0  0  0  0  0  0  0  0  0  0  0  0
   18.5902  -23.5509   -9.9991 C   0  0  0  0  0  0  0  0  0  0  0  0
   19.3303  -22.4808  -10.7240 C   0  0  0  0  0  0  0  0  0  0  0  0
   19.8092  -21.3268   -9.8933 C   0  0  2  0  0  0  0  0  0  0  0  0
   18.7310  -20.3850   -9.7166 N   0  0  0  0  0  0  0  0  0  0  0  0
   20.9178  -20.6149  -10.6207 C   0  0  0  0  0  0  0  0  0  0  0  0
   20.7311  -19.4697  -11.0719 O   0  0  0  0  0  0  0  0  0  0  0  0
   16.1475  -26.3237   -7.7924 C   0  0  0  0  0  0  0  0  0  0  0  0
   24.3860  -20.9517   -8.5178 C   0  0  0  0  0  0  0  0  0  0  0  0
   24.9692  -20.2753   -9.7042 C   0  0  2  0  0  0  0  0  0  0  0  0
   24.6344  -20.8496  -11.0361 C   0  0  0  0  0  0  0  0  0  0  0  0
   25.7262  -20.6476  -12.0604 C   0  0  2  0  0  0  0  0  0  0  0  0
   23.2553  -20.5332  -11.5491 N   0  0  0  0  0  0  0  0  0  0  0  0
   22.2043  -21.2156  -10.8182 C   0  0  0  0  0  0  0  0  0  0  0  0
   23.2130  -20.8618  -12.9936 O   0  0  0  0  0  0  0  0  0  0  0  0
   23.3753  -22.0403  -13.4171 C   0  0  0  0  0  0  0  0  0  0  0  0
   24.1402  -20.6515  -15.8423 C   0  0  1  0  0  0  0  0  0  0  0  0
   22.8049  -20.0721  -15.3511 N   0  0  0  0  0  0  0  0  0  0  0  0
   22.9837  -19.8366  -13.9350 C   0  0  0  0  0  0  0  0  0  0  0  0
   21.7757  -21.0864  -15.6430 O   0  0  0  0  0  0  0  0  0  0  0  0
   21.1087  -21.6638  -14.7518 O   0  0  0  0  0  0  0  0  0  0  0  0
  1  2  1  0
  2  3  2  0
  4  5  1  0
  4  2  1  0
  6  7  1  0
  6  5  1  0
  8  7  1  0
  8  9  1  6
  8 10  1  0
 10 11  2  0
 13 12  1  0
 14 13  1  0
 14 15  1  6
 16 14  1  0
 16 17  1  6
 17 10  1  0
 18 19  2  0
 18 16  1  0
 21 20  1  6
 21 22  1  0
 22 18  1  0
 23 25  1  0
 23 21  1  0
 24 23  2  0
M  END
$$$$
