RIA.pdb
     RDKit          3D

 25 24  0  0  1  0  0  0  0  0999 V2000
   22.5980  -21.6836  -14.9443 N   0  0  0  0  0  0  0  0  0  0  0  0
   22.4774  -22.9459  -14.2528 C   0  0  0  0  0  0  0  0  0  0  0  0
   21.3885  -23.6262  -14.3705 N   0  0  0  0  0  0  0  0  0  0  0  0
   23.5225  -23.4477  -13.4518 N   0  0  0  0  0  0  0  0  0  0  0  0
   23.9965  -22.7222  -12.2571 C   0  0  0  0  0  0  0  0  0  0  0  0
   24.2558  -21.3039  -12.6557 C   0  0  0  0  0  0  0  0  0  0  0  0
   24.6247  -20.3582  -11.5657 C   0  0  0  0  0  0  0  0  0  0  0  0
   24.4409  -20.8590  -10.1634 C   0  0  2  0  0  0  0  0  0  0  0  0
   23.0790  -20.6280   -9.7479 N   0  0  0  0  0  0  0  0  0  0  0  0
   25.3356  -20.0823   -9.2353 C   0  0  0  0  0  0  0  0  0  0  0  0
   25.2332  -18.8436   -9.1642 O   0  0  0  0  0  0  0  0  0  0  0  0
   21.1876  -24.5296  -13.9067 C   0  0  0  0  0  0  0  0  0  0  0  0
   26.5189  -20.7719   -4.0465 C   0  0  0  0  0  0  0  0  0  0  0  0
   26.3700  -20.2887   -5.4427 C   0  0  2  0  0  0  0  0  0  0  0  0
   27.5713  -20.3819   -6.3168 C   0  0  0  0  0  0  0  0  0  0  0  0
   28.8105  -19.7906   -5.6867 C   0  0  2  0  0  0  0  0  0  0  0  0
   27.3631  -19.9689   -7.7491 N   0  0  0  0  0  0  0  0  0  0  0  0
   26.3196  -20.7255   -8.4149 C   0  0  0  0  0  0  0  0  0  0  0  0
   28.6587  -20.0914   -8.4582 O   0  0  0  0  0  0  0  0  0  0  0  0
   29.6715  -19.4155   -8.1235 C   0  0  0  0  0  0  0  0  0  0  0  0
   30.5654  -22.2689  -10.4378 C   0  0  2  0  0  0  0  0  0  0  0  0
   29.8354  -20.9201  -10.5262 N   0  0  0  0  0  0  0  0  0  0  0  0
   28.7785  -20.9878   -9.5407 C   0  0  0  0  0  0  0  0  0  0  0  0
   29.3317  -20.8063  -11.9070 O   0  0  0  0  0  0  0  0  0  0  0  0
   28.1123  -20.8387  -12.1978 O   0  0  0  0  0  0  0  0  0  0  0  0
  1  2  1  0
  2  3  2  0
  4  5  1  0
  4  2  1  0
  6  7  1  0
  6  5  1  0
  8  7  1  0
  8  9  1  1
  8 10  1  0
 10 11  2  0
 13 12  1  0
 14 13  1  0
 14 15  1  6
 16 14  1  0
 16 17  1  6
 17 10  1  0
 18 19  2  0
 18 16  1  0
 21 20  1  1
 21 22  1  0
 22 18  1  0
 23 25  1  0
 23 21  1  0
 24 23  2  0
M  END
$$$$
