RIA.pdb
     RDKit          3D

 25 24  0  0  1  0  0  0  0  0999 V2000
   19.9067  -23.1184   -9.8657 N   0  0  0  0  0  0  0  0  0  0  0  0
   20.0924  -22.5383   -8.5561 C   0  0  0  0  0  0  0  0  0  0  0  0
   19.8720  -23.2605   -7.5110 N   0  0  0  0  0  0  0  0  0  0  0  0
   20.5068  -21.2009   -8.3969 N   0  0  0  0  0  0  0  0  0  0  0  0
   21.5005  -20.5876   -9.2995 C   0  0  0  0  0  0  0  0  0  0  0  0
   22.8294  -21.2094   -9.0077 C   0  0  0  0  0  0  0  0  0  0  0  0
   23.9680  -20.7944   -9.8736 C   0  0  0  0  0  0  0  0  0  0  0  0
   23.7418  -20.8839  -11.3540 C   0  0  2  0  0  0  0  0  0  0  0  0
   23.9416  -22.2453  -11.7868 N   0  0  0  0  0  0  0  0  0  0  0  0
   24.7553  -20.0290  -12.0659 C   0  0  0  0  0  0  0  0  0  0  0  0
   24.8452  -18.8165  -11.7974 O   0  0  0  0  0  0  0  0  0  0  0  0
   20.0536  -22.9775   -6.5320 C   0  0  0  0  0  0  0  0  0  0  0  0
   29.2573  -21.3674  -11.6778 C   0  0  0  0  0  0  0  0  0  0  0  0
   28.4606  -20.1883  -12.1026 C   0  0  2  0  0  0  0  0  0  0  0  0
   28.0244  -20.1504  -13.5252 C   0  0  0  0  0  0  0  0  0  0  0  0
   29.0159  -19.4590  -14.4313 C   0  0  2  0  0  0  0  0  0  0  0  0
   26.5977  -19.7289  -13.7535 N   0  0  0  0  0  0  0  0  0  0  0  0
   25.6374  -20.5663  -13.0599 C   0  0  0  0  0  0  0  0  0  0  0  0
   26.3487  -19.7136  -15.2144 O   0  0  0  0  0  0  0  0  0  0  0  0
   26.3167  -20.7741  -15.8993 C   0  0  0  0  0  0  0  0  0  0  0  0
   25.7193  -16.8613  -17.5551 C   0  0  2  0  0  0  0  0  0  0  0  0
   25.9028  -18.3641  -17.2949 N   0  0  0  0  0  0  0  0  0  0  0  0
   26.1376  -18.4839  -15.8724 C   0  0  0  0  0  0  0  0  0  0  0  0
   27.0549  -18.7924  -18.1089 O   0  0  0  0  0  0  0  0  0  0  0  0
   26.9383  -19.4358  -19.1789 O   0  0  0  0  0  0  0  0  0  0  0  0
  1  2  1  0
  2  3  2  0
  4  5  1  0
  4  2  1  0
  6  7  1  0
  6  5  1  0
  8  7  1  0
  8  9  1  6
  8 10  1  0
 10 11  2  0
 13 12  1  0
 14 13  1  0
 14 15  1  6
 16 14  1  0
 16 17  1  1
 17 10  1  0
 18 19  2  0
 18 16  1  0
 21 20  1  1
 21 22  1  0
 22 18  1  0
 23 25  1  0
 23 21  1  0
 24 23  2  0
M  END
$$$$
