RIA.pdb
     RDKit          3D

 25 24  0  0  1  0  0  0  0  0999 V2000
   34.2546  -28.6614  -20.9708 N   0  0  0  0  0  0  0  0  0  0  0  0
   33.7022  -29.6223  -20.0448 C   0  0  0  0  0  0  0  0  0  0  0  0
   34.4489  -30.5804  -19.6122 N   0  0  0  0  0  0  0  0  0  0  0  0
   32.3658  -29.5360  -19.6063 N   0  0  0  0  0  0  0  0  0  0  0  0
   31.7613  -28.2460  -19.2205 C   0  0  0  0  0  0  0  0  0  0  0  0
   31.8454  -28.1280  -17.7317 C   0  0  0  0  0  0  0  0  0  0  0  0
   30.6108  -27.6887  -17.0236 C   0  0  0  0  0  0  0  0  0  0  0  0
   29.6275  -26.8975  -17.8347 C   0  0  2  0  0  0  0  0  0  0  0  0
   29.9915  -25.5021  -17.7991 N   0  0  0  0  0  0  0  0  0  0  0  0
   28.2589  -27.0244  -17.2217 C   0  0  0  0  0  0  0  0  0  0  0  0
   27.9743  -26.3789  -16.1959 O   0  0  0  0  0  0  0  0  0  0  0  0
   34.1532  -31.3307  -18.9632 C   0  0  0  0  0  0  0  0  0  0  0  0
   23.8871  -25.6761  -19.5349 C   0  0  0  0  0  0  0  0  0  0  0  0
   24.9320  -26.1345  -18.5845 C   0  0  2  0  0  0  0  0  0  0  0  0
   24.8282  -27.5377  -18.0986 C   0  0  0  0  0  0  0  0  0  0  0  0
   23.4461  -27.8928  -17.6028 C   0  0  2  0  0  0  0  0  0  0  0  0
   25.9353  -27.9896  -17.1846 N   0  0  0  0  0  0  0  0  0  0  0  0
   27.2517  -27.8758  -17.7834 C   0  0  0  0  0  0  0  0  0  0  0  0
   25.6486  -29.3818  -16.7650 O   0  0  0  0  0  0  0  0  0  0  0  0
   24.6051  -29.6859  -16.1221 C   0  0  0  0  0  0  0  0  0  0  0  0
   27.0516  -32.6145  -17.8181 C   0  0  2  0  0  0  0  0  0  0  0  0
   26.3784  -31.7927  -16.7084 N   0  0  0  0  0  0  0  0  0  0  0  0
   26.5599  -30.4087  -17.0886 C   0  0  0  0  0  0  0  0  0  0  0  0
   27.0668  -32.1420  -15.4524 O   0  0  0  0  0  0  0  0  0  0  0  0
   27.0606  -33.2971  -14.9644 O   0  0  0  0  0  0  0  0  0  0  0  0
  1  2  1  0
  2  3  2  0
  4  5  1  0
  4  2  1  0
  6  7  1  0
  6  5  1  0
  8  7  1  0
  8  9  1  1
  8 10  1  0
 10 11  2  0
 13 12  1  0
 14 13  1  0
 14 15  1  6
 16 14  1  0
 16 17  1  1
 17 10  1  0
 18 19  2  0
 18 16  1  0
 21 20  1  6
 21 22  1  0
 22 18  1  0
 23 25  1  0
 23 21  1  0
 24 23  2  0
M  END
$$$$
