RIA.pdb
     RDKit          3D

 25 24  0  0  1  0  0  0  0  0999 V2000
   37.4957   -7.5360  -11.8113 N   0  0  0  0  0  0  0  0  0  0  0  0
   37.5095   -7.0995  -13.1879 C   0  0  0  0  0  0  0  0  0  0  0  0
   38.5370   -7.3623  -13.9211 N   0  0  0  0  0  0  0  0  0  0  0  0
   36.4258   -6.3918  -13.7452 N   0  0  0  0  0  0  0  0  0  0  0  0
   35.3909   -7.0713  -14.5487 C   0  0  0  0  0  0  0  0  0  0  0  0
   35.8606   -7.1020  -15.9686 C   0  0  0  0  0  0  0  0  0  0  0  0
   34.8978   -7.6168  -16.9819 C   0  0  0  0  0  0  0  0  0  0  0  0
   34.2912   -8.9593  -16.6977 C   0  0  2  0  0  0  0  0  0  0  0  0
   35.3057   -9.9776  -16.8190 N   0  0  0  0  0  0  0  0  0  0  0  0
   33.2292   -9.2536  -17.7225 C   0  0  0  0  0  0  0  0  0  0  0  0
   33.4928   -9.9750  -18.7024 O   0  0  0  0  0  0  0  0  0  0  0  0
   38.6802   -7.0453  -14.8961 C   0  0  0  0  0  0  0  0  0  0  0  0
   28.3557  -10.9174  -16.3805 C   0  0  0  0  0  0  0  0  0  0  0  0
   29.5741  -10.6372  -17.1819 C   0  0  2  0  0  0  0  0  0  0  0  0
   29.5622   -9.4014  -18.0116 C   0  0  0  0  0  0  0  0  0  0  0  0
   28.4143   -9.3571  -18.9928 C   0  0  2  0  0  0  0  0  0  0  0  0
   30.8869   -9.0107  -18.6097 N   0  0  0  0  0  0  0  0  0  0  0  0
   31.9011   -8.7254  -17.6124 C   0  0  0  0  0  0  0  0  0  0  0  0
   30.6652   -7.8508  -19.5053 O   0  0  0  0  0  0  0  0  0  0  0  0
   30.4368   -6.6927  -19.0568 C   0  0  0  0  0  0  0  0  0  0  0  0
   30.7712   -7.5898  -23.2359 C   0  0  2  0  0  0  0  0  0  0  0  0
   30.5058   -6.9641  -21.8582 N   0  0  0  0  0  0  0  0  0  0  0  0
   30.7097   -8.0317  -20.9035 C   0  0  0  0  0  0  0  0  0  0  0  0
   29.1176   -6.4687  -21.8837 O   0  0  0  0  0  0  0  0  0  0  0  0
   28.1192   -7.2170  -21.7577 O   0  0  0  0  0  0  0  0  0  0  0  0
  1  2  1  0
  2  3  2  0
  4  5  1  0
  4  2  1  0
  6  7  1  0
  6  5  1  0
  8  7  1  0
  8  9  1  6
  8 10  1  0
 10 11  2  0
 13 12  1  0
 14 13  1  0
 14 15  1  1
 16 14  1  0
 16 17  1  6
 17 10  1  0
 18 19  2  0
 18 16  1  0
 21 20  1  1
 21 22  1  0
 22 18  1  0
 23 25  1  0
 23 21  1  0
 24 23  2  0
M  END
$$$$
