RIA.pdb
     RDKit          3D

 25 24  0  0  1  0  0  0  0  0999 V2000
   27.5237  -41.1467   -9.9971 N   0  0  0  0  0  0  0  0  0  0  0  0
   26.3050  -40.4264   -9.7110 C   0  0  0  0  0  0  0  0  0  0  0  0
   25.3667  -40.4013  -10.5949 N   0  0  0  0  0  0  0  0  0  0  0  0
   26.1211  -39.7498   -8.4886 N   0  0  0  0  0  0  0  0  0  0  0  0
   27.2665  -39.2614   -7.6962 C   0  0  0  0  0  0  0  0  0  0  0  0
   26.7293  -38.6697   -6.4317 C   0  0  0  0  0  0  0  0  0  0  0  0
   27.7166  -38.0267   -5.5205 C   0  0  0  0  0  0  0  0  0  0  0  0
   28.3021  -36.7271   -5.9886 C   0  0  2  0  0  0  0  0  0  0  0  0
   29.3994  -36.3594   -5.1275 N   0  0  0  0  0  0  0  0  0  0  0  0
   27.2616  -35.6449   -5.8836 C   0  0  0  0  0  0  0  0  0  0  0  0
   27.1362  -35.0028   -4.8243 O   0  0  0  0  0  0  0  0  0  0  0  0
   24.4795  -39.8733  -10.5191 C   0  0  0  0  0  0  0  0  0  0  0  0
   27.0589  -32.3659   -9.7748 C   0  0  0  0  0  0  0  0  0  0  0  0
   26.8719  -32.8491   -8.3831 C   0  0  2  0  0  0  0  0  0  0  0  0
   25.4947  -33.2587   -7.9943 C   0  0  0  0  0  0  0  0  0  0  0  0
   24.5490  -32.0903   -7.8430 C   0  0  2  0  0  0  0  0  0  0  0  0
   25.4092  -34.2575   -6.8717 N   0  0  0  0  0  0  0  0  0  0  0  0
   26.3928  -35.3187   -6.9762 C   0  0  0  0  0  0  0  0  0  0  0  0
   24.0296  -34.7979   -6.8382 O   0  0  0  0  0  0  0  0  0  0  0  0
   23.6413  -35.6922   -7.6407 C   0  0  0  0  0  0  0  0  0  0  0  0
   20.9457  -34.2514   -6.8550 C   0  0  1  0  0  0  0  0  0  0  0  0
   21.7789  -34.8401   -5.7064 N   0  0  0  0  0  0  0  0  0  0  0  0
   23.1125  -34.3084   -5.8848 C   0  0  0  0  0  0  0  0  0  0  0  0
   21.7168  -36.3058   -5.8526 O   0  0  0  0  0  0  0  0  0  0  0  0
   22.7231  -37.0152   -6.0906 O   0  0  0  0  0  0  0  0  0  0  0  0
  1  2  1  0
  2  3  2  0
  4  5  1  0
  4  2  1  0
  6  7  1  0
  6  5  1  0
  8  7  1  0
  8  9  1  1
  8 10  1  0
 10 11  2  0
 13 12  1  0
 14 13  1  0
 14 15  1  6
 16 14  1  0
 16 17  1  1
 17 10  1  0
 18 19  2  0
 18 16  1  0
 21 20  1  1
 21 22  1  0
 22 18  1  0
 23 25  1  0
 23 21  1  0
 24 23  2  0
M  END
$$$$
