RIA.pdb
     RDKit          3D

 25 24  0  0  1  0  0  0  0  0999 V2000
   22.1525  -21.9979  -15.3520 N   0  0  0  0  0  0  0  0  0  0  0  0
   22.1460  -20.6248  -15.7996 C   0  0  0  0  0  0  0  0  0  0  0  0
   21.0396  -19.9628  -15.7831 N   0  0  0  0  0  0  0  0  0  0  0  0
   23.3213  -19.9948  -16.2552 N   0  0  0  0  0  0  0  0  0  0  0  0
   24.5927  -20.1027  -15.5134 C   0  0  0  0  0  0  0  0  0  0  0  0
   24.4558  -19.3095  -14.2526 C   0  0  0  0  0  0  0  0  0  0  0  0
   24.4539  -20.0761  -12.9755 C   0  0  0  0  0  0  0  0  0  0  0  0
   25.7944  -20.3221  -12.3482 C   0  0  2  0  0  0  0  0  0  0  0  0
   26.5300  -21.2703  -13.1486 N   0  0  0  0  0  0  0  0  0  0  0  0
   25.6030  -20.9317  -10.9856 C   0  0  0  0  0  0  0  0  0  0  0  0
   25.3587  -22.1476  -10.8766 O   0  0  0  0  0  0  0  0  0  0  0  0
   20.9123  -18.9908  -16.1156 C   0  0  0  0  0  0  0  0  0  0  0  0
   28.1399  -18.8017   -6.7318 C   0  0  0  0  0  0  0  0  0  0  0  0
   27.4886  -19.9259   -7.4510 C   0  0  2  0  0  0  0  0  0  0  0  0
   26.0073  -20.0236   -7.3424 C   0  0  0  0  0  0  0  0  0  0  0  0
   25.5425  -20.5050   -5.9880 C   0  0  2  0  0  0  0  0  0  0  0  0
   25.3171  -20.7000   -8.4962 N   0  0  0  0  0  0  0  0  0  0  0  0
   25.6923  -20.1520   -9.7860 C   0  0  0  0  0  0  0  0  0  0  0  0
   23.8542  -20.6131   -8.2747 O   0  0  0  0  0  0  0  0  0  0  0  0
   23.2141  -19.5379   -8.4447 C   0  0  0  0  0  0  0  0  0  0  0  0
   21.2391  -23.1740   -7.9827 C   0  0  2  0  0  0  0  0  0  0  0  0
   21.7212  -21.7683   -7.5935 N   0  0  0  0  0  0  0  0  0  0  0  0
   23.1426  -21.7592   -7.8628 C   0  0  0  0  0  0  0  0  0  0  0  0
   21.4027  -21.5971   -6.1643 O   0  0  0  0  0  0  0  0  0  0  0  0
   22.2561  -21.7098   -5.2524 O   0  0  0  0  0  0  0  0  0  0  0  0
  1  2  1  0
  2  3  2  0
  4  5  1  0
  4  2  1  0
  6  7  1  0
  6  5  1  0
  8  7  1  0
  8  9  1  6
  8 10  1  0
 10 11  2  0
 13 12  1  0
 14 13  1  0
 14 15  1  6
 16 14  1  0
 16 17  1  6
 17 10  1  0
 18 19  2  0
 18 16  1  0
 21 20  1  6
 21 22  1  0
 22 18  1  0
 23 25  1  0
 23 21  1  0
 24 23  2  0
M  END
$$$$
