RIA.pdb
     RDKit          3D

 25 24  0  0  1  0  0  0  0  0999 V2000
   18.6228  -15.6203  -15.7184 N   0  0  0  0  0  0  0  0  0  0  0  0
   19.6590  -15.3891  -16.6976 C   0  0  0  0  0  0  0  0  0  0  0  0
   19.3491  -15.3699  -17.9490 N   0  0  0  0  0  0  0  0  0  0  0  0
   20.9998  -15.1862  -16.3146 N   0  0  0  0  0  0  0  0  0  0  0  0
   21.8361  -16.2944  -15.8137 C   0  0  0  0  0  0  0  0  0  0  0  0
   21.1357  -17.5771  -16.1331 C   0  0  0  0  0  0  0  0  0  0  0  0
   21.8508  -18.8361  -15.7836 C   0  0  0  0  0  0  0  0  0  0  0  0
   23.0237  -19.1939  -16.6480 C   0  0  2  0  0  0  0  0  0  0  0  0
   22.5749  -20.0114  -17.7485 N   0  0  0  0  0  0  0  0  0  0  0  0
   24.0025  -20.0099  -15.8474 C   0  0  0  0  0  0  0  0  0  0  0  0
   23.8651  -21.2448  -15.7682 O   0  0  0  0  0  0  0  0  0  0  0  0
   20.0007  -15.1757  -18.7297 C   0  0  0  0  0  0  0  0  0  0  0  0
   28.6626  -18.4189  -16.2113 C   0  0  0  0  0  0  0  0  0  0  0  0
   27.9980  -19.6867  -15.8161 C   0  0  2  0  0  0  0  0  0  0  0  0
   27.4416  -19.7512  -14.4370 C   0  0  0  0  0  0  0  0  0  0  0  0
   28.3623  -20.4406  -13.4577 C   0  0  2  0  0  0  0  0  0  0  0  0
   26.0074  -20.1968  -14.3380 N   0  0  0  0  0  0  0  0  0  0  0  0
   25.1073  -19.4093  -15.1592 C   0  0  0  0  0  0  0  0  0  0  0  0
   25.6102  -20.1617  -12.9106 O   0  0  0  0  0  0  0  0  0  0  0  0
   25.3536  -19.0789  -12.3136 C   0  0  0  0  0  0  0  0  0  0  0  0
   26.0277  -20.5298  -10.0244 C   0  0  1  0  0  0  0  0  0  0  0  0
   25.0725  -21.4423  -10.8085 N   0  0  0  0  0  0  0  0  0  0  0  0
   25.5102  -21.3673  -12.1854 C   0  0  0  0  0  0  0  0  0  0  0  0
   23.7157  -20.9036  -10.6032 O   0  0  0  0  0  0  0  0  0  0  0  0
   23.0156  -20.4344  -11.5317 O   0  0  0  0  0  0  0  0  0  0  0  0
  1  2  1  0
  2  3  2  0
  4  5  1  0
  4  2  1  0
  6  7  1  0
  6  5  1  0
  8  7  1  0
  8  9  1  6
  8 10  1  0
 10 11  2  0
 13 12  1  0
 14 13  1  0
 14 15  1  1
 16 14  1  0
 16 17  1  6
 17 10  1  0
 18 19  2  0
 18 16  1  0
 21 20  1  1
 21 22  1  0
 22 18  1  0
 23 25  1  0
 23 21  1  0
 24 23  2  0
M  END
$$$$
