RIA.pdb
     RDKit          3D

 25 24  0  0  1  0  0  0  0  0999 V2000
   17.6684  -29.1066  -10.7953 N   0  0  0  0  0  0  0  0  0  0  0  0
   18.6663  -29.6493   -9.9033 C   0  0  0  0  0  0  0  0  0  0  0  0
   19.1574  -30.8168  -10.1442 N   0  0  0  0  0  0  0  0  0  0  0  0
   19.1123  -28.9313   -8.7757 N   0  0  0  0  0  0  0  0  0  0  0  0
   19.2463  -27.4616   -8.7993 C   0  0  0  0  0  0  0  0  0  0  0  0
   18.2045  -26.9218   -9.7271 C   0  0  0  0  0  0  0  0  0  0  0  0
   18.1860  -25.4460   -9.9280 C   0  0  0  0  0  0  0  0  0  0  0  0
   18.6955  -24.6154   -8.7871 C   0  0  2  0  0  0  0  0  0  0  0  0
   17.7645  -24.6906   -7.6879 N   0  0  0  0  0  0  0  0  0  0  0  0
   18.7749  -23.1749   -9.2156 C   0  0  0  0  0  0  0  0  0  0  0  0
   17.8634  -22.3837   -8.9103 O   0  0  0  0  0  0  0  0  0  0  0  0
   19.8269  -31.3266   -9.5413 C   0  0  0  0  0  0  0  0  0  0  0  0
   23.4639  -20.5168   -8.9618 C   0  0  0  0  0  0  0  0  0  0  0  0
   22.0291  -20.8962   -9.0118 C   0  0  2  0  0  0  0  0  0  0  0  0
   21.3278  -20.6997  -10.3100 C   0  0  0  0  0  0  0  0  0  0  0  0
   21.4264  -19.2844  -10.8290 C   0  0  2  0  0  0  0  0  0  0  0  0
   19.9417  -21.2804  -10.3911 N   0  0  0  0  0  0  0  0  0  0  0  0
   19.8797  -22.6691   -9.9762 C   0  0  0  0  0  0  0  0  0  0  0  0
   19.4482  -21.1059  -11.7777 O   0  0  0  0  0  0  0  0  0  0  0  0
   19.3538  -19.9678  -12.3165 C   0  0  0  0  0  0  0  0  0  0  0  0
   18.4682  -23.6173  -14.3669 C   0  0  2  0  0  0  0  0  0  0  0  0
   18.5180  -22.1661  -13.8656 N   0  0  0  0  0  0  0  0  0  0  0  0
   19.0706  -22.2375  -12.5304 C   0  0  0  0  0  0  0  0  0  0  0  0
   17.1313  -21.6663  -13.8912 O   0  0  0  0  0  0  0  0  0  0  0  0
   16.3370  -21.7959  -12.9295 O   0  0  0  0  0  0  0  0  0  0  0  0
  1  2  1  0
  2  3  2  0
  4  5  1  0
  4  2  1  0
  6  7  1  0
  6  5  1  0
  8  7  1  0
  8  9  1  1
  8 10  1  0
 10 11  2  0
 13 12  1  0
 14 13  1  0
 14 15  1  6
 16 14  1  0
 16 17  1  1
 17 10  1  0
 18 19  2  0
 18 16  1  0
 21 20  1  6
 21 22  1  0
 22 18  1  0
 23 25  1  0
 23 21  1  0
 24 23  2  0
M  END
$$$$
