RIA.pdb
     RDKit          3D

 25 24  0  0  1  0  0  0  0  0999 V2000
   17.0327  -17.9723  -16.9232 N   0  0  0  0  0  0  0  0  0  0  0  0
   17.6808  -18.3265  -18.1643 C   0  0  0  0  0  0  0  0  0  0  0  0
   17.1027  -19.1596  -18.9606 N   0  0  0  0  0  0  0  0  0  0  0  0
   18.9308  -17.7829  -18.5218 N   0  0  0  0  0  0  0  0  0  0  0  0
   19.6659  -16.8769  -17.6179 C   0  0  0  0  0  0  0  0  0  0  0  0
   19.2333  -15.4774  -17.9212 C   0  0  0  0  0  0  0  0  0  0  0  0
   19.8728  -14.3914  -17.1275 C   0  0  0  0  0  0  0  0  0  0  0  0
   21.3390  -14.5480  -16.8508 C   0  0  2  0  0  0  0  0  0  0  0  0
   21.5586  -15.7674  -16.1122 N   0  0  0  0  0  0  0  0  0  0  0  0
   21.8088  -13.4063  -15.9902 C   0  0  0  0  0  0  0  0  0  0  0  0
   21.3799  -13.2859  -14.8276 O   0  0  0  0  0  0  0  0  0  0  0  0
   17.4723  -19.4784  -19.8735 C   0  0  0  0  0  0  0  0  0  0  0  0
   26.9240  -12.5376  -15.4757 C   0  0  0  0  0  0  0  0  0  0  0  0
   25.4425  -12.5685  -15.3778 C   0  0  2  0  0  0  0  0  0  0  0  0
   24.7306  -11.2746  -15.5640 C   0  0  0  0  0  0  0  0  0  0  0  0
   25.2466  -10.1786  -14.6614 C   0  0  2  0  0  0  0  0  0  0  0  0
   23.2289  -11.3634  -15.6128 N   0  0  0  0  0  0  0  0  0  0  0  0
   22.7483  -12.4337  -16.4661 C   0  0  0  0  0  0  0  0  0  0  0  0
   22.7021  -10.0472  -16.0447 O   0  0  0  0  0  0  0  0  0  0  0  0
   23.1127   -9.4725  -17.0914 C   0  0  0  0  0  0  0  0  0  0  0  0
   19.6957   -8.1504  -15.2183 C   0  0  2  0  0  0  0  0  0  0  0  0
   21.1905   -8.0888  -15.5672 N   0  0  0  0  0  0  0  0  0  0  0  0
   21.7103   -9.4065  -15.2731 C   0  0  0  0  0  0  0  0  0  0  0  0
   21.7754   -7.0343  -14.7191 O   0  0  0  0  0  0  0  0  0  0  0  0
   22.3713   -7.2716  -13.6416 O   0  0  0  0  0  0  0  0  0  0  0  0
  1  2  1  0
  2  3  2  0
  4  5  1  0
  4  2  1  0
  6  7  1  0
  6  5  1  0
  8  7  1  0
  8  9  1  1
  8 10  1  0
 10 11  2  0
 13 12  1  0
 14 13  1  0
 14 15  1  6
 16 14  1  0
 16 17  1  1
 17 10  1  0
 18 19  2  0
 18 16  1  0
 21 20  1  6
 21 22  1  0
 22 18  1  0
 23 25  1  0
 23 21  1  0
 24 23  2  0
M  END
$$$$
