RIA.pdb
     RDKit          3D

 25 24  0  0  1  0  0  0  0  0999 V2000
   24.7238  -20.6840  -10.9779 N   0  0  0  0  0  0  0  0  0  0  0  0
   26.1267  -20.9987  -10.8404 C   0  0  0  0  0  0  0  0  0  0  0  0
   26.6611  -20.9909   -9.6670 N   0  0  0  0  0  0  0  0  0  0  0  0
   26.9228  -21.3116  -11.9602 N   0  0  0  0  0  0  0  0  0  0  0  0
   26.4076  -22.1421  -13.0662 C   0  0  0  0  0  0  0  0  0  0  0  0
   25.8941  -21.2225  -14.1284 C   0  0  0  0  0  0  0  0  0  0  0  0
   24.4275  -21.2504  -14.3873 C   0  0  0  0  0  0  0  0  0  0  0  0
   23.7137  -22.5180  -14.0203 C   0  0  2  0  0  0  0  0  0  0  0  0
   23.8986  -23.4914  -15.0687 N   0  0  0  0  0  0  0  0  0  0  0  0
   22.2378  -22.2454  -13.9106 C   0  0  0  0  0  0  0  0  0  0  0  0
   21.4457  -22.7761  -14.7112 O   0  0  0  0  0  0  0  0  0  0  0  0
   27.6384  -21.2517   -9.4467 C   0  0  0  0  0  0  0  0  0  0  0  0
   20.9397  -21.2537   -9.0328 C   0  0  0  0  0  0  0  0  0  0  0  0
   20.3578  -21.8425  -10.2656 C   0  0  2  0  0  0  0  0  0  0  0  0
   19.8829  -20.8888  -11.3052 C   0  0  0  0  0  0  0  0  0  0  0  0
   18.4293  -20.5108  -11.1434 C   0  0  2  0  0  0  0  0  0  0  0  0
   20.2672  -21.2296  -12.7200 N   0  0  0  0  0  0  0  0  0  0  0  0
   21.6984  -21.3819  -12.9014 C   0  0  0  0  0  0  0  0  0  0  0  0
   19.7153  -20.1837  -13.6132 O   0  0  0  0  0  0  0  0  0  0  0  0
   18.4808  -19.9215  -13.6542 C   0  0  0  0  0  0  0  0  0  0  0  0
   21.4399  -17.7184  -15.8291 C   0  0  2  0  0  0  0  0  0  0  0  0
   20.1507  -18.3738  -15.3112 N   0  0  0  0  0  0  0  0  0  0  0  0
   20.5847  -19.4499  -14.4472 C   0  0  0  0  0  0  0  0  0  0  0  0
   19.4152  -18.8464  -16.4982 O   0  0  0  0  0  0  0  0  0  0  0  0
   19.3307  -20.0564  -16.8167 O   0  0  0  0  0  0  0  0  0  0  0  0
  1  2  1  0
  2  3  2  0
  4  5  1  0
  4  2  1  0
  6  7  1  0
  6  5  1  0
  8  7  1  0
  8  9  1  6
  8 10  1  0
 10 11  2  0
 13 12  1  0
 14 13  1  0
 14 15  1  6
 16 14  1  0
 16 17  1  6
 17 10  1  0
 18 19  2  0
 18 16  1  0
 21 20  1  1
 21 22  1  0
 22 18  1  0
 23 25  1  0
 23 21  1  0
 24 23  2  0
M  END
$$$$
