RIA.pdb
     RDKit          3D

 25 24  0  0  1  0  0  0  0  0999 V2000
   18.1224  -24.7894   -5.0942 N   0  0  0  0  0  0  0  0  0  0  0  0
   17.6973  -25.4513   -6.3055 C   0  0  0  0  0  0  0  0  0  0  0  0
   16.4549  -25.7652   -6.4482 N   0  0  0  0  0  0  0  0  0  0  0  0
   18.6109  -25.7625   -7.3322 N   0  0  0  0  0  0  0  0  0  0  0  0
   19.7715  -24.8979   -7.6215 C   0  0  0  0  0  0  0  0  0  0  0  0
   19.3218  -23.8288   -8.5662 C   0  0  0  0  0  0  0  0  0  0  0  0
   20.3494  -22.8411   -8.9986 C   0  0  0  0  0  0  0  0  0  0  0  0
   21.0392  -22.0804   -7.9048 C   0  0  2  0  0  0  0  0  0  0  0  0
   20.0810  -21.2398   -7.2294 N   0  0  0  0  0  0  0  0  0  0  0  0
   22.0859  -21.1816   -8.5059 C   0  0  0  0  0  0  0  0  0  0  0  0
   21.7449  -20.1562   -9.1244 O   0  0  0  0  0  0  0  0  0  0  0  0
   16.0509  -26.2838   -7.2478 C   0  0  0  0  0  0  0  0  0  0  0  0
   26.8129  -19.9883   -5.9820 C   0  0  0  0  0  0  0  0  0  0  0  0
   25.5789  -20.1134   -6.7985 C   0  0  2  0  0  0  0  0  0  0  0  0
   25.7538  -20.5081   -8.2230 C   0  0  0  0  0  0  0  0  0  0  0  0
   26.8469  -19.7349   -8.9226 C   0  0  2  0  0  0  0  0  0  0  0  0
   24.4843  -20.6228   -9.0234 N   0  0  0  0  0  0  0  0  0  0  0  0
   23.4863  -21.4657   -8.3924 C   0  0  0  0  0  0  0  0  0  0  0  0
   24.8342  -21.1162  -10.3764 O   0  0  0  0  0  0  0  0  0  0  0  0
   25.5234  -22.1599  -10.5509 C   0  0  0  0  0  0  0  0  0  0  0  0
   24.1301  -22.1042  -13.1554 C   0  0  2  0  0  0  0  0  0  0  0  0
   24.7751  -20.7401  -12.8670 N   0  0  0  0  0  0  0  0  0  0  0  0
   24.3889  -20.4090  -11.5127 C   0  0  0  0  0  0  0  0  0  0  0  0
   24.2352  -19.8017  -13.8677 O   0  0  0  0  0  0  0  0  0  0  0  0
   23.5078  -18.8245  -13.5703 O   0  0  0  0  0  0  0  0  0  0  0  0
  1  2  1  0
  2  3  2  0
  4  5  1  0
  4  2  1  0
  6  7  1  0
  6  5  1  0
  8  7  1  0
  8  9  1  6
  8 10  1  0
 10 11  2  0
 13 12  1  0
 14 13  1  0
 14 15  1  6
 16 14  1  0
 16 17  1  6
 17 10  1  0
 18 19  2  0
 18 16  1  0
 21 20  1  1
 21 22  1  0
 22 18  1  0
 23 25  1  0
 23 21  1  0
 24 23  2  0
M  END
$$$$
