RIA.pdb
     RDKit          3D

 25 24  0  0  1  0  0  0  0  0999 V2000
   12.0807   -9.7587  -17.3646 N   0  0  0  0  0  0  0  0  0  0  0  0
   12.7545  -10.4396  -18.4454 C   0  0  0  0  0  0  0  0  0  0  0  0
   12.0541  -10.9644  -19.3923 N   0  0  0  0  0  0  0  0  0  0  0  0
   14.1592  -10.5440  -18.4858 N   0  0  0  0  0  0  0  0  0  0  0  0
   14.9964  -10.1493  -17.3362 C   0  0  0  0  0  0  0  0  0  0  0  0
   16.4280  -10.3422  -17.7247 C   0  0  0  0  0  0  0  0  0  0  0  0
   17.4523  -10.0065  -16.6968 C   0  0  0  0  0  0  0  0  0  0  0  0
   18.4487  -11.0820  -16.3780 C   0  0  2  0  0  0  0  0  0  0  0  0
   17.7776  -12.1747  -15.7173 N   0  0  0  0  0  0  0  0  0  0  0  0
   19.4791  -10.5402  -15.4243 C   0  0  0  0  0  0  0  0  0  0  0  0
   19.3287  -10.6860  -14.1970 O   0  0  0  0  0  0  0  0  0  0  0  0
   12.4304  -11.4773  -20.2089 C   0  0  0  0  0  0  0  0  0  0  0  0
   24.3496  -11.9929  -15.2076 C   0  0  0  0  0  0  0  0  0  0  0  0
   23.0373  -11.3528  -14.9366 C   0  0  2  0  0  0  0  0  0  0  0  0
   22.9750   -9.8708  -15.0610 C   0  0  0  0  0  0  0  0  0  0  0  0
   24.0167   -9.1615  -14.2280 C   0  0  2  0  0  0  0  0  0  0  0  0
   21.5995   -9.2696  -14.9530 N   0  0  0  0  0  0  0  0  0  0  0  0
   20.6487   -9.8497  -15.8826 C   0  0  0  0  0  0  0  0  0  0  0  0
   21.7194   -7.8047  -15.1431 O   0  0  0  0  0  0  0  0  0  0  0  0
   21.9596   -7.2936  -16.2726 C   0  0  0  0  0  0  0  0  0  0  0  0
   22.9252   -5.0790  -14.5870 C   0  0  1  0  0  0  0  0  0  0  0  0
   21.5166   -5.5012  -14.1426 N   0  0  0  0  0  0  0  0  0  0  0  0
   21.5610   -6.9434  -14.0373 C   0  0  0  0  0  0  0  0  0  0  0  0
   20.5887   -5.0261  -15.1851 O   0  0  0  0  0  0  0  0  0  0  0  0
   20.9716   -4.4990  -16.2566 O   0  0  0  0  0  0  0  0  0  0  0  0
  1  2  1  0
  2  3  2  0
  4  5  1  0
  4  2  1  0
  6  7  1  0
  6  5  1  0
  8  7  1  0
  8  9  1  1
  8 10  1  0
 10 11  2  0
 13 12  1  0
 14 13  1  0
 14 15  1  6
 16 14  1  0
 16 17  1  1
 17 10  1  0
 18 19  2  0
 18 16  1  0
 21 20  1  1
 21 22  1  0
 22 18  1  0
 23 25  1  0
 23 21  1  0
 24 23  2  0
M  END
$$$$
