RIA.pdb
     RDKit          3D

 25 24  0  0  1  0  0  0  0  0999 V2000
   25.5728  -17.2898  -20.6370 N   0  0  0  0  0  0  0  0  0  0  0  0
   25.9650  -16.2322  -19.7350 C   0  0  0  0  0  0  0  0  0  0  0  0
   25.7262  -15.0075  -20.0596 N   0  0  0  0  0  0  0  0  0  0  0  0
   26.6041  -16.5104  -18.5102 N   0  0  0  0  0  0  0  0  0  0  0  0
   27.1525  -17.8477  -18.2114 C   0  0  0  0  0  0  0  0  0  0  0  0
   26.0449  -18.8414  -18.3648 C   0  0  0  0  0  0  0  0  0  0  0  0
   25.7933  -19.7479  -17.2100 C   0  0  0  0  0  0  0  0  0  0  0  0
   27.0067  -20.3384  -16.5543 C   0  0  2  0  0  0  0  0  0  0  0  0
   27.5995  -21.3139  -17.4362 N   0  0  0  0  0  0  0  0  0  0  0  0
   26.5949  -21.0556  -15.2970 C   0  0  0  0  0  0  0  0  0  0  0  0
   25.9442  -22.1146  -15.3693 O   0  0  0  0  0  0  0  0  0  0  0  0
   25.9892  -14.1735  -19.5056 C   0  0  0  0  0  0  0  0  0  0  0  0
   29.7167  -20.5901  -11.0557 C   0  0  0  0  0  0  0  0  0  0  0  0
   28.6857  -21.3965  -11.7571 C   0  0  2  0  0  0  0  0  0  0  0  0
   27.2697  -20.9702  -11.5867 C   0  0  0  0  0  0  0  0  0  0  0  0
   26.6537  -21.4610  -10.2976 C   0  0  2  0  0  0  0  0  0  0  0  0
   26.3875  -21.1595  -12.7913 N   0  0  0  0  0  0  0  0  0  0  0  0
   26.9285  -20.5571  -13.9950 C   0  0  0  0  0  0  0  0  0  0  0  0
   25.0452  -20.6192  -12.4703 O   0  0  0  0  0  0  0  0  0  0  0  0
   24.8724  -19.4164  -12.1268 C   0  0  0  0  0  0  0  0  0  0  0  0
   21.6389  -21.9705  -12.9836 C   0  0  2  0  0  0  0  0  0  0  0  0
   22.5782  -21.0486  -12.1914 N   0  0  0  0  0  0  0  0  0  0  0  0
   23.9175  -21.4630  -12.5485 C   0  0  0  0  0  0  0  0  0  0  0  0
   22.2685  -21.2603  -10.7657 O   0  0  0  0  0  0  0  0  0  0  0  0
   23.0171  -21.8985   -9.9880 O   0  0  0  0  0  0  0  0  0  0  0  0
  1  2  1  0
  2  3  2  0
  4  5  1  0
  4  2  1  0
  6  7  1  0
  6  5  1  0
  8  7  1  0
  8  9  1  6
  8 10  1  0
 10 11  2  0
 13 12  1  0
 14 13  1  0
 14 15  1  6
 16 14  1  0
 16 17  1  6
 17 10  1  0
 18 19  2  0
 18 16  1  0
 21 20  1  6
 21 22  1  0
 22 18  1  0
 23 25  1  0
 23 21  1  0
 24 23  2  0
M  END
$$$$
