RIA.pdb
     RDKit          3D

 25 24  0  0  1  0  0  0  0  0999 V2000
   21.4967  -17.2531  -21.1126 N   0  0  0  0  0  0  0  0  0  0  0  0
   20.2594  -16.6580  -21.5608 C   0  0  0  0  0  0  0  0  0  0  0  0
   19.6285  -17.1891  -22.5519 N   0  0  0  0  0  0  0  0  0  0  0  0
   19.7291  -15.5095  -20.9399 N   0  0  0  0  0  0  0  0  0  0  0  0
   20.4654  -14.7958  -19.8783 C   0  0  0  0  0  0  0  0  0  0  0  0
   19.5813  -13.7054  -19.3617 C   0  0  0  0  0  0  0  0  0  0  0  0
   20.1299  -12.8616  -18.2637 C   0  0  0  0  0  0  0  0  0  0  0  0
   20.7797  -11.5744  -18.6786 C   0  0  2  0  0  0  0  0  0  0  0  0
   21.8827  -11.8592  -19.5635 N   0  0  0  0  0  0  0  0  0  0  0  0
   21.3398  -10.8845  -17.4640 C   0  0  0  0  0  0  0  0  0  0  0  0
   20.6211  -10.7053  -16.4633 O   0  0  0  0  0  0  0  0  0  0  0  0
   18.7891  -16.7969  -23.0136 C   0  0  0  0  0  0  0  0  0  0  0  0
   26.2392  -12.1086  -15.7448 C   0  0  0  0  0  0  0  0  0  0  0  0
   24.8327  -11.6324  -15.7578 C   0  0  2  0  0  0  0  0  0  0  0  0
   24.6222  -10.1652  -15.8954 C   0  0  0  0  0  0  0  0  0  0  0  0
   25.2369   -9.3697  -14.7679 C   0  0  2  0  0  0  0  0  0  0  0  0
   23.2199   -9.7424  -16.2420 N   0  0  0  0  0  0  0  0  0  0  0  0
   22.6939  -10.4167  -17.4138 C   0  0  0  0  0  0  0  0  0  0  0  0
   23.2103   -8.2703  -16.4130 O   0  0  0  0  0  0  0  0  0  0  0  0
   23.9107   -7.6938  -17.2914 C   0  0  0  0  0  0  0  0  0  0  0  0
   20.9497   -5.6522  -16.0399 C   0  0  2  0  0  0  0  0  0  0  0  0
   22.3763   -6.0309  -15.6143 N   0  0  0  0  0  0  0  0  0  0  0  0
   22.3971   -7.4770  -15.5769 C   0  0  0  0  0  0  0  0  0  0  0  0
   22.5964   -5.4154  -14.2929 O   0  0  0  0  0  0  0  0  0  0  0  0
   22.4306   -6.0306  -13.2128 O   0  0  0  0  0  0  0  0  0  0  0  0
  1  2  1  0
  2  3  2  0
  4  5  1  0
  4  2  1  0
  6  7  1  0
  6  5  1  0
  8  7  1  0
  8  9  1  6
  8 10  1  0
 10 11  2  0
 13 12  1  0
 14 13  1  0
 14 15  1  6
 16 14  1  0
 16 17  1  1
 17 10  1  0
 18 19  2  0
 18 16  1  0
 21 20  1  6
 21 22  1  0
 22 18  1  0
 23 25  1  0
 23 21  1  0
 24 23  2  0
M  END
$$$$
