KTP.pdb
     RDKit          3D

 24 24  0  0  1  0  0  0  0  0999 V2000
   12.1098  -16.9543   21.2650 N   0  0  0  0  0  0  0  0  0  0  0  0
   11.0777  -17.2214   22.1784 C   0  0  1  0  0  0  0  0  0  0  0  0
   11.3443  -17.9944   23.4019 C   0  0  0  0  0  0  0  0  0  0  0  0
   11.6259  -19.4177   23.4139 C   0  0  0  0  0  0  0  0  0  0  0  0
   11.9827  -20.2337   24.5560 C   0  0  0  0  0  0  0  0  0  0  0  0
   12.3656  -21.6491   24.4735 C   0  0  0  0  0  0  0  0  0  0  0  0
   12.6496  -22.0496   25.9018 N   0  0  0  0  0  0  0  0  0  0  0  0
   10.4284  -15.9043   22.5294 C   0  0  0  0  0  0  0  0  0  0  0  0
   11.1697  -14.9244   22.7565 O   0  0  0  0  0  0  0  0  0  0  0  0
    7.7086  -13.7928   20.9117 C   0  0  0  0  0  0  0  0  0  0  0  0
    7.2058  -14.2637   22.2478 C   0  0  1  0  0  0  0  0  0  0  0  0
    6.5635  -15.5106   22.0358 O   0  0  0  0  0  0  0  0  0  0  0  0
    8.4059  -14.5553   23.1660 C   0  0  2  0  0  0  0  0  0  0  0  0
    9.0206  -15.7568   22.6053 N   0  0  0  0  0  0  0  0  0  0  0  0
    7.8736  -14.8291   24.5383 C   0  0  0  0  0  0  0  0  0  0  0  0
    7.4655  -15.9760   24.7825 O   0  0  0  0  0  0  0  0  0  0  0  0
    7.8541  -13.8052   25.4808 N   0  0  0  0  0  0  0  0  0  0  0  0
    8.5661  -12.4937   25.3292 C   0  0  0  0  0  0  0  0  0  0  0  0
    7.4509  -11.5536   25.6384 C   0  0  0  0  0  0  0  0  0  0  0  0
    6.5250  -12.2837   26.5857 C   0  0  0  0  0  0  0  0  0  0  0  0
    7.2293  -13.6424   26.7503 C   0  0  1  0  0  0  0  0  0  0  0  0
    6.2995  -14.6475   27.2330 C   0  0  0  0  0  0  0  0  0  0  0  0
    5.7976  -15.7504   26.6124 O   0  0  0  0  0  0  0  0  0  0  0  0
    5.8784  -14.4710   28.4401 O   0  0  0  0  0  0  0  0  0  0  0  0
  2  1  1  1
  3  2  1  0
  4  3  1  0
  5  4  1  0
  5  6  1  0
  7  6  1  0
  8  2  1  0
  8  9  2  0
 11 10  1  6
 11 13  1  0
 11 12  1  0
 13 14  1  6
 14  8  1  0
 15 13  1  0
 16 15  2  0
 17 15  1  0
 17 18  1  0
 19 18  1  0
 20 21  1  0
 20 19  1  0
 21 17  1  0
 21 22  1  6
 23 22  1  0
 24 22  2  0
M  END
$$$$
