KTP.pdb
     RDKit          3D

 24 24  0  0  1  0  0  0  0  0999 V2000
    8.3292  -17.0351   20.1437 N   0  0  0  0  0  0  0  0  0  0  0  0
    8.2306  -15.6910   20.5368 C   0  0  1  0  0  0  0  0  0  0  0  0
    7.7121  -14.6763   19.6057 C   0  0  0  0  0  0  0  0  0  0  0  0
    7.8495  -14.7568   18.1636 C   0  0  0  0  0  0  0  0  0  0  0  0
    8.2460  -13.6986   17.2577 C   0  0  0  0  0  0  0  0  0  0  0  0
    8.3314  -13.8476   15.7992 C   0  0  0  0  0  0  0  0  0  0  0  0
    8.6477  -12.4600   15.2934 N   0  0  0  0  0  0  0  0  0  0  0  0
    7.4539  -15.6511   21.8309 C   0  0  0  0  0  0  0  0  0  0  0  0
    6.2510  -15.9885   21.8063 O   0  0  0  0  0  0  0  0  0  0  0  0
    6.3660  -17.3698   23.2326 C   0  0  0  0  0  0  0  0  0  0  0  0
    7.0554  -16.8738   24.4729 C   0  0  1  0  0  0  0  0  0  0  0  0
    8.3226  -17.5089   24.5279 O   0  0  0  0  0  0  0  0  0  0  0  0
    7.3411  -15.3688   24.3255 C   0  0  2  0  0  0  0  0  0  0  0  0
    8.0486  -15.2469   23.0525 N   0  0  0  0  0  0  0  0  0  0  0  0
    8.2279  -14.9602   25.4605 C   0  0  0  0  0  0  0  0  0  0  0  0
    9.1777  -15.7056   25.7500 O   0  0  0  0  0  0  0  0  0  0  0  0
    7.9630  -13.7766   26.1431 N   0  0  0  0  0  0  0  0  0  0  0  0
    7.0744  -12.6802   25.6347 C   0  0  0  0  0  0  0  0  0  0  0  0
    6.1952  -12.4844   26.8229 C   0  0  0  0  0  0  0  0  0  0  0  0
    7.0206  -12.8598   28.0335 C   0  0  0  0  0  0  0  0  0  0  0  0
    8.3693  -13.2500   27.4025 C   0  0  1  0  0  0  0  0  0  0  0  0
    9.1440  -14.0723   28.3143 C   0  0  0  0  0  0  0  0  0  0  0  0
    9.3450  -15.4187   28.3284 O   0  0  0  0  0  0  0  0  0  0  0  0
    9.7363  -13.4299   29.2642 O   0  0  0  0  0  0  0  0  0  0  0  0
  2  1  1  6
  3  2  1  0
  4  3  1  0
  5  4  1  0
  5  6  1  0
  7  6  1  0
  8  2  1  0
  8  9  2  0
 11 10  1  6
 11 13  1  0
 11 12  1  0
 13 14  1  6
 14  8  1  0
 15 13  1  0
 16 15  2  0
 17 15  1  0
 17 18  1  0
 19 18  1  0
 20 21  1  0
 20 19  1  0
 21 17  1  0
 21 22  1  1
 23 22  1  0
 24 22  2  0
M  END
$$$$
