KTP.pdb
     RDKit          3D

 24 24  0  0  1  0  0  0  0  0999 V2000
    6.8238  -16.3229   19.6979 N   0  0  0  0  0  0  0  0  0  0  0  0
    7.5084  -15.3321   20.4194 C   0  0  1  0  0  0  0  0  0  0  0  0
    7.5431  -13.9435   19.9336 C   0  0  0  0  0  0  0  0  0  0  0  0
    7.8918  -13.5705   18.5755 C   0  0  0  0  0  0  0  0  0  0  0  0
    8.9465  -14.1274   17.7541 C   0  0  0  0  0  0  0  0  0  0  0  0
    9.1850  -13.7586   16.3526 C   0  0  0  0  0  0  0  0  0  0  0  0
   10.2458  -14.7247   15.8809 N   0  0  0  0  0  0  0  0  0  0  0  0
    7.0000  -15.3709   21.8405 C   0  0  0  0  0  0  0  0  0  0  0  0
    5.8024  -15.6733   22.0294 O   0  0  0  0  0  0  0  0  0  0  0  0
    5.9719  -17.0490   23.2982 C   0  0  0  0  0  0  0  0  0  0  0  0
    6.9836  -16.7747   24.3756 C   0  0  1  0  0  0  0  0  0  0  0  0
    8.1504  -17.5126   24.0497 O   0  0  0  0  0  0  0  0  0  0  0  0
    7.3907  -15.2915   24.3217 C   0  0  2  0  0  0  0  0  0  0  0  0
    7.8366  -15.0773   22.9465 N   0  0  0  0  0  0  0  0  0  0  0  0
    8.5256  -15.0956   25.2784 C   0  0  0  0  0  0  0  0  0  0  0  0
    9.4082  -15.9680   25.3157 O   0  0  0  0  0  0  0  0  0  0  0  0
    8.5538  -13.9595   26.0820 N   0  0  0  0  0  0  0  0  0  0  0  0
    7.8439  -12.6759   25.7683 C   0  0  0  0  0  0  0  0  0  0  0  0
    7.1331  -12.4483   27.0591 C   0  0  0  0  0  0  0  0  0  0  0  0
    7.9831  -13.0867   28.1350 C   0  0  0  0  0  0  0  0  0  0  0  0
    9.1687  -13.6453   27.3277 C   0  0  1  0  0  0  0  0  0  0  0  0
    9.8569  -14.6815   28.0763 C   0  0  0  0  0  0  0  0  0  0  0  0
   10.9046  -14.5921   28.9410 O   0  0  0  0  0  0  0  0  0  0  0  0
    9.4091  -15.8784   27.8956 O   0  0  0  0  0  0  0  0  0  0  0  0
  2  1  1  6
  3  2  1  0
  4  3  1  0
  5  4  1  0
  5  6  1  0
  7  6  1  0
  8  2  1  0
  8  9  2  0
 11 10  1  6
 11 13  1  0
 11 12  1  0
 13 14  1  6
 14  8  1  0
 15 13  1  0
 16 15  2  0
 17 15  1  0
 17 18  1  0
 19 18  1  0
 20 21  1  0
 20 19  1  0
 21 17  1  0
 21 22  1  1
 23 22  1  0
 24 22  2  0
M  END
$$$$
