KTP.pdb
     RDKit          3D

 24 24  0  0  1  0  0  0  0  0999 V2000
   10.9021  -16.2567   19.6705 N   0  0  0  0  0  0  0  0  0  0  0  0
   10.9114  -16.3484   21.0714 C   0  0  1  0  0  0  0  0  0  0  0  0
   12.1808  -16.3058   21.8145 C   0  0  0  0  0  0  0  0  0  0  0  0
   12.7394  -17.4398   22.5266 C   0  0  0  0  0  0  0  0  0  0  0  0
   12.1209  -18.7306   22.7474 C   0  0  0  0  0  0  0  0  0  0  0  0
   12.7240  -19.8122   23.5369 C   0  0  0  0  0  0  0  0  0  0  0  0
   11.7470  -20.9580   23.4201 N   0  0  0  0  0  0  0  0  0  0  0  0
    9.9651  -15.2985   21.6024 C   0  0  0  0  0  0  0  0  0  0  0  0
    9.7149  -14.3112   20.8786 O   0  0  0  0  0  0  0  0  0  0  0  0
    7.4652  -14.6373   20.9532 C   0  0  0  0  0  0  0  0  0  0  0  0
    7.0944  -14.9028   22.3856 C   0  0  1  0  0  0  0  0  0  0  0  0
    6.9341  -16.3057   22.5217 O   0  0  0  0  0  0  0  0  0  0  0  0
    8.2768  -14.5207   23.2935 C   0  0  2  0  0  0  0  0  0  0  0  0
    9.3641  -15.4062   22.8816 N   0  0  0  0  0  0  0  0  0  0  0  0
    7.8754  -14.8045   24.7077 C   0  0  0  0  0  0  0  0  0  0  0  0
    7.6407  -15.9837   25.0171 O   0  0  0  0  0  0  0  0  0  0  0  0
    7.7803  -13.7535   25.6153 N   0  0  0  0  0  0  0  0  0  0  0  0
    7.8367  -12.3008   25.2459 C   0  0  0  0  0  0  0  0  0  0  0  0
    6.6194  -11.8048   25.9496 C   0  0  0  0  0  0  0  0  0  0  0  0
    6.4220  -12.7037   27.1499 C   0  0  0  0  0  0  0  0  0  0  0  0
    7.6059  -13.6796   27.0268 C   0  0  1  0  0  0  0  0  0  0  0  0
    7.3553  -14.8896   27.7890 C   0  0  0  0  0  0  0  0  0  0  0  0
    7.7265  -15.2228   29.0558 O   0  0  0  0  0  0  0  0  0  0  0  0
    6.6749  -15.7960   27.1717 O   0  0  0  0  0  0  0  0  0  0  0  0
  2  1  1  6
  3  2  1  0
  4  3  1  0
  5  4  1  0
  5  6  1  0
  7  6  1  0
  8  2  1  0
  8  9  2  0
 11 10  1  6
 11 13  1  0
 11 12  1  0
 13 14  1  6
 14  8  1  0
 15 13  1  0
 16 15  2  0
 17 15  1  0
 17 18  1  0
 19 18  1  0
 20 21  1  0
 20 19  1  0
 21 17  1  0
 21 22  1  6
 23 22  1  0
 24 22  2  0
M  END
$$$$
