KTP.pdb
     RDKit          3D

 24 24  0  0  1  0  0  0  0  0999 V2000
   11.1330  -16.5881   19.7911 N   0  0  0  0  0  0  0  0  0  0  0  0
   10.3009  -16.8903   20.8806 C   0  0  1  0  0  0  0  0  0  0  0  0
   10.7562  -17.8088   21.9363 C   0  0  0  0  0  0  0  0  0  0  0  0
   11.9665  -18.6042   21.8495 C   0  0  0  0  0  0  0  0  0  0  0  0
   13.0842  -18.6079   22.7705 C   0  0  0  0  0  0  0  0  0  0  0  0
   14.4269  -18.1110   22.4432 C   0  0  0  0  0  0  0  0  0  0  0  0
   15.2511  -18.4045   23.6744 N   0  0  0  0  0  0  0  0  0  0  0  0
    9.8550  -15.5825   21.4892 C   0  0  0  0  0  0  0  0  0  0  0  0
    9.9729  -14.5440   20.8045 O   0  0  0  0  0  0  0  0  0  0  0  0
    7.6500  -14.4291   20.7836 C   0  0  0  0  0  0  0  0  0  0  0  0
    7.1698  -14.6853   22.1849 C   0  0  1  0  0  0  0  0  0  0  0  0
    6.8264  -16.0594   22.2633 O   0  0  0  0  0  0  0  0  0  0  0  0
    8.3389  -14.4835   23.1652 C   0  0  2  0  0  0  0  0  0  0  0  0
    9.3144  -15.5076   22.7974 N   0  0  0  0  0  0  0  0  0  0  0  0
    7.8200  -14.7249   24.5487 C   0  0  0  0  0  0  0  0  0  0  0  0
    7.4201  -15.8672   24.8256 O   0  0  0  0  0  0  0  0  0  0  0  0
    7.8035  -13.6774   25.4650 N   0  0  0  0  0  0  0  0  0  0  0  0
    7.9444  -12.2281   25.1051 C   0  0  0  0  0  0  0  0  0  0  0  0
    6.7705  -11.6634   25.8307 C   0  0  0  0  0  0  0  0  0  0  0  0
    6.5354  -12.5580   27.0274 C   0  0  0  0  0  0  0  0  0  0  0  0
    7.6547  -13.6042   26.8795 C   0  0  1  0  0  0  0  0  0  0  0  0
    7.3408  -14.8025   27.6368 C   0  0  0  0  0  0  0  0  0  0  0  0
    7.7236  -15.1762   28.8887 O   0  0  0  0  0  0  0  0  0  0  0  0
    6.5803  -15.6512   27.0309 O   0  0  0  0  0  0  0  0  0  0  0  0
  2  1  1  6
  3  2  1  0
  4  3  1  0
  5  4  1  0
  5  6  1  0
  7  6  1  0
  8  2  1  0
  8  9  2  0
 11 10  1  6
 11 13  1  0
 11 12  1  0
 13 14  1  6
 14  8  1  0
 15 13  1  0
 16 15  2  0
 17 15  1  0
 17 18  1  0
 19 18  1  0
 20 21  1  0
 20 19  1  0
 21 17  1  0
 21 22  1  6
 23 22  1  0
 24 22  2  0
M  END
$$$$
