KTP.pdb
     RDKit          3D

 24 24  0  0  1  0  0  0  0  0999 V2000
    8.6573  -15.9350   20.7054 N   0  0  0  0  0  0  0  0  0  0  0  0
    8.4552  -14.6352   21.1959 C   0  0  1  0  0  0  0  0  0  0  0  0
    7.5971  -13.6869   20.4681 C   0  0  0  0  0  0  0  0  0  0  0  0
    7.4100  -13.7057   19.0294 C   0  0  0  0  0  0  0  0  0  0  0  0
    8.4372  -13.7595   18.0099 C   0  0  0  0  0  0  0  0  0  0  0  0
    8.1680  -13.8142   16.5671 C   0  0  0  0  0  0  0  0  0  0  0  0
    9.5279  -13.9886   15.9334 N   0  0  0  0  0  0  0  0  0  0  0  0
    7.9942  -14.7561   22.6286 C   0  0  0  0  0  0  0  0  0  0  0  0
    7.3315  -13.8151   23.1152 O   0  0  0  0  0  0  0  0  0  0  0  0
    6.0817  -17.3591   24.1164 C   0  0  0  0  0  0  0  0  0  0  0  0
    7.2571  -17.2816   25.0502 C   0  0  1  0  0  0  0  0  0  0  0  0
    8.1774  -18.2826   24.6462 O   0  0  0  0  0  0  0  0  0  0  0  0
    7.9769  -15.9365   24.8470 C   0  0  2  0  0  0  0  0  0  0  0  0
    8.2907  -15.8938   23.4203 N   0  0  0  0  0  0  0  0  0  0  0  0
    9.2334  -15.9648   25.6607 C   0  0  0  0  0  0  0  0  0  0  0  0
    9.9865  -16.9429   25.5284 O   0  0  0  0  0  0  0  0  0  0  0  0
    9.5119  -14.9101   26.5251 N   0  0  0  0  0  0  0  0  0  0  0  0
    9.1042  -13.4857   26.2906 C   0  0  0  0  0  0  0  0  0  0  0  0
    8.4604  -13.1793   27.6001 C   0  0  0  0  0  0  0  0  0  0  0  0
    9.1470  -14.0493   28.6294 C   0  0  0  0  0  0  0  0  0  0  0  0
   10.1801  -14.8101   27.7789 C   0  0  1  0  0  0  0  0  0  0  0  0
   10.6211  -16.0132   28.4614 C   0  0  0  0  0  0  0  0  0  0  0  0
   11.5445  -16.1750   29.4486 O   0  0  0  0  0  0  0  0  0  0  0  0
   10.0516  -17.1044   28.0733 O   0  0  0  0  0  0  0  0  0  0  0  0
  2  1  1  6
  3  2  1  0
  4  3  1  0
  5  4  1  0
  5  6  1  0
  7  6  1  0
  8  2  1  0
  8  9  2  0
 11 10  1  6
 11 13  1  0
 11 12  1  0
 13 14  1  6
 14  8  1  0
 15 13  1  0
 16 15  2  0
 17 15  1  0
 17 18  1  0
 19 18  1  0
 20 21  1  0
 20 19  1  0
 21 17  1  0
 21 22  1  1
 23 22  1  0
 24 22  2  0
M  END
$$$$
