KTP.pdb
     RDKit          3D

 24 24  0  0  1  0  0  0  0  0999 V2000
   11.2409  -16.8493   20.2080 N   0  0  0  0  0  0  0  0  0  0  0  0
   10.9890  -16.9593   21.5847 C   0  0  1  0  0  0  0  0  0  0  0  0
   12.0962  -17.1583   22.5334 C   0  0  0  0  0  0  0  0  0  0  0  0
   12.5770  -18.4612   22.9532 C   0  0  0  0  0  0  0  0  0  0  0  0
   11.9680  -19.3545   23.9169 C   0  0  0  0  0  0  0  0  0  0  0  0
   12.6029  -20.5760   24.4285 C   0  0  0  0  0  0  0  0  0  0  0  0
   11.6194  -21.1218   25.4364 N   0  0  0  0  0  0  0  0  0  0  0  0
   10.1656  -15.7616   21.9938 C   0  0  0  0  0  0  0  0  0  0  0  0
   10.6061  -14.6241   21.7229 O   0  0  0  0  0  0  0  0  0  0  0  0
    6.6826  -14.7040   21.2664 C   0  0  0  0  0  0  0  0  0  0  0  0
    6.7619  -14.9148   22.7526 C   0  0  1  0  0  0  0  0  0  0  0  0
    6.4362  -16.2732   22.9991 O   0  0  0  0  0  0  0  0  0  0  0  0
    8.2202  -14.7381   23.2116 C   0  0  2  0  0  0  0  0  0  0  0  0
    8.9252  -15.8964   22.6664 N   0  0  0  0  0  0  0  0  0  0  0  0
    8.2339  -14.7715   24.7083 C   0  0  0  0  0  0  0  0  0  0  0  0
    8.3937  -15.8716   25.2612 O   0  0  0  0  0  0  0  0  0  0  0  0
    8.0699  -13.5866   25.4200 N   0  0  0  0  0  0  0  0  0  0  0  0
    7.9787  -12.2247   24.7981 C   0  0  0  0  0  0  0  0  0  0  0  0
    6.7434  -11.7170   25.4610 C   0  0  0  0  0  0  0  0  0  0  0  0
    6.6690  -12.3991   26.8090 C   0  0  0  0  0  0  0  0  0  0  0  0
    7.9345  -13.2754   26.8032 C   0  0  1  0  0  0  0  0  0  0  0  0
    7.8224  -14.3456   27.7778 C   0  0  0  0  0  0  0  0  0  0  0  0
    7.6257  -15.6807   27.5980 O   0  0  0  0  0  0  0  0  0  0  0  0
    7.9229  -13.9779   29.0108 O   0  0  0  0  0  0  0  0  0  0  0  0
  2  1  1  6
  3  2  1  0
  4  3  1  0
  5  4  1  0
  5  6  1  0
  7  6  1  0
  8  2  1  0
  8  9  2  0
 11 10  1  6
 11 13  1  0
 11 12  1  0
 13 14  1  6
 14  8  1  0
 15 13  1  0
 16 15  2  0
 17 15  1  0
 17 18  1  0
 19 18  1  0
 20 21  1  0
 20 19  1  0
 21 17  1  0
 21 22  1  1
 23 22  1  0
 24 22  2  0
M  END
$$$$
