KTP.pdb
     RDKit          3D

 24 24  0  0  1  0  0  0  0  0999 V2000
   10.0105  -16.8945   19.4065 N   0  0  0  0  0  0  0  0  0  0  0  0
   10.2953  -16.8044   20.7783 C   0  0  1  0  0  0  0  0  0  0  0  0
   11.6799  -16.6275   21.2439 C   0  0  0  0  0  0  0  0  0  0  0  0
   12.7625  -17.5400   20.9269 C   0  0  0  0  0  0  0  0  0  0  0  0
   14.1561  -17.4141   21.3002 C   0  0  0  0  0  0  0  0  0  0  0  0
   15.2062  -18.3627   20.9072 C   0  0  0  0  0  0  0  0  0  0  0  0
   16.4713  -17.8004   21.5109 N   0  0  0  0  0  0  0  0  0  0  0  0
    9.4126  -15.7243   21.3563 C   0  0  0  0  0  0  0  0  0  0  0  0
    8.7583  -15.0124   20.5648 O   0  0  0  0  0  0  0  0  0  0  0  0
    7.0284  -15.0389   21.2288 C   0  0  0  0  0  0  0  0  0  0  0  0
    6.9665  -15.1122   22.7290 C   0  0  1  0  0  0  0  0  0  0  0  0
    6.8768  -16.4847   23.0760 O   0  0  0  0  0  0  0  0  0  0  0  0
    8.2987  -14.6125   23.3154 C   0  0  2  0  0  0  0  0  0  0  0  0
    9.3111  -15.5038   22.7528 N   0  0  0  0  0  0  0  0  0  0  0  0
    8.2290  -14.7692   24.8028 C   0  0  0  0  0  0  0  0  0  0  0  0
    8.2473  -15.9214   25.2647 O   0  0  0  0  0  0  0  0  0  0  0  0
    8.1474  -13.6358   25.6064 N   0  0  0  0  0  0  0  0  0  0  0  0
    7.9993  -12.2347   25.0914 C   0  0  0  0  0  0  0  0  0  0  0  0
    6.8433  -11.7751   25.9134 C   0  0  0  0  0  0  0  0  0  0  0  0
    6.9069  -12.5475   27.2123 C   0  0  0  0  0  0  0  0  0  0  0  0
    8.1596  -13.4196   27.0141 C   0  0  1  0  0  0  0  0  0  0  0  0
    8.1442  -14.5539   27.9202 C   0  0  0  0  0  0  0  0  0  0  0  0
    8.6332  -14.6748   29.1850 O   0  0  0  0  0  0  0  0  0  0  0  0
    7.5802  -15.6185   27.4573 O   0  0  0  0  0  0  0  0  0  0  0  0
  2  1  1  6
  3  2  1  0
  4  3  1  0
  5  4  1  0
  5  6  1  0
  7  6  1  0
  8  2  1  0
  8  9  2  0
 11 10  1  6
 11 13  1  0
 11 12  1  0
 13 14  1  6
 14  8  1  0
 15 13  1  0
 16 15  2  0
 17 15  1  0
 17 18  1  0
 19 18  1  0
 20 21  1  0
 20 19  1  0
 21 17  1  0
 21 22  1  1
 23 22  1  0
 24 22  2  0
M  END
$$$$
