KTP.pdb
     RDKit          3D

 24 24  0  0  1  0  0  0  0  0999 V2000
    8.8041  -17.8722   17.9768 N   0  0  0  0  0  0  0  0  0  0  0  0
    9.9946  -17.1496   18.1539 C   0  0  1  0  0  0  0  0  0  0  0  0
   10.6492  -16.4960   17.0094 C   0  0  0  0  0  0  0  0  0  0  0  0
    9.9534  -15.6599   16.0493 C   0  0  0  0  0  0  0  0  0  0  0  0
    9.7797  -15.9057   14.6326 C   0  0  0  0  0  0  0  0  0  0  0  0
    9.3053  -14.9018   13.6714 C   0  0  0  0  0  0  0  0  0  0  0  0
    8.4315  -15.6763   12.7134 N   0  0  0  0  0  0  0  0  0  0  0  0
    9.7583  -16.1465   19.2573 C   0  0  0  0  0  0  0  0  0  0  0  0
   10.7230  -15.4474   19.6340 O   0  0  0  0  0  0  0  0  0  0  0  0
    7.3326  -13.3356   19.6715 C   0  0  0  0  0  0  0  0  0  0  0  0
    7.0418  -14.3248   20.7654 C   0  0  1  0  0  0  0  0  0  0  0  0
    6.0862  -15.2410   20.2561 O   0  0  0  0  0  0  0  0  0  0  0  0
    8.3093  -15.1493   21.0521 C   0  0  2  0  0  0  0  0  0  0  0  0
    8.4881  -15.9825   19.8648 N   0  0  0  0  0  0  0  0  0  0  0  0
    8.0375  -15.9993   22.2543 C   0  0  0  0  0  0  0  0  0  0  0  0
    7.5170  -17.1115   22.0709 O   0  0  0  0  0  0  0  0  0  0  0  0
    8.3723  -15.5226   23.5183 N   0  0  0  0  0  0  0  0  0  0  0  0
    9.2071  -14.3032   23.7757 C   0  0  0  0  0  0  0  0  0  0  0  0
    8.3312  -13.5872   24.7470 C   0  0  0  0  0  0  0  0  0  0  0  0
    7.5494  -14.6515   25.4846 C   0  0  0  0  0  0  0  0  0  0  0  0
    8.0773  -15.9483   24.8450 C   0  0  1  0  0  0  0  0  0  0  0  0
    7.1494  -17.0433   25.0638 C   0  0  0  0  0  0  0  0  0  0  0  0
    7.0211  -17.8879   26.1238 O   0  0  0  0  0  0  0  0  0  0  0  0
    6.3130  -17.2540   24.1037 O   0  0  0  0  0  0  0  0  0  0  0  0
  2  1  1  6
  3  2  1  0
  4  3  1  0
  5  4  1  0
  5  6  1  0
  7  6  1  0
  8  2  1  0
  8  9  2  0
 11 10  1  6
 11 13  1  0
 11 12  1  0
 13 14  1  6
 14  8  1  0
 15 13  1  0
 16 15  2  0
 17 15  1  0
 17 18  1  0
 19 18  1  0
 20 21  1  0
 20 19  1  0
 21 17  1  0
 21 22  1  6
 23 22  1  0
 24 22  2  0
M  END
$$$$
