KTP.pdb
     RDKit          3D

 24 24  0  0  1  0  0  0  0  0999 V2000
   11.3183  -16.9599   20.4733 N   0  0  0  0  0  0  0  0  0  0  0  0
   11.3512  -16.8788   21.8745 C   0  0  1  0  0  0  0  0  0  0  0  0
   12.6360  -16.8406   22.5908 C   0  0  0  0  0  0  0  0  0  0  0  0
   13.2670  -18.0056   23.1823 C   0  0  0  0  0  0  0  0  0  0  0  0
   13.8343  -19.1445   22.4906 C   0  0  0  0  0  0  0  0  0  0  0  0
   14.5201  -20.2590   23.1572 C   0  0  0  0  0  0  0  0  0  0  0  0
   13.4390  -21.2889   23.3845 N   0  0  0  0  0  0  0  0  0  0  0  0
   10.4959  -15.7034   22.2824 C   0  0  0  0  0  0  0  0  0  0  0  0
   10.7863  -14.5772   21.8256 O   0  0  0  0  0  0  0  0  0  0  0  0
    7.7498  -14.5956   21.1171 C   0  0  0  0  0  0  0  0  0  0  0  0
    7.3107  -14.8808   22.5262 C   0  0  1  0  0  0  0  0  0  0  0  0
    6.9499  -16.2515   22.5812 O   0  0  0  0  0  0  0  0  0  0  0  0
    8.5132  -14.7202   23.4732 C   0  0  2  0  0  0  0  0  0  0  0  0
    9.3894  -15.8463   23.1568 N   0  0  0  0  0  0  0  0  0  0  0  0
    8.0049  -14.8284   24.8773 C   0  0  0  0  0  0  0  0  0  0  0  0
    7.7867  -15.9646   25.3277 O   0  0  0  0  0  0  0  0  0  0  0  0
    7.7972  -13.6700   25.6202 N   0  0  0  0  0  0  0  0  0  0  0  0
    8.0423  -12.2787   25.1159 C   0  0  0  0  0  0  0  0  0  0  0  0
    6.7436  -11.6389   25.4723 C   0  0  0  0  0  0  0  0  0  0  0  0
    6.2246  -12.3716   26.6895 C   0  0  0  0  0  0  0  0  0  0  0  0
    7.3295  -13.4135   26.9407 C   0  0  1  0  0  0  0  0  0  0  0  0
    6.8293  -14.5060   27.7558 C   0  0  0  0  0  0  0  0  0  0  0  0
    6.5084  -15.7835   27.4117 O   0  0  0  0  0  0  0  0  0  0  0  0
    6.6589  -14.2260   29.0041 O   0  0  0  0  0  0  0  0  0  0  0  0
  2  1  1  6
  3  2  1  0
  4  3  1  0
  5  4  1  0
  5  6  1  0
  7  6  1  0
  8  2  1  0
  8  9  2  0
 11 10  1  6
 11 13  1  0
 11 12  1  0
 13 14  1  6
 14  8  1  0
 15 13  1  0
 16 15  2  0
 17 15  1  0
 17 18  1  0
 19 18  1  0
 20 21  1  0
 20 19  1  0
 21 17  1  0
 21 22  1  6
 23 22  1  0
 24 22  2  0
M  END
$$$$
