KTP.pdb
     RDKit          3D

 24 24  0  0  1  0  0  0  0  0999 V2000
   11.5701  -17.8422   21.5141 N   0  0  0  0  0  0  0  0  0  0  0  0
   10.2524  -17.8080   21.9969 C   0  0  1  0  0  0  0  0  0  0  0  0
    9.8050  -18.7699   23.0167 C   0  0  0  0  0  0  0  0  0  0  0  0
   10.3566  -20.1034   23.1676 C   0  0  0  0  0  0  0  0  0  0  0  0
   10.0169  -21.0865   24.1754 C   0  0  0  0  0  0  0  0  0  0  0  0
   10.6382  -22.4132   24.2788 C   0  0  0  0  0  0  0  0  0  0  0  0
    9.9690  -23.0541   25.4715 N   0  0  0  0  0  0  0  0  0  0  0  0
    9.9730  -16.3976   22.4578 C   0  0  0  0  0  0  0  0  0  0  0  0
   10.9417  -15.6889   22.8052 O   0  0  0  0  0  0  0  0  0  0  0  0
    8.2043  -13.4749   20.8291 C   0  0  0  0  0  0  0  0  0  0  0  0
    7.4291  -13.8852   22.0498 C   0  0  1  0  0  0  0  0  0  0  0  0
    6.5248  -14.9014   21.6475 O   0  0  0  0  0  0  0  0  0  0  0  0
    8.3861  -14.5441   23.0591 C   0  0  2  0  0  0  0  0  0  0  0  0
    8.6589  -15.8682   22.5040 N   0  0  0  0  0  0  0  0  0  0  0  0
    7.6618  -14.6607   24.3642 C   0  0  0  0  0  0  0  0  0  0  0  0
    6.9202  -15.6427   24.5288 O   0  0  0  0  0  0  0  0  0  0  0  0
    7.8411  -13.6800   25.3354 N   0  0  0  0  0  0  0  0  0  0  0  0
    8.8492  -12.5724   25.2522 C   0  0  0  0  0  0  0  0  0  0  0  0
    7.9747  -11.4005   25.5439 C   0  0  0  0  0  0  0  0  0  0  0  0
    6.8593  -11.9082   26.4305 C   0  0  0  0  0  0  0  0  0  0  0  0
    7.2141  -13.3982   26.5828 C   0  0  1  0  0  0  0  0  0  0  0  0
    6.0516  -14.1630   26.9970 C   0  0  0  0  0  0  0  0  0  0  0  0
    5.4438  -14.2490   28.2122 O   0  0  0  0  0  0  0  0  0  0  0  0
    5.5058  -14.8770   26.0707 O   0  0  0  0  0  0  0  0  0  0  0  0
  2  1  1  1
  3  2  1  0
  4  3  1  0
  5  4  1  0
  5  6  1  0
  7  6  1  0
  8  2  1  0
  8  9  2  0
 11 10  1  6
 11 13  1  0
 11 12  1  0
 13 14  1  6
 14  8  1  0
 15 13  1  0
 16 15  2  0
 17 15  1  0
 17 18  1  0
 19 18  1  0
 20 21  1  0
 20 19  1  0
 21 17  1  0
 21 22  1  6
 23 22  1  0
 24 22  2  0
M  END
$$$$
