NGS.pdb
     RDKit          3D

 19 18  0  0  1  0  0  0  0  0999 V2000
   19.4733  -15.6500  -18.6146 N   0  0  0  0  0  0  0  0  0  0  0  0
   19.0377  -14.3064  -18.3188 C   0  0  0  0  0  0  0  0  0  0  0  0
   18.1469  -13.8280  -19.0471 O   0  0  0  0  0  0  0  0  0  0  0  0
   19.6635  -13.6046  -17.1974 C   0  0  0  0  0  0  0  0  0  0  0  0
   19.4649  -12.1173  -17.2139 C   0  0  2  0  0  0  0  0  0  0  0  0
   20.1490  -11.4469  -18.2806 N   0  0  0  0  0  0  0  0  0  0  0  0
   19.7858  -11.5359  -15.8834 C   0  0  0  0  0  0  0  0  0  0  0  0
   19.1591  -11.9445  -14.8558 O   0  0  0  0  0  0  0  0  0  0  0  0
   20.7865  -10.5393  -15.8084 N   0  0  0  0  0  0  0  0  0  0  0  0
   21.1168   -9.8897  -14.5815 C   0  0  0  0  0  0  0  0  0  0  0  0
   20.7357   -8.4363  -14.5892 C   0  0  0  0  0  0  0  0  0  0  0  0
   20.5243   -7.8483  -15.6779 O   0  0  0  0  0  0  0  0  0  0  0  0
   20.1614   -6.4377  -10.9326 O   0  0  0  0  0  0  0  0  0  0  0  0
   19.3863   -6.0563  -12.0407 C   0  0  0  0  0  0  0  0  0  0  0  0
   20.2005   -6.3412  -13.2905 C   0  0  2  0  0  0  0  0  0  0  0  0
   20.6076   -7.7041  -13.3833 N   0  0  0  0  0  0  0  0  0  0  0  0
   21.3285   -5.3828  -13.4046 C   0  0  0  0  0  0  0  0  0  0  0  0
   22.5236   -5.8116  -13.2569 O   0  0  0  0  0  0  0  0  0  0  0  0
   21.1581   -4.0446  -13.6631 O   0  0  0  0  0  0  0  0  0  0  0  0
  1  2  1  0
  2  3  2  0
  4  2  1  0
  4  5  1  0
  5  6  1  6
  7  8  2  0
  7  5  1  0
  9  7  1  0
 10 11  1  0
 10  9  1  0
 11 16  1  0
 12 11  2  0
 13 14  1  0
 15 14  1  1
 15 17  1  0
 16 15  1  0
 17 18  2  0
 17 19  1  0
M  END
$$$$
