NGS.pdb
     RDKit          3D

 19 18  0  0  1  0  0  0  0  0999 V2000
   18.3254  -14.2705  -17.7482 N   0  0  0  0  0  0  0  0  0  0  0  0
   18.7901  -12.9177  -17.9390 C   0  0  0  0  0  0  0  0  0  0  0  0
   18.7147  -12.4517  -19.0922 O   0  0  0  0  0  0  0  0  0  0  0  0
   19.3121  -12.1929  -16.7797 C   0  0  0  0  0  0  0  0  0  0  0  0
   20.6395  -11.5329  -17.0129 C   0  0  2  0  0  0  0  0  0  0  0  0
   21.6834  -12.4371  -17.3979 N   0  0  0  0  0  0  0  0  0  0  0  0
   21.0178  -10.6993  -15.8411 C   0  0  0  0  0  0  0  0  0  0  0  0
   21.3486  -11.2660  -14.7524 O   0  0  0  0  0  0  0  0  0  0  0  0
   20.9957   -9.2922  -15.9813 N   0  0  0  0  0  0  0  0  0  0  0  0
   21.4454   -8.4214  -14.9440 C   0  0  0  0  0  0  0  0  0  0  0  0
   21.3853   -6.9764  -15.3512 C   0  0  0  0  0  0  0  0  0  0  0  0
   21.1333   -6.6695  -16.5420 O   0  0  0  0  0  0  0  0  0  0  0  0
   20.0762   -4.2754  -12.9199 O   0  0  0  0  0  0  0  0  0  0  0  0
   21.2105   -3.6944  -13.5116 C   0  0  0  0  0  0  0  0  0  0  0  0
   21.5895   -4.5452  -14.7109 C   0  0  2  0  0  0  0  0  0  0  0  0
   21.6089   -5.9389  -14.4129 N   0  0  0  0  0  0  0  0  0  0  0  0
   22.8545   -4.0565  -15.3148 C   0  0  0  0  0  0  0  0  0  0  0  0
   23.9473   -4.6582  -15.0362 O   0  0  0  0  0  0  0  0  0  0  0  0
   22.9176   -2.9808  -16.1667 O   0  0  0  0  0  0  0  0  0  0  0  0
  1  2  1  0
  2  3  2  0
  4  2  1  0
  4  5  1  0
  5  6  1  1
  7  8  2  0
  7  5  1  0
  9  7  1  0
 10 11  1  0
 10  9  1  0
 11 16  1  0
 12 11  2  0
 13 14  1  0
 15 14  1  1
 15 17  1  0
 16 15  1  0
 17 18  2  0
 17 19  1  0
M  END
$$$$
