NGS.pdb
     RDKit          3D

 19 18  0  0  1  0  0  0  0  0999 V2000
   19.7060  -11.3254  -16.0291 N   0  0  0  0  0  0  0  0  0  0  0  0
   21.0536  -10.9697  -16.4031 C   0  0  0  0  0  0  0  0  0  0  0  0
   21.6243  -11.7078  -17.2291 O   0  0  0  0  0  0  0  0  0  0  0  0
   21.6521   -9.7808  -15.7947 C   0  0  0  0  0  0  0  0  0  0  0  0
   20.7252   -9.0164  -14.8955 C   0  0  2  0  0  0  0  0  0  0  0  0
   19.5445   -8.5310  -15.5481 N   0  0  0  0  0  0  0  0  0  0  0  0
   21.4626   -7.9376  -14.1860 C   0  0  0  0  0  0  0  0  0  0  0  0
   22.4510   -8.2394  -13.4459 O   0  0  0  0  0  0  0  0  0  0  0  0
   21.0335   -6.6016  -14.3617 N   0  0  0  0  0  0  0  0  0  0  0  0
   21.7813   -5.4947  -13.8596 C   0  0  0  0  0  0  0  0  0  0  0  0
   21.1158   -4.1803  -14.1548 C   0  0  0  0  0  0  0  0  0  0  0  0
   20.0127   -4.1555  -14.7534 O   0  0  0  0  0  0  0  0  0  0  0  0
   21.2474    0.6515  -13.5662 O   0  0  0  0  0  0  0  0  0  0  0  0
   21.9367   -0.5512  -13.3369 C   0  0  0  0  0  0  0  0  0  0  0  0
   21.1649   -1.6616  -14.0277 C   0  0  2  0  0  0  0  0  0  0  0  0
   21.7096   -2.9533  -13.7695 N   0  0  0  0  0  0  0  0  0  0  0  0
   21.0146   -1.3666  -15.4748 C   0  0  0  0  0  0  0  0  0  0  0  0
   21.9611   -1.6830  -16.2734 O   0  0  0  0  0  0  0  0  0  0  0  0
   19.9019   -0.7653  -16.0105 O   0  0  0  0  0  0  0  0  0  0  0  0
  1  2  1  0
  2  3  2  0
  4  2  1  0
  4  5  1  0
  5  6  1  6
  7  8  2  0
  7  5  1  0
  9  7  1  0
 10 11  1  0
 10  9  1  0
 11 16  1  0
 12 11  2  0
 13 14  1  0
 15 14  1  6
 15 17  1  0
 16 15  1  0
 17 18  2  0
 17 19  1  0
M  END
$$$$
