NGS.pdb
     RDKit          3D

 19 18  0  0  1  0  0  0  0  0999 V2000
   19.7799  -15.7086  -18.0642 N   0  0  0  0  0  0  0  0  0  0  0  0
   19.5617  -14.6711  -17.0854 C   0  0  0  0  0  0  0  0  0  0  0  0
   18.6404  -14.8518  -16.2661 O   0  0  0  0  0  0  0  0  0  0  0  0
   20.4264  -13.4908  -17.1201 C   0  0  0  0  0  0  0  0  0  0  0  0
   19.7874  -12.2435  -16.5835 C   0  0  2  0  0  0  0  0  0  0  0  0
   18.5841  -11.8629  -17.2636 N   0  0  0  0  0  0  0  0  0  0  0  0
   20.7782  -11.1361  -16.5259 C   0  0  0  0  0  0  0  0  0  0  0  0
   21.9469  -11.3191  -16.9910 O   0  0  0  0  0  0  0  0  0  0  0  0
   20.3806   -9.9071  -15.9500 N   0  0  0  0  0  0  0  0  0  0  0  0
   21.2987   -8.8328  -15.7513 C   0  0  0  0  0  0  0  0  0  0  0  0
   20.6379   -7.6273  -15.1450 C   0  0  0  0  0  0  0  0  0  0  0  0
   19.3947   -7.6132  -14.9718 O   0  0  0  0  0  0  0  0  0  0  0  0
   22.9485   -5.2920  -13.0764 O   0  0  0  0  0  0  0  0  0  0  0  0
   21.9196   -4.4441  -13.5196 C   0  0  0  0  0  0  0  0  0  0  0  0
   20.8548   -5.3130  -14.1656 C   0  0  2  0  0  0  0  0  0  0  0  0
   21.3923   -6.4922  -14.7591 N   0  0  0  0  0  0  0  0  0  0  0  0
   20.0270   -4.5103  -15.1006 C   0  0  0  0  0  0  0  0  0  0  0  0
   20.3005   -4.5360  -16.3489 O   0  0  0  0  0  0  0  0  0  0  0  0
   18.9706   -3.7319  -14.6948 O   0  0  0  0  0  0  0  0  0  0  0  0
  1  2  1  0
  2  3  2  0
  4  2  1  0
  4  5  1  0
  5  6  1  6
  7  8  2  0
  7  5  1  0
  9  7  1  0
 10 11  1  0
 10  9  1  0
 11 16  1  0
 12 11  2  0
 13 14  1  0
 15 14  1  6
 15 17  1  0
 16 15  1  0
 17 18  2  0
 17 19  1  0
M  END
$$$$
