NGS.pdb
     RDKit          3D

 19 18  0  0  1  0  0  0  0  0999 V2000
   13.3971  -12.9454  -16.1574 N   0  0  0  0  0  0  0  0  0  0  0  0
   14.6483  -12.5865  -15.5344 C   0  0  0  0  0  0  0  0  0  0  0  0
   15.2164  -13.4665  -14.8594 O   0  0  0  0  0  0  0  0  0  0  0  0
   15.1596  -11.2299  -15.7345 C   0  0  0  0  0  0  0  0  0  0  0  0
   16.5821  -11.0373  -15.2970 C   0  0  2  0  0  0  0  0  0  0  0  0
   16.7930  -11.2254  -13.8915 N   0  0  0  0  0  0  0  0  0  0  0  0
   17.0999   -9.7282  -15.7759 C   0  0  0  0  0  0  0  0  0  0  0  0
   17.1505   -9.4956  -17.0245 O   0  0  0  0  0  0  0  0  0  0  0  0
   17.5215   -8.7796  -14.8154 N   0  0  0  0  0  0  0  0  0  0  0  0
   18.0341   -7.5012  -15.1891 C   0  0  0  0  0  0  0  0  0  0  0  0
   19.3263   -7.1828  -14.4919 C   0  0  0  0  0  0  0  0  0  0  0  0
   19.5302   -7.6005  -13.3258 O   0  0  0  0  0  0  0  0  0  0  0  0
   23.9438   -5.9888  -14.9281 O   0  0  0  0  0  0  0  0  0  0  0  0
   22.7312   -6.2274  -15.5966 C   0  0  0  0  0  0  0  0  0  0  0  0
   21.6144   -6.1243  -14.5729 C   0  0  2  0  0  0  0  0  0  0  0  0
   20.3328   -6.4133  -15.1256 N   0  0  0  0  0  0  0  0  0  0  0  0
   21.6705   -4.8158  -13.8739 C   0  0  0  0  0  0  0  0  0  0  0  0
   21.0723   -3.8111  -14.3901 O   0  0  0  0  0  0  0  0  0  0  0  0
   22.3374   -4.6216  -12.6889 O   0  0  0  0  0  0  0  0  0  0  0  0
  1  2  1  0
  2  3  2  0
  4  2  1  0
  4  5  1  0
  5  6  1  1
  7  8  2  0
  7  5  1  0
  9  7  1  0
 10 11  1  0
 10  9  1  0
 11 16  1  0
 12 11  2  0
 13 14  1  0
 15 14  1  6
 15 17  1  0
 16 15  1  0
 17 18  2  0
 17 19  1  0
M  END
$$$$
