NGS.pdb
     RDKit          3D

 19 18  0  0  1  0  0  0  0  0999 V2000
   28.5760  -18.5528  -16.8942 N   0  0  0  0  0  0  0  0  0  0  0  0
   27.7393  -18.8437  -18.0333 C   0  0  0  0  0  0  0  0  0  0  0  0
   28.3162  -19.0949  -19.1088 O   0  0  0  0  0  0  0  0  0  0  0  0
   26.2873  -18.8245  -17.8512 C   0  0  0  0  0  0  0  0  0  0  0  0
   25.8468  -18.5321  -16.4467 C   0  0  2  0  0  0  0  0  0  0  0  0
   25.9152  -19.6602  -15.5647 N   0  0  0  0  0  0  0  0  0  0  0  0
   24.5031  -17.8952  -16.4461 C   0  0  0  0  0  0  0  0  0  0  0  0
   24.3459  -16.7683  -17.0130 O   0  0  0  0  0  0  0  0  0  0  0  0
   23.4379  -18.5726  -15.8085 N   0  0  0  0  0  0  0  0  0  0  0  0
   22.1256  -18.0169  -15.7326 C   0  0  0  0  0  0  0  0  0  0  0  0
   21.1658  -18.9255  -15.0180 C   0  0  0  0  0  0  0  0  0  0  0  0
   21.5973  -19.9109  -14.3710 O   0  0  0  0  0  0  0  0  0  0  0  0
   17.4617  -17.7390  -13.7316 O   0  0  0  0  0  0  0  0  0  0  0  0
   17.3958  -18.9230  -14.4852 C   0  0  0  0  0  0  0  0  0  0  0  0
   18.7804  -19.5466  -14.4826 C   0  0  2  0  0  0  0  0  0  0  0  0
   19.7686  -18.6949  -15.0568 N   0  0  0  0  0  0  0  0  0  0  0  0
   18.7420  -20.8979  -15.0960 C   0  0  0  0  0  0  0  0  0  0  0  0
   19.2943  -21.0776  -16.2347 O   0  0  0  0  0  0  0  0  0  0  0  0
   18.1390  -21.9794  -14.5015 O   0  0  0  0  0  0  0  0  0  0  0  0
  1  2  1  0
  2  3  2  0
  4  2  1  0
  4  5  1  0
  5  6  1  1
  7  8  2  0
  7  5  1  0
  9  7  1  0
 10 11  1  0
 10  9  1  0
 11 16  1  0
 12 11  2  0
 13 14  1  0
 15 14  1  6
 15 17  1  0
 16 15  1  0
 17 18  2  0
 17 19  1  0
M  END
$$$$
