NGS.pdb
     RDKit          3D

 19 18  0  0  1  0  0  0  0  0999 V2000
   17.4021  -15.5132  -16.1772 N   0  0  0  0  0  0  0  0  0  0  0  0
   18.4240  -15.0856  -15.2524 C   0  0  0  0  0  0  0  0  0  0  0  0
   19.0898  -15.9784  -14.6934 O   0  0  0  0  0  0  0  0  0  0  0  0
   18.6075  -13.6499  -15.0357 C   0  0  0  0  0  0  0  0  0  0  0  0
   17.7010  -12.7822  -15.8587 C   0  0  2  0  0  0  0  0  0  0  0  0
   18.1294  -12.6091  -17.2158 N   0  0  0  0  0  0  0  0  0  0  0  0
   17.4602  -11.4851  -15.1725 C   0  0  0  0  0  0  0  0  0  0  0  0
   16.9756  -11.4809  -13.9973 O   0  0  0  0  0  0  0  0  0  0  0  0
   17.7820  -10.2912  -15.8587 N   0  0  0  0  0  0  0  0  0  0  0  0
   17.7671   -9.0193  -15.2117 C   0  0  0  0  0  0  0  0  0  0  0  0
   18.1316   -7.9025  -16.1485 C   0  0  0  0  0  0  0  0  0  0  0  0
   18.5067   -8.1612  -17.3181 O   0  0  0  0  0  0  0  0  0  0  0  0
   17.7476   -3.9183  -18.2353 O   0  0  0  0  0  0  0  0  0  0  0  0
   17.2530   -4.9237  -17.3876 C   0  0  0  0  0  0  0  0  0  0  0  0
   18.4131   -5.4278  -16.5475 C   0  0  2  0  0  0  0  0  0  0  0  0
   18.0615   -6.5481  -15.7393 N   0  0  0  0  0  0  0  0  0  0  0  0
   19.0171   -4.3133  -15.7748 C   0  0  0  0  0  0  0  0  0  0  0  0
   19.7105   -3.4351  -16.3926 O   0  0  0  0  0  0  0  0  0  0  0  0
   18.8708   -4.1710  -14.4164 O   0  0  0  0  0  0  0  0  0  0  0  0
  1  2  1  0
  2  3  2  0
  4  2  1  0
  4  5  1  0
  5  6  1  6
  7  8  2  0
  7  5  1  0
  9  7  1  0
 10 11  1  0
 10  9  1  0
 11 16  1  0
 12 11  2  0
 13 14  1  0
 15 14  1  1
 15 17  1  0
 16 15  1  0
 17 18  2  0
 17 19  1  0
M  END
$$$$
