NGS.pdb
     RDKit          3D

 19 18  0  0  1  0  0  0  0  0999 V2000
   14.2814  -12.8271  -15.5039 N   0  0  0  0  0  0  0  0  0  0  0  0
   15.7175  -12.7382  -15.6146 C   0  0  0  0  0  0  0  0  0  0  0  0
   16.3474  -13.8119  -15.6719 O   0  0  0  0  0  0  0  0  0  0  0  0
   16.3301  -11.4096  -15.6516 C   0  0  0  0  0  0  0  0  0  0  0  0
   17.8265  -11.4183  -15.5387 C   0  0  2  0  0  0  0  0  0  0  0  0
   18.3115  -11.5063  -14.1925 N   0  0  0  0  0  0  0  0  0  0  0  0
   18.4093  -10.2653  -16.2750 C   0  0  0  0  0  0  0  0  0  0  0  0
   18.0929  -10.0770  -17.4916 O   0  0  0  0  0  0  0  0  0  0  0  0
   19.3035   -9.4114  -15.5885 N   0  0  0  0  0  0  0  0  0  0  0  0
   19.9068   -8.2828  -16.2199 C   0  0  0  0  0  0  0  0  0  0  0  0
   20.7833   -7.5074  -15.2775 C   0  0  0  0  0  0  0  0  0  0  0  0
   20.8109   -7.8039  -14.0580 O   0  0  0  0  0  0  0  0  0  0  0  0
   23.9016   -5.4710  -16.8195 O   0  0  0  0  0  0  0  0  0  0  0  0
   23.3603   -4.7420  -15.7471 C   0  0  0  0  0  0  0  0  0  0  0  0
   22.5014   -5.6931  -14.9325 C   0  0  2  0  0  0  0  0  0  0  0  0
   21.5891   -6.4367  -15.7366 N   0  0  0  0  0  0  0  0  0  0  0  0
   21.8440   -4.9705  -13.8147 C   0  0  0  0  0  0  0  0  0  0  0  0
   20.7172   -4.4034  -14.0208 O   0  0  0  0  0  0  0  0  0  0  0  0
   22.3853   -4.8757  -12.5558 O   0  0  0  0  0  0  0  0  0  0  0  0
  1  2  1  0
  2  3  2  0
  4  2  1  0
  4  5  1  0
  5  6  1  1
  7  8  2  0
  7  5  1  0
  9  7  1  0
 10 11  1  0
 10  9  1  0
 11 16  1  0
 12 11  2  0
 13 14  1  0
 15 14  1  6
 15 17  1  0
 16 15  1  0
 17 18  2  0
 17 19  1  0
M  END
$$$$
