NGS.pdb
     RDKit          3D

 19 18  0  0  1  0  0  0  0  0999 V2000
   20.1002  -13.0953  -20.2811 N   0  0  0  0  0  0  0  0  0  0  0  0
   20.8231  -11.8661  -20.5019 C   0  0  0  0  0  0  0  0  0  0  0  0
   20.7790  -11.3829  -21.6496 O   0  0  0  0  0  0  0  0  0  0  0  0
   21.5505  -11.2768  -19.3770 C   0  0  0  0  0  0  0  0  0  0  0  0
   21.7176   -9.7880  -19.4640 C   0  0  2  0  0  0  0  0  0  0  0  0
   22.7118   -9.3644  -20.4060 N   0  0  0  0  0  0  0  0  0  0  0  0
   21.9381   -9.2104  -18.1116 C   0  0  0  0  0  0  0  0  0  0  0  0
   21.0424   -9.3479  -17.2202 O   0  0  0  0  0  0  0  0  0  0  0  0
   23.1483   -8.5220  -17.8634 N   0  0  0  0  0  0  0  0  0  0  0  0
   23.4181   -7.8939  -16.6107 C   0  0  0  0  0  0  0  0  0  0  0  0
   22.5905   -6.6565  -16.4072 C   0  0  0  0  0  0  0  0  0  0  0  0
   22.3565   -5.8915  -17.3745 O   0  0  0  0  0  0  0  0  0  0  0  0
   19.2407   -4.3049  -14.0401 O   0  0  0  0  0  0  0  0  0  0  0  0
   19.9716   -5.4991  -14.1574 C   0  0  0  0  0  0  0  0  0  0  0  0
   21.2848   -5.1683  -14.8443 C   0  0  2  0  0  0  0  0  0  0  0  0
   22.0612   -6.3277  -15.1350 N   0  0  0  0  0  0  0  0  0  0  0  0
   22.0295   -4.1415  -14.0729 C   0  0  0  0  0  0  0  0  0  0  0  0
   22.7601   -4.5122  -13.0918 O   0  0  0  0  0  0  0  0  0  0  0  0
   21.9771   -2.7988  -14.3578 O   0  0  0  0  0  0  0  0  0  0  0  0
  1  2  1  0
  2  3  2  0
  4  2  1  0
  4  5  1  0
  5  6  1  6
  7  8  2  0
  7  5  1  0
  9  7  1  0
 10 11  1  0
 10  9  1  0
 11 16  1  0
 12 11  2  0
 13 14  1  0
 15 14  1  1
 15 17  1  0
 16 15  1  0
 17 18  2  0
 17 19  1  0
M  END
$$$$
