PTK.pdb
     RDKit          3D

 24 24  0  0  1  0  0  0  0  0999 V2000
    9.2698  -14.4961   18.5655 N   0  0  0  0  0  0  0  0  0  0  0  0
    8.1831  -14.3211   17.6217 C   0  0  0  0  0  0  0  0  0  0  0  0
    7.7168  -12.9021   17.9175 C   0  0  0  0  0  0  0  0  0  0  0  0
    7.7408  -12.9193   19.4512 C   0  0  0  0  0  0  0  0  0  0  0  0
    8.8949  -13.8409   19.7806 C   0  0  1  0  0  0  0  0  0  0  0  0
    8.4192  -14.8193   20.8168 C   0  0  0  0  0  0  0  0  0  0  0  0
    7.2465  -14.7014   21.2503 O   0  0  0  0  0  0  0  0  0  0  0  0
    9.0923  -19.1431   23.1326 C   0  0  0  0  0  0  0  0  0  0  0  0
    9.4833  -18.0863   22.1531 C   0  0  1  0  0  0  0  0  0  0  0  0
    8.9972  -18.4990   20.8893 O   0  0  0  0  0  0  0  0  0  0  0  0
    8.7969  -16.7386   22.4055 C   0  0  2  0  0  0  0  0  0  0  0  0
    9.2342  -15.8484   21.3095 N   0  0  0  0  0  0  0  0  0  0  0  0
    9.1683  -16.1434   23.7031 C   0  0  0  0  0  0  0  0  0  0  0  0
   10.3604  -15.6890   23.8028 O   0  0  0  0  0  0  0  0  0  0  0  0
    8.3192  -16.0358   24.8311 N   0  0  0  0  0  0  0  0  0  0  0  0
    8.8081  -15.4406   26.0398 C   0  0  1  0  0  0  0  0  0  0  0  0
    7.8046  -14.6240   26.7696 C   0  0  0  0  0  0  0  0  0  0  0  0
    7.4123  -13.3274   26.1733 C   0  0  0  0  0  0  0  0  0  0  0  0
    6.3564  -12.5693   26.9374 C   0  0  0  0  0  0  0  0  0  0  0  0
    6.1107  -11.1990   26.3217 C   0  0  0  0  0  0  0  0  0  0  0  0
    4.9980  -10.6121   27.0377 N   0  0  0  0  0  0  0  0  0  0  0  0
    9.5202  -16.4486   26.8523 C   0  0  0  0  0  0  0  0  0  0  0  0
   10.5213  -16.0307   27.7124 O   0  0  0  0  0  0  0  0  0  0  0  0
    9.2701  -17.6801   26.8124 O   0  0  0  0  0  0  0  0  0  0  0  0
  1  2  1  0
  3  2  1  0
  4  3  1  0
  5  4  1  0
  5  1  1  0
  6  7  2  0
  5  6  1  1
  9  8  1  1
  9 10  1  0
  9 11  1  0
 11 12  1  6
 12  6  1  0
 13 15  1  0
 13 11  1  0
 14 13  2  0
 16 15  1  0
 16 22  1  0
 16 17  1  1
 17 18  1  0
 19 18  1  0
 20 21  1  0
 20 19  1  0
 22 23  1  0
 24 22  2  0
M  END
$$$$
