PTK.pdb
     RDKit          3D

 24 24  0  0  1  0  0  0  0  0999 V2000
    8.3010  -15.5564   18.0003 N   0  0  0  0  0  0  0  0  0  0  0  0
    7.0628  -14.9124   17.6075 C   0  0  0  0  0  0  0  0  0  0  0  0
    7.5550  -13.7263   16.7891 C   0  0  0  0  0  0  0  0  0  0  0  0
    8.7167  -13.2486   17.6696 C   0  0  0  0  0  0  0  0  0  0  0  0
    9.2536  -14.5260   18.2777 C   0  0  1  0  0  0  0  0  0  0  0  0
    9.4139  -14.2990   19.7542 C   0  0  0  0  0  0  0  0  0  0  0  0
   10.2024  -13.3983   20.1340 O   0  0  0  0  0  0  0  0  0  0  0  0
    7.0798  -13.3061   22.4050 C   0  0  0  0  0  0  0  0  0  0  0  0
    7.6544  -14.6192   22.8229 C   0  0  1  0  0  0  0  0  0  0  0  0
    6.7784  -15.6216   22.3415 O   0  0  0  0  0  0  0  0  0  0  0  0
    8.9992  -14.9346   22.1571 C   0  0  2  0  0  0  0  0  0  0  0  0
    8.7187  -15.0524   20.7107 N   0  0  0  0  0  0  0  0  0  0  0  0
    9.5982  -16.1901   22.6479 C   0  0  0  0  0  0  0  0  0  0  0  0
    9.5879  -17.1820   21.8395 O   0  0  0  0  0  0  0  0  0  0  0  0
   10.1773  -16.3800   23.9261 N   0  0  0  0  0  0  0  0  0  0  0  0
   10.6895  -17.6667   24.2949 C   0  0  1  0  0  0  0  0  0  0  0  0
   11.7145  -18.2070   23.3654 C   0  0  0  0  0  0  0  0  0  0  0  0
   12.3912  -19.4663   23.7491 C   0  0  0  0  0  0  0  0  0  0  0  0
   13.4499  -19.9388   22.7851 C   0  0  0  0  0  0  0  0  0  0  0  0
   13.5268  -21.4588   22.7558 C   0  0  0  0  0  0  0  0  0  0  0  0
   14.5164  -21.8085   21.7591 N   0  0  0  0  0  0  0  0  0  0  0  0
   11.0596  -17.6769   25.7253 C   0  0  0  0  0  0  0  0  0  0  0  0
   10.8037  -16.5528   26.4919 O   0  0  0  0  0  0  0  0  0  0  0  0
   11.5991  -18.6567   26.2994 O   0  0  0  0  0  0  0  0  0  0  0  0
  1  2  1  0
  3  2  1  0
  4  3  1  0
  5  4  1  0
  5  1  1  0
  6  7  2  0
  5  6  1  1
  9  8  1  6
  9 10  1  0
  9 11  1  0
 11 12  1  6
 12  6  1  0
 13 15  1  0
 13 11  1  0
 14 13  2  0
 16 15  1  0
 16 22  1  0
 16 17  1  6
 17 18  1  0
 19 18  1  0
 20 21  1  0
 20 19  1  0
 22 23  1  0
 24 22  2  0
M  END
$$$$
