PTK.pdb
     RDKit          3D

 24 24  0  0  1  0  0  0  0  0999 V2000
    9.4503  -14.3898   18.4657 N   0  0  0  0  0  0  0  0  0  0  0  0
    8.4402  -14.4734   17.4289 C   0  0  0  0  0  0  0  0  0  0  0  0
    7.7634  -13.1124   17.5193 C   0  0  0  0  0  0  0  0  0  0  0  0
    7.6502  -12.9629   19.0418 C   0  0  0  0  0  0  0  0  0  0  0  0
    8.8824  -13.6695   19.5634 C   0  0  1  0  0  0  0  0  0  0  0  0
    8.4497  -14.5901   20.6690 C   0  0  0  0  0  0  0  0  0  0  0  0
    7.6520  -14.1473   21.5321 O   0  0  0  0  0  0  0  0  0  0  0  0
    7.5003  -18.4197   20.1646 C   0  0  0  0  0  0  0  0  0  0  0  0
    8.4862  -18.2274   21.2692 C   0  0  1  0  0  0  0  0  0  0  0  0
    9.7740  -18.3584   20.6962 O   0  0  0  0  0  0  0  0  0  0  0  0
    8.4719  -16.8118   21.8581 C   0  0  2  0  0  0  0  0  0  0  0  0
    8.9032  -15.9133   20.7666 N   0  0  0  0  0  0  0  0  0  0  0  0
    9.3826  -16.6633   23.0089 C   0  0  0  0  0  0  0  0  0  0  0  0
   10.5957  -16.3562   22.7414 O   0  0  0  0  0  0  0  0  0  0  0  0
    9.0234  -16.8305   24.3684 N   0  0  0  0  0  0  0  0  0  0  0  0
   10.0286  -16.7593   25.3875 C   0  0  1  0  0  0  0  0  0  0  0  0
    9.5529  -16.1998   26.6787 C   0  0  0  0  0  0  0  0  0  0  0  0
   10.5716  -15.8847   27.7053 C   0  0  0  0  0  0  0  0  0  0  0  0
   10.1425  -14.8729   28.7376 C   0  0  0  0  0  0  0  0  0  0  0  0
   11.2506  -14.6172   29.7495 C   0  0  0  0  0  0  0  0  0  0  0  0
   10.7391  -13.6467   30.6937 N   0  0  0  0  0  0  0  0  0  0  0  0
   10.7530  -18.0438   25.4793 C   0  0  0  0  0  0  0  0  0  0  0  0
   12.0972  -18.0332   25.8103 O   0  0  0  0  0  0  0  0  0  0  0  0
   10.2178  -19.1628   25.2740 O   0  0  0  0  0  0  0  0  0  0  0  0
  1  2  1  0
  3  2  1  0
  4  3  1  0
  5  4  1  0
  5  1  1  0
  6  7  2  0
  5  6  1  1
  9  8  1  6
  9 10  1  0
  9 11  1  0
 11 12  1  6
 12  6  1  0
 13 15  1  0
 13 11  1  0
 14 13  2  0
 16 15  1  0
 16 22  1  0
 16 17  1  1
 17 18  1  0
 19 18  1  0
 20 21  1  0
 20 19  1  0
 22 23  1  0
 24 22  2  0
M  END
$$$$
