PTK.pdb
     RDKit          3D

 24 24  0  0  1  0  0  0  0  0999 V2000
    8.2878  -15.7491   16.0452 N   0  0  0  0  0  0  0  0  0  0  0  0
    9.4167  -16.4322   15.4440 C   0  0  0  0  0  0  0  0  0  0  0  0
    9.1449  -17.8884   15.7965 C   0  0  0  0  0  0  0  0  0  0  0  0
    8.7056  -17.7394   17.2587 C   0  0  0  0  0  0  0  0  0  0  0  0
    8.0010  -16.4006   17.2860 C   0  0  1  0  0  0  0  0  0  0  0  0
    8.5338  -15.6257   18.4577 C   0  0  0  0  0  0  0  0  0  0  0  0
    9.5132  -14.8625   18.2687 O   0  0  0  0  0  0  0  0  0  0  0  0
    6.9370  -13.0335   20.3250 C   0  0  0  0  0  0  0  0  0  0  0  0
    7.3388  -14.0500   21.3420 C   0  0  1  0  0  0  0  0  0  0  0  0
    6.2448  -14.9361   21.4899 O   0  0  0  0  0  0  0  0  0  0  0  0
    8.4965  -14.9448   20.8837 C   0  0  2  0  0  0  0  0  0  0  0  0
    7.9782  -15.7264   19.7412 N   0  0  0  0  0  0  0  0  0  0  0  0
    8.9604  -15.8634   21.9405 C   0  0  0  0  0  0  0  0  0  0  0  0
    8.4468  -17.0355   21.9444 O   0  0  0  0  0  0  0  0  0  0  0  0
    9.9181  -15.5539   22.9365 N   0  0  0  0  0  0  0  0  0  0  0  0
   10.2930  -16.5458   23.9007 C   0  0  1  0  0  0  0  0  0  0  0  0
   11.7128  -16.9745   23.8177 C   0  0  0  0  0  0  0  0  0  0  0  0
   12.1603  -17.6224   22.5644 C   0  0  0  0  0  0  0  0  0  0  0  0
   13.5991  -18.0734   22.5601 C   0  0  0  0  0  0  0  0  0  0  0  0
   13.9573  -18.7535   21.2462 C   0  0  0  0  0  0  0  0  0  0  0  0
   15.3499  -19.1372   21.3398 N   0  0  0  0  0  0  0  0  0  0  0  0
    9.8254  -16.1513   25.2457 C   0  0  0  0  0  0  0  0  0  0  0  0
    9.9698  -17.0439   26.2941 O   0  0  0  0  0  0  0  0  0  0  0  0
    9.2979  -15.0394   25.5026 O   0  0  0  0  0  0  0  0  0  0  0  0
  1  2  1  0
  3  2  1  0
  4  3  1  0
  5  4  1  0
  5  1  1  0
  6  7  2  0
  5  6  1  1
  9  8  1  6
  9 10  1  0
  9 11  1  0
 11 12  1  6
 12  6  1  0
 13 15  1  0
 13 11  1  0
 14 13  2  0
 16 15  1  0
 16 22  1  0
 16 17  1  1
 17 18  1  0
 19 18  1  0
 20 21  1  0
 20 19  1  0
 22 23  1  0
 24 22  2  0
M  END
$$$$
