PTK.pdb
     RDKit          3D

 24 24  0  0  1  0  0  0  0  0999 V2000
    9.3990  -18.5799   18.6496 N   0  0  0  0  0  0  0  0  0  0  0  0
    9.2509  -18.0522   17.3072 C   0  0  0  0  0  0  0  0  0  0  0  0
   10.6892  -18.0139   16.8090 C   0  0  0  0  0  0  0  0  0  0  0  0
   11.3951  -17.4549   18.0509 C   0  0  0  0  0  0  0  0  0  0  0  0
   10.5937  -18.0206   19.2030 C   0  0  1  0  0  0  0  0  0  0  0  0
   10.2938  -16.8936   20.1502 C   0  0  0  0  0  0  0  0  0  0  0  0
   11.2572  -16.2296   20.6066 O   0  0  0  0  0  0  0  0  0  0  0  0
    6.8853  -13.7591   21.9169 C   0  0  0  0  0  0  0  0  0  0  0  0
    7.2930  -14.9671   21.1400 C   0  0  1  0  0  0  0  0  0  0  0  0
    7.3772  -14.5724   19.7832 O   0  0  0  0  0  0  0  0  0  0  0  0
    8.7028  -15.4635   21.4821 C   0  0  2  0  0  0  0  0  0  0  0  0
    8.9870  -16.5632   20.5362 N   0  0  0  0  0  0  0  0  0  0  0  0
    8.8119  -15.9621   22.8661 C   0  0  0  0  0  0  0  0  0  0  0  0
    8.6784  -17.2240   23.0308 O   0  0  0  0  0  0  0  0  0  0  0  0
    9.0512  -15.1637   24.0109 N   0  0  0  0  0  0  0  0  0  0  0  0
    9.0292  -15.7587   25.3146 C   0  0  1  0  0  0  0  0  0  0  0  0
    9.5944  -14.9016   26.3882 C   0  0  0  0  0  0  0  0  0  0  0  0
    9.5586  -15.4249   27.7723 C   0  0  0  0  0  0  0  0  0  0  0  0
   10.0643  -14.4721   28.8259 C   0  0  0  0  0  0  0  0  0  0  0  0
    9.9731  -15.0900   30.2141 C   0  0  0  0  0  0  0  0  0  0  0  0
   10.4543  -14.0940   31.1477 N   0  0  0  0  0  0  0  0  0  0  0  0
    7.6946  -16.3286   25.5922 C   0  0  0  0  0  0  0  0  0  0  0  0
    7.6077  -17.5342   26.2673 O   0  0  0  0  0  0  0  0  0  0  0  0
    6.6166  -15.7795   25.2501 O   0  0  0  0  0  0  0  0  0  0  0  0
  1  2  1  0
  3  2  1  0
  4  3  1  0
  5  4  1  0
  5  1  1  0
  6  7  2  0
  5  6  1  1
  9  8  1  1
  9 10  1  0
  9 11  1  0
 11 12  1  6
 12  6  1  0
 13 15  1  0
 13 11  1  0
 14 13  2  0
 16 15  1  0
 16 22  1  0
 16 17  1  1
 17 18  1  0
 19 18  1  0
 20 21  1  0
 20 19  1  0
 22 23  1  0
 24 22  2  0
M  END
$$$$
