PTK.pdb
     RDKit          3D

 24 24  0  0  1  0  0  0  0  0999 V2000
    7.8620  -15.0455   20.2958 N   0  0  0  0  0  0  0  0  0  0  0  0
    6.5783  -14.5086   19.8884 C   0  0  0  0  0  0  0  0  0  0  0  0
    6.9635  -13.1726   19.2675 C   0  0  0  0  0  0  0  0  0  0  0  0
    7.9944  -12.6811   20.2916 C   0  0  0  0  0  0  0  0  0  0  0  0
    8.6527  -13.9545   20.7761 C   0  0  1  0  0  0  0  0  0  0  0  0
    8.6872  -13.9105   22.2774 C   0  0  0  0  0  0  0  0  0  0  0  0
    8.7083  -12.7868   22.8380 O   0  0  0  0  0  0  0  0  0  0  0  0
    7.4557  -12.8834   24.3940 C   0  0  0  0  0  0  0  0  0  0  0  0
    7.5776  -14.2332   25.0203 C   0  0  1  0  0  0  0  0  0  0  0  0
    6.4704  -14.9936   24.5735 O   0  0  0  0  0  0  0  0  0  0  0  0
    8.8019  -15.0199   24.5372 C   0  0  2  0  0  0  0  0  0  0  0  0
    8.6962  -15.0714   23.0638 N   0  0  0  0  0  0  0  0  0  0  0  0
    8.8479  -16.3918   25.0772 C   0  0  0  0  0  0  0  0  0  0  0  0
    8.2377  -17.2919   24.4028 O   0  0  0  0  0  0  0  0  0  0  0  0
    9.5073  -16.7852   26.2670 N   0  0  0  0  0  0  0  0  0  0  0  0
    9.9692  -18.1337   26.4161 C   0  0  1  0  0  0  0  0  0  0  0  0
   10.9442  -18.5648   25.3816 C   0  0  0  0  0  0  0  0  0  0  0  0
   11.5782  -19.8918   25.5488 C   0  0  0  0  0  0  0  0  0  0  0  0
   12.6015  -20.2447   24.4991 C   0  0  0  0  0  0  0  0  0  0  0  0
   13.1405  -21.6527   24.7092 C   0  0  0  0  0  0  0  0  0  0  0  0
   14.0821  -21.9042   23.6391 N   0  0  0  0  0  0  0  0  0  0  0  0
   10.3749  -18.3816   27.8150 C   0  0  0  0  0  0  0  0  0  0  0  0
   10.3468  -17.3318   28.7172 O   0  0  0  0  0  0  0  0  0  0  0  0
   10.7486  -19.5024   28.2449 O   0  0  0  0  0  0  0  0  0  0  0  0
  1  2  1  0
  3  2  1  0
  4  3  1  0
  5  4  1  0
  5  1  1  0
  6  7  2  0
  5  6  1  1
  9  8  1  6
  9 10  1  0
  9 11  1  0
 11 12  1  6
 12  6  1  0
 13 15  1  0
 13 11  1  0
 14 13  2  0
 16 15  1  0
 16 22  1  0
 16 17  1  6
 17 18  1  0
 19 18  1  0
 20 21  1  0
 20 19  1  0
 22 23  1  0
 24 22  2  0
M  END
$$$$
