PTK.pdb
     RDKit          3D

 24 24  0  0  1  0  0  0  0  0999 V2000
    8.2330  -14.5079   18.2941 N   0  0  0  0  0  0  0  0  0  0  0  0
    7.1430  -13.5671   18.1239 C   0  0  0  0  0  0  0  0  0  0  0  0
    7.7590  -12.2606   18.6057 C   0  0  0  0  0  0  0  0  0  0  0  0
    8.4954  -12.7501   19.8591 C   0  0  0  0  0  0  0  0  0  0  0  0
    8.9222  -14.1560   19.4972 C   0  0  1  0  0  0  0  0  0  0  0  0
    8.5457  -15.0577   20.6384 C   0  0  0  0  0  0  0  0  0  0  0  0
    7.3257  -15.2586   20.8586 O   0  0  0  0  0  0  0  0  0  0  0  0
    9.6368  -18.9228   23.3641 C   0  0  0  0  0  0  0  0  0  0  0  0
    9.9060  -17.8779   22.3321 C   0  0  1  0  0  0  0  0  0  0  0  0
    9.4088  -18.3771   21.1043 O   0  0  0  0  0  0  0  0  0  0  0  0
    9.1235  -16.5795   22.5621 C   0  0  2  0  0  0  0  0  0  0  0  0
    9.5028  -15.6752   21.4561 N   0  0  0  0  0  0  0  0  0  0  0  0
    9.4433  -15.9418   23.8532 C   0  0  0  0  0  0  0  0  0  0  0  0
   10.6264  -15.4711   23.9802 O   0  0  0  0  0  0  0  0  0  0  0  0
    8.5544  -15.8104   24.9476 N   0  0  0  0  0  0  0  0  0  0  0  0
    9.0037  -15.2007   26.1644 C   0  0  1  0  0  0  0  0  0  0  0  0
    7.9698  -14.3955   26.8639 C   0  0  0  0  0  0  0  0  0  0  0  0
    7.4366  -13.2067   26.1616 C   0  0  0  0  0  0  0  0  0  0  0  0
    6.3557  -12.4614   26.9032 C   0  0  0  0  0  0  0  0  0  0  0  0
    5.9106  -11.2276   26.1307 C   0  0  0  0  0  0  0  0  0  0  0  0
    4.9181  -10.5595   26.9454 N   0  0  0  0  0  0  0  0  0  0  0  0
    9.7105  -16.1928   27.0006 C   0  0  0  0  0  0  0  0  0  0  0  0
   10.7203  -15.7611   27.8437 O   0  0  0  0  0  0  0  0  0  0  0  0
    9.4486  -17.4224   26.9959 O   0  0  0  0  0  0  0  0  0  0  0  0
  1  2  1  0
  3  2  1  0
  4  3  1  0
  5  4  1  0
  5  1  1  0
  6  7  2  0
  5  6  1  1
  9  8  1  1
  9 10  1  0
  9 11  1  0
 11 12  1  6
 12  6  1  0
 13 15  1  0
 13 11  1  0
 14 13  2  0
 16 15  1  0
 16 22  1  0
 16 17  1  1
 17 18  1  0
 19 18  1  0
 20 21  1  0
 20 19  1  0
 22 23  1  0
 24 22  2  0
M  END
$$$$
