PTK.pdb
     RDKit          3D

 24 24  0  0  1  0  0  0  0  0999 V2000
    8.3671  -17.0308   16.3662 N   0  0  0  0  0  0  0  0  0  0  0  0
    8.9158  -18.3691   16.2652 C   0  0  0  0  0  0  0  0  0  0  0  0
    7.8118  -19.2233   16.8736 C   0  0  0  0  0  0  0  0  0  0  0  0
    7.4386  -18.3646   18.0888 C   0  0  0  0  0  0  0  0  0  0  0  0
    7.6604  -16.9474   17.6071 C   0  0  1  0  0  0  0  0  0  0  0  0
    8.4594  -16.2265   18.6554 C   0  0  0  0  0  0  0  0  0  0  0  0
    9.6960  -16.0995   18.4762 O   0  0  0  0  0  0  0  0  0  0  0  0
    7.6268  -12.7848   20.1834 C   0  0  0  0  0  0  0  0  0  0  0  0
    7.8280  -13.7855   21.2730 C   0  0  1  0  0  0  0  0  0  0  0  0
    6.5554  -14.3301   21.5693 O   0  0  0  0  0  0  0  0  0  0  0  0
    8.6698  -14.9928   20.8427 C   0  0  2  0  0  0  0  0  0  0  0  0
    7.8747  -15.6967   19.8145 N   0  0  0  0  0  0  0  0  0  0  0  0
    8.9597  -15.9130   21.9585 C   0  0  0  0  0  0  0  0  0  0  0  0
    8.1316  -16.8719   22.1378 O   0  0  0  0  0  0  0  0  0  0  0  0
   10.0689  -15.8199   22.8337 N   0  0  0  0  0  0  0  0  0  0  0  0
   10.2341  -16.7818   23.8833 C   0  0  1  0  0  0  0  0  0  0  0  0
   11.5161  -17.5305   23.8313 C   0  0  0  0  0  0  0  0  0  0  0  0
   11.7170  -18.6138   24.8197 C   0  0  0  0  0  0  0  0  0  0  0  0
   13.0714  -19.2747   24.7725 C   0  0  0  0  0  0  0  0  0  0  0  0
   13.1840  -20.3713   25.8223 C   0  0  0  0  0  0  0  0  0  0  0  0
   14.5091  -20.9395   25.6932 N   0  0  0  0  0  0  0  0  0  0  0  0
    9.9058  -16.1728   25.1889 C   0  0  0  0  0  0  0  0  0  0  0  0
    9.6743  -16.9997   26.2749 O   0  0  0  0  0  0  0  0  0  0  0  0
    9.8232  -14.9329   25.3793 O   0  0  0  0  0  0  0  0  0  0  0  0
  1  2  1  0
  3  2  1  0
  4  3  1  0
  5  4  1  0
  5  1  1  0
  6  7  2  0
  5  6  1  1
  9  8  1  6
  9 10  1  0
  9 11  1  0
 11 12  1  6
 12  6  1  0
 13 15  1  0
 13 11  1  0
 14 13  2  0
 16 15  1  0
 16 22  1  0
 16 17  1  1
 17 18  1  0
 19 18  1  0
 20 21  1  0
 20 19  1  0
 22 23  1  0
 24 22  2  0
M  END
$$$$
