PTK.pdb
     RDKit          3D

 24 24  0  0  1  0  0  0  0  0999 V2000
    7.7955  -15.3780   20.0129 N   0  0  0  0  0  0  0  0  0  0  0  0
    6.6295  -14.6604   19.5358 C   0  0  0  0  0  0  0  0  0  0  0  0
    7.2487  -13.4726   18.8116 C   0  0  0  0  0  0  0  0  0  0  0  0
    8.3458  -13.0835   19.8106 C   0  0  0  0  0  0  0  0  0  0  0  0
    8.7652  -14.4061   20.4145 C   0  0  1  0  0  0  0  0  0  0  0  0
    8.8001  -14.2383   21.9071 C   0  0  0  0  0  0  0  0  0  0  0  0
    8.8085  -13.0721   22.3732 O   0  0  0  0  0  0  0  0  0  0  0  0
    7.2949  -13.1304   23.8722 C   0  0  0  0  0  0  0  0  0  0  0  0
    7.4221  -14.4613   24.5368 C   0  0  1  0  0  0  0  0  0  0  0  0
    6.4509  -15.3071   23.9492 O   0  0  0  0  0  0  0  0  0  0  0  0
    8.7582  -15.1581   24.2529 C   0  0  2  0  0  0  0  0  0  0  0  0
    8.8229  -15.3303   22.7863 N   0  0  0  0  0  0  0  0  0  0  0  0
    8.8662  -16.4743   24.9099 C   0  0  0  0  0  0  0  0  0  0  0  0
    8.4937  -17.4878   24.2232 O   0  0  0  0  0  0  0  0  0  0  0  0
    9.3449  -16.7006   26.2232 N   0  0  0  0  0  0  0  0  0  0  0  0
    9.4527  -18.0392   26.7241 C   0  0  1  0  0  0  0  0  0  0  0  0
   10.3548  -18.1838   27.8954 C   0  0  0  0  0  0  0  0  0  0  0  0
   10.5034  -19.5342   28.4827 C   0  0  0  0  0  0  0  0  0  0  0  0
   11.4173  -19.6103   29.6796 C   0  0  0  0  0  0  0  0  0  0  0  0
   11.3991  -21.0018   30.2967 C   0  0  0  0  0  0  0  0  0  0  0  0
   12.3777  -20.9992   31.3632 N   0  0  0  0  0  0  0  0  0  0  0  0
    8.1095  -18.6351   26.8785 C   0  0  0  0  0  0  0  0  0  0  0  0
    7.9811  -20.0134   26.8564 O   0  0  0  0  0  0  0  0  0  0  0  0
    7.0601  -17.9599   27.0322 O   0  0  0  0  0  0  0  0  0  0  0  0
  1  2  1  0
  3  2  1  0
  4  3  1  0
  5  4  1  0
  5  1  1  0
  6  7  2  0
  5  6  1  1
  9  8  1  6
  9 10  1  0
  9 11  1  0
 11 12  1  6
 12  6  1  0
 13 15  1  0
 13 11  1  0
 14 13  2  0
 16 15  1  0
 16 22  1  0
 16 17  1  1
 17 18  1  0
 19 18  1  0
 20 21  1  0
 20 19  1  0
 22 23  1  0
 24 22  2  0
M  END
$$$$
