PTK.pdb
     RDKit          3D

 24 24  0  0  1  0  0  0  0  0999 V2000
    8.6512  -15.0913   18.4340 N   0  0  0  0  0  0  0  0  0  0  0  0
    7.6333  -14.8987   17.4196 C   0  0  0  0  0  0  0  0  0  0  0  0
    7.7042  -13.3993   17.1641 C   0  0  0  0  0  0  0  0  0  0  0  0
    7.8189  -12.8807   18.6032 C   0  0  0  0  0  0  0  0  0  0  0  0
    8.6036  -13.9631   19.3121 C   0  0  1  0  0  0  0  0  0  0  0  0
    7.8874  -14.2846   20.5931 C   0  0  0  0  0  0  0  0  0  0  0  0
    7.6922  -13.3541   21.4136 O   0  0  0  0  0  0  0  0  0  0  0  0
    4.7190  -16.6691   20.7027 C   0  0  0  0  0  0  0  0  0  0  0  0
    5.7166  -17.0234   21.7554 C   0  0  1  0  0  0  0  0  0  0  0  0
    6.5689  -18.0065   21.1979 O   0  0  0  0  0  0  0  0  0  0  0  0
    6.6544  -15.8661   22.1192 C   0  0  2  0  0  0  0  0  0  0  0  0
    7.4348  -15.5763   20.8979 N   0  0  0  0  0  0  0  0  0  0  0  0
    7.5725  -16.2015   23.2239 C   0  0  0  0  0  0  0  0  0  0  0  0
    8.7487  -16.5823   22.8935 O   0  0  0  0  0  0  0  0  0  0  0  0
    7.2584  -16.1343   24.6030 N   0  0  0  0  0  0  0  0  0  0  0  0
    8.2542  -16.4632   25.5800 C   0  0  1  0  0  0  0  0  0  0  0  0
    8.4920  -15.4028   26.5927 C   0  0  0  0  0  0  0  0  0  0  0  0
    9.4963  -15.6742   27.6455 C   0  0  0  0  0  0  0  0  0  0  0  0
    9.6864  -14.5616   28.6453 C   0  0  0  0  0  0  0  0  0  0  0  0
   10.7692  -14.9113   29.6565 C   0  0  0  0  0  0  0  0  0  0  0  0
   10.9071  -13.7683   30.5337 N   0  0  0  0  0  0  0  0  0  0  0  0
    8.0097  -17.8161   26.1212 C   0  0  0  0  0  0  0  0  0  0  0  0
    9.0839  -18.5579   26.5824 O   0  0  0  0  0  0  0  0  0  0  0  0
    6.8708  -18.3441   26.1917 O   0  0  0  0  0  0  0  0  0  0  0  0
  1  2  1  0
  3  2  1  0
  4  3  1  0
  5  4  1  0
  5  1  1  0
  6  7  2  0
  5  6  1  1
  9  8  1  6
  9 10  1  0
  9 11  1  0
 11 12  1  6
 12  6  1  0
 13 15  1  0
 13 11  1  0
 14 13  2  0
 16 15  1  0
 16 22  1  0
 16 17  1  1
 17 18  1  0
 19 18  1  0
 20 21  1  0
 20 19  1  0
 22 23  1  0
 24 22  2  0
M  END
$$$$
