VHC.pdb
     RDKit          3D

 24 24  0  0  1  0  0  0  0  0999 V2000
   29.8466  -23.1127  -17.0351 C   0  0  0  0  0  0  0  0  0  0  0  0
   30.7744  -22.7181  -18.1839 C   0  0  2  0  0  0  0  0  0  0  0  0
   30.3706  -21.3218  -18.5980 C   0  0  0  0  0  0  0  0  0  0  0  0
   30.5696  -23.7286  -19.2738 C   0  0  2  0  0  0  0  0  0  0  0  0
   29.1687  -24.0518  -19.3302 N   0  0  0  0  0  0  0  0  0  0  0  0
   31.4241  -24.9098  -19.1661 C   0  0  0  0  0  0  0  0  0  0  0  0
   32.6665  -24.7850  -19.1359 O   0  0  0  0  0  0  0  0  0  0  0  0
   30.8625  -26.2047  -19.0949 N   0  0  0  0  0  0  0  0  0  0  0  0
   31.6424  -27.4267  -18.9717 C   0  0  1  0  0  0  0  0  0  0  0  0
   31.6504  -27.9575  -17.5762 C   0  0  0  0  0  0  0  0  0  0  0  0
   32.3821  -27.0873  -16.6239 C   0  0  0  0  0  0  0  0  0  0  0  0
   31.7579  -26.2704  -15.7005 C   0  0  0  0  0  0  0  0  0  0  0  0
   32.7099  -25.6285  -15.0074 N   0  0  0  0  0  0  0  0  0  0  0  0
   33.8969  -26.0226  -15.4728 C   0  0  0  0  0  0  0  0  0  0  0  0
   33.7061  -26.9146  -16.4615 N   0  0  0  0  0  0  0  0  0  0  0  0
   31.1050  -28.4718  -19.8756 C   0  0  0  0  0  0  0  0  0  0  0  0
   30.0926  -28.3401  -20.5775 O   0  0  0  0  0  0  0  0  0  0  0  0
   31.8172  -29.7258  -19.9350 N   0  0  0  0  0  0  0  0  0  0  0  0
   31.4342  -30.7541  -20.8878 C   0  0  1  0  0  0  0  0  0  0  0  0
   31.7388  -30.1812  -22.2753 C   0  0  0  0  0  0  0  0  0  0  0  0
   31.3616  -31.4416  -23.5208 S   0  0  0  0  0  0  0  0  0  0  0  0
   32.2421  -31.9799  -20.6649 C   0  0  0  0  0  0  0  0  0  0  0  0
   33.4309  -31.8369  -20.3021 O   0  0  0  0  0  0  0  0  0  0  0  0
   31.7281  -33.2626  -20.8438 O   0  0  0  0  0  0  0  0  0  0  0  0
  2  1  1  1
  2  3  1  0
  4  2  1  0
  4  6  1  0
  4  5  1  1
  6  7  2  0
  8  6  1  0
  8  9  1  0
  9 10  1  1
 10 11  1  0
 11 12  2  0
 12 13  1  0
 14 13  1  0
 15 11  1  0
 15 14  2  0
 16 17  2  0
 16  9  1  0
 18 16  1  0
 19 18  1  0
 19 20  1  6
 21 20  1  0
 22 19  1  0
 22 24  1  0
 23 22  2  0
M  END
$$$$
