VHC.pdb
     RDKit          3D

 24 24  0  0  1  0  0  0  0  0999 V2000
   28.0584  -19.2751  -12.8220 C   0  0  0  0  0  0  0  0  0  0  0  0
   27.6992  -20.7460  -12.6131 C   0  0  2  0  0  0  0  0  0  0  0  0
   27.8184  -21.4105  -13.9653 C   0  0  0  0  0  0  0  0  0  0  0  0
   26.3003  -20.7785  -12.0719 C   0  0  2  0  0  0  0  0  0  0  0  0
   25.9914  -22.1349  -11.7045 N   0  0  0  0  0  0  0  0  0  0  0  0
   25.2998  -20.1849  -12.9572 C   0  0  0  0  0  0  0  0  0  0  0  0
   25.3699  -18.9756  -13.2620 O   0  0  0  0  0  0  0  0  0  0  0  0
   24.2431  -20.9641  -13.4798 N   0  0  0  0  0  0  0  0  0  0  0  0
   23.2284  -20.4569  -14.3910 C   0  0  1  0  0  0  0  0  0  0  0  0
   23.2405  -21.1647  -15.7056 C   0  0  0  0  0  0  0  0  0  0  0  0
   24.4036  -20.8049  -16.5526 C   0  0  0  0  0  0  0  0  0  0  0  0
   25.4086  -21.6923  -16.8875 C   0  0  0  0  0  0  0  0  0  0  0  0
   26.2938  -21.0417  -17.6570 N   0  0  0  0  0  0  0  0  0  0  0  0
   25.8675  -19.7860  -17.8063 C   0  0  0  0  0  0  0  0  0  0  0  0
   24.7123  -19.6322  -17.1344 N   0  0  0  0  0  0  0  0  0  0  0  0
   21.8813  -20.5959  -13.7877 C   0  0  0  0  0  0  0  0  0  0  0  0
   21.5173  -21.5575  -13.0965 O   0  0  0  0  0  0  0  0  0  0  0  0
   20.9355  -19.5323  -14.0280 N   0  0  0  0  0  0  0  0  0  0  0  0
   19.6308  -19.5390  -13.3882 C   0  0  1  0  0  0  0  0  0  0  0  0
   19.2830  -18.0718  -13.1188 C   0  0  0  0  0  0  0  0  0  0  0  0
   17.7073  -18.0015  -12.2275 S   0  0  0  0  0  0  0  0  0  0  0  0
   18.6204  -20.1327  -14.3002 C   0  0  0  0  0  0  0  0  0  0  0  0
   17.7382  -20.8632  -13.7970 O   0  0  0  0  0  0  0  0  0  0  0  0
   18.6229  -19.9065  -15.6752 O   0  0  0  0  0  0  0  0  0  0  0  0
  2  1  1  6
  2  3  1  0
  4  2  1  0
  4  6  1  0
  4  5  1  6
  6  7  2  0
  8  6  1  0
  8  9  1  0
  9 10  1  6
 10 11  1  0
 11 12  2  0
 12 13  1  0
 14 13  1  0
 15 11  1  0
 15 14  2  0
 16 17  2  0
 16  9  1  0
 18 16  1  0
 19 18  1  0
 19 20  1  6
 21 20  1  0
 22 19  1  0
 22 24  1  0
 23 22  2  0
M  END
$$$$
