VHC.pdb
     RDKit          3D

 24 24  0  0  1  0  0  0  0  0999 V2000
   25.3006  -13.4517  -15.3894 C   0  0  0  0  0  0  0  0  0  0  0  0
   24.1710  -14.3144  -15.9515 C   0  0  2  0  0  0  0  0  0  0  0  0
   24.2174  -14.1523  -17.4534 C   0  0  0  0  0  0  0  0  0  0  0  0
   22.8945  -13.8026  -15.3518 C   0  0  2  0  0  0  0  0  0  0  0  0
   21.8772  -14.8030  -15.5377 N   0  0  0  0  0  0  0  0  0  0  0  0
   22.4915  -12.4824  -15.8333 C   0  0  0  0  0  0  0  0  0  0  0  0
   23.2612  -11.5067  -15.7076 O   0  0  0  0  0  0  0  0  0  0  0  0
   21.2324  -12.2889  -16.4451 N   0  0  0  0  0  0  0  0  0  0  0  0
   20.7626  -11.0114  -16.9591 C   0  0  1  0  0  0  0  0  0  0  0  0
   19.4579  -11.1322  -17.6750 C   0  0  0  0  0  0  0  0  0  0  0  0
   19.0579   -9.8874  -18.3752 C   0  0  0  0  0  0  0  0  0  0  0  0
   19.8312   -8.7424  -18.4003 C   0  0  0  0  0  0  0  0  0  0  0  0
   19.1749   -7.8169  -19.1154 N   0  0  0  0  0  0  0  0  0  0  0  0
   18.0256   -8.3534  -19.5303 C   0  0  0  0  0  0  0  0  0  0  0  0
   17.9456   -9.6193  -19.0823 N   0  0  0  0  0  0  0  0  0  0  0  0
   20.6097  -10.0377  -15.8517 C   0  0  0  0  0  0  0  0  0  0  0  0
   20.1923  -10.3210  -14.7202 O   0  0  0  0  0  0  0  0  0  0  0  0
   20.9750   -8.6672  -16.1201 N   0  0  0  0  0  0  0  0  0  0  0  0
   20.8580   -7.6508  -15.0881 C   0  0  1  0  0  0  0  0  0  0  0  0
   22.2902   -7.3038  -14.6703 C   0  0  0  0  0  0  0  0  0  0  0  0
   22.2275   -6.0560  -13.3584 S   0  0  0  0  0  0  0  0  0  0  0  0
   20.1913   -6.4431  -15.6375 C   0  0  0  0  0  0  0  0  0  0  0  0
   20.5521   -6.0400  -16.7656 O   0  0  0  0  0  0  0  0  0  0  0  0
   19.1937   -5.7556  -14.9492 O   0  0  0  0  0  0  0  0  0  0  0  0
  2  1  1  1
  2  3  1  0
  4  2  1  0
  4  6  1  0
  4  5  1  6
  6  7  2  0
  8  6  1  0
  8  9  1  0
  9 10  1  1
 10 11  1  0
 11 12  2  0
 12 13  1  0
 14 13  1  0
 15 11  1  0
 15 14  2  0
 16 17  2  0
 16  9  1  0
 18 16  1  0
 19 18  1  0
 19 20  1  6
 21 20  1  0
 22 19  1  0
 22 24  1  0
 23 22  2  0
M  END
$$$$
