VHC.pdb
     RDKit          3D

 24 24  0  0  1  0  0  0  0  0999 V2000
   17.2924  -12.3687  -17.6197 C   0  0  0  0  0  0  0  0  0  0  0  0
   18.7719  -12.7035  -17.4317 C   0  0  2  0  0  0  0  0  0  0  0  0
   18.8263  -14.1265  -16.9253 C   0  0  0  0  0  0  0  0  0  0  0  0
   19.3184  -11.7150  -16.4443 C   0  0  2  0  0  0  0  0  0  0  0  0
   18.7428  -11.9998  -15.1568 N   0  0  0  0  0  0  0  0  0  0  0  0
   19.1609  -10.3175  -16.8435 C   0  0  0  0  0  0  0  0  0  0  0  0
   19.6768   -9.9056  -17.9038 O   0  0  0  0  0  0  0  0  0  0  0  0
   18.4268   -9.4146  -16.0416 N   0  0  0  0  0  0  0  0  0  0  0  0
   18.3287   -7.9864  -16.3014 C   0  0  1  0  0  0  0  0  0  0  0  0
   16.9196   -7.5442  -16.5205 C   0  0  0  0  0  0  0  0  0  0  0  0
   16.4102   -7.8650  -17.8760 C   0  0  0  0  0  0  0  0  0  0  0  0
   16.6954   -7.1103  -18.9979 C   0  0  0  0  0  0  0  0  0  0  0  0
   16.0797   -7.6788  -20.0450 N   0  0  0  0  0  0  0  0  0  0  0  0
   15.4264   -8.7563  -19.6054 C   0  0  0  0  0  0  0  0  0  0  0  0
   15.6229   -8.8778  -18.2801 N   0  0  0  0  0  0  0  0  0  0  0  0
   18.8981   -7.2183  -15.1683 C   0  0  0  0  0  0  0  0  0  0  0  0
   18.4922   -7.2861  -13.9998 O   0  0  0  0  0  0  0  0  0  0  0  0
   20.0012   -6.3331  -15.4565 N   0  0  0  0  0  0  0  0  0  0  0  0
   20.6157   -5.5434  -14.4027 C   0  0  1  0  0  0  0  0  0  0  0  0
   21.9764   -6.1903  -14.1266 C   0  0  0  0  0  0  0  0  0  0  0  0
   22.9019   -5.1331  -12.9829 S   0  0  0  0  0  0  0  0  0  0  0  0
   20.8113   -4.1454  -14.8634 C   0  0  0  0  0  0  0  0  0  0  0  0
   21.0556   -3.9599  -16.0763 O   0  0  0  0  0  0  0  0  0  0  0  0
   20.7330   -3.0518  -14.0035 O   0  0  0  0  0  0  0  0  0  0  0  0
  2  1  1  1
  2  3  1  0
  4  2  1  0
  4  6  1  0
  4  5  1  1
  6  7  2  0
  8  6  1  0
  8  9  1  0
  9 10  1  1
 10 11  1  0
 11 12  2  0
 12 13  1  0
 14 13  1  0
 15 11  1  0
 15 14  2  0
 16 17  2  0
 16  9  1  0
 18 16  1  0
 19 18  1  0
 19 20  1  6
 21 20  1  0
 22 19  1  0
 22 24  1  0
 23 22  2  0
M  END
$$$$
