VHC.pdb
     RDKit          3D

 24 24  0  0  1  0  0  0  0  0999 V2000
   23.9913  -12.5831  -18.3259 C   0  0  0  0  0  0  0  0  0  0  0  0
   22.5963  -13.2078  -18.3119 C   0  0  2  0  0  0  0  0  0  0  0  0
   22.5515  -14.1774  -19.4704 C   0  0  0  0  0  0  0  0  0  0  0  0
   21.6154  -12.0822  -18.4591 C   0  0  2  0  0  0  0  0  0  0  0  0
   21.7637  -11.5255  -19.7776 N   0  0  0  0  0  0  0  0  0  0  0  0
   21.6935  -11.0752  -17.4022 C   0  0  0  0  0  0  0  0  0  0  0  0
   21.4735  -11.3936  -16.2146 O   0  0  0  0  0  0  0  0  0  0  0  0
   22.0170   -9.7332  -17.7043 N   0  0  0  0  0  0  0  0  0  0  0  0
   22.1752   -8.6872  -16.7054 C   0  0  1  0  0  0  0  0  0  0  0  0
   23.5427   -8.0880  -16.7218 C   0  0  0  0  0  0  0  0  0  0  0  0
   24.5842   -8.9935  -16.1786 C   0  0  0  0  0  0  0  0  0  0  0  0
   24.3247  -10.2743  -15.7294 C   0  0  0  0  0  0  0  0  0  0  0  0
   25.4819  -10.8067  -15.3097 N   0  0  0  0  0  0  0  0  0  0  0  0
   26.4430   -9.8977  -15.4855 C   0  0  0  0  0  0  0  0  0  0  0  0
   25.9031   -8.7858  -16.0164 N   0  0  0  0  0  0  0  0  0  0  0  0
   21.1808   -7.6104  -16.9281 C   0  0  0  0  0  0  0  0  0  0  0  0
   20.9414   -7.0921  -18.0276 O   0  0  0  0  0  0  0  0  0  0  0  0
   20.4459   -7.1399  -15.7783 N   0  0  0  0  0  0  0  0  0  0  0  0
   19.4256   -6.1144  -15.9166 C   0  0  1  0  0  0  0  0  0  0  0  0
   18.3379   -6.4576  -14.8943 C   0  0  0  0  0  0  0  0  0  0  0  0
   17.5246   -7.9942  -15.4038 S   0  0  0  0  0  0  0  0  0  0  0  0
   20.0001   -4.7807  -15.6062 C   0  0  0  0  0  0  0  0  0  0  0  0
   21.1880   -4.7337  -15.2165 O   0  0  0  0  0  0  0  0  0  0  0  0
   19.2716   -3.5997  -15.7328 O   0  0  0  0  0  0  0  0  0  0  0  0
  2  1  1  6
  2  3  1  0
  4  2  1  0
  4  6  1  0
  4  5  1  6
  6  7  2  0
  8  6  1  0
  8  9  1  0
  9 10  1  6
 10 11  1  0
 11 12  2  0
 12 13  1  0
 14 13  1  0
 15 11  1  0
 15 14  2  0
 16 17  2  0
 16  9  1  0
 18 16  1  0
 19 18  1  0
 19 20  1  1
 21 20  1  0
 22 19  1  0
 22 24  1  0
 23 22  2  0
M  END
$$$$
