VHC.pdb
     RDKit          3D

 24 24  0  0  1  0  0  0  0  0999 V2000
   19.7213  -11.6994  -19.0239 C   0  0  0  0  0  0  0  0  0  0  0  0
   19.8271  -12.8065  -17.9753 C   0  0  2  0  0  0  0  0  0  0  0  0
   18.6728  -12.6022  -17.0213 C   0  0  0  0  0  0  0  0  0  0  0  0
   21.1633  -12.6493  -17.3115 C   0  0  2  0  0  0  0  0  0  0  0  0
   21.3960  -13.8066  -16.4889 N   0  0  0  0  0  0  0  0  0  0  0  0
   21.3295  -11.3908  -16.5863 C   0  0  0  0  0  0  0  0  0  0  0  0
   20.7640  -11.2213  -15.4856 O   0  0  0  0  0  0  0  0  0  0  0  0
   22.1277  -10.3514  -17.1151 N   0  0  0  0  0  0  0  0  0  0  0  0
   22.3804   -9.0901  -16.4351 C   0  0  1  0  0  0  0  0  0  0  0  0
   23.7222   -8.5251  -16.7660 C   0  0  0  0  0  0  0  0  0  0  0  0
   24.8441   -9.3125  -16.1993 C   0  0  0  0  0  0  0  0  0  0  0  0
   24.6693  -10.4060  -15.3727 C   0  0  0  0  0  0  0  0  0  0  0  0
   25.8828  -10.8754  -15.0473 N   0  0  0  0  0  0  0  0  0  0  0  0
   26.7966  -10.1085  -15.6453 C   0  0  0  0  0  0  0  0  0  0  0  0
   26.1705   -9.1502  -16.3519 N   0  0  0  0  0  0  0  0  0  0  0  0
   21.3425   -8.0952  -16.7967 C   0  0  0  0  0  0  0  0  0  0  0  0
   20.8748   -7.9504  -17.9348 O   0  0  0  0  0  0  0  0  0  0  0  0
   20.8490   -7.2407  -15.7432 N   0  0  0  0  0  0  0  0  0  0  0  0
   19.8641   -6.2093  -16.0224 C   0  0  1  0  0  0  0  0  0  0  0  0
   18.9266   -6.1792  -14.8114 C   0  0  0  0  0  0  0  0  0  0  0  0
   17.7984   -4.7722  -14.9838 S   0  0  0  0  0  0  0  0  0  0  0  0
   20.5345   -4.8924  -16.1682 C   0  0  0  0  0  0  0  0  0  0  0  0
   21.4946   -4.6393  -15.4071 O   0  0  0  0  0  0  0  0  0  0  0  0
   20.1359   -3.9452  -17.1092 O   0  0  0  0  0  0  0  0  0  0  0  0
  2  1  1  6
  2  3  1  0
  4  2  1  0
  4  6  1  0
  4  5  1  1
  6  7  2  0
  8  6  1  0
  8  9  1  0
  9 10  1  6
 10 11  1  0
 11 12  2  0
 12 13  1  0
 14 13  1  0
 15 11  1  0
 15 14  2  0
 16 17  2  0
 16  9  1  0
 18 16  1  0
 19 18  1  0
 19 20  1  1
 21 20  1  0
 22 19  1  0
 22 24  1  0
 23 22  2  0
M  END
$$$$
