VHC.pdb
     RDKit          3D

 24 24  0  0  1  0  0  0  0  0999 V2000
   18.3635  -11.6002  -19.3363 C   0  0  0  0  0  0  0  0  0  0  0  0
   17.9491  -10.5405  -18.3157 C   0  0  2  0  0  0  0  0  0  0  0  0
   17.3904   -9.3809  -19.1077 C   0  0  0  0  0  0  0  0  0  0  0  0
   19.1828  -10.1753  -17.5441 C   0  0  2  0  0  0  0  0  0  0  0  0
   19.6549  -11.3536  -16.8665 N   0  0  0  0  0  0  0  0  0  0  0  0
   19.0153   -9.0310  -16.6497 C   0  0  0  0  0  0  0  0  0  0  0  0
   18.3339   -9.1425  -15.6089 O   0  0  0  0  0  0  0  0  0  0  0  0
   19.6176   -7.7874  -16.9458 N   0  0  0  0  0  0  0  0  0  0  0  0
   19.5410   -6.6178  -16.0838 C   0  0  1  0  0  0  0  0  0  0  0  0
   20.7976   -6.4013  -15.3069 C   0  0  0  0  0  0  0  0  0  0  0  0
   21.0090   -7.4131  -14.2432 C   0  0  0  0  0  0  0  0  0  0  0  0
   21.9045   -8.4599  -14.3513 C   0  0  0  0  0  0  0  0  0  0  0  0
   21.8412   -9.1756  -13.2188 N   0  0  0  0  0  0  0  0  0  0  0  0
   20.9381   -8.6049  -12.4191 C   0  0  0  0  0  0  0  0  0  0  0  0
   20.4241   -7.5265  -13.0374 N   0  0  0  0  0  0  0  0  0  0  0  0
   19.2639   -5.4042  -16.8888 C   0  0  0  0  0  0  0  0  0  0  0  0
   19.8242   -5.1283  -17.9588 O   0  0  0  0  0  0  0  0  0  0  0  0
   18.2711   -4.4866  -16.3829 N   0  0  0  0  0  0  0  0  0  0  0  0
   17.8913   -3.3083  -17.1438 C   0  0  1  0  0  0  0  0  0  0  0  0
   16.3644   -3.3514  -17.2583 C   0  0  0  0  0  0  0  0  0  0  0  0
   15.8957   -4.7938  -18.2493 S   0  0  0  0  0  0  0  0  0  0  0  0
   18.3034   -2.0800  -16.4183 C   0  0  0  0  0  0  0  0  0  0  0  0
   18.8550   -2.2183  -15.3039 O   0  0  0  0  0  0  0  0  0  0  0  0
   18.0994   -0.7999  -16.9295 O   0  0  0  0  0  0  0  0  0  0  0  0
  2  1  1  6
  2  3  1  0
  4  2  1  0
  4  6  1  0
  4  5  1  1
  6  7  2  0
  8  6  1  0
  8  9  1  0
  9 10  1  6
 10 11  1  0
 11 12  2  0
 12 13  1  0
 14 13  1  0
 15 11  1  0
 15 14  2  0
 16 17  2  0
 16  9  1  0
 18 16  1  0
 19 18  1  0
 19 20  1  1
 21 20  1  0
 22 19  1  0
 22 24  1  0
 23 22  2  0
M  END
$$$$
