VHC.pdb
     RDKit          3D

 24 24  0  0  1  0  0  0  0  0999 V2000
   17.9751  -15.3201  -16.7354 C   0  0  0  0  0  0  0  0  0  0  0  0
   18.9844  -15.4013  -17.8804 C   0  0  2  0  0  0  0  0  0  0  0  0
   19.6256  -16.7667  -17.7879 C   0  0  0  0  0  0  0  0  0  0  0  0
   19.9649  -14.2846  -17.6746 C   0  0  2  0  0  0  0  0  0  0  0  0
   20.8357  -14.6451  -16.5874 N   0  0  0  0  0  0  0  0  0  0  0  0
   19.3501  -12.9696  -17.5016 C   0  0  0  0  0  0  0  0  0  0  0  0
   18.5203  -12.5501  -18.3356 O   0  0  0  0  0  0  0  0  0  0  0  0
   19.6822  -12.1559  -16.3949 N   0  0  0  0  0  0  0  0  0  0  0  0
   19.0914  -10.8521  -16.1343 C   0  0  1  0  0  0  0  0  0  0  0  0
   18.1283  -10.8824  -14.9937 C   0  0  0  0  0  0  0  0  0  0  0  0
   16.8608  -11.5814  -15.3173 C   0  0  0  0  0  0  0  0  0  0  0  0
   15.9250  -11.0931  -16.2092 C   0  0  0  0  0  0  0  0  0  0  0  0
   14.9102  -11.9684  -16.2629 N   0  0  0  0  0  0  0  0  0  0  0  0
   15.1902  -12.9771  -15.4352 C   0  0  0  0  0  0  0  0  0  0  0  0
   16.3811  -12.7488  -14.8527 N   0  0  0  0  0  0  0  0  0  0  0  0
   20.1509   -9.8588  -15.8365 C   0  0  0  0  0  0  0  0  0  0  0  0
   21.0859  -10.0454  -15.0453 O   0  0  0  0  0  0  0  0  0  0  0  0
   20.0797   -8.5897  -16.5204 N   0  0  0  0  0  0  0  0  0  0  0  0
   21.1149   -7.5867  -16.3362 C   0  0  1  0  0  0  0  0  0  0  0  0
   20.9916   -6.6269  -17.5235 C   0  0  0  0  0  0  0  0  0  0  0  0
   21.2953   -7.5505  -19.0522 S   0  0  0  0  0  0  0  0  0  0  0  0
   20.8858   -6.8464  -15.0694 C   0  0  0  0  0  0  0  0  0  0  0  0
   19.7899   -7.0099  -14.4885 O   0  0  0  0  0  0  0  0  0  0  0  0
   21.8355   -5.9900  -14.5161 O   0  0  0  0  0  0  0  0  0  0  0  0
  2  1  1  1
  2  3  1  0
  4  2  1  0
  4  6  1  0
  4  5  1  1
  6  7  2  0
  8  6  1  0
  8  9  1  0
  9 10  1  1
 10 11  1  0
 11 12  2  0
 12 13  1  0
 14 13  1  0
 15 11  1  0
 15 14  2  0
 16 17  2  0
 16  9  1  0
 18 16  1  0
 19 18  1  0
 19 20  1  6
 21 20  1  0
 22 19  1  0
 22 24  1  0
 23 22  2  0
M  END
$$$$
