VHC.pdb
     RDKit          3D

 24 24  0  0  1  0  0  0  0  0999 V2000
   24.2493  -14.0791  -15.5379 C   0  0  0  0  0  0  0  0  0  0  0  0
   23.8034  -12.7447  -16.1355 C   0  0  2  0  0  0  0  0  0  0  0  0
   24.4584  -11.6653  -15.3049 C   0  0  0  0  0  0  0  0  0  0  0  0
   22.3058  -12.7114  -16.0535 C   0  0  2  0  0  0  0  0  0  0  0  0
   21.7901  -13.8397  -16.7824 N   0  0  0  0  0  0  0  0  0  0  0  0
   21.7095  -11.4428  -16.4685 C   0  0  0  0  0  0  0  0  0  0  0  0
   21.6038  -11.1662  -17.6819 O   0  0  0  0  0  0  0  0  0  0  0  0
   21.2455  -10.5139  -15.5099 N   0  0  0  0  0  0  0  0  0  0  0  0
   20.6742   -9.2171  -15.8401 C   0  0  1  0  0  0  0  0  0  0  0  0
   19.1909   -9.1901  -15.6712 C   0  0  0  0  0  0  0  0  0  0  0  0
   18.4779  -10.0762  -16.6232 C   0  0  0  0  0  0  0  0  0  0  0  0
   17.8005  -11.2190  -16.2427 C   0  0  0  0  0  0  0  0  0  0  0  0
   17.2771  -11.7748  -17.3455 N   0  0  0  0  0  0  0  0  0  0  0  0
   17.6095  -11.0133  -18.3897 C   0  0  0  0  0  0  0  0  0  0  0  0
   18.3438   -9.9724  -17.9574 N   0  0  0  0  0  0  0  0  0  0  0  0
   21.2699   -8.1615  -14.9865 C   0  0  0  0  0  0  0  0  0  0  0  0
   21.3232   -8.2057  -13.7495 O   0  0  0  0  0  0  0  0  0  0  0  0
   21.8234   -7.0063  -15.6518 N   0  0  0  0  0  0  0  0  0  0  0  0
   22.6121   -6.0319  -14.9167 C   0  0  1  0  0  0  0  0  0  0  0  0
   23.4661   -5.3041  -15.9594 C   0  0  0  0  0  0  0  0  0  0  0  0
   24.5506   -6.5096  -16.7674 S   0  0  0  0  0  0  0  0  0  0  0  0
   21.7167   -5.0608  -14.2383 C   0  0  0  0  0  0  0  0  0  0  0  0
   20.5386   -4.9684  -14.6491 O   0  0  0  0  0  0  0  0  0  0  0  0
   22.1386   -4.2626  -13.1770 O   0  0  0  0  0  0  0  0  0  0  0  0
  2  1  1  1
  2  3  1  0
  4  2  1  0
  4  6  1  0
  4  5  1  6
  6  7  2  0
  8  6  1  0
  8  9  1  0
  9 10  1  1
 10 11  1  0
 11 12  2  0
 12 13  1  0
 14 13  1  0
 15 11  1  0
 15 14  2  0
 16 17  2  0
 16  9  1  0
 18 16  1  0
 19 18  1  0
 19 20  1  6
 21 20  1  0
 22 19  1  0
 22 24  1  0
 23 22  2  0
M  END
$$$$
