VHC.pdb
     RDKit          3D

 24 24  0  0  1  0  0  0  0  0999 V2000
   30.3917  -30.0416  -21.0492 C   0  0  0  0  0  0  0  0  0  0  0  0
   29.5117  -28.7919  -21.0424 C   0  0  2  0  0  0  0  0  0  0  0  0
   29.8776  -28.0056  -22.2801 C   0  0  0  0  0  0  0  0  0  0  0  0
   29.8180  -28.0523  -19.7735 C   0  0  2  0  0  0  0  0  0  0  0  0
   28.9486  -26.9083  -19.6983 N   0  0  0  0  0  0  0  0  0  0  0  0
   31.2290  -27.7092  -19.6038 C   0  0  0  0  0  0  0  0  0  0  0  0
   31.7403  -26.7990  -20.2895 O   0  0  0  0  0  0  0  0  0  0  0  0
   32.0331  -28.3971  -18.6672 N   0  0  0  0  0  0  0  0  0  0  0  0
   33.4345  -28.0958  -18.4179 C   0  0  1  0  0  0  0  0  0  0  0  0
   33.7136  -27.8462  -16.9725 C   0  0  0  0  0  0  0  0  0  0  0  0
   33.1585  -26.5607  -16.4835 C   0  0  0  0  0  0  0  0  0  0  0  0
   32.4777  -25.6669  -17.2879 C   0  0  0  0  0  0  0  0  0  0  0  0
   32.1186  -24.6204  -16.5299 N   0  0  0  0  0  0  0  0  0  0  0  0
   32.5551  -24.8403  -15.2881 C   0  0  0  0  0  0  0  0  0  0  0  0
   33.1922  -26.0245  -15.2505 N   0  0  0  0  0  0  0  0  0  0  0  0
   34.2902  -29.2140  -18.8819 C   0  0  0  0  0  0  0  0  0  0  0  0
   34.0465  -30.4128  -18.6859 O   0  0  0  0  0  0  0  0  0  0  0  0
   35.4879  -28.8724  -19.6115 N   0  0  0  0  0  0  0  0  0  0  0  0
   36.2697  -29.8990  -20.2798 C   0  0  1  0  0  0  0  0  0  0  0  0
   35.3764  -30.4548  -21.3931 C   0  0  0  0  0  0  0  0  0  0  0  0
   36.0899  -32.0093  -21.9901 S   0  0  0  0  0  0  0  0  0  0  0  0
   37.4931  -29.3012  -20.8723 C   0  0  0  0  0  0  0  0  0  0  0  0
   37.5045  -28.0648  -21.0627 O   0  0  0  0  0  0  0  0  0  0  0  0
   38.6099  -30.0597  -21.2172 O   0  0  0  0  0  0  0  0  0  0  0  0
  2  1  1  1
  2  3  1  0
  4  2  1  0
  4  6  1  0
  4  5  1  6
  6  7  2  0
  8  6  1  0
  8  9  1  0
  9 10  1  1
 10 11  1  0
 11 12  2  0
 12 13  1  0
 14 13  1  0
 15 11  1  0
 15 14  2  0
 16 17  2  0
 16  9  1  0
 18 16  1  0
 19 18  1  0
 19 20  1  6
 21 20  1  0
 22 19  1  0
 22 24  1  0
 23 22  2  0
M  END
$$$$
