VHC.pdb
     RDKit          3D

 24 24  0  0  1  0  0  0  0  0999 V2000
   16.2123  -12.7090  -14.4999 C   0  0  0  0  0  0  0  0  0  0  0  0
   16.7774  -12.1094  -15.7873 C   0  0  2  0  0  0  0  0  0  0  0  0
   17.6146  -13.1911  -16.4301 C   0  0  0  0  0  0  0  0  0  0  0  0
   17.5855  -10.9097  -15.3891 C   0  0  2  0  0  0  0  0  0  0  0  0
   18.7979  -11.3705  -14.7662 N   0  0  0  0  0  0  0  0  0  0  0  0
   16.8578   -9.9390  -14.5734 C   0  0  0  0  0  0  0  0  0  0  0  0
   15.8214   -9.3997  -15.0150 O   0  0  0  0  0  0  0  0  0  0  0  0
   17.3119   -9.5965  -13.2797 N   0  0  0  0  0  0  0  0  0  0  0  0
   16.6920   -8.5837  -12.4389 C   0  0  1  0  0  0  0  0  0  0  0  0
   17.0188   -8.7673  -10.9937 C   0  0  0  0  0  0  0  0  0  0  0  0
   16.2139   -7.9017  -10.0978 C   0  0  0  0  0  0  0  0  0  0  0  0
   15.2819   -6.9883  -10.5525 C   0  0  0  0  0  0  0  0  0  0  0  0
   14.7437   -6.3816   -9.4843 N   0  0  0  0  0  0  0  0  0  0  0  0
   15.3124   -6.8905   -8.3896 C   0  0  0  0  0  0  0  0  0  0  0  0
   16.2127   -7.8208   -8.7552 N   0  0  0  0  0  0  0  0  0  0  0  0
   17.1299   -7.2307  -12.8580 C   0  0  0  0  0  0  0  0  0  0  0  0
   18.3119   -6.8671  -12.9330 O   0  0  0  0  0  0  0  0  0  0  0  0
   16.1008   -6.2782  -13.2001 N   0  0  0  0  0  0  0  0  0  0  0  0
   16.4451   -4.9305  -13.6206 C   0  0  1  0  0  0  0  0  0  0  0  0
   16.1684   -4.8722  -15.1260 C   0  0  0  0  0  0  0  0  0  0  0  0
   14.4883   -5.4766  -15.4327 S   0  0  0  0  0  0  0  0  0  0  0  0
   15.5875   -3.9437  -12.9164 C   0  0  0  0  0  0  0  0  0  0  0  0
   14.6478   -4.3821  -12.2165 O   0  0  0  0  0  0  0  0  0  0  0  0
   15.7918   -2.5684  -13.0082 O   0  0  0  0  0  0  0  0  0  0  0  0
  2  1  1  1
  2  3  1  0
  4  2  1  0
  4  6  1  0
  4  5  1  1
  6  7  2  0
  8  6  1  0
  8  9  1  0
  9 10  1  1
 10 11  1  0
 11 12  2  0
 12 13  1  0
 14 13  1  0
 15 11  1  0
 15 14  2  0
 16 17  2  0
 16  9  1  0
 18 16  1  0
 19 18  1  0
 19 20  1  6
 21 20  1  0
 22 19  1  0
 22 24  1  0
 23 22  2  0
M  END
$$$$
