VHC.pdb
     RDKit          3D

 24 24  0  0  1  0  0  0  0  0999 V2000
   12.9224  -19.0315    3.8912 C   0  0  0  0  0  0  0  0  0  0  0  0
   13.2918  -17.8864    2.9485 C   0  0  2  0  0  0  0  0  0  0  0  0
   12.4965  -18.1032    1.6818 C   0  0  0  0  0  0  0  0  0  0  0  0
   14.7730  -17.9688    2.7250 C   0  0  2  0  0  0  0  0  0  0  0  0
   15.0041  -18.6942    1.5041 N   0  0  0  0  0  0  0  0  0  0  0  0
   15.5227  -18.5065    3.8591 C   0  0  0  0  0  0  0  0  0  0  0  0
   15.0890  -18.3652    5.0218 O   0  0  0  0  0  0  0  0  0  0  0  0
   16.7429  -19.1910    3.6603 N   0  0  0  0  0  0  0  0  0  0  0  0
   17.5753  -19.7047    4.7374 C   0  0  1  0  0  0  0  0  0  0  0  0
   18.3357  -20.9251    4.3353 C   0  0  0  0  0  0  0  0  0  0  0  0
   17.4863  -22.1370    4.2365 C   0  0  0  0  0  0  0  0  0  0  0  0
   16.1262  -22.1389    4.4810 C   0  0  0  0  0  0  0  0  0  0  0  0
   15.6767  -23.3898    4.3021 N   0  0  0  0  0  0  0  0  0  0  0  0
   16.7131  -24.1560    3.9564 C   0  0  0  0  0  0  0  0  0  0  0  0
   17.8238  -23.3983    3.9139 N   0  0  0  0  0  0  0  0  0  0  0  0
   18.5383  -18.6683    5.1807 C   0  0  0  0  0  0  0  0  0  0  0  0
   19.1852  -17.9382    4.4168 O   0  0  0  0  0  0  0  0  0  0  0  0
   18.7285  -18.5061    6.6023 N   0  0  0  0  0  0  0  0  0  0  0  0
   19.6483  -17.5073    7.1202 C   0  0  1  0  0  0  0  0  0  0  0  0
   18.8097  -16.5732    7.9979 C   0  0  0  0  0  0  0  0  0  0  0  0
   19.0241  -14.8733    7.4092 S   0  0  0  0  0  0  0  0  0  0  0  0
   20.6964  -18.1605    7.9448 C   0  0  0  0  0  0  0  0  0  0  0  0
   20.4482  -19.2938    8.4127 O   0  0  0  0  0  0  0  0  0  0  0  0
   21.9266  -17.5622    8.2099 O   0  0  0  0  0  0  0  0  0  0  0  0
  2  1  1  1
  2  3  1  0
  4  2  1  0
  4  6  1  0
  4  5  1  6
  6  7  2  0
  8  6  1  0
  8  9  1  0
  9 10  1  6
 10 11  1  0
 11 12  2  0
 12 13  1  0
 14 13  1  0
 15 11  1  0
 15 14  2  0
 16 17  2  0
 16  9  1  0
 18 16  1  0
 19 18  1  0
 19 20  1  1
 21 20  1  0
 22 19  1  0
 22 24  1  0
 23 22  2  0
M  END
$$$$
