VHC.pdb
     RDKit          3D

 24 24  0  0  1  0  0  0  0  0999 V2000
   20.1921  -15.2527  -17.3279 C   0  0  0  0  0  0  0  0  0  0  0  0
   18.6960  -15.3090  -17.0199 C   0  0  2  0  0  0  0  0  0  0  0  0
   18.1212  -16.3996  -17.8943 C   0  0  0  0  0  0  0  0  0  0  0  0
   18.1360  -13.9542  -17.3387 C   0  0  2  0  0  0  0  0  0  0  0  0
   18.1874  -13.7703  -18.7648 N   0  0  0  0  0  0  0  0  0  0  0  0
   18.7585  -12.8576  -16.5989 C   0  0  0  0  0  0  0  0  0  0  0  0
   18.8285  -12.9015  -15.3526 O   0  0  0  0  0  0  0  0  0  0  0  0
   19.2883  -11.7366  -17.2770 N   0  0  0  0  0  0  0  0  0  0  0  0
   19.9295  -10.6107  -16.6152 C   0  0  1  0  0  0  0  0  0  0  0  0
   21.3028  -10.3501  -17.1401 C   0  0  0  0  0  0  0  0  0  0  0  0
   22.2987  -11.3558  -16.6968 C   0  0  0  0  0  0  0  0  0  0  0  0
   21.9943  -12.4189  -15.8681 C   0  0  0  0  0  0  0  0  0  0  0  0
   23.1185  -13.1232  -15.6708 N   0  0  0  0  0  0  0  0  0  0  0  0
   24.1025  -12.5298  -16.3494 C   0  0  0  0  0  0  0  0  0  0  0  0
   23.6103  -11.4482  -16.9798 N   0  0  0  0  0  0  0  0  0  0  0  0
   19.1144   -9.3839  -16.7844 C   0  0  0  0  0  0  0  0  0  0  0  0
   18.6319   -9.0043  -17.8605 O   0  0  0  0  0  0  0  0  0  0  0  0
   18.8717   -8.5831  -15.6083 N   0  0  0  0  0  0  0  0  0  0  0  0
   18.1259   -7.3390  -15.6968 C   0  0  1  0  0  0  0  0  0  0  0  0
   17.4954   -7.1234  -14.3176 C   0  0  0  0  0  0  0  0  0  0  0  0
   16.3855   -8.5105  -13.9620 S   0  0  0  0  0  0  0  0  0  0  0  0
   19.0462   -6.2156  -16.0066 C   0  0  0  0  0  0  0  0  0  0  0  0
   20.2717   -6.4623  -16.0562 O   0  0  0  0  0  0  0  0  0  0  0  0
   18.5969   -4.9174  -16.2400 O   0  0  0  0  0  0  0  0  0  0  0  0
  2  1  1  6
  2  3  1  0
  4  2  1  0
  4  6  1  0
  4  5  1  6
  6  7  2  0
  8  6  1  0
  8  9  1  0
  9 10  1  6
 10 11  1  0
 11 12  2  0
 12 13  1  0
 14 13  1  0
 15 11  1  0
 15 14  2  0
 16 17  2  0
 16  9  1  0
 18 16  1  0
 19 18  1  0
 19 20  1  1
 21 20  1  0
 22 19  1  0
 22 24  1  0
 23 22  2  0
M  END
$$$$
