VHC.pdb
     RDKit          3D

 24 24  0  0  1  0  0  0  0  0999 V2000
   15.8780  -13.3326  -17.7492 C   0  0  0  0  0  0  0  0  0  0  0  0
   16.5833  -14.1870  -16.6963 C   0  0  2  0  0  0  0  0  0  0  0  0
   15.5014  -14.9654  -15.9838 C   0  0  0  0  0  0  0  0  0  0  0  0
   17.3123  -13.2417  -15.7875 C   0  0  2  0  0  0  0  0  0  0  0  0
   16.4423  -12.9120  -14.6898 N   0  0  0  0  0  0  0  0  0  0  0  0
   17.8564  -12.0625  -16.4587 C   0  0  0  0  0  0  0  0  0  0  0  0
   18.6366  -12.1945  -17.4251 O   0  0  0  0  0  0  0  0  0  0  0  0
   17.5110  -10.7615  -16.0283 N   0  0  0  0  0  0  0  0  0  0  0  0
   18.0297   -9.5401  -16.6249 C   0  0  1  0  0  0  0  0  0  0  0  0
   16.9747   -8.7668  -17.3448 C   0  0  0  0  0  0  0  0  0  0  0  0
   16.6027   -9.3618  -18.6514 C   0  0  0  0  0  0  0  0  0  0  0  0
   15.3323   -9.8160  -18.9503 C   0  0  0  0  0  0  0  0  0  0  0  0
   15.3476  -10.2877  -20.2058 N   0  0  0  0  0  0  0  0  0  0  0  0
   16.5829  -10.1390  -20.6882 C   0  0  0  0  0  0  0  0  0  0  0  0
   17.3571   -9.5736  -19.7445 N   0  0  0  0  0  0  0  0  0  0  0  0
   18.6272   -8.6729  -15.5815 C   0  0  0  0  0  0  0  0  0  0  0  0
   18.1006   -8.4259  -14.4875 O   0  0  0  0  0  0  0  0  0  0  0  0
   19.9114   -8.0798  -15.8691 N   0  0  0  0  0  0  0  0  0  0  0  0
   20.6095   -7.2948  -14.8651 C   0  0  1  0  0  0  0  0  0  0  0  0
   22.1016   -7.5725  -15.0716 C   0  0  0  0  0  0  0  0  0  0  0  0
   22.4893   -9.2056  -14.3897 S   0  0  0  0  0  0  0  0  0  0  0  0
   20.3372   -5.8495  -15.0701 C   0  0  0  0  0  0  0  0  0  0  0  0
   19.8742   -5.4945  -16.1768 O   0  0  0  0  0  0  0  0  0  0  0  0
   20.5766   -4.8918  -14.0867 O   0  0  0  0  0  0  0  0  0  0  0  0
  2  1  1  6
  2  3  1  0
  4  2  1  0
  4  6  1  0
  4  5  1  1
  6  7  2  0
  8  6  1  0
  8  9  1  0
  9 10  1  1
 10 11  1  0
 11 12  2  0
 12 13  1  0
 14 13  1  0
 15 11  1  0
 15 14  2  0
 16 17  2  0
 16  9  1  0
 18 16  1  0
 19 18  1  0
 19 20  1  6
 21 20  1  0
 22 19  1  0
 22 24  1  0
 23 22  2  0
M  END
$$$$
