GVI.pdb
     RDKit          3D

 20 19  0  0  1  0  0  0  0  0999 V2000
   19.8793  -21.7615   -9.4210 N   0  0  0  0  0  0  0  0  0  0  0  0
   20.8775  -22.3552  -10.2639 C   0  0  0  0  0  0  0  0  0  0  0  0
   21.7049  -21.2785  -10.8903 C   0  0  0  0  0  0  0  0  0  0  0  0
   21.3298  -20.0773  -10.8649 O   0  0  0  0  0  0  0  0  0  0  0  0
   25.1188  -20.5611   -9.9269 C   0  0  0  0  0  0  0  0  0  0  0  0
   25.1228  -20.6239  -11.4293 C   0  0  1  0  0  0  0  0  0  0  0  0
   25.6549  -22.0159  -11.7997 C   0  0  0  0  0  0  0  0  0  0  0  0
   23.7536  -20.5268  -12.0529 C   0  0  2  0  0  0  0  0  0  0  0  0
   22.9206  -21.5911  -11.5208 N   0  0  0  0  0  0  0  0  0  0  0  0
   23.7178  -20.6044  -13.5131 C   0  0  0  0  0  0  0  0  0  0  0  0
   23.5615  -21.7696  -14.0219 O   0  0  0  0  0  0  0  0  0  0  0  0
   21.2278  -18.2223  -18.4549 C   0  0  0  0  0  0  0  0  0  0  0  0
   22.3102  -19.1003  -17.8915 C   0  0  0  0  0  0  0  0  0  0  0  0
   22.5632  -18.8854  -16.4269 C   0  0  2  0  0  0  0  0  0  0  0  0
   22.9110  -17.4166  -16.2433 C   0  0  0  0  0  0  0  0  0  0  0  0
   23.6516  -19.7806  -15.8718 C   0  0  2  0  0  0  0  0  0  0  0  0
   23.8317  -19.5594  -14.4436 N   0  0  0  0  0  0  0  0  0  0  0  0
   24.9204  -19.6383  -16.6073 C   0  0  0  0  0  0  0  0  0  0  0  0
   25.8706  -18.9251  -16.2036 O   0  0  0  0  0  0  0  0  0  0  0  0
   25.1464  -20.3046  -17.8268 O   0  0  0  0  0  0  0  0  0  0  0  0
  1  2  1  0
  3  4  2  0
  3  2  1  0
  6  5  1  1
  6  8  1  0
  7  6  1  0
  8  9  1  1
  9  3  1  0
 10  8  1  0
 10 11  2  0
 13 12  1  0
 14 13  1  0
 14 15  1  6
 16 17  1  1
 16 14  1  0
 17 10  1  0
 18 16  1  0
 19 18  2  0
 20 18  1  0
M  END
$$$$
