GVI.pdb
     RDKit          3D

 20 19  0  0  1  0  0  0  0  0999 V2000
   18.5298  -13.2617  -18.8697 N   0  0  0  0  0  0  0  0  0  0  0  0
   19.6365  -13.9311  -18.2482 C   0  0  0  0  0  0  0  0  0  0  0  0
   20.0865  -13.1481  -17.0563 C   0  0  0  0  0  0  0  0  0  0  0  0
   19.4522  -13.2014  -15.9705 O   0  0  0  0  0  0  0  0  0  0  0  0
   24.0051  -11.4882  -16.8974 C   0  0  0  0  0  0  0  0  0  0  0  0
   23.1273  -11.8468  -15.7303 C   0  0  1  0  0  0  0  0  0  0  0  0
   23.5422  -10.9187  -14.5794 C   0  0  0  0  0  0  0  0  0  0  0  0
   21.6602  -11.5867  -15.9610 C   0  0  2  0  0  0  0  0  0  0  0  0
   21.2303  -12.3358  -17.1289 N   0  0  0  0  0  0  0  0  0  0  0  0
   21.2902  -10.1849  -16.1547 C   0  0  0  0  0  0  0  0  0  0  0  0
   21.7422   -9.6127  -17.2080 O   0  0  0  0  0  0  0  0  0  0  0  0
   16.6296   -8.1315  -16.9130 C   0  0  0  0  0  0  0  0  0  0  0  0
   18.1169   -8.3452  -16.8688 C   0  0  0  0  0  0  0  0  0  0  0  0
   18.7942   -7.6540  -15.7204 C   0  0  2  0  0  0  0  0  0  0  0  0
   18.5533   -6.1624  -15.8906 C   0  0  0  0  0  0  0  0  0  0  0  0
   20.2738   -7.9637  -15.6263 C   0  0  2  0  0  0  0  0  0  0  0  0
   20.4946   -9.3726  -15.3313 N   0  0  0  0  0  0  0  0  0  0  0  0
   20.9661   -7.0921  -14.6609 C   0  0  0  0  0  0  0  0  0  0  0  0
   21.3316   -5.9227  -14.9323 O   0  0  0  0  0  0  0  0  0  0  0  0
   21.2639   -7.5257  -13.3549 O   0  0  0  0  0  0  0  0  0  0  0  0
  1  2  1  0
  3  4  2  0
  3  2  1  0
  6  5  1  6
  6  8  1  0
  7  6  1  0
  8  9  1  6
  9  3  1  0
 10  8  1  0
 10 11  2  0
 13 12  1  0
 14 13  1  0
 14 15  1  6
 16 17  1  1
 16 14  1  0
 17 10  1  0
 18 16  1  0
 19 18  2  0
 20 18  1  0
M  END
$$$$
