GVI.pdb
     RDKit          3D

 20 19  0  0  1  0  0  0  0  0999 V2000
   25.1199  -15.5226  -15.4395 N   0  0  0  0  0  0  0  0  0  0  0  0
   25.9304  -15.9605  -14.3392 C   0  0  0  0  0  0  0  0  0  0  0  0
   25.8482  -17.4490  -14.2215 C   0  0  0  0  0  0  0  0  0  0  0  0
   24.8357  -18.0750  -14.6303 O   0  0  0  0  0  0  0  0  0  0  0  0
   29.3691  -19.7691  -13.8216 C   0  0  0  0  0  0  0  0  0  0  0  0
   28.0361  -20.1679  -14.3919 C   0  0  1  0  0  0  0  0  0  0  0  0
   27.9551  -21.6963  -14.2666 C   0  0  0  0  0  0  0  0  0  0  0  0
   26.8536  -19.6286  -13.6278 C   0  0  2  0  0  0  0  0  0  0  0  0
   26.9049  -18.1771  -13.6500 N   0  0  0  0  0  0  0  0  0  0  0  0
   26.7514  -20.0615  -12.2344 C   0  0  0  0  0  0  0  0  0  0  0  0
   27.7926  -20.6077  -11.7256 O   0  0  0  0  0  0  0  0  0  0  0  0
   27.6429  -19.2650   -7.6703 C   0  0  0  0  0  0  0  0  0  0  0  0
   26.7336  -18.7891   -8.7687 C   0  0  0  0  0  0  0  0  0  0  0  0
   25.5041  -19.6332   -8.9453 C   0  0  2  0  0  0  0  0  0  0  0  0
   25.2468  -20.3324   -7.6199 C   0  0  0  0  0  0  0  0  0  0  0  0
   25.6232  -20.6312  -10.0783 C   0  0  2  0  0  0  0  0  0  0  0  0
   25.6516  -19.9559  -11.3683 N   0  0  0  0  0  0  0  0  0  0  0  0
   24.5704  -21.6609  -10.0279 C   0  0  0  0  0  0  0  0  0  0  0  0
   23.5149  -21.5960  -10.7033 O   0  0  0  0  0  0  0  0  0  0  0  0
   24.6874  -22.7978   -9.2057 O   0  0  0  0  0  0  0  0  0  0  0  0
  1  2  1  0
  3  4  2  0
  3  2  1  0
  6  5  1  1
  6  8  1  0
  7  6  1  0
  8  9  1  1
  9  3  1  0
 10  8  1  0
 10 11  2  0
 13 12  1  0
 14 13  1  0
 14 15  1  1
 16 17  1  6
 16 14  1  0
 17 10  1  0
 18 16  1  0
 19 18  2  0
 20 18  1  0
M  END
$$$$
