GVI.pdb
     RDKit          3D

 20 19  0  0  1  0  0  0  0  0999 V2000
   25.2712  -23.6713  -15.0716 N   0  0  0  0  0  0  0  0  0  0  0  0
   24.5340  -24.5192  -14.1789 C   0  0  0  0  0  0  0  0  0  0  0  0
   23.1790  -23.9330  -13.9406 C   0  0  0  0  0  0  0  0  0  0  0  0
   22.9660  -22.7049  -14.1151 O   0  0  0  0  0  0  0  0  0  0  0  0
   21.1049  -23.3008  -15.6940 C   0  0  0  0  0  0  0  0  0  0  0  0
   20.1794  -23.9519  -14.7037 C   0  0  1  0  0  0  0  0  0  0  0  0
   19.8695  -25.3494  -15.2597 C   0  0  0  0  0  0  0  0  0  0  0  0
   20.7917  -24.1758  -13.3442 C   0  0  2  0  0  0  0  0  0  0  0  0
   22.1160  -24.7472  -13.5160 N   0  0  0  0  0  0  0  0  0  0  0  0
   20.0320  -25.0437  -12.4447 C   0  0  0  0  0  0  0  0  0  0  0  0
   20.3037  -26.2948  -12.4896 O   0  0  0  0  0  0  0  0  0  0  0  0
   19.1939  -24.2366   -7.1938 C   0  0  0  0  0  0  0  0  0  0  0  0
   19.3997  -24.7017   -8.6083 C   0  0  0  0  0  0  0  0  0  0  0  0
   18.1357  -25.1368   -9.2928 C   0  0  2  0  0  0  0  0  0  0  0  0
   17.4812  -26.1813   -8.4026 C   0  0  0  0  0  0  0  0  0  0  0  0
   18.3680  -25.6740  -10.6897 C   0  0  2  0  0  0  0  0  0  0  0  0
   19.0334  -24.6844  -11.5257 N   0  0  0  0  0  0  0  0  0  0  0  0
   17.1261  -26.1642  -11.3128 C   0  0  0  0  0  0  0  0  0  0  0  0
   16.3004  -25.4098  -11.8818 O   0  0  0  0  0  0  0  0  0  0  0  0
   16.7856  -27.5303  -11.3071 O   0  0  0  0  0  0  0  0  0  0  0  0
  1  2  1  0
  3  4  2  0
  3  2  1  0
  6  5  1  6
  6  8  1  0
  7  6  1  0
  8  9  1  6
  9  3  1  0
 10  8  1  0
 10 11  2  0
 13 12  1  0
 14 13  1  0
 14 15  1  1
 16 17  1  6
 16 14  1  0
 17 10  1  0
 18 16  1  0
 19 18  2  0
 20 18  1  0
M  END
$$$$
