GVI.pdb
     RDKit          3D

 20 19  0  0  1  0  0  0  0  0999 V2000
   28.6599  -21.2012  -15.9206 N   0  0  0  0  0  0  0  0  0  0  0  0
   27.9047  -21.9022  -14.9219 C   0  0  0  0  0  0  0  0  0  0  0  0
   27.4151  -20.9315  -13.8952 C   0  0  0  0  0  0  0  0  0  0  0  0
   27.7208  -19.7123  -13.9603 O   0  0  0  0  0  0  0  0  0  0  0  0
   24.5095  -19.7527  -13.9352 C   0  0  0  0  0  0  0  0  0  0  0  0
   24.5684  -20.1281  -12.4803 C   0  0  1  0  0  0  0  0  0  0  0  0
   23.8142  -21.4594  -12.3492 C   0  0  0  0  0  0  0  0  0  0  0  0
   25.9619  -20.3919  -11.9687 C   0  0  2  0  0  0  0  0  0  0  0  0
   26.6017  -21.3662  -12.8355 N   0  0  0  0  0  0  0  0  0  0  0  0
   26.0476  -20.8783  -10.5919 C   0  0  0  0  0  0  0  0  0  0  0  0
   25.9938  -22.1477  -10.4277 O   0  0  0  0  0  0  0  0  0  0  0  0
   28.8684  -18.6034   -6.4390 C   0  0  0  0  0  0  0  0  0  0  0  0
   28.2305  -19.5911   -7.3756 C   0  0  0  0  0  0  0  0  0  0  0  0
   26.7953  -19.8926   -7.0521 C   0  0  2  0  0  0  0  0  0  0  0  0
   26.7752  -20.5631   -5.6876 C   0  0  0  0  0  0  0  0  0  0  0  0
   26.1164  -20.7538   -8.0967 C   0  0  2  0  0  0  0  0  0  0  0  0
   26.1843  -20.1310   -9.4114 N   0  0  0  0  0  0  0  0  0  0  0  0
   24.7306  -21.0914   -7.7270 C   0  0  0  0  0  0  0  0  0  0  0  0
   24.4408  -21.9949   -6.9059 O   0  0  0  0  0  0  0  0  0  0  0  0
   23.6307  -20.4094   -8.2815 O   0  0  0  0  0  0  0  0  0  0  0  0
  1  2  1  0
  3  4  2  0
  3  2  1  0
  6  5  1  6
  6  8  1  0
  7  6  1  0
  8  9  1  6
  9  3  1  0
 10  8  1  0
 10 11  2  0
 13 12  1  0
 14 13  1  0
 14 15  1  1
 16 17  1  6
 16 14  1  0
 17 10  1  0
 18 16  1  0
 19 18  2  0
 20 18  1  0
M  END
$$$$
