GVI.pdb
     RDKit          3D

 20 19  0  0  1  0  0  0  0  0999 V2000
   11.9635  -13.2911  -11.9422 N   0  0  0  0  0  0  0  0  0  0  0  0
   12.5181  -12.2963  -12.8152 C   0  0  0  0  0  0  0  0  0  0  0  0
   13.6973  -11.6560  -12.1549 C   0  0  0  0  0  0  0  0  0  0  0  0
   13.8083  -11.6429  -10.9013 O   0  0  0  0  0  0  0  0  0  0  0  0
   16.7496   -9.8753  -14.5633 C   0  0  0  0  0  0  0  0  0  0  0  0
   17.0200  -10.4535  -13.2018 C   0  0  1  0  0  0  0  0  0  0  0  0
   18.0863   -9.5556  -12.5576 C   0  0  0  0  0  0  0  0  0  0  0  0
   15.8342  -10.4175  -12.2713 C   0  0  2  0  0  0  0  0  0  0  0  0
   14.7058  -11.0555  -12.9267 N   0  0  0  0  0  0  0  0  0  0  0  0
   15.4158   -9.0862  -11.8328 C   0  0  0  0  0  0  0  0  0  0  0  0
   14.6298   -8.4452  -12.6154 O   0  0  0  0  0  0  0  0  0  0  0  0
   13.6162   -5.6309   -7.1418 C   0  0  0  0  0  0  0  0  0  0  0  0
   14.1365   -5.6986   -8.5504 C   0  0  0  0  0  0  0  0  0  0  0  0
   14.7159   -7.0343   -8.9185 C   0  0  2  0  0  0  0  0  0  0  0  0
   15.8222   -7.3333   -7.9191 C   0  0  0  0  0  0  0  0  0  0  0  0
   15.2321   -7.0893  -10.3413 C   0  0  2  0  0  0  0  0  0  0  0  0
   15.7635   -8.4088  -10.6534 N   0  0  0  0  0  0  0  0  0  0  0  0
   16.2160   -6.0283  -10.6194 C   0  0  0  0  0  0  0  0  0  0  0  0
   17.4560   -6.2179  -10.5884 O   0  0  0  0  0  0  0  0  0  0  0  0
   15.8176   -4.7169  -10.9417 O   0  0  0  0  0  0  0  0  0  0  0  0
  1  2  1  0
  3  4  2  0
  3  2  1  0
  6  5  1  6
  6  8  1  0
  7  6  1  0
  8  9  1  6
  9  3  1  0
 10  8  1  0
 10 11  2  0
 13 12  1  0
 14 13  1  0
 14 15  1  1
 16 17  1  1
 16 14  1  0
 17 10  1  0
 18 16  1  0
 19 18  2  0
 20 18  1  0
M  END
$$$$
