GVI.pdb
     RDKit          3D

 20 19  0  0  1  0  0  0  0  0999 V2000
   18.0484  -13.9256  -18.9869 N   0  0  0  0  0  0  0  0  0  0  0  0
   17.4628  -12.8205  -18.2832 C   0  0  0  0  0  0  0  0  0  0  0  0
   18.2996  -11.5985  -18.4905 C   0  0  0  0  0  0  0  0  0  0  0  0
   19.3990  -11.6634  -19.0998 O   0  0  0  0  0  0  0  0  0  0  0  0
   17.1518   -8.8902  -20.2987 C   0  0  0  0  0  0  0  0  0  0  0  0
   17.8293   -8.2249  -19.1327 C   0  0  1  0  0  0  0  0  0  0  0  0
   16.7066   -7.7096  -18.2203 C   0  0  0  0  0  0  0  0  0  0  0  0
   18.6532   -9.1600  -18.2842 C   0  0  2  0  0  0  0  0  0  0  0  0
   17.8705  -10.3517  -18.0063 N   0  0  0  0  0  0  0  0  0  0  0  0
   19.1198   -8.6117  -17.0110 C   0  0  0  0  0  0  0  0  0  0  0  0
   18.3206   -8.7141  -16.0150 O   0  0  0  0  0  0  0  0  0  0  0  0
   21.7956  -10.3923  -14.1939 C   0  0  0  0  0  0  0  0  0  0  0  0
   22.3838   -9.5422  -15.2853 C   0  0  0  0  0  0  0  0  0  0  0  0
   22.1611   -8.0697  -15.0926 C   0  0  2  0  0  0  0  0  0  0  0  0
   22.5685   -7.7382  -13.6656 C   0  0  0  0  0  0  0  0  0  0  0  0
   20.7353   -7.6405  -15.3699 C   0  0  2  0  0  0  0  0  0  0  0  0
   20.3425   -7.9817  -16.7301 N   0  0  0  0  0  0  0  0  0  0  0  0
   20.5170   -6.2116  -15.0843 C   0  0  0  0  0  0  0  0  0  0  0  0
   20.6032   -5.3165  -15.9594 O   0  0  0  0  0  0  0  0  0  0  0  0
   20.1935   -5.7573  -13.7914 O   0  0  0  0  0  0  0  0  0  0  0  0
  1  2  1  0
  3  4  2  0
  3  2  1  0
  6  5  1  6
  6  8  1  0
  7  6  1  0
  8  9  1  1
  9  3  1  0
 10  8  1  0
 10 11  2  0
 13 12  1  0
 14 13  1  0
 14 15  1  1
 16 17  1  6
 16 14  1  0
 17 10  1  0
 18 16  1  0
 19 18  2  0
 20 18  1  0
M  END
$$$$
