GVI.pdb
     RDKit          3D

 20 19  0  0  1  0  0  0  0  0999 V2000
   21.7553  -20.9310  -11.9373 N   0  0  0  0  0  0  0  0  0  0  0  0
   22.7982  -20.0026  -11.6059 C   0  0  0  0  0  0  0  0  0  0  0  0
   23.7892  -20.6677  -10.7049 C   0  0  0  0  0  0  0  0  0  0  0  0
   23.4833  -21.7048  -10.0607 O   0  0  0  0  0  0  0  0  0  0  0  0
   27.9200  -20.1558  -11.4180 C   0  0  0  0  0  0  0  0  0  0  0  0
   27.1773  -21.3086  -10.8011 C   0  0  1  0  0  0  0  0  0  0  0  0
   28.2065  -22.0863   -9.9679 C   0  0  0  0  0  0  0  0  0  0  0  0
   26.0933  -20.8972   -9.8373 C   0  0  2  0  0  0  0  0  0  0  0  0
   25.0847  -20.1436  -10.5617 N   0  0  0  0  0  0  0  0  0  0  0  0
   26.5336  -20.0938   -8.6971 C   0  0  0  0  0  0  0  0  0  0  0  0
   26.3833  -18.8255   -8.7969 O   0  0  0  0  0  0  0  0  0  0  0  0
   27.9301  -19.9916   -2.6324 C   0  0  0  0  0  0  0  0  0  0  0  0
   27.6969  -19.3046   -3.9490 C   0  0  0  0  0  0  0  0  0  0  0  0
   27.3810  -20.2459   -5.0757 C   0  0  2  0  0  0  0  0  0  0  0  0
   28.3277  -21.4291   -4.9495 C   0  0  0  0  0  0  0  0  0  0  0  0
   27.4892  -19.5998   -6.4412 C   0  0  2  0  0  0  0  0  0  0  0  0
   27.1048  -20.5321   -7.4919 N   0  0  0  0  0  0  0  0  0  0  0  0
   28.8257  -19.0291   -6.6842 C   0  0  0  0  0  0  0  0  0  0  0  0
   29.2026  -17.9349   -6.1991 O   0  0  0  0  0  0  0  0  0  0  0  0
   29.7755  -19.6876   -7.4883 O   0  0  0  0  0  0  0  0  0  0  0  0
  1  2  1  0
  3  4  2  0
  3  2  1  0
  6  5  1  1
  6  8  1  0
  7  6  1  0
  8  9  1  6
  9  3  1  0
 10  8  1  0
 10 11  2  0
 13 12  1  0
 14 13  1  0
 14 15  1  6
 16 17  1  6
 16 14  1  0
 17 10  1  0
 18 16  1  0
 19 18  2  0
 20 18  1  0
M  END
$$$$
