GVI.pdb
     RDKit          3D

 20 19  0  0  1  0  0  0  0  0999 V2000
   23.3618  -13.5683  -18.9888 N   0  0  0  0  0  0  0  0  0  0  0  0
   23.5886  -12.1589  -19.1356 C   0  0  0  0  0  0  0  0  0  0  0  0
   23.6027  -11.5136  -17.7866 C   0  0  0  0  0  0  0  0  0  0  0  0
   22.8732  -11.9447  -16.8560 O   0  0  0  0  0  0  0  0  0  0  0  0
   26.3760  -11.2563  -15.5573 C   0  0  0  0  0  0  0  0  0  0  0  0
   25.8216   -9.8613  -15.6453 C   0  0  1  0  0  0  0  0  0  0  0  0
   26.7245   -9.1013  -16.6279 C   0  0  0  0  0  0  0  0  0  0  0  0
   24.4306   -9.7871  -16.2221 C   0  0  2  0  0  0  0  0  0  0  0  0
   24.4345  -10.4101  -17.5342 N   0  0  0  0  0  0  0  0  0  0  0  0
   23.8735   -8.4413  -16.3561 C   0  0  0  0  0  0  0  0  0  0  0  0
   24.2541   -7.7617  -17.3732 O   0  0  0  0  0  0  0  0  0  0  0  0
   19.1603   -5.1278  -17.2744 C   0  0  0  0  0  0  0  0  0  0  0  0
   20.5551   -5.1115  -16.7141 C   0  0  0  0  0  0  0  0  0  0  0  0
   21.0940   -6.4756  -16.3910 C   0  0  2  0  0  0  0  0  0  0  0  0
   20.1033   -7.1359  -15.4452 C   0  0  0  0  0  0  0  0  0  0  0  0
   22.4848   -6.4413  -15.7925 C   0  0  2  0  0  0  0  0  0  0  0  0
   22.9648   -7.7869  -15.5095 N   0  0  0  0  0  0  0  0  0  0  0  0
   22.5586   -5.5771  -14.6014 C   0  0  0  0  0  0  0  0  0  0  0  0
   22.5674   -6.0246  -13.4291 O   0  0  0  0  0  0  0  0  0  0  0  0
   22.6249   -4.1748  -14.7087 O   0  0  0  0  0  0  0  0  0  0  0  0
  1  2  1  0
  3  4  2  0
  3  2  1  0
  6  5  1  6
  6  8  1  0
  7  6  1  0
  8  9  1  6
  9  3  1  0
 10  8  1  0
 10 11  2  0
 13 12  1  0
 14 13  1  0
 14 15  1  1
 16 17  1  1
 16 14  1  0
 17 10  1  0
 18 16  1  0
 19 18  2  0
 20 18  1  0
M  END
$$$$
