GVI.pdb
     RDKit          3D

 20 19  0  0  1  0  0  0  0  0999 V2000
   19.0109  -12.9407  -17.3669 N   0  0  0  0  0  0  0  0  0  0  0  0
   19.7235  -11.7459  -17.7188 C   0  0  0  0  0  0  0  0  0  0  0  0
   20.2869  -11.1198  -16.4832 C   0  0  0  0  0  0  0  0  0  0  0  0
   19.6813  -11.2018  -15.3829 O   0  0  0  0  0  0  0  0  0  0  0  0
   23.4786  -11.8623  -14.9837 C   0  0  0  0  0  0  0  0  0  0  0  0
   23.4193  -10.3621  -15.0687 C   0  0  1  0  0  0  0  0  0  0  0  0
   24.2598   -9.9675  -16.2918 C   0  0  0  0  0  0  0  0  0  0  0  0
   22.0380   -9.8144  -15.3240 C   0  0  2  0  0  0  0  0  0  0  0  0
   21.5076  -10.4262  -16.5299 N   0  0  0  0  0  0  0  0  0  0  0  0
   21.9521   -8.3618  -15.4720 C   0  0  0  0  0  0  0  0  0  0  0  0
   22.3751   -7.8719  -16.5775 O   0  0  0  0  0  0  0  0  0  0  0  0
   17.7963   -5.6029  -16.1302 C   0  0  0  0  0  0  0  0  0  0  0  0
   19.2254   -6.0655  -16.0739 C   0  0  0  0  0  0  0  0  0  0  0  0
   20.0044   -5.4875  -14.9274 C   0  0  2  0  0  0  0  0  0  0  0  0
   19.9665   -3.9749  -15.0778 C   0  0  0  0  0  0  0  0  0  0  0  0
   21.4291   -5.9965  -14.8570 C   0  0  2  0  0  0  0  0  0  0  0  0
   21.4604   -7.4206  -14.5537 N   0  0  0  0  0  0  0  0  0  0  0  0
   22.2524   -5.2220  -13.9118 C   0  0  0  0  0  0  0  0  0  0  0  0
   22.3424   -5.5021  -12.6920 O   0  0  0  0  0  0  0  0  0  0  0  0
   22.9996   -4.1033  -14.3271 O   0  0  0  0  0  0  0  0  0  0  0  0
  1  2  1  0
  3  4  2  0
  3  2  1  0
  6  5  1  6
  6  8  1  0
  7  6  1  0
  8  9  1  6
  9  3  1  0
 10  8  1  0
 10 11  2  0
 13 12  1  0
 14 13  1  0
 14 15  1  6
 16 17  1  1
 16 14  1  0
 17 10  1  0
 18 16  1  0
 19 18  2  0
 20 18  1  0
M  END
$$$$
