GVI.pdb
     RDKit          3D

 20 19  0  0  1  0  0  0  0  0999 V2000
   14.4129  -13.7670  -14.3755 N   0  0  0  0  0  0  0  0  0  0  0  0
   14.1194  -12.3674  -14.2556 C   0  0  0  0  0  0  0  0  0  0  0  0
   15.0847  -11.7360  -13.3038 C   0  0  0  0  0  0  0  0  0  0  0  0
   15.4247  -12.3227  -12.2434 O   0  0  0  0  0  0  0  0  0  0  0  0
   18.4785  -10.8558  -13.9083 C   0  0  0  0  0  0  0  0  0  0  0  0
   17.8660   -9.6192  -13.3109 C   0  0  1  0  0  0  0  0  0  0  0  0
   17.5705   -8.6755  -14.4859 C   0  0  0  0  0  0  0  0  0  0  0  0
   16.5421   -9.8558  -12.6295 C   0  0  2  0  0  0  0  0  0  0  0  0
   15.6308  -10.4713  -13.5785 N   0  0  0  0  0  0  0  0  0  0  0  0
   15.8939   -8.6659  -12.0785 C   0  0  0  0  0  0  0  0  0  0  0  0
   15.0298   -8.0856  -12.8254 O   0  0  0  0  0  0  0  0  0  0  0  0
   13.0522   -6.1522   -7.4007 C   0  0  0  0  0  0  0  0  0  0  0  0
   13.8773   -5.9003   -8.6317 C   0  0  0  0  0  0  0  0  0  0  0  0
   14.6524   -7.0995   -9.0971 C   0  0  2  0  0  0  0  0  0  0  0  0
   15.6389   -7.4505   -7.9946 C   0  0  0  0  0  0  0  0  0  0  0  0
   15.3609   -6.8767  -10.4170 C   0  0  2  0  0  0  0  0  0  0  0  0
   16.0932   -8.0679  -10.8242 N   0  0  0  0  0  0  0  0  0  0  0  0
   16.2309   -5.6878  -10.3896 C   0  0  0  0  0  0  0  0  0  0  0  0
   15.7876   -4.5146  -10.3466 O   0  0  0  0  0  0  0  0  0  0  0  0
   17.6343   -5.7982  -10.4103 O   0  0  0  0  0  0  0  0  0  0  0  0
  1  2  1  0
  3  4  2  0
  3  2  1  0
  6  5  1  6
  6  8  1  0
  7  6  1  0
  8  9  1  6
  9  3  1  0
 10  8  1  0
 10 11  2  0
 13 12  1  0
 14 13  1  0
 14 15  1  1
 16 17  1  1
 16 14  1  0
 17 10  1  0
 18 16  1  0
 19 18  2  0
 20 18  1  0
M  END
$$$$
