PYD.pdb
     RDKit          3D

 28 29  0  0  1  0  0  0  0  0999 V2000
    7.9958  -15.6003   18.6912 N   0  0  0  0  0  0  0  0  0  0  0  0
    6.9629  -14.6627   18.3501 C   0  0  0  0  0  0  0  0  0  0  0  0
    7.6299  -13.5078   17.6546 C   0  0  0  0  0  0  0  0  0  0  0  0
    9.0780  -13.6900   17.9625 C   0  0  0  0  0  0  0  0  0  0  0  0
    9.1828  -14.8357   18.8952 C   0  0  1  0  0  0  0  0  0  0  0  0
    9.3552  -14.4574   20.3193 C   0  0  0  0  0  0  0  0  0  0  0  0
   10.4622  -13.9787   20.6802 O   0  0  0  0  0  0  0  0  0  0  0  0
    6.6250  -12.3247   28.5937 O   0  0  0  0  0  0  0  0  0  0  0  0
    6.7773  -12.7049   27.2746 C   0  0  0  0  0  0  0  0  0  0  0  0
    7.3422  -11.8526   26.3516 C   0  0  0  0  0  0  0  0  0  0  0  0
    7.4832  -12.2576   25.0370 C   0  0  0  0  0  0  0  0  0  0  0  0
    7.0771  -13.5004   24.5945 C   0  0  0  0  0  0  0  0  0  0  0  0
    7.2245  -13.8812   23.1997 C   0  0  0  0  0  0  0  0  0  0  0  0
    8.5688  -14.3216   22.7324 C   0  0  2  0  0  0  0  0  0  0  0  0
    8.3645  -14.5981   21.2924 N   0  0  0  0  0  0  0  0  0  0  0  0
    9.0306  -15.5979   23.3065 C   0  0  0  0  0  0  0  0  0  0  0  0
    8.5742  -16.7032   22.8621 O   0  0  0  0  0  0  0  0  0  0  0  0
    6.5173  -14.3285   25.5378 C   0  0  0  0  0  0  0  0  0  0  0  0
    6.3635  -13.9473   26.8657 C   0  0  0  0  0  0  0  0  0  0  0  0
    9.9811  -15.7421   24.3533 N   0  0  0  0  0  0  0  0  0  0  0  0
   10.4345  -17.0135   24.8445 C   0  0  1  0  0  0  0  0  0  0  0  0
   11.8631  -17.3020   24.4067 C   0  0  0  0  0  0  0  0  0  0  0  0
   12.3189  -18.6240   24.8891 C   0  0  0  0  0  0  0  0  0  0  0  0
   11.6808  -19.6710   24.5773 O   0  0  0  0  0  0  0  0  0  0  0  0
   10.2666  -17.2138   26.2950 C   0  0  0  0  0  0  0  0  0  0  0  0
   10.3638  -18.4797   26.8757 O   0  0  0  0  0  0  0  0  0  0  0  0
   13.4393  -18.7989   25.6893 O   0  0  0  0  0  0  0  0  0  0  0  0
   10.0281  -16.2817   27.1047 O   0  0  0  0  0  0  0  0  0  0  0  0
  1  5  1  0
  2  1  1  0
  3  2  1  0
  3  4  1  0
  4  5  1  0
  5  6  1  1
  6  7  2  0
  9  8  1  0
  9 10  2  0
 11 10  1  0
 12 11  2  0
 13 12  1  0
 14 13  1  1
 14 15  1  0
 14 16  1  0
 15  6  1  0
 16 17  2  0
 16 20  1  0
 18 19  2  0
 18 12  1  0
 19  9  1  0
 20 21  1  0
 21 25  1  0
 21 22  1  1
 23 22  1  0
 24 23  2  0
 25 28  2  0
 25 26  1  0
 27 23  1  0
M  END
$$$$
