PYD.pdb
     RDKit          3D

 28 29  0  0  1  0  0  0  0  0999 V2000
    8.2148  -15.5126   19.2193 N   0  0  0  0  0  0  0  0  0  0  0  0
    7.1082  -14.6525   18.9067 C   0  0  0  0  0  0  0  0  0  0  0  0
    7.6846  -13.3790   18.3514 C   0  0  0  0  0  0  0  0  0  0  0  0
    9.1285  -13.4471   18.7192 C   0  0  0  0  0  0  0  0  0  0  0  0
    9.3077  -14.6583   19.5525 C   0  0  1  0  0  0  0  0  0  0  0  0
    9.3772  -14.3981   21.0113 C   0  0  0  0  0  0  0  0  0  0  0  0
   10.2845  -13.6376   21.4397 O   0  0  0  0  0  0  0  0  0  0  0  0
    6.6078  -11.3624   28.6362 O   0  0  0  0  0  0  0  0  0  0  0  0
    6.7659  -11.9742   27.4080 C   0  0  0  0  0  0  0  0  0  0  0  0
    6.0657  -13.1168   27.0895 C   0  0  0  0  0  0  0  0  0  0  0  0
    6.2424  -13.7099   25.8528 C   0  0  0  0  0  0  0  0  0  0  0  0
    7.1041  -13.2025   24.9015 C   0  0  0  0  0  0  0  0  0  0  0  0
    7.2767  -13.8666   23.6203 C   0  0  0  0  0  0  0  0  0  0  0  0
    8.5303  -14.6396   23.3955 C   0  0  2  0  0  0  0  0  0  0  0  0
    8.4974  -14.9443   21.9471 N   0  0  0  0  0  0  0  0  0  0  0  0
    8.5698  -15.9527   24.0632 C   0  0  0  0  0  0  0  0  0  0  0  0
    8.0759  -16.0933   25.2310 O   0  0  0  0  0  0  0  0  0  0  0  0
    7.7886  -12.0621   25.2478 C   0  0  0  0  0  0  0  0  0  0  0  0
    7.6304  -11.4452   26.4834 C   0  0  0  0  0  0  0  0  0  0  0  0
    9.1230  -17.1441   23.5203 N   0  0  0  0  0  0  0  0  0  0  0  0
   10.2655  -17.8140   24.0763 C   0  0  1  0  0  0  0  0  0  0  0  0
   11.5104  -17.5855   23.2313 C   0  0  0  0  0  0  0  0  0  0  0  0
   12.6747  -18.3172   23.7768 C   0  0  0  0  0  0  0  0  0  0  0  0
   12.5027  -19.3436   24.4961 O   0  0  0  0  0  0  0  0  0  0  0  0
   10.5220  -17.5261   25.4988 C   0  0  0  0  0  0  0  0  0  0  0  0
   10.6105  -18.5458   26.4483 O   0  0  0  0  0  0  0  0  0  0  0  0
   13.9898  -17.9395   23.5441 O   0  0  0  0  0  0  0  0  0  0  0  0
   10.6774  -16.3659   25.9585 O   0  0  0  0  0  0  0  0  0  0  0  0
  1  5  1  0
  2  1  1  0
  3  2  1  0
  3  4  1  0
  4  5  1  0
  5  6  1  1
  6  7  2  0
  9  8  1  0
  9 10  2  0
 11 10  1  0
 12 11  2  0
 13 12  1  0
 14 13  1  1
 14 15  1  0
 14 16  1  0
 15  6  1  0
 16 17  2  0
 16 20  1  0
 18 19  2  0
 18 12  1  0
 19  9  1  0
 20 21  1  0
 21 25  1  0
 21 22  1  6
 23 22  1  0
 24 23  2  0
 25 28  2  0
 25 26  1  0
 27 23  1  0
M  END
$$$$
