PYD.pdb
     RDKit          3D

 28 29  0  0  1  0  0  0  0  0999 V2000
    7.4169  -15.3884   20.4626 N   0  0  0  0  0  0  0  0  0  0  0  0
    6.4306  -14.3562   20.6170 C   0  0  0  0  0  0  0  0  0  0  0  0
    6.9100  -13.1687   19.8281 C   0  0  0  0  0  0  0  0  0  0  0  0
    8.3444  -13.4734   19.5549 C   0  0  0  0  0  0  0  0  0  0  0  0
    8.6668  -14.7268   20.2751 C   0  0  1  0  0  0  0  0  0  0  0  0
    9.3843  -14.5328   21.5590 C   0  0  0  0  0  0  0  0  0  0  0  0
   10.4875  -13.9266   21.5409 O   0  0  0  0  0  0  0  0  0  0  0  0
   10.1577  -14.9917   30.5316 O   0  0  0  0  0  0  0  0  0  0  0  0
    9.7888  -14.9334   29.2017 C   0  0  0  0  0  0  0  0  0  0  0  0
    9.7538  -13.7328   28.5275 C   0  0  0  0  0  0  0  0  0  0  0  0
    9.3808  -13.7018   27.1962 C   0  0  0  0  0  0  0  0  0  0  0  0
    9.0345  -14.8390   26.4948 C   0  0  0  0  0  0  0  0  0  0  0  0
    8.6289  -14.7621   25.1013 C   0  0  0  0  0  0  0  0  0  0  0  0
    9.6828  -14.8958   24.0568 C   0  0  2  0  0  0  0  0  0  0  0  0
    8.9141  -14.9810   22.7943 N   0  0  0  0  0  0  0  0  0  0  0  0
   10.4553  -16.1491   24.1212 C   0  0  0  0  0  0  0  0  0  0  0  0
    9.9070  -17.2571   23.8063 O   0  0  0  0  0  0  0  0  0  0  0  0
    9.0789  -16.0215   27.1937 C   0  0  0  0  0  0  0  0  0  0  0  0
    9.4500  -16.0817   28.5320 C   0  0  0  0  0  0  0  0  0  0  0  0
   11.8167  -16.2663   24.5122 N   0  0  0  0  0  0  0  0  0  0  0  0
   12.5219  -17.5165   24.5679 C   0  0  1  0  0  0  0  0  0  0  0  0
   14.0121  -17.3263   24.3247 C   0  0  0  0  0  0  0  0  0  0  0  0
   14.2614  -16.4837   23.1348 C   0  0  0  0  0  0  0  0  0  0  0  0
   13.6447  -16.7091   22.0534 O   0  0  0  0  0  0  0  0  0  0  0  0
   12.2736  -18.3151   25.7816 C   0  0  0  0  0  0  0  0  0  0  0  0
   11.4858  -17.8319   26.8280 O   0  0  0  0  0  0  0  0  0  0  0  0
   15.1586  -15.4248   23.1248 O   0  0  0  0  0  0  0  0  0  0  0  0
   12.7413  -19.4678   25.9657 O   0  0  0  0  0  0  0  0  0  0  0  0
  1  5  1  0
  2  1  1  0
  3  2  1  0
  3  4  1  0
  4  5  1  0
  5  6  1  1
  6  7  2  0
  9  8  1  0
  9 10  2  0
 11 10  1  0
 12 11  2  0
 13 12  1  0
 14 13  1  1
 14 15  1  0
 14 16  1  0
 15  6  1  0
 16 17  2  0
 16 20  1  0
 18 19  2  0
 18 12  1  0
 19  9  1  0
 20 21  1  0
 21 25  1  0
 21 22  1  1
 23 22  1  0
 24 23  2  0
 25 28  2  0
 25 26  1  0
 27 23  1  0
M  END
$$$$
