PYD.pdb
     RDKit          3D

 28 29  0  0  1  0  0  0  0  0999 V2000
    7.9004  -15.2337   20.0461 N   0  0  0  0  0  0  0  0  0  0  0  0
    6.7773  -14.3393   20.0172 C   0  0  0  0  0  0  0  0  0  0  0  0
    7.2824  -13.0158   19.5117 C   0  0  0  0  0  0  0  0  0  0  0  0
    8.7655  -13.1305   19.6223 C   0  0  0  0  0  0  0  0  0  0  0  0
    9.0529  -14.4261   20.2800 C   0  0  1  0  0  0  0  0  0  0  0  0
    9.3703  -14.3265   21.7257 C   0  0  0  0  0  0  0  0  0  0  0  0
   10.3860  -13.6671   22.0701 O   0  0  0  0  0  0  0  0  0  0  0  0
    6.0420  -10.3966   27.7033 O   0  0  0  0  0  0  0  0  0  0  0  0
    6.4466  -11.5217   27.0115 C   0  0  0  0  0  0  0  0  0  0  0  0
    5.6279  -12.6247   26.9105 C   0  0  0  0  0  0  0  0  0  0  0  0
    6.0570  -13.7385   26.2123 C   0  0  0  0  0  0  0  0  0  0  0  0
    7.2916  -13.8008   25.5983 C   0  0  0  0  0  0  0  0  0  0  0  0
    7.7139  -14.9977   24.8903 C   0  0  0  0  0  0  0  0  0  0  0  0
    9.0126  -14.9586   24.1614 C   0  0  2  0  0  0  0  0  0  0  0  0
    8.6122  -14.9194   22.7366 N   0  0  0  0  0  0  0  0  0  0  0  0
    9.8296  -16.1775   24.2971 C   0  0  0  0  0  0  0  0  0  0  0  0
   10.1756  -16.5921   25.4529 O   0  0  0  0  0  0  0  0  0  0  0  0
    8.0860  -12.6855   25.7162 C   0  0  0  0  0  0  0  0  0  0  0  0
    7.6801  -11.5526   26.4119 C   0  0  0  0  0  0  0  0  0  0  0  0
   10.2965  -16.9877   23.2267 N   0  0  0  0  0  0  0  0  0  0  0  0
   11.0860  -18.1730   23.4141 C   0  0  1  0  0  0  0  0  0  0  0  0
   10.8754  -19.1669   22.2811 C   0  0  0  0  0  0  0  0  0  0  0  0
   11.6661  -20.3995   22.4904 C   0  0  0  0  0  0  0  0  0  0  0  0
   12.2974  -20.5757   23.5724 O   0  0  0  0  0  0  0  0  0  0  0  0
   12.5195  -17.9316   23.6569 C   0  0  0  0  0  0  0  0  0  0  0  0
   13.2562  -18.7224   24.5408 O   0  0  0  0  0  0  0  0  0  0  0  0
   11.7654  -21.4113   21.5457 O   0  0  0  0  0  0  0  0  0  0  0  0
   13.1765  -17.0153   23.1000 O   0  0  0  0  0  0  0  0  0  0  0  0
  1  5  1  0
  2  1  1  0
  3  2  1  0
  3  4  1  0
  4  5  1  0
  5  6  1  1
  6  7  2  0
  9  8  1  0
  9 10  2  0
 11 10  1  0
 12 11  2  0
 13 12  1  0
 14 13  1  1
 14 15  1  0
 14 16  1  0
 15  6  1  0
 16 17  2  0
 16 20  1  0
 18 19  2  0
 18 12  1  0
 19  9  1  0
 20 21  1  0
 21 25  1  0
 21 22  1  6
 23 22  1  0
 24 23  2  0
 25 28  2  0
 25 26  1  0
 27 23  1  0
M  END
$$$$
