PYD.pdb
     RDKit          3D

 28 29  0  0  1  0  0  0  0  0999 V2000
    8.0431  -15.6117   18.8284 N   0  0  0  0  0  0  0  0  0  0  0  0
    6.8556  -14.8570   18.5412 C   0  0  0  0  0  0  0  0  0  0  0  0
    7.2946  -13.5881   17.8631 C   0  0  0  0  0  0  0  0  0  0  0  0
    8.7611  -13.5268   18.1289 C   0  0  0  0  0  0  0  0  0  0  0  0
    9.0878  -14.6602   19.0248 C   0  0  1  0  0  0  0  0  0  0  0  0
    9.2356  -14.2930   20.4545 C   0  0  0  0  0  0  0  0  0  0  0  0
   10.0590  -13.3901   20.7571 O   0  0  0  0  0  0  0  0  0  0  0  0
    6.5037  -12.3422   28.6214 O   0  0  0  0  0  0  0  0  0  0  0  0
    6.6867  -12.7878   27.3269 C   0  0  0  0  0  0  0  0  0  0  0  0
    6.3789  -14.0829   26.9725 C   0  0  0  0  0  0  0  0  0  0  0  0
    6.5716  -14.5039   25.6695 C   0  0  0  0  0  0  0  0  0  0  0  0
    7.0676  -13.6728   24.6855 C   0  0  0  0  0  0  0  0  0  0  0  0
    7.2743  -14.1592   23.3316 C   0  0  0  0  0  0  0  0  0  0  0  0
    8.6608  -14.5169   22.9201 C   0  0  2  0  0  0  0  0  0  0  0  0
    8.5172  -14.8864   21.4937 N   0  0  0  0  0  0  0  0  0  0  0  0
    9.2046  -15.7198   23.5753 C   0  0  0  0  0  0  0  0  0  0  0  0
    8.7230  -16.8699   23.3055 O   0  0  0  0  0  0  0  0  0  0  0  0
    7.3653  -12.3870   25.0688 C   0  0  0  0  0  0  0  0  0  0  0  0
    7.1816  -11.9372   26.3712 C   0  0  0  0  0  0  0  0  0  0  0  0
   10.2647  -15.7425   24.5218 N   0  0  0  0  0  0  0  0  0  0  0  0
   10.7429  -16.9427   25.1495 C   0  0  1  0  0  0  0  0  0  0  0  0
   12.2613  -17.0311   25.0973 C   0  0  0  0  0  0  0  0  0  0  0  0
   12.7821  -16.5982   23.7822 C   0  0  0  0  0  0  0  0  0  0  0  0
   12.2793  -17.0558   22.7153 O   0  0  0  0  0  0  0  0  0  0  0  0
   10.2385  -17.1716   26.5153 C   0  0  0  0  0  0  0  0  0  0  0  0
   10.5617  -18.3256   27.2317 O   0  0  0  0  0  0  0  0  0  0  0  0
   13.8225  -15.6914   23.6352 O   0  0  0  0  0  0  0  0  0  0  0  0
    9.4943  -16.3643   27.1284 O   0  0  0  0  0  0  0  0  0  0  0  0
  1  5  1  0
  2  1  1  0
  3  2  1  0
  3  4  1  0
  4  5  1  0
  5  6  1  1
  6  7  2  0
  9  8  1  0
  9 10  2  0
 11 10  1  0
 12 11  2  0
 13 12  1  0
 14 13  1  1
 14 15  1  0
 14 16  1  0
 15  6  1  0
 16 17  2  0
 16 20  1  0
 18 19  2  0
 18 12  1  0
 19  9  1  0
 20 21  1  0
 21 25  1  0
 21 22  1  1
 23 22  1  0
 24 23  2  0
 25 28  2  0
 25 26  1  0
 27 23  1  0
M  END
$$$$
