PYD.pdb
     RDKit          3D

 28 29  0  0  1  0  0  0  0  0999 V2000
    8.2706  -15.0531   19.9732 N   0  0  0  0  0  0  0  0  0  0  0  0
    6.8582  -14.8148   19.8706 C   0  0  0  0  0  0  0  0  0  0  0  0
    6.6747  -13.3333   19.6865 C   0  0  0  0  0  0  0  0  0  0  0  0
    7.9989  -12.7574   20.0602 C   0  0  0  0  0  0  0  0  0  0  0  0
    8.8371  -13.8768   20.5483 C   0  0  1  0  0  0  0  0  0  0  0  0
    8.9317  -13.9776   22.0253 C   0  0  0  0  0  0  0  0  0  0  0  0
    8.5358  -13.0030   22.7169 O   0  0  0  0  0  0  0  0  0  0  0  0
    5.9423  -10.7483   27.3230 O   0  0  0  0  0  0  0  0  0  0  0  0
    6.4233  -11.8390   26.6252 C   0  0  0  0  0  0  0  0  0  0  0  0
    5.7397  -13.0348   26.6194 C   0  0  0  0  0  0  0  0  0  0  0  0
    6.2429  -14.1117   25.9127 C   0  0  0  0  0  0  0  0  0  0  0  0
    7.4216  -14.0459   25.1976 C   0  0  0  0  0  0  0  0  0  0  0  0
    7.9275  -15.2064   24.4837 C   0  0  0  0  0  0  0  0  0  0  0  0
    9.3838  -15.2580   24.1738 C   0  0  2  0  0  0  0  0  0  0  0  0
    9.4340  -15.0890   22.7038 N   0  0  0  0  0  0  0  0  0  0  0  0
   10.0206  -16.5616   24.4323 C   0  0  0  0  0  0  0  0  0  0  0  0
    9.9824  -17.0734   25.6002 O   0  0  0  0  0  0  0  0  0  0  0  0
    8.0811  -12.8404   25.2220 C   0  0  0  0  0  0  0  0  0  0  0  0
    7.5983  -11.7419   25.9237 C   0  0  0  0  0  0  0  0  0  0  0  0
   10.7058  -17.3558   23.4733 N   0  0  0  0  0  0  0  0  0  0  0  0
   11.3194  -18.6178   23.7803 C   0  0  1  0  0  0  0  0  0  0  0  0
   11.9146  -19.2642   22.5377 C   0  0  0  0  0  0  0  0  0  0  0  0
   10.9978  -19.1569   21.3818 C   0  0  0  0  0  0  0  0  0  0  0  0
    9.7467  -19.1082   21.5628 O   0  0  0  0  0  0  0  0  0  0  0  0
   12.2937  -18.5812   24.8855 C   0  0  0  0  0  0  0  0  0  0  0  0
   12.5388  -19.7004   25.6834 O   0  0  0  0  0  0  0  0  0  0  0  0
   11.4338  -19.1044   20.0652 O   0  0  0  0  0  0  0  0  0  0  0  0
   12.9653  -17.5624   25.1897 O   0  0  0  0  0  0  0  0  0  0  0  0
  1  5  1  0
  2  1  1  0
  3  2  1  0
  3  4  1  0
  4  5  1  0
  5  6  1  1
  6  7  2  0
  9  8  1  0
  9 10  2  0
 11 10  1  0
 12 11  2  0
 13 12  1  0
 14 13  1  6
 14 15  1  0
 14 16  1  0
 15  6  1  0
 16 17  2  0
 16 20  1  0
 18 19  2  0
 18 12  1  0
 19  9  1  0
 20 21  1  0
 21 25  1  0
 21 22  1  6
 23 22  1  0
 24 23  2  0
 25 28  2  0
 25 26  1  0
 27 23  1  0
M  END
$$$$
