PYD.pdb
     RDKit          3D

 28 29  0  0  1  0  0  0  0  0999 V2000
    7.3836  -15.1737   18.6727 N   0  0  0  0  0  0  0  0  0  0  0  0
    6.4515  -14.0834   18.6049 C   0  0  0  0  0  0  0  0  0  0  0  0
    7.2062  -12.8918   18.0825 C   0  0  0  0  0  0  0  0  0  0  0  0
    8.6387  -13.2832   18.2230 C   0  0  0  0  0  0  0  0  0  0  0  0
    8.6650  -14.5941   18.9118 C   0  0  1  0  0  0  0  0  0  0  0  0
    8.9746  -14.5230   20.3609 C   0  0  0  0  0  0  0  0  0  0  0  0
   10.1238  -14.1440   20.7081 O   0  0  0  0  0  0  0  0  0  0  0  0
    7.0199  -12.9578   28.9046 O   0  0  0  0  0  0  0  0  0  0  0  0
    7.0449  -13.2760   27.5607 C   0  0  0  0  0  0  0  0  0  0  0  0
    7.6708  -12.4547   26.6491 C   0  0  0  0  0  0  0  0  0  0  0  0
    7.6814  -12.7961   25.3091 C   0  0  0  0  0  0  0  0  0  0  0  0
    7.0830  -13.9439   24.8299 C   0  0  0  0  0  0  0  0  0  0  0  0
    7.0990  -14.2576   23.4108 C   0  0  0  0  0  0  0  0  0  0  0  0
    8.3710  -14.7583   22.8186 C   0  0  2  0  0  0  0  0  0  0  0  0
    8.0699  -14.8506   21.3720 N   0  0  0  0  0  0  0  0  0  0  0  0
    8.7390  -16.1270   23.2222 C   0  0  0  0  0  0  0  0  0  0  0  0
    8.5391  -17.1052   22.4280 O   0  0  0  0  0  0  0  0  0  0  0  0
    6.4668  -14.7432   25.7627 C   0  0  0  0  0  0  0  0  0  0  0  0
    6.4409  -14.4244   27.1154 C   0  0  0  0  0  0  0  0  0  0  0  0
    9.3267  -16.4975   24.4621 N   0  0  0  0  0  0  0  0  0  0  0  0
   10.5391  -17.2603   24.5696 C   0  0  1  0  0  0  0  0  0  0  0  0
   11.6327  -16.6963   23.6743 C   0  0  0  0  0  0  0  0  0  0  0  0
   12.8819  -17.4803   23.7889 C   0  0  0  0  0  0  0  0  0  0  0  0
   13.2840  -17.8768   24.9210 O   0  0  0  0  0  0  0  0  0  0  0  0
   11.0240  -17.4635   25.9465 C   0  0  0  0  0  0  0  0  0  0  0  0
   11.1764  -16.3968   26.8344 O   0  0  0  0  0  0  0  0  0  0  0  0
   13.6703  -17.8220   22.6991 O   0  0  0  0  0  0  0  0  0  0  0  0
   11.3318  -18.5876   26.4188 O   0  0  0  0  0  0  0  0  0  0  0  0
  1  5  1  0
  2  1  1  0
  3  2  1  0
  3  4  1  0
  4  5  1  0
  5  6  1  1
  6  7  2  0
  9  8  1  0
  9 10  2  0
 11 10  1  0
 12 11  2  0
 13 12  1  0
 14 13  1  1
 14 15  1  0
 14 16  1  0
 15  6  1  0
 16 17  2  0
 16 20  1  0
 18 19  2  0
 18 12  1  0
 19  9  1  0
 20 21  1  0
 21 25  1  0
 21 22  1  6
 23 22  1  0
 24 23  2  0
 25 28  2  0
 25 26  1  0
 27 23  1  0
M  END
$$$$
