PYD.pdb
     RDKit          3D

 28 29  0  0  1  0  0  0  0  0999 V2000
    7.9003  -15.8047   18.9467 N   0  0  0  0  0  0  0  0  0  0  0  0
    6.7919  -14.9727   18.5708 C   0  0  0  0  0  0  0  0  0  0  0  0
    7.3516  -13.8326   17.7650 C   0  0  0  0  0  0  0  0  0  0  0  0
    8.8176  -13.8868   18.0347 C   0  0  0  0  0  0  0  0  0  0  0  0
    9.0336  -14.9443   19.0490 C   0  0  1  0  0  0  0  0  0  0  0  0
    9.2200  -14.4426   20.4326 C   0  0  0  0  0  0  0  0  0  0  0  0
   10.2031  -13.6923   20.6684 O   0  0  0  0  0  0  0  0  0  0  0  0
    6.3055  -11.9457   28.5128 O   0  0  0  0  0  0  0  0  0  0  0  0
    6.4980  -12.4469   27.2401 C   0  0  0  0  0  0  0  0  0  0  0  0
    6.3517  -13.7912   26.9778 C   0  0  0  0  0  0  0  0  0  0  0  0
    6.5502  -14.2675   25.6948 C   0  0  0  0  0  0  0  0  0  0  0  0
    6.8949  -13.4447   24.6416 C   0  0  0  0  0  0  0  0  0  0  0  0
    7.1141  -13.9871   23.3112 C   0  0  0  0  0  0  0  0  0  0  0  0
    8.5195  -14.1971   22.8634 C   0  0  2  0  0  0  0  0  0  0  0  0
    8.3718  -14.7493   21.4977 N   0  0  0  0  0  0  0  0  0  0  0  0
    9.2563  -15.2275   23.6165 C   0  0  0  0  0  0  0  0  0  0  0  0
    9.4955  -15.0651   24.8591 O   0  0  0  0  0  0  0  0  0  0  0  0
    7.0335  -12.1089   24.9338 C   0  0  0  0  0  0  0  0  0  0  0  0
    6.8401  -11.6031   26.2140 C   0  0  0  0  0  0  0  0  0  0  0  0
    9.7530  -16.4485   23.0850 N   0  0  0  0  0  0  0  0  0  0  0  0
   10.4215  -17.4445   23.8751 C   0  0  1  0  0  0  0  0  0  0  0  0
    9.4351  -18.4436   24.4622 C   0  0  0  0  0  0  0  0  0  0  0  0
    9.5713  -18.5363   25.9323 C   0  0  0  0  0  0  0  0  0  0  0  0
   10.4388  -17.8420   26.5371 O   0  0  0  0  0  0  0  0  0  0  0  0
   11.5379  -18.1274   23.1972 C   0  0  0  0  0  0  0  0  0  0  0  0
   11.8634  -17.8559   21.8670 O   0  0  0  0  0  0  0  0  0  0  0  0
    8.7832  -19.3634   26.7204 O   0  0  0  0  0  0  0  0  0  0  0  0
   12.2681  -18.9886   23.7510 O   0  0  0  0  0  0  0  0  0  0  0  0
  1  5  1  0
  2  1  1  0
  3  2  1  0
  3  4  1  0
  4  5  1  0
  5  6  1  1
  6  7  2  0
  9  8  1  0
  9 10  2  0
 11 10  1  0
 12 11  2  0
 13 12  1  0
 14 13  1  1
 14 15  1  0
 14 16  1  0
 15  6  1  0
 16 17  2  0
 16 20  1  0
 18 19  2  0
 18 12  1  0
 19  9  1  0
 20 21  1  0
 21 25  1  0
 21 22  1  6
 23 22  1  0
 24 23  2  0
 25 28  2  0
 25 26  1  0
 27 23  1  0
M  END
$$$$
