PYD.pdb
     RDKit          3D

 28 29  0  0  1  0  0  0  0  0999 V2000
    7.6962  -15.6445   18.8313 N   0  0  0  0  0  0  0  0  0  0  0  0
    6.5934  -14.7600   18.5789 C   0  0  0  0  0  0  0  0  0  0  0  0
    7.1488  -13.5575   17.8661 C   0  0  0  0  0  0  0  0  0  0  0  0
    8.6219  -13.6642   18.0744 C   0  0  0  0  0  0  0  0  0  0  0  0
    8.8508  -14.8188   18.9734 C   0  0  1  0  0  0  0  0  0  0  0  0
    9.0970  -14.4570   20.3909 C   0  0  0  0  0  0  0  0  0  0  0  0
   10.1565  -13.8389   20.6741 O   0  0  0  0  0  0  0  0  0  0  0  0
    6.6629  -12.4126   28.7438 O   0  0  0  0  0  0  0  0  0  0  0  0
    6.7709  -12.7863   27.4184 C   0  0  0  0  0  0  0  0  0  0  0  0
    6.5181  -14.0816   27.0240 C   0  0  0  0  0  0  0  0  0  0  0  0
    6.6334  -14.4298   25.6907 C   0  0  0  0  0  0  0  0  0  0  0  0
    6.9970  -13.5241   24.7147 C   0  0  0  0  0  0  0  0  0  0  0  0
    7.1265  -13.9342   23.3265 C   0  0  0  0  0  0  0  0  0  0  0  0
    8.4644  -14.3858   22.8515 C   0  0  2  0  0  0  0  0  0  0  0  0
    8.2257  -14.7586   21.4388 N   0  0  0  0  0  0  0  0  0  0  0  0
    8.9611  -15.6154   23.4943 C   0  0  0  0  0  0  0  0  0  0  0  0
    8.4277  -16.7417   23.2218 O   0  0  0  0  0  0  0  0  0  0  0  0
    7.2427  -12.2399   25.1383 C   0  0  0  0  0  0  0  0  0  0  0  0
    7.1345  -11.8624   26.4717 C   0  0  0  0  0  0  0  0  0  0  0  0
   10.0274  -15.6903   24.4310 N   0  0  0  0  0  0  0  0  0  0  0  0
   10.4103  -16.9007   25.1030 C   0  0  1  0  0  0  0  0  0  0  0  0
   11.9209  -17.0852   25.0997 C   0  0  0  0  0  0  0  0  0  0  0  0
   12.4268  -17.3704   23.7392 C   0  0  0  0  0  0  0  0  0  0  0  0
   11.7807  -18.1355   22.9662 O   0  0  0  0  0  0  0  0  0  0  0  0
    9.8528  -17.0609   26.4579 C   0  0  0  0  0  0  0  0  0  0  0  0
    9.9891  -18.2543   27.1697 O   0  0  0  0  0  0  0  0  0  0  0  0
   13.6047  -16.8359   23.2362 O   0  0  0  0  0  0  0  0  0  0  0  0
    9.2249  -16.1563   27.0652 O   0  0  0  0  0  0  0  0  0  0  0  0
  1  5  1  0
  2  1  1  0
  3  2  1  0
  3  4  1  0
  4  5  1  0
  5  6  1  1
  6  7  2  0
  9  8  1  0
  9 10  2  0
 11 10  1  0
 12 11  2  0
 13 12  1  0
 14 13  1  1
 14 15  1  0
 14 16  1  0
 15  6  1  0
 16 17  2  0
 16 20  1  0
 18 19  2  0
 18 12  1  0
 19  9  1  0
 20 21  1  0
 21 25  1  0
 21 22  1  1
 23 22  1  0
 24 23  2  0
 25 28  2  0
 25 26  1  0
 27 23  1  0
M  END
$$$$
