PYD.pdb
     RDKit          3D

 28 29  0  0  1  0  0  0  0  0999 V2000
    8.2076  -15.8715   19.1552 N   0  0  0  0  0  0  0  0  0  0  0  0
    7.0113  -15.2167   18.7055 C   0  0  0  0  0  0  0  0  0  0  0  0
    7.4407  -14.0447   17.8662 C   0  0  0  0  0  0  0  0  0  0  0  0
    8.8890  -13.8849   18.1854 C   0  0  0  0  0  0  0  0  0  0  0  0
    9.2081  -14.8594   19.2541 C   0  0  1  0  0  0  0  0  0  0  0  0
    9.2710  -14.2799   20.6182 C   0  0  0  0  0  0  0  0  0  0  0  0
   10.1472  -13.4078   20.8567 O   0  0  0  0  0  0  0  0  0  0  0  0
    6.0386  -11.8556   28.5953 O   0  0  0  0  0  0  0  0  0  0  0  0
    6.3047  -12.3832   27.3467 C   0  0  0  0  0  0  0  0  0  0  0  0
    6.7061  -11.5749   26.3062 C   0  0  0  0  0  0  0  0  0  0  0  0
    6.9661  -12.1282   25.0658 C   0  0  0  0  0  0  0  0  0  0  0  0
    6.8406  -13.4794   24.8137 C   0  0  0  0  0  0  0  0  0  0  0  0
    7.1043  -14.0196   23.4904 C   0  0  0  0  0  0  0  0  0  0  0  0
    8.5218  -14.1110   23.0410 C   0  0  2  0  0  0  0  0  0  0  0  0
    8.4173  -14.6397   21.6621 N   0  0  0  0  0  0  0  0  0  0  0  0
    9.3346  -15.1001   23.7709 C   0  0  0  0  0  0  0  0  0  0  0  0
    9.4338  -15.0364   25.0411 O   0  0  0  0  0  0  0  0  0  0  0  0
    6.4387  -14.2603   25.8708 C   0  0  0  0  0  0  0  0  0  0  0  0
    6.1706  -13.7308   27.1278 C   0  0  0  0  0  0  0  0  0  0  0  0
   10.0555  -16.1764   23.1861 N   0  0  0  0  0  0  0  0  0  0  0  0
   10.7588  -17.1688   23.9502 C   0  0  1  0  0  0  0  0  0  0  0  0
    9.8945  -18.3968   24.1970 C   0  0  0  0  0  0  0  0  0  0  0  0
   10.6302  -19.4305   24.9576 C   0  0  0  0  0  0  0  0  0  0  0  0
   11.1750  -19.1422   26.0623 O   0  0  0  0  0  0  0  0  0  0  0  0
   12.0808  -17.5414   23.4156 C   0  0  0  0  0  0  0  0  0  0  0  0
   12.4100  -17.3448   22.0731 O   0  0  0  0  0  0  0  0  0  0  0  0
   10.7678  -20.7420   24.5248 O   0  0  0  0  0  0  0  0  0  0  0  0
   12.9949  -18.0540   24.1106 O   0  0  0  0  0  0  0  0  0  0  0  0
  1  5  1  0
  2  1  1  0
  3  2  1  0
  3  4  1  0
  4  5  1  0
  5  6  1  1
  6  7  2  0
  9  8  1  0
  9 10  2  0
 11 10  1  0
 12 11  2  0
 13 12  1  0
 14 13  1  1
 14 15  1  0
 14 16  1  0
 15  6  1  0
 16 17  2  0
 16 20  1  0
 18 19  2  0
 18 12  1  0
 19  9  1  0
 20 21  1  0
 21 25  1  0
 21 22  1  6
 23 22  1  0
 24 23  2  0
 25 28  2  0
 25 26  1  0
 27 23  1  0
M  END
$$$$
