PYD.pdb
     RDKit          3D

 28 29  0  0  1  0  0  0  0  0999 V2000
    8.2272  -17.6320   19.3931 N   0  0  0  0  0  0  0  0  0  0  0  0
    7.1367  -16.9806   18.7233 C   0  0  0  0  0  0  0  0  0  0  0  0
    7.7366  -16.0924   17.6680 C   0  0  0  0  0  0  0  0  0  0  0  0
    9.1788  -16.0144   18.0406 C   0  0  0  0  0  0  0  0  0  0  0  0
    9.3352  -16.7361   19.3245 C   0  0  1  0  0  0  0  0  0  0  0  0
    9.4085  -15.8598   20.5193 C   0  0  0  0  0  0  0  0  0  0  0  0
   10.3081  -14.9800   20.5603 O   0  0  0  0  0  0  0  0  0  0  0  0
    6.4899  -11.8572   27.9636 O   0  0  0  0  0  0  0  0  0  0  0  0
    6.6858  -12.5536   26.7869 C   0  0  0  0  0  0  0  0  0  0  0  0
    6.3090  -13.8736   26.6729 C   0  0  0  0  0  0  0  0  0  0  0  0
    6.5163  -14.5481   25.4837 C   0  0  0  0  0  0  0  0  0  0  0  0
    7.0945  -13.9512   24.3817 C   0  0  0  0  0  0  0  0  0  0  0  0
    7.3134  -14.7003   23.1557 C   0  0  0  0  0  0  0  0  0  0  0  0
    8.6958  -15.1701   22.8595 C   0  0  2  0  0  0  0  0  0  0  0  0
    8.5401  -15.9465   21.6085 N   0  0  0  0  0  0  0  0  0  0  0  0
    9.2425  -16.1259   23.8389 C   0  0  0  0  0  0  0  0  0  0  0  0
    8.7121  -17.2782   23.9751 O   0  0  0  0  0  0  0  0  0  0  0  0
    7.4598  -12.6341   24.5254 C   0  0  0  0  0  0  0  0  0  0  0  0
    7.2633  -11.9320   25.7089 C   0  0  0  0  0  0  0  0  0  0  0  0
   10.3563  -15.8959   24.6913 N   0  0  0  0  0  0  0  0  0  0  0  0
   10.8547  -16.8663   25.6257 C   0  0  1  0  0  0  0  0  0  0  0  0
   12.3762  -16.8773   25.6582 C   0  0  0  0  0  0  0  0  0  0  0  0
   12.9239  -18.0235   24.9002 C   0  0  0  0  0  0  0  0  0  0  0  0
   12.4194  -18.3513   23.7874 O   0  0  0  0  0  0  0  0  0  0  0  0
   10.2894  -16.7677   26.9832 C   0  0  0  0  0  0  0  0  0  0  0  0
   10.1703  -17.8863   27.8102 O   0  0  0  0  0  0  0  0  0  0  0  0
   13.9921  -18.7905   25.3440 O   0  0  0  0  0  0  0  0  0  0  0  0
    9.8792  -15.6931   27.4915 O   0  0  0  0  0  0  0  0  0  0  0  0
  1  5  1  0
  2  1  1  0
  3  2  1  0
  3  4  1  0
  4  5  1  0
  5  6  1  1
  6  7  2  0
  9  8  1  0
  9 10  2  0
 11 10  1  0
 12 11  2  0
 13 12  1  0
 14 13  1  1
 14 15  1  0
 14 16  1  0
 15  6  1  0
 16 17  2  0
 16 20  1  0
 18 19  2  0
 18 12  1  0
 19  9  1  0
 20 21  1  0
 21 25  1  0
 21 22  1  1
 23 22  1  0
 24 23  2  0
 25 28  2  0
 25 26  1  0
 27 23  1  0
M  END
$$$$
