PYD.pdb
     RDKit          3D

 28 29  0  0  1  0  0  0  0  0999 V2000
    9.3209  -13.1452   20.2549 N   0  0  0  0  0  0  0  0  0  0  0  0
    9.3763  -12.7306   18.8812 C   0  0  0  0  0  0  0  0  0  0  0  0
    7.9614  -12.7097   18.3711 C   0  0  0  0  0  0  0  0  0  0  0  0
    7.1968  -13.4731   19.3994 C   0  0  0  0  0  0  0  0  0  0  0  0
    8.1822  -13.9963   20.3735 C   0  0  1  0  0  0  0  0  0  0  0  0
    8.5401  -15.4233   20.1825 C   0  0  0  0  0  0  0  0  0  0  0  0
    7.6089  -16.2584   20.0392 O   0  0  0  0  0  0  0  0  0  0  0  0
   15.5281  -13.7288   19.1987 O   0  0  0  0  0  0  0  0  0  0  0  0
   14.4722  -14.6160   19.1226 C   0  0  0  0  0  0  0  0  0  0  0  0
   13.7023  -14.7060   17.9839 C   0  0  0  0  0  0  0  0  0  0  0  0
   12.6506  -15.6025   17.9335 C   0  0  0  0  0  0  0  0  0  0  0  0
   12.3275  -16.4293   18.9904 C   0  0  0  0  0  0  0  0  0  0  0  0
   11.2016  -17.3444   18.9052 C   0  0  0  0  0  0  0  0  0  0  0  0
   10.2063  -17.3351   20.0137 C   0  0  2  0  0  0  0  0  0  0  0  0
    9.8497  -15.9047   20.1507 N   0  0  0  0  0  0  0  0  0  0  0  0
   10.7477  -17.7233   21.3282 C   0  0  0  0  0  0  0  0  0  0  0  0
   11.6367  -18.6345   21.4117 O   0  0  0  0  0  0  0  0  0  0  0  0
   13.1131  -16.3169   20.1124 C   0  0  0  0  0  0  0  0  0  0  0  0
   14.1761  -15.4247   20.1905 C   0  0  0  0  0  0  0  0  0  0  0  0
   10.3724  -17.1630   22.5793 N   0  0  0  0  0  0  0  0  0  0  0  0
   11.1404  -17.3218   23.7827 C   0  0  1  0  0  0  0  0  0  0  0  0
   12.6093  -16.9974   23.5524 C   0  0  0  0  0  0  0  0  0  0  0  0
   13.4774  -18.1391   23.9148 C   0  0  0  0  0  0  0  0  0  0  0  0
   13.0496  -19.3247   23.8063 O   0  0  0  0  0  0  0  0  0  0  0  0
   10.6100  -16.6050   24.9562 C   0  0  0  0  0  0  0  0  0  0  0  0
   11.0087  -16.9289   26.2544 O   0  0  0  0  0  0  0  0  0  0  0  0
   14.7757  -17.9913   24.3826 O   0  0  0  0  0  0  0  0  0  0  0  0
    9.7756  -15.6670   24.8821 O   0  0  0  0  0  0  0  0  0  0  0  0
  1  5  1  0
  2  1  1  0
  3  2  1  0
  3  4  1  0
  4  5  1  0
  5  6  1  6
  6  7  2  0
  9  8  1  0
  9 10  2  0
 11 10  1  0
 12 11  2  0
 13 12  1  0
 14 13  1  6
 14 15  1  0
 14 16  1  0
 15  6  1  0
 16 17  2  0
 16 20  1  0
 18 19  2  0
 18 12  1  0
 19  9  1  0
 20 21  1  0
 21 25  1  0
 21 22  1  6
 23 22  1  0
 24 23  2  0
 25 28  2  0
 25 26  1  0
 27 23  1  0
M  END
$$$$
