HWE.pdb
     RDKit          3D

 34 36  0  0  1  0  0  0  0  0999 V2000
-4065.2842  949.5117 1819.3530 N   0  0  0  0  0  0  0  0  0  0  0  0
-4065.6855  950.9110 1819.1766 C   0  0  1  0  0  0  0  0  0  0  0  0
-4067.2075  950.9031 1819.3680 C   0  0  0  0  0  0  0  0  0  0  0  0
-4067.5728  949.4711 1819.5780 C   0  0  0  0  0  0  0  0  0  0  0  0
-4066.7056  948.4427 1819.8075 C   0  0  0  0  0  0  0  0  0  0  0  0
-4067.4531  947.3263 1819.9370 N   0  0  0  0  0  0  0  0  0  0  0  0
-4068.7417  947.6118 1819.7982 C   0  0  0  0  0  0  0  0  0  0  0  0
-4068.8062  948.9437 1819.5767 N   0  0  0  0  0  0  0  0  0  0  0  0
-4065.0376  951.7648 1820.1720 C   0  0  0  0  0  0  0  0  0  0  0  0
-4065.6980  952.2936 1821.0848 O   0  0  0  0  0  0  0  0  0  0  0  0
-4063.6606  951.9960 1820.1105 N   0  0  0  0  0  0  0  0  0  0  0  0
-4062.8423  951.7896 1818.9316 C   0  0  1  0  0  0  0  0  0  0  0  0
-4061.8093  950.7388 1819.1138 C   0  0  0  0  0  0  0  0  0  0  0  0
-4061.5630  950.0627 1817.8210 C   0  0  0  0  0  0  0  0  0  0  0  0
-4061.9258  948.7852 1817.4502 C   0  0  0  0  0  0  0  0  0  0  0  0
-4061.5103  948.5405 1816.1946 N   0  0  0  0  0  0  0  0  0  0  0  0
-4060.8745  949.6504 1815.7327 C   0  0  0  0  0  0  0  0  0  0  0  0
-4060.2729  949.9122 1814.5201 C   0  0  0  0  0  0  0  0  0  0  0  0
-4059.6921  951.1519 1814.3198 C   0  0  0  0  0  0  0  0  0  0  0  0
-4059.7119  952.1110 1815.3127 C   0  0  0  0  0  0  0  0  0  0  0  0
-4060.3137  951.8390 1816.5150 C   0  0  0  0  0  0  0  0  0  0  0  0
-4060.9004  950.6025 1816.7339 C   0  0  0  0  0  0  0  0  0  0  0  0
-4063.7097  951.4579 1817.7949 C   0  0  0  0  0  0  0  0  0  0  0  0
-4064.7407  950.7767 1817.9714 O   0  0  0  0  0  0  0  0  0  0  0  0
-4063.3777  951.9106 1816.4866 N   0  0  0  0  0  0  0  0  0  0  0  0
-4062.5603  951.0876 1815.5741 C   0  0  1  0  0  0  0  0  0  0  0  0
-4062.1528  951.9015 1814.3817 C   0  0  0  0  0  0  0  0  0  0  0  0
-4062.9875  953.1071 1814.1656 C   0  0  0  0  0  0  0  0  0  0  0  0
-4062.7615  954.2034 1815.1311 C   0  0  0  0  0  0  0  0  0  0  0  0
-4063.6650  955.0659 1815.2996 O   0  0  0  0  0  0  0  0  0  0  0  0
-4061.3821  950.5569 1816.3104 C   0  0  0  0  0  0  0  0  0  0  0  0
-4061.2998  950.4730 1817.5548 O   0  0  0  0  0  0  0  0  0  0  0  0
-4061.6008  954.3143 1815.8500 O   0  0  0  0  0  0  0  0  0  0  0  0
-4060.2771  950.1167 1815.5775 O   0  0  0  0  0  0  0  0  0  0  0  0
  2  1  1  1
  2  3  1  0
  3  4  1  0
  4  5  2  0
  4  8  1  0
  5  6  1  0
  6  7  1  0
  8  7  2  0
  9 10  2  0
  9  2  1  0
 11  9  1  0
 12 13  1  1
 12 11  1  0
 13 14  1  0
 14 22  1  0
 14 15  2  0
 15 16  1  0
 17 16  1  0
 17 18  2  0
 19 18  1  0
 20 19  2  0
 21 22  2  0
 21 20  1  0
 22 17  1  0
 23 12  1  0
 24 23  2  0
 25 23  1  0
 26 25  1  0
 27 28  1  0
 26 27  1  6
 28 29  1  0
 29 33  1  0
 29 30  2  0
 31 34  1  0
 31 26  1  0
 32 31  2  0
M  END
$$$$
