HWE.pdb
     RDKit          3D

 34 36  0  0  1  0  0  0  0  0999 V2000
   30.6950  -39.5260   -5.0727 N   0  0  0  0  0  0  0  0  0  0  0  0
   29.2795  -39.1504   -5.0022 C   0  0  1  0  0  0  0  0  0  0  0  0
   28.5336  -40.4831   -4.8514 C   0  0  0  0  0  0  0  0  0  0  0  0
   27.0890  -40.1497   -5.0244 C   0  0  0  0  0  0  0  0  0  0  0  0
   26.4220  -40.0417   -6.2106 C   0  0  0  0  0  0  0  0  0  0  0  0
   25.1444  -39.7269   -5.9094 N   0  0  0  0  0  0  0  0  0  0  0  0
   24.9857  -39.6342   -4.5950 C   0  0  0  0  0  0  0  0  0  0  0  0
   26.1962  -39.8978   -4.0549 N   0  0  0  0  0  0  0  0  0  0  0  0
   29.0319  -38.2794   -3.8532 C   0  0  0  0  0  0  0  0  0  0  0  0
   29.5938  -38.4898   -2.7619 O   0  0  0  0  0  0  0  0  0  0  0  0
   28.1582  -37.1963   -3.9678 N   0  0  0  0  0  0  0  0  0  0  0  0
   27.9378  -36.2024   -2.9346 C   0  0  1  0  0  0  0  0  0  0  0  0
   27.5730  -34.8682   -3.4752 C   0  0  0  0  0  0  0  0  0  0  0  0
   27.3392  -33.9319   -2.3538 C   0  0  0  0  0  0  0  0  0  0  0  0
   27.9827  -33.8912   -1.1349 C   0  0  0  0  0  0  0  0  0  0  0  0
   27.4738  -32.8975   -0.3847 N   0  0  0  0  0  0  0  0  0  0  0  0
   26.4972  -32.2805   -1.1005 C   0  0  0  0  0  0  0  0  0  0  0  0
   25.6772  -31.2164   -0.7881 C   0  0  0  0  0  0  0  0  0  0  0  0
   24.7546  -30.7902   -1.7253 C   0  0  0  0  0  0  0  0  0  0  0  0
   24.6518  -31.4147   -2.9526 C   0  0  0  0  0  0  0  0  0  0  0  0
   25.4729  -32.4724   -3.2523 C   0  0  0  0  0  0  0  0  0  0  0  0
   26.4039  -32.9139   -2.3256 C   0  0  0  0  0  0  0  0  0  0  0  0
   26.8961  -36.6817   -2.0189 C   0  0  0  0  0  0  0  0  0  0  0  0
   25.8175  -37.1207   -2.4714 O   0  0  0  0  0  0  0  0  0  0  0  0
   27.1103  -36.6487   -0.6123 N   0  0  0  0  0  0  0  0  0  0  0  0
   26.0576  -37.0671    0.3346 C   0  0  1  0  0  0  0  0  0  0  0  0
   26.6534  -37.9232    1.4126 C   0  0  0  0  0  0  0  0  0  0  0  0
   27.0543  -39.2739    0.9527 C   0  0  0  0  0  0  0  0  0  0  0  0
   25.9987  -40.3035    1.0459 C   0  0  0  0  0  0  0  0  0  0  0  0
   25.2981  -40.3688    2.0917 O   0  0  0  0  0  0  0  0  0  0  0  0
   25.3889  -35.8613    0.8923 C   0  0  0  0  0  0  0  0  0  0  0  0
   24.1539  -35.7392    1.0438 O   0  0  0  0  0  0  0  0  0  0  0  0
   25.7552  -41.1920    0.0332 O   0  0  0  0  0  0  0  0  0  0  0  0
   26.1795  -34.7780    1.2801 O   0  0  0  0  0  0  0  0  0  0  0  0
  2  1  1  1
  2  3  1  0
  3  4  1  0
  4  5  2  0
  4  8  1  0
  5  6  1  0
  6  7  1  0
  8  7  2  0
  9 10  2  0
  9  2  1  0
 11  9  1  0
 12 13  1  6
 12 11  1  0
 13 14  1  0
 14 22  1  0
 14 15  2  0
 15 16  1  0
 17 16  1  0
 17 18  2  0
 19 18  1  0
 20 19  2  0
 21 22  2  0
 21 20  1  0
 22 17  1  0
 23 12  1  0
 24 23  2  0
 25 23  1  0
 26 25  1  0
 27 28  1  0
 26 27  1  1
 28 29  1  0
 29 33  1  0
 29 30  2  0
 31 34  1  0
 31 26  1  0
 32 31  2  0
M  END
$$$$
