HWE.pdb
     RDKit          3D

 34 36  0  0  1  0  0  0  0  0999 V2000
   27.4141  -22.6993  -17.8613 N   0  0  0  0  0  0  0  0  0  0  0  0
   28.1715  -22.0025  -16.8170 C   0  0  1  0  0  0  0  0  0  0  0  0
   28.0694  -20.5178  -17.1917 C   0  0  0  0  0  0  0  0  0  0  0  0
   28.7834  -20.3891  -18.4962 C   0  0  0  0  0  0  0  0  0  0  0  0
   28.3255  -20.8093  -19.7117 C   0  0  0  0  0  0  0  0  0  0  0  0
   29.2807  -20.4996  -20.6137 N   0  0  0  0  0  0  0  0  0  0  0  0
   30.3086  -19.9079  -20.0181 C   0  0  0  0  0  0  0  0  0  0  0  0
   29.9912  -19.8439  -18.7059 N   0  0  0  0  0  0  0  0  0  0  0  0
   27.5858  -22.2512  -15.4997 C   0  0  0  0  0  0  0  0  0  0  0  0
   27.7530  -23.3430  -14.9243 O   0  0  0  0  0  0  0  0  0  0  0  0
   26.8288  -21.2619  -14.8691 N   0  0  0  0  0  0  0  0  0  0  0  0
   26.3458  -21.3388  -13.5036 C   0  0  1  0  0  0  0  0  0  0  0  0
   27.1983  -20.5979  -12.5393 C   0  0  0  0  0  0  0  0  0  0  0  0
   26.5193  -20.5426  -11.2262 C   0  0  0  0  0  0  0  0  0  0  0  0
   25.1767  -20.3558  -10.9730 C   0  0  0  0  0  0  0  0  0  0  0  0
   24.9593  -20.3578   -9.6456 N   0  0  0  0  0  0  0  0  0  0  0  0
   26.1507  -20.5449   -9.0191 C   0  0  0  0  0  0  0  0  0  0  0  0
   26.4694  -20.6240   -7.6796 C   0  0  0  0  0  0  0  0  0  0  0  0
   27.7896  -20.8226   -7.3207 C   0  0  0  0  0  0  0  0  0  0  0  0
   28.7746  -20.9402   -8.2812 C   0  0  0  0  0  0  0  0  0  0  0  0
   28.4457  -20.8599   -9.6110 C   0  0  0  0  0  0  0  0  0  0  0  0
   27.1276  -20.6611   -9.9902 C   0  0  0  0  0  0  0  0  0  0  0  0
   24.9671  -20.8391  -13.4510 C   0  0  0  0  0  0  0  0  0  0  0  0
   24.7091  -19.6721  -13.8152 O   0  0  0  0  0  0  0  0  0  0  0  0
   23.9187  -21.6814  -12.9854 N   0  0  0  0  0  0  0  0  0  0  0  0
   22.5004  -21.3310  -13.1988 C   0  0  1  0  0  0  0  0  0  0  0  0
   21.6259  -22.2134  -12.3581 C   0  0  0  0  0  0  0  0  0  0  0  0
   20.1760  -21.9551  -12.5252 C   0  0  0  0  0  0  0  0  0  0  0  0
   19.2887  -22.8809  -11.7914 C   0  0  0  0  0  0  0  0  0  0  0  0
   19.7839  -23.9110  -11.2599 O   0  0  0  0  0  0  0  0  0  0  0  0
   22.2961  -19.8913  -12.8868 C   0  0  0  0  0  0  0  0  0  0  0  0
   22.5824  -19.3526  -11.7955 O   0  0  0  0  0  0  0  0  0  0  0  0
   17.9434  -22.6584  -11.6692 O   0  0  0  0  0  0  0  0  0  0  0  0
   21.7465  -19.0660  -13.8696 O   0  0  0  0  0  0  0  0  0  0  0  0
  2  1  1  6
  2  3  1  0
  3  4  1  0
  4  5  2  0
  4  8  1  0
  5  6  1  0
  6  7  1  0
  8  7  2  0
  9 10  2  0
  9  2  1  0
 11  9  1  0
 12 13  1  1
 12 11  1  0
 13 14  1  0
 14 22  1  0
 14 15  2  0
 15 16  1  0
 17 16  1  0
 17 18  2  0
 19 18  1  0
 20 19  2  0
 21 22  2  0
 21 20  1  0
 22 17  1  0
 23 12  1  0
 24 23  2  0
 25 23  1  0
 26 25  1  0
 27 28  1  0
 26 27  1  1
 28 29  1  0
 29 33  1  0
 29 30  2  0
 31 34  1  0
 31 26  1  0
 32 31  2  0
M  END
$$$$
