HWE.pdb
     RDKit          3D

 34 36  0  0  1  0  0  0  0  0999 V2000
   28.3685  -20.4565  -14.9494 N   0  0  0  0  0  0  0  0  0  0  0  0
   27.1348  -19.7087  -14.6879 C   0  0  1  0  0  0  0  0  0  0  0  0
   26.5534  -19.4246  -16.0795 C   0  0  0  0  0  0  0  0  0  0  0  0
   27.4624  -18.4089  -16.6880 C   0  0  0  0  0  0  0  0  0  0  0  0
   27.6548  -17.1311  -16.2476 C   0  0  0  0  0  0  0  0  0  0  0  0
   28.5512  -16.5644  -17.0826 N   0  0  0  0  0  0  0  0  0  0  0  0
   28.9245  -17.4273  -18.0193 C   0  0  0  0  0  0  0  0  0  0  0  0
   28.2444  -18.5676  -17.7666 N   0  0  0  0  0  0  0  0  0  0  0  0
   26.2066  -20.5058  -13.8859 C   0  0  0  0  0  0  0  0  0  0  0  0
   25.6650  -21.5217  -14.3610 O   0  0  0  0  0  0  0  0  0  0  0  0
   25.9159  -20.1349  -12.5716 N   0  0  0  0  0  0  0  0  0  0  0  0
   25.0498  -20.8793  -11.6776 C   0  0  1  0  0  0  0  0  0  0  0  0
   25.2505  -20.5341  -10.2472 C   0  0  0  0  0  0  0  0  0  0  0  0
   26.6705  -20.7404   -9.8874 C   0  0  0  0  0  0  0  0  0  0  0  0
   27.6558  -21.3473  -10.6374 C   0  0  0  0  0  0  0  0  0  0  0  0
   28.8140  -21.3460   -9.9536 N   0  0  0  0  0  0  0  0  0  0  0  0
   28.6006  -20.7417   -8.7552 C   0  0  0  0  0  0  0  0  0  0  0  0
   29.4533  -20.4896   -7.7009 C   0  0  0  0  0  0  0  0  0  0  0  0
   28.9563  -19.8462   -6.5828 C   0  0  0  0  0  0  0  0  0  0  0  0
   27.6319  -19.4609   -6.5176 C   0  0  0  0  0  0  0  0  0  0  0  0
   26.7928  -19.7169   -7.5726 C   0  0  0  0  0  0  0  0  0  0  0  0
   27.2728  -20.3609   -8.7020 C   0  0  0  0  0  0  0  0  0  0  0  0
   23.6518  -20.6551  -12.0631 C   0  0  0  0  0  0  0  0  0  0  0  0
   23.2079  -19.4914  -12.1623 O   0  0  0  0  0  0  0  0  0  0  0  0
   22.7963  -21.7617  -12.3256 N   0  0  0  0  0  0  0  0  0  0  0  0
   21.4098  -21.5661  -12.7939 C   0  0  1  0  0  0  0  0  0  0  0  0
   20.8327  -22.8774  -13.2385 C   0  0  0  0  0  0  0  0  0  0  0  0
   19.4273  -22.7881  -13.7006 C   0  0  0  0  0  0  0  0  0  0  0  0
   19.1886  -23.2847  -15.0715 C   0  0  0  0  0  0  0  0  0  0  0  0
   20.1301  -23.8498  -15.6903 O   0  0  0  0  0  0  0  0  0  0  0  0
   20.6050  -20.9481  -11.7065 C   0  0  0  0  0  0  0  0  0  0  0  0
   20.7413  -21.2006  -10.4896 O   0  0  0  0  0  0  0  0  0  0  0  0
   17.9770  -23.1510  -15.6948 O   0  0  0  0  0  0  0  0  0  0  0  0
   19.6224  -20.0173  -12.0487 O   0  0  0  0  0  0  0  0  0  0  0  0
  2  1  1  6
  2  3  1  0
  3  4  1  0
  4  5  2  0
  4  8  1  0
  5  6  1  0
  6  7  1  0
  8  7  2  0
  9 10  2  0
  9  2  1  0
 11  9  1  0
 12 13  1  1
 12 11  1  0
 13 14  1  0
 14 22  1  0
 14 15  2  0
 15 16  1  0
 17 16  1  0
 17 18  2  0
 19 18  1  0
 20 19  2  0
 21 22  2  0
 21 20  1  0
 22 17  1  0
 23 12  1  0
 24 23  2  0
 25 23  1  0
 26 25  1  0
 27 28  1  0
 26 27  1  1
 28 29  1  0
 29 33  1  0
 29 30  2  0
 31 34  1  0
 31 26  1  0
 32 31  2  0
M  END
$$$$
