HWE.pdb
     RDKit          3D

 34 36  0  0  1  0  0  0  0  0999 V2000
   21.0742  -13.9586  -16.7648 N   0  0  0  0  0  0  0  0  0  0  0  0
   20.6613  -12.5999  -17.1297 C   0  0  1  0  0  0  0  0  0  0  0  0
   19.4160  -12.3319  -16.2738 C   0  0  0  0  0  0  0  0  0  0  0  0
   18.3649  -13.2478  -16.8072 C   0  0  0  0  0  0  0  0  0  0  0  0
   17.8948  -14.3769  -16.2008 C   0  0  0  0  0  0  0  0  0  0  0  0
   16.9596  -14.8976  -17.0232 N   0  0  0  0  0  0  0  0  0  0  0  0
   16.8262  -14.1474  -18.1099 C   0  0  0  0  0  0  0  0  0  0  0  0
   17.7012  -13.1273  -17.9671 N   0  0  0  0  0  0  0  0  0  0  0  0
   21.7212  -11.6381  -16.8268 C   0  0  0  0  0  0  0  0  0  0  0  0
   22.2553  -11.6125  -15.7020 O   0  0  0  0  0  0  0  0  0  0  0  0
   22.1485  -10.7333  -17.8005 N   0  0  0  0  0  0  0  0  0  0  0  0
   23.2081   -9.7607  -17.6135 C   0  0  1  0  0  0  0  0  0  0  0  0
   24.2856   -9.8672  -18.6299 C   0  0  0  0  0  0  0  0  0  0  0  0
   25.0039  -11.1480  -18.4508 C   0  0  0  0  0  0  0  0  0  0  0  0
   24.8634  -12.3085  -19.1823 C   0  0  0  0  0  0  0  0  0  0  0  0
   25.6898  -13.2536  -18.6993 N   0  0  0  0  0  0  0  0  0  0  0  0
   26.3762  -12.7249  -17.6524 C   0  0  0  0  0  0  0  0  0  0  0  0
   27.3330  -13.2734  -16.8242 C   0  0  0  0  0  0  0  0  0  0  0  0
   27.8721  -12.4901  -15.8207 C   0  0  0  0  0  0  0  0  0  0  0  0
   27.4637  -11.1826  -15.6462 C   0  0  0  0  0  0  0  0  0  0  0  0
   26.5110  -10.6476  -16.4762 C   0  0  0  0  0  0  0  0  0  0  0  0
   25.9591  -11.4173  -17.4879 C   0  0  0  0  0  0  0  0  0  0  0  0
   22.6314   -8.4114  -17.6240 C   0  0  0  0  0  0  0  0  0  0  0  0
   21.7067   -8.1312  -18.4160 O   0  0  0  0  0  0  0  0  0  0  0  0
   23.1226   -7.4170  -16.7321 N   0  0  0  0  0  0  0  0  0  0  0  0
   22.5525   -6.0552  -16.7114 C   0  0  1  0  0  0  0  0  0  0  0  0
   22.5182   -5.5390  -15.3034 C   0  0  0  0  0  0  0  0  0  0  0  0
   21.5277   -6.2225  -14.4381 C   0  0  0  0  0  0  0  0  0  0  0  0
   21.4161   -5.6797  -13.0685 C   0  0  0  0  0  0  0  0  0  0  0  0
   22.2290   -4.7923  -12.6937 O   0  0  0  0  0  0  0  0  0  0  0  0
   23.3505   -5.1733  -17.6043 C   0  0  0  0  0  0  0  0  0  0  0  0
   24.5839   -5.2716  -17.7837 O   0  0  0  0  0  0  0  0  0  0  0  0
   20.4582   -6.1093  -12.1897 O   0  0  0  0  0  0  0  0  0  0  0  0
   22.6936   -4.1572  -18.3008 O   0  0  0  0  0  0  0  0  0  0  0  0
  2  1  1  1
  2  3  1  0
  3  4  1  0
  4  5  2  0
  4  8  1  0
  5  6  1  0
  6  7  1  0
  8  7  2  0
  9 10  2  0
  9  2  1  0
 11  9  1  0
 12 13  1  6
 12 11  1  0
 13 14  1  0
 14 22  1  0
 14 15  2  0
 15 16  1  0
 17 16  1  0
 17 18  2  0
 19 18  1  0
 20 19  2  0
 21 22  2  0
 21 20  1  0
 22 17  1  0
 23 12  1  0
 24 23  2  0
 25 23  1  0
 26 25  1  0
 27 28  1  0
 26 27  1  1
 28 29  1  0
 29 33  1  0
 29 30  2  0
 31 34  1  0
 31 26  1  0
 32 31  2  0
M  END
$$$$
