HWE.pdb
     RDKit          3D

 34 36  0  0  1  0  0  0  0  0999 V2000
   27.6366  -19.5432  -20.3626 N   0  0  0  0  0  0  0  0  0  0  0  0
   26.1728  -19.4605  -20.3485 C   0  0  1  0  0  0  0  0  0  0  0  0
   25.7049  -20.9182  -20.2414 C   0  0  0  0  0  0  0  0  0  0  0  0
   25.7032  -21.4369  -21.6410 C   0  0  0  0  0  0  0  0  0  0  0  0
   24.6853  -22.1124  -22.2502 C   0  0  0  0  0  0  0  0  0  0  0  0
   25.1018  -22.3932  -23.5030 N   0  0  0  0  0  0  0  0  0  0  0  0
   26.3278  -21.9254  -23.7013 C   0  0  0  0  0  0  0  0  0  0  0  0
   26.6923  -21.3344  -22.5418 N   0  0  0  0  0  0  0  0  0  0  0  0
   25.7098  -18.6769  -19.2032 C   0  0  0  0  0  0  0  0  0  0  0  0
   26.1562  -18.8940  -18.0610 O   0  0  0  0  0  0  0  0  0  0  0  0
   24.7573  -17.6712  -19.3787 N   0  0  0  0  0  0  0  0  0  0  0  0
   24.2347  -16.8363  -18.3140 C   0  0  1  0  0  0  0  0  0  0  0  0
   24.4979  -15.3897  -18.5227 C   0  0  0  0  0  0  0  0  0  0  0  0
   25.9130  -15.0978  -18.2049 C   0  0  0  0  0  0  0  0  0  0  0  0
   27.0038  -15.1740  -19.0451 C   0  0  0  0  0  0  0  0  0  0  0  0
   28.1197  -14.8376  -18.3735 N   0  0  0  0  0  0  0  0  0  0  0  0
   27.7732  -14.5393  -17.0938 C   0  0  0  0  0  0  0  0  0  0  0  0
   28.5363  -14.1421  -16.0157 C   0  0  0  0  0  0  0  0  0  0  0  0
   27.9075  -13.9028  -14.8080 C   0  0  0  0  0  0  0  0  0  0  0  0
   26.5414  -14.0569  -14.6781 C   0  0  0  0  0  0  0  0  0  0  0  0
   25.7924  -14.4525  -15.7575 C   0  0  0  0  0  0  0  0  0  0  0  0
   26.4049  -14.6971  -16.9764 C   0  0  0  0  0  0  0  0  0  0  0  0
   22.7935  -17.0758  -18.1768 C   0  0  0  0  0  0  0  0  0  0  0  0
   22.1096  -17.3746  -19.1788 O   0  0  0  0  0  0  0  0  0  0  0  0
   22.1692  -16.9691  -16.9023 N   0  0  0  0  0  0  0  0  0  0  0  0
   20.7385  -17.2849  -16.7194 C   0  0  1  0  0  0  0  0  0  0  0  0
   20.4782  -17.6586  -15.2902 C   0  0  0  0  0  0  0  0  0  0  0  0
   20.1874  -19.0981  -15.0903 C   0  0  0  0  0  0  0  0  0  0  0  0
   20.6974  -19.6678  -13.8260 C   0  0  0  0  0  0  0  0  0  0  0  0
   21.3976  -18.9448  -13.0673 O   0  0  0  0  0  0  0  0  0  0  0  0
   19.9184  -16.1192  -17.1443 C   0  0  0  0  0  0  0  0  0  0  0  0
   20.2673  -14.9242  -17.0283 O   0  0  0  0  0  0  0  0  0  0  0  0
   20.4355  -20.9578  -13.4495 O   0  0  0  0  0  0  0  0  0  0  0  0
   18.6667  -16.3555  -17.7156 O   0  0  0  0  0  0  0  0  0  0  0  0
  2  1  1  1
  2  3  1  0
  3  4  1  0
  4  5  2  0
  4  8  1  0
  5  6  1  0
  6  7  1  0
  8  7  2  0
  9 10  2  0
  9  2  1  0
 11  9  1  0
 12 13  1  6
 12 11  1  0
 13 14  1  0
 14 22  1  0
 14 15  2  0
 15 16  1  0
 17 16  1  0
 17 18  2  0
 19 18  1  0
 20 19  2  0
 21 22  2  0
 21 20  1  0
 22 17  1  0
 23 12  1  0
 24 23  2  0
 25 23  1  0
 26 25  1  0
 27 28  1  0
 26 27  1  1
 28 29  1  0
 29 33  1  0
 29 30  2  0
 31 34  1  0
 31 26  1  0
 32 31  2  0
M  END
$$$$
