HWE.pdb
     RDKit          3D

 34 36  0  0  1  0  0  0  0  0999 V2000
   27.4386  -20.8160  -15.8776 N   0  0  0  0  0  0  0  0  0  0  0  0
   26.4539  -20.0174  -15.1411 C   0  0  1  0  0  0  0  0  0  0  0  0
   25.5117  -19.4727  -16.2232 C   0  0  0  0  0  0  0  0  0  0  0  0
   26.2658  -18.3672  -16.8843 C   0  0  0  0  0  0  0  0  0  0  0  0
   26.1072  -17.0311  -16.6532 C   0  0  0  0  0  0  0  0  0  0  0  0
   26.9815  -16.3921  -17.4590 N   0  0  0  0  0  0  0  0  0  0  0  0
   27.6748  -17.2656  -18.1786 C   0  0  0  0  0  0  0  0  0  0  0  0
   27.2242  -18.4870  -17.8156 N   0  0  0  0  0  0  0  0  0  0  0  0
   25.7253  -20.8491  -14.1832 C   0  0  0  0  0  0  0  0  0  0  0  0
   25.3761  -22.0067  -14.4816 O   0  0  0  0  0  0  0  0  0  0  0  0
   25.4116  -20.3519  -12.9168 N   0  0  0  0  0  0  0  0  0  0  0  0
   24.6752  -21.0831  -11.9036 C   0  0  1  0  0  0  0  0  0  0  0  0
   25.0374  -20.6883  -10.5185 C   0  0  0  0  0  0  0  0  0  0  0  0
   26.4669  -20.9865  -10.2815 C   0  0  0  0  0  0  0  0  0  0  0  0
   27.3695  -21.5588  -11.1529 C   0  0  0  0  0  0  0  0  0  0  0  0
   28.5698  -21.6707  -10.5561 N   0  0  0  0  0  0  0  0  0  0  0  0
   28.4663  -21.1756   -9.2948 C   0  0  0  0  0  0  0  0  0  0  0  0
   29.3989  -21.0611   -8.2851 C   0  0  0  0  0  0  0  0  0  0  0  0
   29.0093  -20.5078   -7.0796 C   0  0  0  0  0  0  0  0  0  0  0  0
   27.7121  -20.0763   -6.8847 C   0  0  0  0  0  0  0  0  0  0  0  0
   26.7929  -20.1954   -7.8965 C   0  0  0  0  0  0  0  0  0  0  0  0
   27.1647  -20.7474   -9.1120 C   0  0  0  0  0  0  0  0  0  0  0  0
   23.2365  -20.8972  -12.1250 C   0  0  0  0  0  0  0  0  0  0  0  0
   22.6346  -19.9511  -11.5741 O   0  0  0  0  0  0  0  0  0  0  0  0
   22.5213  -21.7935  -12.9681 N   0  0  0  0  0  0  0  0  0  0  0  0
   21.0675  -21.6507  -13.1825 C   0  0  1  0  0  0  0  0  0  0  0  0
   20.7971  -21.2853  -14.6120 C   0  0  0  0  0  0  0  0  0  0  0  0
   21.2100  -19.9068  -14.9669 C   0  0  0  0  0  0  0  0  0  0  0  0
   20.2675  -18.8471  -14.5524 C   0  0  0  0  0  0  0  0  0  0  0  0
   20.6298  -17.6422  -14.6275 O   0  0  0  0  0  0  0  0  0  0  0  0
   20.3860  -22.9151  -12.7965 C   0  0  0  0  0  0  0  0  0  0  0  0
   20.9574  -24.0193  -12.6644 O   0  0  0  0  0  0  0  0  0  0  0  0
   19.0113  -19.1297  -14.0872 O   0  0  0  0  0  0  0  0  0  0  0  0
   19.0103  -22.8876  -12.5606 O   0  0  0  0  0  0  0  0  0  0  0  0
  2  1  1  6
  2  3  1  0
  3  4  1  0
  4  5  2  0
  4  8  1  0
  5  6  1  0
  6  7  1  0
  8  7  2  0
  9 10  2  0
  9  2  1  0
 11  9  1  0
 12 13  1  1
 12 11  1  0
 13 14  1  0
 14 22  1  0
 14 15  2  0
 15 16  1  0
 17 16  1  0
 17 18  2  0
 19 18  1  0
 20 19  2  0
 21 22  2  0
 21 20  1  0
 22 17  1  0
 23 12  1  0
 24 23  2  0
 25 23  1  0
 26 25  1  0
 27 28  1  0
 26 27  1  6
 28 29  1  0
 29 33  1  0
 29 30  2  0
 31 34  1  0
 31 26  1  0
 32 31  2  0
M  END
$$$$
