HWE.pdb
     RDKit          3D

 34 36  0  0  1  0  0  0  0  0999 V2000
   27.4900  -22.5485  -15.1916 N   0  0  0  0  0  0  0  0  0  0  0  0
   27.4284  -21.2676  -14.4808 C   0  0  1  0  0  0  0  0  0  0  0  0
   26.6388  -20.3437  -15.4180 C   0  0  0  0  0  0  0  0  0  0  0  0
   27.6025  -19.9471  -16.4866 C   0  0  0  0  0  0  0  0  0  0  0  0
   28.6735  -19.1135  -16.3388 C   0  0  0  0  0  0  0  0  0  0  0  0
   29.2683  -19.0288  -17.5475 N   0  0  0  0  0  0  0  0  0  0  0  0
   28.6194  -19.7686  -18.4380 C   0  0  0  0  0  0  0  0  0  0  0  0
   27.5885  -20.3339  -17.7713 N   0  0  0  0  0  0  0  0  0  0  0  0
   26.7432  -21.4204  -13.1974 C   0  0  0  0  0  0  0  0  0  0  0  0
   25.6055  -21.9239  -13.1390 O   0  0  0  0  0  0  0  0  0  0  0  0
   27.3601  -21.0014  -12.0170 N   0  0  0  0  0  0  0  0  0  0  0  0
   26.7302  -21.0081  -10.7106 C   0  0  1  0  0  0  0  0  0  0  0  0
   27.6700  -20.6862   -9.6067 C   0  0  0  0  0  0  0  0  0  0  0  0
   26.9338  -20.6746   -8.3235 C   0  0  0  0  0  0  0  0  0  0  0  0
   25.6336  -21.0691   -8.0883 C   0  0  0  0  0  0  0  0  0  0  0  0
   25.3332  -20.8949   -6.7887 N   0  0  0  0  0  0  0  0  0  0  0  0
   26.4275  -20.3874   -6.1629 C   0  0  0  0  0  0  0  0  0  0  0  0
   26.6384  -20.0344   -4.8463 C   0  0  0  0  0  0  0  0  0  0  0  0
   27.8743  -19.5338   -4.4817 C   0  0  0  0  0  0  0  0  0  0  0  0
   28.8823  -19.3878   -5.4141 C   0  0  0  0  0  0  0  0  0  0  0  0
   28.6611  -19.7422   -6.7211 C   0  0  0  0  0  0  0  0  0  0  0  0
   27.4286  -20.2459   -7.1056 C   0  0  0  0  0  0  0  0  0  0  0  0
   25.6063  -20.0646  -10.7124 C   0  0  0  0  0  0  0  0  0  0  0  0
   25.7772  -18.8870  -11.0932 O   0  0  0  0  0  0  0  0  0  0  0  0
   24.3176  -20.4870  -10.2809 N   0  0  0  0  0  0  0  0  0  0  0  0
   23.0876  -19.9479  -10.8946 C   0  0  1  0  0  0  0  0  0  0  0  0
   23.0542  -20.2915  -12.3544 C   0  0  0  0  0  0  0  0  0  0  0  0
   21.8412  -19.8091  -13.0563 C   0  0  0  0  0  0  0  0  0  0  0  0
   21.7673  -20.1629  -14.4889 C   0  0  0  0  0  0  0  0  0  0  0  0
   20.7691  -19.7881  -15.1612 O   0  0  0  0  0  0  0  0  0  0  0  0
   21.9019  -20.4827  -10.1735 C   0  0  0  0  0  0  0  0  0  0  0  0
   21.8592  -21.5931   -9.6005 O   0  0  0  0  0  0  0  0  0  0  0  0
   22.7478  -20.8866  -15.1129 O   0  0  0  0  0  0  0  0  0  0  0  0
   20.7443  -19.7041  -10.1215 O   0  0  0  0  0  0  0  0  0  0  0  0
  2  1  1  6
  2  3  1  0
  3  4  1  0
  4  5  2  0
  4  8  1  0
  5  6  1  0
  6  7  1  0
  8  7  2  0
  9 10  2  0
  9  2  1  0
 11  9  1  0
 12 13  1  1
 12 11  1  0
 13 14  1  0
 14 22  1  0
 14 15  2  0
 15 16  1  0
 17 16  1  0
 17 18  2  0
 19 18  1  0
 20 19  2  0
 21 22  2  0
 21 20  1  0
 22 17  1  0
 23 12  1  0
 24 23  2  0
 25 23  1  0
 26 25  1  0
 27 28  1  0
 26 27  1  6
 28 29  1  0
 29 33  1  0
 29 30  2  0
 31 34  1  0
 31 26  1  0
 32 31  2  0
M  END
$$$$
