HWE.pdb
     RDKit          3D

 34 36  0  0  1  0  0  0  0  0999 V2000
   28.4683  -20.8600  -15.4198 N   0  0  0  0  0  0  0  0  0  0  0  0
   28.0261  -20.1532  -14.2137 C   0  0  1  0  0  0  0  0  0  0  0  0
   27.3643  -18.8718  -14.7381 C   0  0  0  0  0  0  0  0  0  0  0  0
   28.4439  -18.1357  -15.4596 C   0  0  0  0  0  0  0  0  0  0  0  0
   29.7342  -18.5510  -15.6223 C   0  0  0  0  0  0  0  0  0  0  0  0
   30.3645  -17.5894  -16.3295 N   0  0  0  0  0  0  0  0  0  0  0  0
   29.5291  -16.5981  -16.6137 C   0  0  0  0  0  0  0  0  0  0  0  0
   28.3413  -16.9455  -16.0705 N   0  0  0  0  0  0  0  0  0  0  0  0
   27.0707  -20.9646  -13.4594 C   0  0  0  0  0  0  0  0  0  0  0  0
   26.2550  -21.6991  -14.0479 O   0  0  0  0  0  0  0  0  0  0  0  0
   27.0624  -20.9246  -12.0638 N   0  0  0  0  0  0  0  0  0  0  0  0
   26.1179  -21.6369  -11.2245 C   0  0  1  0  0  0  0  0  0  0  0  0
   26.6577  -21.9574   -9.8787 C   0  0  0  0  0  0  0  0  0  0  0  0
   26.7150  -20.7223   -9.0664 C   0  0  0  0  0  0  0  0  0  0  0  0
   25.9653  -19.5745   -9.2144 C   0  0  0  0  0  0  0  0  0  0  0  0
   26.3237  -18.6734   -8.2822 N   0  0  0  0  0  0  0  0  0  0  0  0
   27.3065  -19.2187   -7.5183 C   0  0  0  0  0  0  0  0  0  0  0  0
   28.0067  -18.7129   -6.4431 C   0  0  0  0  0  0  0  0  0  0  0  0
   28.9709  -19.5035   -5.8460 C   0  0  0  0  0  0  0  0  0  0  0  0
   29.2319  -20.7764   -6.3133 C   0  0  0  0  0  0  0  0  0  0  0  0
   28.5290  -21.2691   -7.3837 C   0  0  0  0  0  0  0  0  0  0  0  0
   27.5586  -20.4914   -7.9954 C   0  0  0  0  0  0  0  0  0  0  0  0
   24.8882  -20.8454  -11.1035 C   0  0  0  0  0  0  0  0  0  0  0  0
   24.9205  -19.7142  -10.5740 O   0  0  0  0  0  0  0  0  0  0  0  0
   23.6544  -21.3628  -11.5886 N   0  0  0  0  0  0  0  0  0  0  0  0
   22.4479  -20.5162  -11.6751 C   0  0  1  0  0  0  0  0  0  0  0  0
   22.3235  -19.9467  -13.0573 C   0  0  0  0  0  0  0  0  0  0  0  0
   21.0827  -20.3479  -13.7617 C   0  0  0  0  0  0  0  0  0  0  0  0
   20.3051  -19.2325  -14.3399 C   0  0  0  0  0  0  0  0  0  0  0  0
   20.9157  -18.2097  -14.7519 O   0  0  0  0  0  0  0  0  0  0  0  0
   21.2542  -21.3194  -11.2986 C   0  0  0  0  0  0  0  0  0  0  0  0
   21.1547  -22.5571  -11.4453 O   0  0  0  0  0  0  0  0  0  0  0  0
   18.9405  -19.2714  -14.4430 O   0  0  0  0  0  0  0  0  0  0  0  0
   20.1560  -20.6629  -10.7400 O   0  0  0  0  0  0  0  0  0  0  0  0
  2  1  1  6
  2  3  1  0
  3  4  1  0
  4  5  2  0
  4  8  1  0
  5  6  1  0
  6  7  1  0
  8  7  2  0
  9 10  2  0
  9  2  1  0
 11  9  1  0
 12 13  1  1
 12 11  1  0
 13 14  1  0
 14 22  1  0
 14 15  2  0
 15 16  1  0
 17 16  1  0
 17 18  2  0
 19 18  1  0
 20 19  2  0
 21 22  2  0
 21 20  1  0
 22 17  1  0
 23 12  1  0
 24 23  2  0
 25 23  1  0
 26 25  1  0
 27 28  1  0
 26 27  1  6
 28 29  1  0
 29 33  1  0
 29 30  2  0
 31 34  1  0
 31 26  1  0
 32 31  2  0
M  END
$$$$
