HWE.pdb
     RDKit          3D

 34 36  0  0  1  0  0  0  0  0999 V2000
   19.1113  -19.2399  -20.6640 N   0  0  0  0  0  0  0  0  0  0  0  0
   18.7710  -18.5741  -19.4027 C   0  0  1  0  0  0  0  0  0  0  0  0
   17.2468  -18.4033  -19.4555 C   0  0  0  0  0  0  0  0  0  0  0  0
   17.0099  -17.2452  -20.3669 C   0  0  0  0  0  0  0  0  0  0  0  0
   16.5303  -17.3078  -21.6436 C   0  0  0  0  0  0  0  0  0  0  0  0
   16.4737  -16.0383  -22.0988 N   0  0  0  0  0  0  0  0  0  0  0  0
   16.8944  -15.1912  -21.1678 C   0  0  0  0  0  0  0  0  0  0  0  0
   17.2245  -15.9483  -20.0981 N   0  0  0  0  0  0  0  0  0  0  0  0
   19.1660  -19.3976  -18.2599 C   0  0  0  0  0  0  0  0  0  0  0  0
   19.0348  -20.6357  -18.2916 O   0  0  0  0  0  0  0  0  0  0  0  0
   19.6976  -18.8017  -17.1146 N   0  0  0  0  0  0  0  0  0  0  0  0
   20.0105  -19.5086  -15.8874 C   0  0  1  0  0  0  0  0  0  0  0  0
   20.9736  -18.7806  -15.0226 C   0  0  0  0  0  0  0  0  0  0  0  0
   21.3174  -19.6218  -13.8552 C   0  0  0  0  0  0  0  0  0  0  0  0
   21.9734  -20.8347  -13.8478 C   0  0  0  0  0  0  0  0  0  0  0  0
   22.0845  -21.2842  -12.5849 N   0  0  0  0  0  0  0  0  0  0  0  0
   21.5057  -20.3754  -11.7567 C   0  0  0  0  0  0  0  0  0  0  0  0
   21.3550  -20.3631  -10.3858 C   0  0  0  0  0  0  0  0  0  0  0  0
   20.7121  -19.2902   -9.7970 C   0  0  0  0  0  0  0  0  0  0  0  0
   20.2279  -18.2479  -10.5624 C   0  0  0  0  0  0  0  0  0  0  0  0
   20.3835  -18.2709  -11.9255 C   0  0  0  0  0  0  0  0  0  0  0  0
   21.0254  -19.3380  -12.5338 C   0  0  0  0  0  0  0  0  0  0  0  0
   18.7678  -19.7731  -15.1531 C   0  0  0  0  0  0  0  0  0  0  0  0
   17.9326  -18.8592  -14.9848 O   0  0  0  0  0  0  0  0  0  0  0  0
   18.5088  -21.0712  -14.6303 N   0  0  0  0  0  0  0  0  0  0  0  0
   17.2921  -21.3529  -13.8427 C   0  0  1  0  0  0  0  0  0  0  0  0
   16.8127  -22.7456  -14.1270 C   0  0  0  0  0  0  0  0  0  0  0  0
   15.4890  -23.0562  -13.5370 C   0  0  0  0  0  0  0  0  0  0  0  0
   14.9549  -24.3924  -13.8717 C   0  0  0  0  0  0  0  0  0  0  0  0
   15.4880  -25.0480  -14.8069 O   0  0  0  0  0  0  0  0  0  0  0  0
   17.5828  -21.1523  -12.3980 C   0  0  0  0  0  0  0  0  0  0  0  0
   18.5751  -21.6227  -11.8003 O   0  0  0  0  0  0  0  0  0  0  0  0
   13.8974  -24.9443  -13.1997 O   0  0  0  0  0  0  0  0  0  0  0  0
   16.6963  -20.3872  -11.6380 O   0  0  0  0  0  0  0  0  0  0  0  0
  2  1  1  6
  2  3  1  0
  3  4  1  0
  4  5  2  0
  4  8  1  0
  5  6  1  0
  6  7  1  0
  8  7  2  0
  9 10  2  0
  9  2  1  0
 11  9  1  0
 12 13  1  1
 12 11  1  0
 13 14  1  0
 14 22  1  0
 14 15  2  0
 15 16  1  0
 17 16  1  0
 17 18  2  0
 19 18  1  0
 20 19  2  0
 21 22  2  0
 21 20  1  0
 22 17  1  0
 23 12  1  0
 24 23  2  0
 25 23  1  0
 26 25  1  0
 27 28  1  0
 26 27  1  1
 28 29  1  0
 29 33  1  0
 29 30  2  0
 31 34  1  0
 31 26  1  0
 32 31  2  0
M  END
$$$$
