HWE.pdb
     RDKit          3D

 34 36  0  0  1  0  0  0  0  0999 V2000
   27.5168  -21.5903  -13.8604 N   0  0  0  0  0  0  0  0  0  0  0  0
   26.9153  -20.4764  -13.1206 C   0  0  1  0  0  0  0  0  0  0  0  0
   26.0392  -19.7553  -14.1538 C   0  0  0  0  0  0  0  0  0  0  0  0
   26.9951  -19.0893  -15.0870 C   0  0  0  0  0  0  0  0  0  0  0  0
   27.2584  -19.4614  -16.3738 C   0  0  0  0  0  0  0  0  0  0  0  0
   28.1778  -18.5941  -16.8475 N   0  0  0  0  0  0  0  0  0  0  0  0
   28.4980  -17.7022  -15.9183 C   0  0  0  0  0  0  0  0  0  0  0  0
   27.7600  -18.0172  -14.8307 N   0  0  0  0  0  0  0  0  0  0  0  0
   26.1086  -20.9717  -12.0052 C   0  0  0  0  0  0  0  0  0  0  0  0
   25.5805  -22.0987  -12.0525 O   0  0  0  0  0  0  0  0  0  0  0  0
   25.9207  -20.1826  -10.8689 N   0  0  0  0  0  0  0  0  0  0  0  0
   25.0920  -20.5515   -9.7371 C   0  0  1  0  0  0  0  0  0  0  0  0
   25.5748  -19.9881   -8.4506 C   0  0  0  0  0  0  0  0  0  0  0  0
   26.9328  -20.5030   -8.1686 C   0  0  0  0  0  0  0  0  0  0  0  0
   27.7393  -21.2622   -8.9900 C   0  0  0  0  0  0  0  0  0  0  0  0
   28.8974  -21.5363   -8.3633 N   0  0  0  0  0  0  0  0  0  0  0  0
   28.8616  -20.9629   -7.1318 C   0  0  0  0  0  0  0  0  0  0  0  0
   29.7880  -20.9476   -6.1101 C   0  0  0  0  0  0  0  0  0  0  0  0
   29.4803  -20.2729   -4.9434 C   0  0  0  0  0  0  0  0  0  0  0  0
   28.2696  -19.6248   -4.7984 C   0  0  0  0  0  0  0  0  0  0  0  0
   27.3557  -19.6468   -5.8216 C   0  0  0  0  0  0  0  0  0  0  0  0
   27.6462  -20.3179   -6.9988 C   0  0  0  0  0  0  0  0  0  0  0  0
   23.7110  -20.1258   -9.9917 C   0  0  0  0  0  0  0  0  0  0  0  0
   23.4764  -18.9657  -10.3920 O   0  0  0  0  0  0  0  0  0  0  0  0
   22.6336  -21.0322   -9.7840 N   0  0  0  0  0  0  0  0  0  0  0  0
   21.2537  -20.6884  -10.1809 C   0  0  1  0  0  0  0  0  0  0  0  0
   21.1664  -20.5756  -11.6741 C   0  0  0  0  0  0  0  0  0  0  0  0
   21.4332  -21.8468  -12.3881 C   0  0  0  0  0  0  0  0  0  0  0  0
   20.9310  -21.8997  -13.7766 C   0  0  0  0  0  0  0  0  0  0  0  0
   20.2078  -20.9592  -14.2021 O   0  0  0  0  0  0  0  0  0  0  0  0
   20.3177  -21.7141   -9.6482 C   0  0  0  0  0  0  0  0  0  0  0  0
   20.6693  -22.7813   -9.0998 O   0  0  0  0  0  0  0  0  0  0  0  0
   21.2242  -22.9384  -14.6189 O   0  0  0  0  0  0  0  0  0  0  0  0
   18.9446  -21.4876   -9.7591 O   0  0  0  0  0  0  0  0  0  0  0  0
  2  1  1  6
  2  3  1  0
  3  4  1  0
  4  5  2  0
  4  8  1  0
  5  6  1  0
  6  7  1  0
  8  7  2  0
  9 10  2  0
  9  2  1  0
 11  9  1  0
 12 13  1  1
 12 11  1  0
 13 14  1  0
 14 22  1  0
 14 15  2  0
 15 16  1  0
 17 16  1  0
 17 18  2  0
 19 18  1  0
 20 19  2  0
 21 22  2  0
 21 20  1  0
 22 17  1  0
 23 12  1  0
 24 23  2  0
 25 23  1  0
 26 25  1  0
 27 28  1  0
 26 27  1  6
 28 29  1  0
 29 33  1  0
 29 30  2  0
 31 34  1  0
 31 26  1  0
 32 31  2  0
M  END
$$$$
