HWE.pdb
     RDKit          3D

 34 36  0  0  1  0  0  0  0  0999 V2000
   27.6207  -20.6337  -16.1812 N   0  0  0  0  0  0  0  0  0  0  0  0
   27.3671  -22.0433  -15.8673 C   0  0  1  0  0  0  0  0  0  0  0  0
   28.7633  -22.6610  -15.7111 C   0  0  0  0  0  0  0  0  0  0  0  0
   29.3845  -22.5822  -17.0661 C   0  0  0  0  0  0  0  0  0  0  0  0
   29.3018  -23.5269  -18.0481 C   0  0  0  0  0  0  0  0  0  0  0  0
   30.0038  -23.0549  -19.0999 N   0  0  0  0  0  0  0  0  0  0  0  0
   30.5180  -21.8640  -18.8191 C   0  0  0  0  0  0  0  0  0  0  0  0
   30.1288  -21.5794  -17.5565 N   0  0  0  0  0  0  0  0  0  0  0  0
   26.5986  -22.1674  -14.6287 C   0  0  0  0  0  0  0  0  0  0  0  0
   26.3443  -23.2872  -14.1467 O   0  0  0  0  0  0  0  0  0  0  0  0
   26.1391  -21.0257  -13.9693 N   0  0  0  0  0  0  0  0  0  0  0  0
   25.3617  -21.0379  -12.7448 C   0  0  1  0  0  0  0  0  0  0  0  0
   25.8499  -20.0670  -11.7327 C   0  0  0  0  0  0  0  0  0  0  0  0
   26.9981  -20.6519  -11.0058 C   0  0  0  0  0  0  0  0  0  0  0  0
   28.1071  -21.2775  -11.5351 C   0  0  0  0  0  0  0  0  0  0  0  0
   28.9201  -21.6796  -10.5419 N   0  0  0  0  0  0  0  0  0  0  0  0
   28.3551  -21.3236   -9.3583 C   0  0  0  0  0  0  0  0  0  0  0  0
   28.7808  -21.5028   -8.0587 C   0  0  0  0  0  0  0  0  0  0  0  0
   27.9894  -21.0302   -7.0285 C   0  0  0  0  0  0  0  0  0  0  0  0
   26.7942  -20.3900   -7.2900 C   0  0  0  0  0  0  0  0  0  0  0  0
   26.3807  -20.2174   -8.5870 C   0  0  0  0  0  0  0  0  0  0  0  0
   27.1606  -20.6844   -9.6331 C   0  0  0  0  0  0  0  0  0  0  0  0
   23.9542  -20.7738  -13.0647 C   0  0  0  0  0  0  0  0  0  0  0  0
   23.6533  -19.8588  -13.8605 O   0  0  0  0  0  0  0  0  0  0  0  0
   22.9265  -21.5586  -12.4702 N   0  0  0  0  0  0  0  0  0  0  0  0
   21.5031  -21.3262  -12.7861 C   0  0  1  0  0  0  0  0  0  0  0  0
   20.6767  -22.4742  -12.2867 C   0  0  0  0  0  0  0  0  0  0  0  0
   19.2453  -22.3904  -12.6619 C   0  0  0  0  0  0  0  0  0  0  0  0
   18.4178  -23.5337  -12.2246 C   0  0  0  0  0  0  0  0  0  0  0  0
   17.6742  -23.4006  -11.2157 O   0  0  0  0  0  0  0  0  0  0  0  0
   21.0709  -20.0336  -12.1910 C   0  0  0  0  0  0  0  0  0  0  0  0
   21.5374  -19.5435  -11.1396 O   0  0  0  0  0  0  0  0  0  0  0  0
   18.4318  -24.7363  -12.8788 O   0  0  0  0  0  0  0  0  0  0  0  0
   20.0743  -19.3003  -12.8376 O   0  0  0  0  0  0  0  0  0  0  0  0
  2  1  1  1
  2  3  1  0
  3  4  1  0
  4  5  2  0
  4  8  1  0
  5  6  1  0
  6  7  1  0
  8  7  2  0
  9 10  2  0
  9  2  1  0
 11  9  1  0
 12 13  1  1
 12 11  1  0
 13 14  1  0
 14 22  1  0
 14 15  2  0
 15 16  1  0
 17 16  1  0
 17 18  2  0
 19 18  1  0
 20 19  2  0
 21 22  2  0
 21 20  1  0
 22 17  1  0
 23 12  1  0
 24 23  2  0
 25 23  1  0
 26 25  1  0
 27 28  1  0
 26 27  1  1
 28 29  1  0
 29 33  1  0
 29 30  2  0
 31 34  1  0
 31 26  1  0
 32 31  2  0
M  END
$$$$
