HWE.pdb
     RDKit          3D

 34 36  0  0  1  0  0  0  0  0999 V2000
   38.0826  -23.2273    5.1466 N   0  0  0  0  0  0  0  0  0  0  0  0
   36.9755  -24.1166    5.5118 C   0  0  1  0  0  0  0  0  0  0  0  0
   37.6541  -25.4350    5.9075 C   0  0  0  0  0  0  0  0  0  0  0  0
   37.4750  -26.3398    4.7340 C   0  0  0  0  0  0  0  0  0  0  0  0
   38.1619  -26.2792    3.5558 C   0  0  0  0  0  0  0  0  0  0  0  0
   37.6869  -27.2753    2.7786 N   0  0  0  0  0  0  0  0  0  0  0  0
   36.7391  -27.9510    3.4162 C   0  0  0  0  0  0  0  0  0  0  0  0
   36.6148  -27.3640    4.6272 N   0  0  0  0  0  0  0  0  0  0  0  0
   36.2149  -23.5628    6.6319 C   0  0  0  0  0  0  0  0  0  0  0  0
   36.7793  -22.8868    7.5126 O   0  0  0  0  0  0  0  0  0  0  0  0
   34.8400  -23.7869    6.7270 N   0  0  0  0  0  0  0  0  0  0  0  0
   34.0063  -23.3404    7.8266 C   0  0  1  0  0  0  0  0  0  0  0  0
   32.7633  -22.6616    7.3798 C   0  0  0  0  0  0  0  0  0  0  0  0
   33.0913  -21.2980    6.9088 C   0  0  0  0  0  0  0  0  0  0  0  0
   33.5586  -20.2340    7.6511 C   0  0  0  0  0  0  0  0  0  0  0  0
   33.7246  -19.1622    6.8556 N   0  0  0  0  0  0  0  0  0  0  0  0
   33.3698  -19.5112    5.5910 C   0  0  0  0  0  0  0  0  0  0  0  0
   33.3569  -18.7849    4.4186 C   0  0  0  0  0  0  0  0  0  0  0  0
   32.9398  -19.4061    3.2561 C   0  0  0  0  0  0  0  0  0  0  0  0
   32.5426  -20.7285    3.2630 C   0  0  0  0  0  0  0  0  0  0  0  0
   32.5596  -21.4412    4.4355 C   0  0  0  0  0  0  0  0  0  0  0  0
   32.9745  -20.8357    5.6109 C   0  0  0  0  0  0  0  0  0  0  0  0
   33.6795  -24.4880    8.6808 C   0  0  0  0  0  0  0  0  0  0  0  0
   33.8301  -25.6517    8.2516 O   0  0  0  0  0  0  0  0  0  0  0  0
   33.1903  -24.2802   10.0009 N   0  0  0  0  0  0  0  0  0  0  0  0
   32.8539  -25.4158   10.8826 C   0  0  1  0  0  0  0  0  0  0  0  0
   33.0955  -25.0380   12.3141 C   0  0  0  0  0  0  0  0  0  0  0  0
   32.7655  -26.1114   13.2813 C   0  0  0  0  0  0  0  0  0  0  0  0
   33.0475  -25.7859   14.6946 C   0  0  0  0  0  0  0  0  0  0  0  0
   33.6200  -24.6971   14.9695 O   0  0  0  0  0  0  0  0  0  0  0  0
   31.4420  -25.8202   10.6482 C   0  0  0  0  0  0  0  0  0  0  0  0
   30.5709  -25.0913   10.1256 O   0  0  0  0  0  0  0  0  0  0  0  0
   32.7084  -26.6288   15.7188 O   0  0  0  0  0  0  0  0  0  0  0  0
   31.0413  -27.1012   11.0323 O   0  0  0  0  0  0  0  0  0  0  0  0
  2  1  1  1
  2  3  1  0
  3  4  1  0
  4  5  2  0
  4  8  1  0
  5  6  1  0
  6  7  1  0
  8  7  2  0
  9 10  2  0
  9  2  1  0
 11  9  1  0
 12 13  1  6
 12 11  1  0
 13 14  1  0
 14 22  1  0
 14 15  2  0
 15 16  1  0
 17 16  1  0
 17 18  2  0
 19 18  1  0
 20 19  2  0
 21 22  2  0
 21 20  1  0
 22 17  1  0
 23 12  1  0
 24 23  2  0
 25 23  1  0
 26 25  1  0
 27 28  1  0
 26 27  1  1
 28 29  1  0
 29 33  1  0
 29 30  2  0
 31 34  1  0
 31 26  1  0
 32 31  2  0
M  END
$$$$
