HWE.pdb
     RDKit          3D

 34 36  0  0  1  0  0  0  0  0999 V2000
   34.8398  -32.6836  -15.7643 N   0  0  0  0  0  0  0  0  0  0  0  0
   33.7534  -33.2343  -16.5806 C   0  0  1  0  0  0  0  0  0  0  0  0
   33.0042  -34.1838  -15.6360 C   0  0  0  0  0  0  0  0  0  0  0  0
   33.8529  -35.4088  -15.5516 C   0  0  0  0  0  0  0  0  0  0  0  0
   34.4878  -35.8756  -14.4368 C   0  0  0  0  0  0  0  0  0  0  0  0
   35.1395  -36.9991  -14.8039 N   0  0  0  0  0  0  0  0  0  0  0  0
   34.9405  -37.2526  -16.0914 C   0  0  0  0  0  0  0  0  0  0  0  0
   34.1419  -36.2617  -16.5462 N   0  0  0  0  0  0  0  0  0  0  0  0
   32.8727  -32.1680  -17.0574 C   0  0  0  0  0  0  0  0  0  0  0  0
   32.5399  -31.2330  -16.3051 O   0  0  0  0  0  0  0  0  0  0  0  0
   32.3928  -32.1864  -18.3684 N   0  0  0  0  0  0  0  0  0  0  0  0
   31.5242  -31.1765  -18.9424 C   0  0  1  0  0  0  0  0  0  0  0  0
   31.8796  -30.8260  -20.3411 C   0  0  0  0  0  0  0  0  0  0  0  0
   33.1893  -30.1380  -20.3566 C   0  0  0  0  0  0  0  0  0  0  0  0
   34.4266  -30.6631  -20.0487 C   0  0  0  0  0  0  0  0  0  0  0  0
   35.3688  -29.7114  -20.1747 N   0  0  0  0  0  0  0  0  0  0  0  0
   34.7617  -28.5597  -20.5642 C   0  0  0  0  0  0  0  0  0  0  0  0
   35.2752  -27.3071  -20.8282 C   0  0  0  0  0  0  0  0  0  0  0  0
   34.4090  -26.3010  -21.2136 C   0  0  0  0  0  0  0  0  0  0  0  0
   33.0543  -26.5402  -21.3336 C   0  0  0  0  0  0  0  0  0  0  0  0
   32.5548  -27.7904  -21.0684 C   0  0  0  0  0  0  0  0  0  0  0  0
   33.4076  -28.8117  -20.6807 C   0  0  0  0  0  0  0  0  0  0  0  0
   30.1338  -31.6402  -18.8725 C   0  0  0  0  0  0  0  0  0  0  0  0
   29.8784  -32.8628  -18.9059 O   0  0  0  0  0  0  0  0  0  0  0  0
   29.0710  -30.6997  -18.7662 N   0  0  0  0  0  0  0  0  0  0  0  0
   27.7027  -31.1245  -18.4093 C   0  0  1  0  0  0  0  0  0  0  0  0
   27.7207  -31.8480  -17.0954 C   0  0  0  0  0  0  0  0  0  0  0  0
   26.3738  -32.1963  -16.5842 C   0  0  0  0  0  0  0  0  0  0  0  0
   26.3553  -32.8017  -15.2366 C   0  0  0  0  0  0  0  0  0  0  0  0
   26.6242  -34.0268  -15.1123 O   0  0  0  0  0  0  0  0  0  0  0  0
   26.8110  -29.9347  -18.3731 C   0  0  0  0  0  0  0  0  0  0  0  0
   27.2065  -28.7488  -18.3935 O   0  0  0  0  0  0  0  0  0  0  0  0
   26.0545  -32.0761  -14.1152 O   0  0  0  0  0  0  0  0  0  0  0  0
   25.4309  -30.1356  -18.3120 O   0  0  0  0  0  0  0  0  0  0  0  0
  2  1  1  1
  2  3  1  0
  3  4  1  0
  4  5  2  0
  4  8  1  0
  5  6  1  0
  6  7  1  0
  8  7  2  0
  9 10  2  0
  9  2  1  0
 11  9  1  0
 12 13  1  6
 12 11  1  0
 13 14  1  0
 14 22  1  0
 14 15  2  0
 15 16  1  0
 17 16  1  0
 17 18  2  0
 19 18  1  0
 20 19  2  0
 21 22  2  0
 21 20  1  0
 22 17  1  0
 23 12  1  0
 24 23  2  0
 25 23  1  0
 26 25  1  0
 27 28  1  0
 26 27  1  1
 28 29  1  0
 29 33  1  0
 29 30  2  0
 31 34  1  0
 31 26  1  0
 32 31  2  0
M  END
$$$$
