NWC.pdb
     RDKit          3D

 29 30  0  0  1  0  0  0  0  0999 V2000
   29.1291  -21.7643  -17.6146 N   0  0  0  0  0  0  0  0  0  0  0  0
   28.2901  -20.6830  -17.2729 C   0  0  0  0  0  0  0  0  0  0  0  0
   27.9401  -19.8817  -18.1995 O   0  0  0  0  0  0  0  0  0  0  0  0
   27.8521  -20.5185  -15.8687 C   0  0  0  0  0  0  0  0  0  0  0  0
   28.4815  -21.6580  -15.0852 C   0  0  2  0  0  0  0  0  0  0  0  0
   28.5320  -22.8673  -15.8709 N   0  0  0  0  0  0  0  0  0  0  0  0
   27.5645  -21.9200  -13.9235 C   0  0  0  0  0  0  0  0  0  0  0  0
   26.4876  -22.4433  -14.2063 O   0  0  0  0  0  0  0  0  0  0  0  0
   27.9206  -21.5926  -12.6349 N   0  0  0  0  0  0  0  0  0  0  0  0
   27.1671  -21.0767  -11.5544 C   0  0  1  0  0  0  0  0  0  0  0  0
   27.7984  -20.1388  -10.5839 C   0  0  0  0  0  0  0  0  0  0  0  0
   27.0171  -20.0071   -9.3340 C   0  0  0  0  0  0  0  0  0  0  0  0
   25.6846  -19.7531   -9.1348 C   0  0  0  0  0  0  0  0  0  0  0  0
   25.4493  -19.6838   -7.8295 N   0  0  0  0  0  0  0  0  0  0  0  0
   26.5890  -19.8848   -7.1307 C   0  0  0  0  0  0  0  0  0  0  0  0
   26.9040  -19.9152   -5.8036 C   0  0  0  0  0  0  0  0  0  0  0  0
   28.1811  -20.1432   -5.3637 C   0  0  0  0  0  0  0  0  0  0  0  0
   29.1772  -20.3476   -6.2842 C   0  0  0  0  0  0  0  0  0  0  0  0
   28.8914  -20.3235   -7.6291 C   0  0  0  0  0  0  0  0  0  0  0  0
   27.5807  -20.0892   -8.0606 C   0  0  0  0  0  0  0  0  0  0  0  0
   25.7950  -20.7218  -11.9647 C   0  0  0  0  0  0  0  0  0  0  0  0
   25.6330  -19.6916  -12.6695 O   0  0  0  0  0  0  0  0  0  0  0  0
   24.6537  -21.4833  -11.6042 N   0  0  0  0  0  0  0  0  0  0  0  0
   23.3475  -21.1140  -12.1206 C   0  0  1  0  0  0  0  0  0  0  0  0
   22.3624  -22.2642  -11.9182 C   0  0  0  0  0  0  0  0  0  0  0  0
   21.6211  -22.2058  -10.2652 S   0  0  0  0  0  0  0  0  0  0  0  0
   22.8671  -19.8400  -11.5628 C   0  0  0  0  0  0  0  0  0  0  0  0
   21.9543  -19.1726  -12.1073 O   0  0  0  0  0  0  0  0  0  0  0  0
   23.3998  -19.2858  -10.3816 O   0  0  0  0  0  0  0  0  0  0  0  0
  1  2  1  0
  2  3  2  0
  4  5  1  0
  4  2  1  0
  5  6  1  6
  7  8  2  0
  7  5  1  0
  9  7  1  0
 10  9  1  0
 10 11  1  6
 11 12  1  0
 12 13  2  0
 12 20  1  0
 13 14  1  0
 14 15  1  0
 15 16  2  0
 16 17  1  0
 18 17  2  0
 19 18  1  0
 20 19  2  0
 20 15  1  0
 21 22  2  0
 21 10  1  0
 23 21  1  0
 24 25  1  1
 24 23  1  0
 25 26  1  0
 27 24  1  0
 28 27  2  0
 29 27  1  0
M  END
$$$$
