NWC.pdb
     RDKit          3D

 29 30  0  0  1  0  0  0  0  0999 V2000
   29.6959  -21.6524  -17.0281 N   0  0  0  0  0  0  0  0  0  0  0  0
   28.6792  -20.6803  -16.9217 C   0  0  0  0  0  0  0  0  0  0  0  0
   28.6744  -19.7254  -17.7651 O   0  0  0  0  0  0  0  0  0  0  0  0
   27.6677  -20.8012  -15.8481 C   0  0  0  0  0  0  0  0  0  0  0  0
   28.1153  -21.9517  -14.9625 C   0  0  2  0  0  0  0  0  0  0  0  0
   27.8101  -23.2260  -15.5668 N   0  0  0  0  0  0  0  0  0  0  0  0
   27.2999  -21.8492  -13.7040 C   0  0  0  0  0  0  0  0  0  0  0  0
   26.1293  -22.2152  -13.8002 O   0  0  0  0  0  0  0  0  0  0  0  0
   27.8411  -21.3772  -12.5298 N   0  0  0  0  0  0  0  0  0  0  0  0
   27.2652  -21.1354  -11.2605 C   0  0  1  0  0  0  0  0  0  0  0  0
   28.1355  -20.8166  -10.0938 C   0  0  0  0  0  0  0  0  0  0  0  0
   27.3564  -20.5175   -8.8716 C   0  0  0  0  0  0  0  0  0  0  0  0
   26.0021  -20.4667   -8.6644 C   0  0  0  0  0  0  0  0  0  0  0  0
   25.7716  -20.1142   -7.4048 N   0  0  0  0  0  0  0  0  0  0  0  0
   26.9359  -19.9230   -6.7451 C   0  0  0  0  0  0  0  0  0  0  0  0
   27.2649  -19.5603   -5.4716 C   0  0  0  0  0  0  0  0  0  0  0  0
   28.5666  -19.4351   -5.0636 C   0  0  0  0  0  0  0  0  0  0  0  0
   29.5737  -19.6815   -5.9616 C   0  0  0  0  0  0  0  0  0  0  0  0
   29.2744  -20.0494   -7.2524 C   0  0  0  0  0  0  0  0  0  0  0  0
   27.9387  -20.1724   -7.6518 C   0  0  0  0  0  0  0  0  0  0  0  0
   26.0358  -20.3262  -11.3630 C   0  0  0  0  0  0  0  0  0  0  0  0
   26.1496  -19.0730  -11.3924 O   0  0  0  0  0  0  0  0  0  0  0  0
   24.7360  -20.8908  -11.4297 N   0  0  0  0  0  0  0  0  0  0  0  0
   23.5881  -20.0332  -11.6662 C   0  0  1  0  0  0  0  0  0  0  0  0
   23.8274  -19.1714  -12.9049 C   0  0  0  0  0  0  0  0  0  0  0  0
   23.7497  -20.1666  -14.4178 S   0  0  0  0  0  0  0  0  0  0  0  0
   22.3287  -20.7914  -11.7272 C   0  0  0  0  0  0  0  0  0  0  0  0
   21.2069  -20.2286  -11.7111 O   0  0  0  0  0  0  0  0  0  0  0  0
   22.2988  -22.1981  -11.8076 O   0  0  0  0  0  0  0  0  0  0  0  0
  1  2  1  0
  2  3  2  0
  4  5  1  0
  4  2  1  0
  5  6  1  6
  7  8  2  0
  7  5  1  0
  9  7  1  0
 10  9  1  0
 10 11  1  1
 11 12  1  0
 12 13  2  0
 12 20  1  0
 13 14  1  0
 14 15  1  0
 15 16  2  0
 16 17  1  0
 18 17  2  0
 19 18  1  0
 20 19  2  0
 20 15  1  0
 21 22  2  0
 21 10  1  0
 23 21  1  0
 24 25  1  6
 24 23  1  0
 25 26  1  0
 27 24  1  0
 28 27  2  0
 29 27  1  0
M  END
$$$$
