NWC.pdb
     RDKit          3D

 29 30  0  0  1  0  0  0  0  0999 V2000
   19.9195  -15.4877  -16.5408 N   0  0  0  0  0  0  0  0  0  0  0  0
   19.9106  -14.1153  -16.8670 C   0  0  0  0  0  0  0  0  0  0  0  0
   18.8789  -13.6457  -17.4485 O   0  0  0  0  0  0  0  0  0  0  0  0
   21.0845  -13.2801  -16.5279 C   0  0  0  0  0  0  0  0  0  0  0  0
   20.6875  -11.8423  -16.8164 C   0  0  2  0  0  0  0  0  0  0  0  0
   20.6667  -11.5804  -18.2353 N   0  0  0  0  0  0  0  0  0  0  0  0
   21.7693  -10.9850  -16.2214 C   0  0  0  0  0  0  0  0  0  0  0  0
   21.9795  -11.1548  -15.0212 O   0  0  0  0  0  0  0  0  0  0  0  0
   22.4703  -10.0767  -16.9816 N   0  0  0  0  0  0  0  0  0  0  0  0
   23.4837   -9.1502  -16.6408 C   0  0  1  0  0  0  0  0  0  0  0  0
   24.8078   -9.2074  -17.3218 C   0  0  0  0  0  0  0  0  0  0  0  0
   25.3234  -10.5893  -17.4414 C   0  0  0  0  0  0  0  0  0  0  0  0
   25.0753  -11.5586  -18.3788 C   0  0  0  0  0  0  0  0  0  0  0  0
   25.7370  -12.6607  -18.0450 N   0  0  0  0  0  0  0  0  0  0  0  0
   26.4324  -12.4686  -16.9018 C   0  0  0  0  0  0  0  0  0  0  0  0
   27.2519  -13.2481  -16.1387 C   0  0  0  0  0  0  0  0  0  0  0  0
   27.8375  -12.7830  -14.9909 C   0  0  0  0  0  0  0  0  0  0  0  0
   27.5941  -11.4929  -14.5934 C   0  0  0  0  0  0  0  0  0  0  0  0
   26.7730  -10.6822  -15.3414 C   0  0  0  0  0  0  0  0  0  0  0  0
   26.1832  -11.1742  -16.5114 C   0  0  0  0  0  0  0  0  0  0  0  0
   22.9400   -7.7928  -16.4439 C   0  0  0  0  0  0  0  0  0  0  0  0
   22.5672   -7.1488  -17.4590 O   0  0  0  0  0  0  0  0  0  0  0  0
   22.8179   -7.1809  -15.1699 N   0  0  0  0  0  0  0  0  0  0  0  0
   22.2424   -5.8520  -15.0600 C   0  0  1  0  0  0  0  0  0  0  0  0
   20.8101   -5.8584  -15.5919 C   0  0  0  0  0  0  0  0  0  0  0  0
   19.9609   -4.3060  -15.1993 S   0  0  0  0  0  0  0  0  0  0  0  0
   22.3473   -5.3099  -13.6962 C   0  0  0  0  0  0  0  0  0  0  0  0
   22.3469   -6.0475  -12.6807 O   0  0  0  0  0  0  0  0  0  0  0  0
   22.4550   -3.9282  -13.4405 O   0  0  0  0  0  0  0  0  0  0  0  0
  1  2  1  0
  2  3  2  0
  4  5  1  0
  4  2  1  0
  5  6  1  6
  7  8  2  0
  7  5  1  0
  9  7  1  0
 10  9  1  0
 10 11  1  6
 11 12  1  0
 12 13  2  0
 12 20  1  0
 13 14  1  0
 14 15  1  0
 15 16  2  0
 16 17  1  0
 18 17  2  0
 19 18  1  0
 20 19  2  0
 20 15  1  0
 21 22  2  0
 21 10  1  0
 23 21  1  0
 24 25  1  1
 24 23  1  0
 25 26  1  0
 27 24  1  0
 28 27  2  0
 29 27  1  0
M  END
$$$$
