NWC.pdb
     RDKit          3D

 29 30  0  0  1  0  0  0  0  0999 V2000
   31.2860   -6.4739  -19.4153 N   0  0  0  0  0  0  0  0  0  0  0  0
   30.3593   -5.4165  -19.5305 C   0  0  0  0  0  0  0  0  0  0  0  0
   30.7959   -4.2245  -19.4226 O   0  0  0  0  0  0  0  0  0  0  0  0
   28.9313   -5.7244  -19.7684 C   0  0  0  0  0  0  0  0  0  0  0  0
   28.8228   -7.2383  -19.8360 C   0  0  2  0  0  0  0  0  0  0  0  0
   29.1014   -7.7234  -21.1661 N   0  0  0  0  0  0  0  0  0  0  0  0
   27.3873   -7.5660  -19.5343 C   0  0  0  0  0  0  0  0  0  0  0  0
   26.5729   -7.2108  -20.3852 O   0  0  0  0  0  0  0  0  0  0  0  0
   27.0240   -8.2218  -18.3800 N   0  0  0  0  0  0  0  0  0  0  0  0
   25.7825   -8.7447  -17.9478 C   0  0  1  0  0  0  0  0  0  0  0  0
   25.5748  -10.2188  -17.8832 C   0  0  0  0  0  0  0  0  0  0  0  0
   26.5689  -10.8930  -17.0188 C   0  0  0  0  0  0  0  0  0  0  0  0
   27.8327  -10.5145  -16.6459 C   0  0  0  0  0  0  0  0  0  0  0  0
   28.3631  -11.4687  -15.8894 N   0  0  0  0  0  0  0  0  0  0  0  0
   27.4921  -12.4910  -15.7355 C   0  0  0  0  0  0  0  0  0  0  0  0
   27.5273  -13.6864  -15.0789 C   0  0  0  0  0  0  0  0  0  0  0  0
   26.4703  -14.5577  -15.0958 C   0  0  0  0  0  0  0  0  0  0  0  0
   25.3391  -14.2204  -15.7944 C   0  0  0  0  0  0  0  0  0  0  0  0
   25.2727  -13.0224  -16.4661 C   0  0  0  0  0  0  0  0  0  0  0  0
   26.3623  -12.1444  -16.4378 C   0  0  0  0  0  0  0  0  0  0  0  0
   25.2371   -7.9858  -16.8062 C   0  0  0  0  0  0  0  0  0  0  0  0
   26.0366   -7.5937  -15.9166 O   0  0  0  0  0  0  0  0  0  0  0  0
   23.8596   -7.6781  -16.6635 N   0  0  0  0  0  0  0  0  0  0  0  0
   23.3988   -6.9600  -15.4882 C   0  0  1  0  0  0  0  0  0  0  0  0
   23.1381   -5.4963  -15.8404 C   0  0  0  0  0  0  0  0  0  0  0  0
   22.4604   -4.5941  -14.4219 S   0  0  0  0  0  0  0  0  0  0  0  0
   22.2439   -7.6134  -14.8526 C   0  0  0  0  0  0  0  0  0  0  0  0
   21.4379   -8.3255  -15.4995 O   0  0  0  0  0  0  0  0  0  0  0  0
   21.9669   -7.4829  -13.4770 O   0  0  0  0  0  0  0  0  0  0  0  0
  1  2  1  0
  2  3  2  0
  4  5  1  0
  4  2  1  0
  5  6  1  6
  7  8  2  0
  7  5  1  0
  9  7  1  0
 10  9  1  0
 10 11  1  1
 11 12  1  0
 12 13  2  0
 12 20  1  0
 13 14  1  0
 14 15  1  0
 15 16  2  0
 16 17  1  0
 18 17  2  0
 19 18  1  0
 20 19  2  0
 20 15  1  0
 21 22  2  0
 21 10  1  0
 23 21  1  0
 24 25  1  6
 24 23  1  0
 25 26  1  0
 27 24  1  0
 28 27  2  0
 29 27  1  0
M  END
$$$$
