NWC.pdb
     RDKit          3D

 29 30  0  0  1  0  0  0  0  0999 V2000
   28.7251  -20.9423  -17.3980 N   0  0  0  0  0  0  0  0  0  0  0  0
   28.9574  -22.1459  -16.6998 C   0  0  0  0  0  0  0  0  0  0  0  0
   29.7944  -22.9707  -17.1921 O   0  0  0  0  0  0  0  0  0  0  0  0
   28.2301  -22.4057  -15.4372 C   0  0  0  0  0  0  0  0  0  0  0  0
   27.3901  -21.1699  -15.1623 C   0  0  2  0  0  0  0  0  0  0  0  0
   28.2117  -20.0647  -14.7312 N   0  0  0  0  0  0  0  0  0  0  0  0
   26.4876  -21.5277  -14.0148 C   0  0  0  0  0  0  0  0  0  0  0  0
   25.9268  -22.6192  -14.1025 O   0  0  0  0  0  0  0  0  0  0  0  0
   26.3120  -20.6813  -12.9437 N   0  0  0  0  0  0  0  0  0  0  0  0
   25.4181  -20.7258  -11.8480 C   0  0  1  0  0  0  0  0  0  0  0  0
   25.7917  -20.0904  -10.5530 C   0  0  0  0  0  0  0  0  0  0  0  0
   27.1312  -20.5085  -10.0832 C   0  0  0  0  0  0  0  0  0  0  0  0
   28.0684  -21.3237  -10.6635 C   0  0  0  0  0  0  0  0  0  0  0  0
   29.1064  -21.4396   -9.8431 N   0  0  0  0  0  0  0  0  0  0  0  0
   28.9020  -20.7228   -8.7153 C   0  0  0  0  0  0  0  0  0  0  0  0
   29.6235  -20.5025   -7.5784 C   0  0  0  0  0  0  0  0  0  0  0  0
   29.1576  -19.7103   -6.5627 C   0  0  0  0  0  0  0  0  0  0  0  0
   27.9269  -19.1181   -6.6895 C   0  0  0  0  0  0  0  0  0  0  0  0
   27.1758  -19.3204   -7.8235 C   0  0  0  0  0  0  0  0  0  0  0  0
   27.6677  -20.1330   -8.8513 C   0  0  0  0  0  0  0  0  0  0  0  0
   24.0220  -20.5072  -12.2720 C   0  0  0  0  0  0  0  0  0  0  0  0
   23.6846  -19.3495  -12.6329 O   0  0  0  0  0  0  0  0  0  0  0  0
   23.0449  -21.5355  -12.2921 N   0  0  0  0  0  0  0  0  0  0  0  0
   21.7255  -21.2665  -12.8360 C   0  0  1  0  0  0  0  0  0  0  0  0
   21.4472  -22.1984  -14.0143 C   0  0  0  0  0  0  0  0  0  0  0  0
   22.3675  -23.7512  -13.8504 S   0  0  0  0  0  0  0  0  0  0  0  0
   20.6770  -21.3138  -11.8048 C   0  0  0  0  0  0  0  0  0  0  0  0
   20.9032  -21.7172  -10.6380 O   0  0  0  0  0  0  0  0  0  0  0  0
   19.3509  -20.9099  -12.0590 O   0  0  0  0  0  0  0  0  0  0  0  0
  1  2  1  0
  2  3  2  0
  4  5  1  0
  4  2  1  0
  5  6  1  1
  7  8  2  0
  7  5  1  0
  9  7  1  0
 10  9  1  0
 10 11  1  1
 11 12  1  0
 12 13  2  0
 12 20  1  0
 13 14  1  0
 14 15  1  0
 15 16  2  0
 16 17  1  0
 18 17  2  0
 19 18  1  0
 20 19  2  0
 20 15  1  0
 21 22  2  0
 21 10  1  0
 23 21  1  0
 24 25  1  6
 24 23  1  0
 25 26  1  0
 27 24  1  0
 28 27  2  0
 29 27  1  0
M  END
$$$$
