NWC.pdb
     RDKit          3D

 29 30  0  0  1  0  0  0  0  0999 V2000
   29.8023  -23.3366  -16.5441 N   0  0  0  0  0  0  0  0  0  0  0  0
   28.7101  -22.4494  -16.4437 C   0  0  0  0  0  0  0  0  0  0  0  0
   28.6494  -21.4801  -17.2683 O   0  0  0  0  0  0  0  0  0  0  0  0
   27.6870  -22.6718  -15.3975 C   0  0  0  0  0  0  0  0  0  0  0  0
   27.2667  -21.2966  -14.9073 C   0  0  2  0  0  0  0  0  0  0  0  0
   28.3895  -20.5681  -14.3681 N   0  0  0  0  0  0  0  0  0  0  0  0
   26.3057  -21.5343  -13.7762 C   0  0  0  0  0  0  0  0  0  0  0  0
   25.6844  -22.5951  -13.8233 O   0  0  0  0  0  0  0  0  0  0  0  0
   26.1442  -20.6181  -12.7619 N   0  0  0  0  0  0  0  0  0  0  0  0
   25.2925  -20.6078  -11.6323 C   0  0  1  0  0  0  0  0  0  0  0  0
   25.7553  -19.9989  -10.3534 C   0  0  0  0  0  0  0  0  0  0  0  0
   27.0602  -20.5379   -9.9097 C   0  0  0  0  0  0  0  0  0  0  0  0
   27.9257  -21.4049  -10.5252 C   0  0  0  0  0  0  0  0  0  0  0  0
   28.9563  -21.6307   -9.7184 N   0  0  0  0  0  0  0  0  0  0  0  0
   28.8167  -20.9386   -8.5656 C   0  0  0  0  0  0  0  0  0  0  0  0
   29.5605  -20.8151   -7.4285 C   0  0  0  0  0  0  0  0  0  0  0  0
   29.1656  -20.0233   -6.3827 C   0  0  0  0  0  0  0  0  0  0  0  0
   27.9853  -19.3312   -6.4788 C   0  0  0  0  0  0  0  0  0  0  0  0
   27.2134  -19.4345   -7.6121 C   0  0  0  0  0  0  0  0  0  0  0  0
   27.6325  -20.2483   -8.6709 C   0  0  0  0  0  0  0  0  0  0  0  0
   23.8975  -20.3010  -12.0019 C   0  0  0  0  0  0  0  0  0  0  0  0
   23.6735  -19.2498  -12.6569 O   0  0  0  0  0  0  0  0  0  0  0  0
   22.8005  -21.1311  -11.6556 N   0  0  0  0  0  0  0  0  0  0  0  0
   21.4713  -20.8123  -12.1465 C   0  0  1  0  0  0  0  0  0  0  0  0
   21.3224  -21.2836  -13.5922 C   0  0  0  0  0  0  0  0  0  0  0  0
   22.0309  -22.9368  -13.8163 S   0  0  0  0  0  0  0  0  0  0  0  0
   20.4126  -21.3242  -11.2624 C   0  0  0  0  0  0  0  0  0  0  0  0
   20.6619  -22.0554  -10.2731 O   0  0  0  0  0  0  0  0  0  0  0  0
   19.0502  -21.0279  -11.4678 O   0  0  0  0  0  0  0  0  0  0  0  0
  1  2  1  0
  2  3  2  0
  4  5  1  0
  4  2  1  0
  5  6  1  1
  7  8  2  0
  7  5  1  0
  9  7  1  0
 10  9  1  0
 10 11  1  1
 11 12  1  0
 12 13  2  0
 12 20  1  0
 13 14  1  0
 14 15  1  0
 15 16  2  0
 16 17  1  0
 18 17  2  0
 19 18  1  0
 20 19  2  0
 20 15  1  0
 21 22  2  0
 21 10  1  0
 23 21  1  0
 24 25  1  6
 24 23  1  0
 25 26  1  0
 27 24  1  0
 28 27  2  0
 29 27  1  0
M  END
$$$$
