NWC.pdb
     RDKit          3D

 29 30  0  0  1  0  0  0  0  0999 V2000
   29.1841  -26.1132  -18.9105 N   0  0  0  0  0  0  0  0  0  0  0  0
   28.3132  -26.4043  -17.8396 C   0  0  0  0  0  0  0  0  0  0  0  0
   27.6353  -27.4815  -17.8961 O   0  0  0  0  0  0  0  0  0  0  0  0
   28.2180  -25.4607  -16.7033 C   0  0  0  0  0  0  0  0  0  0  0  0
   29.1803  -24.3245  -17.0054 C   0  0  2  0  0  0  0  0  0  0  0  0
   30.5434  -24.7052  -16.7238 N   0  0  0  0  0  0  0  0  0  0  0  0
   28.8233  -23.2142  -16.0573 C   0  0  0  0  0  0  0  0  0  0  0  0
   29.1194  -23.4082  -14.8791 O   0  0  0  0  0  0  0  0  0  0  0  0
   28.2083  -22.0627  -16.4934 N   0  0  0  0  0  0  0  0  0  0  0  0
   27.9164  -20.8459  -15.8333 C   0  0  1  0  0  0  0  0  0  0  0  0
   27.9147  -19.5649  -16.5945 C   0  0  0  0  0  0  0  0  0  0  0  0
   27.3362  -18.4459  -15.8178 C   0  0  0  0  0  0  0  0  0  0  0  0
   27.7290  -17.8842  -14.6304 C   0  0  0  0  0  0  0  0  0  0  0  0
   26.8704  -16.9255  -14.3020 N   0  0  0  0  0  0  0  0  0  0  0  0
   25.8998  -16.8176  -15.2367 C   0  0  0  0  0  0  0  0  0  0  0  0
   24.8014  -16.0223  -15.3870 C   0  0  0  0  0  0  0  0  0  0  0  0
   23.9623  -16.1358  -16.4639 C   0  0  0  0  0  0  0  0  0  0  0  0
   24.2324  -17.0781  -17.4234 C   0  0  0  0  0  0  0  0  0  0  0  0
   25.3321  -17.8944  -17.3008 C   0  0  0  0  0  0  0  0  0  0  0  0
   26.1785  -17.7644  -16.1936 C   0  0  0  0  0  0  0  0  0  0  0  0
   26.8132  -20.9996  -14.8657 C   0  0  0  0  0  0  0  0  0  0  0  0
   25.7772  -21.6102  -15.2374 O   0  0  0  0  0  0  0  0  0  0  0  0
   26.8640  -20.4939  -13.5413 N   0  0  0  0  0  0  0  0  0  0  0  0
   25.7348  -20.6918  -12.6497 C   0  0  1  0  0  0  0  0  0  0  0  0
   26.1401  -20.3629  -11.2138 C   0  0  0  0  0  0  0  0  0  0  0  0
   24.7492  -20.5903  -10.0741 S   0  0  0  0  0  0  0  0  0  0  0  0
   24.5391  -19.9575  -13.0926 C   0  0  0  0  0  0  0  0  0  0  0  0
   24.6003  -18.7868  -13.5409 O   0  0  0  0  0  0  0  0  0  0  0  0
   23.2478  -20.5197  -13.0426 O   0  0  0  0  0  0  0  0  0  0  0  0
  1  2  1  0
  2  3  2  0
  4  5  1  0
  4  2  1  0
  5  6  1  1
  7  8  2  0
  7  5  1  0
  9  7  1  0
 10  9  1  0
 10 11  1  6
 11 12  1  0
 12 13  2  0
 12 20  1  0
 13 14  1  0
 14 15  1  0
 15 16  2  0
 16 17  1  0
 18 17  2  0
 19 18  1  0
 20 19  2  0
 20 15  1  0
 21 22  2  0
 21 10  1  0
 23 21  1  0
 24 25  1  1
 24 23  1  0
 25 26  1  0
 27 24  1  0
 28 27  2  0
 29 27  1  0
M  END
$$$$
