NWC.pdb
     RDKit          3D

 29 30  0  0  1  0  0  0  0  0999 V2000
   25.6169  -25.6255  -18.7805 N   0  0  0  0  0  0  0  0  0  0  0  0
   25.2754  -24.3686  -18.2386 C   0  0  0  0  0  0  0  0  0  0  0  0
   25.4198  -23.3402  -18.9767 O   0  0  0  0  0  0  0  0  0  0  0  0
   24.7690  -24.2891  -16.8502 C   0  0  0  0  0  0  0  0  0  0  0  0
   25.1063  -22.8954  -16.3482 C   0  0  2  0  0  0  0  0  0  0  0  0
   26.4922  -22.8017  -15.9575 N   0  0  0  0  0  0  0  0  0  0  0  0
   24.2798  -22.6883  -15.1099 C   0  0  0  0  0  0  0  0  0  0  0  0
   24.4429  -23.5208  -14.2190 O   0  0  0  0  0  0  0  0  0  0  0  0
   23.4049  -21.6320  -14.9945 N   0  0  0  0  0  0  0  0  0  0  0  0
   22.6554  -21.1489  -13.8962 C   0  0  1  0  0  0  0  0  0  0  0  0
   23.0201  -19.8543  -13.2548 C   0  0  0  0  0  0  0  0  0  0  0  0
   24.3494  -19.8988  -12.6061 C   0  0  0  0  0  0  0  0  0  0  0  0
   25.6034  -19.6951  -13.1216 C   0  0  0  0  0  0  0  0  0  0  0  0
   26.5005  -19.8834  -12.1605 N   0  0  0  0  0  0  0  0  0  0  0  0
   25.8902  -20.2107  -10.9995 C   0  0  0  0  0  0  0  0  0  0  0  0
   26.3255  -20.5045   -9.7403 C   0  0  0  0  0  0  0  0  0  0  0  0
   25.4600  -20.8142   -8.7246 C   0  0  0  0  0  0  0  0  0  0  0  0
   24.1122  -20.8305   -8.9786 C   0  0  0  0  0  0  0  0  0  0  0  0
   23.6422  -20.5384  -10.2375 C   0  0  0  0  0  0  0  0  0  0  0  0
   24.5411  -20.2241  -11.2632 C   0  0  0  0  0  0  0  0  0  0  0  0
   21.2084  -21.3685  -14.0826 C   0  0  0  0  0  0  0  0  0  0  0  0
   20.6523  -20.8480  -15.0846 O   0  0  0  0  0  0  0  0  0  0  0  0
   20.4166  -22.1355  -13.1896 N   0  0  0  0  0  0  0  0  0  0  0  0
   18.9910  -22.2761  -13.4283 C   0  0  1  0  0  0  0  0  0  0  0  0
   18.4404  -23.4506  -12.6211 C   0  0  0  0  0  0  0  0  0  0  0  0
   18.8672  -23.2943  -10.8665 S   0  0  0  0  0  0  0  0  0  0  0  0
   18.2595  -21.0217  -13.1912 C   0  0  0  0  0  0  0  0  0  0  0  0
   18.7547  -20.0711  -12.5383 O   0  0  0  0  0  0  0  0  0  0  0  0
   16.9558  -20.8052  -13.6810 O   0  0  0  0  0  0  0  0  0  0  0  0
  1  2  1  0
  2  3  2  0
  4  5  1  0
  4  2  1  0
  5  6  1  1
  7  8  2  0
  7  5  1  0
  9  7  1  0
 10  9  1  0
 10 11  1  6
 11 12  1  0
 12 13  2  0
 12 20  1  0
 13 14  1  0
 14 15  1  0
 15 16  2  0
 16 17  1  0
 18 17  2  0
 19 18  1  0
 20 19  2  0
 20 15  1  0
 21 22  2  0
 21 10  1  0
 23 21  1  0
 24 25  1  1
 24 23  1  0
 25 26  1  0
 27 24  1  0
 28 27  2  0
 29 27  1  0
M  END
$$$$
