NWC.pdb
     RDKit          3D

 29 30  0  0  1  0  0  0  0  0999 V2000
   28.4850  -21.7248  -21.3411 N   0  0  0  0  0  0  0  0  0  0  0  0
   28.5813  -20.9836  -20.1446 C   0  0  0  0  0  0  0  0  0  0  0  0
   29.3356  -19.9569  -20.1364 O   0  0  0  0  0  0  0  0  0  0  0  0
   27.8138  -21.4190  -18.9563 C   0  0  0  0  0  0  0  0  0  0  0  0
   28.8344  -21.7237  -17.8728 C   0  0  2  0  0  0  0  0  0  0  0  0
   29.4642  -23.0032  -18.0929 N   0  0  0  0  0  0  0  0  0  0  0  0
   28.0598  -21.8239  -16.5886 C   0  0  0  0  0  0  0  0  0  0  0  0
   27.4943  -22.8990  -16.3937 O   0  0  0  0  0  0  0  0  0  0  0  0
   27.9982  -20.7752  -15.6993 N   0  0  0  0  0  0  0  0  0  0  0  0
   27.3294  -20.6319  -14.4609 C   0  0  1  0  0  0  0  0  0  0  0  0
   27.8525  -19.6868  -13.4345 C   0  0  0  0  0  0  0  0  0  0  0  0
   27.5794  -20.1434  -12.0535 C   0  0  0  0  0  0  0  0  0  0  0  0
   26.4839  -19.9579  -11.2503 C   0  0  0  0  0  0  0  0  0  0  0  0
   26.7146  -20.5205  -10.0696 N   0  0  0  0  0  0  0  0  0  0  0  0
   27.9418  -21.0870  -10.0458 C   0  0  0  0  0  0  0  0  0  0  0  0
   28.6606  -21.7723   -9.1103 C   0  0  0  0  0  0  0  0  0  0  0  0
   29.9221  -22.2429   -9.3626 C   0  0  0  0  0  0  0  0  0  0  0  0
   30.4834  -22.0196  -10.5940 C   0  0  0  0  0  0  0  0  0  0  0  0
   29.7841  -21.3325  -11.5583 C   0  0  0  0  0  0  0  0  0  0  0  0
   28.4961  -20.8589  -11.2830 C   0  0  0  0  0  0  0  0  0  0  0  0
   25.8636  -20.6239  -14.6287 C   0  0  0  0  0  0  0  0  0  0  0  0
   25.3541  -19.7384  -15.3639 O   0  0  0  0  0  0  0  0  0  0  0  0
   25.0039  -21.5633  -14.0033 N   0  0  0  0  0  0  0  0  0  0  0  0
   23.5653  -21.4414  -14.1613 C   0  0  1  0  0  0  0  0  0  0  0  0
   23.0009  -22.7114  -14.7959 C   0  0  0  0  0  0  0  0  0  0  0  0
   23.6096  -24.1922  -13.9461 S   0  0  0  0  0  0  0  0  0  0  0  0
   22.8947  -21.0802  -12.9024 C   0  0  0  0  0  0  0  0  0  0  0  0
   21.6728  -20.7982  -12.8518 O   0  0  0  0  0  0  0  0  0  0  0  0
   23.5796  -21.0269  -11.6719 O   0  0  0  0  0  0  0  0  0  0  0  0
  1  2  1  0
  2  3  2  0
  4  5  1  0
  4  2  1  0
  5  6  1  6
  7  8  2  0
  7  5  1  0
  9  7  1  0
 10  9  1  0
 10 11  1  6
 11 12  1  0
 12 13  2  0
 12 20  1  0
 13 14  1  0
 14 15  1  0
 15 16  2  0
 16 17  1  0
 18 17  2  0
 19 18  1  0
 20 19  2  0
 20 15  1  0
 21 22  2  0
 21 10  1  0
 23 21  1  0
 24 25  1  1
 24 23  1  0
 25 26  1  0
 27 24  1  0
 28 27  2  0
 29 27  1  0
M  END
$$$$
