NWC.pdb
     RDKit          3D

 29 30  0  0  1  0  0  0  0  0999 V2000
   30.9976  -30.5928  -22.3663 N   0  0  0  0  0  0  0  0  0  0  0  0
   30.5057  -29.3450  -21.9291 C   0  0  0  0  0  0  0  0  0  0  0  0
   30.4218  -28.4030  -22.7829 O   0  0  0  0  0  0  0  0  0  0  0  0
   30.1103  -29.1754  -20.5130 C   0  0  0  0  0  0  0  0  0  0  0  0
   30.6256  -27.8125  -20.0825 C   0  0  2  0  0  0  0  0  0  0  0  0
   32.0249  -27.8687  -19.7346 N   0  0  0  0  0  0  0  0  0  0  0  0
   29.8700  -27.4583  -18.8323 C   0  0  0  0  0  0  0  0  0  0  0  0
   30.1735  -28.1033  -17.8296 O   0  0  0  0  0  0  0  0  0  0  0  0
   28.9074  -26.4746  -18.8251 N   0  0  0  0  0  0  0  0  0  0  0  0
   28.1778  -25.8822  -17.7677 C   0  0  1  0  0  0  0  0  0  0  0  0
   28.4410  -24.4679  -17.3791 C   0  0  0  0  0  0  0  0  0  0  0  0
   29.8818  -24.1314  -17.4098 C   0  0  0  0  0  0  0  0  0  0  0  0
   30.6003  -23.3543  -18.2813 C   0  0  0  0  0  0  0  0  0  0  0  0
   31.8803  -23.3803  -17.9275 N   0  0  0  0  0  0  0  0  0  0  0  0
   32.0546  -24.1563  -16.8344 C   0  0  0  0  0  0  0  0  0  0  0  0
   33.1329  -24.5188  -16.0813 C   0  0  0  0  0  0  0  0  0  0  0  0
   33.0177  -25.3470  -14.9962 C   0  0  0  0  0  0  0  0  0  0  0  0
   31.7801  -25.8290  -14.6534 C   0  0  0  0  0  0  0  0  0  0  0  0
   30.6738  -25.4815  -15.3924 C   0  0  0  0  0  0  0  0  0  0  0  0
   30.8102  -24.6341  -16.4980 C   0  0  0  0  0  0  0  0  0  0  0  0
   26.7536  -26.2659  -17.8038 C   0  0  0  0  0  0  0  0  0  0  0  0
   26.1122  -26.0712  -18.8691 O   0  0  0  0  0  0  0  0  0  0  0  0
   26.0749  -26.8416  -16.6991 N   0  0  0  0  0  0  0  0  0  0  0  0
   24.6611  -27.1564  -16.8054 C   0  0  1  0  0  0  0  0  0  0  0  0
   24.3696  -28.4871  -16.1135 C   0  0  0  0  0  0  0  0  0  0  0  0
   25.4188  -29.8097  -16.7733 S   0  0  0  0  0  0  0  0  0  0  0  0
   23.8076  -26.0587  -16.3242 C   0  0  0  0  0  0  0  0  0  0  0  0
   24.2830  -25.0179  -15.8084 O   0  0  0  0  0  0  0  0  0  0  0  0
   22.4017  -26.1036  -16.4106 O   0  0  0  0  0  0  0  0  0  0  0  0
  1  2  1  0
  2  3  2  0
  4  5  1  0
  4  2  1  0
  5  6  1  1
  7  8  2  0
  7  5  1  0
  9  7  1  0
 10  9  1  0
 10 11  1  6
 11 12  1  0
 12 13  2  0
 12 20  1  0
 13 14  1  0
 14 15  1  0
 15 16  2  0
 16 17  1  0
 18 17  2  0
 19 18  1  0
 20 19  2  0
 20 15  1  0
 21 22  2  0
 21 10  1  0
 23 21  1  0
 24 25  1  1
 24 23  1  0
 25 26  1  0
 27 24  1  0
 28 27  2  0
 29 27  1  0
M  END
$$$$
