NWC.pdb
     RDKit          3D

 29 30  0  0  1  0  0  0  0  0999 V2000
   27.6639  -19.8141  -18.2386 N   0  0  0  0  0  0  0  0  0  0  0  0
   28.1114  -19.6576  -16.9100 C   0  0  0  0  0  0  0  0  0  0  0  0
   29.2693  -19.1599  -16.7238 O   0  0  0  0  0  0  0  0  0  0  0  0
   27.2325  -20.0722  -15.7936 C   0  0  0  0  0  0  0  0  0  0  0  0
   28.0671  -20.9755  -14.9014 C   0  0  2  0  0  0  0  0  0  0  0  0
   28.2551  -22.2740  -15.5019 N   0  0  0  0  0  0  0  0  0  0  0  0
   27.2643  -21.1772  -13.6468 C   0  0  0  0  0  0  0  0  0  0  0  0
   26.0802  -21.4650  -13.8163 O   0  0  0  0  0  0  0  0  0  0  0  0
   27.8305  -21.0471  -12.3991 N   0  0  0  0  0  0  0  0  0  0  0  0
   27.2587  -21.0316  -11.1051 C   0  0  1  0  0  0  0  0  0  0  0  0
   28.1254  -20.8439   -9.9077 C   0  0  0  0  0  0  0  0  0  0  0  0
   27.3433  -20.5937   -8.6766 C   0  0  0  0  0  0  0  0  0  0  0  0
   25.9895  -20.6014   -8.4600 C   0  0  0  0  0  0  0  0  0  0  0  0
   25.7534  -20.2758   -7.1942 N   0  0  0  0  0  0  0  0  0  0  0  0
   26.9135  -20.0460   -6.5393 C   0  0  0  0  0  0  0  0  0  0  0  0
   27.2361  -19.6875   -5.2630 C   0  0  0  0  0  0  0  0  0  0  0  0
   28.5344  -19.5145   -4.8616 C   0  0  0  0  0  0  0  0  0  0  0  0
   29.5445  -19.7071   -5.7694 C   0  0  0  0  0  0  0  0  0  0  0  0
   29.2516  -20.0694   -7.0632 C   0  0  0  0  0  0  0  0  0  0  0  0
   27.9193  -20.2417   -7.4558 C   0  0  0  0  0  0  0  0  0  0  0  0
   25.9858  -20.2861  -11.0786 C   0  0  0  0  0  0  0  0  0  0  0  0
   26.0311  -19.0299  -11.1435 O   0  0  0  0  0  0  0  0  0  0  0  0
   24.7177  -20.9150  -10.9838 N   0  0  0  0  0  0  0  0  0  0  0  0
   23.5084  -20.1305  -11.1604 C   0  0  1  0  0  0  0  0  0  0  0  0
   23.5636  -19.3792  -12.4897 C   0  0  0  0  0  0  0  0  0  0  0  0
   23.5378  -20.5287  -13.8909 S   0  0  0  0  0  0  0  0  0  0  0  0
   22.2903  -20.9415  -11.0080 C   0  0  0  0  0  0  0  0  0  0  0  0
   21.1435  -20.4316  -10.9967 O   0  0  0  0  0  0  0  0  0  0  0  0
   22.3309  -22.3430  -10.8646 O   0  0  0  0  0  0  0  0  0  0  0  0
  1  2  1  0
  2  3  2  0
  4  5  1  0
  4  2  1  0
  5  6  1  6
  7  8  2  0
  7  5  1  0
  9  7  1  0
 10  9  1  0
 10 11  1  1
 11 12  1  0
 12 13  2  0
 12 20  1  0
 13 14  1  0
 14 15  1  0
 15 16  2  0
 16 17  1  0
 18 17  2  0
 19 18  1  0
 20 19  2  0
 20 15  1  0
 21 22  2  0
 21 10  1  0
 23 21  1  0
 24 25  1  6
 24 23  1  0
 25 26  1  0
 27 24  1  0
 28 27  2  0
 29 27  1  0
M  END
$$$$
