NWC.pdb
     RDKit          3D

 29 30  0  0  1  0  0  0  0  0999 V2000
   20.2069  -12.9815  -17.0859 N   0  0  0  0  0  0  0  0  0  0  0  0
   19.5319  -12.1172  -16.1986 C   0  0  0  0  0  0  0  0  0  0  0  0
   18.2632  -12.2076  -16.1250 O   0  0  0  0  0  0  0  0  0  0  0  0
   20.3102  -11.1478  -15.3954 C   0  0  0  0  0  0  0  0  0  0  0  0
   21.7698  -11.3613  -15.7590 C   0  0  2  0  0  0  0  0  0  0  0  0
   22.3586  -12.4110  -14.9630 N   0  0  0  0  0  0  0  0  0  0  0  0
   22.4777  -10.0836  -15.4045 C   0  0  0  0  0  0  0  0  0  0  0  0
   22.6365   -9.8825  -14.2012 O   0  0  0  0  0  0  0  0  0  0  0  0
   22.9148   -9.2082  -16.3725 N   0  0  0  0  0  0  0  0  0  0  0  0
   23.6973   -8.0324  -16.2914 C   0  0  1  0  0  0  0  0  0  0  0  0
   24.9274   -7.8950  -17.1211 C   0  0  0  0  0  0  0  0  0  0  0  0
   25.8699   -9.0191  -16.9261 C   0  0  0  0  0  0  0  0  0  0  0  0
   26.4948   -9.4764  -15.7947 C   0  0  0  0  0  0  0  0  0  0  0  0
   27.2870  -10.4916  -16.1200 N   0  0  0  0  0  0  0  0  0  0  0  0
   27.2188  -10.7402  -17.4470 C   0  0  0  0  0  0  0  0  0  0  0  0
   27.8113  -11.6413  -18.2827 C   0  0  0  0  0  0  0  0  0  0  0  0
   27.5539  -11.6653  -19.6279 C   0  0  0  0  0  0  0  0  0  0  0  0
   26.6727  -10.7556  -20.1547 C   0  0  0  0  0  0  0  0  0  0  0  0
   26.0589   -9.8348  -19.3383 C   0  0  0  0  0  0  0  0  0  0  0  0
   26.3339   -9.8250  -17.9660 C   0  0  0  0  0  0  0  0  0  0  0  0
   22.8582   -6.8215  -16.2121 C   0  0  0  0  0  0  0  0  0  0  0  0
   22.2830   -6.4271  -17.2598 O   0  0  0  0  0  0  0  0  0  0  0  0
   22.6695   -6.0827  -15.0157 N   0  0  0  0  0  0  0  0  0  0  0  0
   21.7676   -4.9445  -15.0054 C   0  0  1  0  0  0  0  0  0  0  0  0
   20.8392   -5.0256  -13.7947 C   0  0  0  0  0  0  0  0  0  0  0  0
   19.8646   -3.5079  -13.6161 S   0  0  0  0  0  0  0  0  0  0  0  0
   22.4856   -3.6633  -15.0951 C   0  0  0  0  0  0  0  0  0  0  0  0
   23.5920   -3.4751  -14.5332 O   0  0  0  0  0  0  0  0  0  0  0  0
   21.9787   -2.5642  -15.8170 O   0  0  0  0  0  0  0  0  0  0  0  0
  1  2  1  0
  2  3  2  0
  4  5  1  0
  4  2  1  0
  5  6  1  1
  7  8  2  0
  7  5  1  0
  9  7  1  0
 10  9  1  0
 10 11  1  6
 11 12  1  0
 12 13  2  0
 12 20  1  0
 13 14  1  0
 14 15  1  0
 15 16  2  0
 16 17  1  0
 18 17  2  0
 19 18  1  0
 20 19  2  0
 20 15  1  0
 21 22  2  0
 21 10  1  0
 23 21  1  0
 24 25  1  1
 24 23  1  0
 25 26  1  0
 27 24  1  0
 28 27  2  0
 29 27  1  0
M  END
$$$$
