NWC.pdb
     RDKit          3D

 29 30  0  0  1  0  0  0  0  0999 V2000
   28.0386  -20.7546  -18.2781 N   0  0  0  0  0  0  0  0  0  0  0  0
   27.9103  -20.2567  -16.9645 C   0  0  0  0  0  0  0  0  0  0  0  0
   28.6027  -19.2372  -16.6413 O   0  0  0  0  0  0  0  0  0  0  0  0
   26.9892  -20.9273  -16.0198 C   0  0  0  0  0  0  0  0  0  0  0  0
   27.6135  -20.7927  -14.6412 C   0  0  2  0  0  0  0  0  0  0  0  0
   28.7627  -21.6541  -14.5014 N   0  0  0  0  0  0  0  0  0  0  0  0
   26.5755  -21.2737  -13.6662 C   0  0  0  0  0  0  0  0  0  0  0  0
   26.1342  -22.4026  -13.8765 O   0  0  0  0  0  0  0  0  0  0  0  0
   26.1585  -20.4927  -12.6124 N   0  0  0  0  0  0  0  0  0  0  0  0
   25.2430  -20.7421  -11.5630 C   0  0  1  0  0  0  0  0  0  0  0  0
   25.5357  -20.2560  -10.1852 C   0  0  0  0  0  0  0  0  0  0  0  0
   26.8716  -20.6776   -9.7083 C   0  0  0  0  0  0  0  0  0  0  0  0
   27.7880  -21.5360  -10.2588 C   0  0  0  0  0  0  0  0  0  0  0  0
   28.8314  -21.6342   -9.4429 N   0  0  0  0  0  0  0  0  0  0  0  0
   28.6510  -20.8630   -8.3473 C   0  0  0  0  0  0  0  0  0  0  0  0
   29.3872  -20.6049   -7.2280 C   0  0  0  0  0  0  0  0  0  0  0  0
   28.9457  -19.7586   -6.2454 C   0  0  0  0  0  0  0  0  0  0  0  0
   27.7250  -19.1496   -6.3886 C   0  0  0  0  0  0  0  0  0  0  0  0
   26.9596  -19.3890   -7.5057 C   0  0  0  0  0  0  0  0  0  0  0  0
   27.4266  -20.2568   -8.4995 C   0  0  0  0  0  0  0  0  0  0  0  0
   23.8457  -20.5686  -12.0035 C   0  0  0  0  0  0  0  0  0  0  0  0
   23.4137  -19.3972  -12.1630 O   0  0  0  0  0  0  0  0  0  0  0  0
   22.9687  -21.6550  -12.2550 N   0  0  0  0  0  0  0  0  0  0  0  0
   21.6394  -21.4019  -12.7825 C   0  0  1  0  0  0  0  0  0  0  0  0
   21.0582  -22.6869  -13.3703 C   0  0  0  0  0  0  0  0  0  0  0  0
   20.6875  -23.8915  -12.0677 S   0  0  0  0  0  0  0  0  0  0  0  0
   20.7556  -20.7725  -11.7888 C   0  0  0  0  0  0  0  0  0  0  0  0
   19.6425  -20.2821  -12.0981 O   0  0  0  0  0  0  0  0  0  0  0  0
   21.1003  -20.6789  -10.4255 O   0  0  0  0  0  0  0  0  0  0  0  0
  1  2  1  0
  2  3  2  0
  4  5  1  0
  4  2  1  0
  5  6  1  6
  7  8  2  0
  7  5  1  0
  9  7  1  0
 10  9  1  0
 10 11  1  1
 11 12  1  0
 12 13  2  0
 12 20  1  0
 13 14  1  0
 14 15  1  0
 15 16  2  0
 16 17  1  0
 18 17  2  0
 19 18  1  0
 20 19  2  0
 20 15  1  0
 21 22  2  0
 21 10  1  0
 23 21  1  0
 24 25  1  1
 24 23  1  0
 25 26  1  0
 27 24  1  0
 28 27  2  0
 29 27  1  0
M  END
$$$$
