NWC.pdb
     RDKit          3D

 29 30  0  0  1  0  0  0  0  0999 V2000
   27.4711  -25.1520  -18.3917 N   0  0  0  0  0  0  0  0  0  0  0  0
   26.3076  -24.3787  -18.5875 C   0  0  0  0  0  0  0  0  0  0  0  0
   25.8051  -24.3404  -19.7577 O   0  0  0  0  0  0  0  0  0  0  0  0
   25.7194  -23.6480  -17.4427 C   0  0  0  0  0  0  0  0  0  0  0  0
   26.6227  -23.9164  -16.2509 C   0  0  2  0  0  0  0  0  0  0  0  0
   26.7622  -25.3321  -16.0089 N   0  0  0  0  0  0  0  0  0  0  0  0
   25.9229  -23.3277  -15.0580 C   0  0  0  0  0  0  0  0  0  0  0  0
   25.4240  -24.1415  -14.2819 O   0  0  0  0  0  0  0  0  0  0  0  0
   25.8548  -21.9674  -14.8599 N   0  0  0  0  0  0  0  0  0  0  0  0
   25.3195  -21.1982  -13.8001 C   0  0  1  0  0  0  0  0  0  0  0  0
   26.0768  -20.0303  -13.2682 C   0  0  0  0  0  0  0  0  0  0  0  0
   27.2144  -20.4355  -12.4128 C   0  0  0  0  0  0  0  0  0  0  0  0
   28.4921  -20.8084  -12.7413 C   0  0  0  0  0  0  0  0  0  0  0  0
   29.1476  -21.1264  -11.6308 N   0  0  0  0  0  0  0  0  0  0  0  0
   28.3488  -20.9796  -10.5501 C   0  0  0  0  0  0  0  0  0  0  0  0
   28.5113  -21.1674   -9.2085 C   0  0  0  0  0  0  0  0  0  0  0  0
   27.4997  -20.9385   -8.3136 C   0  0  0  0  0  0  0  0  0  0  0  0
   26.2834  -20.5068   -8.7780 C   0  0  0  0  0  0  0  0  0  0  0  0
   26.0884  -20.3078  -10.1246 C   0  0  0  0  0  0  0  0  0  0  0  0
   27.1334  -20.5466  -11.0245 C   0  0  0  0  0  0  0  0  0  0  0  0
   23.8687  -20.9826  -13.9593 C   0  0  0  0  0  0  0  0  0  0  0  0
   23.4402  -20.6322  -15.0897 O   0  0  0  0  0  0  0  0  0  0  0  0
   22.9367  -21.1506  -12.9030 N   0  0  0  0  0  0  0  0  0  0  0  0
   21.5188  -20.9632  -13.1553 C   0  0  1  0  0  0  0  0  0  0  0  0
   20.7008  -21.5997  -12.0327 C   0  0  0  0  0  0  0  0  0  0  0  0
   21.1886  -20.9421  -10.4156 S   0  0  0  0  0  0  0  0  0  0  0  0
   21.1756  -19.5516  -13.3881 C   0  0  0  0  0  0  0  0  0  0  0  0
   21.9636  -18.6159  -13.1076 O   0  0  0  0  0  0  0  0  0  0  0  0
   19.9405  -19.1574  -13.9409 O   0  0  0  0  0  0  0  0  0  0  0  0
  1  2  1  0
  2  3  2  0
  4  5  1  0
  4  2  1  0
  5  6  1  1
  7  8  2  0
  7  5  1  0
  9  7  1  0
 10  9  1  0
 10 11  1  6
 11 12  1  0
 12 13  2  0
 12 20  1  0
 13 14  1  0
 14 15  1  0
 15 16  2  0
 16 17  1  0
 18 17  2  0
 19 18  1  0
 20 19  2  0
 20 15  1  0
 21 22  2  0
 21 10  1  0
 23 21  1  0
 24 25  1  1
 24 23  1  0
 25 26  1  0
 27 24  1  0
 28 27  2  0
 29 27  1  0
M  END
$$$$
