MPA.pdb
     RDKit          3D

 21 21  0  0  1  0  0  0  0  0999 V2000
    6.2779  -12.0639   26.3936 C   0  0  0  0  0  0  0  0  0  0  0  0
    7.6026  -13.0480   27.1787 S   0  0  0  0  0  0  0  0  0  0  0  0
    7.6505  -14.6945   26.4510 C   0  0  0  0  0  0  0  0  0  0  0  0
    6.2822  -15.0486   25.8582 C   0  0  0  0  0  0  0  0  0  0  0  0
    6.3966  -16.4405   25.2112 C   0  0  2  0  0  0  0  0  0  0  0  0
    6.4028  -17.3872   26.2652 N   0  0  0  0  0  0  0  0  0  0  0  0
    7.4889  -16.4878   24.2509 C   0  0  0  0  0  0  0  0  0  0  0  0
    8.3808  -17.3799   24.4812 O   0  0  0  0  0  0  0  0  0  0  0  0
    7.6786  -15.6695   23.1013 N   0  0  0  0  0  0  0  0  0  0  0  0
    6.8338  -14.6217   22.5838 C   0  0  0  0  0  0  0  0  0  0  0  0
    7.8721  -13.5822   22.1342 C   0  0  0  0  0  0  0  0  0  0  0  0
    8.7594  -14.5274   21.3041 C   0  0  0  0  0  0  0  0  0  0  0  0
    8.8099  -15.7730   22.1993 C   0  0  1  0  0  0  0  0  0  0  0  0
   10.1169  -15.7313   22.8813 C   0  0  0  0  0  0  0  0  0  0  0  0
   10.3045  -14.9391   23.8232 O   0  0  0  0  0  0  0  0  0  0  0  0
   12.8071  -18.0752   23.4563 C   0  0  0  0  0  0  0  0  0  0  0  0
   12.4510  -16.6429   23.1479 C   0  0  2  0  0  0  0  0  0  0  0  0
   11.1605  -16.5871   22.4714 N   0  0  0  0  0  0  0  0  0  0  0  0
   13.4955  -16.0082   22.3371 C   0  0  0  0  0  0  0  0  0  0  0  0
   13.4029  -15.8229   21.1122 O   0  0  0  0  0  0  0  0  0  0  0  0
   14.6616  -15.5857   22.9667 O   0  0  0  0  0  0  0  0  0  0  0  0
  2  1  1  0
  3  2  1  0
  4  5  1  0
  4  3  1  0
  5  6  1  1
  7  5  1  0
  8  7  2  0
  9 13  1  0
  9  7  1  0
 10  9  1  0
 11 10  1  0
 11 12  1  0
 12 13  1  0
 13 14  1  1
 14 15  2  0
 14 18  1  0
 17 19  1  0
 17 16  1  6
 18 17  1  0
 19 21  1  0
 20 19  2  0
M  END
$$$$
