MPA.pdb
     RDKit          3D

 21 21  0  0  1  0  0  0  0  0999 V2000
    5.7424  -11.9854   27.0988 C   0  0  0  0  0  0  0  0  0  0  0  0
    7.4263  -12.6942   27.0541 S   0  0  0  0  0  0  0  0  0  0  0  0
    7.3397  -14.4427   26.6320 C   0  0  0  0  0  0  0  0  0  0  0  0
    6.2817  -14.6710   25.5469 C   0  0  0  0  0  0  0  0  0  0  0  0
    6.3981  -16.1322   25.0774 C   0  0  2  0  0  0  0  0  0  0  0  0
    6.3766  -16.9428   26.2391 N   0  0  0  0  0  0  0  0  0  0  0  0
    7.5085  -16.3023   24.1524 C   0  0  0  0  0  0  0  0  0  0  0  0
    8.4269  -17.1074   24.5432 O   0  0  0  0  0  0  0  0  0  0  0  0
    7.6899  -15.6869   22.8814 N   0  0  0  0  0  0  0  0  0  0  0  0
    6.8285  -14.7592   22.1910 C   0  0  0  0  0  0  0  0  0  0  0  0
    7.8494  -13.7899   21.5753 C   0  0  0  0  0  0  0  0  0  0  0  0
    8.7604  -14.8439   20.9203 C   0  0  0  0  0  0  0  0  0  0  0  0
    8.8291  -15.9186   22.0137 C   0  0  1  0  0  0  0  0  0  0  0  0
   10.1305  -15.7356   22.6831 C   0  0  0  0  0  0  0  0  0  0  0  0
   10.1856  -15.1952   23.8033 O   0  0  0  0  0  0  0  0  0  0  0  0
   12.3846  -17.3566   23.8907 C   0  0  0  0  0  0  0  0  0  0  0  0
   12.5718  -16.3519   22.7821 C   0  0  2  0  0  0  0  0  0  0  0  0
   11.3184  -16.1709   22.0596 N   0  0  0  0  0  0  0  0  0  0  0  0
   13.6446  -16.7706   21.8737 C   0  0  0  0  0  0  0  0  0  0  0  0
   14.8502  -16.7530   22.1731 O   0  0  0  0  0  0  0  0  0  0  0  0
   13.3028  -17.2148   20.6007 O   0  0  0  0  0  0  0  0  0  0  0  0
  2  1  1  0
  3  2  1  0
  4  5  1  0
  4  3  1  0
  5  6  1  1
  7  5  1  0
  8  7  2  0
  9 13  1  0
  9  7  1  0
 10  9  1  0
 11 10  1  0
 11 12  1  0
 12 13  1  0
 13 14  1  1
 14 15  2  0
 14 18  1  0
 17 19  1  0
 17 16  1  1
 18 17  1  0
 19 21  1  0
 20 19  2  0
M  END
$$$$
