MPA.pdb
     RDKit          3D

 21 21  0  0  1  0  0  0  0  0999 V2000
    6.0279  -12.2063   27.2567 C   0  0  0  0  0  0  0  0  0  0  0  0
    7.7359  -12.8380   27.1044 S   0  0  0  0  0  0  0  0  0  0  0  0
    7.7096  -14.5084   26.4322 C   0  0  0  0  0  0  0  0  0  0  0  0
    6.5009  -14.6847   25.5065 C   0  0  0  0  0  0  0  0  0  0  0  0
    6.5349  -16.1227   24.9585 C   0  0  2  0  0  0  0  0  0  0  0  0
    6.6872  -16.9859   26.0714 N   0  0  0  0  0  0  0  0  0  0  0  0
    7.4889  -16.2489   23.8669 C   0  0  0  0  0  0  0  0  0  0  0  0
    8.3455  -17.1943   23.9963 O   0  0  0  0  0  0  0  0  0  0  0  0
    7.5793  -15.4551   22.6884 N   0  0  0  0  0  0  0  0  0  0  0  0
    6.7821  -14.3195   22.2957 C   0  0  0  0  0  0  0  0  0  0  0  0
    7.8419  -13.4008   21.6684 C   0  0  0  0  0  0  0  0  0  0  0  0
    8.4748  -14.4374   20.7225 C   0  0  0  0  0  0  0  0  0  0  0  0
    8.5322  -15.6821   21.6185 C   0  0  1  0  0  0  0  0  0  0  0  0
    9.9286  -15.7864   22.0813 C   0  0  0  0  0  0  0  0  0  0  0  0
   10.8597  -15.8117   21.2552 O   0  0  0  0  0  0  0  0  0  0  0  0
   11.5811  -15.3383   25.4007 C   0  0  0  0  0  0  0  0  0  0  0  0
   11.5776  -15.8583   23.9854 C   0  0  2  0  0  0  0  0  0  0  0  0
   10.2175  -15.8580   23.4601 N   0  0  0  0  0  0  0  0  0  0  0  0
   12.1638  -17.2013   23.9212 C   0  0  0  0  0  0  0  0  0  0  0  0
   13.3834  -17.4273   23.9913 O   0  0  0  0  0  0  0  0  0  0  0  0
   11.3134  -18.2920   23.7734 O   0  0  0  0  0  0  0  0  0  0  0  0
  2  1  1  0
  3  2  1  0
  4  5  1  0
  4  3  1  0
  5  6  1  1
  7  5  1  0
  8  7  2  0
  9 13  1  0
  9  7  1  0
 10  9  1  0
 11 10  1  0
 11 12  1  0
 12 13  1  0
 13 14  1  1
 14 15  2  0
 14 18  1  0
 17 19  1  0
 17 16  1  1
 18 17  1  0
 19 21  1  0
 20 19  2  0
M  END
$$$$
