MPA.pdb
     RDKit          3D

 21 21  0  0  1  0  0  0  0  0999 V2000
    7.5079  -11.2187   26.2089 C   0  0  0  0  0  0  0  0  0  0  0  0
    6.6993  -12.4395   27.3024 S   0  0  0  0  0  0  0  0  0  0  0  0
    6.0936  -13.8253   26.3249 C   0  0  0  0  0  0  0  0  0  0  0  0
    7.1981  -14.8745   26.1574 C   0  0  0  0  0  0  0  0  0  0  0  0
    6.6382  -16.0103   25.2824 C   0  0  2  0  0  0  0  0  0  0  0  0
    6.2663  -17.0610   26.1568 N   0  0  0  0  0  0  0  0  0  0  0  0
    7.5427  -16.3275   24.1874 C   0  0  0  0  0  0  0  0  0  0  0  0
    8.2546  -17.3809   24.3544 O   0  0  0  0  0  0  0  0  0  0  0  0
    7.7253  -15.6135   22.9693 N   0  0  0  0  0  0  0  0  0  0  0  0
    6.9707  -14.5010   22.4475 C   0  0  0  0  0  0  0  0  0  0  0  0
    8.0825  -13.6322   21.8393 C   0  0  0  0  0  0  0  0  0  0  0  0
    8.7694  -14.7328   21.0106 C   0  0  0  0  0  0  0  0  0  0  0  0
    8.7492  -15.9163   21.9874 C   0  0  1  0  0  0  0  0  0  0  0  0
   10.1080  -15.9990   22.5548 C   0  0  0  0  0  0  0  0  0  0  0  0
   10.4875  -15.1582   23.3909 O   0  0  0  0  0  0  0  0  0  0  0  0
   12.6781  -18.6760   22.7155 C   0  0  0  0  0  0  0  0  0  0  0  0
   12.3077  -17.2146   22.7378 C   0  0  2  0  0  0  0  0  0  0  0  0
   10.9845  -17.0291   22.1544 N   0  0  0  0  0  0  0  0  0  0  0  0
   13.3100  -16.4112   22.0298 C   0  0  0  0  0  0  0  0  0  0  0  0
   13.2167  -16.0862   20.8343 O   0  0  0  0  0  0  0  0  0  0  0  0
   14.4340  -15.9833   22.7284 O   0  0  0  0  0  0  0  0  0  0  0  0
  2  1  1  0
  3  2  1  0
  4  5  1  0
  4  3  1  0
  5  6  1  1
  7  5  1  0
  8  7  2  0
  9 13  1  0
  9  7  1  0
 10  9  1  0
 11 10  1  0
 11 12  1  0
 12 13  1  0
 13 14  1  1
 14 15  2  0
 14 18  1  0
 17 19  1  0
 17 16  1  6
 18 17  1  0
 19 21  1  0
 20 19  2  0
M  END
$$$$
