MPA.pdb
     RDKit          3D

 21 21  0  0  1  0  0  0  0  0999 V2000
    6.7038  -11.2843   26.4640 C   0  0  0  0  0  0  0  0  0  0  0  0
    7.1616  -12.6494   27.5895 S   0  0  0  0  0  0  0  0  0  0  0  0
    6.5682  -14.2133   26.9226 C   0  0  0  0  0  0  0  0  0  0  0  0
    7.5539  -14.7486   25.8782 C   0  0  0  0  0  0  0  0  0  0  0  0
    6.9207  -15.9921   25.2286 C   0  0  2  0  0  0  0  0  0  0  0  0
    6.8335  -16.9853   26.2350 N   0  0  0  0  0  0  0  0  0  0  0  0
    7.5965  -16.3412   23.9880 C   0  0  0  0  0  0  0  0  0  0  0  0
    8.2137  -17.4652   23.9996 O   0  0  0  0  0  0  0  0  0  0  0  0
    7.6505  -15.5895   22.7801 N   0  0  0  0  0  0  0  0  0  0  0  0
    7.0792  -14.2980   22.4886 C   0  0  0  0  0  0  0  0  0  0  0  0
    8.1893  -13.6530   21.6445 C   0  0  0  0  0  0  0  0  0  0  0  0
    8.3815  -14.8082   20.6452 C   0  0  0  0  0  0  0  0  0  0  0  0
    8.3128  -16.0326   21.5680 C   0  0  1  0  0  0  0  0  0  0  0  0
    9.7079  -16.4623   21.7785 C   0  0  0  0  0  0  0  0  0  0  0  0
   10.3239  -17.0498   20.8700 O   0  0  0  0  0  0  0  0  0  0  0  0
   12.4368  -15.2633   23.8143 C   0  0  0  0  0  0  0  0  0  0  0  0
   11.7669  -16.4817   23.2310 C   0  0  2  0  0  0  0  0  0  0  0  0
   10.3517  -16.2109   23.0081 N   0  0  0  0  0  0  0  0  0  0  0  0
   11.9463  -17.6452   24.1060 C   0  0  0  0  0  0  0  0  0  0  0  0
   13.0537  -18.1281   24.3958 O   0  0  0  0  0  0  0  0  0  0  0  0
   10.8172  -18.2505   24.6478 O   0  0  0  0  0  0  0  0  0  0  0  0
  2  1  1  0
  3  2  1  0
  4  5  1  0
  4  3  1  0
  5  6  1  1
  7  5  1  0
  8  7  2  0
  9 13  1  0
  9  7  1  0
 10  9  1  0
 11 10  1  0
 11 12  1  0
 12 13  1  0
 13 14  1  1
 14 15  2  0
 14 18  1  0
 17 19  1  0
 17 16  1  1
 18 17  1  0
 19 21  1  0
 20 19  2  0
M  END
$$$$
