MPA.pdb
     RDKit          3D

 21 21  0  0  1  0  0  0  0  0999 V2000
    6.8957  -11.2118   26.4939 C   0  0  0  0  0  0  0  0  0  0  0  0
    7.3935  -12.6154   27.5530 S   0  0  0  0  0  0  0  0  0  0  0  0
    6.7265  -14.1489   26.8847 C   0  0  0  0  0  0  0  0  0  0  0  0
    7.6693  -14.7117   25.8155 C   0  0  0  0  0  0  0  0  0  0  0  0
    7.0319  -15.9964   25.2565 C   0  0  2  0  0  0  0  0  0  0  0  0
    7.0122  -16.9413   26.3118 N   0  0  0  0  0  0  0  0  0  0  0  0
    7.6560  -16.3927   24.0030 C   0  0  0  0  0  0  0  0  0  0  0  0
    8.3287  -17.4834   24.0484 O   0  0  0  0  0  0  0  0  0  0  0  0
    7.6061  -15.7187   22.7499 N   0  0  0  0  0  0  0  0  0  0  0  0
    6.9902  -14.4568   22.4220 C   0  0  0  0  0  0  0  0  0  0  0  0
    8.0223  -13.8509   21.4585 C   0  0  0  0  0  0  0  0  0  0  0  0
    8.1621  -15.0644   20.5216 C   0  0  0  0  0  0  0  0  0  0  0  0
    8.1853  -16.2284   21.5215 C   0  0  1  0  0  0  0  0  0  0  0  0
    9.6001  -16.6237   21.6532 C   0  0  0  0  0  0  0  0  0  0  0  0
   10.1037  -17.4208   20.8402 O   0  0  0  0  0  0  0  0  0  0  0  0
   12.5574  -15.2853   21.9709 C   0  0  0  0  0  0  0  0  0  0  0  0
   11.8286  -16.3206   22.7897 C   0  0  2  0  0  0  0  0  0  0  0  0
   10.3899  -16.1022   22.6991 N   0  0  0  0  0  0  0  0  0  0  0  0
   12.2761  -16.2913   24.1862 C   0  0  0  0  0  0  0  0  0  0  0  0
   13.4526  -16.4771   24.5393 O   0  0  0  0  0  0  0  0  0  0  0  0
   11.3363  -16.0417   25.1808 O   0  0  0  0  0  0  0  0  0  0  0  0
  2  1  1  0
  3  2  1  0
  4  5  1  0
  4  3  1  0
  5  6  1  1
  7  5  1  0
  8  7  2  0
  9 13  1  0
  9  7  1  0
 10  9  1  0
 11 10  1  0
 11 12  1  0
 12 13  1  0
 13 14  1  1
 14 15  2  0
 14 18  1  0
 17 19  1  0
 17 16  1  6
 18 17  1  0
 19 21  1  0
 20 19  2  0
M  END
$$$$
