MPA.pdb
     RDKit          3D

 21 21  0  0  1  0  0  0  0  0999 V2000
    5.6366  -11.9934   27.0016 C   0  0  0  0  0  0  0  0  0  0  0  0
    7.3325  -12.6698   26.9240 S   0  0  0  0  0  0  0  0  0  0  0  0
    7.2667  -14.4467   26.6387 C   0  0  0  0  0  0  0  0  0  0  0  0
    6.2475  -14.7664   25.5397 C   0  0  0  0  0  0  0  0  0  0  0  0
    6.4521  -16.2337   25.1218 C   0  0  2  0  0  0  0  0  0  0  0  0
    6.5522  -16.9929   26.3137 N   0  0  0  0  0  0  0  0  0  0  0  0
    7.5238  -16.3596   24.1455 C   0  0  0  0  0  0  0  0  0  0  0  0
    8.3964  -17.2625   24.4055 O   0  0  0  0  0  0  0  0  0  0  0  0
    7.7122  -15.6069   22.9518 N   0  0  0  0  0  0  0  0  0  0  0  0
    6.8986  -14.5472   22.4092 C   0  0  0  0  0  0  0  0  0  0  0  0
    7.9670  -13.5793   21.8777 C   0  0  0  0  0  0  0  0  0  0  0  0
    8.7837  -14.6030   21.0686 C   0  0  0  0  0  0  0  0  0  0  0  0
    8.8078  -15.8054   22.0221 C   0  0  1  0  0  0  0  0  0  0  0  0
   10.1369  -15.7915   22.6612 C   0  0  0  0  0  0  0  0  0  0  0  0
   10.3259  -15.1225   23.6939 O   0  0  0  0  0  0  0  0  0  0  0  0
   12.4882  -18.1133   23.4280 C   0  0  0  0  0  0  0  0  0  0  0  0
   12.4662  -16.7428   22.7999 C   0  0  2  0  0  0  0  0  0  0  0  0
   11.2002  -16.5346   22.1073 N   0  0  0  0  0  0  0  0  0  0  0  0
   13.5990  -16.5700   21.8843 C   0  0  0  0  0  0  0  0  0  0  0  0
   13.5135  -16.6816   20.6499 O   0  0  0  0  0  0  0  0  0  0  0  0
   14.8458  -16.2632   22.4191 O   0  0  0  0  0  0  0  0  0  0  0  0
  2  1  1  0
  3  2  1  0
  4  5  1  0
  4  3  1  0
  5  6  1  1
  7  5  1  0
  8  7  2  0
  9 13  1  0
  9  7  1  0
 10  9  1  0
 11 10  1  0
 11 12  1  0
 12 13  1  0
 13 14  1  1
 14 15  2  0
 14 18  1  0
 17 19  1  0
 17 16  1  6
 18 17  1  0
 19 21  1  0
 20 19  2  0
M  END
$$$$
