MPA.pdb
     RDKit          3D

 21 21  0  0  1  0  0  0  0  0999 V2000
    7.7290  -11.5128   26.6303 C   0  0  0  0  0  0  0  0  0  0  0  0
    6.4923  -12.6317   27.3775 S   0  0  0  0  0  0  0  0  0  0  0  0
    6.0863  -13.9502   26.2201 C   0  0  0  0  0  0  0  0  0  0  0  0
    7.1944  -15.0090   26.2178 C   0  0  0  0  0  0  0  0  0  0  0  0
    6.7162  -16.1875   25.3508 C   0  0  2  0  0  0  0  0  0  0  0  0
    6.4775  -17.2751   26.2266 N   0  0  0  0  0  0  0  0  0  0  0  0
    7.6085  -16.4085   24.2226 C   0  0  0  0  0  0  0  0  0  0  0  0
    8.3399  -17.4588   24.3020 O   0  0  0  0  0  0  0  0  0  0  0  0
    7.7605  -15.6047   23.0574 N   0  0  0  0  0  0  0  0  0  0  0  0
    7.0102  -14.4415   22.6530 C   0  0  0  0  0  0  0  0  0  0  0  0
    8.1164  -13.5478   22.0713 C   0  0  0  0  0  0  0  0  0  0  0  0
    8.7490  -14.5922   21.1339 C   0  0  0  0  0  0  0  0  0  0  0  0
    8.7406  -15.8479   22.0161 C   0  0  1  0  0  0  0  0  0  0  0  0
   10.1176  -15.9989   22.5223 C   0  0  0  0  0  0  0  0  0  0  0  0
   10.5792  -15.1730   23.3315 O   0  0  0  0  0  0  0  0  0  0  0  0
   12.6450  -18.7703   22.3197 C   0  0  0  0  0  0  0  0  0  0  0  0
   12.2355  -17.3581   22.6534 C   0  0  2  0  0  0  0  0  0  0  0  0
   10.9186  -17.0779   22.0937 N   0  0  0  0  0  0  0  0  0  0  0  0
   13.2287  -16.3967   22.1627 C   0  0  0  0  0  0  0  0  0  0  0  0
   14.2426  -16.0647   22.7991 O   0  0  0  0  0  0  0  0  0  0  0  0
   13.0332  -15.8175   20.9133 O   0  0  0  0  0  0  0  0  0  0  0  0
  2  1  1  0
  3  2  1  0
  4  5  1  0
  4  3  1  0
  5  6  1  1
  7  5  1  0
  8  7  2  0
  9 13  1  0
  9  7  1  0
 10  9  1  0
 11 10  1  0
 11 12  1  0
 12 13  1  0
 13 14  1  1
 14 15  2  0
 14 18  1  0
 17 19  1  0
 17 16  1  6
 18 17  1  0
 19 21  1  0
 20 19  2  0
M  END
$$$$
