MPA.pdb
     RDKit          3D

 21 21  0  0  1  0  0  0  0  0999 V2000
    5.3787  -12.2266   27.4839 C   0  0  0  0  0  0  0  0  0  0  0  0
    7.0664  -12.8017   27.0833 S   0  0  0  0  0  0  0  0  0  0  0  0
    7.0457  -14.5736   26.7626 C   0  0  0  0  0  0  0  0  0  0  0  0
    6.1687  -14.8781   25.5431 C   0  0  0  0  0  0  0  0  0  0  0  0
    6.4821  -16.3140   25.0859 C   0  0  2  0  0  0  0  0  0  0  0  0
    6.6071  -17.1026   26.2562 N   0  0  0  0  0  0  0  0  0  0  0  0
    7.5815  -16.3361   24.1328 C   0  0  0  0  0  0  0  0  0  0  0  0
    8.5863  -17.0560   24.4741 O   0  0  0  0  0  0  0  0  0  0  0  0
    7.6688  -15.6603   22.8827 N   0  0  0  0  0  0  0  0  0  0  0  0
    6.7539  -14.7112   22.2983 C   0  0  0  0  0  0  0  0  0  0  0  0
    7.7216  -13.7031   21.6594 C   0  0  0  0  0  0  0  0  0  0  0  0
    8.5927  -14.7154   20.8938 C   0  0  0  0  0  0  0  0  0  0  0  0
    8.7461  -15.8389   21.9280 C   0  0  1  0  0  0  0  0  0  0  0  0
   10.0897  -15.6727   22.5131 C   0  0  0  0  0  0  0  0  0  0  0  0
   10.2300  -15.0691   23.5929 O   0  0  0  0  0  0  0  0  0  0  0  0
   12.3160  -17.3735   23.6739 C   0  0  0  0  0  0  0  0  0  0  0  0
   12.4980  -16.4142   22.5250 C   0  0  2  0  0  0  0  0  0  0  0  0
   11.2220  -16.1955   21.8543 N   0  0  0  0  0  0  0  0  0  0  0  0
   13.5063  -16.9126   21.5835 C   0  0  0  0  0  0  0  0  0  0  0  0
   13.2361  -17.3822   20.4656 O   0  0  0  0  0  0  0  0  0  0  0  0
   14.8459  -16.8607   21.9544 O   0  0  0  0  0  0  0  0  0  0  0  0
  2  1  1  0
  3  2  1  0
  4  5  1  0
  4  3  1  0
  5  6  1  1
  7  5  1  0
  8  7  2  0
  9 13  1  0
  9  7  1  0
 10  9  1  0
 11 10  1  0
 11 12  1  0
 12 13  1  0
 13 14  1  1
 14 15  2  0
 14 18  1  0
 17 19  1  0
 17 16  1  1
 18 17  1  0
 19 21  1  0
 20 19  2  0
M  END
$$$$
