MPA.pdb
     RDKit          3D

 21 21  0  0  1  0  0  0  0  0999 V2000
    6.7059  -11.0529   26.6774 C   0  0  0  0  0  0  0  0  0  0  0  0
    6.6912  -12.5247   27.7607 S   0  0  0  0  0  0  0  0  0  0  0  0
    6.1111  -13.9562   26.8349 C   0  0  0  0  0  0  0  0  0  0  0  0
    7.2442  -14.5185   25.9695 C   0  0  0  0  0  0  0  0  0  0  0  0
    6.7019  -15.7555   25.2313 C   0  0  2  0  0  0  0  0  0  0  0  0
    6.3911  -16.7230   26.2184 N   0  0  0  0  0  0  0  0  0  0  0  0
    7.5874  -16.1531   24.1471 C   0  0  0  0  0  0  0  0  0  0  0  0
    8.3289  -17.1703   24.3923 O   0  0  0  0  0  0  0  0  0  0  0  0
    7.7234  -15.5518   22.8638 N   0  0  0  0  0  0  0  0  0  0  0  0
    6.9477  -14.4896   22.2725 C   0  0  0  0  0  0  0  0  0  0  0  0
    8.0345  -13.6807   21.5477 C   0  0  0  0  0  0  0  0  0  0  0  0
    8.6923  -14.8523   20.7964 C   0  0  0  0  0  0  0  0  0  0  0  0
    8.7106  -15.9431   21.8757 C   0  0  1  0  0  0  0  0  0  0  0  0
   10.0898  -15.9764   22.3974 C   0  0  0  0  0  0  0  0  0  0  0  0
   10.5278  -15.0211   23.0649 O   0  0  0  0  0  0  0  0  0  0  0  0
   12.5524  -18.6836   22.9712 C   0  0  0  0  0  0  0  0  0  0  0  0
   12.2536  -17.2281   22.7150 C   0  0  2  0  0  0  0  0  0  0  0  0
   10.9194  -17.0885   22.1437 N   0  0  0  0  0  0  0  0  0  0  0  0
   13.2654  -16.6346   21.8345 C   0  0  0  0  0  0  0  0  0  0  0  0
   14.4261  -16.3738   22.1924 O   0  0  0  0  0  0  0  0  0  0  0  0
   12.9151  -16.3430   20.5203 O   0  0  0  0  0  0  0  0  0  0  0  0
  2  1  1  0
  3  2  1  0
  4  5  1  0
  4  3  1  0
  5  6  1  1
  7  5  1  0
  8  7  2  0
  9 13  1  0
  9  7  1  0
 10  9  1  0
 11 10  1  0
 11 12  1  0
 12 13  1  0
 13 14  1  1
 14 15  2  0
 14 18  1  0
 17 19  1  0
 17 16  1  6
 18 17  1  0
 19 21  1  0
 20 19  2  0
M  END
$$$$
