MPA.pdb
     RDKit          3D

 21 21  0  0  1  0  0  0  0  0999 V2000
    5.8410  -11.6756   27.1573 C   0  0  0  0  0  0  0  0  0  0  0  0
    7.4444  -12.5524   27.1709 S   0  0  0  0  0  0  0  0  0  0  0  0
    7.1980  -14.2789   26.7224 C   0  0  0  0  0  0  0  0  0  0  0  0
    6.5238  -14.3755   25.3494 C   0  0  0  0  0  0  0  0  0  0  0  0
    6.4920  -15.8603   24.9451 C   0  0  2  0  0  0  0  0  0  0  0  0
    6.5013  -16.6156   26.1437 N   0  0  0  0  0  0  0  0  0  0  0  0
    7.5098  -16.1576   23.9485 C   0  0  0  0  0  0  0  0  0  0  0  0
    8.3660  -17.0487   24.2908 O   0  0  0  0  0  0  0  0  0  0  0  0
    7.6622  -15.5815   22.6554 N   0  0  0  0  0  0  0  0  0  0  0  0
    6.8102  -14.6366   21.9767 C   0  0  0  0  0  0  0  0  0  0  0  0
    7.8421  -13.7254   21.2945 C   0  0  0  0  0  0  0  0  0  0  0  0
    8.6821  -14.8315   20.6307 C   0  0  0  0  0  0  0  0  0  0  0  0
    8.7537  -15.8809   21.7482 C   0  0  1  0  0  0  0  0  0  0  0  0
   10.0883  -15.7349   22.3587 C   0  0  0  0  0  0  0  0  0  0  0  0
   10.2114  -15.1741   23.4634 O   0  0  0  0  0  0  0  0  0  0  0  0
   12.1321  -17.7936   23.3195 C   0  0  0  0  0  0  0  0  0  0  0  0
   12.4403  -16.6384   22.4008 C   0  0  2  0  0  0  0  0  0  0  0  0
   11.2314  -16.2286   21.6961 N   0  0  0  0  0  0  0  0  0  0  0  0
   13.5036  -16.9931   21.4548 C   0  0  0  0  0  0  0  0  0  0  0  0
   13.2948  -17.4721   20.3277 O   0  0  0  0  0  0  0  0  0  0  0  0
   14.8262  -16.7850   21.8320 O   0  0  0  0  0  0  0  0  0  0  0  0
  2  1  1  0
  3  2  1  0
  4  5  1  0
  4  3  1  0
  5  6  1  1
  7  5  1  0
  8  7  2  0
  9 13  1  0
  9  7  1  0
 10  9  1  0
 11 10  1  0
 11 12  1  0
 12 13  1  0
 13 14  1  1
 14 15  2  0
 14 18  1  0
 17 19  1  0
 17 16  1  6
 18 17  1  0
 19 21  1  0
 20 19  2  0
M  END
$$$$
