WHH.pdb
     RDKit          3D

 35 38  0  0  1  0  0  0  0  0999 V2000
   26.5639  -21.2499  -16.7095 N   0  0  0  0  0  0  0  0  0  0  0  0
   25.8215  -21.2088  -15.4825 C   0  0  1  0  0  0  0  0  0  0  0  0
   26.0435  -19.8884  -14.7999 C   0  0  0  0  0  0  0  0  0  0  0  0
   27.2529  -19.9428  -13.9512 C   0  0  0  0  0  0  0  0  0  0  0  0
   28.4463  -19.2665  -14.2419 C   0  0  0  0  0  0  0  0  0  0  0  0
   29.3323  -19.4968  -13.2621 N   0  0  0  0  0  0  0  0  0  0  0  0
   28.7465  -20.2973  -12.3558 C   0  0  0  0  0  0  0  0  0  0  0  0
   29.2439  -20.8268  -11.1677 C   0  0  0  0  0  0  0  0  0  0  0  0
   28.4222  -21.6472  -10.4066 C   0  0  0  0  0  0  0  0  0  0  0  0
   27.1495  -21.9482  -10.7865 C   0  0  0  0  0  0  0  0  0  0  0  0
   26.6846  -21.4066  -11.9717 C   0  0  0  0  0  0  0  0  0  0  0  0
   27.4603  -20.5898  -12.7561 C   0  0  0  0  0  0  0  0  0  0  0  0
   24.3515  -21.3529  -15.7462 C   0  0  0  0  0  0  0  0  0  0  0  0
   23.8417  -21.0840  -16.8641 O   0  0  0  0  0  0  0  0  0  0  0  0
   23.4740  -21.8059  -14.7223 N   0  0  0  0  0  0  0  0  0  0  0  0
   22.0948  -22.0885  -14.9739 C   0  0  1  0  0  0  0  0  0  0  0  0
   21.8123  -23.5064  -14.4685 C   0  0  0  0  0  0  0  0  0  0  0  0
   22.6767  -24.5107  -15.1555 C   0  0  0  0  0  0  0  0  0  0  0  0
   23.5327  -25.4029  -14.5595 C   0  0  0  0  0  0  0  0  0  0  0  0
   24.1060  -26.1114  -15.5445 N   0  0  0  0  0  0  0  0  0  0  0  0
   23.6467  -25.7025  -16.7345 C   0  0  0  0  0  0  0  0  0  0  0  0
   22.7690  -24.7185  -16.4850 N   0  0  0  0  0  0  0  0  0  0  0  0
   21.1585  -21.1524  -14.3084 C   0  0  0  0  0  0  0  0  0  0  0  0
   21.3113  -20.8488  -13.0808 O   0  0  0  0  0  0  0  0  0  0  0  0
   20.0637  -20.5473  -14.9711 N   0  0  0  0  0  0  0  0  0  0  0  0
   19.1394  -19.6130  -14.3064 C   0  0  1  0  0  0  0  0  0  0  0  0
   18.9242  -18.4083  -15.1934 C   0  0  0  0  0  0  0  0  0  0  0  0
   20.1083  -17.5475  -15.1821 C   0  0  0  0  0  0  0  0  0  0  0  0
   21.2386  -17.8103  -14.3910 C   0  0  0  0  0  0  0  0  0  0  0  0
   22.1489  -16.8526  -14.5963 N   0  0  0  0  0  0  0  0  0  0  0  0
   21.6580  -15.9932  -15.4766 C   0  0  0  0  0  0  0  0  0  0  0  0
   20.4337  -16.4206  -15.8207 N   0  0  0  0  0  0  0  0  0  0  0  0
   17.8665  -20.3433  -14.1999 C   0  0  0  0  0  0  0  0  0  0  0  0
   17.6567  -21.3896  -14.8319 O   0  0  0  0  0  0  0  0  0  0  0  0
   16.8549  -19.8815  -13.3831 O   0  0  0  0  0  0  0  0  0  0  0  0
  2  1  1  6
  3  2  1  0
  4  3  1  0
  5  4  2  0
  6  7  1  0
  6  5  1  0
  7 12  2  0
  8  7  1  0
  8  9  2  0
  9 10  1  0
 10 11  2  0
 12  4  1  0
 12 11  1  0
 13  2  1  0
 13 14  2  0
 15 13  1  0
 16 17  1  1
 16 15  1  0
 18 22  1  0
 18 17  1  0
 19 18  2  0
 20 19  1  0
 20 21  1  0
 21 22  2  0
 23 16  1  0
 24 23  2  0
 25 23  1  0
 26 27  1  6
 26 25  1  0
 27 28  1  0
 28 29  2  0
 29 30  1  0
 31 30  1  0
 32 28  1  0
 32 31  2  0
 33 35  1  0
 33 26  1  0
 34 33  2  0
M  END
$$$$
