WHH.pdb
     RDKit          3D

 35 38  0  0  1  0  0  0  0  0999 V2000
   27.7112  -21.9817  -14.2599 N   0  0  0  0  0  0  0  0  0  0  0  0
   26.7865  -21.4721  -13.2884 C   0  0  1  0  0  0  0  0  0  0  0  0
   27.3062  -20.1803  -12.7229 C   0  0  0  0  0  0  0  0  0  0  0  0
   28.1792  -20.4407  -11.5583 C   0  0  0  0  0  0  0  0  0  0  0  0
   29.5666  -20.6253  -11.6437 C   0  0  0  0  0  0  0  0  0  0  0  0
   30.0627  -20.8075  -10.4113 N   0  0  0  0  0  0  0  0  0  0  0  0
   29.0402  -20.7462   -9.5417 C   0  0  0  0  0  0  0  0  0  0  0  0
   29.0285  -20.8797   -8.1555 C   0  0  0  0  0  0  0  0  0  0  0  0
   27.8165  -20.7823   -7.4855 C   0  0  0  0  0  0  0  0  0  0  0  0
   26.6437  -20.5612   -8.1415 C   0  0  0  0  0  0  0  0  0  0  0  0
   26.6884  -20.4329   -9.5183 C   0  0  0  0  0  0  0  0  0  0  0  0
   27.8633  -20.5209  -10.2229 C   0  0  0  0  0  0  0  0  0  0  0  0
   25.4521  -21.1990  -13.9177 C   0  0  0  0  0  0  0  0  0  0  0  0
   25.3414  -20.6307  -15.0342 O   0  0  0  0  0  0  0  0  0  0  0  0
   24.2502  -21.5809  -13.2593 N   0  0  0  0  0  0  0  0  0  0  0  0
   22.9652  -21.4051  -13.8618 C   0  0  1  0  0  0  0  0  0  0  0  0
   22.3079  -22.7847  -13.9632 C   0  0  0  0  0  0  0  0  0  0  0  0
   21.0096  -22.7157  -14.6963 C   0  0  0  0  0  0  0  0  0  0  0  0
   20.7879  -22.1403  -15.9226 C   0  0  0  0  0  0  0  0  0  0  0  0
   19.4855  -22.3048  -16.2013 N   0  0  0  0  0  0  0  0  0  0  0  0
   18.8790  -22.9592  -15.2023 C   0  0  0  0  0  0  0  0  0  0  0  0
   19.8238  -23.2073  -14.2821 N   0  0  0  0  0  0  0  0  0  0  0  0
   22.0643  -20.5052  -13.1040 C   0  0  0  0  0  0  0  0  0  0  0  0
   21.3306  -20.9627  -12.1686 O   0  0  0  0  0  0  0  0  0  0  0  0
   21.9611  -19.1163  -13.3577 N   0  0  0  0  0  0  0  0  0  0  0  0
   20.8612  -18.5216  -14.1360 C   0  0  1  0  0  0  0  0  0  0  0  0
   20.8531  -19.1183  -15.5246 C   0  0  0  0  0  0  0  0  0  0  0  0
   19.8680  -18.4380  -16.3672 C   0  0  0  0  0  0  0  0  0  0  0  0
   19.3245  -17.1827  -16.0489 C   0  0  0  0  0  0  0  0  0  0  0  0
   18.4594  -16.8253  -17.0038 N   0  0  0  0  0  0  0  0  0  0  0  0
   18.4229  -17.7871  -17.9139 C   0  0  0  0  0  0  0  0  0  0  0  0
   19.2719  -18.7488  -17.5212 N   0  0  0  0  0  0  0  0  0  0  0  0
   19.6319  -18.9404  -13.4445 C   0  0  0  0  0  0  0  0  0  0  0  0
   18.6997  -18.1510  -13.2297 O   0  0  0  0  0  0  0  0  0  0  0  0
   19.4758  -20.2402  -13.0089 O   0  0  0  0  0  0  0  0  0  0  0  0
  2  1  1  6
  3  2  1  0
  4  3  1  0
  5  4  2  0
  6  7  1  0
  6  5  1  0
  7 12  2  0
  8  7  1  0
  8  9  2  0
  9 10  1  0
 10 11  2  0
 12  4  1  0
 12 11  1  0
 13  2  1  0
 13 14  2  0
 15 13  1  0
 16 17  1  1
 16 15  1  0
 18 22  1  0
 18 17  1  0
 19 18  2  0
 20 19  1  0
 20 21  1  0
 21 22  2  0
 23 16  1  0
 24 23  2  0
 25 23  1  0
 26 27  1  6
 26 25  1  0
 27 28  1  0
 28 29  2  0
 29 30  1  0
 31 30  1  0
 32 28  1  0
 32 31  2  0
 33 35  1  0
 33 26  1  0
 34 33  2  0
M  END
$$$$
