WHH.pdb
     RDKit          3D

 35 38  0  0  1  0  0  0  0  0999 V2000
   15.9321  -10.2054  -19.1721 N   0  0  0  0  0  0  0  0  0  0  0  0
   17.2115   -9.6376  -18.8573 C   0  0  1  0  0  0  0  0  0  0  0  0
   17.2114   -8.1721  -19.1906 C   0  0  0  0  0  0  0  0  0  0  0  0
   17.4912   -7.9694  -20.6281 C   0  0  0  0  0  0  0  0  0  0  0  0
   16.6415   -8.3929  -21.6601 C   0  0  0  0  0  0  0  0  0  0  0  0
   17.1665   -8.0294  -22.8392 N   0  0  0  0  0  0  0  0  0  0  0  0
   18.3224   -7.3889  -22.5963 C   0  0  0  0  0  0  0  0  0  0  0  0
   19.2424   -6.8268  -23.4779 C   0  0  0  0  0  0  0  0  0  0  0  0
   20.3797   -6.2218  -22.9603 C   0  0  0  0  0  0  0  0  0  0  0  0
   20.6210   -6.1624  -21.6214 C   0  0  0  0  0  0  0  0  0  0  0  0
   19.6881   -6.7296  -20.7715 C   0  0  0  0  0  0  0  0  0  0  0  0
   18.5489   -7.3374  -21.2376 C   0  0  0  0  0  0  0  0  0  0  0  0
   17.5102   -9.7801  -17.3939 C   0  0  0  0  0  0  0  0  0  0  0  0
   16.6331   -9.6013  -16.5104 O   0  0  0  0  0  0  0  0  0  0  0  0
   18.8173  -10.1279  -16.9530 N   0  0  0  0  0  0  0  0  0  0  0  0
   19.1594  -10.1906  -15.5659 C   0  0  1  0  0  0  0  0  0  0  0  0
   20.1346  -11.3570  -15.3810 C   0  0  0  0  0  0  0  0  0  0  0  0
   19.4567  -12.6704  -15.5890 C   0  0  0  0  0  0  0  0  0  0  0  0
   18.1135  -12.8813  -15.7771 C   0  0  0  0  0  0  0  0  0  0  0  0
   17.9427  -14.2044  -15.9225 N   0  0  0  0  0  0  0  0  0  0  0  0
   19.1214  -14.8343  -15.8338 C   0  0  0  0  0  0  0  0  0  0  0  0
   20.0457  -13.8832  -15.6287 N   0  0  0  0  0  0  0  0  0  0  0  0
   19.7932   -8.9558  -15.0469 C   0  0  0  0  0  0  0  0  0  0  0  0
   20.1016   -8.8559  -13.8150 O   0  0  0  0  0  0  0  0  0  0  0  0
   20.0929   -7.8363  -15.8597 N   0  0  0  0  0  0  0  0  0  0  0  0
   20.7651   -6.6296  -15.3486 C   0  0  1  0  0  0  0  0  0  0  0  0
   21.7701   -6.1480  -16.3696 C   0  0  0  0  0  0  0  0  0  0  0  0
   22.7982   -7.1657  -16.5940 C   0  0  0  0  0  0  0  0  0  0  0  0
   22.8302   -8.3876  -15.9022 C   0  0  0  0  0  0  0  0  0  0  0  0
   23.8795   -9.1016  -16.3229 N   0  0  0  0  0  0  0  0  0  0  0  0
   24.5181   -8.3989  -17.2465 C   0  0  0  0  0  0  0  0  0  0  0  0
   23.8601   -7.2398  -17.4005 N   0  0  0  0  0  0  0  0  0  0  0  0
   19.7024   -5.6188  -15.2319 C   0  0  0  0  0  0  0  0  0  0  0  0
   18.5371   -5.8491  -15.5885 O   0  0  0  0  0  0  0  0  0  0  0  0
   19.9725   -4.3683  -14.7150 O   0  0  0  0  0  0  0  0  0  0  0  0
  2  1  1  1
  3  2  1  0
  4  3  1  0
  5  4  2  0
  6  7  1  0
  6  5  1  0
  7 12  2  0
  8  7  1  0
  8  9  2  0
  9 10  1  0
 10 11  2  0
 12  4  1  0
 12 11  1  0
 13  2  1  0
 13 14  2  0
 15 13  1  0
 16 17  1  6
 16 15  1  0
 18 22  1  0
 18 17  1  0
 19 18  2  0
 20 19  1  0
 20 21  1  0
 21 22  2  0
 23 16  1  0
 24 23  2  0
 25 23  1  0
 26 27  1  6
 26 25  1  0
 27 28  1  0
 28 29  2  0
 29 30  1  0
 31 30  1  0
 32 28  1  0
 32 31  2  0
 33 35  1  0
 33 26  1  0
 34 33  2  0
M  END
$$$$
