WHH.pdb
     RDKit          3D

 35 38  0  0  1  0  0  0  0  0999 V2000
   27.5940  -19.6338  -13.2659 N   0  0  0  0  0  0  0  0  0  0  0  0
   27.3268  -21.0427  -13.2190 C   0  0  1  0  0  0  0  0  0  0  0  0
   26.3886  -21.3430  -12.0840 C   0  0  0  0  0  0  0  0  0  0  0  0
   27.0099  -20.9833  -10.7915 C   0  0  0  0  0  0  0  0  0  0  0  0
   26.3631  -20.2482   -9.7878 C   0  0  0  0  0  0  0  0  0  0  0  0
   27.1853  -20.1219   -8.7361 N   0  0  0  0  0  0  0  0  0  0  0  0
   28.3351  -20.7504   -9.0334 C   0  0  0  0  0  0  0  0  0  0  0  0
   29.4992  -20.8996   -8.2835 C   0  0  0  0  0  0  0  0  0  0  0  0
   30.5643  -21.5981   -8.8358 C   0  0  0  0  0  0  0  0  0  0  0  0
   30.5044  -22.1391  -10.0841 C   0  0  0  0  0  0  0  0  0  0  0  0
   29.3343  -21.9738  -10.8038 C   0  0  0  0  0  0  0  0  0  0  0  0
   28.2554  -21.2920  -10.2984 C   0  0  0  0  0  0  0  0  0  0  0  0
   26.6776  -21.5027  -14.4911 C   0  0  0  0  0  0  0  0  0  0  0  0
   26.1627  -20.6984  -15.3096 O   0  0  0  0  0  0  0  0  0  0  0  0
   26.6236  -22.8866  -14.8162 N   0  0  0  0  0  0  0  0  0  0  0  0
   25.4937  -23.4695  -15.4711 C   0  0  1  0  0  0  0  0  0  0  0  0
   25.8540  -24.9174  -15.8167 C   0  0  0  0  0  0  0  0  0  0  0  0
   26.8619  -24.9792  -16.9159 C   0  0  0  0  0  0  0  0  0  0  0  0
   27.3041  -23.9319  -17.6851 C   0  0  0  0  0  0  0  0  0  0  0  0
   28.2031  -24.4326  -18.5465 N   0  0  0  0  0  0  0  0  0  0  0  0
   28.3448  -25.7502  -18.3515 C   0  0  0  0  0  0  0  0  0  0  0  0
   27.5164  -26.0767  -17.3475 N   0  0  0  0  0  0  0  0  0  0  0  0
   24.2590  -23.4706  -14.6518 C   0  0  0  0  0  0  0  0  0  0  0  0
   24.3215  -23.6195  -13.3882 O   0  0  0  0  0  0  0  0  0  0  0  0
   22.9637  -23.3090  -15.1994 N   0  0  0  0  0  0  0  0  0  0  0  0
   21.8830  -22.5872  -14.5063 C   0  0  1  0  0  0  0  0  0  0  0  0
   22.2575  -21.1282  -14.3816 C   0  0  0  0  0  0  0  0  0  0  0  0
   21.1947  -20.3841  -13.7035 C   0  0  0  0  0  0  0  0  0  0  0  0
   19.9951  -20.9782  -13.2784 C   0  0  0  0  0  0  0  0  0  0  0  0
   19.2292  -20.0497  -12.6959 N   0  0  0  0  0  0  0  0  0  0  0  0
   19.8776  -18.8951  -12.7275 C   0  0  0  0  0  0  0  0  0  0  0  0
   21.0551  -19.1083  -13.3342 N   0  0  0  0  0  0  0  0  0  0  0  0
   20.7179  -22.6920  -15.3986 C   0  0  0  0  0  0  0  0  0  0  0  0
   20.8336  -22.6652  -16.6331 O   0  0  0  0  0  0  0  0  0  0  0  0
   19.4450  -22.8258  -14.8833 O   0  0  0  0  0  0  0  0  0  0  0  0
  2  1  1  6
  3  2  1  0
  4  3  1  0
  5  4  2  0
  6  7  1  0
  6  5  1  0
  7 12  2  0
  8  7  1  0
  8  9  2  0
  9 10  1  0
 10 11  2  0
 12  4  1  0
 12 11  1  0
 13  2  1  0
 13 14  2  0
 15 13  1  0
 16 17  1  1
 16 15  1  0
 18 22  1  0
 18 17  1  0
 19 18  2  0
 20 19  1  0
 20 21  1  0
 21 22  2  0
 23 16  1  0
 24 23  2  0
 25 23  1  0
 26 27  1  6
 26 25  1  0
 27 28  1  0
 28 29  2  0
 29 30  1  0
 31 30  1  0
 32 28  1  0
 32 31  2  0
 33 35  1  0
 33 26  1  0
 34 33  2  0
M  END
$$$$
