WHH.pdb
     RDKit          3D

 35 38  0  0  1  0  0  0  0  0999 V2000
   26.7982  -27.3169  -18.5019 N   0  0  0  0  0  0  0  0  0  0  0  0
   27.2118  -27.9209  -17.2680 C   0  0  1  0  0  0  0  0  0  0  0  0
   26.4824  -27.2803  -16.1208 C   0  0  0  0  0  0  0  0  0  0  0  0
   26.5991  -25.8081  -16.1922 C   0  0  0  0  0  0  0  0  0  0  0  0
   25.5187  -24.9273  -16.0405 C   0  0  0  0  0  0  0  0  0  0  0  0
   25.9644  -23.6656  -16.1269 N   0  0  0  0  0  0  0  0  0  0  0  0
   27.2920  -23.7099  -16.3291 C   0  0  0  0  0  0  0  0  0  0  0  0
   28.2126  -22.6776  -16.4919 C   0  0  0  0  0  0  0  0  0  0  0  0
   29.5470  -22.9994  -16.6994 C   0  0  0  0  0  0  0  0  0  0  0  0
   29.9802  -24.2896  -16.7484 C   0  0  0  0  0  0  0  0  0  0  0  0
   29.0415  -25.2924  -16.5830 C   0  0  0  0  0  0  0  0  0  0  0  0
   27.7120  -25.0220  -16.3743 C   0  0  0  0  0  0  0  0  0  0  0  0
   26.8911  -29.3866  -17.2607 C   0  0  0  0  0  0  0  0  0  0  0  0
   26.0238  -29.8867  -18.0219 O   0  0  0  0  0  0  0  0  0  0  0  0
   27.5700  -30.2710  -16.3771 N   0  0  0  0  0  0  0  0  0  0  0  0
   27.3268  -31.6803  -16.3779 C   0  0  1  0  0  0  0  0  0  0  0  0
   28.4915  -32.3524  -15.6449 C   0  0  0  0  0  0  0  0  0  0  0  0
   29.6399  -32.6038  -16.5646 C   0  0  0  0  0  0  0  0  0  0  0  0
   29.6463  -32.4600  -17.9296 C   0  0  0  0  0  0  0  0  0  0  0  0
   30.8770  -32.7897  -18.3511 N   0  0  0  0  0  0  0  0  0  0  0  0
   31.6446  -33.1346  -17.3090 C   0  0  0  0  0  0  0  0  0  0  0  0
   30.8754  -33.0173  -16.2156 N   0  0  0  0  0  0  0  0  0  0  0  0
   26.0604  -32.0718  -15.7155 C   0  0  0  0  0  0  0  0  0  0  0  0
   25.6658  -31.4671  -14.6661 O   0  0  0  0  0  0  0  0  0  0  0  0
   25.2254  -33.1119  -16.1896 N   0  0  0  0  0  0  0  0  0  0  0  0
   23.8869  -33.3820  -15.6378 C   0  0  1  0  0  0  0  0  0  0  0  0
   22.9971  -33.9273  -16.7312 C   0  0  0  0  0  0  0  0  0  0  0  0
   22.5204  -32.8423  -17.5906 C   0  0  0  0  0  0  0  0  0  0  0  0
   22.3326  -31.5281  -17.1320 C   0  0  0  0  0  0  0  0  0  0  0  0
   21.8938  -30.7703  -18.1424 N   0  0  0  0  0  0  0  0  0  0  0  0
   21.7920  -31.5325  -19.2210 C   0  0  0  0  0  0  0  0  0  0  0  0
   22.1705  -32.7730  -18.8776 N   0  0  0  0  0  0  0  0  0  0  0  0
   24.0912  -34.4399  -14.6359 C   0  0  0  0  0  0  0  0  0  0  0  0
   24.9717  -35.3036  -14.7655 O   0  0  0  0  0  0  0  0  0  0  0  0
   23.3005  -34.5041  -13.5070 O   0  0  0  0  0  0  0  0  0  0  0  0
  2  1  1  6
  3  2  1  0
  4  3  1  0
  5  4  2  0
  6  7  1  0
  6  5  1  0
  7 12  2  0
  8  7  1  0
  8  9  2  0
  9 10  1  0
 10 11  2  0
 12  4  1  0
 12 11  1  0
 13  2  1  0
 13 14  2  0
 15 13  1  0
 16 17  1  1
 16 15  1  0
 18 22  1  0
 18 17  1  0
 19 18  2  0
 20 19  1  0
 20 21  1  0
 21 22  2  0
 23 16  1  0
 24 23  2  0
 25 23  1  0
 26 27  1  6
 26 25  1  0
 27 28  1  0
 28 29  2  0
 29 30  1  0
 31 30  1  0
 32 28  1  0
 32 31  2  0
 33 35  1  0
 33 26  1  0
 34 33  2  0
M  END
$$$$
