WHH.pdb
     RDKit          3D

 35 38  0  0  1  0  0  0  0  0999 V2000
   26.7902  -11.9000  -20.5970 N   0  0  0  0  0  0  0  0  0  0  0  0
   26.3585  -10.5391  -20.4556 C   0  0  1  0  0  0  0  0  0  0  0  0
   25.4960  -10.1569  -21.6255 C   0  0  0  0  0  0  0  0  0  0  0  0
   26.3036  -10.0894  -22.8621 C   0  0  0  0  0  0  0  0  0  0  0  0
   26.5830  -11.1952  -23.6779 C   0  0  0  0  0  0  0  0  0  0  0  0
   27.3077  -10.7923  -24.7317 N   0  0  0  0  0  0  0  0  0  0  0  0
   27.5015   -9.4677  -24.6171 C   0  0  0  0  0  0  0  0  0  0  0  0
   28.1915   -8.5842  -25.4435 C   0  0  0  0  0  0  0  0  0  0  0  0
   28.2502   -7.2438  -25.0869 C   0  0  0  0  0  0  0  0  0  0  0  0
   27.6556   -6.7697  -23.9572 C   0  0  0  0  0  0  0  0  0  0  0  0
   26.9777   -7.6722  -23.1572 C   0  0  0  0  0  0  0  0  0  0  0  0
   26.8922   -9.0061  -23.4701 C   0  0  0  0  0  0  0  0  0  0  0  0
   25.5469  -10.3667  -19.2055 C   0  0  0  0  0  0  0  0  0  0  0  0
   24.6641  -11.1933  -18.8603 O   0  0  0  0  0  0  0  0  0  0  0  0
   25.7546   -9.2435  -18.3575 N   0  0  0  0  0  0  0  0  0  0  0  0
   24.9506   -9.0078  -17.1985 C   0  0  1  0  0  0  0  0  0  0  0  0
   25.8917   -8.9036  -15.9946 C   0  0  0  0  0  0  0  0  0  0  0  0
   26.6066  -10.1910  -15.7505 C   0  0  0  0  0  0  0  0  0  0  0  0
   26.1639  -11.2457  -14.9918 C   0  0  0  0  0  0  0  0  0  0  0  0
   27.1152  -12.1907  -15.0444 N   0  0  0  0  0  0  0  0  0  0  0  0
   28.1372  -11.7750  -15.8039 C   0  0  0  0  0  0  0  0  0  0  0  0
   27.8153  -10.5449  -16.2332 N   0  0  0  0  0  0  0  0  0  0  0  0
   24.1370   -7.7716  -17.2728 C   0  0  0  0  0  0  0  0  0  0  0  0
   24.3859   -6.8858  -18.1539 O   0  0  0  0  0  0  0  0  0  0  0  0
   23.0582   -7.4983  -16.3981 N   0  0  0  0  0  0  0  0  0  0  0  0
   22.2074   -6.3024  -16.5214 C   0  0  1  0  0  0  0  0  0  0  0  0
   21.5825   -6.2744  -17.8974 C   0  0  0  0  0  0  0  0  0  0  0  0
   20.7860   -5.0586  -18.0721 C   0  0  0  0  0  0  0  0  0  0  0  0
   20.7588   -4.0187  -17.1285 C   0  0  0  0  0  0  0  0  0  0  0  0
   19.9467   -3.0510  -17.5668 N   0  0  0  0  0  0  0  0  0  0  0  0
   19.4548   -3.4197  -18.7402 C   0  0  0  0  0  0  0  0  0  0  0  0
   19.9655   -4.6253  -19.0327 N   0  0  0  0  0  0  0  0  0  0  0  0
   21.1365   -6.4896  -15.5299 C   0  0  0  0  0  0  0  0  0  0  0  0
   21.0928   -7.4862  -14.7931 O   0  0  0  0  0  0  0  0  0  0  0  0
   20.1361   -5.5502  -15.3869 O   0  0  0  0  0  0  0  0  0  0  0  0
  2  1  1  6
  3  2  1  0
  4  3  1  0
  5  4  2  0
  6  7  1  0
  6  5  1  0
  7 12  2  0
  8  7  1  0
  8  9  2  0
  9 10  1  0
 10 11  2  0
 12  4  1  0
 12 11  1  0
 13  2  1  0
 13 14  2  0
 15 13  1  0
 16 17  1  1
 16 15  1  0
 18 22  1  0
 18 17  1  0
 19 18  2  0
 20 19  1  0
 20 21  1  0
 21 22  2  0
 23 16  1  0
 24 23  2  0
 25 23  1  0
 26 27  1  6
 26 25  1  0
 27 28  1  0
 28 29  2  0
 29 30  1  0
 31 30  1  0
 32 28  1  0
 32 31  2  0
 33 35  1  0
 33 26  1  0
 34 33  2  0
M  END
$$$$
