WHH.pdb
     RDKit          3D

 35 38  0  0  1  0  0  0  0  0999 V2000
   22.4375  -13.0971  -15.7128 N   0  0  0  0  0  0  0  0  0  0  0  0
   21.6471  -12.0788  -16.3429 C   0  0  1  0  0  0  0  0  0  0  0  0
   20.2091  -12.2266  -15.9317 C   0  0  0  0  0  0  0  0  0  0  0  0
   19.6164  -13.4315  -16.5505 C   0  0  0  0  0  0  0  0  0  0  0  0
   19.7490  -14.7268  -16.0299 C   0  0  0  0  0  0  0  0  0  0  0  0
   19.0701  -15.5842  -16.8057 N   0  0  0  0  0  0  0  0  0  0  0  0
   18.5087  -14.8818  -17.8041 C   0  0  0  0  0  0  0  0  0  0  0  0
   17.7164  -15.3056  -18.8681 C   0  0  0  0  0  0  0  0  0  0  0  0
   17.2649  -14.3627  -19.7816 C   0  0  0  0  0  0  0  0  0  0  0  0
   17.5731  -13.0411  -19.6682 C   0  0  0  0  0  0  0  0  0  0  0  0
   18.3618  -12.6515  -18.6003 C   0  0  0  0  0  0  0  0  0  0  0  0
   18.8301  -13.5479  -17.6721 C   0  0  0  0  0  0  0  0  0  0  0  0
   22.1102  -10.7137  -15.9269 C   0  0  0  0  0  0  0  0  0  0  0  0
   22.1197  -10.3470  -14.7238 O   0  0  0  0  0  0  0  0  0  0  0  0
   22.5605   -9.7759  -16.8971 N   0  0  0  0  0  0  0  0  0  0  0  0
   22.9125   -8.4338  -16.5503 C   0  0  1  0  0  0  0  0  0  0  0  0
   24.2743   -8.1332  -17.1833 C   0  0  0  0  0  0  0  0  0  0  0  0
   25.3360   -9.0314  -16.6411 C   0  0  0  0  0  0  0  0  0  0  0  0
   25.1794  -10.0066  -15.6878 C   0  0  0  0  0  0  0  0  0  0  0  0
   26.3845  -10.5667  -15.5009 N   0  0  0  0  0  0  0  0  0  0  0  0
   27.2920   -9.9852  -16.2961 C   0  0  0  0  0  0  0  0  0  0  0  0
   26.6380   -9.0429  -16.9929 N   0  0  0  0  0  0  0  0  0  0  0  0
   21.9389   -7.4181  -17.0151 C   0  0  0  0  0  0  0  0  0  0  0  0
   21.3908   -7.5241  -18.1601 O   0  0  0  0  0  0  0  0  0  0  0  0
   21.5600   -6.2946  -16.2417 N   0  0  0  0  0  0  0  0  0  0  0  0
   20.6098   -5.2752  -16.7181 C   0  0  1  0  0  0  0  0  0  0  0  0
   19.2037   -5.8219  -16.6259 C   0  0  0  0  0  0  0  0  0  0  0  0
   18.2295   -4.7886  -16.9814 C   0  0  0  0  0  0  0  0  0  0  0  0
   18.3810   -3.9429  -18.0924 C   0  0  0  0  0  0  0  0  0  0  0  0
   17.3363   -3.1108  -18.1550 N   0  0  0  0  0  0  0  0  0  0  0  0
   16.5267   -3.3817  -17.1421 C   0  0  0  0  0  0  0  0  0  0  0  0
   17.0731   -4.3898  -16.4454 N   0  0  0  0  0  0  0  0  0  0  0  0
   20.7362   -4.1591  -15.7678 C   0  0  0  0  0  0  0  0  0  0  0  0
   20.0248   -3.1463  -15.8482 O   0  0  0  0  0  0  0  0  0  0  0  0
   21.6608   -4.2055  -14.7446 O   0  0  0  0  0  0  0  0  0  0  0  0
  2  1  1  1
  3  2  1  0
  4  3  1  0
  5  4  2  0
  6  7  1  0
  6  5  1  0
  7 12  2  0
  8  7  1  0
  8  9  2  0
  9 10  1  0
 10 11  2  0
 12  4  1  0
 12 11  1  0
 13  2  1  0
 13 14  2  0
 15 13  1  0
 16 17  1  6
 16 15  1  0
 18 22  1  0
 18 17  1  0
 19 18  2  0
 20 19  1  0
 20 21  1  0
 21 22  2  0
 23 16  1  0
 24 23  2  0
 25 23  1  0
 26 27  1  1
 26 25  1  0
 27 28  1  0
 28 29  2  0
 29 30  1  0
 31 30  1  0
 32 28  1  0
 32 31  2  0
 33 35  1  0
 33 26  1  0
 34 33  2  0
M  END
$$$$
