WHH.pdb
     RDKit          3D

 35 38  0  0  1  0  0  0  0  0999 V2000
   24.3685  -17.3927  -18.6863 N   0  0  0  0  0  0  0  0  0  0  0  0
   23.3160  -17.3672  -17.7117 C   0  0  1  0  0  0  0  0  0  0  0  0
   22.2292  -16.4327  -18.1639 C   0  0  0  0  0  0  0  0  0  0  0  0
   22.7847  -15.0913  -18.4431 C   0  0  0  0  0  0  0  0  0  0  0  0
   23.2631  -14.2190  -17.4549 C   0  0  0  0  0  0  0  0  0  0  0  0
   23.7254  -13.1040  -18.0389 N   0  0  0  0  0  0  0  0  0  0  0  0
   23.5585  -13.2335  -19.3658 C   0  0  0  0  0  0  0  0  0  0  0  0
   23.8678  -12.3556  -20.4017 C   0  0  0  0  0  0  0  0  0  0  0  0
   23.5798  -12.7339  -21.7061 C   0  0  0  0  0  0  0  0  0  0  0  0
   23.0059  -13.9332  -22.0008 C   0  0  0  0  0  0  0  0  0  0  0  0
   22.7108  -14.7832  -20.9499 C   0  0  0  0  0  0  0  0  0  0  0  0
   22.9784  -14.4523  -19.6448 C   0  0  0  0  0  0  0  0  0  0  0  0
   22.7143  -18.7314  -17.5441 C   0  0  0  0  0  0  0  0  0  0  0  0
   23.0440  -19.7032  -18.2711 O   0  0  0  0  0  0  0  0  0  0  0  0
   21.7353  -18.9717  -16.5403 N   0  0  0  0  0  0  0  0  0  0  0  0
   21.7611  -20.1420  -15.7188 C   0  0  1  0  0  0  0  0  0  0  0  0
   23.0644  -20.1156  -14.9148 C   0  0  0  0  0  0  0  0  0  0  0  0
   24.1726  -20.7891  -15.6538 C   0  0  0  0  0  0  0  0  0  0  0  0
   24.1004  -21.3636  -16.8984 C   0  0  0  0  0  0  0  0  0  0  0  0
   25.3205  -21.8485  -17.1758 N   0  0  0  0  0  0  0  0  0  0  0  0
   26.1567  -21.6033  -16.1586 C   0  0  0  0  0  0  0  0  0  0  0  0
   25.4421  -20.9520  -15.2281 N   0  0  0  0  0  0  0  0  0  0  0  0
   20.6232  -20.2384  -14.7744 C   0  0  0  0  0  0  0  0  0  0  0  0
   20.2976  -19.2422  -14.0504 O   0  0  0  0  0  0  0  0  0  0  0  0
   19.8413  -21.4080  -14.6176 N   0  0  0  0  0  0  0  0  0  0  0  0
   18.6188  -21.4527  -13.7975 C   0  0  1  0  0  0  0  0  0  0  0  0
   18.4032  -20.1045  -13.1493 C   0  0  0  0  0  0  0  0  0  0  0  0
   17.1285  -20.0815  -12.4297 C   0  0  0  0  0  0  0  0  0  0  0  0
   16.9148  -20.7764  -11.2280 C   0  0  0  0  0  0  0  0  0  0  0  0
   15.6611  -20.5622  -10.8154 N   0  0  0  0  0  0  0  0  0  0  0  0
   15.0645  -19.7673  -11.6911 C   0  0  0  0  0  0  0  0  0  0  0  0
   15.9546  -19.4858  -12.6547 N   0  0  0  0  0  0  0  0  0  0  0  0
   17.5245  -21.6880  -14.7526 C   0  0  0  0  0  0  0  0  0  0  0  0
   17.5810  -21.2877  -15.9251 O   0  0  0  0  0  0  0  0  0  0  0  0
   16.3883  -22.3702  -14.3688 O   0  0  0  0  0  0  0  0  0  0  0  0
  2  1  1  6
  3  2  1  0
  4  3  1  0
  5  4  2  0
  6  7  1  0
  6  5  1  0
  7 12  2  0
  8  7  1  0
  8  9  2  0
  9 10  1  0
 10 11  2  0
 12  4  1  0
 12 11  1  0
 13  2  1  0
 13 14  2  0
 15 13  1  0
 16 17  1  1
 16 15  1  0
 18 22  1  0
 18 17  1  0
 19 18  2  0
 20 19  1  0
 20 21  1  0
 21 22  2  0
 23 16  1  0
 24 23  2  0
 25 23  1  0
 26 27  1  6
 26 25  1  0
 27 28  1  0
 28 29  2  0
 29 30  1  0
 31 30  1  0
 32 28  1  0
 32 31  2  0
 33 35  1  0
 33 26  1  0
 34 33  2  0
M  END
$$$$
