WHH.pdb
     RDKit          3D

 35 38  0  0  1  0  0  0  0  0999 V2000
   25.5704  -21.4550  -12.5105 N   0  0  0  0  0  0  0  0  0  0  0  0
   25.6329  -20.1014  -12.0391 C   0  0  1  0  0  0  0  0  0  0  0  0
   26.9720  -19.8465  -11.4063 C   0  0  0  0  0  0  0  0  0  0  0  0
   27.0120  -20.4069  -10.0387 C   0  0  0  0  0  0  0  0  0  0  0  0
   27.0651  -21.7790   -9.7544 C   0  0  0  0  0  0  0  0  0  0  0  0
   27.1233  -21.9510   -8.4259 N   0  0  0  0  0  0  0  0  0  0  0  0
   27.1088  -20.7363   -7.8515 C   0  0  0  0  0  0  0  0  0  0  0  0
   27.1441  -20.3762   -6.5067 C   0  0  0  0  0  0  0  0  0  0  0  0
   27.1075  -19.0286   -6.1751 C   0  0  0  0  0  0  0  0  0  0  0  0
   27.0381  -18.0527   -7.1224 C   0  0  0  0  0  0  0  0  0  0  0  0
   27.0046  -18.4426   -8.4495 C   0  0  0  0  0  0  0  0  0  0  0  0
   27.0398  -19.7626   -8.8247 C   0  0  0  0  0  0  0  0  0  0  0  0
   25.4655  -19.1353  -13.1748 C   0  0  0  0  0  0  0  0  0  0  0  0
   26.4204  -18.4438  -13.6127 O   0  0  0  0  0  0  0  0  0  0  0  0
   24.1995  -18.9688  -13.8020 N   0  0  0  0  0  0  0  0  0  0  0  0
   24.0688  -18.4151  -15.1141 C   0  0  1  0  0  0  0  0  0  0  0  0
   24.9038  -19.2764  -16.0663 C   0  0  0  0  0  0  0  0  0  0  0  0
   26.3585  -18.9633  -15.9481 C   0  0  0  0  0  0  0  0  0  0  0  0
   26.9128  -17.7855  -15.5128 C   0  0  0  0  0  0  0  0  0  0  0  0
   28.2450  -17.9378  -15.5664 N   0  0  0  0  0  0  0  0  0  0  0  0
   28.5518  -19.1614  -16.0168 C   0  0  0  0  0  0  0  0  0  0  0  0
   27.3858  -19.7840  -16.2487 N   0  0  0  0  0  0  0  0  0  0  0  0
   22.6739  -18.3733  -15.6124 C   0  0  0  0  0  0  0  0  0  0  0  0
   22.4184  -17.9435  -16.7840 O   0  0  0  0  0  0  0  0  0  0  0  0
   21.5623  -18.7972  -14.8452 N   0  0  0  0  0  0  0  0  0  0  0  0
   20.1717  -18.6881  -15.3179 C   0  0  1  0  0  0  0  0  0  0  0  0
   19.2411  -19.2384  -14.2617 C   0  0  0  0  0  0  0  0  0  0  0  0
   19.6389  -20.5968  -13.8878 C   0  0  0  0  0  0  0  0  0  0  0  0
   20.7034  -21.2788  -14.4995 C   0  0  0  0  0  0  0  0  0  0  0  0
   20.8222  -22.4905  -13.9468 N   0  0  0  0  0  0  0  0  0  0  0  0
   19.8892  -22.6166  -13.0150 C   0  0  0  0  0  0  0  0  0  0  0  0
   19.1858  -21.4745  -12.9889 N   0  0  0  0  0  0  0  0  0  0  0  0
   19.9229  -17.2438  -15.4478 C   0  0  0  0  0  0  0  0  0  0  0  0
   20.2936  -16.4349  -14.5839 O   0  0  0  0  0  0  0  0  0  0  0  0
   19.2622  -16.7384  -16.5486 O   0  0  0  0  0  0  0  0  0  0  0  0
  2  1  1  6
  3  2  1  0
  4  3  1  0
  5  4  2  0
  6  7  1  0
  6  5  1  0
  7 12  2  0
  8  7  1  0
  8  9  2  0
  9 10  1  0
 10 11  2  0
 12  4  1  0
 12 11  1  0
 13  2  1  0
 13 14  2  0
 15 13  1  0
 16 17  1  6
 16 15  1  0
 18 22  1  0
 18 17  1  0
 19 18  2  0
 20 19  1  0
 20 21  1  0
 21 22  2  0
 23 16  1  0
 24 23  2  0
 25 23  1  0
 26 27  1  1
 26 25  1  0
 27 28  1  0
 28 29  2  0
 29 30  1  0
 31 30  1  0
 32 28  1  0
 32 31  2  0
 33 35  1  0
 33 26  1  0
 34 33  2  0
M  END
$$$$
