AVT.pdb
     RDKit          3D

 20 19  0  0  1  0  0  0  0  0999 V2000
   22.2548  -11.3186  -21.0017 C   0  0  0  0  0  0  0  0  0  0  0  0
   22.6363  -12.4445  -20.0682 C   0  0  2  0  0  0  0  0  0  0  0  0
   21.8519  -13.6078  -20.4776 N   0  0  0  0  0  0  0  0  0  0  0  0
   22.2029  -12.1069  -18.6865 C   0  0  0  0  0  0  0  0  0  0  0  0
   21.0244  -12.2754  -18.2737 O   0  0  0  0  0  0  0  0  0  0  0  0
   23.3032  -11.0754  -13.9889 C   0  0  0  0  0  0  0  0  0  0  0  0
   23.6200  -11.6379  -15.3336 C   0  0  1  0  0  0  0  0  0  0  0  0
   23.4490  -13.1405  -15.2818 C   0  0  0  0  0  0  0  0  0  0  0  0
   22.7329  -11.1052  -16.4359 C   0  0  2  0  0  0  0  0  0  0  0  0
   23.1391  -11.5579  -17.7365 N   0  0  0  0  0  0  0  0  0  0  0  0
   22.6610   -9.6107  -16.3658 C   0  0  0  0  0  0  0  0  0  0  0  0
   23.6748   -8.9409  -16.6904 O   0  0  0  0  0  0  0  0  0  0  0  0
   19.0737   -7.6469  -17.0070 C   0  0  0  0  0  0  0  0  0  0  0  0
   20.4419   -7.0651  -17.1706 C   0  0  1  0  0  0  0  0  0  0  0  0
   20.3273   -5.6891  -17.2948 O   0  0  0  0  0  0  0  0  0  0  0  0
   21.3995   -7.4742  -16.0879 C   0  0  2  0  0  0  0  0  0  0  0  0
   21.5127   -8.9087  -15.9536 N   0  0  0  0  0  0  0  0  0  0  0  0
   20.9106   -6.8889  -14.8013 C   0  0  0  0  0  0  0  0  0  0  0  0
   20.9630   -5.5234  -14.5556 O   0  0  0  0  0  0  0  0  0  0  0  0
   20.4326   -7.6143  -13.8920 O   0  0  0  0  0  0  0  0  0  0  0  0
  2  1  1  6
  2  3  1  0
  4 10  1  0
  4  2  1  0
  5  4  2  0
  7  6  1  1
  7  8  1  0
  9  7  1  0
  9 10  1  6
 11 17  1  0
 11  9  1  0
 12 11  2  0
 14 13  1  1
 14 15  1  0
 16 17  1  1
 16 14  1  0
 18 19  1  0
 18 16  1  0
 20 18  2  0
M  END
$$$$
