AVT.pdb
     RDKit          3D

 20 19  0  0  1  0  0  0  0  0999 V2000
   28.1186  -19.8395  -19.2491 C   0  0  0  0  0  0  0  0  0  0  0  0
   27.8987  -18.4015  -18.8387 C   0  0  2  0  0  0  0  0  0  0  0  0
   29.0699  -17.6555  -19.2948 N   0  0  0  0  0  0  0  0  0  0  0  0
   27.8896  -18.3088  -17.3547 C   0  0  0  0  0  0  0  0  0  0  0  0
   28.9309  -18.1249  -16.6695 O   0  0  0  0  0  0  0  0  0  0  0  0
   26.6693  -15.7603  -15.2702 C   0  0  0  0  0  0  0  0  0  0  0  0
   25.9455  -16.9693  -14.7810 C   0  0  1  0  0  0  0  0  0  0  0  0
   24.5399  -16.9512  -15.3412 C   0  0  0  0  0  0  0  0  0  0  0  0
   26.5952  -18.2708  -15.1931 C   0  0  2  0  0  0  0  0  0  0  0  0
   26.6548  -18.4289  -16.6189 N   0  0  0  0  0  0  0  0  0  0  0  0
   25.9043  -19.4255  -14.5350 C   0  0  0  0  0  0  0  0  0  0  0  0
   25.0011  -20.0299  -15.1680 O   0  0  0  0  0  0  0  0  0  0  0  0
   26.3786  -20.3492  -10.3606 C   0  0  0  0  0  0  0  0  0  0  0  0
   26.1784  -21.4494  -11.3539 C   0  0  1  0  0  0  0  0  0  0  0  0
   25.4888  -22.4829  -10.7388 O   0  0  0  0  0  0  0  0  0  0  0  0
   25.5281  -20.9934  -12.6290 C   0  0  2  0  0  0  0  0  0  0  0  0
   26.2122  -19.8752  -13.2373 N   0  0  0  0  0  0  0  0  0  0  0  0
   24.1200  -20.6039  -12.3091 C   0  0  0  0  0  0  0  0  0  0  0  0
   23.0912  -21.5362  -12.2958 O   0  0  0  0  0  0  0  0  0  0  0  0
   23.8151  -19.4140  -12.0395 O   0  0  0  0  0  0  0  0  0  0  0  0
  2  1  1  1
  2  3  1  0
  4 10  1  0
  4  2  1  0
  5  4  2  0
  7  6  1  6
  7  8  1  0
  9  7  1  0
  9 10  1  6
 11 17  1  0
 11  9  1  0
 12 11  2  0
 14 13  1  1
 14 15  1  0
 16 17  1  1
 16 14  1  0
 18 19  1  0
 18 16  1  0
 20 18  2  0
M  END
$$$$
