AVT.pdb
     RDKit          3D

 20 19  0  0  1  0  0  0  0  0999 V2000
   18.9432  -10.5894  -19.2882 C   0  0  0  0  0  0  0  0  0  0  0  0
   19.7979  -11.3910  -18.3333 C   0  0  2  0  0  0  0  0  0  0  0  0
   19.0108  -12.5629  -17.9547 N   0  0  0  0  0  0  0  0  0  0  0  0
   20.0142  -10.6065  -17.0889 C   0  0  0  0  0  0  0  0  0  0  0  0
   19.1131  -10.4163  -16.2290 O   0  0  0  0  0  0  0  0  0  0  0  0
   22.3292  -11.3947  -14.3606 C   0  0  0  0  0  0  0  0  0  0  0  0
   22.6624   -9.9995  -14.7696 C   0  0  1  0  0  0  0  0  0  0  0  0
   23.9173  -10.0298  -15.6146 C   0  0  0  0  0  0  0  0  0  0  0  0
   21.5731   -9.3296  -15.5761 C   0  0  2  0  0  0  0  0  0  0  0  0
   21.2993  -10.0152  -16.8075 N   0  0  0  0  0  0  0  0  0  0  0  0
   21.9112   -7.8886  -15.8063 C   0  0  0  0  0  0  0  0  0  0  0  0
   22.7059   -7.5953  -16.7359 O   0  0  0  0  0  0  0  0  0  0  0  0
   20.6460   -3.1927  -15.7759 C   0  0  0  0  0  0  0  0  0  0  0  0
   20.3923   -4.6451  -15.5243 C   0  0  1  0  0  0  0  0  0  0  0  0
   19.5809   -5.1358  -16.5357 O   0  0  0  0  0  0  0  0  0  0  0  0
   21.6481   -5.4494  -15.3435 C   0  0  2  0  0  0  0  0  0  0  0  0
   21.3846   -6.8362  -15.0340 N   0  0  0  0  0  0  0  0  0  0  0  0
   22.4311   -4.8289  -14.2306 C   0  0  0  0  0  0  0  0  0  0  0  0
   23.3599   -3.8239  -14.4652 O   0  0  0  0  0  0  0  0  0  0  0  0
   22.2765   -5.1958  -13.0377 O   0  0  0  0  0  0  0  0  0  0  0  0
  2  1  1  6
  2  3  1  0
  4 10  1  0
  4  2  1  0
  5  4  2  0
  7  6  1  6
  7  8  1  0
  9  7  1  0
  9 10  1  6
 11 17  1  0
 11  9  1  0
 12 11  2  0
 14 13  1  6
 14 15  1  0
 16 17  1  1
 16 14  1  0
 18 19  1  0
 18 16  1  0
 20 18  2  0
M  END
$$$$
