AVT.pdb
     RDKit          3D

 20 19  0  0  1  0  0  0  0  0999 V2000
   21.0689  -10.6990  -18.4517 C   0  0  0  0  0  0  0  0  0  0  0  0
   20.3353  -11.1141  -17.1970 C   0  0  2  0  0  0  0  0  0  0  0  0
   19.2303  -11.9694  -17.6254 N   0  0  0  0  0  0  0  0  0  0  0  0
   19.7225   -9.9156  -16.5655 C   0  0  0  0  0  0  0  0  0  0  0  0
   19.0136   -9.0892  -17.1997 O   0  0  0  0  0  0  0  0  0  0  0  0
   17.9647   -7.7340  -12.5620 C   0  0  0  0  0  0  0  0  0  0  0  0
   18.3460   -8.8716  -13.4482 C   0  0  1  0  0  0  0  0  0  0  0  0
   17.1002   -9.3893  -14.1337 C   0  0  0  0  0  0  0  0  0  0  0  0
   19.3452   -8.4953  -14.5186 C   0  0  2  0  0  0  0  0  0  0  0  0
   19.9197   -9.6425  -15.1630 N   0  0  0  0  0  0  0  0  0  0  0  0
   20.3972   -7.5929  -13.9505 C   0  0  0  0  0  0  0  0  0  0  0  0
   21.1026   -8.0120  -12.9974 O   0  0  0  0  0  0  0  0  0  0  0  0
   22.4125   -4.9332  -16.3035 C   0  0  0  0  0  0  0  0  0  0  0  0
   22.8644   -5.3908  -14.9531 C   0  0  1  0  0  0  0  0  0  0  0  0
   23.8945   -4.5667  -14.5268 O   0  0  0  0  0  0  0  0  0  0  0  0
   21.7492   -5.4940  -13.9520 C   0  0  2  0  0  0  0  0  0  0  0  0
   20.6420   -6.2916  -14.4279 N   0  0  0  0  0  0  0  0  0  0  0  0
   21.2744   -4.1076  -13.6533 C   0  0  0  0  0  0  0  0  0  0  0  0
   22.0349   -3.2235  -12.8996 O   0  0  0  0  0  0  0  0  0  0  0  0
   20.1657   -3.6903  -14.0751 O   0  0  0  0  0  0  0  0  0  0  0  0
  2  1  1  6
  2  3  1  0
  4 10  1  0
  4  2  1  0
  5  4  2  0
  7  6  1  6
  7  8  1  0
  9  7  1  0
  9 10  1  1
 11 17  1  0
 11  9  1  0
 12 11  2  0
 14 13  1  6
 14 15  1  0
 16 17  1  6
 16 14  1  0
 18 19  1  0
 18 16  1  0
 20 18  2  0
M  END
$$$$
