AVT.pdb
     RDKit          3D

 20 19  0  0  1  0  0  0  0  0999 V2000
   19.7170   -2.7922  -18.3871 C   0  0  0  0  0  0  0  0  0  0  0  0
   20.3972   -2.7900  -17.0373 C   0  0  2  0  0  0  0  0  0  0  0  0
   21.6721   -2.0979  -17.2155 N   0  0  0  0  0  0  0  0  0  0  0  0
   20.7250   -4.1873  -16.6487 C   0  0  0  0  0  0  0  0  0  0  0  0
   21.4373   -4.9497  -17.3552 O   0  0  0  0  0  0  0  0  0  0  0  0
   21.4932   -7.4733  -13.1202 C   0  0  0  0  0  0  0  0  0  0  0  0
   21.1180   -6.1049  -13.5803 C   0  0  1  0  0  0  0  0  0  0  0  0
   22.3514   -5.2288  -13.5487 C   0  0  0  0  0  0  0  0  0  0  0  0
   20.5581   -6.0717  -14.9844 C   0  0  2  0  0  0  0  0  0  0  0  0
   20.2276   -4.7422  -15.4138 N   0  0  0  0  0  0  0  0  0  0  0  0
   19.3867   -6.9986  -15.0966 C   0  0  0  0  0  0  0  0  0  0  0  0
   18.4705   -6.9213  -14.2385 O   0  0  0  0  0  0  0  0  0  0  0  0
   17.5721   -8.1111  -18.6631 C   0  0  0  0  0  0  0  0  0  0  0  0
   17.8560   -9.2161  -17.6959 C   0  0  1  0  0  0  0  0  0  0  0  0
   18.9317   -9.9530  -18.1668 O   0  0  0  0  0  0  0  0  0  0  0  0
   18.0495   -8.7406  -16.2841 C   0  0  2  0  0  0  0  0  0  0  0  0
   19.2534   -7.9588  -16.1170 N   0  0  0  0  0  0  0  0  0  0  0  0
   18.1099   -9.9461  -15.4009 C   0  0  0  0  0  0  0  0  0  0  0  0
   19.3103  -10.4048  -14.8751 O   0  0  0  0  0  0  0  0  0  0  0  0
   17.0724  -10.5906  -15.1012 O   0  0  0  0  0  0  0  0  0  0  0  0
  2  1  1  6
  2  3  1  0
  4 10  1  0
  4  2  1  0
  5  4  2  0
  7  6  1  6
  7  8  1  0
  9  7  1  0
  9 10  1  1
 11 17  1  0
 11  9  1  0
 12 11  2  0
 14 13  1  6
 14 15  1  0
 16 17  1  6
 16 14  1  0
 18 19  1  0
 18 16  1  0
 20 18  2  0
M  END
$$$$
