AVT.pdb
     RDKit          3D

 20 19  0  0  1  0  0  0  0  0999 V2000
   24.8726  -19.6509   -9.4289 C   0  0  0  0  0  0  0  0  0  0  0  0
   23.4608  -20.1902   -9.4024 C   0  0  2  0  0  0  0  0  0  0  0  0
   23.4872  -21.3827   -8.5578 N   0  0  0  0  0  0  0  0  0  0  0  0
   23.0821  -20.6459  -10.7662 C   0  0  0  0  0  0  0  0  0  0  0  0
   23.4425  -21.7532  -11.2473 O   0  0  0  0  0  0  0  0  0  0  0  0
   19.4860  -19.3064  -12.4729 C   0  0  0  0  0  0  0  0  0  0  0  0
   20.2743  -20.5087  -12.8707 C   0  0  1  0  0  0  0  0  0  0  0  0
   19.8543  -20.9230  -14.2642 C   0  0  0  0  0  0  0  0  0  0  0  0
   21.7680  -20.2748  -12.8839 C   0  0  2  0  0  0  0  0  0  0  0  0
   22.2645  -19.8165  -11.6171 N   0  0  0  0  0  0  0  0  0  0  0  0
   22.1359  -19.3404  -13.9953 C   0  0  0  0  0  0  0  0  0  0  0  0
   21.9794  -18.1045  -13.8226 O   0  0  0  0  0  0  0  0  0  0  0  0
   24.6286  -18.4090  -18.1647 C   0  0  0  0  0  0  0  0  0  0  0  0
   24.1419  -19.3881  -17.1441 C   0  0  1  0  0  0  0  0  0  0  0  0
   25.2302  -19.8584  -16.4256 O   0  0  0  0  0  0  0  0  0  0  0  0
   23.0541  -18.8431  -16.2630 C   0  0  2  0  0  0  0  0  0  0  0  0
   22.6510  -19.7721  -15.2320 N   0  0  0  0  0  0  0  0  0  0  0  0
   21.8806  -18.5216  -17.1327 C   0  0  0  0  0  0  0  0  0  0  0  0
   21.6932  -17.2526  -17.6639 O   0  0  0  0  0  0  0  0  0  0  0  0
   21.0178  -19.3916  -17.4157 O   0  0  0  0  0  0  0  0  0  0  0  0
  2  1  1  6
  2  3  1  0
  4 10  1  0
  4  2  1  0
  5  4  2  0
  7  6  1  6
  7  8  1  0
  9  7  1  0
  9 10  1  1
 11 17  1  0
 11  9  1  0
 12 11  2  0
 14 13  1  6
 14 15  1  0
 16 17  1  1
 16 14  1  0
 18 19  1  0
 18 16  1  0
 20 18  2  0
M  END
$$$$
