AVT.pdb
     RDKit          3D

 20 19  0  0  1  0  0  0  0  0999 V2000
   23.4217  -10.1755  -19.9710 C   0  0  0  0  0  0  0  0  0  0  0  0
   22.5599  -11.0520  -19.0914 C   0  0  2  0  0  0  0  0  0  0  0  0
   21.7338  -11.8572  -19.9889 N   0  0  0  0  0  0  0  0  0  0  0  0
   21.6268  -10.1986  -18.3090 C   0  0  0  0  0  0  0  0  0  0  0  0
   20.5449   -9.7529  -18.7764 O   0  0  0  0  0  0  0  0  0  0  0  0
   19.5541   -8.9354  -14.1497 C   0  0  0  0  0  0  0  0  0  0  0  0
   20.3051   -9.7939  -15.1109 C   0  0  1  0  0  0  0  0  0  0  0  0
   19.3224  -10.7006  -15.8194 C   0  0  0  0  0  0  0  0  0  0  0  0
   21.0573   -9.0093  -16.1619 C   0  0  2  0  0  0  0  0  0  0  0  0
   21.9302   -9.8364  -16.9463 N   0  0  0  0  0  0  0  0  0  0  0  0
   21.7938   -7.8693  -15.5283 C   0  0  0  0  0  0  0  0  0  0  0  0
   22.7253   -8.1246  -14.7227 O   0  0  0  0  0  0  0  0  0  0  0  0
   22.8995   -4.2959  -17.3219 C   0  0  0  0  0  0  0  0  0  0  0  0
   22.2081   -4.1769  -16.0010 C   0  0  1  0  0  0  0  0  0  0  0  0
   20.9169   -3.7198  -16.2152 O   0  0  0  0  0  0  0  0  0  0  0  0
   22.2513   -5.4388  -15.1871 C   0  0  2  0  0  0  0  0  0  0  0  0
   21.4991   -6.5174  -15.7865 N   0  0  0  0  0  0  0  0  0  0  0  0
   21.6908   -5.1293  -13.8354 C   0  0  0  0  0  0  0  0  0  0  0  0
   22.4120   -4.4048  -12.8959 O   0  0  0  0  0  0  0  0  0  0  0  0
   20.5421   -5.5153  -13.4992 O   0  0  0  0  0  0  0  0  0  0  0  0
  2  1  1  6
  2  3  1  0
  4 10  1  0
  4  2  1  0
  5  4  2  0
  7  6  1  1
  7  8  1  0
  9  7  1  0
  9 10  1  1
 11 17  1  0
 11  9  1  0
 12 11  2  0
 14 13  1  6
 14 15  1  0
 16 17  1  6
 16 14  1  0
 18 19  1  0
 18 16  1  0
 20 18  2  0
M  END
$$$$
