AVT.pdb
     RDKit          3D

 20 19  0  0  1  0  0  0  0  0999 V2000
   20.0991   -8.9133  -20.1956 C   0  0  0  0  0  0  0  0  0  0  0  0
   20.6646  -10.1363  -19.5105 C   0  0  2  0  0  0  0  0  0  0  0  0
   19.7103  -11.2194  -19.7393 N   0  0  0  0  0  0  0  0  0  0  0  0
   20.6993   -9.9061  -18.0419 C   0  0  0  0  0  0  0  0  0  0  0  0
   19.6711   -9.9415  -17.3146 O   0  0  0  0  0  0  0  0  0  0  0  0
   23.1006   -9.8675  -13.7773 C   0  0  0  0  0  0  0  0  0  0  0  0
   22.9476  -10.2275  -15.2167 C   0  0  1  0  0  0  0  0  0  0  0  0
   22.4032  -11.6364  -15.3077 C   0  0  0  0  0  0  0  0  0  0  0  0
   22.0080   -9.3146  -15.9714 C   0  0  2  0  0  0  0  0  0  0  0  0
   21.9453   -9.6253  -17.3718 N   0  0  0  0  0  0  0  0  0  0  0  0
   22.3780   -7.8822  -15.7367 C   0  0  0  0  0  0  0  0  0  0  0  0
   23.4802   -7.4632  -16.1741 O   0  0  0  0  0  0  0  0  0  0  0  0
   20.5957   -4.6552  -16.8237 C   0  0  0  0  0  0  0  0  0  0  0  0
   20.8140   -4.6501  -15.3441 C   0  0  1  0  0  0  0  0  0  0  0  0
   19.6042   -4.9027  -14.7159 O   0  0  0  0  0  0  0  0  0  0  0  0
   21.9070   -5.5787  -14.8972 C   0  0  2  0  0  0  0  0  0  0  0  0
   21.5542   -6.9720  -15.0483 N   0  0  0  0  0  0  0  0  0  0  0  0
   22.1920   -5.2886  -13.4579 C   0  0  0  0  0  0  0  0  0  0  0  0
   22.8504   -4.1312  -13.0644 O   0  0  0  0  0  0  0  0  0  0  0  0
   21.8449   -6.0847  -12.5484 O   0  0  0  0  0  0  0  0  0  0  0  0
  2  1  1  6
  2  3  1  0
  4 10  1  0
  4  2  1  0
  5  4  2  0
  7  6  1  1
  7  8  1  0
  9  7  1  0
  9 10  1  6
 11 17  1  0
 11  9  1  0
 12 11  2  0
 14 13  1  6
 14 15  1  0
 16 17  1  1
 16 14  1  0
 18 19  1  0
 18 16  1  0
 20 18  2  0
M  END
$$$$
