AVT.pdb
     RDKit          3D

 20 19  0  0  1  0  0  0  0  0999 V2000
   18.3023  -10.7262  -18.3039 C   0  0  0  0  0  0  0  0  0  0  0  0
   19.3715  -11.6165  -17.7130 C   0  0  2  0  0  0  0  0  0  0  0  0
   18.7067  -12.8551  -17.3131 N   0  0  0  0  0  0  0  0  0  0  0  0
   19.8956  -10.9963  -16.4673 C   0  0  0  0  0  0  0  0  0  0  0  0
   19.2791  -11.0299  -15.3689 O   0  0  0  0  0  0  0  0  0  0  0  0
   22.7339  -11.8570  -14.4787 C   0  0  0  0  0  0  0  0  0  0  0  0
   22.9503  -10.4138  -14.7873 C   0  0  1  0  0  0  0  0  0  0  0  0
   24.0087  -10.3027  -15.8630 C   0  0  0  0  0  0  0  0  0  0  0  0
   21.7075   -9.7083  -15.2810 C   0  0  2  0  0  0  0  0  0  0  0  0
   21.1655  -10.3124  -16.4654 N   0  0  0  0  0  0  0  0  0  0  0  0
   21.9844   -8.2496  -15.4789 C   0  0  0  0  0  0  0  0  0  0  0  0
   22.6292   -7.8894  -16.4968 O   0  0  0  0  0  0  0  0  0  0  0  0
   20.1294   -5.5095  -16.6361 C   0  0  0  0  0  0  0  0  0  0  0  0
   20.5985   -5.1020  -15.2756 C   0  0  1  0  0  0  0  0  0  0  0  0
   19.5370   -5.2071  -14.3900 O   0  0  0  0  0  0  0  0  0  0  0  0
   21.8175   -5.8489  -14.8143 C   0  0  2  0  0  0  0  0  0  0  0  0
   21.5597   -7.2517  -14.5817 N   0  0  0  0  0  0  0  0  0  0  0  0
   22.2911   -5.2109  -13.5472 C   0  0  0  0  0  0  0  0  0  0  0  0
   22.7931   -3.9165  -13.5264 O   0  0  0  0  0  0  0  0  0  0  0  0
   22.2520   -5.8253  -12.4506 O   0  0  0  0  0  0  0  0  0  0  0  0
  2  1  1  1
  2  3  1  0
  4 10  1  0
  4  2  1  0
  5  4  2  0
  7  6  1  6
  7  8  1  0
  9  7  1  0
  9 10  1  6
 11 17  1  0
 11  9  1  0
 12 11  2  0
 14 13  1  6
 14 15  1  0
 16 17  1  1
 16 14  1  0
 18 19  1  0
 18 16  1  0
 20 18  2  0
M  END
$$$$
