RCF.pdb
     RDKit          3D

 29 29  0  0  1  0  0  0  0  0999 V2000
   26.1657  -21.7335  -12.9423 N   0  0  0  0  0  0  0  0  0  0  0  0
   25.6089  -21.3115  -11.7057 C   0  0  0  0  0  0  0  0  0  0  0  0
   26.2312  -21.5115  -10.5999 N   0  0  0  0  0  0  0  0  0  0  0  0
   24.3202  -20.6572  -11.6900 N   0  0  0  0  0  0  0  0  0  0  0  0
   23.9153  -19.8661  -12.7831 C   0  0  0  0  0  0  0  0  0  0  0  0
   23.6984  -20.4602  -14.1065 C   0  0  0  0  0  0  0  0  0  0  0  0
   23.2671  -19.6547  -15.2569 C   0  0  0  0  0  0  0  0  0  0  0  0
   22.2358  -18.5983  -15.0945 C   0  0  2  0  0  0  0  0  0  0  0  0
   20.9498  -19.0602  -15.4705 N   0  0  0  0  0  0  0  0  0  0  0  0
   22.5537  -17.2937  -15.6920 C   0  0  0  0  0  0  0  0  0  0  0  0
   22.1679  -17.1313  -16.9044 O   0  0  0  0  0  0  0  0  0  0  0  0
   25.7630  -21.2458   -9.7108 N   0  0  0  0  0  0  0  0  0  0  0  0
   23.2242  -16.1953  -15.1319 C   0  0  2  0  0  0  0  0  0  0  0  0
   23.4991  -14.9665  -15.8525 C   0  0  0  0  0  0  0  0  0  0  0  0
   22.9163  -13.7699  -15.1611 S   0  0  0  0  0  0  0  0  0  0  0  0
   21.1272  -13.9193  -14.9444 C   0  0  0  0  0  0  0  0  0  0  0  0
   24.9487  -14.7149  -16.0062 O   0  0  0  0  0  0  0  0  0  0  0  0
   25.5276  -14.2100  -15.0170 N   0  0  0  0  0  0  0  0  0  0  0  0
   25.7277  -14.9889  -17.1510 C   0  0  1  0  0  0  0  0  0  0  0  0
   27.1263  -14.7579  -17.2539 C   0  0  0  0  0  0  0  0  0  0  0  0
   27.9787  -15.4400  -16.2412 C   0  0  0  0  0  0  0  0  0  0  0  0
   27.7811  -16.8883  -16.1034 C   0  0  0  0  0  0  0  0  0  0  0  0
   27.4333  -17.4853  -14.9081 C   0  0  0  0  0  0  0  0  0  0  0  0
   27.2604  -18.8497  -14.7996 C   0  0  0  0  0  0  0  0  0  0  0  0
   27.4359  -19.6522  -15.9053 C   0  0  0  0  0  0  0  0  0  0  0  0
   27.7792  -19.0850  -17.0953 C   0  0  0  0  0  0  0  0  0  0  0  0
   27.9463  -17.7229  -17.1798 C   0  0  0  0  0  0  0  0  0  0  0  0
   27.6143  -15.1312  -18.6011 O   0  0  0  0  0  0  0  0  0  0  0  0
   28.9449  -14.8720  -18.9769 O   0  0  0  0  0  0  0  0  0  0  0  0
  1  2  1  0
  2  4  1  0
  2  3  2  0
  4  5  1  0
  5  6  1  0
  6  7  1  0
  7  8  1  0
  8 10  1  0
  8  9  1  6
 10 11  2  0
 12 13  1  0
 12 10  1  0
 14 15  1  0
 13 14  1  6
 16 17  2  0
 16 13  1  0
 18 16  1  0
 19 18  1  0
 19 27  1  0
 19 20  1  6
 21 20  1  0
 22 21  2  0
 23 22  1  0
 24 23  2  0
 24 25  1  0
 25 26  2  0
 26 21  1  0
 27 29  2  0
 27 28  1  0
M  END
$$$$
