RCF.pdb
     RDKit          3D

 29 29  0  0  1  0  0  0  0  0999 V2000
   28.8834  -16.1367  -18.3490 N   0  0  0  0  0  0  0  0  0  0  0  0
   27.7113  -15.6122  -17.7421 C   0  0  0  0  0  0  0  0  0  0  0  0
   26.9158  -14.8458  -18.3977 N   0  0  0  0  0  0  0  0  0  0  0  0
   27.4146  -15.9369  -16.3653 N   0  0  0  0  0  0  0  0  0  0  0  0
   27.9055  -17.1294  -15.7982 C   0  0  0  0  0  0  0  0  0  0  0  0
   27.6831  -18.4239  -16.4509 C   0  0  0  0  0  0  0  0  0  0  0  0
   26.9561  -19.5133  -15.7853 C   0  0  0  0  0  0  0  0  0  0  0  0
   27.6869  -20.5329  -14.9901 C   0  0  2  0  0  0  0  0  0  0  0  0
   28.2952  -21.5070  -15.8205 N   0  0  0  0  0  0  0  0  0  0  0  0
   26.9379  -21.1391  -13.8803 C   0  0  0  0  0  0  0  0  0  0  0  0
   26.1564  -22.1040  -14.2016 O   0  0  0  0  0  0  0  0  0  0  0  0
   26.1032  -14.4304  -17.9002 N   0  0  0  0  0  0  0  0  0  0  0  0
   26.9473  -20.8144  -12.5149 C   0  0  2  0  0  0  0  0  0  0  0  0
   25.8413  -21.0837  -11.6153 C   0  0  0  0  0  0  0  0  0  0  0  0
   26.1107  -20.5765  -10.2297 S   0  0  0  0  0  0  0  0  0  0  0  0
   24.7212  -20.8862   -9.1147 C   0  0  0  0  0  0  0  0  0  0  0  0
   24.5802  -20.4574  -12.0686 O   0  0  0  0  0  0  0  0  0  0  0  0
   24.6941  -19.3698  -12.6789 N   0  0  0  0  0  0  0  0  0  0  0  0
   23.2780  -20.9679  -11.8782 C   0  0  1  0  0  0  0  0  0  0  0  0
   22.1193  -20.5075  -12.5604 C   0  0  0  0  0  0  0  0  0  0  0  0
   22.1710  -20.5601  -14.0477 C   0  0  0  0  0  0  0  0  0  0  0  0
   20.9887  -20.0482  -14.7517 C   0  0  0  0  0  0  0  0  0  0  0  0
   20.7843  -18.7039  -14.9907 C   0  0  0  0  0  0  0  0  0  0  0  0
   19.6616  -18.2443  -15.6476 C   0  0  0  0  0  0  0  0  0  0  0  0
   18.7090  -19.1387  -16.0834 C   0  0  0  0  0  0  0  0  0  0  0  0
   18.8896  -20.4700  -15.8586 C   0  0  0  0  0  0  0  0  0  0  0  0
   20.0163  -20.9052  -15.2017 C   0  0  0  0  0  0  0  0  0  0  0  0
   20.9228  -21.2541  -12.1091 O   0  0  0  0  0  0  0  0  0  0  0  0
   19.7412  -20.5719  -11.7668 O   0  0  0  0  0  0  0  0  0  0  0  0
  1  2  1  0
  2  4  1  0
  2  3  2  0
  4  5  1  0
  5  6  1  0
  6  7  1  0
  7  8  1  0
  8 10  1  0
  8  9  1  6
 10 11  2  0
 12 13  1  0
 12 10  1  0
 14 15  1  0
 13 14  1  1
 16 17  2  0
 16 13  1  0
 18 16  1  0
 19 18  1  0
 19 27  1  0
 19 20  1  1
 21 20  1  0
 22 21  2  0
 23 22  1  0
 24 23  2  0
 24 25  1  0
 25 26  2  0
 26 21  1  0
 27 29  2  0
 27 28  1  0
M  END
$$$$
