RCF.pdb
     RDKit          3D

 29 29  0  0  1  0  0  0  0  0999 V2000
   30.5251  -25.9713  -16.3546 N   0  0  0  0  0  0  0  0  0  0  0  0
   30.6250  -25.0329  -17.4159 C   0  0  0  0  0  0  0  0  0  0  0  0
   30.6301  -25.4205  -18.6406 N   0  0  0  0  0  0  0  0  0  0  0  0
   30.7325  -23.6234  -17.1141 N   0  0  0  0  0  0  0  0  0  0  0  0
   29.8588  -23.0313  -16.1811 C   0  0  0  0  0  0  0  0  0  0  0  0
   28.8261  -22.0821  -16.6097 C   0  0  0  0  0  0  0  0  0  0  0  0
   27.9738  -21.3750  -15.6443 C   0  0  0  0  0  0  0  0  0  0  0  0
   27.1077  -22.1329  -14.7054 C   0  0  2  0  0  0  0  0  0  0  0  0
   26.0772  -22.8263  -15.3877 N   0  0  0  0  0  0  0  0  0  0  0  0
   26.5992  -21.3791  -13.5507 C   0  0  0  0  0  0  0  0  0  0  0  0
   27.3314  -20.4000  -13.1628 O   0  0  0  0  0  0  0  0  0  0  0  0
   30.6584  -24.7007  -19.3898 N   0  0  0  0  0  0  0  0  0  0  0  0
   25.4280  -21.5753  -12.8025 C   0  0  1  0  0  0  0  0  0  0  0  0
   25.0120  -20.7090  -11.7156 C   0  0  0  0  0  0  0  0  0  0  0  0
   23.5576  -20.8784  -11.3904 S   0  0  0  0  0  0  0  0  0  0  0  0
   22.5035  -20.5694  -12.8269 C   0  0  0  0  0  0  0  0  0  0  0  0
   25.7672  -20.9648  -10.4698 O   0  0  0  0  0  0  0  0  0  0  0  0
   26.5758  -21.9206  -10.5026 N   0  0  0  0  0  0  0  0  0  0  0  0
   25.6606  -20.2389   -9.2638 C   0  0  1  0  0  0  0  0  0  0  0  0
   26.4401  -20.4813   -8.1003 C   0  0  0  0  0  0  0  0  0  0  0  0
   27.4873  -19.4688   -7.7913 C   0  0  0  0  0  0  0  0  0  0  0  0
   28.2047  -19.6505   -6.5232 C   0  0  0  0  0  0  0  0  0  0  0  0
   29.3681  -20.3866   -6.4210 C   0  0  0  0  0  0  0  0  0  0  0  0
   30.0216  -20.5509   -5.2171 C   0  0  0  0  0  0  0  0  0  0  0  0
   29.5118  -19.9707   -4.0765 C   0  0  0  0  0  0  0  0  0  0  0  0
   28.3648  -19.2399   -4.1536 C   0  0  0  0  0  0  0  0  0  0  0  0
   27.7306  -19.0897   -5.3643 C   0  0  0  0  0  0  0  0  0  0  0  0
   25.5665  -20.6250   -6.9134 O   0  0  0  0  0  0  0  0  0  0  0  0
   25.9702  -21.4119   -5.8195 O   0  0  0  0  0  0  0  0  0  0  0  0
  1  2  1  0
  2  4  1  0
  2  3  2  0
  4  5  1  0
  5  6  1  0
  6  7  1  0
  7  8  1  0
  8 10  1  0
  8  9  1  6
 10 11  2  0
 12 13  1  0
 12 10  1  0
 14 15  1  0
 13 14  1  6
 16 17  2  0
 16 13  1  0
 18 16  1  0
 19 18  1  0
 19 27  1  0
 19 20  1  1
 21 20  1  0
 22 21  2  0
 23 22  1  0
 24 23  2  0
 24 25  1  0
 25 26  2  0
 26 21  1  0
 27 29  2  0
 27 28  1  0
M  END
$$$$
