RCF.pdb
     RDKit          3D

 29 29  0  0  1  0  0  0  0  0999 V2000
   18.6492  -21.1417  -14.0746 N   0  0  0  0  0  0  0  0  0  0  0  0
   17.6301  -20.4758  -14.8062 C   0  0  0  0  0  0  0  0  0  0  0  0
   16.5747  -20.0389  -14.2186 N   0  0  0  0  0  0  0  0  0  0  0  0
   17.7776  -20.2960  -16.2328 N   0  0  0  0  0  0  0  0  0  0  0  0
   19.0606  -20.2777  -16.8144 C   0  0  0  0  0  0  0  0  0  0  0  0
   19.8392  -19.0369  -16.8883 C   0  0  0  0  0  0  0  0  0  0  0  0
   21.1623  -18.9882  -17.5249 C   0  0  0  0  0  0  0  0  0  0  0  0
   22.3965  -19.1408  -16.7130 C   0  0  2  0  0  0  0  0  0  0  0  0
   22.2492  -20.1407  -15.7196 N   0  0  0  0  0  0  0  0  0  0  0  0
   22.9655  -17.8990  -16.1705 C   0  0  0  0  0  0  0  0  0  0  0  0
   22.3419  -17.3954  -15.1693 O   0  0  0  0  0  0  0  0  0  0  0  0
   15.8550  -19.5506  -14.7876 N   0  0  0  0  0  0  0  0  0  0  0  0
   24.0930  -17.1760  -16.5904 C   0  0  1  0  0  0  0  0  0  0  0  0
   24.4552  -15.8727  -16.0660 C   0  0  0  0  0  0  0  0  0  0  0  0
   25.9398  -15.7237  -15.9135 S   0  0  0  0  0  0  0  0  0  0  0  0
   26.3927  -14.0981  -15.2636 C   0  0  0  0  0  0  0  0  0  0  0  0
   23.9957  -14.7675  -16.9352 O   0  0  0  0  0  0  0  0  0  0  0  0
   23.9876  -15.0017  -18.1655 N   0  0  0  0  0  0  0  0  0  0  0  0
   23.5713  -13.4903  -16.5092 C   0  0  1  0  0  0  0  0  0  0  0  0
   23.1522  -12.4448  -17.3759 C   0  0  0  0  0  0  0  0  0  0  0  0
   21.9622  -12.7340  -18.2231 C   0  0  0  0  0  0  0  0  0  0  0  0
   21.5299  -11.6527  -19.1171 C   0  0  0  0  0  0  0  0  0  0  0  0
   22.3509  -11.1089  -20.0847 C   0  0  0  0  0  0  0  0  0  0  0  0
   21.9262  -10.0874  -20.9090 C   0  0  0  0  0  0  0  0  0  0  0  0
   20.6505   -9.5853  -20.7754 C   0  0  0  0  0  0  0  0  0  0  0  0
   19.8228  -10.1065  -19.8274 C   0  0  0  0  0  0  0  0  0  0  0  0
   20.2677  -11.1242  -19.0170 C   0  0  0  0  0  0  0  0  0  0  0  0
   22.8855  -11.2093  -16.6044 O   0  0  0  0  0  0  0  0  0  0  0  0
   22.6770   -9.9849  -17.2647 O   0  0  0  0  0  0  0  0  0  0  0  0
  1  2  1  0
  2  4  1  0
  2  3  2  0
  4  5  1  0
  5  6  1  0
  6  7  1  0
  7  8  1  0
  8 10  1  0
  8  9  1  1
 10 11  2  0
 12 13  1  0
 12 10  1  0
 14 15  1  0
 13 14  1  6
 16 17  2  0
 16 13  1  0
 18 16  1  0
 19 18  1  0
 19 27  1  0
 19 20  1  6
 21 20  1  0
 22 21  2  0
 23 22  1  0
 24 23  2  0
 24 25  1  0
 25 26  2  0
 26 21  1  0
 27 29  2  0
 27 28  1  0
M  END
$$$$
