RCF.pdb
     RDKit          3D

 29 29  0  0  1  0  0  0  0  0999 V2000
   28.6249  -25.3310  -17.2570 N   0  0  0  0  0  0  0  0  0  0  0  0
   29.1997  -24.2547  -17.9838 C   0  0  0  0  0  0  0  0  0  0  0  0
   29.8334  -24.4640  -19.0813 N   0  0  0  0  0  0  0  0  0  0  0  0
   29.0787  -22.9065  -17.4767 N   0  0  0  0  0  0  0  0  0  0  0  0
   28.0584  -22.5844  -16.5604 C   0  0  0  0  0  0  0  0  0  0  0  0
   26.7343  -23.2085  -16.6537 C   0  0  0  0  0  0  0  0  0  0  0  0
   25.6237  -22.8056  -15.7805 C   0  0  0  0  0  0  0  0  0  0  0  0
   25.4351  -23.4476  -14.4545 C   0  0  2  0  0  0  0  0  0  0  0  0
   25.3570  -24.8585  -14.5624 N   0  0  0  0  0  0  0  0  0  0  0  0
   24.3585  -22.8943  -13.6209 C   0  0  0  0  0  0  0  0  0  0  0  0
   23.1683  -23.2370  -13.9544 O   0  0  0  0  0  0  0  0  0  0  0  0
   30.3465  -23.6726  -19.5179 N   0  0  0  0  0  0  0  0  0  0  0  0
   24.4392  -22.0384  -12.5114 C   0  0  2  0  0  0  0  0  0  0  0  0
   23.2813  -21.4796  -11.8393 C   0  0  0  0  0  0  0  0  0  0  0  0
   23.6686  -20.6671  -10.6395 S   0  0  0  0  0  0  0  0  0  0  0  0
   22.2240  -20.0045   -9.7769 C   0  0  0  0  0  0  0  0  0  0  0  0
   22.4878  -20.5972  -12.7225 O   0  0  0  0  0  0  0  0  0  0  0  0
   23.1420  -19.8498  -13.4853 N   0  0  0  0  0  0  0  0  0  0  0  0
   21.0795  -20.5226  -12.7824 C   0  0  1  0  0  0  0  0  0  0  0  0
   20.3498  -19.6381  -13.6222 C   0  0  0  0  0  0  0  0  0  0  0  0
   20.5816  -19.7845  -15.0859 C   0  0  0  0  0  0  0  0  0  0  0  0
   20.1229  -21.0425  -15.6879 C   0  0  0  0  0  0  0  0  0  0  0  0
   18.7879  -21.3349  -15.8835 C   0  0  0  0  0  0  0  0  0  0  0  0
   18.3789  -22.5273  -16.4441 C   0  0  0  0  0  0  0  0  0  0  0  0
   19.3162  -23.4622  -16.8246 C   0  0  0  0  0  0  0  0  0  0  0  0
   20.6394  -23.1952  -16.6412 C   0  0  0  0  0  0  0  0  0  0  0  0
   21.0237  -22.0001  -16.0803 C   0  0  0  0  0  0  0  0  0  0  0  0
   18.8967  -19.7627  -13.3659 O   0  0  0  0  0  0  0  0  0  0  0  0
   18.4122  -20.7038  -12.4395 O   0  0  0  0  0  0  0  0  0  0  0  0
  1  2  1  0
  2  4  1  0
  2  3  2  0
  4  5  1  0
  5  6  1  0
  6  7  1  0
  7  8  1  0
  8 10  1  0
  8  9  1  6
 10 11  2  0
 12 13  1  0
 12 10  1  0
 14 15  1  0
 13 14  1  1
 16 17  2  0
 16 13  1  0
 18 16  1  0
 19 18  1  0
 19 27  1  0
 19 20  1  6
 21 20  1  0
 22 21  2  0
 23 22  1  0
 24 23  2  0
 24 25  1  0
 25 26  2  0
 26 21  1  0
 27 29  2  0
 27 28  1  0
M  END
$$$$
