RCF.pdb
     RDKit          3D

 29 29  0  0  1  0  0  0  0  0999 V2000
   19.5000  -16.7712  -12.6118 N   0  0  0  0  0  0  0  0  0  0  0  0
   18.8116  -18.0003  -12.4317 C   0  0  0  0  0  0  0  0  0  0  0  0
   17.5295  -18.0528  -12.4901 N   0  0  0  0  0  0  0  0  0  0  0  0
   19.5630  -19.2069  -12.1690 N   0  0  0  0  0  0  0  0  0  0  0  0
   20.4422  -19.7187  -13.1435 C   0  0  0  0  0  0  0  0  0  0  0  0
   21.1370  -18.8265  -14.0776 C   0  0  0  0  0  0  0  0  0  0  0  0
   22.6029  -18.7401  -14.1225 C   0  0  0  0  0  0  0  0  0  0  0  0
   23.4063  -19.8431  -14.7088 C   0  0  2  0  0  0  0  0  0  0  0  0
   22.5913  -20.7746  -15.3990 N   0  0  0  0  0  0  0  0  0  0  0  0
   24.3531  -20.5018  -13.7980 C   0  0  0  0  0  0  0  0  0  0  0  0
   23.8511  -21.4007  -13.0330 O   0  0  0  0  0  0  0  0  0  0  0  0
   17.0603  -18.9622  -12.3083 N   0  0  0  0  0  0  0  0  0  0  0  0
   25.7310  -20.2891  -13.6365 C   0  0  2  0  0  0  0  0  0  0  0  0
   26.5397  -20.9681  -12.6415 C   0  0  0  0  0  0  0  0  0  0  0  0
   27.9805  -21.0474  -13.0507 S   0  0  0  0  0  0  0  0  0  0  0  0
   29.0022  -21.8276  -11.7789 C   0  0  0  0  0  0  0  0  0  0  0  0
   26.4992  -20.2934  -11.3258 O   0  0  0  0  0  0  0  0  0  0  0  0
   26.5040  -19.0412  -11.3490 N   0  0  0  0  0  0  0  0  0  0  0  0
   26.4562  -20.9245  -10.0639 C   0  0  1  0  0  0  0  0  0  0  0  0
   27.1242  -20.4559   -8.9002 C   0  0  0  0  0  0  0  0  0  0  0  0
   26.2522  -19.9587   -7.8003 C   0  0  0  0  0  0  0  0  0  0  0  0
   26.9330  -19.6050   -6.5485 C   0  0  0  0  0  0  0  0  0  0  0  0
   27.3453  -18.3197   -6.2587 C   0  0  0  0  0  0  0  0  0  0  0  0
   27.9907  -18.0114   -5.0790 C   0  0  0  0  0  0  0  0  0  0  0  0
   28.2379  -19.0021   -4.1544 C   0  0  0  0  0  0  0  0  0  0  0  0
   27.8400  -20.2778   -4.4191 C   0  0  0  0  0  0  0  0  0  0  0  0
   27.1985  -20.5618   -5.6016 C   0  0  0  0  0  0  0  0  0  0  0  0
   28.0095  -21.5092   -8.3528 O   0  0  0  0  0  0  0  0  0  0  0  0
   29.2333  -21.1711   -7.7474 O   0  0  0  0  0  0  0  0  0  0  0  0
  1  2  1  0
  2  4  1  0
  2  3  2  0
  4  5  1  0
  5  6  1  0
  6  7  1  0
  7  8  1  0
  8 10  1  0
  8  9  1  1
 10 11  2  0
 12 13  1  0
 12 10  1  0
 14 15  1  0
 13 14  1  1
 16 17  2  0
 16 13  1  0
 18 16  1  0
 19 18  1  0
 19 27  1  0
 19 20  1  6
 21 20  1  0
 22 21  2  0
 23 22  1  0
 24 23  2  0
 24 25  1  0
 25 26  2  0
 26 21  1  0
 27 29  2  0
 27 28  1  0
M  END
$$$$
