RCF.pdb
     RDKit          3D

 29 29  0  0  1  0  0  0  0  0999 V2000
   24.3565  -32.5280  -14.2947 N   0  0  0  0  0  0  0  0  0  0  0  0
   23.1791  -33.0545  -13.7000 C   0  0  0  0  0  0  0  0  0  0  0  0
   23.2468  -33.9708  -12.8024 N   0  0  0  0  0  0  0  0  0  0  0  0
   21.8867  -32.5599  -14.1175 N   0  0  0  0  0  0  0  0  0  0  0  0
   21.7995  -31.4614  -14.9951 C   0  0  0  0  0  0  0  0  0  0  0  0
   22.0825  -30.0991  -14.5310 C   0  0  0  0  0  0  0  0  0  0  0  0
   21.0086  -29.1653  -14.1663 C   0  0  0  0  0  0  0  0  0  0  0  0
   20.8899  -27.8495  -14.8449 C   0  0  2  0  0  0  0  0  0  0  0  0
   22.0438  -27.5499  -15.6112 N   0  0  0  0  0  0  0  0  0  0  0  0
   20.4807  -26.7231  -13.9941 C   0  0  0  0  0  0  0  0  0  0  0  0
   21.3851  -26.2663  -13.2076 O   0  0  0  0  0  0  0  0  0  0  0  0
   22.3619  -34.3754  -12.4371 N   0  0  0  0  0  0  0  0  0  0  0  0
   19.2397  -26.0728  -13.9104 C   0  0  2  0  0  0  0  0  0  0  0  0
   18.9633  -24.9794  -12.9976 C   0  0  0  0  0  0  0  0  0  0  0  0
   17.9602  -24.0184  -13.5632 S   0  0  0  0  0  0  0  0  0  0  0  0
   17.6807  -22.6092  -12.4650 C   0  0  0  0  0  0  0  0  0  0  0  0
   18.4301  -25.4489  -11.7002 O   0  0  0  0  0  0  0  0  0  0  0  0
   17.6949  -26.4619  -11.7414 N   0  0  0  0  0  0  0  0  0  0  0  0
   18.6718  -24.8664  -10.4373 C   0  0  2  0  0  0  0  0  0  0  0  0
   18.1971  -25.3843   -9.2018 C   0  0  0  0  0  0  0  0  0  0  0  0
   18.9476  -24.9666   -7.9853 C   0  0  0  0  0  0  0  0  0  0  0  0
   18.4576  -25.5045   -6.7100 C   0  0  0  0  0  0  0  0  0  0  0  0
   18.9082  -26.6963   -6.1786 C   0  0  0  0  0  0  0  0  0  0  0  0
   18.4280  -27.1869   -4.9819 C   0  0  0  0  0  0  0  0  0  0  0  0
   17.4723  -26.4797   -4.2861 C   0  0  0  0  0  0  0  0  0  0  0  0
   17.0130  -25.3011   -4.7915 C   0  0  0  0  0  0  0  0  0  0  0  0
   17.5061  -24.8316   -5.9860 C   0  0  0  0  0  0  0  0  0  0  0  0
   16.7701  -25.0385   -9.0104 O   0  0  0  0  0  0  0  0  0  0  0  0
   15.8715  -25.9801   -8.4768 O   0  0  0  0  0  0  0  0  0  0  0  0
  1  2  1  0
  2  4  1  0
  2  3  2  0
  4  5  1  0
  5  6  1  0
  6  7  1  0
  7  8  1  0
  8 10  1  0
  8  9  1  1
 10 11  2  0
 12 13  1  0
 12 10  1  0
 14 15  1  0
 13 14  1  6
 16 17  2  0
 16 13  1  0
 18 16  1  0
 19 18  1  0
 19 27  1  0
 19 20  1  6
 21 20  1  0
 22 21  2  0
 23 22  1  0
 24 23  2  0
 24 25  1  0
 25 26  2  0
 26 21  1  0
 27 29  2  0
 27 28  1  0
M  END
$$$$
