RCF.pdb
     RDKit          3D

 29 29  0  0  1  0  0  0  0  0999 V2000
   25.4751  -17.1586  -17.1696 N   0  0  0  0  0  0  0  0  0  0  0  0
   25.3848  -16.0882  -16.2404 C   0  0  0  0  0  0  0  0  0  0  0  0
   25.0429  -14.9104  -16.6224 N   0  0  0  0  0  0  0  0  0  0  0  0
   25.6915  -16.3247  -14.8478 N   0  0  0  0  0  0  0  0  0  0  0  0
   26.1826  -17.5789  -14.4349 C   0  0  0  0  0  0  0  0  0  0  0  0
   27.5183  -18.0357  -14.8331 C   0  0  0  0  0  0  0  0  0  0  0  0
   27.7167  -19.2606  -15.6195 C   0  0  0  0  0  0  0  0  0  0  0  0
   28.0024  -20.5526  -14.9449 C   0  0  2  0  0  0  0  0  0  0  0  0
   28.2332  -21.5917  -15.8805 N   0  0  0  0  0  0  0  0  0  0  0  0
   27.0550  -20.9516  -13.8946 C   0  0  0  0  0  0  0  0  0  0  0  0
   26.0382  -21.6245  -14.2927 O   0  0  0  0  0  0  0  0  0  0  0  0
   24.9848  -14.1545  -15.9115 N   0  0  0  0  0  0  0  0  0  0  0  0
   27.0952  -20.7005  -12.5143 C   0  0  2  0  0  0  0  0  0  0  0  0
   26.0578  -21.1167  -11.5894 C   0  0  0  0  0  0  0  0  0  0  0  0
   26.4605  -20.8974  -10.1613 S   0  0  0  0  0  0  0  0  0  0  0  0
   25.1145  -21.2747   -9.0140 C   0  0  0  0  0  0  0  0  0  0  0  0
   24.7889  -20.3859  -11.7990 O   0  0  0  0  0  0  0  0  0  0  0  0
   24.8664  -19.1359  -11.7940 N   0  0  0  0  0  0  0  0  0  0  0  0
   23.5163  -20.9621  -12.0015 C   0  0  1  0  0  0  0  0  0  0  0  0
   22.4892  -20.3966  -12.8049 C   0  0  0  0  0  0  0  0  0  0  0  0
   22.8536  -20.0957  -14.2171 C   0  0  0  0  0  0  0  0  0  0  0  0
   21.8036  -19.4761  -15.0351 C   0  0  0  0  0  0  0  0  0  0  0  0
   21.9685  -19.1958  -16.3768 C   0  0  0  0  0  0  0  0  0  0  0  0
   20.9706  -18.6058  -17.1247 C   0  0  0  0  0  0  0  0  0  0  0  0
   19.7708  -18.2813  -16.5310 C   0  0  0  0  0  0  0  0  0  0  0  0
   19.5856  -18.5486  -15.2081 C   0  0  0  0  0  0  0  0  0  0  0  0
   20.5944  -19.1371  -14.4825 C   0  0  0  0  0  0  0  0  0  0  0  0
   21.2947  -21.2718  -12.8084 O   0  0  0  0  0  0  0  0  0  0  0  0
   20.0267  -20.7521  -12.4911 O   0  0  0  0  0  0  0  0  0  0  0  0
  1  2  1  0
  2  4  1  0
  2  3  2  0
  4  5  1  0
  5  6  1  0
  6  7  1  0
  7  8  1  0
  8 10  1  0
  8  9  1  6
 10 11  2  0
 12 13  1  0
 12 10  1  0
 14 15  1  0
 13 14  1  1
 16 17  2  0
 16 13  1  0
 18 16  1  0
 19 18  1  0
 19 27  1  0
 19 20  1  1
 21 20  1  0
 22 21  2  0
 23 22  1  0
 24 23  2  0
 24 25  1  0
 25 26  2  0
 26 21  1  0
 27 29  2  0
 27 28  1  0
M  END
$$$$
