RCF.pdb
     RDKit          3D

 29 29  0  0  1  0  0  0  0  0999 V2000
   30.0276  -16.5103  -18.7164 N   0  0  0  0  0  0  0  0  0  0  0  0
   29.3703  -17.5382  -19.4433 C   0  0  0  0  0  0  0  0  0  0  0  0
   29.9986  -18.2256  -20.3279 N   0  0  0  0  0  0  0  0  0  0  0  0
   27.9727  -17.8079  -19.1917 N   0  0  0  0  0  0  0  0  0  0  0  0
   27.3141  -17.1813  -18.1154 C   0  0  0  0  0  0  0  0  0  0  0  0
   27.6347  -17.5298  -16.7273 C   0  0  0  0  0  0  0  0  0  0  0  0
   26.8347  -18.4989  -15.9663 C   0  0  0  0  0  0  0  0  0  0  0  0
   27.4902  -19.6280  -15.2583 C   0  0  2  0  0  0  0  0  0  0  0  0
   28.1179  -20.5197  -16.1634 N   0  0  0  0  0  0  0  0  0  0  0  0
   26.6623  -20.3327  -14.2692 C   0  0  0  0  0  0  0  0  0  0  0  0
   26.0530  -21.3759  -14.6998 O   0  0  0  0  0  0  0  0  0  0  0  0
   29.4764  -18.9528  -20.8558 N   0  0  0  0  0  0  0  0  0  0  0  0
   26.4344  -20.0294  -12.9179 C   0  0  1  0  0  0  0  0  0  0  0  0
   25.4992  -20.7525  -12.0768 C   0  0  0  0  0  0  0  0  0  0  0  0
   25.7924  -20.5583  -10.6187 S   0  0  0  0  0  0  0  0  0  0  0  0
   24.5422  -21.3356   -9.5686 C   0  0  0  0  0  0  0  0  0  0  0  0
   24.0990  -20.3299  -12.2974 O   0  0  0  0  0  0  0  0  0  0  0  0
   23.8395  -19.1310  -12.0448 N   0  0  0  0  0  0  0  0  0  0  0  0
   23.0433  -21.1445  -12.7607 C   0  0  1  0  0  0  0  0  0  0  0  0
   21.7046  -20.7063  -12.9499 C   0  0  0  0  0  0  0  0  0  0  0  0
   21.3071  -20.4025  -14.3524 C   0  0  0  0  0  0  0  0  0  0  0  0
   21.9191  -19.2099  -14.9513 C   0  0  0  0  0  0  0  0  0  0  0  0
   23.2031  -19.2028  -15.4586 C   0  0  0  0  0  0  0  0  0  0  0  0
   23.7611  -18.0680  -16.0100 C   0  0  0  0  0  0  0  0  0  0  0  0
   23.0299  -16.9019  -16.0633 C   0  0  0  0  0  0  0  0  0  0  0  0
   21.7608  -16.8854  -15.5686 C   0  0  0  0  0  0  0  0  0  0  0  0
   21.2252  -18.0285  -15.0236 C   0  0  0  0  0  0  0  0  0  0  0  0
   20.7531  -21.6992  -12.4007 O   0  0  0  0  0  0  0  0  0  0  0  0
   19.3793  -21.4068  -12.3242 O   0  0  0  0  0  0  0  0  0  0  0  0
  1  2  1  0
  2  4  1  0
  2  3  2  0
  4  5  1  0
  5  6  1  0
  6  7  1  0
  7  8  1  0
  8 10  1  0
  8  9  1  6
 10 11  2  0
 12 13  1  0
 12 10  1  0
 14 15  1  0
 13 14  1  6
 16 17  2  0
 16 13  1  0
 18 16  1  0
 19 18  1  0
 19 27  1  0
 19 20  1  1
 21 20  1  0
 22 21  2  0
 23 22  1  0
 24 23  2  0
 24 25  1  0
 25 26  2  0
 26 21  1  0
 27 29  2  0
 27 28  1  0
M  END
$$$$
