RCF.pdb
     RDKit          3D

 29 29  0  0  1  0  0  0  0  0999 V2000
   27.9350  -19.4073  -18.9410 N   0  0  0  0  0  0  0  0  0  0  0  0
   28.7016  -18.3337  -18.4150 C   0  0  0  0  0  0  0  0  0  0  0  0
   28.9912  -17.3132  -19.1393 N   0  0  0  0  0  0  0  0  0  0  0  0
   29.1709  -18.3944  -17.0492 N   0  0  0  0  0  0  0  0  0  0  0  0
   28.4519  -19.1297  -16.0864 C   0  0  0  0  0  0  0  0  0  0  0  0
   27.2860  -18.5516  -15.4098 C   0  0  0  0  0  0  0  0  0  0  0  0
   26.4913  -19.3195  -14.4418 C   0  0  0  0  0  0  0  0  0  0  0  0
   26.8970  -20.6947  -14.0542 C   0  0  2  0  0  0  0  0  0  0  0  0
   27.0586  -21.5314  -15.1866 N   0  0  0  0  0  0  0  0  0  0  0  0
   26.0881  -21.3308  -13.0049 C   0  0  0  0  0  0  0  0  0  0  0  0
   25.2866  -22.2491  -13.4040 O   0  0  0  0  0  0  0  0  0  0  0  0
   29.5758  -16.5598  -18.7259 N   0  0  0  0  0  0  0  0  0  0  0  0
   26.0587  -21.0781  -11.6246 C   0  0  2  0  0  0  0  0  0  0  0  0
   24.9110  -21.3511  -10.7801 C   0  0  0  0  0  0  0  0  0  0  0  0
   25.2218  -21.1399   -9.3280 S   0  0  0  0  0  0  0  0  0  0  0  0
   26.4510  -19.8365   -9.0827 C   0  0  0  0  0  0  0  0  0  0  0  0
   23.7536  -20.4894  -11.1054 O   0  0  0  0  0  0  0  0  0  0  0  0
   24.0067  -19.2785  -11.3007 N   0  0  0  0  0  0  0  0  0  0  0  0
   22.4083  -20.9027  -11.2142 C   0  0  1  0  0  0  0  0  0  0  0  0
   21.3334  -20.0655  -11.6189 C   0  0  0  0  0  0  0  0  0  0  0  0
   21.5163  -19.3421  -12.9075 C   0  0  0  0  0  0  0  0  0  0  0  0
   21.4934  -20.1700  -14.1198 C   0  0  0  0  0  0  0  0  0  0  0  0
   20.3303  -20.7005  -14.6412 C   0  0  0  0  0  0  0  0  0  0  0  0
   20.3331  -21.4826  -15.7777 C   0  0  0  0  0  0  0  0  0  0  0  0
   21.5210  -21.7507  -16.4215 C   0  0  0  0  0  0  0  0  0  0  0  0
   22.6811  -21.2378  -15.9249 C   0  0  0  0  0  0  0  0  0  0  0  0
   22.6542  -20.4609  -14.7908 C   0  0  0  0  0  0  0  0  0  0  0  0
   20.0742  -20.8411  -11.6947 O   0  0  0  0  0  0  0  0  0  0  0  0
   20.0888  -22.2422  -11.5704 O   0  0  0  0  0  0  0  0  0  0  0  0
  1  2  1  0
  2  4  1  0
  2  3  2  0
  4  5  1  0
  5  6  1  0
  6  7  1  0
  7  8  1  0
  8 10  1  0
  8  9  1  6
 10 11  2  0
 12 13  1  0
 12 10  1  0
 14 15  1  0
 13 14  1  1
 16 17  2  0
 16 13  1  0
 18 16  1  0
 19 18  1  0
 19 27  1  0
 19 20  1  1
 21 20  1  0
 22 21  2  0
 23 22  1  0
 24 23  2  0
 24 25  1  0
 25 26  2  0
 26 21  1  0
 27 29  2  0
 27 28  1  0
M  END
$$$$
