RCF.pdb
     RDKit          3D

 29 29  0  0  1  0  0  0  0  0999 V2000
   21.6156  -10.7569  -24.0406 N   0  0  0  0  0  0  0  0  0  0  0  0
   20.3780  -11.1152  -24.6383 C   0  0  0  0  0  0  0  0  0  0  0  0
   19.7508  -10.2925  -25.3997 N   0  0  0  0  0  0  0  0  0  0  0  0
   19.8115  -12.4193  -24.3783 N   0  0  0  0  0  0  0  0  0  0  0  0
   20.4640  -13.3128  -23.5063 C   0  0  0  0  0  0  0  0  0  0  0  0
   21.6495  -14.0604  -23.9387 C   0  0  0  0  0  0  0  0  0  0  0  0
   22.2974  -15.0552  -23.0733 C   0  0  0  0  0  0  0  0  0  0  0  0
   22.4961  -14.7821  -21.6270 C   0  0  2  0  0  0  0  0  0  0  0  0
   22.9398  -13.4552  -21.4011 N   0  0  0  0  0  0  0  0  0  0  0  0
   23.2999  -15.7688  -20.8920 C   0  0  0  0  0  0  0  0  0  0  0  0
   23.0845  -16.9959  -21.1968 O   0  0  0  0  0  0  0  0  0  0  0  0
   18.8479  -10.5921  -25.8184 N   0  0  0  0  0  0  0  0  0  0  0  0
   24.2697  -15.5673  -19.8976 C   0  0  1  0  0  0  0  0  0  0  0  0
   24.9806  -16.6449  -19.2356 C   0  0  0  0  0  0  0  0  0  0  0  0
   26.2759  -16.1783  -18.6404 S   0  0  0  0  0  0  0  0  0  0  0  0
   27.1368  -17.5080  -17.7683 C   0  0  0  0  0  0  0  0  0  0  0  0
   24.1932  -17.2504  -18.1395 O   0  0  0  0  0  0  0  0  0  0  0  0
   23.7020  -16.4522  -17.3086 N   0  0  0  0  0  0  0  0  0  0  0  0
   23.9486  -18.6274  -17.9479 C   0  0  1  0  0  0  0  0  0  0  0  0
   23.2207  -19.1773  -16.8580 C   0  0  0  0  0  0  0  0  0  0  0  0
   21.8794  -19.7369  -17.1824 C   0  0  0  0  0  0  0  0  0  0  0  0
   21.1933  -20.4390  -16.0907 C   0  0  0  0  0  0  0  0  0  0  0  0
   20.3156  -19.8089  -15.2313 C   0  0  0  0  0  0  0  0  0  0  0  0
   19.6877  -20.4869  -14.2069 C   0  0  0  0  0  0  0  0  0  0  0  0
   19.9329  -21.8299  -14.0233 C   0  0  0  0  0  0  0  0  0  0  0  0
   20.7954  -22.4724  -14.8593 C   0  0  0  0  0  0  0  0  0  0  0  0
   21.4098  -21.7763  -15.8734 C   0  0  0  0  0  0  0  0  0  0  0  0
   24.0146  -20.2306  -16.1851 O   0  0  0  0  0  0  0  0  0  0  0  0
   23.8785  -20.4556  -14.8032 O   0  0  0  0  0  0  0  0  0  0  0  0
  1  2  1  0
  2  4  1  0
  2  3  2  0
  4  5  1  0
  5  6  1  0
  6  7  1  0
  7  8  1  0
  8 10  1  0
  8  9  1  6
 10 11  2  0
 12 13  1  0
 12 10  1  0
 14 15  1  0
 13 14  1  6
 16 17  2  0
 16 13  1  0
 18 16  1  0
 19 18  1  0
 19 27  1  0
 19 20  1  1
 21 20  1  0
 22 21  2  0
 23 22  1  0
 24 23  2  0
 24 25  1  0
 25 26  2  0
 26 21  1  0
 27 29  2  0
 27 28  1  0
M  END
$$$$
