RCF.pdb
     RDKit          3D

 29 29  0  0  1  0  0  0  0  0999 V2000
   30.0039  -19.6800  -18.3206 N   0  0  0  0  0  0  0  0  0  0  0  0
   30.0028  -20.1560  -19.6586 C   0  0  0  0  0  0  0  0  0  0  0  0
   30.7818  -19.6429  -20.5418 N   0  0  0  0  0  0  0  0  0  0  0  0
   29.1059  -21.2254  -20.0345 N   0  0  0  0  0  0  0  0  0  0  0  0
   28.3643  -21.9058  -19.0488 C   0  0  0  0  0  0  0  0  0  0  0  0
   27.3753  -21.2010  -18.2265 C   0  0  0  0  0  0  0  0  0  0  0  0
   26.5440  -21.9042  -17.2402 C   0  0  0  0  0  0  0  0  0  0  0  0
   27.1716  -22.6708  -16.1337 C   0  0  2  0  0  0  0  0  0  0  0  0
   27.4854  -23.9957  -16.5270 N   0  0  0  0  0  0  0  0  0  0  0  0
   26.4696  -22.6264  -14.8433 C   0  0  0  0  0  0  0  0  0  0  0  0
   25.7282  -23.6397  -14.5812 O   0  0  0  0  0  0  0  0  0  0  0  0
   30.7675  -20.0338  -21.5047 N   0  0  0  0  0  0  0  0  0  0  0  0
   26.4863  -21.6328  -13.8521 C   0  0  2  0  0  0  0  0  0  0  0  0
   25.6130  -21.6361  -12.6935 C   0  0  0  0  0  0  0  0  0  0  0  0
   26.2306  -20.9268  -11.5252 S   0  0  0  0  0  0  0  0  0  0  0  0
   25.1309  -20.9043  -10.0899 C   0  0  0  0  0  0  0  0  0  0  0  0
   24.3157  -20.9787  -12.9632 O   0  0  0  0  0  0  0  0  0  0  0  0
   24.3732  -19.8117  -13.4141 N   0  0  0  0  0  0  0  0  0  0  0  0
   23.0363  -21.5400  -12.7613 C   0  0  1  0  0  0  0  0  0  0  0  0
   21.8085  -20.8597  -12.9840 C   0  0  0  0  0  0  0  0  0  0  0  0
   21.0452  -21.2663  -14.1963 C   0  0  0  0  0  0  0  0  0  0  0  0
   21.7111  -21.0350  -15.4842 C   0  0  0  0  0  0  0  0  0  0  0  0
   22.6208  -21.9211  -16.0256 C   0  0  0  0  0  0  0  0  0  0  0  0
   23.2407  -21.6797  -17.2342 C   0  0  0  0  0  0  0  0  0  0  0  0
   22.9548  -20.5271  -17.9322 C   0  0  0  0  0  0  0  0  0  0  0  0
   22.0603  -19.6381  -17.4171 C   0  0  0  0  0  0  0  0  0  0  0  0
   21.4547  -19.8997  -16.2108 C   0  0  0  0  0  0  0  0  0  0  0  0
   20.9206  -20.9968  -11.8069 O   0  0  0  0  0  0  0  0  0  0  0  0
   19.7122  -20.2803  -11.7354 O   0  0  0  0  0  0  0  0  0  0  0  0
  1  2  1  0
  2  4  1  0
  2  3  2  0
  4  5  1  0
  5  6  1  0
  6  7  1  0
  7  8  1  0
  8 10  1  0
  8  9  1  6
 10 11  2  0
 12 13  1  0
 12 10  1  0
 14 15  1  0
 13 14  1  1
 16 17  2  0
 16 13  1  0
 18 16  1  0
 19 18  1  0
 19 27  1  0
 19 20  1  1
 21 20  1  0
 22 21  2  0
 23 22  1  0
 24 23  2  0
 24 25  1  0
 25 26  2  0
 26 21  1  0
 27 29  2  0
 27 28  1  0
M  END
$$$$
