RCF.pdb
     RDKit          3D

 29 29  0  0  1  0  0  0  0  0999 V2000
   26.0992  -24.1503  -16.5469 N   0  0  0  0  0  0  0  0  0  0  0  0
   27.1537  -25.0572  -16.8341 C   0  0  0  0  0  0  0  0  0  0  0  0
   26.9515  -26.3257  -16.8323 N   0  0  0  0  0  0  0  0  0  0  0  0
   28.4749  -24.5466  -17.1225 N   0  0  0  0  0  0  0  0  0  0  0  0
   28.6903  -23.1580  -17.2219 C   0  0  0  0  0  0  0  0  0  0  0  0
   29.5048  -22.4469  -16.2308 C   0  0  0  0  0  0  0  0  0  0  0  0
   28.9658  -21.3327  -15.4395 C   0  0  0  0  0  0  0  0  0  0  0  0
   27.7387  -20.6200  -15.8777 C   0  0  2  0  0  0  0  0  0  0  0  0
   28.0290  -19.6214  -16.8405 N   0  0  0  0  0  0  0  0  0  0  0  0
   26.8690  -20.1195  -14.8038 C   0  0  0  0  0  0  0  0  0  0  0  0
   27.0602  -18.8986  -14.4603 O   0  0  0  0  0  0  0  0  0  0  0  0
   27.7715  -26.9600  -16.9053 N   0  0  0  0  0  0  0  0  0  0  0  0
   25.8584  -20.7837  -14.0914 C   0  0  2  0  0  0  0  0  0  0  0  0
   24.9629  -20.1240  -13.1599 C   0  0  0  0  0  0  0  0  0  0  0  0
   23.5687  -20.0192  -13.7028 S   0  0  0  0  0  0  0  0  0  0  0  0
   23.4564  -18.8173  -15.0493 C   0  0  0  0  0  0  0  0  0  0  0  0
   24.8717  -20.8347  -11.8658 O   0  0  0  0  0  0  0  0  0  0  0  0
   24.8585  -22.0856  -11.9245 N   0  0  0  0  0  0  0  0  0  0  0  0
   24.7994  -20.2386  -10.5882 C   0  0  1  0  0  0  0  0  0  0  0  0
   24.6877  -20.9541   -9.3653 C   0  0  0  0  0  0  0  0  0  0  0  0
   25.1773  -20.2501   -8.1478 C   0  0  0  0  0  0  0  0  0  0  0  0
   26.6243  -20.0108   -8.0803 C   0  0  0  0  0  0  0  0  0  0  0  0
   27.5547  -20.9153   -8.5517 C   0  0  0  0  0  0  0  0  0  0  0  0
   28.9104  -20.6732   -8.4708 C   0  0  0  0  0  0  0  0  0  0  0  0
   29.3643  -19.5013   -7.9068 C   0  0  0  0  0  0  0  0  0  0  0  0
   28.4643  -18.5942   -7.4348 C   0  0  0  0  0  0  0  0  0  0  0  0
   27.1178  -18.8568   -7.5260 C   0  0  0  0  0  0  0  0  0  0  0  0
   23.2842  -21.3651   -9.1330 O   0  0  0  0  0  0  0  0  0  0  0  0
   22.9662  -22.2775   -8.1107 O   0  0  0  0  0  0  0  0  0  0  0  0
  1  2  1  0
  2  4  1  0
  2  3  2  0
  4  5  1  0
  5  6  1  0
  6  7  1  0
  7  8  1  0
  8 10  1  0
  8  9  1  1
 10 11  2  0
 12 13  1  0
 12 10  1  0
 14 15  1  0
 13 14  1  6
 16 17  2  0
 16 13  1  0
 18 16  1  0
 19 18  1  0
 19 27  1  0
 19 20  1  1
 21 20  1  0
 22 21  2  0
 23 22  1  0
 24 23  2  0
 24 25  1  0
 25 26  2  0
 26 21  1  0
 27 29  2  0
 27 28  1  0
M  END
$$$$
