RCF.pdb
     RDKit          3D

 29 29  0  0  1  0  0  0  0  0999 V2000
   28.6134  -19.6737  -17.9888 N   0  0  0  0  0  0  0  0  0  0  0  0
   28.9308  -18.2904  -18.0428 C   0  0  0  0  0  0  0  0  0  0  0  0
   29.3727  -17.7570  -19.1246 N   0  0  0  0  0  0  0  0  0  0  0  0
   28.7641  -17.4737  -16.8619 N   0  0  0  0  0  0  0  0  0  0  0  0
   28.1764  -18.0177  -15.7030 C   0  0  0  0  0  0  0  0  0  0  0  0
   26.7527  -18.3691  -15.6714 C   0  0  0  0  0  0  0  0  0  0  0  0
   26.1316  -18.9840  -14.4906 C   0  0  0  0  0  0  0  0  0  0  0  0
   26.7624  -20.1550  -13.8296 C   0  0  2  0  0  0  0  0  0  0  0  0
   27.3205  -21.0516  -14.7746 N   0  0  0  0  0  0  0  0  0  0  0  0
   25.9398  -20.8464  -12.8271 C   0  0  0  0  0  0  0  0  0  0  0  0
   25.1131  -21.7109  -13.2900 O   0  0  0  0  0  0  0  0  0  0  0  0
   29.6298  -16.7500  -19.1134 N   0  0  0  0  0  0  0  0  0  0  0  0
   25.9208  -20.6971  -11.4316 C   0  0  2  0  0  0  0  0  0  0  0  0
   24.9374  -21.3232  -10.5679 C   0  0  0  0  0  0  0  0  0  0  0  0
   25.2100  -21.0490   -9.1187 S   0  0  0  0  0  0  0  0  0  0  0  0
   25.6310  -19.3148   -8.8265 C   0  0  0  0  0  0  0  0  0  0  0  0
   23.5623  -20.8545  -10.8464 O   0  0  0  0  0  0  0  0  0  0  0  0
   23.4293  -19.6250  -11.0443 N   0  0  0  0  0  0  0  0  0  0  0  0
   22.4024  -21.6566  -10.9086 C   0  0  1  0  0  0  0  0  0  0  0  0
   21.1090  -21.1852  -11.2618 C   0  0  0  0  0  0  0  0  0  0  0  0
   20.7606  -21.2509  -12.7081 C   0  0  0  0  0  0  0  0  0  0  0  0
   21.1953  -20.1130  -13.5276 C   0  0  0  0  0  0  0  0  0  0  0  0
   20.5731  -18.8812  -13.4872 C   0  0  0  0  0  0  0  0  0  0  0  0
   20.9937  -17.8276  -14.2722 C   0  0  0  0  0  0  0  0  0  0  0  0
   22.0626  -17.9932  -15.1252 C   0  0  0  0  0  0  0  0  0  0  0  0
   22.6919  -19.2000  -15.1818 C   0  0  0  0  0  0  0  0  0  0  0  0
   22.2553  -20.2359  -14.3901 C   0  0  0  0  0  0  0  0  0  0  0  0
   20.0680  -21.9107  -10.4985 O   0  0  0  0  0  0  0  0  0  0  0  0
   20.4212  -22.9441   -9.6119 O   0  0  0  0  0  0  0  0  0  0  0  0
  1  2  1  0
  2  4  1  0
  2  3  2  0
  4  5  1  0
  5  6  1  0
  6  7  1  0
  7  8  1  0
  8 10  1  0
  8  9  1  6
 10 11  2  0
 12 13  1  0
 12 10  1  0
 14 15  1  0
 13 14  1  1
 16 17  2  0
 16 13  1  0
 18 16  1  0
 19 18  1  0
 19 27  1  0
 19 20  1  1
 21 20  1  0
 22 21  2  0
 23 22  1  0
 24 23  2  0
 24 25  1  0
 25 26  2  0
 26 21  1  0
 27 29  2  0
 27 28  1  0
M  END
$$$$
