RCF.pdb
     RDKit          3D

 29 29  0  0  1  0  0  0  0  0999 V2000
   19.3519  -28.3820  -22.1347 N   0  0  0  0  0  0  0  0  0  0  0  0
   19.8716  -27.2732  -22.8541 C   0  0  0  0  0  0  0  0  0  0  0  0
   19.5360  -27.0642  -24.0763 N   0  0  0  0  0  0  0  0  0  0  0  0
   20.7984  -26.3732  -22.2057 N   0  0  0  0  0  0  0  0  0  0  0  0
   21.0999  -26.5327  -20.8389 C   0  0  0  0  0  0  0  0  0  0  0  0
   20.0928  -27.0306  -19.8960 C   0  0  0  0  0  0  0  0  0  0  0  0
   20.3642  -27.1374  -18.4561 C   0  0  0  0  0  0  0  0  0  0  0  0
   21.7363  -26.9247  -17.9289 C   0  0  2  0  0  0  0  0  0  0  0  0
   22.6281  -27.9348  -18.3678 N   0  0  0  0  0  0  0  0  0  0  0  0
   21.8380  -26.6846  -16.4825 C   0  0  0  0  0  0  0  0  0  0  0  0
   21.7117  -27.7219  -15.7388 O   0  0  0  0  0  0  0  0  0  0  0  0
   19.9378  -26.2417  -24.5685 N   0  0  0  0  0  0  0  0  0  0  0  0
   22.0493  -25.4820  -15.7903 C   0  0  1  0  0  0  0  0  0  0  0  0
   22.1797  -25.3952  -14.3479 C   0  0  0  0  0  0  0  0  0  0  0  0
   23.3321  -24.5253  -13.9416 S   0  0  0  0  0  0  0  0  0  0  0  0
   24.9240  -25.3303  -14.2379 C   0  0  0  0  0  0  0  0  0  0  0  0
   20.9692  -24.8394  -13.7046 O   0  0  0  0  0  0  0  0  0  0  0  0
   20.4350  -23.8666  -14.2847 N   0  0  0  0  0  0  0  0  0  0  0  0
   20.3700  -25.3002  -12.5124 C   0  0  1  0  0  0  0  0  0  0  0  0
   19.2097  -24.7348  -11.9174 C   0  0  0  0  0  0  0  0  0  0  0  0
   18.0041  -24.6483  -12.7871 C   0  0  0  0  0  0  0  0  0  0  0  0
   17.5925  -25.8955  -13.4433 C   0  0  0  0  0  0  0  0  0  0  0  0
   17.9936  -26.2368  -14.7195 C   0  0  0  0  0  0  0  0  0  0  0  0
   17.5881  -27.4108  -15.3199 C   0  0  0  0  0  0  0  0  0  0  0  0
   16.7601  -28.2770  -14.6405 C   0  0  0  0  0  0  0  0  0  0  0  0
   16.3517  -27.9609  -13.3800 C   0  0  0  0  0  0  0  0  0  0  0  0
   16.7684  -26.7852  -12.8016 C   0  0  0  0  0  0  0  0  0  0  0  0
   18.8454  -25.4761  -10.6884 O   0  0  0  0  0  0  0  0  0  0  0  0
   19.5734  -26.6145  -10.2977 O   0  0  0  0  0  0  0  0  0  0  0  0
  1  2  1  0
  2  4  1  0
  2  3  2  0
  4  5  1  0
  5  6  1  0
  6  7  1  0
  7  8  1  0
  8 10  1  0
  8  9  1  1
 10 11  2  0
 12 13  1  0
 12 10  1  0
 14 15  1  0
 13 14  1  1
 16 17  2  0
 16 13  1  0
 18 16  1  0
 19 18  1  0
 19 27  1  0
 19 20  1  1
 21 20  1  0
 22 21  2  0
 23 22  1  0
 24 23  2  0
 24 25  1  0
 25 26  2  0
 26 21  1  0
 27 29  2  0
 27 28  1  0
M  END
$$$$
