RCF.pdb
     RDKit          3D

 29 29  0  0  1  0  0  0  0  0999 V2000
   24.6798  -19.8287  -19.2165 N   0  0  0  0  0  0  0  0  0  0  0  0
   25.7100  -19.0558  -19.8152 C   0  0  0  0  0  0  0  0  0  0  0  0
   25.4722  -18.3239  -20.8437 N   0  0  0  0  0  0  0  0  0  0  0  0
   27.0463  -19.1007  -19.2661 N   0  0  0  0  0  0  0  0  0  0  0  0
   27.3087  -18.5466  -17.9977 C   0  0  0  0  0  0  0  0  0  0  0  0
   26.3104  -17.7176  -17.3141 C   0  0  0  0  0  0  0  0  0  0  0  0
   25.9514  -17.9383  -15.9067 C   0  0  0  0  0  0  0  0  0  0  0  0
   25.9378  -19.3100  -15.3375 C   0  0  2  0  0  0  0  0  0  0  0  0
   25.2313  -20.2146  -16.1688 N   0  0  0  0  0  0  0  0  0  0  0  0
   25.5307  -19.4166  -13.9293 C   0  0  0  0  0  0  0  0  0  0  0  0
   25.0609  -18.3439  -13.4061 O   0  0  0  0  0  0  0  0  0  0  0  0
   26.2731  -17.8731  -21.3290 N   0  0  0  0  0  0  0  0  0  0  0  0
   25.5843  -20.5220  -13.0661 C   0  0  1  0  0  0  0  0  0  0  0  0
   24.9684  -20.5491  -11.7528 C   0  0  0  0  0  0  0  0  0  0  0  0
   23.8884  -21.5859  -11.6625 S   0  0  0  0  0  0  0  0  0  0  0  0
   24.4276  -23.1824  -12.3188 C   0  0  0  0  0  0  0  0  0  0  0  0
   25.9423  -20.8430  -10.6790 O   0  0  0  0  0  0  0  0  0  0  0  0
   26.7898  -21.7296  -10.9321 N   0  0  0  0  0  0  0  0  0  0  0  0
   26.0020  -20.2230   -9.4122 C   0  0  1  0  0  0  0  0  0  0  0  0
   26.8617  -20.6236   -8.3536 C   0  0  0  0  0  0  0  0  0  0  0  0
   27.9858  -19.6994   -8.0378 C   0  0  0  0  0  0  0  0  0  0  0  0
   28.4448  -19.6965   -6.6432 C   0  0  0  0  0  0  0  0  0  0  0  0
   28.0012  -18.7791   -5.7118 C   0  0  0  0  0  0  0  0  0  0  0  0
   28.4521  -18.7900   -4.4081 C   0  0  0  0  0  0  0  0  0  0  0  0
   29.3703  -19.7361   -4.0090 C   0  0  0  0  0  0  0  0  0  0  0  0
   29.8222  -20.6514   -4.9110 C   0  0  0  0  0  0  0  0  0  0  0  0
   29.3588  -20.6213   -6.2052 C   0  0  0  0  0  0  0  0  0  0  0  0
   26.0840  -20.8517   -7.1143 O   0  0  0  0  0  0  0  0  0  0  0  0
   26.5431  -21.7546   -6.1382 O   0  0  0  0  0  0  0  0  0  0  0  0
  1  2  1  0
  2  4  1  0
  2  3  2  0
  4  5  1  0
  5  6  1  0
  6  7  1  0
  7  8  1  0
  8 10  1  0
  8  9  1  6
 10 11  2  0
 12 13  1  0
 12 10  1  0
 14 15  1  0
 13 14  1  1
 16 17  2  0
 16 13  1  0
 18 16  1  0
 19 18  1  0
 19 27  1  0
 19 20  1  1
 21 20  1  0
 22 21  2  0
 23 22  1  0
 24 23  2  0
 24 25  1  0
 25 26  2  0
 26 21  1  0
 27 29  2  0
 27 28  1  0
M  END
$$$$
