RCF.pdb
     RDKit          3D

 29 29  0  0  1  0  0  0  0  0999 V2000
   21.9376  -27.2357  -14.9437 N   0  0  0  0  0  0  0  0  0  0  0  0
   21.8828  -26.9984  -16.3429 C   0  0  0  0  0  0  0  0  0  0  0  0
   21.6491  -27.9568  -17.1657 N   0  0  0  0  0  0  0  0  0  0  0  0
   22.1028  -25.6624  -16.8491 N   0  0  0  0  0  0  0  0  0  0  0  0
   22.1550  -24.5696  -15.9615 C   0  0  0  0  0  0  0  0  0  0  0  0
   22.9328  -24.6410  -14.7201 C   0  0  0  0  0  0  0  0  0  0  0  0
   24.2573  -24.0173  -14.5978 C   0  0  0  0  0  0  0  0  0  0  0  0
   24.4261  -22.7442  -13.8518 C   0  0  2  0  0  0  0  0  0  0  0  0
   24.1127  -21.6205  -14.6564 N   0  0  0  0  0  0  0  0  0  0  0  0
   25.7029  -22.5803  -13.1426 C   0  0  0  0  0  0  0  0  0  0  0  0
   26.2060  -23.6537  -12.6528 O   0  0  0  0  0  0  0  0  0  0  0  0
   21.6978  -27.7600  -18.1851 N   0  0  0  0  0  0  0  0  0  0  0  0
   26.4551  -21.4171  -12.9163 C   0  0  1  0  0  0  0  0  0  0  0  0
   27.3724  -21.2548  -11.8040 C   0  0  0  0  0  0  0  0  0  0  0  0
   28.4759  -20.2909  -12.1249 S   0  0  0  0  0  0  0  0  0  0  0  0
   29.6129  -20.0782  -10.7349 C   0  0  0  0  0  0  0  0  0  0  0  0
   26.6992  -20.7531  -10.5862 O   0  0  0  0  0  0  0  0  0  0  0  0
   25.9288  -19.7785  -10.7451 N   0  0  0  0  0  0  0  0  0  0  0  0
   26.8444  -21.2664   -9.2793 C   0  0  2  0  0  0  0  0  0  0  0  0
   26.2283  -20.7201   -8.1209 C   0  0  0  0  0  0  0  0  0  0  0  0
   26.6018  -21.3475   -6.8231 C   0  0  0  0  0  0  0  0  0  0  0  0
   27.6805  -20.6888   -6.0761 C   0  0  0  0  0  0  0  0  0  0  0  0
   27.4483  -19.6906   -5.1510 C   0  0  0  0  0  0  0  0  0  0  0  0
   28.4782  -19.0797   -4.4660 C   0  0  0  0  0  0  0  0  0  0  0  0
   29.7798  -19.4650   -4.7002 C   0  0  0  0  0  0  0  0  0  0  0  0
   30.0327  -20.4479   -5.6087 C   0  0  0  0  0  0  0  0  0  0  0  0
   28.9904  -21.0427   -6.2797 C   0  0  0  0  0  0  0  0  0  0  0  0
   26.4961  -19.2666   -8.0297 O   0  0  0  0  0  0  0  0  0  0  0  0
   25.6121  -18.4186   -7.3381 O   0  0  0  0  0  0  0  0  0  0  0  0
  1  2  1  0
  2  4  1  0
  2  3  2  0
  4  5  1  0
  5  6  1  0
  6  7  1  0
  7  8  1  0
  8 10  1  0
  8  9  1  6
 10 11  2  0
 12 13  1  0
 12 10  1  0
 14 15  1  0
 13 14  1  1
 16 17  2  0
 16 13  1  0
 18 16  1  0
 19 18  1  0
 19 27  1  0
 19 20  1  6
 21 20  1  0
 22 21  2  0
 23 22  1  0
 24 23  2  0
 24 25  1  0
 25 26  2  0
 26 21  1  0
 27 29  2  0
 27 28  1  0
M  END
$$$$
