MMT.pdb
     RDKit          3D

 24 23  0  0  1  0  0  0  0  0999 V2000
   19.0853  -13.8996  -17.7291 C   0  0  0  0  0  0  0  0  0  0  0  0
   19.1421  -13.7148  -19.5158 S   0  0  0  0  0  0  0  0  0  0  0  0
   20.1992  -12.2847  -19.9278 C   0  0  0  0  0  0  0  0  0  0  0  0
   20.0418  -11.2668  -18.8317 C   0  0  0  0  0  0  0  0  0  0  0  0
   20.8797  -10.0279  -19.0185 C   0  0  2  0  0  0  0  0  0  0  0  0
   22.2595  -10.4509  -18.7406 N   0  0  0  0  0  0  0  0  0  0  0  0
   20.5437   -9.0692  -17.9287 C   0  0  0  0  0  0  0  0  0  0  0  0
   19.3454   -8.6296  -17.9233 O   0  0  0  0  0  0  0  0  0  0  0  0
   21.7102   -9.4834  -11.2017 C   0  0  0  0  0  0  0  0  0  0  0  0
   22.6883   -9.9895  -12.6069 S   0  0  0  0  0  0  0  0  0  0  0  0
   21.9638   -9.6278  -14.1851 C   0  0  0  0  0  0  0  0  0  0  0  0
   21.7546   -8.2203  -14.5667 C   0  0  0  0  0  0  0  0  0  0  0  0
   21.0616   -7.8652  -15.8209 C   0  0  2  0  0  0  0  0  0  0  0  0
   21.4770   -8.6538  -16.9455 N   0  0  0  0  0  0  0  0  0  0  0  0
   20.8856   -6.4399  -16.1091 C   0  0  0  0  0  0  0  0  0  0  0  0
   21.8400   -5.6401  -16.3147 O   0  0  0  0  0  0  0  0  0  0  0  0
   19.3108   -4.7576  -18.9469 C   0  0  0  0  0  0  0  0  0  0  0  0
   18.5434   -4.3850  -17.7002 C   0  0  1  0  0  0  0  0  0  0  0  0
   17.4240   -5.1958  -17.6246 O   0  0  0  0  0  0  0  0  0  0  0  0
   19.4097   -4.4526  -16.4633 C   0  0  2  0  0  0  0  0  0  0  0  0
   19.5881   -5.8809  -16.1717 N   0  0  0  0  0  0  0  0  0  0  0  0
   18.7542   -3.7594  -15.3461 C   0  0  0  0  0  0  0  0  0  0  0  0
   18.5757   -2.3774  -15.3133 O   0  0  0  0  0  0  0  0  0  0  0  0
   18.3443   -4.4669  -14.3882 O   0  0  0  0  0  0  0  0  0  0  0  0
  1  2  1  0
  3  2  1  0
  4  3  1  0
  5  4  1  0
  5  6  1  1
  7  8  2  0
  7  5  1  0
  9 10  1  0
 10 11  1  0
 11 12  1  0
 13 12  1  1
 13 14  1  0
 14  7  1  0
 15 21  1  0
 15 13  1  0
 16 15  2  0
 18 17  1  6
 18 20  1  0
 19 18  1  0
 20 21  1  1
 20 22  1  0
 22 23  1  0
 24 22  2  0
M  END
$$$$
