MMT.pdb
     RDKit          3D

 24 23  0  0  1  0  0  0  0  0999 V2000
   26.6482  -16.4547  -16.2476 C   0  0  0  0  0  0  0  0  0  0  0  0
   28.2305  -16.7885  -17.0317 S   0  0  0  0  0  0  0  0  0  0  0  0
   28.7226  -18.5065  -16.6597 C   0  0  0  0  0  0  0  0  0  0  0  0
   27.6267  -19.1306  -15.8401 C   0  0  0  0  0  0  0  0  0  0  0  0
   27.9273  -20.5336  -15.3785 C   0  0  2  0  0  0  0  0  0  0  0  0
   27.7507  -21.3768  -16.5694 N   0  0  0  0  0  0  0  0  0  0  0  0
   26.8484  -20.9577  -14.4428 C   0  0  0  0  0  0  0  0  0  0  0  0
   25.9395  -21.7024  -14.9414 O   0  0  0  0  0  0  0  0  0  0  0  0
   23.9814  -21.5185   -6.9986 C   0  0  0  0  0  0  0  0  0  0  0  0
   25.3040  -21.0420   -8.0992 S   0  0  0  0  0  0  0  0  0  0  0  0
   24.9200  -21.1805   -9.8254 C   0  0  0  0  0  0  0  0  0  0  0  0
   25.9453  -20.8065  -10.8150 C   0  0  0  0  0  0  0  0  0  0  0  0
   25.6645  -20.8651  -12.2632 C   0  0  2  0  0  0  0  0  0  0  0  0
   26.8086  -20.5731  -13.0786 N   0  0  0  0  0  0  0  0  0  0  0  0
   24.4149  -20.2590  -12.7287 C   0  0  0  0  0  0  0  0  0  0  0  0
   24.2088  -19.0146  -12.7704 O   0  0  0  0  0  0  0  0  0  0  0  0
   22.8482  -20.3403  -15.9520 C   0  0  0  0  0  0  0  0  0  0  0  0
   21.8328  -20.9239  -14.9979 C   0  0  1  0  0  0  0  0  0  0  0  0
   21.8477  -22.3007  -15.1416 O   0  0  0  0  0  0  0  0  0  0  0  0
   22.0717  -20.4732  -13.5750 C   0  0  2  0  0  0  0  0  0  0  0  0
   23.3477  -21.0760  -13.1683 N   0  0  0  0  0  0  0  0  0  0  0  0
   20.9721  -20.9208  -12.7096 C   0  0  0  0  0  0  0  0  0  0  0  0
   19.6632  -20.4631  -12.8514 O   0  0  0  0  0  0  0  0  0  0  0  0
   21.2498  -21.7548  -11.8075 O   0  0  0  0  0  0  0  0  0  0  0  0
  1  2  1  0
  3  2  1  0
  4  3  1  0
  5  4  1  0
  5  6  1  6
  7  8  2  0
  7  5  1  0
  9 10  1  0
 10 11  1  0
 11 12  1  0
 13 12  1  1
 13 14  1  0
 14  7  1  0
 15 21  1  0
 15 13  1  0
 16 15  2  0
 18 17  1  6
 18 20  1  0
 19 18  1  0
 20 21  1  1
 20 22  1  0
 22 23  1  0
 24 22  2  0
M  END
$$$$
