MMT.pdb
     RDKit          3D

 24 23  0  0  1  0  0  0  0  0999 V2000
   22.0131  -17.8253  -15.2509 C   0  0  0  0  0  0  0  0  0  0  0  0
   21.3579  -16.1558  -15.3648 S   0  0  0  0  0  0  0  0  0  0  0  0
   22.1957  -15.2852  -16.7332 C   0  0  0  0  0  0  0  0  0  0  0  0
   21.6274  -13.8947  -16.8088 C   0  0  0  0  0  0  0  0  0  0  0  0
   20.1513  -13.8495  -17.1107 C   0  0  2  0  0  0  0  0  0  0  0  0
   20.0443  -14.1262  -18.5502 N   0  0  0  0  0  0  0  0  0  0  0  0
   19.6861  -12.4430  -16.9531 C   0  0  0  0  0  0  0  0  0  0  0  0
   19.9530  -11.6561  -17.9221 O   0  0  0  0  0  0  0  0  0  0  0  0
   13.2122  -12.2232  -16.3787 C   0  0  0  0  0  0  0  0  0  0  0  0
   14.3715  -11.2115  -15.4731 S   0  0  0  0  0  0  0  0  0  0  0  0
   16.0582  -11.3602  -16.0019 C   0  0  0  0  0  0  0  0  0  0  0  0
   17.0859  -10.5348  -15.3441 C   0  0  0  0  0  0  0  0  0  0  0  0
   18.5062  -10.6304  -15.7354 C   0  0  2  0  0  0  0  0  0  0  0  0
   18.9883  -11.9798  -15.8090 N   0  0  0  0  0  0  0  0  0  0  0  0
   19.4373   -9.6846  -15.1157 C   0  0  0  0  0  0  0  0  0  0  0  0
   19.8781   -9.7994  -13.9387 O   0  0  0  0  0  0  0  0  0  0  0  0
   22.8561   -8.7358  -16.0432 C   0  0  0  0  0  0  0  0  0  0  0  0
   22.0068   -7.4880  -16.1032 C   0  0  1  0  0  0  0  0  0  0  0  0
   21.6832   -7.2500  -17.4280 O   0  0  0  0  0  0  0  0  0  0  0  0
   20.7951   -7.5867  -15.2049 C   0  0  2  0  0  0  0  0  0  0  0  0
   19.8986   -8.5611  -15.8401 N   0  0  0  0  0  0  0  0  0  0  0  0
   20.1492   -6.2733  -15.0780 C   0  0  0  0  0  0  0  0  0  0  0  0
   20.7190   -5.2148  -14.3724 O   0  0  0  0  0  0  0  0  0  0  0  0
   19.0324   -6.1222  -15.6403 O   0  0  0  0  0  0  0  0  0  0  0  0
  1  2  1  0
  3  2  1  0
  4  3  1  0
  5  4  1  0
  5  6  1  6
  7  8  2  0
  7  5  1  0
  9 10  1  0
 10 11  1  0
 11 12  1  0
 13 12  1  1
 13 14  1  0
 14  7  1  0
 15 21  1  0
 15 13  1  0
 16 15  2  0
 18 17  1  6
 18 20  1  0
 19 18  1  0
 20 21  1  6
 20 22  1  0
 22 23  1  0
 24 22  2  0
M  END
$$$$
