MMT.pdb
     RDKit          3D

 24 23  0  0  1  0  0  0  0  0999 V2000
   19.0458  -21.5199  -10.2017 C   0  0  0  0  0  0  0  0  0  0  0  0
   18.3590  -22.0446  -11.7774 S   0  0  0  0  0  0  0  0  0  0  0  0
   19.5902  -21.7366  -13.0895 C   0  0  0  0  0  0  0  0  0  0  0  0
   20.7792  -21.0683  -12.4555 C   0  0  0  0  0  0  0  0  0  0  0  0
   21.8451  -20.6510  -13.4361 C   0  0  2  0  0  0  0  0  0  0  0  0
   22.1042  -21.8445  -14.2539 N   0  0  0  0  0  0  0  0  0  0  0  0
   23.1083  -20.4196  -12.6810 C   0  0  0  0  0  0  0  0  0  0  0  0
   23.2444  -19.2602  -12.1649 O   0  0  0  0  0  0  0  0  0  0  0  0
   26.1326  -19.8760   -8.0000 C   0  0  0  0  0  0  0  0  0  0  0  0
   27.5480  -20.6512   -8.7637 S   0  0  0  0  0  0  0  0  0  0  0  0
   27.2927  -21.1782  -10.4381 C   0  0  0  0  0  0  0  0  0  0  0  0
   25.9195  -21.4491  -10.8977 C   0  0  0  0  0  0  0  0  0  0  0  0
   25.4714  -21.0405  -12.2438 C   0  0  2  0  0  0  0  0  0  0  0  0
   24.1139  -21.4077  -12.5292 N   0  0  0  0  0  0  0  0  0  0  0  0
   26.4045  -21.2501  -13.3532 C   0  0  0  0  0  0  0  0  0  0  0  0
   27.2367  -22.1976  -13.4037 O   0  0  0  0  0  0  0  0  0  0  0  0
   26.2818  -22.6263  -16.4006 C   0  0  0  0  0  0  0  0  0  0  0  0
   26.6133  -21.1798  -16.6831 C   0  0  1  0  0  0  0  0  0  0  0  0
   25.4349  -20.5179  -16.9822 O   0  0  0  0  0  0  0  0  0  0  0  0
   27.3787  -20.5440  -15.5452 C   0  0  2  0  0  0  0  0  0  0  0  0
   26.4101  -20.3650  -14.4560 N   0  0  0  0  0  0  0  0  0  0  0  0
   27.9445  -19.2567  -15.9710 C   0  0  0  0  0  0  0  0  0  0  0  0
   28.9586  -19.1533  -16.9216 O   0  0  0  0  0  0  0  0  0  0  0  0
   27.4758  -18.2157  -15.4391 O   0  0  0  0  0  0  0  0  0  0  0  0
  1  2  1  0
  3  2  1  0
  4  3  1  0
  5  4  1  0
  5  6  1  6
  7  8  2  0
  7  5  1  0
  9 10  1  0
 10 11  1  0
 11 12  1  0
 13 12  1  1
 13 14  1  0
 14  7  1  0
 15 21  1  0
 15 13  1  0
 16 15  2  0
 18 17  1  1
 18 20  1  0
 19 18  1  0
 20 21  1  1
 20 22  1  0
 22 23  1  0
 24 22  2  0
M  END
$$$$
