MMT.pdb
     RDKit          3D

 24 23  0  0  1  0  0  0  0  0999 V2000
   21.7574  -22.4740  -16.8615 C   0  0  0  0  0  0  0  0  0  0  0  0
   20.4586  -23.3015  -15.9352 S   0  0  0  0  0  0  0  0  0  0  0  0
   20.1345  -22.3609  -14.4046 C   0  0  0  0  0  0  0  0  0  0  0  0
   21.4254  -21.7162  -13.9801 C   0  0  0  0  0  0  0  0  0  0  0  0
   21.3144  -20.8846  -12.7279 C   0  0  2  0  0  0  0  0  0  0  0  0
   20.6133  -19.6603  -13.1398 N   0  0  0  0  0  0  0  0  0  0  0  0
   22.6819  -20.4349  -12.3442 C   0  0  0  0  0  0  0  0  0  0  0  0
   23.0215  -19.2741  -12.7521 O   0  0  0  0  0  0  0  0  0  0  0  0
   25.2926  -20.2866   -6.5361 C   0  0  0  0  0  0  0  0  0  0  0  0
   26.7704  -20.4299   -7.5277 S   0  0  0  0  0  0  0  0  0  0  0  0
   26.4964  -20.3854   -9.2797 C   0  0  0  0  0  0  0  0  0  0  0  0
   25.2135  -20.8762   -9.8123 C   0  0  0  0  0  0  0  0  0  0  0  0
   24.8853  -20.7512  -11.2462 C   0  0  2  0  0  0  0  0  0  0  0  0
   23.5718  -21.2263  -11.5747 N   0  0  0  0  0  0  0  0  0  0  0  0
   25.9256  -21.1256  -12.2070 C   0  0  0  0  0  0  0  0  0  0  0  0
   27.0857  -21.4990  -11.8787 O   0  0  0  0  0  0  0  0  0  0  0  0
   26.2458  -23.8244  -14.3763 C   0  0  0  0  0  0  0  0  0  0  0  0
   26.2972  -22.6251  -15.2934 C   0  0  1  0  0  0  0  0  0  0  0  0
   25.0628  -22.4983  -15.9070 O   0  0  0  0  0  0  0  0  0  0  0  0
   26.7278  -21.3742  -14.5623 C   0  0  2  0  0  0  0  0  0  0  0  0
   25.6614  -21.0830  -13.5955 N   0  0  0  0  0  0  0  0  0  0  0  0
   26.9024  -20.2664  -15.5115 C   0  0  0  0  0  0  0  0  0  0  0  0
   27.8954  -20.2576  -16.4897 O   0  0  0  0  0  0  0  0  0  0  0  0
   26.1077  -19.2940  -15.4167 O   0  0  0  0  0  0  0  0  0  0  0  0
  1  2  1  0
  3  2  1  0
  4  3  1  0
  5  4  1  0
  5  6  1  6
  7  8  2  0
  7  5  1  0
  9 10  1  0
 10 11  1  0
 11 12  1  0
 13 12  1  1
 13 14  1  0
 14  7  1  0
 15 21  1  0
 15 13  1  0
 16 15  2  0
 18 17  1  1
 18 20  1  0
 19 18  1  0
 20 21  1  1
 20 22  1  0
 22 23  1  0
 24 22  2  0
M  END
$$$$
