MMT.pdb
     RDKit          3D

 24 23  0  0  1  0  0  0  0  0999 V2000
   24.8988  -20.6748   -7.8357 C   0  0  0  0  0  0  0  0  0  0  0  0
   24.6441  -20.6111   -9.6136 S   0  0  0  0  0  0  0  0  0  0  0  0
   26.2486  -20.8569  -10.4487 C   0  0  0  0  0  0  0  0  0  0  0  0
   26.0539  -20.5663  -11.9115 C   0  0  0  0  0  0  0  0  0  0  0  0
   24.8999  -21.3072  -12.5370 C   0  0  2  0  0  0  0  0  0  0  0  0
   25.3823  -22.6827  -12.7253 N   0  0  0  0  0  0  0  0  0  0  0  0
   24.6980  -20.7778  -13.9149 C   0  0  0  0  0  0  0  0  0  0  0  0
   25.4343  -21.2911  -14.8224 O   0  0  0  0  0  0  0  0  0  0  0  0
   20.5905  -21.2413  -17.7771 C   0  0  0  0  0  0  0  0  0  0  0  0
   21.1976  -19.7158  -18.4785 S   0  0  0  0  0  0  0  0  0  0  0  0
   21.8433  -18.5605  -17.2974 C   0  0  0  0  0  0  0  0  0  0  0  0
   22.1952  -19.0415  -15.9501 C   0  0  0  0  0  0  0  0  0  0  0  0
   23.6003  -19.2920  -15.5727 C   0  0  2  0  0  0  0  0  0  0  0  0
   23.7540  -19.7670  -14.2274 N   0  0  0  0  0  0  0  0  0  0  0  0
   24.5923  -18.2955  -15.9830 C   0  0  0  0  0  0  0  0  0  0  0  0
   24.7296  -17.1694  -15.4298 O   0  0  0  0  0  0  0  0  0  0  0  0
   28.7576  -17.3470  -18.3905 C   0  0  0  0  0  0  0  0  0  0  0  0
   27.6899  -18.2806  -17.8706 C   0  0  1  0  0  0  0  0  0  0  0  0
   28.2200  -18.9931  -16.8087 O   0  0  0  0  0  0  0  0  0  0  0  0
   26.4197  -17.5424  -17.5148 C   0  0  2  0  0  0  0  0  0  0  0  0
   25.4713  -18.5661  -17.0573 N   0  0  0  0  0  0  0  0  0  0  0  0
   25.9036  -16.8256  -18.6887 C   0  0  0  0  0  0  0  0  0  0  0  0
   25.1460  -17.4455  -19.6811 O   0  0  0  0  0  0  0  0  0  0  0  0
   26.1708  -15.5982  -18.7796 O   0  0  0  0  0  0  0  0  0  0  0  0
  1  2  1  0
  3  2  1  0
  4  3  1  0
  5  4  1  0
  5  6  1  6
  7  8  2  0
  7  5  1  0
  9 10  1  0
 10 11  1  0
 11 12  1  0
 13 12  1  1
 13 14  1  0
 14  7  1  0
 15 21  1  0
 15 13  1  0
 16 15  2  0
 18 17  1  1
 18 20  1  0
 19 18  1  0
 20 21  1  6
 20 22  1  0
 22 23  1  0
 24 22  2  0
M  END
$$$$
