MMT.pdb
     RDKit          3D

 24 23  0  0  1  0  0  0  0  0999 V2000
   21.4917  -34.3303    0.9388 C   0  0  0  0  0  0  0  0  0  0  0  0
   20.2466  -34.5743    2.2116 S   0  0  0  0  0  0  0  0  0  0  0  0
   19.5987  -32.9461    2.7231 C   0  0  0  0  0  0  0  0  0  0  0  0
   20.7101  -32.2071    3.4165 C   0  0  0  0  0  0  0  0  0  0  0  0
   20.2394  -31.2332    4.4662 C   0  0  2  0  0  0  0  0  0  0  0  0
   19.6168  -30.1320    3.7180 N   0  0  0  0  0  0  0  0  0  0  0  0
   21.4381  -30.6300    5.1134 C   0  0  0  0  0  0  0  0  0  0  0  0
   21.9843  -29.6636    4.4834 O   0  0  0  0  0  0  0  0  0  0  0  0
   22.7198  -28.2404   11.0885 C   0  0  0  0  0  0  0  0  0  0  0  0
   21.9310  -27.5677    9.6348 S   0  0  0  0  0  0  0  0  0  0  0  0
   21.9150  -28.6509    8.2301 C   0  0  0  0  0  0  0  0  0  0  0  0
   22.8845  -29.7586    8.1742 C   0  0  0  0  0  0  0  0  0  0  0  0
   23.1391  -30.4863    6.9152 C   0  0  2  0  0  0  0  0  0  0  0  0
   21.9613  -31.0812    6.3516 N   0  0  0  0  0  0  0  0  0  0  0  0
   24.3340  -31.3318    6.8595 C   0  0  0  0  0  0  0  0  0  0  0  0
   24.4525  -32.4248    7.4793 O   0  0  0  0  0  0  0  0  0  0  0  0
   26.6485  -32.0307    3.5851 C   0  0  0  0  0  0  0  0  0  0  0  0
   27.3729  -31.4418    4.7726 C   0  0  1  0  0  0  0  0  0  0  0  0
   27.5299  -30.0842    4.5520 O   0  0  0  0  0  0  0  0  0  0  0  0
   26.6700  -31.7542    6.0738 C   0  0  2  0  0  0  0  0  0  0  0  0
   25.4461  -30.9424    6.0777 N   0  0  0  0  0  0  0  0  0  0  0  0
   27.5356  -31.4169    7.2119 C   0  0  0  0  0  0  0  0  0  0  0  0
   28.6940  -32.1290    7.5186 O   0  0  0  0  0  0  0  0  0  0  0  0
   27.1947  -30.4375    7.9266 O   0  0  0  0  0  0  0  0  0  0  0  0
  1  2  1  0
  3  2  1  0
  4  3  1  0
  5  4  1  0
  5  6  1  6
  7  8  2  0
  7  5  1  0
  9 10  1  0
 10 11  1  0
 11 12  1  0
 13 12  1  1
 13 14  1  0
 14  7  1  0
 15 21  1  0
 15 13  1  0
 16 15  2  0
 18 17  1  6
 18 20  1  0
 19 18  1  0
 20 21  1  1
 20 22  1  0
 22 23  1  0
 24 22  2  0
M  END
$$$$
