MMT.pdb
     RDKit          3D

 24 23  0  0  1  0  0  0  0  0999 V2000
   17.4839  -13.0513  -17.7172 C   0  0  0  0  0  0  0  0  0  0  0  0
   17.9792  -12.5782  -19.3787 S   0  0  0  0  0  0  0  0  0  0  0  0
   19.7909  -12.7476  -19.5251 C   0  0  0  0  0  0  0  0  0  0  0  0
   20.4190  -11.9087  -18.4462 C   0  0  0  0  0  0  0  0  0  0  0  0
   21.9254  -11.8808  -18.4880 C   0  0  2  0  0  0  0  0  0  0  0  0
   22.3445  -13.2555  -18.1802 N   0  0  0  0  0  0  0  0  0  0  0  0
   22.4086  -11.0643  -17.3393 C   0  0  0  0  0  0  0  0  0  0  0  0
   22.0958  -11.4950  -16.1792 O   0  0  0  0  0  0  0  0  0  0  0  0
   27.7721  -12.6692  -15.2155 C   0  0  0  0  0  0  0  0  0  0  0  0
   27.2796  -10.9737  -15.4808 S   0  0  0  0  0  0  0  0  0  0  0  0
   25.5504  -10.7443  -15.8030 C   0  0  0  0  0  0  0  0  0  0  0  0
   25.0423   -9.3791  -16.0230 C   0  0  0  0  0  0  0  0  0  0  0  0
   23.6240   -9.1375  -16.3539 C   0  0  2  0  0  0  0  0  0  0  0  0
   23.1701   -9.8785  -17.4958 N   0  0  0  0  0  0  0  0  0  0  0  0
   23.1494   -7.7529  -16.2993 C   0  0  0  0  0  0  0  0  0  0  0  0
   23.3677   -6.8977  -17.2015 O   0  0  0  0  0  0  0  0  0  0  0  0
   20.0971   -6.3296  -16.6972 C   0  0  0  0  0  0  0  0  0  0  0  0
   20.4798   -5.8953  -15.3019 C   0  0  1  0  0  0  0  0  0  0  0  0
   19.8105   -6.7043  -14.3998 O   0  0  0  0  0  0  0  0  0  0  0  0
   21.9780   -5.8963  -15.1019 C   0  0  2  0  0  0  0  0  0  0  0  0
   22.3973   -7.3010  -15.1904 N   0  0  0  0  0  0  0  0  0  0  0  0
   22.3156   -5.3218  -13.7925 C   0  0  0  0  0  0  0  0  0  0  0  0
   22.1195   -3.9770  -13.4830 O   0  0  0  0  0  0  0  0  0  0  0  0
   22.8020   -6.0989  -12.9290 O   0  0  0  0  0  0  0  0  0  0  0  0
  1  2  1  0
  3  2  1  0
  4  3  1  0
  5  4  1  0
  5  6  1  1
  7  8  2  0
  7  5  1  0
  9 10  1  0
 10 11  1  0
 11 12  1  0
 13 12  1  6
 13 14  1  0
 14  7  1  0
 15 21  1  0
 15 13  1  0
 16 15  2  0
 18 17  1  6
 18 20  1  0
 19 18  1  0
 20 21  1  1
 20 22  1  0
 22 23  1  0
 24 22  2  0
M  END
$$$$
