MMT.pdb
     RDKit          3D

 24 23  0  0  1  0  0  0  0  0999 V2000
   21.3890   -9.7863  -24.2926 C   0  0  0  0  0  0  0  0  0  0  0  0
   21.4131   -9.0542  -22.6515 S   0  0  0  0  0  0  0  0  0  0  0  0
   21.5590  -10.3872  -21.4128 C   0  0  0  0  0  0  0  0  0  0  0  0
   21.6578   -9.7446  -20.0566 C   0  0  0  0  0  0  0  0  0  0  0  0
   21.8852  -10.7195  -18.9297 C   0  0  2  0  0  0  0  0  0  0  0  0
   20.8249  -11.7272  -19.0727 N   0  0  0  0  0  0  0  0  0  0  0  0
   21.5866  -10.0255  -17.6456 C   0  0  0  0  0  0  0  0  0  0  0  0
   20.3585   -9.9999  -17.2988 O   0  0  0  0  0  0  0  0  0  0  0  0
   21.2748  -10.2788  -10.6197 C   0  0  0  0  0  0  0  0  0  0  0  0
   22.7021   -9.9635  -11.6448 S   0  0  0  0  0  0  0  0  0  0  0  0
   22.3874   -8.9465  -13.0637 C   0  0  0  0  0  0  0  0  0  0  0  0
   22.5655   -9.5241  -14.4072 C   0  0  0  0  0  0  0  0  0  0  0  0
   22.2396   -8.7481  -15.6201 C   0  0  2  0  0  0  0  0  0  0  0  0
   22.5845   -9.4225  -16.8389 N   0  0  0  0  0  0  0  0  0  0  0  0
   22.5553   -7.3179  -15.6058 C   0  0  0  0  0  0  0  0  0  0  0  0
   23.6270   -6.8289  -16.0588 O   0  0  0  0  0  0  0  0  0  0  0  0
   20.9498   -4.4899  -17.2285 C   0  0  0  0  0  0  0  0  0  0  0  0
   20.8798   -4.2379  -15.7407 C   0  0  1  0  0  0  0  0  0  0  0  0
   19.6096   -4.5750  -15.3055 O   0  0  0  0  0  0  0  0  0  0  0  0
   21.9751   -4.9639  -14.9936 C   0  0  2  0  0  0  0  0  0  0  0  0
   21.6355   -6.3910  -15.0632 N   0  0  0  0  0  0  0  0  0  0  0  0
   22.0343   -4.4984  -13.6014 C   0  0  0  0  0  0  0  0  0  0  0  0
   22.3621   -3.1888  -13.2546 O   0  0  0  0  0  0  0  0  0  0  0  0
   21.7733   -5.3385  -12.7000 O   0  0  0  0  0  0  0  0  0  0  0  0
  1  2  1  0
  3  2  1  0
  4  3  1  0
  5  4  1  0
  5  6  1  6
  7  8  2  0
  7  5  1  0
  9 10  1  0
 10 11  1  0
 11 12  1  0
 13 12  1  1
 13 14  1  0
 14  7  1  0
 15 21  1  0
 15 13  1  0
 16 15  2  0
 18 17  1  6
 18 20  1  0
 19 18  1  0
 20 21  1  1
 20 22  1  0
 22 23  1  0
 24 22  2  0
M  END
$$$$
