MMT.pdb
     RDKit          3D

 24 23  0  0  1  0  0  0  0  0999 V2000
   27.5020  -16.3953  -15.2221 C   0  0  0  0  0  0  0  0  0  0  0  0
   28.8225  -17.5183  -15.6963 S   0  0  0  0  0  0  0  0  0  0  0  0
   28.1751  -18.7063  -16.9217 C   0  0  0  0  0  0  0  0  0  0  0  0
   27.2394  -19.6407  -16.2051 C   0  0  0  0  0  0  0  0  0  0  0  0
   27.9111  -20.5138  -15.1764 C   0  0  2  0  0  0  0  0  0  0  0  0
   28.3101  -21.7275  -15.9030 N   0  0  0  0  0  0  0  0  0  0  0  0
   26.8775  -20.9688  -14.2046 C   0  0  0  0  0  0  0  0  0  0  0  0
   26.1350  -21.9322  -14.5915 O   0  0  0  0  0  0  0  0  0  0  0  0
   26.4175  -19.5077   -7.4709 C   0  0  0  0  0  0  0  0  0  0  0  0
   25.5465  -21.0144   -7.8696 S   0  0  0  0  0  0  0  0  0  0  0  0
   25.0694  -21.1684   -9.5712 C   0  0  0  0  0  0  0  0  0  0  0  0
   26.0144  -20.7400  -10.6170 C   0  0  0  0  0  0  0  0  0  0  0  0
   25.6586  -20.8249  -12.0473 C   0  0  2  0  0  0  0  0  0  0  0  0
   26.7070  -20.3862  -12.9233 N   0  0  0  0  0  0  0  0  0  0  0  0
   24.3176  -20.3784  -12.4321 C   0  0  0  0  0  0  0  0  0  0  0  0
   23.9684  -19.1669  -12.4895 O   0  0  0  0  0  0  0  0  0  0  0  0
   22.5361  -21.0210  -15.5426 C   0  0  0  0  0  0  0  0  0  0  0  0
   21.6362  -21.5223  -14.4377 C   0  0  1  0  0  0  0  0  0  0  0  0
   21.7178  -22.9039  -14.4087 O   0  0  0  0  0  0  0  0  0  0  0  0
   21.9633  -20.8805  -13.1089 C   0  0  2  0  0  0  0  0  0  0  0  0
   23.3214  -21.3239  -12.7686 N   0  0  0  0  0  0  0  0  0  0  0  0
   20.9944  -21.3034  -12.0888 C   0  0  0  0  0  0  0  0  0  0  0  0
   19.6463  -20.9519  -12.1338 O   0  0  0  0  0  0  0  0  0  0  0  0
   21.4252  -22.0140  -11.1424 O   0  0  0  0  0  0  0  0  0  0  0  0
  1  2  1  0
  3  2  1  0
  4  3  1  0
  5  4  1  0
  5  6  1  6
  7  8  2  0
  7  5  1  0
  9 10  1  0
 10 11  1  0
 11 12  1  0
 13 12  1  1
 13 14  1  0
 14  7  1  0
 15 21  1  0
 15 13  1  0
 16 15  2  0
 18 17  1  6
 18 20  1  0
 19 18  1  0
 20 21  1  1
 20 22  1  0
 22 23  1  0
 24 22  2  0
M  END
$$$$
