MMT.pdb
     RDKit          3D

 24 23  0  0  1  0  0  0  0  0999 V2000
   27.8319  -20.6560  -19.2498 C   0  0  0  0  0  0  0  0  0  0  0  0
   28.7125  -19.1323  -18.8856 S   0  0  0  0  0  0  0  0  0  0  0  0
   27.8603  -18.2701  -17.5209 C   0  0  0  0  0  0  0  0  0  0  0  0
   26.9865  -19.2730  -16.8189 C   0  0  0  0  0  0  0  0  0  0  0  0
   25.7734  -18.6734  -16.1552 C   0  0  2  0  0  0  0  0  0  0  0  0
   26.2898  -17.5671  -15.3368 N   0  0  0  0  0  0  0  0  0  0  0  0
   25.2416  -19.6618  -15.1755 C   0  0  0  0  0  0  0  0  0  0  0  0
   24.6629  -20.6844  -15.6742 O   0  0  0  0  0  0  0  0  0  0  0  0
   26.7713  -20.4382   -8.7098 C   0  0  0  0  0  0  0  0  0  0  0  0
   25.1408  -21.1567   -8.8219 S   0  0  0  0  0  0  0  0  0  0  0  0
   24.3962  -21.0616  -10.4291 C   0  0  0  0  0  0  0  0  0  0  0  0
   25.1130  -20.3554  -11.5051 C   0  0  0  0  0  0  0  0  0  0  0  0
   24.5595  -20.2856  -12.8720 C   0  0  2  0  0  0  0  0  0  0  0  0
   25.3571  -19.5021  -13.7714 N   0  0  0  0  0  0  0  0  0  0  0  0
   23.1154  -20.0772  -13.0005 C   0  0  0  0  0  0  0  0  0  0  0  0
   22.5305  -18.9987  -12.7042 O   0  0  0  0  0  0  0  0  0  0  0  0
   21.1258  -21.7688  -15.9518 C   0  0  0  0  0  0  0  0  0  0  0  0
   20.5918  -20.6509  -15.0874 C   0  0  1  0  0  0  0  0  0  0  0  0
   19.2528  -20.4735  -15.3905 O   0  0  0  0  0  0  0  0  0  0  0  0
   20.8388  -20.9068  -13.6183 C   0  0  2  0  0  0  0  0  0  0  0  0
   22.2859  -21.1165  -13.4816 N   0  0  0  0  0  0  0  0  0  0  0  0
   20.0858  -22.0880  -13.1753 C   0  0  0  0  0  0  0  0  0  0  0  0
   20.7015  -23.2815  -12.8019 O   0  0  0  0  0  0  0  0  0  0  0  0
   18.8305  -21.9929  -13.1400 O   0  0  0  0  0  0  0  0  0  0  0  0
  1  2  1  0
  3  2  1  0
  4  3  1  0
  5  4  1  0
  5  6  1  1
  7  8  2  0
  7  5  1  0
  9 10  1  0
 10 11  1  0
 11 12  1  0
 13 12  1  1
 13 14  1  0
 14  7  1  0
 15 21  1  0
 15 13  1  0
 16 15  2  0
 18 17  1  6
 18 20  1  0
 19 18  1  0
 20 21  1  6
 20 22  1  0
 22 23  1  0
 24 22  2  0
M  END
$$$$
