MMT.pdb
     RDKit          3D

 24 23  0  0  1  0  0  0  0  0999 V2000
   26.2772  -17.0702  -17.7989 C   0  0  0  0  0  0  0  0  0  0  0  0
   27.7938  -16.4713  -17.0432 S   0  0  0  0  0  0  0  0  0  0  0  0
   28.6784  -17.8829  -16.2967 C   0  0  0  0  0  0  0  0  0  0  0  0
   27.6655  -18.7308  -15.5774 C   0  0  0  0  0  0  0  0  0  0  0  0
   28.2659  -19.8517  -14.7681 C   0  0  2  0  0  0  0  0  0  0  0  0
   28.6767  -20.8611  -15.7542 N   0  0  0  0  0  0  0  0  0  0  0  0
   27.1749  -20.4984  -13.9864 C   0  0  0  0  0  0  0  0  0  0  0  0
   26.4794  -21.3660  -14.6131 O   0  0  0  0  0  0  0  0  0  0  0  0
   26.2785  -20.0553   -7.3204 C   0  0  0  0  0  0  0  0  0  0  0  0
   24.9246  -21.0767   -7.8784 S   0  0  0  0  0  0  0  0  0  0  0  0
   24.7645  -21.1999   -9.6408 C   0  0  0  0  0  0  0  0  0  0  0  0
   25.8549  -20.6928  -10.4918 C   0  0  0  0  0  0  0  0  0  0  0  0
   25.7550  -20.7337  -11.9642 C   0  0  2  0  0  0  0  0  0  0  0  0
   26.9036  -20.1887  -12.6295 N   0  0  0  0  0  0  0  0  0  0  0  0
   24.4710  -20.3563  -12.5596 C   0  0  0  0  0  0  0  0  0  0  0  0
   24.1193  -19.1640  -12.7775 O   0  0  0  0  0  0  0  0  0  0  0  0
   20.6318  -21.5322  -15.2859 C   0  0  0  0  0  0  0  0  0  0  0  0
   22.0357  -21.6770  -14.7473 C   0  0  1  0  0  0  0  0  0  0  0  0
   22.9175  -21.2298  -15.7161 O   0  0  0  0  0  0  0  0  0  0  0  0
   22.2058  -20.9740  -13.4200 C   0  0  2  0  0  0  0  0  0  0  0  0
   23.5375  -21.3520  -12.9296 N   0  0  0  0  0  0  0  0  0  0  0  0
   21.1548  -21.3955  -12.4841 C   0  0  0  0  0  0  0  0  0  0  0  0
   20.0220  -20.6266  -12.2221 O   0  0  0  0  0  0  0  0  0  0  0  0
   21.3071  -22.5039  -11.9056 O   0  0  0  0  0  0  0  0  0  0  0  0
  1  2  1  0
  3  2  1  0
  4  3  1  0
  5  4  1  0
  5  6  1  6
  7  8  2  0
  7  5  1  0
  9 10  1  0
 10 11  1  0
 11 12  1  0
 13 12  1  1
 13 14  1  0
 14  7  1  0
 15 21  1  0
 15 13  1  0
 16 15  2  0
 18 17  1  6
 18 20  1  0
 19 18  1  0
 20 21  1  1
 20 22  1  0
 22 23  1  0
 24 22  2  0
M  END
$$$$
