MMT.pdb
     RDKit          3D

 24 23  0  0  1  0  0  0  0  0999 V2000
   17.7854   -9.1407  -20.1821 C   0  0  0  0  0  0  0  0  0  0  0  0
   18.2067  -10.8871  -20.2293 S   0  0  0  0  0  0  0  0  0  0  0  0
   17.8538  -11.6235  -18.5967 C   0  0  0  0  0  0  0  0  0  0  0  0
   18.7935  -11.0021  -17.6001 C   0  0  0  0  0  0  0  0  0  0  0  0
   20.2087  -11.5133  -17.6881 C   0  0  2  0  0  0  0  0  0  0  0  0
   20.1499  -12.8961  -17.1936 N   0  0  0  0  0  0  0  0  0  0  0  0
   21.0322  -10.7805  -16.6859 C   0  0  0  0  0  0  0  0  0  0  0  0
   20.6757  -10.9135  -15.4676 O   0  0  0  0  0  0  0  0  0  0  0  0
   27.3911  -10.5008  -15.3264 C   0  0  0  0  0  0  0  0  0  0  0  0
   26.1271  -11.7616  -15.3200 S   0  0  0  0  0  0  0  0  0  0  0  0
   24.4643  -11.1467  -15.3798 C   0  0  0  0  0  0  0  0  0  0  0  0
   24.2350   -9.7546  -15.8039 C   0  0  0  0  0  0  0  0  0  0  0  0
   22.8697   -9.2434  -16.0365 C   0  0  2  0  0  0  0  0  0  0  0  0
   22.1477   -9.9780  -17.0355 N   0  0  0  0  0  0  0  0  0  0  0  0
   22.7015   -7.7902  -16.1097 C   0  0  0  0  0  0  0  0  0  0  0  0
   23.0983   -7.0834  -17.0771 O   0  0  0  0  0  0  0  0  0  0  0  0
   19.9603   -5.8927  -16.7085 C   0  0  0  0  0  0  0  0  0  0  0  0
   20.4120   -5.4031  -15.3527 C   0  0  1  0  0  0  0  0  0  0  0  0
   19.6172   -6.0028  -14.3910 O   0  0  0  0  0  0  0  0  0  0  0  0
   21.8890   -5.6369  -15.1320 C   0  0  2  0  0  0  0  0  0  0  0  0
   22.0617   -7.0935  -15.0585 N   0  0  0  0  0  0  0  0  0  0  0  0
   22.3256   -4.9861  -13.8894 C   0  0  0  0  0  0  0  0  0  0  0  0
   22.3538   -3.6016  -13.7298 O   0  0  0  0  0  0  0  0  0  0  0  0
   22.6853   -5.7334  -12.9415 O   0  0  0  0  0  0  0  0  0  0  0  0
  1  2  1  0
  3  2  1  0
  4  3  1  0
  5  4  1  0
  5  6  1  1
  7  8  2  0
  7  5  1  0
  9 10  1  0
 10 11  1  0
 11 12  1  0
 13 12  1  6
 13 14  1  0
 14  7  1  0
 15 21  1  0
 15 13  1  0
 16 15  2  0
 18 17  1  6
 18 20  1  0
 19 18  1  0
 20 21  1  1
 20 22  1  0
 22 23  1  0
 24 22  2  0
M  END
$$$$
