MMT.pdb
     RDKit          3D

 24 23  0  0  1  0  0  0  0  0999 V2000
   26.6133  -15.9957  -15.2147 C   0  0  0  0  0  0  0  0  0  0  0  0
   27.8989  -16.5301  -16.3511 S   0  0  0  0  0  0  0  0  0  0  0  0
   28.5278  -18.1556  -15.8084 C   0  0  0  0  0  0  0  0  0  0  0  0
   27.4409  -18.8264  -15.0143 C   0  0  0  0  0  0  0  0  0  0  0  0
   27.8713  -20.1040  -14.3402 C   0  0  2  0  0  0  0  0  0  0  0  0
   28.0677  -21.0680  -15.4321 N   0  0  0  0  0  0  0  0  0  0  0  0
   26.7159  -20.6329  -13.5624 C   0  0  0  0  0  0  0  0  0  0  0  0
   25.9660  -21.4645  -14.1750 O   0  0  0  0  0  0  0  0  0  0  0  0
   26.1675  -19.6461   -7.1005 C   0  0  0  0  0  0  0  0  0  0  0  0
   26.9881  -21.0884   -7.7592 S   0  0  0  0  0  0  0  0  0  0  0  0
   26.5679  -21.4804   -9.4374 C   0  0  0  0  0  0  0  0  0  0  0  0
   25.4374  -20.7794  -10.0705 C   0  0  0  0  0  0  0  0  0  0  0  0
   25.2839  -20.7504  -11.5386 C   0  0  2  0  0  0  0  0  0  0  0  0
   26.4425  -20.2536  -12.2238 N   0  0  0  0  0  0  0  0  0  0  0  0
   24.0081  -20.2648  -12.0696 C   0  0  0  0  0  0  0  0  0  0  0  0
   23.6633  -19.0507  -12.0731 O   0  0  0  0  0  0  0  0  0  0  0  0
   22.7799  -20.3086  -15.3908 C   0  0  0  0  0  0  0  0  0  0  0  0
   21.7423  -21.0609  -14.5912 C   0  0  1  0  0  0  0  0  0  0  0  0
   21.9237  -22.4149  -14.8153 O   0  0  0  0  0  0  0  0  0  0  0  0
   21.7822  -20.6913  -13.1261 C   0  0  2  0  0  0  0  0  0  0  0  0
   23.0751  -21.1724  -12.6223 N   0  0  0  0  0  0  0  0  0  0  0  0
   20.6645  -21.3238  -12.4126 C   0  0  0  0  0  0  0  0  0  0  0  0
   19.3304  -21.0083  -12.6647 O   0  0  0  0  0  0  0  0  0  0  0  0
   20.9503  -22.1856  -11.5397 O   0  0  0  0  0  0  0  0  0  0  0  0
  1  2  1  0
  3  2  1  0
  4  3  1  0
  5  4  1  0
  5  6  1  6
  7  8  2  0
  7  5  1  0
  9 10  1  0
 10 11  1  0
 11 12  1  0
 13 12  1  1
 13 14  1  0
 14  7  1  0
 15 21  1  0
 15 13  1  0
 16 15  2  0
 18 17  1  6
 18 20  1  0
 19 18  1  0
 20 21  1  1
 20 22  1  0
 22 23  1  0
 24 22  2  0
M  END
$$$$
