MMT.pdb
     RDKit          3D

 24 23  0  0  1  0  0  0  0  0999 V2000
   27.8052  -18.8060   -6.6146 C   0  0  0  0  0  0  0  0  0  0  0  0
   26.2809  -19.6895   -6.9695 S   0  0  0  0  0  0  0  0  0  0  0  0
   26.6407  -21.0375   -8.1467 C   0  0  0  0  0  0  0  0  0  0  0  0
   26.5619  -20.4666   -9.5360 C   0  0  0  0  0  0  0  0  0  0  0  0
   26.9261  -21.4444  -10.6238 C   0  0  2  0  0  0  0  0  0  0  0  0
   28.2823  -21.0647  -11.0444 N   0  0  0  0  0  0  0  0  0  0  0  0
   26.0642  -21.1677  -11.8070 C   0  0  0  0  0  0  0  0  0  0  0  0
   26.4633  -20.2344  -12.5809 O   0  0  0  0  0  0  0  0  0  0  0  0
   23.3044  -26.3204  -14.6431 C   0  0  0  0  0  0  0  0  0  0  0  0
   22.6591  -24.9918  -15.6461 S   0  0  0  0  0  0  0  0  0  0  0  0
   23.1903  -23.3701  -15.1617 C   0  0  0  0  0  0  0  0  0  0  0  0
   23.8511  -23.1978  -13.8563 C   0  0  0  0  0  0  0  0  0  0  0  0
   24.2859  -21.8657  -13.3917 C   0  0  2  0  0  0  0  0  0  0  0  0
   24.8697  -21.8809  -12.0810 N   0  0  0  0  0  0  0  0  0  0  0  0
   23.3820  -20.7406  -13.6421 C   0  0  0  0  0  0  0  0  0  0  0  0
   22.5782  -20.2791  -12.7855 O   0  0  0  0  0  0  0  0  0  0  0  0
   24.0775  -17.2005  -15.2020 C   0  0  0  0  0  0  0  0  0  0  0  0
   23.1152  -18.0197  -16.0295 C   0  0  1  0  0  0  0  0  0  0  0  0
   23.8179  -18.5728  -17.0862 O   0  0  0  0  0  0  0  0  0  0  0  0
   22.3898  -19.0504  -15.1951 C   0  0  2  0  0  0  0  0  0  0  0  0
   23.3741  -20.1004  -14.9030 N   0  0  0  0  0  0  0  0  0  0  0  0
   21.2424  -19.5886  -15.9381 C   0  0  0  0  0  0  0  0  0  0  0  0
   21.1973  -20.8970  -16.4168 O   0  0  0  0  0  0  0  0  0  0  0  0
   20.2695  -18.8144  -16.1386 O   0  0  0  0  0  0  0  0  0  0  0  0
  1  2  1  0
  3  2  1  0
  4  3  1  0
  5  4  1  0
  5  6  1  6
  7  8  2  0
  7  5  1  0
  9 10  1  0
 10 11  1  0
 11 12  1  0
 13 12  1  1
 13 14  1  0
 14  7  1  0
 15 21  1  0
 15 13  1  0
 16 15  2  0
 18 17  1  1
 18 20  1  0
 19 18  1  0
 20 21  1  6
 20 22  1  0
 22 23  1  0
 24 22  2  0
M  END
$$$$
