MMT.pdb
     RDKit          3D

 24 23  0  0  1  0  0  0  0  0999 V2000
   31.5143  -23.0105   -9.8119 C   0  0  0  0  0  0  0  0  0  0  0  0
   32.6262  -22.5124  -11.1330 S   0  0  0  0  0  0  0  0  0  0  0  0
   31.7097  -21.4610  -12.3107 C   0  0  0  0  0  0  0  0  0  0  0  0
   30.3502  -22.0728  -12.5103 C   0  0  0  0  0  0  0  0  0  0  0  0
   29.4109  -21.2283  -13.3327 C   0  0  2  0  0  0  0  0  0  0  0  0
   29.7757  -19.8378  -13.0269 N   0  0  0  0  0  0  0  0  0  0  0  0
   28.0349  -21.3947  -12.7864 C   0  0  0  0  0  0  0  0  0  0  0  0
   27.4860  -22.5280  -12.9952 O   0  0  0  0  0  0  0  0  0  0  0  0
   26.5157  -19.8570   -6.8097 C   0  0  0  0  0  0  0  0  0  0  0  0
   24.8864  -20.1537   -7.4768 S   0  0  0  0  0  0  0  0  0  0  0  0
   24.8531  -20.5570   -9.2039 C   0  0  0  0  0  0  0  0  0  0  0  0
   26.0641  -20.3298  -10.0114 C   0  0  0  0  0  0  0  0  0  0  0  0
   26.0838  -20.6289  -11.4570 C   0  0  2  0  0  0  0  0  0  0  0  0
   27.3536  -20.3748  -12.0751 N   0  0  0  0  0  0  0  0  0  0  0  0
   24.9265  -20.2005  -12.2460 C   0  0  0  0  0  0  0  0  0  0  0  0
   24.6499  -18.9940  -12.4923 O   0  0  0  0  0  0  0  0  0  0  0  0
   23.8953  -21.3485  -15.6881 C   0  0  0  0  0  0  0  0  0  0  0  0
   22.7500  -21.6041  -14.7370 C   0  0  1  0  0  0  0  0  0  0  0  0
   22.7279  -22.9565  -14.4423 O   0  0  0  0  0  0  0  0  0  0  0  0
   22.8328  -20.7300  -13.5066 C   0  0  2  0  0  0  0  0  0  0  0  0
   24.0380  -21.1593  -12.7854 N   0  0  0  0  0  0  0  0  0  0  0  0
   21.6297  -20.9007  -12.6809 C   0  0  0  0  0  0  0  0  0  0  0  0
   20.3579  -20.5249  -13.1101 O   0  0  0  0  0  0  0  0  0  0  0  0
   21.7802  -21.4110  -11.5394 O   0  0  0  0  0  0  0  0  0  0  0  0
  1  2  1  0
  3  2  1  0
  4  3  1  0
  5  4  1  0
  5  6  1  1
  7  8  2  0
  7  5  1  0
  9 10  1  0
 10 11  1  0
 11 12  1  0
 13 12  1  1
 13 14  1  0
 14  7  1  0
 15 21  1  0
 15 13  1  0
 16 15  2  0
 18 17  1  6
 18 20  1  0
 19 18  1  0
 20 21  1  1
 20 22  1  0
 22 23  1  0
 24 22  2  0
M  END
$$$$
