PPC.pdb
     RDKit          3D

 21 22  0  0  1  0  0  0  0  0999 V2000
    8.9087  -14.3056   21.0546 N   0  0  0  0  0  0  0  0  0  0  0  0
    8.3819  -13.6954   19.8161 C   0  0  0  0  0  0  0  0  0  0  0  0
    6.8823  -13.9341   19.9523 C   0  0  0  0  0  0  0  0  0  0  0  0
    6.6561  -14.2217   21.4383 C   0  0  0  0  0  0  0  0  0  0  0  0
    7.9912  -13.7744   22.0119 C   0  0  1  0  0  0  0  0  0  0  0  0
    8.1970  -14.1493   23.4080 C   0  0  0  0  0  0  0  0  0  0  0  0
    9.0476  -15.0728   23.6237 O   0  0  0  0  0  0  0  0  0  0  0  0
    7.5263  -13.5618   24.4779 N   0  0  0  0  0  0  0  0  0  0  0  0
    6.5294  -12.5224   24.4242 C   0  0  0  0  0  0  0  0  0  0  0  0
    5.8519  -12.5060   25.8019 C   0  0  0  0  0  0  0  0  0  0  0  0
    6.8710  -13.1205   26.7347 C   0  0  0  0  0  0  0  0  0  0  0  0
    7.7617  -13.9627   25.8782 C   0  0  1  0  0  0  0  0  0  0  0  0
    7.4946  -15.3992   26.0722 C   0  0  0  0  0  0  0  0  0  0  0  0
    6.3685  -15.8737   25.7752 O   0  0  0  0  0  0  0  0  0  0  0  0
    8.4588  -16.2817   26.5838 N   0  0  0  0  0  0  0  0  0  0  0  0
    8.3173  -17.6719   26.8079 C   0  0  1  0  0  0  0  0  0  0  0  0
    8.8400  -18.5530   25.7144 C   0  0  0  0  0  0  0  0  0  0  0  0
    8.6457  -20.2735   26.2703 S   0  0  0  0  0  0  0  0  0  0  0  0
    8.9970  -18.0492   28.0639 C   0  0  0  0  0  0  0  0  0  0  0  0
    8.8869  -19.3011   28.6483 O   0  0  0  0  0  0  0  0  0  0  0  0
    9.7134  -17.2000   28.6398 O   0  0  0  0  0  0  0  0  0  0  0  0
  2  1  1  0
  3  2  1  0
  4  3  1  0
  4  5  1  0
  5  1  1  0
  6  8  1  0
  5  6  1  1
  7  6  2  0
  8 12  1  0
  9  8  1  0
 10  9  1  0
 10 11  1  0
 11 12  1  0
 12 13  1  6
 13 15  1  0
 13 14  2  0
 15 16  1  0
 16 17  1  6
 17 18  1  0
 19 16  1  0
 19 20  1  0
 21 19  2  0
M  END
$$$$
