PPC.pdb
     RDKit          3D

 21 22  0  0  1  0  0  0  0  0999 V2000
    8.6913  -14.2902   21.2036 N   0  0  0  0  0  0  0  0  0  0  0  0
    7.9466  -13.8246   20.0152 C   0  0  0  0  0  0  0  0  0  0  0  0
    6.5343  -14.3195   20.3060 C   0  0  0  0  0  0  0  0  0  0  0  0
    6.5078  -14.5921   21.8116 C   0  0  0  0  0  0  0  0  0  0  0  0
    7.7904  -13.8972   22.2401 C   0  0  1  0  0  0  0  0  0  0  0  0
    8.1938  -14.1826   23.6141 C   0  0  0  0  0  0  0  0  0  0  0  0
    9.1608  -14.9992   23.7591 O   0  0  0  0  0  0  0  0  0  0  0  0
    7.5879  -13.6206   24.7352 N   0  0  0  0  0  0  0  0  0  0  0  0
    6.4850  -12.6933   24.7641 C   0  0  0  0  0  0  0  0  0  0  0  0
    5.9685  -12.6859   26.2100 C   0  0  0  0  0  0  0  0  0  0  0  0
    7.1461  -13.1495   27.0374 C   0  0  0  0  0  0  0  0  0  0  0  0
    8.0208  -13.9323   26.1109 C   0  0  1  0  0  0  0  0  0  0  0  0
    7.9337  -15.3787   26.3810 C   0  0  0  0  0  0  0  0  0  0  0  0
    6.8720  -16.0020   26.1244 O   0  0  0  0  0  0  0  0  0  0  0  0
    9.0030  -16.1089   26.9227 N   0  0  0  0  0  0  0  0  0  0  0  0
    9.0772  -17.5094   27.1128 C   0  0  1  0  0  0  0  0  0  0  0  0
    9.8937  -18.2507   26.0984 C   0  0  0  0  0  0  0  0  0  0  0  0
   11.5292  -17.4579   26.0402 S   0  0  0  0  0  0  0  0  0  0  0  0
    9.6302  -17.8054   28.4502 C   0  0  0  0  0  0  0  0  0  0  0  0
    9.7137  -19.0838   28.9788 O   0  0  0  0  0  0  0  0  0  0  0  0
   10.0489  -16.8578   29.1522 O   0  0  0  0  0  0  0  0  0  0  0  0
  2  1  1  0
  3  2  1  0
  4  3  1  0
  4  5  1  0
  5  1  1  0
  6  8  1  0
  5  6  1  1
  7  6  2  0
  8 12  1  0
  9  8  1  0
 10  9  1  0
 10 11  1  0
 11 12  1  0
 12 13  1  1
 13 15  1  0
 13 14  2  0
 15 16  1  0
 16 17  1  6
 17 18  1  0
 19 16  1  0
 19 20  1  0
 21 19  2  0
M  END
$$$$
