PPC.pdb
     RDKit          3D

 21 22  0  0  1  0  0  0  0  0999 V2000
    8.8309  -14.6535   21.4962 N   0  0  0  0  0  0  0  0  0  0  0  0
    7.9366  -14.6667   20.3197 C   0  0  0  0  0  0  0  0  0  0  0  0
    6.7286  -15.4361   20.8423 C   0  0  0  0  0  0  0  0  0  0  0  0
    6.8427  -15.3727   22.3671 C   0  0  0  0  0  0  0  0  0  0  0  0
    7.9019  -14.2927   22.5195 C   0  0  1  0  0  0  0  0  0  0  0  0
    8.4268  -14.1583   23.8754 C   0  0  0  0  0  0  0  0  0  0  0  0
    9.5594  -14.6977   24.0970 O   0  0  0  0  0  0  0  0  0  0  0  0
    7.7655  -13.4893   24.9025 N   0  0  0  0  0  0  0  0  0  0  0  0
    6.5102  -12.7856   24.8255 C   0  0  0  0  0  0  0  0  0  0  0  0
    6.0516  -12.5661   26.2743 C   0  0  0  0  0  0  0  0  0  0  0  0
    7.3232  -12.6312   27.0900 C   0  0  0  0  0  0  0  0  0  0  0  0
    8.2963  -13.4244   26.2777 C   0  0  1  0  0  0  0  0  0  0  0  0
    8.4909  -14.7741   26.8369 C   0  0  0  0  0  0  0  0  0  0  0  0
    7.5828  -15.6368   26.7244 O   0  0  0  0  0  0  0  0  0  0  0  0
    9.6675  -15.1502   27.5035 N   0  0  0  0  0  0  0  0  0  0  0  0
   10.0256  -16.4450   27.9487 C   0  0  1  0  0  0  0  0  0  0  0  0
   11.1886  -17.0675   27.2381 C   0  0  0  0  0  0  0  0  0  0  0  0
   12.3683  -15.7345   26.8661 S   0  0  0  0  0  0  0  0  0  0  0  0
   10.3365  -16.4108   29.3924 C   0  0  0  0  0  0  0  0  0  0  0  0
   10.3984  -15.2424   30.1352 O   0  0  0  0  0  0  0  0  0  0  0  0
   10.5576  -17.4897   29.9867 O   0  0  0  0  0  0  0  0  0  0  0  0
  2  1  1  0
  3  2  1  0
  4  3  1  0
  4  5  1  0
  5  1  1  0
  6  8  1  0
  5  6  1  1
  7  6  2  0
  8 12  1  0
  9  8  1  0
 10  9  1  0
 10 11  1  0
 11 12  1  0
 12 13  1  1
 13 15  1  0
 13 14  2  0
 15 16  1  0
 16 17  1  6
 17 18  1  0
 19 16  1  0
 19 20  1  0
 21 19  2  0
M  END
$$$$
