PPC.pdb
     RDKit          3D

 21 22  0  0  1  0  0  0  0  0999 V2000
    9.1061  -17.4851   18.2186 N   0  0  0  0  0  0  0  0  0  0  0  0
    8.1515  -17.6963   17.1105 C   0  0  0  0  0  0  0  0  0  0  0  0
    6.9143  -18.2024   17.8435 C   0  0  0  0  0  0  0  0  0  0  0  0
    7.1156  -17.7868   19.3026 C   0  0  0  0  0  0  0  0  0  0  0  0
    8.2668  -16.8051   19.1532 C   0  0  1  0  0  0  0  0  0  0  0  0
    8.8736  -16.3994   20.4178 C   0  0  0  0  0  0  0  0  0  0  0  0
    9.9950  -16.9334   20.7014 O   0  0  0  0  0  0  0  0  0  0  0  0
    8.2993  -15.4858   21.2982 N   0  0  0  0  0  0  0  0  0  0  0  0
    7.1178  -14.6879   21.0872 C   0  0  0  0  0  0  0  0  0  0  0  0
    6.7086  -14.1537   22.4673 C   0  0  0  0  0  0  0  0  0  0  0  0
    7.9818  -14.1895   23.2822 C   0  0  0  0  0  0  0  0  0  0  0  0
    8.8581  -15.2150   22.6366 C   0  0  1  0  0  0  0  0  0  0  0  0
    8.9294  -16.4471   23.4424 C   0  0  0  0  0  0  0  0  0  0  0  0
    7.9713  -17.2617   23.4292 O   0  0  0  0  0  0  0  0  0  0  0  0
   10.0402  -16.7609   24.2411 N   0  0  0  0  0  0  0  0  0  0  0  0
   10.2418  -17.9324   25.0091 C   0  0  1  0  0  0  0  0  0  0  0  0
   11.5522  -18.6249   24.7885 C   0  0  0  0  0  0  0  0  0  0  0  0
   11.8672  -18.6228   22.9975 S   0  0  0  0  0  0  0  0  0  0  0  0
   10.1285  -17.6150   26.4473 C   0  0  0  0  0  0  0  0  0  0  0  0
   10.1288  -18.5757   27.4462 O   0  0  0  0  0  0  0  0  0  0  0  0
   10.0262  -16.4167   26.7935 O   0  0  0  0  0  0  0  0  0  0  0  0
  2  1  1  0
  3  2  1  0
  4  3  1  0
  4  5  1  0
  5  1  1  0
  6  8  1  0
  5  6  1  1
  7  6  2  0
  8 12  1  0
  9  8  1  0
 10  9  1  0
 10 11  1  0
 11 12  1  0
 12 13  1  1
 13 15  1  0
 13 14  2  0
 15 16  1  0
 16 17  1  1
 17 18  1  0
 19 16  1  0
 19 20  1  0
 21 19  2  0
M  END
$$$$
