PPC.pdb
     RDKit          3D

 21 22  0  0  1  0  0  0  0  0999 V2000
    9.0175  -14.5151   20.8403 N   0  0  0  0  0  0  0  0  0  0  0  0
    8.5598  -13.8623   19.5961 C   0  0  0  0  0  0  0  0  0  0  0  0
    7.0433  -13.9494   19.7259 C   0  0  0  0  0  0  0  0  0  0  0  0
    6.7828  -14.2044   21.2123 C   0  0  0  0  0  0  0  0  0  0  0  0
    8.1533  -13.8894   21.7902 C   0  0  1  0  0  0  0  0  0  0  0  0
    8.3144  -14.2749   23.1893 C   0  0  0  0  0  0  0  0  0  0  0  0
    9.2005  -15.1576   23.4319 O   0  0  0  0  0  0  0  0  0  0  0  0
    7.5666  -13.7387   24.2348 N   0  0  0  0  0  0  0  0  0  0  0  0
    6.6090  -12.6638   24.1671 C   0  0  0  0  0  0  0  0  0  0  0  0
    5.8101  -12.7178   25.4772 C   0  0  0  0  0  0  0  0  0  0  0  0
    6.7224  -13.4297   26.4504 C   0  0  0  0  0  0  0  0  0  0  0  0
    7.6626  -14.2422   25.6184 C   0  0  1  0  0  0  0  0  0  0  0  0
    7.3378  -15.6783   25.6854 C   0  0  0  0  0  0  0  0  0  0  0  0
    6.2741  -16.1059   25.1685 O   0  0  0  0  0  0  0  0  0  0  0  0
    8.1781  -16.6115   26.3124 N   0  0  0  0  0  0  0  0  0  0  0  0
    7.9988  -18.0133   26.3884 C   0  0  1  0  0  0  0  0  0  0  0  0
    8.5998  -18.7976   25.2620 C   0  0  0  0  0  0  0  0  0  0  0  0
   10.3513  -18.3218   25.1492 S   0  0  0  0  0  0  0  0  0  0  0  0
    8.5643  -18.5235   27.6541 C   0  0  0  0  0  0  0  0  0  0  0  0
    9.3240  -17.7523   28.5195 O   0  0  0  0  0  0  0  0  0  0  0  0
    8.3520  -19.7152   27.9716 O   0  0  0  0  0  0  0  0  0  0  0  0
  2  1  1  0
  3  2  1  0
  4  3  1  0
  4  5  1  0
  5  1  1  0
  6  8  1  0
  5  6  1  1
  7  6  2  0
  8 12  1  0
  9  8  1  0
 10  9  1  0
 10 11  1  0
 11 12  1  0
 12 13  1  6
 13 15  1  0
 13 14  2  0
 15 16  1  0
 16 17  1  6
 17 18  1  0
 19 16  1  0
 19 20  1  0
 21 19  2  0
M  END
$$$$
