PPC.pdb
     RDKit          3D

 21 22  0  0  1  0  0  0  0  0999 V2000
    9.0839  -17.1048   17.6974 N   0  0  0  0  0  0  0  0  0  0  0  0
    8.0413  -17.6797   16.8222 C   0  0  0  0  0  0  0  0  0  0  0  0
    7.3308  -18.6481   17.7611 C   0  0  0  0  0  0  0  0  0  0  0  0
    7.7159  -18.1938   19.1709 C   0  0  0  0  0  0  0  0  0  0  0  0
    8.3121  -16.8285   18.8672 C   0  0  1  0  0  0  0  0  0  0  0  0
    9.0106  -16.2178   19.9947 C   0  0  0  0  0  0  0  0  0  0  0  0
   10.2826  -16.2847   19.9724 O   0  0  0  0  0  0  0  0  0  0  0  0
    8.3688  -15.5872   21.0578 N   0  0  0  0  0  0  0  0  0  0  0  0
    6.9737  -15.2402   21.1591 C   0  0  0  0  0  0  0  0  0  0  0  0
    6.7163  -14.9244   22.6394 C   0  0  0  0  0  0  0  0  0  0  0  0
    8.0727  -14.5442   23.1889 C   0  0  0  0  0  0  0  0  0  0  0  0
    9.0793  -15.1828   22.2861 C   0  0  1  0  0  0  0  0  0  0  0  0
    9.7254  -16.3394   22.9320 C   0  0  0  0  0  0  0  0  0  0  0  0
    9.1458  -17.4554   22.9449 O   0  0  0  0  0  0  0  0  0  0  0  0
   10.9842  -16.2521   23.5467 N   0  0  0  0  0  0  0  0  0  0  0  0
   11.8183  -17.3217   23.9509 C   0  0  1  0  0  0  0  0  0  0  0  0
   13.2686  -17.1677   23.6074 C   0  0  0  0  0  0  0  0  0  0  0  0
   13.8213  -15.5815   24.3041 S   0  0  0  0  0  0  0  0  0  0  0  0
   11.7121  -17.5162   25.4114 C   0  0  0  0  0  0  0  0  0  0  0  0
   10.9849  -16.6809   26.2445 O   0  0  0  0  0  0  0  0  0  0  0  0
   12.3072  -18.4846   25.9349 O   0  0  0  0  0  0  0  0  0  0  0  0
  2  1  1  0
  3  2  1  0
  4  3  1  0
  4  5  1  0
  5  1  1  0
  6  8  1  0
  5  6  1  1
  7  6  2  0
  8 12  1  0
  9  8  1  0
 10  9  1  0
 10 11  1  0
 11 12  1  0
 12 13  1  1
 13 15  1  0
 13 14  2  0
 15 16  1  0
 16 17  1  1
 17 18  1  0
 19 16  1  0
 19 20  1  0
 21 19  2  0
M  END
$$$$
