PPC.pdb
     RDKit          3D

 21 22  0  0  1  0  0  0  0  0999 V2000
    8.8011  -14.5188   21.3700 N   0  0  0  0  0  0  0  0  0  0  0  0
    7.9219  -14.4104   20.1872 C   0  0  0  0  0  0  0  0  0  0  0  0
    6.6640  -15.1343   20.6538 C   0  0  0  0  0  0  0  0  0  0  0  0
    6.7632  -15.1657   22.1806 C   0  0  0  0  0  0  0  0  0  0  0  0
    7.8831  -14.1621   22.4046 C   0  0  1  0  0  0  0  0  0  0  0  0
    8.3987  -14.1378   23.7705 C   0  0  0  0  0  0  0  0  0  0  0  0
    9.5106  -14.7291   23.9635 O   0  0  0  0  0  0  0  0  0  0  0  0
    7.7499  -13.5180   24.8357 N   0  0  0  0  0  0  0  0  0  0  0  0
    6.5736  -12.6871   24.7828 C   0  0  0  0  0  0  0  0  0  0  0  0
    6.0607  -12.5770   26.2258 C   0  0  0  0  0  0  0  0  0  0  0  0
    7.2743  -12.8558   27.0835 C   0  0  0  0  0  0  0  0  0  0  0  0
    8.2097  -13.6527   26.2313 C   0  0  1  0  0  0  0  0  0  0  0  0
    8.2440  -15.0668   26.6457 C   0  0  0  0  0  0  0  0  0  0  0  0
    7.2207  -15.7852   26.5107 O   0  0  0  0  0  0  0  0  0  0  0  0
    9.3899  -15.6622   27.1958 N   0  0  0  0  0  0  0  0  0  0  0  0
    9.5254  -16.9898   27.6672 C   0  0  1  0  0  0  0  0  0  0  0  0
   10.5686  -17.8120   26.9737 C   0  0  0  0  0  0  0  0  0  0  0  0
   10.2914  -17.6362   25.1851 S   0  0  0  0  0  0  0  0  0  0  0  0
    9.8356  -16.9801   29.1113 C   0  0  0  0  0  0  0  0  0  0  0  0
    9.9505  -18.1290   29.8778 O   0  0  0  0  0  0  0  0  0  0  0  0
   10.0058  -15.8803   29.6835 O   0  0  0  0  0  0  0  0  0  0  0  0
  2  1  1  0
  3  2  1  0
  4  3  1  0
  4  5  1  0
  5  1  1  0
  6  8  1  0
  5  6  1  1
  7  6  2  0
  8 12  1  0
  9  8  1  0
 10  9  1  0
 10 11  1  0
 11 12  1  0
 12 13  1  1
 13 15  1  0
 13 14  2  0
 15 16  1  0
 16 17  1  6
 17 18  1  0
 19 16  1  0
 19 20  1  0
 21 19  2  0
M  END
$$$$
