PPC.pdb
     RDKit          3D

 21 22  0  0  1  0  0  0  0  0999 V2000
    8.5848  -14.6435   21.3506 N   0  0  0  0  0  0  0  0  0  0  0  0
    7.5709  -14.7646   20.2823 C   0  0  0  0  0  0  0  0  0  0  0  0
    6.5182  -15.6521   20.9367 C   0  0  0  0  0  0  0  0  0  0  0  0
    6.7949  -15.5600   22.4391 C   0  0  0  0  0  0  0  0  0  0  0  0
    7.7431  -14.3720   22.4723 C   0  0  1  0  0  0  0  0  0  0  0  0
    8.3992  -14.1676   23.7606 C   0  0  0  0  0  0  0  0  0  0  0  0
    9.5871  -14.6161   23.8653 O   0  0  0  0  0  0  0  0  0  0  0  0
    7.8033  -13.5261   24.8437 N   0  0  0  0  0  0  0  0  0  0  0  0
    6.5175  -12.8760   24.8793 C   0  0  0  0  0  0  0  0  0  0  0  0
    6.1795  -12.6745   26.3634 C   0  0  0  0  0  0  0  0  0  0  0  0
    7.5194  -12.6850   27.0639 C   0  0  0  0  0  0  0  0  0  0  0  0
    8.4499  -13.4373   26.1670 C   0  0  1  0  0  0  0  0  0  0  0  0
    8.7497  -14.7770   26.7034 C   0  0  0  0  0  0  0  0  0  0  0  0
    7.9053  -15.7019   26.5893 O   0  0  0  0  0  0  0  0  0  0  0  0
    9.9595  -15.0756   27.3495 N   0  0  0  0  0  0  0  0  0  0  0  0
   10.3627  -16.3229   27.8830 C   0  0  1  0  0  0  0  0  0  0  0  0
   11.7863  -16.7046   27.6129 C   0  0  0  0  0  0  0  0  0  0  0  0
   12.0660  -18.3245   28.3904 S   0  0  0  0  0  0  0  0  0  0  0  0
   10.1558  -16.3333   29.3456 C   0  0  0  0  0  0  0  0  0  0  0  0
    9.8729  -17.4798   30.0710 O   0  0  0  0  0  0  0  0  0  0  0  0
   10.2382  -15.2539   29.9733 O   0  0  0  0  0  0  0  0  0  0  0  0
  2  1  1  0
  3  2  1  0
  4  3  1  0
  4  5  1  0
  5  1  1  0
  6  8  1  0
  5  6  1  1
  7  6  2  0
  8 12  1  0
  9  8  1  0
 10  9  1  0
 10 11  1  0
 11 12  1  0
 12 13  1  1
 13 15  1  0
 13 14  2  0
 15 16  1  0
 16 17  1  1
 17 18  1  0
 19 16  1  0
 19 20  1  0
 21 19  2  0
M  END
$$$$
