PPC.pdb
     RDKit          3D

 21 22  0  0  1  0  0  0  0  0999 V2000
    8.8056  -14.6338   21.3718 N   0  0  0  0  0  0  0  0  0  0  0  0
    7.9255  -14.4095   20.2061 C   0  0  0  0  0  0  0  0  0  0  0  0
    6.6060  -15.0091   20.6789 C   0  0  0  0  0  0  0  0  0  0  0  0
    6.7234  -15.0834   22.2029 C   0  0  0  0  0  0  0  0  0  0  0  0
    7.9446  -14.2062   22.4284 C   0  0  1  0  0  0  0  0  0  0  0  0
    8.4795  -14.2648   23.7857 C   0  0  0  0  0  0  0  0  0  0  0  0
    9.5503  -14.9375   23.9407 O   0  0  0  0  0  0  0  0  0  0  0  0
    7.8900  -13.6392   24.8816 N   0  0  0  0  0  0  0  0  0  0  0  0
    6.7554  -12.7504   24.8788 C   0  0  0  0  0  0  0  0  0  0  0  0
    6.2860  -12.6493   26.3372 C   0  0  0  0  0  0  0  0  0  0  0  0
    7.5059  -13.0077   27.1555 C   0  0  0  0  0  0  0  0  0  0  0  0
    8.3782  -13.8292   26.2609 C   0  0  1  0  0  0  0  0  0  0  0  0
    8.3528  -15.2526   26.6427 C   0  0  0  0  0  0  0  0  0  0  0  0
    7.3189  -15.9387   26.4381 O   0  0  0  0  0  0  0  0  0  0  0  0
    9.4520  -15.8923   27.2365 N   0  0  0  0  0  0  0  0  0  0  0  0
    9.5800  -17.2669   27.5482 C   0  0  1  0  0  0  0  0  0  0  0  0
   10.6660  -17.9917   26.8130 C   0  0  0  0  0  0  0  0  0  0  0  0
   12.0770  -16.8526   26.6775 S   0  0  0  0  0  0  0  0  0  0  0  0
    9.8183  -17.4327   28.9965 C   0  0  0  0  0  0  0  0  0  0  0  0
    9.9153  -18.6664   29.6206 O   0  0  0  0  0  0  0  0  0  0  0  0
    9.9409  -16.4104   29.7078 O   0  0  0  0  0  0  0  0  0  0  0  0
  2  1  1  0
  3  2  1  0
  4  3  1  0
  4  5  1  0
  5  1  1  0
  6  8  1  0
  5  6  1  1
  7  6  2  0
  8 12  1  0
  9  8  1  0
 10  9  1  0
 10 11  1  0
 11 12  1  0
 12 13  1  1
 13 15  1  0
 13 14  2  0
 15 16  1  0
 16 17  1  6
 17 18  1  0
 19 16  1  0
 19 20  1  0
 21 19  2  0
M  END
$$$$
