PPC.pdb
     RDKit          3D

 21 22  0  0  1  0  0  0  0  0999 V2000
    8.7196  -14.4525   21.1924 N   0  0  0  0  0  0  0  0  0  0  0  0
    7.7884  -14.2725   20.0591 C   0  0  0  0  0  0  0  0  0  0  0  0
    6.5387  -14.9933   20.5517 C   0  0  0  0  0  0  0  0  0  0  0  0
    6.7087  -15.0978   22.0690 C   0  0  0  0  0  0  0  0  0  0  0  0
    7.8588  -14.1271   22.2849 C   0  0  1  0  0  0  0  0  0  0  0  0
    8.4382  -14.1762   23.6242 C   0  0  0  0  0  0  0  0  0  0  0  0
    9.5628  -14.7654   23.7302 O   0  0  0  0  0  0  0  0  0  0  0  0
    7.8353  -13.6264   24.7530 N   0  0  0  0  0  0  0  0  0  0  0  0
    6.6444  -12.8165   24.8048 C   0  0  0  0  0  0  0  0  0  0  0  0
    6.2052  -12.7929   26.2759 C   0  0  0  0  0  0  0  0  0  0  0  0
    7.4660  -13.0937   27.0545 C   0  0  0  0  0  0  0  0  0  0  0  0
    8.3689  -13.8262   26.1140 C   0  0  1  0  0  0  0  0  0  0  0  0
    8.4477  -15.2593   26.4492 C   0  0  0  0  0  0  0  0  0  0  0  0
    7.4568  -16.0066   26.2464 O   0  0  0  0  0  0  0  0  0  0  0  0
    9.6017  -15.8420   26.9960 N   0  0  0  0  0  0  0  0  0  0  0  0
    9.8217  -17.2117   27.2759 C   0  0  1  0  0  0  0  0  0  0  0  0
   10.9923  -17.8289   26.5730 C   0  0  0  0  0  0  0  0  0  0  0  0
   11.0998  -19.5588   27.1233 S   0  0  0  0  0  0  0  0  0  0  0  0
   10.0075  -17.4032   28.7288 C   0  0  0  0  0  0  0  0  0  0  0  0
   10.0652  -18.6476   29.3362 O   0  0  0  0  0  0  0  0  0  0  0  0
   10.1199  -16.3938   29.4599 O   0  0  0  0  0  0  0  0  0  0  0  0
  2  1  1  0
  3  2  1  0
  4  3  1  0
  4  5  1  0
  5  1  1  0
  6  8  1  0
  5  6  1  1
  7  6  2  0
  8 12  1  0
  9  8  1  0
 10  9  1  0
 10 11  1  0
 11 12  1  0
 12 13  1  1
 13 15  1  0
 13 14  2  0
 15 16  1  0
 16 17  1  6
 17 18  1  0
 19 16  1  0
 19 20  1  0
 21 19  2  0
M  END
$$$$
