PPC.pdb
     RDKit          3D

 21 22  0  0  1  0  0  0  0  0999 V2000
    8.7724  -15.0017   21.0966 N   0  0  0  0  0  0  0  0  0  0  0  0
    8.3572  -14.3609   19.8313 C   0  0  0  0  0  0  0  0  0  0  0  0
    6.8874  -14.0530   20.0936 C   0  0  0  0  0  0  0  0  0  0  0  0
    6.7319  -14.1095   21.6150 C   0  0  0  0  0  0  0  0  0  0  0  0
    8.1912  -14.1019   22.0416 C   0  0  1  0  0  0  0  0  0  0  0  0
    8.4013  -14.3975   23.4560 C   0  0  0  0  0  0  0  0  0  0  0  0
    9.3498  -15.2034   23.7281 O   0  0  0  0  0  0  0  0  0  0  0  0
    7.6358  -13.8559   24.4857 N   0  0  0  0  0  0  0  0  0  0  0  0
    6.5982  -12.8615   24.3779 C   0  0  0  0  0  0  0  0  0  0  0  0
    5.8318  -12.8951   25.7079 C   0  0  0  0  0  0  0  0  0  0  0  0
    6.8145  -13.4766   26.6990 C   0  0  0  0  0  0  0  0  0  0  0  0
    7.7970  -14.2658   25.8940 C   0  0  1  0  0  0  0  0  0  0  0  0
    7.5835  -15.7154   26.0537 C   0  0  0  0  0  0  0  0  0  0  0  0
    6.5491  -16.2530   25.5819 O   0  0  0  0  0  0  0  0  0  0  0  0
    8.5001  -16.5420   26.7221 N   0  0  0  0  0  0  0  0  0  0  0  0
    8.4767  -17.9543   26.8105 C   0  0  1  0  0  0  0  0  0  0  0  0
    9.0963  -18.6785   25.6543 C   0  0  0  0  0  0  0  0  0  0  0  0
   10.8135  -18.0970   25.5127 S   0  0  0  0  0  0  0  0  0  0  0  0
    9.1617  -18.3910   28.0442 C   0  0  0  0  0  0  0  0  0  0  0  0
    9.8464  -17.5292   28.8863 O   0  0  0  0  0  0  0  0  0  0  0  0
    9.1282  -19.6028   28.3551 O   0  0  0  0  0  0  0  0  0  0  0  0
  2  1  1  0
  3  2  1  0
  4  3  1  0
  4  5  1  0
  5  1  1  0
  6  8  1  0
  5  6  1  1
  7  6  2  0
  8 12  1  0
  9  8  1  0
 10  9  1  0
 10 11  1  0
 11 12  1  0
 12 13  1  6
 13 15  1  0
 13 14  2  0
 15 16  1  0
 16 17  1  6
 17 18  1  0
 19 16  1  0
 19 20  1  0
 21 19  2  0
M  END
$$$$
