PPC.pdb
     RDKit          3D

 21 22  0  0  1  0  0  0  0  0999 V2000
    8.6596  -14.5184   21.3258 N   0  0  0  0  0  0  0  0  0  0  0  0
    7.8040  -14.2296   20.1560 C   0  0  0  0  0  0  0  0  0  0  0  0
    6.4708  -14.8396   20.5739 C   0  0  0  0  0  0  0  0  0  0  0  0
    6.5582  -14.9892   22.0945 C   0  0  0  0  0  0  0  0  0  0  0  0
    7.7819  -14.1351   22.3855 C   0  0  1  0  0  0  0  0  0  0  0  0
    8.2900  -14.2646   23.7482 C   0  0  0  0  0  0  0  0  0  0  0  0
    9.3472  -14.9610   23.8914 O   0  0  0  0  0  0  0  0  0  0  0  0
    7.6896  -13.6805   24.8609 N   0  0  0  0  0  0  0  0  0  0  0  0
    6.5588  -12.7872   24.8798 C   0  0  0  0  0  0  0  0  0  0  0  0
    6.0718  -12.7421   26.3353 C   0  0  0  0  0  0  0  0  0  0  0  0
    7.2801  -13.1383   27.1534 C   0  0  0  0  0  0  0  0  0  0  0  0
    8.1601  -13.9275   26.2374 C   0  0  1  0  0  0  0  0  0  0  0  0
    8.1242  -15.3648   26.5617 C   0  0  0  0  0  0  0  0  0  0  0  0
    7.1065  -16.0469   26.2780 O   0  0  0  0  0  0  0  0  0  0  0  0
    9.1957  -16.0225   27.1858 N   0  0  0  0  0  0  0  0  0  0  0  0
    9.3294  -17.4112   27.4237 C   0  0  1  0  0  0  0  0  0  0  0  0
   10.1755  -18.1518   26.4333 C   0  0  0  0  0  0  0  0  0  0  0  0
   11.7826  -17.3041   26.3579 S   0  0  0  0  0  0  0  0  0  0  0  0
    9.8959  -17.6374   28.7691 C   0  0  0  0  0  0  0  0  0  0  0  0
   10.0744  -18.8949   29.3235 O   0  0  0  0  0  0  0  0  0  0  0  0
   10.2362  -16.6467   29.4537 O   0  0  0  0  0  0  0  0  0  0  0  0
  2  1  1  0
  3  2  1  0
  4  3  1  0
  4  5  1  0
  5  1  1  0
  6  8  1  0
  5  6  1  1
  7  6  2  0
  8 12  1  0
  9  8  1  0
 10  9  1  0
 10 11  1  0
 11 12  1  0
 12 13  1  1
 13 15  1  0
 13 14  2  0
 15 16  1  0
 16 17  1  6
 17 18  1  0
 19 16  1  0
 19 20  1  0
 21 19  2  0
M  END
$$$$
