PPC.pdb
     RDKit          3D

 21 22  0  0  1  0  0  0  0  0999 V2000
    9.0757  -14.2715   20.6030 N   0  0  0  0  0  0  0  0  0  0  0  0
    8.3892  -13.6900   19.4307 C   0  0  0  0  0  0  0  0  0  0  0  0
    6.9445  -14.1207   19.6573 C   0  0  0  0  0  0  0  0  0  0  0  0
    6.8637  -14.4858   21.1413 C   0  0  0  0  0  0  0  0  0  0  0  0
    8.1714  -13.8938   21.6423 C   0  0  1  0  0  0  0  0  0  0  0  0
    8.5225  -14.2879   23.0037 C   0  0  0  0  0  0  0  0  0  0  0  0
    9.5495  -15.0316   23.1277 O   0  0  0  0  0  0  0  0  0  0  0  0
    7.8076  -13.9002   24.1344 N   0  0  0  0  0  0  0  0  0  0  0  0
    6.6909  -12.9914   24.1972 C   0  0  0  0  0  0  0  0  0  0  0  0
    6.0451  -13.1997   25.5745 C   0  0  0  0  0  0  0  0  0  0  0  0
    7.1505  -13.7764   26.4300 C   0  0  0  0  0  0  0  0  0  0  0  0
    8.1191  -14.4103   25.4834 C   0  0  1  0  0  0  0  0  0  0  0  0
    8.0328  -15.8810   25.5287 C   0  0  0  0  0  0  0  0  0  0  0  0
    7.0378  -16.4668   25.0303 O   0  0  0  0  0  0  0  0  0  0  0  0
    9.0303  -16.6758   26.1147 N   0  0  0  0  0  0  0  0  0  0  0  0
    9.0550  -18.0873   26.2147 C   0  0  1  0  0  0  0  0  0  0  0  0
   10.2536  -18.7512   25.6083 C   0  0  0  0  0  0  0  0  0  0  0  0
   10.5785  -17.9282   24.0196 S   0  0  0  0  0  0  0  0  0  0  0  0
    8.9771  -18.4911   27.6335 C   0  0  0  0  0  0  0  0  0  0  0  0
    8.8144  -19.8033   28.0486 O   0  0  0  0  0  0  0  0  0  0  0  0
    9.0615  -17.6084   28.5165 O   0  0  0  0  0  0  0  0  0  0  0  0
  2  1  1  0
  3  2  1  0
  4  3  1  0
  4  5  1  0
  5  1  1  0
  6  8  1  0
  5  6  1  1
  7  6  2  0
  8 12  1  0
  9  8  1  0
 10  9  1  0
 10 11  1  0
 11 12  1  0
 12 13  1  6
 13 15  1  0
 13 14  2  0
 15 16  1  0
 16 17  1  1
 17 18  1  0
 19 16  1  0
 19 20  1  0
 21 19  2  0
M  END
$$$$
