PPC.pdb
     RDKit          3D

 21 22  0  0  1  0  0  0  0  0999 V2000
   -2.5711  -24.7542   24.1646 N   0  0  0  0  0  0  0  0  0  0  0  0
   -1.8890  -25.9267   23.5783 C   0  0  0  0  0  0  0  0  0  0  0  0
   -0.8152  -26.2276   24.6177 C   0  0  0  0  0  0  0  0  0  0  0  0
   -1.2804  -25.5174   25.8910 C   0  0  0  0  0  0  0  0  0  0  0  0
   -2.7177  -25.1930   25.5161 C   0  0  1  0  0  0  0  0  0  0  0  0
   -3.3850  -24.2817   26.4414 C   0  0  0  0  0  0  0  0  0  0  0  0
   -3.6143  -24.7337   27.6102 O   0  0  0  0  0  0  0  0  0  0  0  0
   -3.7696  -22.9839   26.1130 N   0  0  0  0  0  0  0  0  0  0  0  0
   -3.6420  -22.3276   24.8363 C   0  0  0  0  0  0  0  0  0  0  0  0
   -4.5394  -21.0835   24.9018 C   0  0  0  0  0  0  0  0  0  0  0  0
   -4.6676  -20.7839   26.3783 C   0  0  0  0  0  0  0  0  0  0  0  0
   -4.4004  -22.0730   27.0874 C   0  0  1  0  0  0  0  0  0  0  0  0
   -5.6397  -22.6543   27.6338 C   0  0  0  0  0  0  0  0  0  0  0  0
   -6.3080  -23.4674   26.9454 O   0  0  0  0  0  0  0  0  0  0  0  0
   -6.1196  -22.3363   28.9139 N   0  0  0  0  0  0  0  0  0  0  0  0
   -7.2178  -22.9207   29.5888 C   0  0  1  0  0  0  0  0  0  0  0  0
   -6.8600  -23.8853   30.6782 C   0  0  0  0  0  0  0  0  0  0  0  0
   -8.4159  -24.4384   31.4398 S   0  0  0  0  0  0  0  0  0  0  0  0
   -8.0670  -21.8634   30.1744 C   0  0  0  0  0  0  0  0  0  0  0  0
   -9.4524  -21.8949   30.1544 O   0  0  0  0  0  0  0  0  0  0  0  0
   -7.5157  -20.8817   30.7207 O   0  0  0  0  0  0  0  0  0  0  0  0
  2  1  1  0
  3  2  1  0
  4  3  1  0
  4  5  1  0
  5  1  1  0
  6  8  1  0
  5  6  1  1
  7  6  2  0
  8 12  1  0
  9  8  1  0
 10  9  1  0
 10 11  1  0
 11 12  1  0
 12 13  1  6
 13 15  1  0
 13 14  2  0
 15 16  1  0
 16 17  1  1
 17 18  1  0
 19 16  1  0
 19 20  1  0
 21 19  2  0
M  END
$$$$
