YDF.pdb
     RDKit          3D

 32 33  0  0  1  0  0  0  0  0999 V2000
    8.6201  -11.9742   19.3370 O   0  0  0  0  0  0  0  0  0  0  0  0
    8.0636  -13.0890   19.9633 C   0  0  0  0  0  0  0  0  0  0  0  0
    8.4069  -13.4343   21.2572 C   0  0  0  0  0  0  0  0  0  0  0  0
    7.8396  -14.5416   21.8484 C   0  0  0  0  0  0  0  0  0  0  0  0
    6.9236  -15.3498   21.2091 C   0  0  0  0  0  0  0  0  0  0  0  0
    6.3190  -16.5445   21.8628 C   0  0  0  0  0  0  0  0  0  0  0  0
    6.8879  -16.6357   23.2582 C   0  0  2  0  0  0  0  0  0  0  0  0
    7.4124  -15.3241   23.5927 N   0  0  0  0  0  0  0  0  0  0  0  0
    8.0210  -17.6065   23.2382 C   0  0  0  0  0  0  0  0  0  0  0  0
    8.1861  -18.3844   22.2631 O   0  0  0  0  0  0  0  0  0  0  0  0
    6.5781  -15.0037   19.9094 C   0  0  0  0  0  0  0  0  0  0  0  0
    7.1476  -13.8944   19.3196 C   0  0  0  0  0  0  0  0  0  0  0  0
    8.9547  -17.6968   24.3056 N   0  0  0  0  0  0  0  0  0  0  0  0
   10.2650  -17.0357   24.2653 C   0  0  1  0  0  0  0  0  0  0  0  0
   10.3750  -16.1388   23.0702 C   0  0  0  0  0  0  0  0  0  0  0  0
   11.2138  -16.7976   22.0472 C   0  0  0  0  0  0  0  0  0  0  0  0
   11.2790  -18.0366   21.9036 O   0  0  0  0  0  0  0  0  0  0  0  0
   10.5979  -16.4304   25.5541 C   0  0  0  0  0  0  0  0  0  0  0  0
   11.7054  -15.8741   25.7560 O   0  0  0  0  0  0  0  0  0  0  0  0
   12.0007  -16.0371   21.1615 O   0  0  0  0  0  0  0  0  0  0  0  0
    9.7073  -16.4189   26.6784 N   0  0  0  0  0  0  0  0  0  0  0  0
   10.0951  -15.9526   27.9964 C   0  0  1  0  0  0  0  0  0  0  0  0
    8.8853  -15.2117   28.5390 C   0  0  0  0  0  0  0  0  0  0  0  0
    8.2758  -14.2814   27.6008 C   0  0  0  0  0  0  0  0  0  0  0  0
    8.8943  -13.0966   27.2960 C   0  0  0  0  0  0  0  0  0  0  0  0
    8.3503  -12.1858   26.4075 C   0  0  0  0  0  0  0  0  0  0  0  0
    7.1464  -12.4941   25.8177 C   0  0  0  0  0  0  0  0  0  0  0  0
    6.5329  -13.6744   26.1230 C   0  0  0  0  0  0  0  0  0  0  0  0
    7.0769  -14.5782   27.0073 C   0  0  0  0  0  0  0  0  0  0  0  0
   10.5559  -17.0426   28.8647 C   0  0  0  0  0  0  0  0  0  0  0  0
   10.5819  -18.3813   28.4927 O   0  0  0  0  0  0  0  0  0  0  0  0
   10.9557  -16.7619   30.0223 O   0  0  0  0  0  0  0  0  0  0  0  0
  2  1  1  0
  3  2  2  0
  4  3  1  0
  5 11  1  0
  5  4  2  0
  6  5  1  0
  6  7  1  0
  7  8  1  6
  9 10  2  0
  9  7  1  0
 11 12  2  0
 12  2  1  0
 13  9  1  0
 14 15  1  6
 14 13  1  0
 16 15  1  0
 16 20  1  0
 17 16  2  0
 18 14  1  0
 19 18  2  0
 21 18  1  0
 22 21  1  0
 22 23  1  1
 24 23  1  0
 25 24  2  0
 26 25  1  0
 27 26  2  0
 27 28  1  0
 28 29  2  0
 29 24  1  0
 30 31  1  0
 30 22  1  0
 32 30  2  0
M  END
$$$$
