YDF.pdb
     RDKit          3D

 32 33  0  0  1  0  0  0  0  0999 V2000
    6.2481  -13.1907   15.5148 O   0  0  0  0  0  0  0  0  0  0  0  0
    7.1068  -13.6069   16.5317 C   0  0  0  0  0  0  0  0  0  0  0  0
    7.3229  -12.8302   17.6548 C   0  0  0  0  0  0  0  0  0  0  0  0
    8.1773  -13.2692   18.6421 C   0  0  0  0  0  0  0  0  0  0  0  0
    8.8494  -14.4712   18.5759 C   0  0  0  0  0  0  0  0  0  0  0  0
    9.7706  -14.9317   19.6528 C   0  0  0  0  0  0  0  0  0  0  0  0
    9.0889  -16.0657   20.3799 C   0  0  2  0  0  0  0  0  0  0  0  0
    7.9677  -15.4962   21.1049 N   0  0  0  0  0  0  0  0  0  0  0  0
   10.0521  -16.6325   21.3688 C   0  0  0  0  0  0  0  0  0  0  0  0
   11.0420  -17.3098   20.9890 O   0  0  0  0  0  0  0  0  0  0  0  0
    8.6330  -15.2521   17.4482 C   0  0  0  0  0  0  0  0  0  0  0  0
    7.7770  -14.8103   16.4609 C   0  0  0  0  0  0  0  0  0  0  0  0
    9.8984  -16.4364   22.7678 N   0  0  0  0  0  0  0  0  0  0  0  0
   10.8191  -17.0192   23.7517 C   0  0  1  0  0  0  0  0  0  0  0  0
   12.2444  -16.7581   23.3706 C   0  0  0  0  0  0  0  0  0  0  0  0
   12.9231  -18.0479   23.1255 C   0  0  0  0  0  0  0  0  0  0  0  0
   12.4808  -19.1455   23.5246 O   0  0  0  0  0  0  0  0  0  0  0  0
   10.4432  -16.6543   25.1170 C   0  0  0  0  0  0  0  0  0  0  0  0
   10.9891  -15.6969   25.7187 O   0  0  0  0  0  0  0  0  0  0  0  0
   14.1345  -18.1002   22.4101 O   0  0  0  0  0  0  0  0  0  0  0  0
    9.4385  -17.3436   25.8738 N   0  0  0  0  0  0  0  0  0  0  0  0
    9.0104  -16.9250   27.1954 C   0  0  1  0  0  0  0  0  0  0  0  0
    7.6010  -16.3881   27.0163 C   0  0  0  0  0  0  0  0  0  0  0  0
    7.5287  -14.9621   26.7363 C   0  0  0  0  0  0  0  0  0  0  0  0
    6.6846  -14.4862   25.7666 C   0  0  0  0  0  0  0  0  0  0  0  0
    6.5837  -13.1381   25.4710 C   0  0  0  0  0  0  0  0  0  0  0  0
    7.3637  -12.2572   26.1835 C   0  0  0  0  0  0  0  0  0  0  0  0
    8.2032  -12.7338   27.1483 C   0  0  0  0  0  0  0  0  0  0  0  0
    8.3011  -14.0755   27.4399 C   0  0  0  0  0  0  0  0  0  0  0  0
    9.1077  -18.0042   28.1853 C   0  0  0  0  0  0  0  0  0  0  0  0
    9.2030  -17.8016   29.5569 O   0  0  0  0  0  0  0  0  0  0  0  0
    9.1061  -19.1939   27.7808 O   0  0  0  0  0  0  0  0  0  0  0  0
  2  1  1  0
  3  2  2  0
  4  3  1  0
  5 11  1  0
  5  4  2  0
  6  5  1  0
  6  7  1  0
  7  8  1  1
  9 10  2  0
  9  7  1  0
 11 12  2  0
 12  2  1  0
 13  9  1  0
 14 15  1  6
 14 13  1  0
 16 15  1  0
 16 20  1  0
 17 16  2  0
 18 14  1  0
 19 18  2  0
 21 18  1  0
 22 21  1  0
 22 23  1  6
 24 23  1  0
 25 24  2  0
 26 25  1  0
 27 26  2  0
 27 28  1  0
 28 29  2  0
 29 24  1  0
 30 31  1  0
 30 22  1  0
 32 30  2  0
M  END
$$$$
