YDF.pdb
     RDKit          3D

 32 33  0  0  1  0  0  0  0  0999 V2000
    7.8275  -12.2623   16.6780 O   0  0  0  0  0  0  0  0  0  0  0  0
    7.8087  -12.8464   17.9442 C   0  0  0  0  0  0  0  0  0  0  0  0
    6.6502  -13.3867   18.4708 C   0  0  0  0  0  0  0  0  0  0  0  0
    6.6639  -13.9568   19.7247 C   0  0  0  0  0  0  0  0  0  0  0  0
    7.7960  -14.0229   20.5090 C   0  0  0  0  0  0  0  0  0  0  0  0
    7.7940  -14.6431   21.8638 C   0  0  0  0  0  0  0  0  0  0  0  0
    8.3104  -16.0543   21.7184 C   0  0  2  0  0  0  0  0  0  0  0  0
    7.2401  -16.8434   21.1361 N   0  0  0  0  0  0  0  0  0  0  0  0
    8.6027  -16.5875   23.0811 C   0  0  0  0  0  0  0  0  0  0  0  0
    7.6694  -16.8797   23.8728 O   0  0  0  0  0  0  0  0  0  0  0  0
    8.9600  -13.4805   19.9808 C   0  0  0  0  0  0  0  0  0  0  0  0
    8.9438  -12.9101   18.7249 C   0  0  0  0  0  0  0  0  0  0  0  0
    9.9316  -16.7876   23.5428 N   0  0  0  0  0  0  0  0  0  0  0  0
   10.2308  -17.3381   24.8706 C   0  0  1  0  0  0  0  0  0  0  0  0
   11.2536  -18.4292   24.7791 C   0  0  0  0  0  0  0  0  0  0  0  0
   12.4388  -17.9212   24.0570 C   0  0  0  0  0  0  0  0  0  0  0  0
   12.4749  -17.7617   22.8189 O   0  0  0  0  0  0  0  0  0  0  0  0
   10.5091  -16.2778   25.8384 C   0  0  0  0  0  0  0  0  0  0  0  0
   11.2589  -15.3099   25.5601 O   0  0  0  0  0  0  0  0  0  0  0  0
   13.6160  -17.5837   24.7517 O   0  0  0  0  0  0  0  0  0  0  0  0
    9.9614  -16.2504   27.1638 N   0  0  0  0  0  0  0  0  0  0  0  0
   10.3976  -15.3180   28.1863 C   0  0  1  0  0  0  0  0  0  0  0  0
    9.1258  -14.7192   28.7612 C   0  0  0  0  0  0  0  0  0  0  0  0
    8.2893  -14.0309   27.7898 C   0  0  0  0  0  0  0  0  0  0  0  0
    8.8326  -13.1056   26.9367 C   0  0  0  0  0  0  0  0  0  0  0  0
    8.0733  -12.4309   25.9969 C   0  0  0  0  0  0  0  0  0  0  0  0
    6.7279  -12.7091   25.9284 C   0  0  0  0  0  0  0  0  0  0  0  0
    6.1897  -13.6309   26.7790 C   0  0  0  0  0  0  0  0  0  0  0  0
    6.9479  -14.3002   27.7127 C   0  0  0  0  0  0  0  0  0  0  0  0
   11.2577  -15.9508   29.1932 C   0  0  0  0  0  0  0  0  0  0  0  0
   11.5895  -17.3004   29.2021 O   0  0  0  0  0  0  0  0  0  0  0  0
   11.7322  -15.2383   30.1130 O   0  0  0  0  0  0  0  0  0  0  0  0
  2  1  1  0
  3  2  2  0
  4  3  1  0
  5 11  1  0
  5  4  2  0
  6  5  1  0
  6  7  1  0
  7  8  1  1
  9 10  2  0
  9  7  1  0
 11 12  2  0
 12  2  1  0
 13  9  1  0
 14 15  1  6
 14 13  1  0
 16 15  1  0
 16 20  1  0
 17 16  2  0
 18 14  1  0
 19 18  2  0
 21 18  1  0
 22 21  1  0
 22 23  1  1
 24 23  1  0
 25 24  2  0
 26 25  1  0
 27 26  2  0
 27 28  1  0
 28 29  2  0
 29 24  1  0
 30 31  1  0
 30 22  1  0
 32 30  2  0
M  END
$$$$
