YDF.pdb
     RDKit          3D

 32 33  0  0  1  0  0  0  0  0999 V2000
    9.8465  -12.7107   17.7524 O   0  0  0  0  0  0  0  0  0  0  0  0
    8.9478  -13.3628   18.5961 C   0  0  0  0  0  0  0  0  0  0  0  0
    9.1234  -14.6878   18.9493 C   0  0  0  0  0  0  0  0  0  0  0  0
    8.2180  -15.3039   19.7848 C   0  0  0  0  0  0  0  0  0  0  0  0
    7.1153  -14.6602   20.3052 C   0  0  0  0  0  0  0  0  0  0  0  0
    6.1450  -15.3413   21.2079 C   0  0  0  0  0  0  0  0  0  0  0  0
    6.5189  -16.8031   21.2572 C   0  0  2  0  0  0  0  0  0  0  0  0
    5.4818  -17.5338   20.5517 N   0  0  0  0  0  0  0  0  0  0  0  0
    6.5156  -17.2383   22.6846 C   0  0  0  0  0  0  0  0  0  0  0  0
    5.5052  -17.7957   23.1861 O   0  0  0  0  0  0  0  0  0  0  0  0
    6.9382  -13.3293   19.9511 C   0  0  0  0  0  0  0  0  0  0  0  0
    7.8462  -12.7145   19.1142 C   0  0  0  0  0  0  0  0  0  0  0  0
    7.6389  -17.0459   23.5335 N   0  0  0  0  0  0  0  0  0  0  0  0
    7.7251  -17.6388   24.8738 C   0  0  1  0  0  0  0  0  0  0  0  0
    7.4685  -19.1141   24.8236 C   0  0  0  0  0  0  0  0  0  0  0  0
    7.5581  -19.6670   26.1913 C   0  0  0  0  0  0  0  0  0  0  0  0
    6.6305  -19.5970   27.0246 O   0  0  0  0  0  0  0  0  0  0  0  0
    8.9453  -17.2233   25.5644 C   0  0  0  0  0  0  0  0  0  0  0  0
   10.0537  -17.7648   25.3302 O   0  0  0  0  0  0  0  0  0  0  0  0
    8.7272  -20.3169   26.6307 O   0  0  0  0  0  0  0  0  0  0  0  0
    8.9831  -16.1819   26.5501 N   0  0  0  0  0  0  0  0  0  0  0  0
   10.2136  -15.6861   27.1374 C   0  0  1  0  0  0  0  0  0  0  0  0
   10.1070  -14.1718   27.0891 C   0  0  0  0  0  0  0  0  0  0  0  0
    8.7580  -13.6552   27.2630 C   0  0  0  0  0  0  0  0  0  0  0  0
    8.3873  -13.0630   28.4425 C   0  0  0  0  0  0  0  0  0  0  0  0
    7.1160  -12.5567   28.6480 C   0  0  0  0  0  0  0  0  0  0  0  0
    6.2035  -12.6584   27.6238 C   0  0  0  0  0  0  0  0  0  0  0  0
    6.5753  -13.2484   26.4506 C   0  0  0  0  0  0  0  0  0  0  0  0
    7.8408  -13.7511   26.2495 C   0  0  0  0  0  0  0  0  0  0  0  0
   10.4460  -16.2170   28.4859 C   0  0  0  0  0  0  0  0  0  0  0  0
    9.5900  -17.0957   29.1390 O   0  0  0  0  0  0  0  0  0  0  0  0
   11.4823  -15.8628   29.1019 O   0  0  0  0  0  0  0  0  0  0  0  0
  2  1  1  0
  3  2  2  0
  4  3  1  0
  5 11  1  0
  5  4  2  0
  6  5  1  0
  6  7  1  0
  7  8  1  6
  9 10  2  0
  9  7  1  0
 11 12  2  0
 12  2  1  0
 13  9  1  0
 14 15  1  6
 14 13  1  0
 16 15  1  0
 16 20  1  0
 17 16  2  0
 18 14  1  0
 19 18  2  0
 21 18  1  0
 22 21  1  0
 22 23  1  1
 24 23  1  0
 25 24  2  0
 26 25  1  0
 27 26  2  0
 27 28  1  0
 28 29  2  0
 29 24  1  0
 30 31  1  0
 30 22  1  0
 32 30  2  0
M  END
$$$$
