YDF.pdb
     RDKit          3D

 32 33  0  0  1  0  0  0  0  0999 V2000
    7.6023  -11.9900   16.9042 O   0  0  0  0  0  0  0  0  0  0  0  0
    7.6692  -12.7523   18.0701 C   0  0  0  0  0  0  0  0  0  0  0  0
    8.6502  -12.5322   19.0191 C   0  0  0  0  0  0  0  0  0  0  0  0
    8.6896  -13.3022   20.1606 C   0  0  0  0  0  0  0  0  0  0  0  0
    7.7836  -14.3082   20.4214 C   0  0  0  0  0  0  0  0  0  0  0  0
    7.8401  -15.1324   21.6614 C   0  0  0  0  0  0  0  0  0  0  0  0
    8.9423  -16.1483   21.4822 C   0  0  2  0  0  0  0  0  0  0  0  0
    8.5566  -17.0074   20.3775 N   0  0  0  0  0  0  0  0  0  0  0  0
    9.0195  -16.9773   22.7206 C   0  0  0  0  0  0  0  0  0  0  0  0
    8.6055  -18.1654   22.7277 O   0  0  0  0  0  0  0  0  0  0  0  0
    6.7979  -14.5300   19.4688 C   0  0  0  0  0  0  0  0  0  0  0  0
    6.7605  -13.7576   18.3265 C   0  0  0  0  0  0  0  0  0  0  0  0
    9.5573  -16.4703   23.9343 N   0  0  0  0  0  0  0  0  0  0  0  0
   10.1571  -17.3389   24.9547 C   0  0  1  0  0  0  0  0  0  0  0  0
   11.1796  -18.2502   24.3474 C   0  0  0  0  0  0  0  0  0  0  0  0
   10.5502  -19.5545   24.0528 C   0  0  0  0  0  0  0  0  0  0  0  0
   10.6528  -20.1358   22.9522 O   0  0  0  0  0  0  0  0  0  0  0  0
   10.5938  -16.5713   26.1202 C   0  0  0  0  0  0  0  0  0  0  0  0
   11.6709  -15.9258   26.1200 O   0  0  0  0  0  0  0  0  0  0  0  0
    9.7836  -20.2213   25.0274 O   0  0  0  0  0  0  0  0  0  0  0  0
    9.8459  -16.4895   27.3414 N   0  0  0  0  0  0  0  0  0  0  0  0
   10.3194  -15.7871   28.5193 C   0  0  1  0  0  0  0  0  0  0  0  0
    9.1483  -14.9408   28.9875 C   0  0  0  0  0  0  0  0  0  0  0  0
    8.5340  -14.1308   27.9465 C   0  0  0  0  0  0  0  0  0  0  0  0
    7.3891  -14.5533   27.3221 C   0  0  0  0  0  0  0  0  0  0  0  0
    6.7718  -13.8124   26.3296 C   0  0  0  0  0  0  0  0  0  0  0  0
    7.3386  -12.6124   25.9679 C   0  0  0  0  0  0  0  0  0  0  0  0
    8.4784  -12.1942   26.5913 C   0  0  0  0  0  0  0  0  0  0  0  0
    9.0899  -12.9337   27.5782 C   0  0  0  0  0  0  0  0  0  0  0  0
   10.8349  -16.6988   29.5475 C   0  0  0  0  0  0  0  0  0  0  0  0
   11.5831  -16.2954   30.6470 O   0  0  0  0  0  0  0  0  0  0  0  0
   10.5917  -17.9268   29.4397 O   0  0  0  0  0  0  0  0  0  0  0  0
  2  1  1  0
  3  2  2  0
  4  3  1  0
  5 11  1  0
  5  4  2  0
  6  5  1  0
  6  7  1  0
  7  8  1  6
  9 10  2  0
  9  7  1  0
 11 12  2  0
 12  2  1  0
 13  9  1  0
 14 15  1  6
 14 13  1  0
 16 15  1  0
 16 20  1  0
 17 16  2  0
 18 14  1  0
 19 18  2  0
 21 18  1  0
 22 21  1  0
 22 23  1  1
 24 23  1  0
 25 24  2  0
 26 25  1  0
 27 26  2  0
 27 28  1  0
 28 29  2  0
 29 24  1  0
 30 31  1  0
 30 22  1  0
 32 30  2  0
M  END
$$$$
