YDF.pdb
     RDKit          3D

 32 33  0  0  1  0  0  0  0  0999 V2000
    7.2486  -11.7708   17.3976 O   0  0  0  0  0  0  0  0  0  0  0  0
    7.4115  -12.5790   18.5224 C   0  0  0  0  0  0  0  0  0  0  0  0
    6.3988  -13.4093   18.9653 C   0  0  0  0  0  0  0  0  0  0  0  0
    6.5905  -14.1958   20.0798 C   0  0  0  0  0  0  0  0  0  0  0  0
    7.7655  -14.2050   20.8012 C   0  0  0  0  0  0  0  0  0  0  0  0
    7.9569  -15.0619   22.0051 C   0  0  0  0  0  0  0  0  0  0  0  0
    8.7245  -16.2880   21.5729 C   0  0  2  0  0  0  0  0  0  0  0  0
    7.8151  -17.1096   20.7949 N   0  0  0  0  0  0  0  0  0  0  0  0
    9.1186  -17.0474   22.7955 C   0  0  0  0  0  0  0  0  0  0  0  0
    8.3192  -17.8521   23.3400 O   0  0  0  0  0  0  0  0  0  0  0  0
    8.7833  -13.3713   20.3571 C   0  0  0  0  0  0  0  0  0  0  0  0
    8.5888  -12.5847   19.2407 C   0  0  0  0  0  0  0  0  0  0  0  0
   10.3986  -16.8992   23.3945 N   0  0  0  0  0  0  0  0  0  0  0  0
   10.7929  -17.6318   24.6042 C   0  0  1  0  0  0  0  0  0  0  0  0
   11.9532  -18.5382   24.3262 C   0  0  0  0  0  0  0  0  0  0  0  0
   12.2779  -19.2972   25.5520 C   0  0  0  0  0  0  0  0  0  0  0  0
   13.3651  -19.1946   26.1579 O   0  0  0  0  0  0  0  0  0  0  0  0
   10.9406  -16.7336   25.7486 C   0  0  0  0  0  0  0  0  0  0  0  0
   11.8273  -15.8451   25.7806 O   0  0  0  0  0  0  0  0  0  0  0  0
   11.3497  -20.1972   26.1095 O   0  0  0  0  0  0  0  0  0  0  0  0
   10.1031  -16.7870   26.9118 N   0  0  0  0  0  0  0  0  0  0  0  0
   10.2885  -15.9282   28.0664 C   0  0  1  0  0  0  0  0  0  0  0  0
    8.9284  -15.3085   28.3361 C   0  0  0  0  0  0  0  0  0  0  0  0
    8.4641  -14.3967   27.3016 C   0  0  0  0  0  0  0  0  0  0  0  0
    9.0359  -13.1590   27.1584 C   0  0  0  0  0  0  0  0  0  0  0  0
    8.6260  -12.2633   26.1864 C   0  0  0  0  0  0  0  0  0  0  0  0
    7.6084  -12.6423   25.3422 C   0  0  0  0  0  0  0  0  0  0  0  0
    7.0409  -13.8751   25.4871 C   0  0  0  0  0  0  0  0  0  0  0  0
    7.4511  -14.7638   26.4550 C   0  0  0  0  0  0  0  0  0  0  0  0
   10.8463  -16.6477   29.2177 C   0  0  0  0  0  0  0  0  0  0  0  0
   11.3368  -16.0314   30.3626 O   0  0  0  0  0  0  0  0  0  0  0  0
   10.8893  -17.9029   29.1797 O   0  0  0  0  0  0  0  0  0  0  0  0
  2  1  1  0
  3  2  2  0
  4  3  1  0
  5 11  1  0
  5  4  2  0
  6  5  1  0
  6  7  1  0
  7  8  1  6
  9 10  2  0
  9  7  1  0
 11 12  2  0
 12  2  1  0
 13  9  1  0
 14 15  1  6
 14 13  1  0
 16 15  1  0
 16 20  1  0
 17 16  2  0
 18 14  1  0
 19 18  2  0
 21 18  1  0
 22 21  1  0
 22 23  1  1
 24 23  1  0
 25 24  2  0
 26 25  1  0
 27 26  2  0
 27 28  1  0
 28 29  2  0
 29 24  1  0
 30 31  1  0
 30 22  1  0
 32 30  2  0
M  END
$$$$
