YDF.pdb
     RDKit          3D

 32 33  0  0  1  0  0  0  0  0999 V2000
    7.7583  -12.9099   15.2393 O   0  0  0  0  0  0  0  0  0  0  0  0
    7.6533  -13.3891   16.5447 C   0  0  0  0  0  0  0  0  0  0  0  0
    7.7916  -12.5486   17.6337 C   0  0  0  0  0  0  0  0  0  0  0  0
    7.6824  -13.0524   18.9111 C   0  0  0  0  0  0  0  0  0  0  0  0
    7.4364  -14.3827   19.1769 C   0  0  0  0  0  0  0  0  0  0  0  0
    7.3211  -14.9119   20.5650 C   0  0  0  0  0  0  0  0  0  0  0  0
    8.6874  -14.8216   21.2008 C   0  0  2  0  0  0  0  0  0  0  0  0
    9.6222  -15.4707   20.2997 N   0  0  0  0  0  0  0  0  0  0  0  0
    8.6579  -15.5862   22.4819 C   0  0  0  0  0  0  0  0  0  0  0  0
    7.8252  -15.3039   23.3819 O   0  0  0  0  0  0  0  0  0  0  0  0
    7.2973  -15.2277   18.0838 C   0  0  0  0  0  0  0  0  0  0  0  0
    7.4070  -14.7208   16.8055 C   0  0  0  0  0  0  0  0  0  0  0  0
    9.5574  -16.6551   22.7423 N   0  0  0  0  0  0  0  0  0  0  0  0
    9.6668  -17.2902   24.0614 C   0  0  1  0  0  0  0  0  0  0  0  0
   10.4862  -18.5423   23.9858 C   0  0  0  0  0  0  0  0  0  0  0  0
    9.9072  -19.4377   22.9625 C   0  0  0  0  0  0  0  0  0  0  0  0
   10.3555  -19.5371   21.8011 O   0  0  0  0  0  0  0  0  0  0  0  0
   10.0619  -16.3262   25.0875 C   0  0  0  0  0  0  0  0  0  0  0  0
   10.0686  -15.0905   24.8651 O   0  0  0  0  0  0  0  0  0  0  0  0
    8.7910  -20.2434   23.2583 O   0  0  0  0  0  0  0  0  0  0  0  0
   10.4684  -16.6994   26.4115 N   0  0  0  0  0  0  0  0  0  0  0  0
   10.1617  -15.9111   27.5903 C   0  0  1  0  0  0  0  0  0  0  0  0
    8.6550  -15.7203   27.5723 C   0  0  0  0  0  0  0  0  0  0  0  0
    8.2193  -14.3894   27.1773 C   0  0  0  0  0  0  0  0  0  0  0  0
    7.2419  -14.2311   26.2292 C   0  0  0  0  0  0  0  0  0  0  0  0
    6.7970  -12.9840   25.8272 C   0  0  0  0  0  0  0  0  0  0  0  0
    7.3649  -11.8740   26.4082 C   0  0  0  0  0  0  0  0  0  0  0  0
    8.3377  -12.0346   27.3518 C   0  0  0  0  0  0  0  0  0  0  0  0
    8.7779  -13.2767   27.7495 C   0  0  0  0  0  0  0  0  0  0  0  0
   10.6622  -16.5282   28.8244 C   0  0  0  0  0  0  0  0  0  0  0  0
   11.0157  -15.8190   29.9661 O   0  0  0  0  0  0  0  0  0  0  0  0
   10.7841  -17.7781   28.8658 O   0  0  0  0  0  0  0  0  0  0  0  0
  2  1  1  0
  3  2  2  0
  4  3  1  0
  5 11  1  0
  5  4  2  0
  6  5  1  0
  6  7  1  0
  7  8  1  6
  9 10  2  0
  9  7  1  0
 11 12  2  0
 12  2  1  0
 13  9  1  0
 14 15  1  6
 14 13  1  0
 16 15  1  0
 16 20  1  0
 17 16  2  0
 18 14  1  0
 19 18  2  0
 21 18  1  0
 22 21  1  0
 22 23  1  1
 24 23  1  0
 25 24  2  0
 26 25  1  0
 27 26  2  0
 27 28  1  0
 28 29  2  0
 29 24  1  0
 30 31  1  0
 30 22  1  0
 32 30  2  0
M  END
$$$$
