YDF.pdb
     RDKit          3D

 32 33  0  0  1  0  0  0  0  0999 V2000
    7.0657  -22.7328   29.5486 O   0  0  0  0  0  0  0  0  0  0  0  0
    7.3337  -21.8541   28.4993 C   0  0  0  0  0  0  0  0  0  0  0  0
    8.5287  -21.1629   28.4262 C   0  0  0  0  0  0  0  0  0  0  0  0
    8.7636  -20.3019   27.3770 C   0  0  0  0  0  0  0  0  0  0  0  0
    7.8524  -20.0815   26.3659 C   0  0  0  0  0  0  0  0  0  0  0  0
    8.1220  -19.1465   25.2375 C   0  0  0  0  0  0  0  0  0  0  0  0
    8.3151  -19.9794   23.9933 C   0  0  2  0  0  0  0  0  0  0  0  0
    9.4707  -20.8277   24.2217 N   0  0  0  0  0  0  0  0  0  0  0  0
    8.6210  -19.0599   22.8585 C   0  0  0  0  0  0  0  0  0  0  0  0
    9.8020  -18.6931   22.6265 O   0  0  0  0  0  0  0  0  0  0  0  0
    6.6518  -20.7753   26.4385 C   0  0  0  0  0  0  0  0  0  0  0  0
    6.4189  -21.6369   27.4902 C   0  0  0  0  0  0  0  0  0  0  0  0
    7.6060  -18.5618   21.9977 N   0  0  0  0  0  0  0  0  0  0  0  0
    7.8253  -17.4249   21.0951 C   0  0  1  0  0  0  0  0  0  0  0  0
    6.7695  -17.3737   20.0332 C   0  0  0  0  0  0  0  0  0  0  0  0
    6.6396  -18.7103   19.4161 C   0  0  0  0  0  0  0  0  0  0  0  0
    5.6628  -19.4648   19.6067 O   0  0  0  0  0  0  0  0  0  0  0  0
    8.0461  -16.1860   21.8400 C   0  0  0  0  0  0  0  0  0  0  0  0
    8.4189  -15.1307   21.2707 O   0  0  0  0  0  0  0  0  0  0  0  0
    7.6399  -19.2092   18.5602 O   0  0  0  0  0  0  0  0  0  0  0  0
    7.8604  -16.0693   23.2575 N   0  0  0  0  0  0  0  0  0  0  0  0
    8.1503  -14.8578   24.0012 C   0  0  1  0  0  0  0  0  0  0  0  0
    6.7982  -14.2759   24.3755 C   0  0  0  0  0  0  0  0  0  0  0  0
    6.8629  -13.0792   25.2006 C   0  0  0  0  0  0  0  0  0  0  0  0
    6.0807  -12.9641   26.3205 C   0  0  0  0  0  0  0  0  0  0  0  0
    6.1138  -11.8448   27.1335 C   0  0  0  0  0  0  0  0  0  0  0  0
    6.9662  -10.8203   26.7930 C   0  0  0  0  0  0  0  0  0  0  0  0
    7.7438  -10.9376   25.6775 C   0  0  0  0  0  0  0  0  0  0  0  0
    7.7084  -12.0524   24.8710 C   0  0  0  0  0  0  0  0  0  0  0  0
    9.0253  -15.1023   25.1539 C   0  0  0  0  0  0  0  0  0  0  0  0
    9.2250  -16.3493   25.7340 O   0  0  0  0  0  0  0  0  0  0  0  0
    9.6403  -14.1302   25.6596 O   0  0  0  0  0  0  0  0  0  0  0  0
  2  1  1  0
  3  2  2  0
  4  3  1  0
  5 11  1  0
  5  4  2  0
  6  5  1  0
  6  7  1  0
  7  8  1  1
  9 10  2  0
  9  7  1  0
 11 12  2  0
 12  2  1  0
 13  9  1  0
 14 15  1  6
 14 13  1  0
 16 15  1  0
 16 20  1  0
 17 16  2  0
 18 14  1  0
 19 18  2  0
 21 18  1  0
 22 21  1  0
 22 23  1  1
 24 23  1  0
 25 24  2  0
 26 25  1  0
 27 26  2  0
 27 28  1  0
 28 29  2  0
 29 24  1  0
 30 31  1  0
 30 22  1  0
 32 30  2  0
M  END
$$$$
