YDF.pdb
     RDKit          3D

 32 33  0  0  1  0  0  0  0  0999 V2000
    8.1734  -12.4728   16.8438 O   0  0  0  0  0  0  0  0  0  0  0  0
    8.0229  -13.0415   18.1082 C   0  0  0  0  0  0  0  0  0  0  0  0
    9.0157  -13.8233   18.6690 C   0  0  0  0  0  0  0  0  0  0  0  0
    8.8370  -14.3712   19.9201 C   0  0  0  0  0  0  0  0  0  0  0  0
    7.6947  -14.1815   20.6685 C   0  0  0  0  0  0  0  0  0  0  0  0
    7.5169  -14.7814   22.0208 C   0  0  0  0  0  0  0  0  0  0  0  0
    7.6573  -16.2776   21.8763 C   0  0  2  0  0  0  0  0  0  0  0  0
    6.3367  -16.8049   21.5846 N   0  0  0  0  0  0  0  0  0  0  0  0
    8.1091  -16.8330   23.1856 C   0  0  0  0  0  0  0  0  0  0  0  0
    7.2743  -17.2057   24.0501 O   0  0  0  0  0  0  0  0  0  0  0  0
    6.6970  -13.3963   20.1061 C   0  0  0  0  0  0  0  0  0  0  0  0
    6.8783  -12.8488   18.8531 C   0  0  0  0  0  0  0  0  0  0  0  0
    9.4854  -16.9654   23.5132 N   0  0  0  0  0  0  0  0  0  0  0  0
    9.9423  -17.5750   24.7683 C   0  0  1  0  0  0  0  0  0  0  0  0
   10.9835  -18.6202   24.5073 C   0  0  0  0  0  0  0  0  0  0  0  0
   11.3090  -19.3054   25.7757 C   0  0  0  0  0  0  0  0  0  0  0  0
   10.4463  -19.7898   26.5379 O   0  0  0  0  0  0  0  0  0  0  0  0
   10.2887  -16.5586   25.7610 C   0  0  0  0  0  0  0  0  0  0  0  0
   11.0751  -15.6166   25.4948 O   0  0  0  0  0  0  0  0  0  0  0  0
   12.6453  -19.4477   26.1956 O   0  0  0  0  0  0  0  0  0  0  0  0
    9.7715  -16.5481   27.0988 N   0  0  0  0  0  0  0  0  0  0  0  0
   10.2838  -15.6815   28.1435 C   0  0  1  0  0  0  0  0  0  0  0  0
    9.0797  -14.9178   28.6666 C   0  0  0  0  0  0  0  0  0  0  0  0
    8.3962  -14.1100   27.6679 C   0  0  0  0  0  0  0  0  0  0  0  0
    7.2555  -14.5709   27.0633 C   0  0  0  0  0  0  0  0  0  0  0  0
    6.5738  -13.8337   26.1111 C   0  0  0  0  0  0  0  0  0  0  0  0
    7.0704  -12.5971   25.7698 C   0  0  0  0  0  0  0  0  0  0  0  0
    8.2063  -12.1407   26.3733 C   0  0  0  0  0  0  0  0  0  0  0  0
    8.8819  -12.8767   27.3202 C   0  0  0  0  0  0  0  0  0  0  0  0
   11.0078  -16.4226   29.1832 C   0  0  0  0  0  0  0  0  0  0  0  0
   11.1660  -17.8033   29.1932 O   0  0  0  0  0  0  0  0  0  0  0  0
   11.5232  -15.7801   30.1320 O   0  0  0  0  0  0  0  0  0  0  0  0
  2  1  1  0
  3  2  2  0
  4  3  1  0
  5 11  1  0
  5  4  2  0
  6  5  1  0
  6  7  1  0
  7  8  1  1
  9 10  2  0
  9  7  1  0
 11 12  2  0
 12  2  1  0
 13  9  1  0
 14 15  1  6
 14 13  1  0
 16 15  1  0
 16 20  1  0
 17 16  2  0
 18 14  1  0
 19 18  2  0
 21 18  1  0
 22 21  1  0
 22 23  1  1
 24 23  1  0
 25 24  2  0
 26 25  1  0
 27 26  2  0
 27 28  1  0
 28 29  2  0
 29 24  1  0
 30 31  1  0
 30 22  1  0
 32 30  2  0
M  END
$$$$
