YDF.pdb
     RDKit          3D

 32 33  0  0  1  0  0  0  0  0999 V2000
    7.0371  -11.8230   17.3709 O   0  0  0  0  0  0  0  0  0  0  0  0
    7.3073  -12.5640   18.5210 C   0  0  0  0  0  0  0  0  0  0  0  0
    6.3352  -13.3428   19.1208 C   0  0  0  0  0  0  0  0  0  0  0  0
    6.6332  -14.0633   20.2563 C   0  0  0  0  0  0  0  0  0  0  0  0
    7.8786  -14.0543   20.8480 C   0  0  0  0  0  0  0  0  0  0  0  0
    8.1848  -14.8396   22.0767 C   0  0  0  0  0  0  0  0  0  0  0  0
    8.8730  -16.1116   21.6435 C   0  0  2  0  0  0  0  0  0  0  0  0
    7.8706  -16.9429   21.0021 N   0  0  0  0  0  0  0  0  0  0  0  0
    9.3614  -16.8175   22.8641 C   0  0  0  0  0  0  0  0  0  0  0  0
    8.5583  -17.4071   23.6325 O   0  0  0  0  0  0  0  0  0  0  0  0
    8.8556  -13.2724   20.2463 C   0  0  0  0  0  0  0  0  0  0  0  0
    8.5547  -12.5518   19.1092 C   0  0  0  0  0  0  0  0  0  0  0  0
   10.7388  -16.8564   23.2114 N   0  0  0  0  0  0  0  0  0  0  0  0
   11.2299  -17.5413   24.4137 C   0  0  1  0  0  0  0  0  0  0  0  0
   12.6154  -18.0701   24.1996 C   0  0  0  0  0  0  0  0  0  0  0  0
   12.6074  -18.9928   23.0452 C   0  0  0  0  0  0  0  0  0  0  0  0
   11.7203  -19.8513   22.8558 O   0  0  0  0  0  0  0  0  0  0  0  0
   11.0327  -16.7258   25.6113 C   0  0  0  0  0  0  0  0  0  0  0  0
   11.5841  -15.6057   25.7457 O   0  0  0  0  0  0  0  0  0  0  0  0
   13.6289  -18.9453   22.0776 O   0  0  0  0  0  0  0  0  0  0  0  0
   10.2091  -17.1251   26.7157 N   0  0  0  0  0  0  0  0  0  0  0  0
   10.2537  -16.4819   28.0154 C   0  0  1  0  0  0  0  0  0  0  0  0
    8.8290  -16.0393   28.3003 C   0  0  0  0  0  0  0  0  0  0  0  0
    8.3502  -14.9600   27.4500 C   0  0  0  0  0  0  0  0  0  0  0  0
    8.7449  -13.6674   27.6794 C   0  0  0  0  0  0  0  0  0  0  0  0
    8.3152  -12.6127   26.8933 C   0  0  0  0  0  0  0  0  0  0  0  0
    7.4626  -12.8866   25.8492 C   0  0  0  0  0  0  0  0  0  0  0  0
    7.0712  -14.1745   25.6233 C   0  0  0  0  0  0  0  0  0  0  0  0
    7.5006  -15.2213   26.4071 C   0  0  0  0  0  0  0  0  0  0  0  0
   10.8184  -17.3521   29.0537 C   0  0  0  0  0  0  0  0  0  0  0  0
   11.1830  -16.9203   30.3233 O   0  0  0  0  0  0  0  0  0  0  0  0
   10.9890  -18.5691   28.7916 O   0  0  0  0  0  0  0  0  0  0  0  0
  2  1  1  0
  3  2  2  0
  4  3  1  0
  5 11  1  0
  5  4  2  0
  6  5  1  0
  6  7  1  0
  7  8  1  1
  9 10  2  0
  9  7  1  0
 11 12  2  0
 12  2  1  0
 13  9  1  0
 14 15  1  6
 14 13  1  0
 16 15  1  0
 16 20  1  0
 17 16  2  0
 18 14  1  0
 19 18  2  0
 21 18  1  0
 22 21  1  0
 22 23  1  1
 24 23  1  0
 25 24  2  0
 26 25  1  0
 27 26  2  0
 27 28  1  0
 28 29  2  0
 29 24  1  0
 30 31  1  0
 30 22  1  0
 32 30  2  0
M  END
$$$$
