YDF.pdb
     RDKit          3D

 32 33  0  0  1  0  0  0  0  0999 V2000
    9.7812  -11.6581   19.8778 O   0  0  0  0  0  0  0  0  0  0  0  0
    8.8339  -12.6170   20.2356 C   0  0  0  0  0  0  0  0  0  0  0  0
    8.2936  -13.4795   19.3000 C   0  0  0  0  0  0  0  0  0  0  0  0
    7.3595  -14.4160   19.6847 C   0  0  0  0  0  0  0  0  0  0  0  0
    6.9183  -14.5489   20.9842 C   0  0  0  0  0  0  0  0  0  0  0  0
    5.9069  -15.5675   21.3842 C   0  0  0  0  0  0  0  0  0  0  0  0
    6.4978  -16.9285   21.1053 C   0  0  2  0  0  0  0  0  0  0  0  0
    5.3902  -17.8591   20.9853 N   0  0  0  0  0  0  0  0  0  0  0  0
    7.3253  -17.3283   22.2810 C   0  0  0  0  0  0  0  0  0  0  0  0
    6.7989  -17.8792   23.2822 O   0  0  0  0  0  0  0  0  0  0  0  0
    7.4605  -13.6830   21.9247 C   0  0  0  0  0  0  0  0  0  0  0  0
    8.3957  -12.7461   21.5369 C   0  0  0  0  0  0  0  0  0  0  0  0
    8.7285  -17.1082   22.3244 N   0  0  0  0  0  0  0  0  0  0  0  0
    9.5828  -17.6706   23.3777 C   0  0  1  0  0  0  0  0  0  0  0  0
   10.7442  -18.4098   22.7865 C   0  0  0  0  0  0  0  0  0  0  0  0
   11.4726  -19.1083   23.8662 C   0  0  0  0  0  0  0  0  0  0  0  0
   10.9135  -19.8262   24.7217 O   0  0  0  0  0  0  0  0  0  0  0  0
    9.9092  -16.6695   24.3924 C   0  0  0  0  0  0  0  0  0  0  0  0
   10.6496  -15.6880   24.1374 O   0  0  0  0  0  0  0  0  0  0  0  0
   12.8709  -18.9935   23.9837 O   0  0  0  0  0  0  0  0  0  0  0  0
    9.4225  -16.7192   25.7407 N   0  0  0  0  0  0  0  0  0  0  0  0
    9.9167  -15.8570   26.7977 C   0  0  1  0  0  0  0  0  0  0  0  0
    8.6800  -15.3074   27.4871 C   0  0  0  0  0  0  0  0  0  0  0  0
    8.0613  -14.1788   26.8085 C   0  0  0  0  0  0  0  0  0  0  0  0
    6.7186  -14.1852   26.5321 C   0  0  0  0  0  0  0  0  0  0  0  0
    6.0907  -13.1316   25.8911 C   0  0  0  0  0  0  0  0  0  0  0  0
    6.8537  -12.0473   25.5248 C   0  0  0  0  0  0  0  0  0  0  0  0
    8.1902  -12.0437   25.8013 C   0  0  0  0  0  0  0  0  0  0  0  0
    8.8116  -13.0934   26.4390 C   0  0  0  0  0  0  0  0  0  0  0  0
   10.8367  -16.5524   27.7056 C   0  0  0  0  0  0  0  0  0  0  0  0
   11.1888  -17.8916   27.5878 O   0  0  0  0  0  0  0  0  0  0  0  0
   11.3467  -15.9075   28.6558 O   0  0  0  0  0  0  0  0  0  0  0  0
  2  1  1  0
  3  2  2  0
  4  3  1  0
  5 11  1  0
  5  4  2  0
  6  5  1  0
  6  7  1  0
  7  8  1  1
  9 10  2  0
  9  7  1  0
 11 12  2  0
 12  2  1  0
 13  9  1  0
 14 15  1  6
 14 13  1  0
 16 15  1  0
 16 20  1  0
 17 16  2  0
 18 14  1  0
 19 18  2  0
 21 18  1  0
 22 21  1  0
 22 23  1  1
 24 23  1  0
 25 24  2  0
 26 25  1  0
 27 26  2  0
 27 28  1  0
 28 29  2  0
 29 24  1  0
 30 31  1  0
 30 22  1  0
 32 30  2  0
M  END
$$$$
