YDF.pdb
     RDKit          3D

 32 33  0  0  1  0  0  0  0  0999 V2000
    8.2084  -12.9658   16.8185 O   0  0  0  0  0  0  0  0  0  0  0  0
    8.0286  -13.3947   18.1332 C   0  0  0  0  0  0  0  0  0  0  0  0
    7.9014  -14.7363   18.4420 C   0  0  0  0  0  0  0  0  0  0  0  0
    7.7248  -15.1283   19.7506 C   0  0  0  0  0  0  0  0  0  0  0  0
    7.6654  -14.2377   20.8015 C   0  0  0  0  0  0  0  0  0  0  0  0
    7.4738  -14.6782   22.2120 C   0  0  0  0  0  0  0  0  0  0  0  0
    7.4934  -16.1877   22.2234 C   0  0  2  0  0  0  0  0  0  0  0  0
    6.1567  -16.6301   22.5767 N   0  0  0  0  0  0  0  0  0  0  0  0
    8.4362  -16.6346   23.2902 C   0  0  0  0  0  0  0  0  0  0  0  0
    8.0095  -16.9977   24.4168 O   0  0  0  0  0  0  0  0  0  0  0  0
    7.7931  -12.8900   20.4923 C   0  0  0  0  0  0  0  0  0  0  0  0
    7.9699  -12.4999   19.1811 C   0  0  0  0  0  0  0  0  0  0  0  0
    9.8421  -16.6705   23.0865 N   0  0  0  0  0  0  0  0  0  0  0  0
   10.7762  -17.1446   24.1152 C   0  0  1  0  0  0  0  0  0  0  0  0
   12.1335  -17.3934   23.5314 C   0  0  0  0  0  0  0  0  0  0  0  0
   11.9945  -18.2433   22.3304 C   0  0  0  0  0  0  0  0  0  0  0  0
   11.1412  -19.1488   22.2225 O   0  0  0  0  0  0  0  0  0  0  0  0
   10.7358  -16.2961   25.3055 C   0  0  0  0  0  0  0  0  0  0  0  0
   11.1835  -15.1231   25.2958 O   0  0  0  0  0  0  0  0  0  0  0  0
   12.8421  -18.0662   21.2202 O   0  0  0  0  0  0  0  0  0  0  0  0
   10.1925  -16.7202   26.5635 N   0  0  0  0  0  0  0  0  0  0  0  0
   10.3572  -15.9709   27.7949 C   0  0  1  0  0  0  0  0  0  0  0  0
    8.9501  -15.6490   28.2674 C   0  0  0  0  0  0  0  0  0  0  0  0
    8.2582  -14.6494   27.4679 C   0  0  0  0  0  0  0  0  0  0  0  0
    7.1905  -15.0036   26.6843 C   0  0  0  0  0  0  0  0  0  0  0  0
    6.5036  -14.0841   25.9113 C   0  0  0  0  0  0  0  0  0  0  0  0
    6.9182  -12.7729   25.9406 C   0  0  0  0  0  0  0  0  0  0  0  0
    7.9815  -12.4231   26.7217 C   0  0  0  0  0  0  0  0  0  0  0  0
    8.6626  -13.3403   27.4894 C   0  0  0  0  0  0  0  0  0  0  0  0
   11.1609  -16.6928   28.7884 C   0  0  0  0  0  0  0  0  0  0  0  0
   11.6836  -16.1167   29.9400 O   0  0  0  0  0  0  0  0  0  0  0  0
   11.4001  -17.9117   28.5984 O   0  0  0  0  0  0  0  0  0  0  0  0
  2  1  1  0
  3  2  2  0
  4  3  1  0
  5 11  1  0
  5  4  2  0
  6  5  1  0
  6  7  1  0
  7  8  1  1
  9 10  2  0
  9  7  1  0
 11 12  2  0
 12  2  1  0
 13  9  1  0
 14 15  1  6
 14 13  1  0
 16 15  1  0
 16 20  1  0
 17 16  2  0
 18 14  1  0
 19 18  2  0
 21 18  1  0
 22 21  1  0
 22 23  1  1
 24 23  1  0
 25 24  2  0
 26 25  1  0
 27 26  2  0
 27 28  1  0
 28 29  2  0
 29 24  1  0
 30 31  1  0
 30 22  1  0
 32 30  2  0
M  END
$$$$
