YDF.pdb
     RDKit          3D

 32 33  0  0  1  0  0  0  0  0999 V2000
    9.8025  -20.2177   30.6796 O   0  0  0  0  0  0  0  0  0  0  0  0
    9.0906  -19.7358   29.5815 C   0  0  0  0  0  0  0  0  0  0  0  0
    7.9690  -20.3901   29.1070 C   0  0  0  0  0  0  0  0  0  0  0  0
    7.2872  -19.8889   28.0201 C   0  0  0  0  0  0  0  0  0  0  0  0
    7.6669  -18.7408   27.3577 C   0  0  0  0  0  0  0  0  0  0  0  0
    6.9183  -18.2117   26.1830 C   0  0  0  0  0  0  0  0  0  0  0  0
    6.7005  -19.3604   25.2279 C   0  0  2  0  0  0  0  0  0  0  0  0
    7.4655  -20.4865   25.7318 N   0  0  0  0  0  0  0  0  0  0  0  0
    7.2523  -18.9722   23.8968 C   0  0  0  0  0  0  0  0  0  0  0  0
    8.4471  -19.2267   23.5954 O   0  0  0  0  0  0  0  0  0  0  0  0
    8.7933  -18.0829   27.8336 C   0  0  0  0  0  0  0  0  0  0  0  0
    9.4743  -18.5868   28.9222 C   0  0  0  0  0  0  0  0  0  0  0  0
    6.4645  -18.3056   22.9200 N   0  0  0  0  0  0  0  0  0  0  0  0
    7.0312  -17.7904   21.6674 C   0  0  1  0  0  0  0  0  0  0  0  0
    5.9554  -17.5508   20.6524 C   0  0  0  0  0  0  0  0  0  0  0  0
    5.1477  -18.7797   20.5051 C   0  0  0  0  0  0  0  0  0  0  0  0
    3.9295  -18.8395   20.7738 O   0  0  0  0  0  0  0  0  0  0  0  0
    7.9417  -16.6728   21.9127 C   0  0  0  0  0  0  0  0  0  0  0  0
    8.5815  -16.1255   20.9811 O   0  0  0  0  0  0  0  0  0  0  0  0
    5.7311  -19.9742   20.0416 O   0  0  0  0  0  0  0  0  0  0  0  0
    8.1797  -16.1144   23.2123 N   0  0  0  0  0  0  0  0  0  0  0  0
    9.0937  -15.0131   23.4504 C   0  0  1  0  0  0  0  0  0  0  0  0
    8.2227  -13.7717   23.5354 C   0  0  0  0  0  0  0  0  0  0  0  0
    7.7572  -13.4510   24.8761 C   0  0  0  0  0  0  0  0  0  0  0  0
    6.4788  -13.7622   25.2609 C   0  0  0  0  0  0  0  0  0  0  0  0
    5.9976  -13.4771   26.5266 C   0  0  0  0  0  0  0  0  0  0  0  0
    6.8433  -12.8597   27.4187 C   0  0  0  0  0  0  0  0  0  0  0  0
    8.1155  -12.5511   27.0329 C   0  0  0  0  0  0  0  0  0  0  0  0
    8.5910  -12.8361   25.7730 C   0  0  0  0  0  0  0  0  0  0  0  0
    9.9327  -15.2258   24.6357 C   0  0  0  0  0  0  0  0  0  0  0  0
   11.1314  -14.5645   24.8747 O   0  0  0  0  0  0  0  0  0  0  0  0
    9.5550  -16.0569   25.4991 O   0  0  0  0  0  0  0  0  0  0  0  0
  2  1  1  0
  3  2  2  0
  4  3  1  0
  5 11  1  0
  5  4  2  0
  6  5  1  0
  6  7  1  0
  7  8  1  1
  9 10  2  0
  9  7  1  0
 11 12  2  0
 12  2  1  0
 13  9  1  0
 14 15  1  6
 14 13  1  0
 16 15  1  0
 16 20  1  0
 17 16  2  0
 18 14  1  0
 19 18  2  0
 21 18  1  0
 22 21  1  0
 22 23  1  1
 24 23  1  0
 25 24  2  0
 26 25  1  0
 27 26  2  0
 27 28  1  0
 28 29  2  0
 29 24  1  0
 30 31  1  0
 30 22  1  0
 32 30  2  0
M  END
$$$$
