YDF.pdb
     RDKit          3D

 32 33  0  0  1  0  0  0  0  0999 V2000
    7.9954  -11.7977   17.9525 O   0  0  0  0  0  0  0  0  0  0  0  0
    7.8615  -12.6159   19.0738 C   0  0  0  0  0  0  0  0  0  0  0  0
    8.9309  -12.8684   19.9128 C   0  0  0  0  0  0  0  0  0  0  0  0
    8.7666  -13.6811   21.0129 C   0  0  0  0  0  0  0  0  0  0  0  0
    7.5653  -14.2750   21.3370 C   0  0  0  0  0  0  0  0  0  0  0  0
    7.4042  -15.1519   22.5309 C   0  0  0  0  0  0  0  0  0  0  0  0
    7.9234  -16.5208   22.1629 C   0  0  2  0  0  0  0  0  0  0  0  0
    6.7695  -17.3860   21.9985 N   0  0  0  0  0  0  0  0  0  0  0  0
    8.7393  -17.0330   23.3026 C   0  0  0  0  0  0  0  0  0  0  0  0
    8.1869  -17.5109   24.3270 O   0  0  0  0  0  0  0  0  0  0  0  0
    6.4906  -14.0219   20.4949 C   0  0  0  0  0  0  0  0  0  0  0  0
    6.6576  -13.2078   19.3939 C   0  0  0  0  0  0  0  0  0  0  0  0
   10.1599  -17.0052   23.2846 N   0  0  0  0  0  0  0  0  0  0  0  0
   10.9723  -17.4825   24.4105 C   0  0  1  0  0  0  0  0  0  0  0  0
   12.3601  -17.8250   23.9614 C   0  0  0  0  0  0  0  0  0  0  0  0
   12.2889  -18.8989   22.9486 C   0  0  0  0  0  0  0  0  0  0  0  0
   11.4523  -19.8255   22.9849 O   0  0  0  0  0  0  0  0  0  0  0  0
   10.8738  -16.5833   25.5595 C   0  0  0  0  0  0  0  0  0  0  0  0
   11.5051  -15.4989   25.6055 O   0  0  0  0  0  0  0  0  0  0  0  0
   13.1869  -18.9280   21.8647 O   0  0  0  0  0  0  0  0  0  0  0  0
   10.0640  -16.8551   26.7118 N   0  0  0  0  0  0  0  0  0  0  0  0
   10.2755  -16.2229   28.0005 C   0  0  1  0  0  0  0  0  0  0  0  0
    8.9540  -15.5623   28.3522 C   0  0  0  0  0  0  0  0  0  0  0  0
    8.5930  -14.4408   27.4983 C   0  0  0  0  0  0  0  0  0  0  0  0
    7.5777  -14.5614   26.5851 C   0  0  0  0  0  0  0  0  0  0  0  0
    7.2012  -13.5192   25.7563 C   0  0  0  0  0  0  0  0  0  0  0  0
    7.8786  -12.3269   25.8642 C   0  0  0  0  0  0  0  0  0  0  0  0
    8.8890  -12.2097   26.7742 C   0  0  0  0  0  0  0  0  0  0  0  0
    9.2610  -13.2485   27.5972 C   0  0  0  0  0  0  0  0  0  0  0  0
   10.7506  -17.1677   29.0183 C   0  0  0  0  0  0  0  0  0  0  0  0
   11.2121  -16.7966   30.2755 O   0  0  0  0  0  0  0  0  0  0  0  0
   10.7453  -18.3951   28.7493 O   0  0  0  0  0  0  0  0  0  0  0  0
  2  1  1  0
  3  2  2  0
  4  3  1  0
  5 11  1  0
  5  4  2  0
  6  5  1  0
  6  7  1  0
  7  8  1  1
  9 10  2  0
  9  7  1  0
 11 12  2  0
 12  2  1  0
 13  9  1  0
 14 15  1  6
 14 13  1  0
 16 15  1  0
 16 20  1  0
 17 16  2  0
 18 14  1  0
 19 18  2  0
 21 18  1  0
 22 21  1  0
 22 23  1  1
 24 23  1  0
 25 24  2  0
 26 25  1  0
 27 26  2  0
 27 28  1  0
 28 29  2  0
 29 24  1  0
 30 31  1  0
 30 22  1  0
 32 30  2  0
M  END
$$$$
