YDF.pdb
     RDKit          3D

 32 33  0  0  1  0  0  0  0  0999 V2000
    6.6388  -11.8434   17.8825 O   0  0  0  0  0  0  0  0  0  0  0  0
    7.0441  -12.6152   18.9711 C   0  0  0  0  0  0  0  0  0  0  0  0
    6.1864  -13.5162   19.5741 C   0  0  0  0  0  0  0  0  0  0  0  0
    6.6166  -14.2642   20.6479 C   0  0  0  0  0  0  0  0  0  0  0  0
    7.8878  -14.1656   21.1727 C   0  0  0  0  0  0  0  0  0  0  0  0
    8.3377  -14.9821   22.3351 C   0  0  0  0  0  0  0  0  0  0  0  0
    9.0000  -16.2239   21.7890 C   0  0  2  0  0  0  0  0  0  0  0  0
    7.9453  -17.0855   21.2866 N   0  0  0  0  0  0  0  0  0  0  0  0
    9.6840  -16.9227   22.9162 C   0  0  0  0  0  0  0  0  0  0  0  0
    9.0583  -17.7349   23.6455 O   0  0  0  0  0  0  0  0  0  0  0  0
    8.7500  -13.2608   20.5676 C   0  0  0  0  0  0  0  0  0  0  0  0
    8.3168  -12.5129   19.4925 C   0  0  0  0  0  0  0  0  0  0  0  0
   11.0562  -16.7064   23.2151 N   0  0  0  0  0  0  0  0  0  0  0  0
   11.7267  -17.3496   24.3519 C   0  0  1  0  0  0  0  0  0  0  0  0
   13.1426  -17.7001   24.0092 C   0  0  0  0  0  0  0  0  0  0  0  0
   13.6559  -18.6649   25.0042 C   0  0  0  0  0  0  0  0  0  0  0  0
   12.9207  -19.4203   25.6739 O   0  0  0  0  0  0  0  0  0  0  0  0
   11.5352  -16.5885   25.5857 C   0  0  0  0  0  0  0  0  0  0  0  0
   12.1865  -15.5416   25.8237 O   0  0  0  0  0  0  0  0  0  0  0  0
   15.0373  -18.7802   25.2501 O   0  0  0  0  0  0  0  0  0  0  0  0
   10.6056  -16.9627   26.6120 N   0  0  0  0  0  0  0  0  0  0  0  0
   10.5318  -16.2986   27.8998 C   0  0  1  0  0  0  0  0  0  0  0  0
    9.0606  -15.9891   28.1151 C   0  0  0  0  0  0  0  0  0  0  0  0
    8.5257  -14.9576   27.2394 C   0  0  0  0  0  0  0  0  0  0  0  0
    9.0281  -13.6827   27.2797 C   0  0  0  0  0  0  0  0  0  0  0  0
    8.5499  -12.6735   26.4625 C   0  0  0  0  0  0  0  0  0  0  0  0
    7.5349  -12.9753   25.5846 C   0  0  0  0  0  0  0  0  0  0  0  0
    7.0366  -14.2454   25.5467 C   0  0  0  0  0  0  0  0  0  0  0  0
    7.5147  -15.2470   26.3609 C   0  0  0  0  0  0  0  0  0  0  0  0
   11.1295  -17.0956   28.9777 C   0  0  0  0  0  0  0  0  0  0  0  0
   11.5548  -18.4109   28.8346 O   0  0  0  0  0  0  0  0  0  0  0  0
   11.2722  -16.5673   30.1088 O   0  0  0  0  0  0  0  0  0  0  0  0
  2  1  1  0
  3  2  2  0
  4  3  1  0
  5 11  1  0
  5  4  2  0
  6  5  1  0
  6  7  1  0
  7  8  1  1
  9 10  2  0
  9  7  1  0
 11 12  2  0
 12  2  1  0
 13  9  1  0
 14 15  1  6
 14 13  1  0
 16 15  1  0
 16 20  1  0
 17 16  2  0
 18 14  1  0
 19 18  2  0
 21 18  1  0
 22 21  1  0
 22 23  1  1
 24 23  1  0
 25 24  2  0
 26 25  1  0
 27 26  2  0
 27 28  1  0
 28 29  2  0
 29 24  1  0
 30 31  1  0
 30 22  1  0
 32 30  2  0
M  END
$$$$
