YDF.pdb
     RDKit          3D

 32 33  0  0  1  0  0  0  0  0999 V2000
    7.4082  -12.3377   16.8064 O   0  0  0  0  0  0  0  0  0  0  0  0
    7.6193  -12.9336   18.0494 C   0  0  0  0  0  0  0  0  0  0  0  0
    7.4490  -12.2266   19.2251 C   0  0  0  0  0  0  0  0  0  0  0  0
    7.6653  -12.8435   20.4376 C   0  0  0  0  0  0  0  0  0  0  0  0
    8.0526  -14.1618   20.5527 C   0  0  0  0  0  0  0  0  0  0  0  0
    8.2826  -14.8145   21.8723 C   0  0  0  0  0  0  0  0  0  0  0  0
    8.5512  -16.2776   21.6150 C   0  0  2  0  0  0  0  0  0  0  0  0
    7.2714  -16.9058   21.3416 N   0  0  0  0  0  0  0  0  0  0  0  0
    9.1142  -16.8754   22.8610 C   0  0  0  0  0  0  0  0  0  0  0  0
    8.3587  -17.2457   23.7965 O   0  0  0  0  0  0  0  0  0  0  0  0
    8.2238  -14.8728   19.3723 C   0  0  0  0  0  0  0  0  0  0  0  0
    8.0067  -14.2527   18.1594 C   0  0  0  0  0  0  0  0  0  0  0  0
   10.5118  -17.0521   23.0470 N   0  0  0  0  0  0  0  0  0  0  0  0
   11.0795  -17.6014   24.2846 C   0  0  1  0  0  0  0  0  0  0  0  0
   12.4277  -18.2046   24.0329 C   0  0  0  0  0  0  0  0  0  0  0  0
   12.3055  -19.2416   22.9871 C   0  0  0  0  0  0  0  0  0  0  0  0
   11.4819  -20.1791   23.0396 O   0  0  0  0  0  0  0  0  0  0  0  0
   11.0029  -16.6374   25.3815 C   0  0  0  0  0  0  0  0  0  0  0  0
   11.5928  -15.5301   25.3299 O   0  0  0  0  0  0  0  0  0  0  0  0
   13.1358  -19.2201   21.8503 O   0  0  0  0  0  0  0  0  0  0  0  0
   10.2626  -16.8668   26.5884 N   0  0  0  0  0  0  0  0  0  0  0  0
   10.3545  -16.0078   27.7541 C   0  0  1  0  0  0  0  0  0  0  0  0
    8.9257  -15.6086   28.0798 C   0  0  0  0  0  0  0  0  0  0  0  0
    8.3720  -14.5822   27.2097 C   0  0  0  0  0  0  0  0  0  0  0  0
    7.2952  -14.8583   26.4074 C   0  0  0  0  0  0  0  0  0  0  0  0
    6.7368  -13.9106   25.5677 C   0  0  0  0  0  0  0  0  0  0  0  0
    7.2923  -12.6524   25.5486 C   0  0  0  0  0  0  0  0  0  0  0  0
    8.3642  -12.3804   26.3485 C   0  0  0  0  0  0  0  0  0  0  0  0
    8.9173  -13.3254   27.1825 C   0  0  0  0  0  0  0  0  0  0  0  0
   11.0552  -16.6511   28.8718 C   0  0  0  0  0  0  0  0  0  0  0  0
   11.5072  -15.9802   30.0019 O   0  0  0  0  0  0  0  0  0  0  0  0
   11.2674  -17.8884   28.8171 O   0  0  0  0  0  0  0  0  0  0  0  0
  2  1  1  0
  3  2  2  0
  4  3  1  0
  5 11  1  0
  5  4  2  0
  6  5  1  0
  6  7  1  0
  7  8  1  1
  9 10  2  0
  9  7  1  0
 11 12  2  0
 12  2  1  0
 13  9  1  0
 14 15  1  6
 14 13  1  0
 16 15  1  0
 16 20  1  0
 17 16  2  0
 18 14  1  0
 19 18  2  0
 21 18  1  0
 22 21  1  0
 22 23  1  1
 24 23  1  0
 25 24  2  0
 26 25  1  0
 27 26  2  0
 27 28  1  0
 28 29  2  0
 29 24  1  0
 30 31  1  0
 30 22  1  0
 32 30  2  0
M  END
$$$$
