NDL.pdb
     RDKit          3D

 25 24  0  0  1  0  0  0  0  0999 V2000
   16.3743  -13.5041  -17.1879 N   0  0  0  0  0  0  0  0  0  0  0  0
   16.8460  -13.4038  -15.8593 C   0  0  0  0  0  0  0  0  0  0  0  0
   17.1493  -14.4566  -15.2673 O   0  0  0  0  0  0  0  0  0  0  0  0
   16.9772  -12.0974  -15.1895 C   0  0  0  0  0  0  0  0  0  0  0  0
   16.4510  -10.9446  -16.0025 C   0  0  2  0  0  0  0  0  0  0  0  0
   17.1704  -10.7220  -17.2314 N   0  0  0  0  0  0  0  0  0  0  0  0
   16.4157   -9.7128  -15.1791 C   0  0  0  0  0  0  0  0  0  0  0  0
   17.4564   -8.9722  -15.2284 O   0  0  0  0  0  0  0  0  0  0  0  0
   15.3048   -9.3475  -14.3708 N   0  0  0  0  0  0  0  0  0  0  0  0
   15.3485   -8.1063  -13.6701 C   0  0  1  0  0  0  0  0  0  0  0  0
   13.9703   -7.6634  -13.2574 C   0  0  0  0  0  0  0  0  0  0  0  0
   13.0470   -7.4768  -14.4010 C   0  0  0  0  0  0  0  0  0  0  0  0
   11.9144   -8.0430  -14.3752 O   0  0  0  0  0  0  0  0  0  0  0  0
   16.2893   -8.1321  -12.5110 C   0  0  0  0  0  0  0  0  0  0  0  0
   16.3171   -9.1334  -11.7546 O   0  0  0  0  0  0  0  0  0  0  0  0
   13.3578   -6.7094  -15.5088 O   0  0  0  0  0  0  0  0  0  0  0  0
   21.8338   -6.2251  -12.0543 C   0  0  0  0  0  0  0  0  0  0  0  0
   20.6724   -6.6279  -11.1347 C   0  0  2  0  0  0  0  0  0  0  0  0
   21.0360   -7.9875  -10.5783 C   0  0  0  0  0  0  0  0  0  0  0  0
   19.4664   -6.7937  -12.0090 C   0  0  0  0  0  0  0  0  0  0  0  0
   18.1814   -7.0371  -11.2477 C   0  0  2  0  0  0  0  0  0  0  0  0
   17.1303   -7.0394  -12.2793 N   0  0  0  0  0  0  0  0  0  0  0  0
   17.9069   -6.0196  -10.2230 C   0  0  0  0  0  0  0  0  0  0  0  0
   18.2771   -6.1480   -9.0384 O   0  0  0  0  0  0  0  0  0  0  0  0
   17.2125   -4.8775  -10.5855 O   0  0  0  0  0  0  0  0  0  0  0  0
  1  2  1  0
  2  3  2  0
  4  2  1  0
  5  4  1  0
  5  6  1  6
  7  5  1  0
  7  8  2  0
  9  7  1  0
 10 14  1  0
 10  9  1  0
 10 11  1  1
 12 11  1  0
 12 16  1  0
 13 12  2  0
 14 22  1  0
 15 14  2  0
 18 19  1  6
 18 17  1  0
 20 18  1  0
 21 20  1  6
 22 21  1  0
 23 25  1  0
 23 21  1  0
 24 23  2  0
M  END
$$$$
