NDL.pdb
     RDKit          3D

 25 24  0  0  1  0  0  0  0  0999 V2000
   21.6673  -17.0154  -15.5655 N   0  0  0  0  0  0  0  0  0  0  0  0
   22.2452  -16.0451  -16.4154 C   0  0  0  0  0  0  0  0  0  0  0  0
   22.3663  -16.3255  -17.6227 O   0  0  0  0  0  0  0  0  0  0  0  0
   22.6925  -14.7404  -15.8957 C   0  0  0  0  0  0  0  0  0  0  0  0
   22.5122  -13.6066  -16.8698 C   0  0  2  0  0  0  0  0  0  0  0  0
   23.2839  -13.7488  -18.0788 N   0  0  0  0  0  0  0  0  0  0  0  0
   22.8003  -12.3128  -16.2069 C   0  0  0  0  0  0  0  0  0  0  0  0
   22.2168  -12.1109  -15.0876 O   0  0  0  0  0  0  0  0  0  0  0  0
   23.6701  -11.3320  -16.7571 N   0  0  0  0  0  0  0  0  0  0  0  0
   23.8493  -10.1053  -16.0525 C   0  0  1  0  0  0  0  0  0  0  0  0
   25.2716   -9.6222  -16.1502 C   0  0  0  0  0  0  0  0  0  0  0  0
   26.2434  -10.5206  -15.4842 C   0  0  0  0  0  0  0  0  0  0  0  0
   25.8166  -11.5513  -14.8845 O   0  0  0  0  0  0  0  0  0  0  0  0
   22.8792   -9.0517  -16.4744 C   0  0  0  0  0  0  0  0  0  0  0  0
   22.8006   -8.7271  -17.6844 O   0  0  0  0  0  0  0  0  0  0  0  0
   27.6075  -10.2927  -15.4808 O   0  0  0  0  0  0  0  0  0  0  0  0
   17.3410   -8.2738  -16.1990 C   0  0  0  0  0  0  0  0  0  0  0  0
   18.5781   -7.3849  -16.3890 C   0  0  2  0  0  0  0  0  0  0  0  0
   18.6483   -7.0826  -17.8703 C   0  0  0  0  0  0  0  0  0  0  0  0
   19.7697   -8.2205  -16.0309 C   0  0  0  0  0  0  0  0  0  0  0  0
   21.0472   -7.4291  -15.8532 C   0  0  2  0  0  0  0  0  0  0  0  0
   22.0674   -8.4364  -15.5166 N   0  0  0  0  0  0  0  0  0  0  0  0
   20.9586   -6.4030  -14.8043 C   0  0  0  0  0  0  0  0  0  0  0  0
   21.2750   -6.6307  -13.6190 O   0  0  0  0  0  0  0  0  0  0  0  0
   20.5077   -5.1384  -15.1440 O   0  0  0  0  0  0  0  0  0  0  0  0
  1  2  1  0
  2  3  2  0
  4  2  1  0
  5  4  1  0
  5  6  1  6
  7  5  1  0
  7  8  2  0
  9  7  1  0
 10 14  1  0
 10  9  1  0
 10 11  1  6
 12 11  1  0
 12 16  1  0
 13 12  2  0
 14 22  1  0
 15 14  2  0
 18 19  1  6
 18 17  1  0
 20 18  1  0
 21 20  1  1
 22 21  1  0
 23 25  1  0
 23 21  1  0
 24 23  2  0
M  END
$$$$
