NDL.pdb
     RDKit          3D

 25 24  0  0  1  0  0  0  0  0999 V2000
   29.6659  -18.8572  -19.1993 N   0  0  0  0  0  0  0  0  0  0  0  0
   29.1178  -17.5695  -19.0009 C   0  0  0  0  0  0  0  0  0  0  0  0
   29.4791  -16.6576  -19.7683 O   0  0  0  0  0  0  0  0  0  0  0  0
   28.1487  -17.3074  -17.9218 C   0  0  0  0  0  0  0  0  0  0  0  0
   27.7973  -18.5282  -17.1138 C   0  0  2  0  0  0  0  0  0  0  0  0
   27.8578  -19.7589  -17.8615 N   0  0  0  0  0  0  0  0  0  0  0  0
   26.4676  -18.3574  -16.4820 C   0  0  0  0  0  0  0  0  0  0  0  0
   26.1710  -17.1724  -16.1052 O   0  0  0  0  0  0  0  0  0  0  0  0
   25.5521  -19.4282  -16.2913 N   0  0  0  0  0  0  0  0  0  0  0  0
   24.3068  -19.1568  -15.6519 C   0  0  1  0  0  0  0  0  0  0  0  0
   23.2474  -18.7860  -16.6549 C   0  0  0  0  0  0  0  0  0  0  0  0
   21.9345  -18.4852  -16.0375 C   0  0  0  0  0  0  0  0  0  0  0  0
   21.8927  -17.7387  -15.0152 O   0  0  0  0  0  0  0  0  0  0  0  0
   23.8599  -20.2714  -14.7647 C   0  0  0  0  0  0  0  0  0  0  0  0
   23.7405  -21.4297  -15.2333 O   0  0  0  0  0  0  0  0  0  0  0  0
   20.7377  -18.9810  -16.5217 O   0  0  0  0  0  0  0  0  0  0  0  0
   25.9494  -21.9560  -11.8417 C   0  0  0  0  0  0  0  0  0  0  0  0
   25.3924  -20.5897  -11.4177 C   0  0  2  0  0  0  0  0  0  0  0  0
   26.0226  -20.2828  -10.0764 C   0  0  0  0  0  0  0  0  0  0  0  0
   23.9196  -20.7704  -11.2059 C   0  0  0  0  0  0  0  0  0  0  0  0
   23.1445  -21.0555  -12.4738 C   0  0  2  0  0  0  0  0  0  0  0  0
   23.5782  -20.0134  -13.4196 N   0  0  0  0  0  0  0  0  0  0  0  0
   21.6866  -21.0204  -12.2886 C   0  0  0  0  0  0  0  0  0  0  0  0
   20.9876  -20.0611  -12.6733 O   0  0  0  0  0  0  0  0  0  0  0  0
   21.0670  -22.0904  -11.6648 O   0  0  0  0  0  0  0  0  0  0  0  0
  1  2  1  0
  2  3  2  0
  4  2  1  0
  5  4  1  0
  5  6  1  6
  7  5  1  0
  7  8  2  0
  9  7  1  0
 10 14  1  0
 10  9  1  0
 10 11  1  6
 12 11  1  0
 12 16  1  0
 13 12  2  0
 14 22  1  0
 15 14  2  0
 18 19  1  1
 18 17  1  0
 20 18  1  0
 21 20  1  1
 22 21  1  0
 23 25  1  0
 23 21  1  0
 24 23  2  0
M  END
$$$$
