NDL.pdb
     RDKit          3D

 25 24  0  0  1  0  0  0  0  0999 V2000
   29.9846  -24.4705  -17.4409 N   0  0  0  0  0  0  0  0  0  0  0  0
   30.4520  -23.6287  -16.4061 C   0  0  0  0  0  0  0  0  0  0  0  0
   31.6035  -23.8216  -15.9731 O   0  0  0  0  0  0  0  0  0  0  0  0
   29.6082  -22.5545  -15.8525 C   0  0  0  0  0  0  0  0  0  0  0  0
   28.2564  -22.4482  -16.5069 C   0  0  2  0  0  0  0  0  0  0  0  0
   28.3086  -22.0447  -17.8896 N   0  0  0  0  0  0  0  0  0  0  0  0
   27.3797  -21.5450  -15.7246 C   0  0  0  0  0  0  0  0  0  0  0  0
   27.7358  -20.3184  -15.6743 O   0  0  0  0  0  0  0  0  0  0  0  0
   26.2042  -21.9856  -15.0572 N   0  0  0  0  0  0  0  0  0  0  0  0
   25.3714  -21.0145  -14.4274 C   0  0  1  0  0  0  0  0  0  0  0  0
   24.2995  -20.5245  -15.3637 C   0  0  0  0  0  0  0  0  0  0  0  0
   23.3468  -19.5864  -14.7254 C   0  0  0  0  0  0  0  0  0  0  0  0
   23.7904  -18.7073  -13.9288 O   0  0  0  0  0  0  0  0  0  0  0  0
   24.7971  -21.4982  -13.1369 C   0  0  0  0  0  0  0  0  0  0  0  0
   24.1791  -22.5902  -13.1016 O   0  0  0  0  0  0  0  0  0  0  0  0
   21.9832  -19.6184  -14.9540 O   0  0  0  0  0  0  0  0  0  0  0  0
   26.6864  -21.7258   -8.8553 C   0  0  0  0  0  0  0  0  0  0  0  0
   26.4852  -20.3751   -9.5564 C   0  0  2  0  0  0  0  0  0  0  0  0
   27.0216  -19.3289   -8.6034 C   0  0  0  0  0  0  0  0  0  0  0  0
   25.0059  -20.1700   -9.6829 C   0  0  0  0  0  0  0  0  0  0  0  0
   24.3402  -21.0840  -10.6885 C   0  0  2  0  0  0  0  0  0  0  0  0
   24.9532  -20.7291  -11.9796 N   0  0  0  0  0  0  0  0  0  0  0  0
   22.8793  -20.9292  -10.7425 C   0  0  0  0  0  0  0  0  0  0  0  0
   22.3096  -20.2778  -11.6414 O   0  0  0  0  0  0  0  0  0  0  0  0
   22.1079  -21.5277   -9.7604 O   0  0  0  0  0  0  0  0  0  0  0  0
  1  2  1  0
  2  3  2  0
  4  2  1  0
  5  4  1  0
  5  6  1  6
  7  5  1  0
  7  8  2  0
  9  7  1  0
 10 14  1  0
 10  9  1  0
 10 11  1  6
 12 11  1  0
 12 16  1  0
 13 12  2  0
 14 22  1  0
 15 14  2  0
 18 19  1  1
 18 17  1  0
 20 18  1  0
 21 20  1  1
 22 21  1  0
 23 25  1  0
 23 21  1  0
 24 23  2  0
M  END
$$$$
