NDL.pdb
     RDKit          3D

 25 24  0  0  1  0  0  0  0  0999 V2000
   15.6181  -13.2372  -19.2988 N   0  0  0  0  0  0  0  0  0  0  0  0
   15.4977  -11.9417  -18.7465 C   0  0  0  0  0  0  0  0  0  0  0  0
   14.3742  -11.5789  -18.3504 O   0  0  0  0  0  0  0  0  0  0  0  0
   16.6613  -11.0433  -18.6396 C   0  0  0  0  0  0  0  0  0  0  0  0
   17.2699  -11.0018  -17.2631 C   0  0  2  0  0  0  0  0  0  0  0  0
   16.3308  -11.2681  -16.2027 N   0  0  0  0  0  0  0  0  0  0  0  0
   17.9586   -9.7074  -17.0478 C   0  0  0  0  0  0  0  0  0  0  0  0
   19.2353   -9.7315  -17.1087 O   0  0  0  0  0  0  0  0  0  0  0  0
   17.2691   -8.4918  -16.7865 N   0  0  0  0  0  0  0  0  0  0  0  0
   18.0265   -7.2904  -16.6594 C   0  0  1  0  0  0  0  0  0  0  0  0
   17.1583   -6.0751  -16.8465 C   0  0  0  0  0  0  0  0  0  0  0  0
   17.9094   -4.8002  -16.7715 C   0  0  0  0  0  0  0  0  0  0  0  0
   17.7352   -4.0421  -15.7720 O   0  0  0  0  0  0  0  0  0  0  0  0
   18.7956   -7.2268  -15.3813 C   0  0  0  0  0  0  0  0  0  0  0  0
   18.4152   -7.8998  -14.3924 O   0  0  0  0  0  0  0  0  0  0  0  0
   18.8008   -4.3871  -17.7449 O   0  0  0  0  0  0  0  0  0  0  0  0
   23.2370   -9.6753  -14.1497 C   0  0  0  0  0  0  0  0  0  0  0  0
   22.6797   -8.3425  -13.6303 C   0  0  2  0  0  0  0  0  0  0  0  0
   22.1209   -8.6345  -12.2544 C   0  0  0  0  0  0  0  0  0  0  0  0
   21.5353   -7.9744  -14.5253 C   0  0  0  0  0  0  0  0  0  0  0  0
   20.9727   -6.5929  -14.2708 C   0  0  2  0  0  0  0  0  0  0  0  0
   19.9327   -6.4174  -15.2986 N   0  0  0  0  0  0  0  0  0  0  0  0
   21.9801   -5.5259  -14.3578 C   0  0  0  0  0  0  0  0  0  0  0  0
   22.6169   -5.1258  -13.3622 O   0  0  0  0  0  0  0  0  0  0  0  0
   22.2314   -4.9440  -15.5892 O   0  0  0  0  0  0  0  0  0  0  0  0
  1  2  1  0
  2  3  2  0
  4  2  1  0
  5  4  1  0
  5  6  1  1
  7  5  1  0
  7  8  2  0
  9  7  1  0
 10 14  1  0
 10  9  1  0
 10 11  1  1
 12 11  1  0
 12 16  1  0
 13 12  2  0
 14 22  1  0
 15 14  2  0
 18 19  1  1
 18 17  1  0
 20 18  1  0
 21 20  1  6
 22 21  1  0
 23 25  1  0
 23 21  1  0
 24 23  2  0
M  END
$$$$
