NDL.pdb
     RDKit          3D

 25 24  0  0  1  0  0  0  0  0999 V2000
   15.6507  -13.7737  -16.0061 N   0  0  0  0  0  0  0  0  0  0  0  0
   15.5962  -12.3621  -15.9587 C   0  0  0  0  0  0  0  0  0  0  0  0
   14.5670  -11.8336  -15.4981 O   0  0  0  0  0  0  0  0  0  0  0  0
   16.7187  -11.5356  -16.4377 C   0  0  0  0  0  0  0  0  0  0  0  0
   17.7997  -12.3240  -17.1280 C   0  0  2  0  0  0  0  0  0  0  0  0
   18.4234  -13.3160  -16.2888 N   0  0  0  0  0  0  0  0  0  0  0  0
   18.8111  -11.4073  -17.7054 C   0  0  0  0  0  0  0  0  0  0  0  0
   19.7291  -11.9522  -18.4085 O   0  0  0  0  0  0  0  0  0  0  0  0
   18.7898   -9.9996  -17.5077 N   0  0  0  0  0  0  0  0  0  0  0  0
   19.7424   -9.1977  -18.2026 C   0  0  1  0  0  0  0  0  0  0  0  0
   19.0814   -8.3644  -19.2678 C   0  0  0  0  0  0  0  0  0  0  0  0
   20.0393   -7.5611  -20.0630 C   0  0  0  0  0  0  0  0  0  0  0  0
   20.9109   -8.1583  -20.7614 O   0  0  0  0  0  0  0  0  0  0  0  0
   20.5710   -8.3617  -17.2840 C   0  0  0  0  0  0  0  0  0  0  0  0
   21.5302   -7.6957  -17.7442 O   0  0  0  0  0  0  0  0  0  0  0  0
   20.0343   -6.1783  -20.0845 O   0  0  0  0  0  0  0  0  0  0  0  0
   22.0636   -9.7233  -13.1204 C   0  0  0  0  0  0  0  0  0  0  0  0
   22.4372   -9.6135  -14.6054 C   0  0  2  0  0  0  0  0  0  0  0  0
   23.8663  -10.1003  -14.7108 C   0  0  0  0  0  0  0  0  0  0  0  0
   22.4193   -8.1547  -14.9488 C   0  0  0  0  0  0  0  0  0  0  0  0
   21.0379   -7.5367  -14.9438 C   0  0  2  0  0  0  0  0  0  0  0  0
   20.2701   -8.3295  -15.9189 N   0  0  0  0  0  0  0  0  0  0  0  0
   21.0330   -6.1124  -15.3074 C   0  0  0  0  0  0  0  0  0  0  0  0
   20.5521   -5.6992  -16.3821 O   0  0  0  0  0  0  0  0  0  0  0  0
   21.5818   -5.1964  -14.4255 O   0  0  0  0  0  0  0  0  0  0  0  0
  1  2  1  0
  2  3  2  0
  4  2  1  0
  5  4  1  0
  5  6  1  1
  7  5  1  0
  7  8  2  0
  9  7  1  0
 10 14  1  0
 10  9  1  0
 10 11  1  6
 12 11  1  0
 12 16  1  0
 13 12  2  0
 14 22  1  0
 15 14  2  0
 18 19  1  1
 18 17  1  0
 20 18  1  0
 21 20  1  6
 22 21  1  0
 23 25  1  0
 23 21  1  0
 24 23  2  0
M  END
$$$$
