NDL.pdb
     RDKit          3D

 25 24  0  0  1  0  0  0  0  0999 V2000
   14.7080  -12.7253  -15.7668 N   0  0  0  0  0  0  0  0  0  0  0  0
   16.0035  -12.6517  -15.2064 C   0  0  0  0  0  0  0  0  0  0  0  0
   16.3866  -13.6008  -14.4970 O   0  0  0  0  0  0  0  0  0  0  0  0
   16.8786  -11.4910  -15.4498 C   0  0  0  0  0  0  0  0  0  0  0  0
   16.2298  -10.4038  -16.2646 C   0  0  2  0  0  0  0  0  0  0  0  0
   16.1465  -10.7017  -17.6723 N   0  0  0  0  0  0  0  0  0  0  0  0
   16.9212   -9.1129  -16.0366 C   0  0  0  0  0  0  0  0  0  0  0  0
   17.9464   -8.8864  -16.7659 O   0  0  0  0  0  0  0  0  0  0  0  0
   16.4947   -8.1604  -15.0712 N   0  0  0  0  0  0  0  0  0  0  0  0
   17.2322   -6.9474  -14.9361 C   0  0  1  0  0  0  0  0  0  0  0  0
   16.3533   -5.8248  -14.4534 C   0  0  0  0  0  0  0  0  0  0  0  0
   15.2419   -5.5094  -15.3811 C   0  0  0  0  0  0  0  0  0  0  0  0
   15.4991   -5.3212  -16.6068 O   0  0  0  0  0  0  0  0  0  0  0  0
   18.4461   -7.1037  -14.0809 C   0  0  0  0  0  0  0  0  0  0  0  0
   18.4525   -7.9564  -13.1599 O   0  0  0  0  0  0  0  0  0  0  0  0
   13.9231   -5.4076  -14.9772 O   0  0  0  0  0  0  0  0  0  0  0  0
   23.0183   -9.5841  -14.5110 C   0  0  0  0  0  0  0  0  0  0  0  0
   22.6175   -8.3695  -13.6619 C   0  0  2  0  0  0  0  0  0  0  0  0
   22.4501   -8.8875  -12.2498 C   0  0  0  0  0  0  0  0  0  0  0  0
   21.2735   -7.9235  -14.1530 C   0  0  0  0  0  0  0  0  0  0  0  0
   20.8757   -6.5391  -13.6892 C   0  0  2  0  0  0  0  0  0  0  0  0
   19.5645   -6.2977  -14.3147 N   0  0  0  0  0  0  0  0  0  0  0  0
   21.8378   -5.4953  -14.0708 C   0  0  0  0  0  0  0  0  0  0  0  0
   21.8263   -4.9554  -15.1956 O   0  0  0  0  0  0  0  0  0  0  0  0
   22.7912   -5.0969  -13.1487 O   0  0  0  0  0  0  0  0  0  0  0  0
  1  2  1  0
  2  3  2  0
  4  2  1  0
  5  4  1  0
  5  6  1  6
  7  5  1  0
  7  8  2  0
  9  7  1  0
 10 14  1  0
 10  9  1  0
 10 11  1  1
 12 11  1  0
 12 16  1  0
 13 12  2  0
 14 22  1  0
 15 14  2  0
 18 19  1  1
 18 17  1  0
 20 18  1  0
 21 20  1  6
 22 21  1  0
 23 25  1  0
 23 21  1  0
 24 23  2  0
M  END
$$$$
