NDL.pdb
     RDKit          3D

 25 24  0  0  1  0  0  0  0  0999 V2000
   16.4496  -26.5968   -3.7612 N   0  0  0  0  0  0  0  0  0  0  0  0
   16.8563  -25.2678   -4.0183 C   0  0  0  0  0  0  0  0  0  0  0  0
   16.7785  -24.4440   -3.0876 O   0  0  0  0  0  0  0  0  0  0  0  0
   17.3578  -24.8629   -5.3438 C   0  0  0  0  0  0  0  0  0  0  0  0
   17.4008  -25.9872   -6.3443 C   0  0  2  0  0  0  0  0  0  0  0  0
   18.2671  -27.0740   -5.9624 N   0  0  0  0  0  0  0  0  0  0  0  0
   17.7640  -25.4660   -7.6832 C   0  0  0  0  0  0  0  0  0  0  0  0
   18.9953  -25.5661   -8.0118 O   0  0  0  0  0  0  0  0  0  0  0  0
   16.8220  -24.8829   -8.5742 N   0  0  0  0  0  0  0  0  0  0  0  0
   17.2571  -24.5092   -9.8798 C   0  0  1  0  0  0  0  0  0  0  0  0
   16.2733  -24.9504  -10.9303 C   0  0  0  0  0  0  0  0  0  0  0  0
   16.1231  -26.4221  -11.0123 C   0  0  0  0  0  0  0  0  0  0  0  0
   17.1307  -27.1267  -11.3162 O   0  0  0  0  0  0  0  0  0  0  0  0
   17.5643  -23.0522   -9.9895 C   0  0  0  0  0  0  0  0  0  0  0  0
   16.8333  -22.2166   -9.4039 O   0  0  0  0  0  0  0  0  0  0  0  0
   14.9286  -27.0766  -10.7729 O   0  0  0  0  0  0  0  0  0  0  0  0
   22.0462  -20.1135  -12.9993 C   0  0  0  0  0  0  0  0  0  0  0  0
   20.8152  -19.8868  -12.1105 C   0  0  2  0  0  0  0  0  0  0  0  0
   21.3258  -19.2015  -10.8615 C   0  0  0  0  0  0  0  0  0  0  0  0
   20.3086  -21.2422  -11.7198 C   0  0  0  0  0  0  0  0  0  0  0  0
   19.0089  -21.2153  -10.9454 C   0  0  2  0  0  0  0  0  0  0  0  0
   18.6640  -22.6329  -10.7443 N   0  0  0  0  0  0  0  0  0  0  0  0
   17.9264  -20.5072  -11.6437 C   0  0  0  0  0  0  0  0  0  0  0  0
   17.6123  -19.3311  -11.3698 O   0  0  0  0  0  0  0  0  0  0  0  0
   17.2304  -21.1693  -12.6413 O   0  0  0  0  0  0  0  0  0  0  0  0
  1  2  1  0
  2  3  2  0
  4  2  1  0
  5  4  1  0
  5  6  1  1
  7  5  1  0
  7  8  2  0
  9  7  1  0
 10 14  1  0
 10  9  1  0
 10 11  1  6
 12 11  1  0
 12 16  1  0
 13 12  2  0
 14 22  1  0
 15 14  2  0
 18 19  1  1
 18 17  1  0
 20 18  1  0
 21 20  1  6
 22 21  1  0
 23 25  1  0
 23 21  1  0
 24 23  2  0
M  END
$$$$
