NDL.pdb
     RDKit          3D

 25 24  0  0  1  0  0  0  0  0999 V2000
   14.5192  -13.1970  -16.3924 N   0  0  0  0  0  0  0  0  0  0  0  0
   14.3604  -11.8329  -16.7266 C   0  0  0  0  0  0  0  0  0  0  0  0
   13.4321  -11.5260  -17.4980 O   0  0  0  0  0  0  0  0  0  0  0  0
   15.2613  -10.8009  -16.1829 C   0  0  0  0  0  0  0  0  0  0  0  0
   16.2710  -11.3346  -15.2018 C   0  0  2  0  0  0  0  0  0  0  0  0
   15.6901  -11.8303  -13.9795 N   0  0  0  0  0  0  0  0  0  0  0  0
   17.3016  -10.3075  -14.9198 C   0  0  0  0  0  0  0  0  0  0  0  0
   17.0266   -9.4738  -13.9906 O   0  0  0  0  0  0  0  0  0  0  0  0
   18.5344  -10.2269  -15.6233 N   0  0  0  0  0  0  0  0  0  0  0  0
   19.4204   -9.1493  -15.3280 C   0  0  1  0  0  0  0  0  0  0  0  0
   20.8232   -9.6436  -15.0964 C   0  0  0  0  0  0  0  0  0  0  0  0
   21.7965   -8.5535  -14.8521 C   0  0  0  0  0  0  0  0  0  0  0  0
   22.3516   -8.4683  -13.7169 O   0  0  0  0  0  0  0  0  0  0  0  0
   19.3792   -8.0707  -16.3595 C   0  0  0  0  0  0  0  0  0  0  0  0
   19.4618   -8.3697  -17.5758 O   0  0  0  0  0  0  0  0  0  0  0  0
   22.1360   -7.6123  -15.8068 O   0  0  0  0  0  0  0  0  0  0  0  0
   16.5334   -3.0185  -17.1650 C   0  0  0  0  0  0  0  0  0  0  0  0
   17.7157   -3.8149  -17.7349 C   0  0  2  0  0  0  0  0  0  0  0  0
   17.2654   -4.3126  -19.0914 C   0  0  0  0  0  0  0  0  0  0  0  0
   17.9037   -5.0059  -16.8447 C   0  0  0  0  0  0  0  0  0  0  0  0
   19.2914   -5.6066  -16.9028 C   0  0  2  0  0  0  0  0  0  0  0  0
   19.2494   -6.7371  -15.9600 N   0  0  0  0  0  0  0  0  0  0  0  0
   20.3546   -4.6594  -16.5373 C   0  0  0  0  0  0  0  0  0  0  0  0
   20.7639   -4.5348  -15.3652 O   0  0  0  0  0  0  0  0  0  0  0  0
   20.9222   -3.8776  -17.5295 O   0  0  0  0  0  0  0  0  0  0  0  0
  1  2  1  0
  2  3  2  0
  4  2  1  0
  5  4  1  0
  5  6  1  1
  7  5  1  0
  7  8  2  0
  9  7  1  0
 10 14  1  0
 10  9  1  0
 10 11  1  6
 12 11  1  0
 12 16  1  0
 13 12  2  0
 14 22  1  0
 15 14  2  0
 18 19  1  6
 18 17  1  0
 20 18  1  0
 21 20  1  1
 22 21  1  0
 23 25  1  0
 23 21  1  0
 24 23  2  0
M  END
$$$$
