LWG.pdb
     RDKit          3D

 27 28  0  0  1  0  0  0  0  0999 V2000
   26.6596  -17.6096  -16.3296 C   0  0  0  0  0  0  0  0  0  0  0  0
   27.6109  -18.5230  -15.5390 C   0  0  1  0  0  0  0  0  0  0  0  0
   28.6239  -17.6167  -14.8405 C   0  0  0  0  0  0  0  0  0  0  0  0
   26.8055  -19.2631  -14.5226 C   0  0  0  0  0  0  0  0  0  0  0  0
   27.6356  -20.1181  -13.5818 C   0  0  2  0  0  0  0  0  0  0  0  0
   28.2861  -21.1429  -14.3885 N   0  0  0  0  0  0  0  0  0  0  0  0
   26.7218  -20.7843  -12.6109 C   0  0  0  0  0  0  0  0  0  0  0  0
   26.1518  -21.8307  -12.9728 O   0  0  0  0  0  0  0  0  0  0  0  0
   26.5172  -20.2408  -11.3158 N   0  0  0  0  0  0  0  0  0  0  0  0
   25.5596  -20.5841  -10.3403 C   0  0  1  0  0  0  0  0  0  0  0  0
   25.8732  -20.1456   -8.9140 C   0  0  0  0  0  0  0  0  0  0  0  0
   27.2443  -20.5065   -8.5025 C   0  0  0  0  0  0  0  0  0  0  0  0
   28.1129  -21.2986   -9.2016 C   0  0  0  0  0  0  0  0  0  0  0  0
   29.2379  -21.3986   -8.4571 N   0  0  0  0  0  0  0  0  0  0  0  0
   29.1102  -20.6992   -7.3157 C   0  0  0  0  0  0  0  0  0  0  0  0
   29.9837  -20.4998   -6.2380 C   0  0  0  0  0  0  0  0  0  0  0  0
   29.6033  -19.7260   -5.1633 C   0  0  0  0  0  0  0  0  0  0  0  0
   28.3480  -19.1644   -5.1923 C   0  0  0  0  0  0  0  0  0  0  0  0
   27.4881  -19.3565   -6.2470 C   0  0  0  0  0  0  0  0  0  0  0  0
   27.8544  -20.1333   -7.3371 C   0  0  0  0  0  0  0  0  0  0  0  0
   24.1467  -20.3808  -10.6877 C   0  0  0  0  0  0  0  0  0  0  0  0
   23.6759  -19.2899  -11.0714 O   0  0  0  0  0  0  0  0  0  0  0  0
   23.2381  -21.4773  -10.5935 N   0  0  0  0  0  0  0  0  0  0  0  0
   21.8030  -21.2907  -10.7166 C   0  0  0  0  0  0  0  0  0  0  0  0
   21.4150  -21.4573  -12.1370 C   0  0  0  0  0  0  0  0  0  0  0  0
   22.2275  -21.7364  -13.0526 O   0  0  0  0  0  0  0  0  0  0  0  0
   20.0725  -21.2999  -12.5102 O   0  0  0  0  0  0  0  0  0  0  0  0
  2  4  1  0
  2  1  1  1
  3  2  1  0
  5  4  1  0
  5  6  1  6
  7  5  1  0
  8  7  2  0
  9  7  1  0
 10  9  1  0
 10 11  1  1
 11 12  1  0
 12 20  1  0
 12 13  2  0
 13 14  1  0
 15 14  1  0
 15 16  2  0
 17 16  1  0
 18 17  2  0
 19 18  1  0
 19 20  2  0
 20 15  1  0
 21 22  2  0
 21 10  1  0
 23 21  1  0
 24 23  1  0
 25 24  1  0
 26 25  2  0
 27 25  1  0
M  END
$$$$
