LWG.pdb
     RDKit          3D

 27 28  0  0  1  0  0  0  0  0999 V2000
   26.8820  -17.7669  -16.9421 C   0  0  0  0  0  0  0  0  0  0  0  0
   27.7098  -18.9566  -16.4286 C   0  0  1  0  0  0  0  0  0  0  0  0
   29.0237  -18.3893  -15.8925 C   0  0  0  0  0  0  0  0  0  0  0  0
   26.9484  -19.6082  -15.3217 C   0  0  0  0  0  0  0  0  0  0  0  0
   27.7269  -20.6867  -14.5896 C   0  0  2  0  0  0  0  0  0  0  0  0
   27.7555  -21.8611  -15.4522 N   0  0  0  0  0  0  0  0  0  0  0  0
   26.9986  -21.0334  -13.3363 C   0  0  0  0  0  0  0  0  0  0  0  0
   25.9742  -21.7348  -13.4341 O   0  0  0  0  0  0  0  0  0  0  0  0
   27.4665  -20.5798  -12.0754 N   0  0  0  0  0  0  0  0  0  0  0  0
   26.8501  -20.6553  -10.8101 C   0  0  1  0  0  0  0  0  0  0  0  0
   27.6921  -20.1864   -9.6286 C   0  0  0  0  0  0  0  0  0  0  0  0
   27.0178  -20.4064   -8.3339 C   0  0  0  0  0  0  0  0  0  0  0  0
   25.7437  -20.8715   -8.1582 C   0  0  0  0  0  0  0  0  0  0  0  0
   25.5138  -20.8905   -6.8252 N   0  0  0  0  0  0  0  0  0  0  0  0
   26.5953  -20.4548   -6.1553 C   0  0  0  0  0  0  0  0  0  0  0  0
   26.8442  -20.2910   -4.7858 C   0  0  0  0  0  0  0  0  0  0  0  0
   28.0602  -19.8131   -4.3482 C   0  0  0  0  0  0  0  0  0  0  0  0
   29.0069  -19.5086   -5.2984 C   0  0  0  0  0  0  0  0  0  0  0  0
   28.7678  -19.6680   -6.6424 C   0  0  0  0  0  0  0  0  0  0  0  0
   27.5488  -20.1474   -7.1008 C   0  0  0  0  0  0  0  0  0  0  0  0
   25.4561  -20.2013  -10.7159 C   0  0  0  0  0  0  0  0  0  0  0  0
   25.1218  -19.0032  -10.6070 O   0  0  0  0  0  0  0  0  0  0  0  0
   24.4028  -21.1635  -10.7514 N   0  0  0  0  0  0  0  0  0  0  0  0
   23.0859  -20.8333  -11.2676 C   0  0  0  0  0  0  0  0  0  0  0  0
   22.2495  -20.3151  -10.1595 C   0  0  0  0  0  0  0  0  0  0  0  0
   22.0672  -20.9283   -9.0792 O   0  0  0  0  0  0  0  0  0  0  0  0
   21.6128  -19.0732  -10.2961 O   0  0  0  0  0  0  0  0  0  0  0  0
  2  4  1  0
  2  1  1  1
  3  2  1  0
  5  4  1  0
  5  6  1  6
  7  5  1  0
  8  7  2  0
  9  7  1  0
 10  9  1  0
 10 11  1  1
 11 12  1  0
 12 20  1  0
 12 13  2  0
 13 14  1  0
 15 14  1  0
 15 16  2  0
 17 16  1  0
 18 17  2  0
 19 18  1  0
 19 20  2  0
 20 15  1  0
 21 22  2  0
 21 10  1  0
 23 21  1  0
 24 23  1  0
 25 24  1  0
 26 25  2  0
 27 25  1  0
M  END
$$$$
