LWG.pdb
     RDKit          3D

 27 28  0  0  1  0  0  0  0  0999 V2000
   28.2160  -18.7143   -4.9216 C   0  0  0  0  0  0  0  0  0  0  0  0
   28.1262  -19.8988   -5.8979 C   0  0  1  0  0  0  0  0  0  0  0  0
   27.6324  -21.1028   -5.0966 C   0  0  0  0  0  0  0  0  0  0  0  0
   27.1333  -19.5520   -6.9579 C   0  0  0  0  0  0  0  0  0  0  0  0
   26.9034  -20.6577   -7.9726 C   0  0  2  0  0  0  0  0  0  0  0  0
   28.2024  -21.0082   -8.5328 N   0  0  0  0  0  0  0  0  0  0  0  0
   26.0393  -20.1297   -9.0662 C   0  0  0  0  0  0  0  0  0  0  0  0
   26.0612  -18.9038   -9.2841 O   0  0  0  0  0  0  0  0  0  0  0  0
   25.2248  -21.0026   -9.8337 N   0  0  0  0  0  0  0  0  0  0  0  0
   24.3708  -20.7117  -10.9166 C   0  0  1  0  0  0  0  0  0  0  0  0
   24.7857  -21.2860  -12.2667 C   0  0  0  0  0  0  0  0  0  0  0  0
   25.7888  -20.4467  -12.9515 C   0  0  0  0  0  0  0  0  0  0  0  0
   25.5320  -19.5045  -13.9090 C   0  0  0  0  0  0  0  0  0  0  0  0
   26.7268  -18.9976  -14.2905 N   0  0  0  0  0  0  0  0  0  0  0  0
   27.7260  -19.5855  -13.6091 C   0  0  0  0  0  0  0  0  0  0  0  0
   29.1158  -19.4087  -13.6484 C   0  0  0  0  0  0  0  0  0  0  0  0
   29.9391  -20.1547  -12.8333 C   0  0  0  0  0  0  0  0  0  0  0  0
   29.3480  -21.0667  -11.9903 C   0  0  0  0  0  0  0  0  0  0  0  0
   27.9857  -21.2433  -11.9476 C   0  0  0  0  0  0  0  0  0  0  0  0
   27.1418  -20.5013  -12.7620 C   0  0  0  0  0  0  0  0  0  0  0  0
   22.9256  -20.8308  -10.6808 C   0  0  0  0  0  0  0  0  0  0  0  0
   22.4285  -21.4141   -9.6951 O   0  0  0  0  0  0  0  0  0  0  0  0
   22.0142  -20.2531  -11.6148 N   0  0  0  0  0  0  0  0  0  0  0  0
   20.5820  -20.2406  -11.3740 C   0  0  0  0  0  0  0  0  0  0  0  0
   19.9797  -21.4492  -11.9844 C   0  0  0  0  0  0  0  0  0  0  0  0
   18.7458  -21.6801  -12.0001 O   0  0  0  0  0  0  0  0  0  0  0  0
   20.8092  -22.4070  -12.5853 O   0  0  0  0  0  0  0  0  0  0  0  0
  2  4  1  0
  2  1  1  1
  3  2  1  0
  5  4  1  0
  5  6  1  6
  7  5  1  0
  8  7  2  0
  9  7  1  0
 10  9  1  0
 10 11  1  6
 11 12  1  0
 12 20  1  0
 12 13  2  0
 13 14  1  0
 15 14  1  0
 15 16  2  0
 17 16  1  0
 18 17  2  0
 19 18  1  0
 19 20  2  0
 20 15  1  0
 21 22  2  0
 21 10  1  0
 23 21  1  0
 24 23  1  0
 25 24  1  0
 26 25  2  0
 27 25  1  0
M  END
$$$$
