LWG.pdb
     RDKit          3D

 27 28  0  0  1  0  0  0  0  0999 V2000
   32.6582  -30.7666  -19.9707 C   0  0  0  0  0  0  0  0  0  0  0  0
   31.6770  -31.0740  -18.8274 C   0  0  1  0  0  0  0  0  0  0  0  0
   32.3482  -30.6270  -17.5293 C   0  0  0  0  0  0  0  0  0  0  0  0
   30.4339  -30.2792  -19.0567 C   0  0  0  0  0  0  0  0  0  0  0  0
   29.4193  -30.3837  -17.9320 C   0  0  2  0  0  0  0  0  0  0  0  0
   28.8357  -31.7177  -17.9981 N   0  0  0  0  0  0  0  0  0  0  0  0
   28.3424  -29.3802  -18.1661 C   0  0  0  0  0  0  0  0  0  0  0  0
   27.4490  -29.6663  -18.9850 O   0  0  0  0  0  0  0  0  0  0  0  0
   28.3391  -28.1431  -17.4704 N   0  0  0  0  0  0  0  0  0  0  0  0
   27.4925  -27.0274  -17.6289 C   0  0  1  0  0  0  0  0  0  0  0  0
   26.9584  -26.4069  -16.3426 C   0  0  0  0  0  0  0  0  0  0  0  0
   25.7804  -25.5488  -16.5780 C   0  0  0  0  0  0  0  0  0  0  0  0
   24.4741  -25.9538  -16.5682 C   0  0  0  0  0  0  0  0  0  0  0  0
   23.7246  -24.8664  -16.8612 N   0  0  0  0  0  0  0  0  0  0  0  0
   24.5099  -23.7923  -17.0550 C   0  0  0  0  0  0  0  0  0  0  0  0
   24.2118  -22.4613  -17.3775 C   0  0  0  0  0  0  0  0  0  0  0  0
   25.2209  -21.5351  -17.5275 C   0  0  0  0  0  0  0  0  0  0  0  0
   26.5151  -21.9652  -17.3490 C   0  0  0  0  0  0  0  0  0  0  0  0
   26.8125  -23.2690  -17.0321 C   0  0  0  0  0  0  0  0  0  0  0  0
   25.8090  -24.2151  -16.8780 C   0  0  0  0  0  0  0  0  0  0  0  0
   27.8985  -26.0124  -18.6104 C   0  0  0  0  0  0  0  0  0  0  0  0
   28.9360  -25.3251  -18.5099 O   0  0  0  0  0  0  0  0  0  0  0  0
   27.0800  -25.7801  -19.7561 N   0  0  0  0  0  0  0  0  0  0  0  0
   27.4751  -24.8496  -20.7991 C   0  0  0  0  0  0  0  0  0  0  0  0
   26.3284  -23.9667  -21.1174 C   0  0  0  0  0  0  0  0  0  0  0  0
   25.1319  -24.3467  -21.1028 O   0  0  0  0  0  0  0  0  0  0  0  0
   26.5613  -22.6265  -21.4582 O   0  0  0  0  0  0  0  0  0  0  0  0
  2  4  1  0
  2  1  1  6
  3  2  1  0
  5  4  1  0
  5  6  1  6
  7  5  1  0
  8  7  2  0
  9  7  1  0
 10  9  1  0
 10 11  1  1
 11 12  1  0
 12 20  1  0
 12 13  2  0
 13 14  1  0
 15 14  1  0
 15 16  2  0
 17 16  1  0
 18 17  2  0
 19 18  1  0
 19 20  2  0
 20 15  1  0
 21 22  2  0
 21 10  1  0
 23 21  1  0
 24 23  1  0
 25 24  1  0
 26 25  2  0
 27 25  1  0
M  END
$$$$
