LWG.pdb
     RDKit          3D

 27 28  0  0  1  0  0  0  0  0999 V2000
   30.3811  -18.2157  -16.5137 C   0  0  0  0  0  0  0  0  0  0  0  0
   29.0306  -17.9576  -15.8253 C   0  0  1  0  0  0  0  0  0  0  0  0
   27.9881  -17.7967  -16.9310 C   0  0  0  0  0  0  0  0  0  0  0  0
   28.7023  -19.1485  -14.9865 C   0  0  0  0  0  0  0  0  0  0  0  0
   27.3695  -19.0468  -14.2664 C   0  0  2  0  0  0  0  0  0  0  0  0
   27.3603  -17.7775  -13.5500 N   0  0  0  0  0  0  0  0  0  0  0  0
   27.2776  -20.1550  -13.2740 C   0  0  0  0  0  0  0  0  0  0  0  0
   27.2856  -21.3234  -13.7046 O   0  0  0  0  0  0  0  0  0  0  0  0
   27.1895  -19.8797  -11.8844 N   0  0  0  0  0  0  0  0  0  0  0  0
   26.8332  -20.7344  -10.8218 C   0  0  1  0  0  0  0  0  0  0  0  0
   27.7939  -20.7638   -9.6381 C   0  0  0  0  0  0  0  0  0  0  0  0
   27.1055  -20.5564   -8.3487 C   0  0  0  0  0  0  0  0  0  0  0  0
   25.7525  -20.4931   -8.1592 C   0  0  0  0  0  0  0  0  0  0  0  0
   25.5519  -20.2597   -6.8418 N   0  0  0  0  0  0  0  0  0  0  0  0
   26.7277  -20.1737   -6.1951 C   0  0  0  0  0  0  0  0  0  0  0  0
   27.0401  -19.9440   -4.8483 C   0  0  0  0  0  0  0  0  0  0  0  0
   28.3530  -19.8976   -4.4328 C   0  0  0  0  0  0  0  0  0  0  0  0
   29.3308  -20.0847   -5.3819 C   0  0  0  0  0  0  0  0  0  0  0  0
   29.0297  -20.3109   -6.7036 C   0  0  0  0  0  0  0  0  0  0  0  0
   27.7131  -20.3599   -7.1396 C   0  0  0  0  0  0  0  0  0  0  0  0
   25.4267  -20.7255  -10.3977 C   0  0  0  0  0  0  0  0  0  0  0  0
   25.0537  -20.4661   -9.2347 O   0  0  0  0  0  0  0  0  0  0  0  0
   24.4067  -21.0239  -11.3501 N   0  0  0  0  0  0  0  0  0  0  0  0
   22.9981  -20.9742  -10.9992 C   0  0  0  0  0  0  0  0  0  0  0  0
   22.1885  -21.1547  -12.2271 C   0  0  0  0  0  0  0  0  0  0  0  0
   22.6828  -21.2970  -13.3724 O   0  0  0  0  0  0  0  0  0  0  0  0
   20.7892  -21.1714  -12.1367 O   0  0  0  0  0  0  0  0  0  0  0  0
  2  4  1  0
  2  1  1  6
  3  2  1  0
  5  4  1  0
  5  6  1  1
  7  5  1  0
  8  7  2  0
  9  7  1  0
 10  9  1  0
 10 11  1  1
 11 12  1  0
 12 20  1  0
 12 13  2  0
 13 14  1  0
 15 14  1  0
 15 16  2  0
 17 16  1  0
 18 17  2  0
 19 18  1  0
 19 20  2  0
 20 15  1  0
 21 22  2  0
 21 10  1  0
 23 21  1  0
 24 23  1  0
 25 24  1  0
 26 25  2  0
 27 25  1  0
M  END
$$$$
