LWG.pdb
     RDKit          3D

 27 28  0  0  1  0  0  0  0  0999 V2000
   21.3695  -19.4148  -16.1310 C   0  0  0  0  0  0  0  0  0  0  0  0
   21.4916  -20.5638  -15.1165 C   0  0  1  0  0  0  0  0  0  0  0  0
   22.4979  -21.5613  -15.6891 C   0  0  0  0  0  0  0  0  0  0  0  0
   22.0095  -19.9982  -13.8352 C   0  0  0  0  0  0  0  0  0  0  0  0
   22.6839  -21.0208  -12.9382 C   0  0  2  0  0  0  0  0  0  0  0  0
   21.8043  -21.2429  -11.7974 N   0  0  0  0  0  0  0  0  0  0  0  0
   23.9689  -20.4490  -12.4450 C   0  0  0  0  0  0  0  0  0  0  0  0
   23.9713  -19.2614  -12.0705 O   0  0  0  0  0  0  0  0  0  0  0  0
   25.1464  -21.2403  -12.4016 N   0  0  0  0  0  0  0  0  0  0  0  0
   26.4304  -20.9118  -11.9217 C   0  0  1  0  0  0  0  0  0  0  0  0
   26.8994  -21.6799  -10.6909 C   0  0  0  0  0  0  0  0  0  0  0  0
   26.5880  -20.9725   -9.4331 C   0  0  0  0  0  0  0  0  0  0  0  0
   25.3880  -20.4048   -9.1041 C   0  0  0  0  0  0  0  0  0  0  0  0
   25.5440  -19.8366   -7.8864 N   0  0  0  0  0  0  0  0  0  0  0  0
   26.7971  -20.0252   -7.4366 C   0  0  0  0  0  0  0  0  0  0  0  0
   27.4352  -19.6316   -6.2524 C   0  0  0  0  0  0  0  0  0  0  0  0
   28.7561  -19.9540   -6.0292 C   0  0  0  0  0  0  0  0  0  0  0  0
   29.4129  -20.6693   -7.0032 C   0  0  0  0  0  0  0  0  0  0  0  0
   28.7915  -21.0581   -8.1657 C   0  0  0  0  0  0  0  0  0  0  0  0
   27.4622  -20.7414   -8.4073 C   0  0  0  0  0  0  0  0  0  0  0  0
   27.4974  -20.7517  -12.9187 C   0  0  0  0  0  0  0  0  0  0  0  0
   28.5732  -21.3850  -12.8923 O   0  0  0  0  0  0  0  0  0  0  0  0
   27.3196  -19.8282  -13.9920 N   0  0  0  0  0  0  0  0  0  0  0  0
   28.3713  -19.5737  -14.9608 C   0  0  0  0  0  0  0  0  0  0  0  0
   27.8419  -19.8187  -16.3230 C   0  0  0  0  0  0  0  0  0  0  0  0
   27.1968  -20.8465  -16.6448 O   0  0  0  0  0  0  0  0  0  0  0  0
   28.0582  -18.8675  -17.3304 O   0  0  0  0  0  0  0  0  0  0  0  0
  2  4  1  0
  2  1  1  6
  3  2  1  0
  5  4  1  0
  5  6  1  1
  7  5  1  0
  8  7  2  0
  9  7  1  0
 10  9  1  0
 10 11  1  1
 11 12  1  0
 12 20  1  0
 12 13  2  0
 13 14  1  0
 15 14  1  0
 15 16  2  0
 17 16  1  0
 18 17  2  0
 19 18  1  0
 19 20  2  0
 20 15  1  0
 21 22  2  0
 21 10  1  0
 23 21  1  0
 24 23  1  0
 25 24  1  0
 26 25  2  0
 27 25  1  0
M  END
$$$$
