LWG.pdb
     RDKit          3D

 27 28  0  0  1  0  0  0  0  0999 V2000
   30.3684  -21.1980  -11.0073 C   0  0  0  0  0  0  0  0  0  0  0  0
   28.9435  -21.5383  -10.5404 C   0  0  1  0  0  0  0  0  0  0  0  0
   28.9856  -21.6463   -9.0166 C   0  0  0  0  0  0  0  0  0  0  0  0
   28.0426  -20.4187  -10.9459 C   0  0  0  0  0  0  0  0  0  0  0  0
   26.5914  -20.6199  -10.5473 C   0  0  2  0  0  0  0  0  0  0  0  0
   26.3649  -22.0563  -10.4481 N   0  0  0  0  0  0  0  0  0  0  0  0
   25.7201  -20.0733  -11.6259 C   0  0  0  0  0  0  0  0  0  0  0  0
   25.6685  -18.8364  -11.7609 O   0  0  0  0  0  0  0  0  0  0  0  0
   24.9805  -20.9408  -12.4714 N   0  0  0  0  0  0  0  0  0  0  0  0
   24.1085  -20.6289  -13.5339 C   0  0  1  0  0  0  0  0  0  0  0  0
   24.6054  -20.9841  -14.9310 C   0  0  0  0  0  0  0  0  0  0  0  0
   25.9186  -20.3804  -15.2322 C   0  0  0  0  0  0  0  0  0  0  0  0
   27.1000  -21.0537  -15.3787 C   0  0  0  0  0  0  0  0  0  0  0  0
   28.0545  -20.1241  -15.6127 N   0  0  0  0  0  0  0  0  0  0  0  0
   27.5183  -18.8909  -15.6188 C   0  0  0  0  0  0  0  0  0  0  0  0
   28.0869  -17.6245  -15.8113 C   0  0  0  0  0  0  0  0  0  0  0  0
   27.3039  -16.4917  -15.7643 C   0  0  0  0  0  0  0  0  0  0  0  0
   25.9592  -16.6536  -15.5248 C   0  0  0  0  0  0  0  0  0  0  0  0
   25.3967  -17.8933  -15.3361 C   0  0  0  0  0  0  0  0  0  0  0  0
   26.1705  -19.0445  -15.3793 C   0  0  0  0  0  0  0  0  0  0  0  0
   22.6867  -20.9496  -13.3500 C   0  0  0  0  0  0  0  0  0  0  0  0
   21.9338  -21.3223  -14.2737 O   0  0  0  0  0  0  0  0  0  0  0  0
   22.1072  -20.8406  -12.0505 N   0  0  0  0  0  0  0  0  0  0  0  0
   20.6943  -21.0888  -11.8227 C   0  0  0  0  0  0  0  0  0  0  0  0
   19.9052  -20.0174  -12.4749 C   0  0  0  0  0  0  0  0  0  0  0  0
   20.4056  -19.1392  -13.2197 O   0  0  0  0  0  0  0  0  0  0  0  0
   18.5198  -19.9547  -12.2671 O   0  0  0  0  0  0  0  0  0  0  0  0
  2  4  1  0
  2  1  1  1
  3  2  1  0
  5  4  1  0
  5  6  1  6
  7  5  1  0
  8  7  2  0
  9  7  1  0
 10  9  1  0
 10 11  1  6
 11 12  1  0
 12 20  1  0
 12 13  2  0
 13 14  1  0
 15 14  1  0
 15 16  2  0
 17 16  1  0
 18 17  2  0
 19 18  1  0
 19 20  2  0
 20 15  1  0
 21 22  2  0
 21 10  1  0
 23 21  1  0
 24 23  1  0
 25 24  1  0
 26 25  2  0
 27 25  1  0
M  END
$$$$
