LWG.pdb
     RDKit          3D

 27 28  0  0  1  0  0  0  0  0999 V2000
   31.0837  -24.2369  -19.0560 C   0  0  0  0  0  0  0  0  0  0  0  0
   30.0084  -23.1405  -18.9796 C   0  0  1  0  0  0  0  0  0  0  0  0
   28.8968  -23.5354  -19.9512 C   0  0  0  0  0  0  0  0  0  0  0  0
   29.4767  -23.1086  -17.5847 C   0  0  0  0  0  0  0  0  0  0  0  0
   28.3541  -22.1079  -17.3757 C   0  0  2  0  0  0  0  0  0  0  0  0
   28.9277  -20.7764  -17.5255 N   0  0  0  0  0  0  0  0  0  0  0  0
   27.8398  -22.2515  -15.9842 C   0  0  0  0  0  0  0  0  0  0  0  0
   28.1504  -23.2788  -15.3525 O   0  0  0  0  0  0  0  0  0  0  0  0
   27.0273  -21.2434  -15.4027 N   0  0  0  0  0  0  0  0  0  0  0  0
   26.4632  -21.1797  -14.1126 C   0  0  1  0  0  0  0  0  0  0  0  0
   26.9498  -20.0376  -13.2273 C   0  0  0  0  0  0  0  0  0  0  0  0
   26.6537  -20.2666  -11.7992 C   0  0  0  0  0  0  0  0  0  0  0  0
   25.4421  -20.0904  -11.1895 C   0  0  0  0  0  0  0  0  0  0  0  0
   25.6174  -20.3771   -9.8792 N   0  0  0  0  0  0  0  0  0  0  0  0
   26.8937  -20.7271   -9.6411 C   0  0  0  0  0  0  0  0  0  0  0  0
   27.5570  -21.1028   -8.4650 C   0  0  0  0  0  0  0  0  0  0  0  0
   28.8986  -21.4160   -8.4881 C   0  0  0  0  0  0  0  0  0  0  0  0
   29.5506  -21.3464   -9.6972 C   0  0  0  0  0  0  0  0  0  0  0  0
   28.9046  -20.9791  -10.8533 C   0  0  0  0  0  0  0  0  0  0  0  0
   27.5540  -20.6597  -10.8482 C   0  0  0  0  0  0  0  0  0  0  0  0
   25.0132  -21.3897  -14.0043 C   0  0  0  0  0  0  0  0  0  0  0  0
   24.1700  -20.7833  -14.6974 O   0  0  0  0  0  0  0  0  0  0  0  0
   24.5119  -22.3380  -13.0631 N   0  0  0  0  0  0  0  0  0  0  0  0
   23.1177  -22.7453  -13.0604 C   0  0  0  0  0  0  0  0  0  0  0  0
   22.3039  -21.6760  -12.4358 C   0  0  0  0  0  0  0  0  0  0  0  0
   22.7940  -20.6575  -11.8891 O   0  0  0  0  0  0  0  0  0  0  0  0
   20.9055  -21.7798  -12.4393 O   0  0  0  0  0  0  0  0  0  0  0  0
  2  4  1  0
  2  1  1  1
  3  2  1  0
  5  4  1  0
  5  6  1  1
  7  5  1  0
  8  7  2  0
  9  7  1  0
 10  9  1  0
 10 11  1  6
 11 12  1  0
 12 20  1  0
 12 13  2  0
 13 14  1  0
 15 14  1  0
 15 16  2  0
 17 16  1  0
 18 17  2  0
 19 18  1  0
 19 20  2  0
 20 15  1  0
 21 22  2  0
 21 10  1  0
 23 21  1  0
 24 23  1  0
 25 24  1  0
 26 25  2  0
 27 25  1  0
M  END
$$$$
