LWG.pdb
     RDKit          3D

 27 28  0  0  1  0  0  0  0  0999 V2000
   29.1076  -15.4819  -16.0543 C   0  0  0  0  0  0  0  0  0  0  0  0
   27.6915  -16.0046  -15.7615 C   0  0  1  0  0  0  0  0  0  0  0  0
   26.9775  -16.1398  -17.1059 C   0  0  0  0  0  0  0  0  0  0  0  0
   27.8162  -17.3449  -15.1152 C   0  0  0  0  0  0  0  0  0  0  0  0
   26.4858  -18.0238  -14.8424 C   0  0  2  0  0  0  0  0  0  0  0  0
   25.8388  -17.2900  -13.7621 N   0  0  0  0  0  0  0  0  0  0  0  0
   26.7467  -19.4173  -14.3827 C   0  0  0  0  0  0  0  0  0  0  0  0
   27.3310  -20.1885  -15.1667 O   0  0  0  0  0  0  0  0  0  0  0  0
   26.3441  -19.8428  -13.0899 N   0  0  0  0  0  0  0  0  0  0  0  0
   26.3310  -21.1388  -12.5360 C   0  0  1  0  0  0  0  0  0  0  0  0
   27.2726  -21.3712  -11.3594 C   0  0  0  0  0  0  0  0  0  0  0  0
   26.7880  -20.7385  -10.1167 C   0  0  0  0  0  0  0  0  0  0  0  0
   25.5250  -20.2629   -9.8946 C   0  0  0  0  0  0  0  0  0  0  0  0
   25.5178  -19.7375   -8.6480 N   0  0  0  0  0  0  0  0  0  0  0  0
   26.7287  -19.8643   -8.0772 C   0  0  0  0  0  0  0  0  0  0  0  0
   27.2152  -19.4808   -6.8201 C   0  0  0  0  0  0  0  0  0  0  0  0
   28.5254  -19.7273   -6.4722 C   0  0  0  0  0  0  0  0  0  0  0  0
   29.3247  -20.3577   -7.3971 C   0  0  0  0  0  0  0  0  0  0  0  0
   28.8522  -20.7362   -8.6309 C   0  0  0  0  0  0  0  0  0  0  0  0
   27.5358  -20.4952   -8.9982 C   0  0  0  0  0  0  0  0  0  0  0  0
   25.0187  -21.7668  -12.3318 C   0  0  0  0  0  0  0  0  0  0  0  0
   24.8631  -22.9143  -11.8648 O   0  0  0  0  0  0  0  0  0  0  0  0
   23.8364  -21.0452  -12.6755 N   0  0  0  0  0  0  0  0  0  0  0  0
   22.5147  -21.6242  -12.5097 C   0  0  0  0  0  0  0  0  0  0  0  0
   22.0454  -22.1372  -13.8183 C   0  0  0  0  0  0  0  0  0  0  0  0
   22.7477  -22.1365  -14.8590 O   0  0  0  0  0  0  0  0  0  0  0  0
   20.7485  -22.6585  -13.9319 O   0  0  0  0  0  0  0  0  0  0  0  0
  2  4  1  0
  2  1  1  6
  3  2  1  0
  5  4  1  0
  5  6  1  1
  7  5  1  0
  8  7  2  0
  9  7  1  0
 10  9  1  0
 10 11  1  1
 11 12  1  0
 12 20  1  0
 12 13  2  0
 13 14  1  0
 15 14  1  0
 15 16  2  0
 17 16  1  0
 18 17  2  0
 19 18  1  0
 19 20  2  0
 20 15  1  0
 21 22  2  0
 21 10  1  0
 23 21  1  0
 24 23  1  0
 25 24  1  0
 26 25  2  0
 27 25  1  0
M  END
$$$$
