LWG.pdb
     RDKit          3D

 27 28  0  0  1  0  0  0  0  0999 V2000
   29.8038  -22.9223  -15.9738 C   0  0  0  0  0  0  0  0  0  0  0  0
   28.6882  -21.8678  -15.8853 C   0  0  1  0  0  0  0  0  0  0  0  0
   27.9287  -21.9074  -17.2109 C   0  0  0  0  0  0  0  0  0  0  0  0
   27.7769  -22.2494  -14.7658 C   0  0  0  0  0  0  0  0  0  0  0  0
   26.5780  -21.3315  -14.6067 C   0  0  2  0  0  0  0  0  0  0  0  0
   27.0856  -19.9683  -14.5155 N   0  0  0  0  0  0  0  0  0  0  0  0
   25.8851  -21.6684  -13.3309 C   0  0  0  0  0  0  0  0  0  0  0  0
   25.5506  -22.8536  -13.1462 O   0  0  0  0  0  0  0  0  0  0  0  0
   25.6232  -20.6664  -12.3603 N   0  0  0  0  0  0  0  0  0  0  0  0
   24.8085  -20.7220  -11.2115 C   0  0  1  0  0  0  0  0  0  0  0  0
   25.3621  -20.0365   -9.9671 C   0  0  0  0  0  0  0  0  0  0  0  0
   26.7301  -20.4842   -9.6390 C   0  0  0  0  0  0  0  0  0  0  0  0
   27.5203  -21.2910  -10.4106 C   0  0  0  0  0  0  0  0  0  0  0  0
   28.6729  -21.4792   -9.7280 N   0  0  0  0  0  0  0  0  0  0  0  0
   28.6380  -20.8212   -8.5558 C   0  0  0  0  0  0  0  0  0  0  0  0
   29.5719  -20.7112   -7.5165 C   0  0  0  0  0  0  0  0  0  0  0  0
   29.2857  -19.9632   -6.3953 C   0  0  0  0  0  0  0  0  0  0  0  0
   28.0624  -19.3368   -6.3398 C   0  0  0  0  0  0  0  0  0  0  0  0
   27.1436  -19.4412   -7.3564 C   0  0  0  0  0  0  0  0  0  0  0  0
   27.4148  -20.1908   -8.4924 C   0  0  0  0  0  0  0  0  0  0  0  0
   23.3731  -20.4684  -11.3952 C   0  0  0  0  0  0  0  0  0  0  0  0
   22.8068  -19.4075  -11.0596 O   0  0  0  0  0  0  0  0  0  0  0  0
   22.5557  -21.4743  -11.9923 N   0  0  0  0  0  0  0  0  0  0  0  0
   21.2021  -21.1918  -12.4369 C   0  0  0  0  0  0  0  0  0  0  0  0
   20.2476  -21.6625  -11.4058 C   0  0  0  0  0  0  0  0  0  0  0  0
   20.5967  -22.2217  -10.3373 O   0  0  0  0  0  0  0  0  0  0  0  0
   18.8708  -21.4879  -11.6068 O   0  0  0  0  0  0  0  0  0  0  0  0
  2  4  1  0
  2  1  1  6
  3  2  1  0
  5  4  1  0
  5  6  1  1
  7  5  1  0
  8  7  2  0
  9  7  1  0
 10  9  1  0
 10 11  1  1
 11 12  1  0
 12 20  1  0
 12 13  2  0
 13 14  1  0
 15 14  1  0
 15 16  2  0
 17 16  1  0
 18 17  2  0
 19 18  1  0
 19 20  2  0
 20 15  1  0
 21 22  2  0
 21 10  1  0
 23 21  1  0
 24 23  1  0
 25 24  1  0
 26 25  2  0
 27 25  1  0
M  END
$$$$
