AWM.pdb
     RDKit          3D

 28 29  0  0  1  0  0  0  0  0999 V2000
   27.5357  -21.8605  -16.7130 C   0  0  0  0  0  0  0  0  0  0  0  0
   27.4205  -22.6786  -15.4444 C   0  0  2  0  0  0  0  0  0  0  0  0
   26.3675  -23.6392  -15.6106 N   0  0  0  0  0  0  0  0  0  0  0  0
   27.1625  -21.7225  -14.3306 C   0  0  0  0  0  0  0  0  0  0  0  0
   28.0486  -20.8748  -14.0955 O   0  0  0  0  0  0  0  0  0  0  0  0
   25.9923  -21.7354  -13.5535 N   0  0  0  0  0  0  0  0  0  0  0  0
   25.7414  -20.6759  -12.5995 C   0  0  1  0  0  0  0  0  0  0  0  0
   24.3564  -20.0938  -12.7558 C   0  0  0  0  0  0  0  0  0  0  0  0
   24.2957  -19.2618  -13.9867 C   0  0  0  0  0  0  0  0  0  0  0  0
   23.2861  -19.2550  -14.9497 C   0  0  0  0  0  0  0  0  0  0  0  0
   23.6269  -18.3611  -15.8887 N   0  0  0  0  0  0  0  0  0  0  0  0
   24.8000  -17.8070  -15.5625 C   0  0  0  0  0  0  0  0  0  0  0  0
   25.5452  -16.8455  -16.2146 C   0  0  0  0  0  0  0  0  0  0  0  0
   26.7599  -16.4037  -15.6904 C   0  0  0  0  0  0  0  0  0  0  0  0
   27.2100  -16.9421  -14.5061 C   0  0  0  0  0  0  0  0  0  0  0  0
   26.4643  -17.8958  -13.8654 C   0  0  0  0  0  0  0  0  0  0  0  0
   25.2539  -18.3508  -14.3668 C   0  0  0  0  0  0  0  0  0  0  0  0
   25.9968  -21.1584  -11.2181 C   0  0  0  0  0  0  0  0  0  0  0  0
   25.7940  -22.3718  -10.9300 O   0  0  0  0  0  0  0  0  0  0  0  0
   27.9870  -19.5476   -3.7137 C   0  0  0  0  0  0  0  0  0  0  0  0
   27.9586  -18.9872   -5.4466 S   0  0  0  0  0  0  0  0  0  0  0  0
   27.2085  -20.2200   -6.5222 C   0  0  0  0  0  0  0  0  0  0  0  0
   27.2036  -19.7624   -7.9628 C   0  0  0  0  0  0  0  0  0  0  0  0
   26.5122  -20.7895   -8.8276 C   0  0  2  0  0  0  0  0  0  0  0  0
   26.4636  -20.3201  -10.1853 N   0  0  0  0  0  0  0  0  0  0  0  0
   25.1570  -21.1053   -8.3022 C   0  0  0  0  0  0  0  0  0  0  0  0
   25.0525  -21.7702   -7.2251 O   0  0  0  0  0  0  0  0  0  0  0  0
   23.9923  -20.7209   -8.9120 O   0  0  0  0  0  0  0  0  0  0  0  0
  2  1  1  6
  2  3  1  0
  4  2  1  0
  5  4  2  0
  6  4  1  0
  7  6  1  0
  7  8  1  1
  9  8  1  0
  9 17  1  0
 10 11  1  0
 10  9  2  0
 11 12  1  0
 12 17  2  0
 12 13  1  0
 13 14  2  0
 14 15  1  0
 16 15  2  0
 17 16  1  0
 18  7  1  0
 18 19  2  0
 21 20  1  0
 22 21  1  0
 23 22  1  0
 24 23  1  1
 24 25  1  0
 25 18  1  0
 26 24  1  0
 27 26  2  0
 28 26  1  0
M  END
$$$$
