AWM.pdb
     RDKit          3D

 28 29  0  0  1  0  0  0  0  0999 V2000
   25.3334  -19.0886  -16.9489 C   0  0  0  0  0  0  0  0  0  0  0  0
   26.5526  -19.9589  -16.7294 C   0  0  2  0  0  0  0  0  0  0  0  0
   26.4844  -21.0799  -17.6227 N   0  0  0  0  0  0  0  0  0  0  0  0
   26.5496  -20.3603  -15.2941 C   0  0  0  0  0  0  0  0  0  0  0  0
   25.7451  -21.2541  -14.9580 O   0  0  0  0  0  0  0  0  0  0  0  0
   27.3937  -19.7886  -14.3277 N   0  0  0  0  0  0  0  0  0  0  0  0
   27.3260  -20.2301  -12.9507 C   0  0  1  0  0  0  0  0  0  0  0  0
   28.4878  -19.7127  -12.1358 C   0  0  0  0  0  0  0  0  0  0  0  0
   28.5326  -20.4100  -10.8233 C   0  0  0  0  0  0  0  0  0  0  0  0
   28.9198  -21.7287  -10.5830 C   0  0  0  0  0  0  0  0  0  0  0  0
   28.8123  -21.9495   -9.2651 N   0  0  0  0  0  0  0  0  0  0  0  0
   28.3770  -20.8348   -8.6671 C   0  0  0  0  0  0  0  0  0  0  0  0
   28.1164  -20.5794   -7.3359 C   0  0  0  0  0  0  0  0  0  0  0  0
   27.6623  -19.3270   -6.9228 C   0  0  0  0  0  0  0  0  0  0  0  0
   27.4757  -18.3413   -7.8656 C   0  0  0  0  0  0  0  0  0  0  0  0
   27.7368  -18.6031   -9.1844 C   0  0  0  0  0  0  0  0  0  0  0  0
   28.1889  -19.8401   -9.6192 C   0  0  0  0  0  0  0  0  0  0  0  0
   26.0145  -19.8625  -12.3581 C   0  0  0  0  0  0  0  0  0  0  0  0
   25.3838  -18.8619  -12.8024 O   0  0  0  0  0  0  0  0  0  0  0  0
   18.8621  -20.5788  -12.6457 C   0  0  0  0  0  0  0  0  0  0  0  0
   20.5940  -20.9730  -13.0494 S   0  0  0  0  0  0  0  0  0  0  0  0
   21.7024  -20.5027  -11.7115 C   0  0  0  0  0  0  0  0  0  0  0  0
   23.1480  -20.7307  -12.0898 C   0  0  0  0  0  0  0  0  0  0  0  0
   24.0484  -20.3490  -10.9390 C   0  0  2  0  0  0  0  0  0  0  0  0
   25.4190  -20.5833  -11.3030 N   0  0  0  0  0  0  0  0  0  0  0  0
   23.6717  -21.0812   -9.7002 C   0  0  0  0  0  0  0  0  0  0  0  0
   22.6140  -20.7453   -9.0826 O   0  0  0  0  0  0  0  0  0  0  0  0
   24.4013  -22.1122   -9.1702 O   0  0  0  0  0  0  0  0  0  0  0  0
  2  1  1  1
  2  3  1  0
  4  2  1  0
  5  4  2  0
  6  4  1  0
  7  6  1  0
  7  8  1  1
  9  8  1  0
  9 17  1  0
 10 11  1  0
 10  9  2  0
 11 12  1  0
 12 17  2  0
 12 13  1  0
 13 14  2  0
 14 15  1  0
 16 15  2  0
 17 16  1  0
 18  7  1  0
 18 19  2  0
 21 20  1  0
 22 21  1  0
 23 22  1  0
 24 23  1  6
 24 25  1  0
 25 18  1  0
 26 24  1  0
 27 26  2  0
 28 26  1  0
M  END
$$$$
