AWM.pdb
     RDKit          3D

 28 29  0  0  1  0  0  0  0  0999 V2000
   21.8026  -21.5442  -12.4234 C   0  0  0  0  0  0  0  0  0  0  0  0
   21.9115  -21.1703  -10.9604 C   0  0  2  0  0  0  0  0  0  0  0  0
   20.8865  -20.2144  -10.6523 N   0  0  0  0  0  0  0  0  0  0  0  0
   23.2862  -20.6351  -10.7480 C   0  0  0  0  0  0  0  0  0  0  0  0
   23.5590  -19.5443  -11.2911 O   0  0  0  0  0  0  0  0  0  0  0  0
   24.2633  -21.2909   -9.9810 N   0  0  0  0  0  0  0  0  0  0  0  0
   25.5958  -20.7356   -9.8721 C   0  0  1  0  0  0  0  0  0  0  0  0
   26.3439  -21.2956   -8.6855 C   0  0  0  0  0  0  0  0  0  0  0  0
   26.7837  -20.1865   -7.7981 C   0  0  0  0  0  0  0  0  0  0  0  0
   26.5141  -18.8264   -7.9532 C   0  0  0  0  0  0  0  0  0  0  0  0
   27.0966  -18.1784   -6.9345 N   0  0  0  0  0  0  0  0  0  0  0  0
   27.7181  -19.0646   -6.1482 C   0  0  0  0  0  0  0  0  0  0  0  0
   28.4470  -18.8748   -4.9916 C   0  0  0  0  0  0  0  0  0  0  0  0
   29.0180  -19.9556   -4.3198 C   0  0  0  0  0  0  0  0  0  0  0  0
   28.8447  -21.2233   -4.8279 C   0  0  0  0  0  0  0  0  0  0  0  0
   28.1199  -21.4027   -5.9762 C   0  0  0  0  0  0  0  0  0  0  0  0
   27.5428  -20.3441   -6.6616 C   0  0  0  0  0  0  0  0  0  0  0  0
   26.3363  -20.9256  -11.1456 C   0  0  0  0  0  0  0  0  0  0  0  0
   26.3561  -22.0628  -11.6959 O   0  0  0  0  0  0  0  0  0  0  0  0
   26.9901  -15.9664  -15.2286 C   0  0  0  0  0  0  0  0  0  0  0  0
   28.1166  -17.1592  -16.0197 S   0  0  0  0  0  0  0  0  0  0  0  0
   28.0402  -18.7669  -15.2140 C   0  0  0  0  0  0  0  0  0  0  0  0
   27.5357  -18.6467  -13.7943 C   0  0  0  0  0  0  0  0  0  0  0  0
   27.4376  -20.0158  -13.1644 C   0  0  2  0  0  0  0  0  0  0  0  0
   27.0351  -19.8851  -11.7907 N   0  0  0  0  0  0  0  0  0  0  0  0
   28.7196  -20.7583  -13.2973 C   0  0  0  0  0  0  0  0  0  0  0  0
   29.6435  -20.5504  -12.4510 O   0  0  0  0  0  0  0  0  0  0  0  0
   28.9766  -21.6679  -14.2886 O   0  0  0  0  0  0  0  0  0  0  0  0
  2  1  1  6
  2  3  1  0
  4  2  1  0
  5  4  2  0
  6  4  1  0
  7  6  1  0
  7  8  1  1
  9  8  1  0
  9 17  1  0
 10 11  1  0
 10  9  2  0
 11 12  1  0
 12 17  2  0
 12 13  1  0
 13 14  2  0
 14 15  1  0
 16 15  2  0
 17 16  1  0
 18  7  1  0
 18 19  2  0
 21 20  1  0
 22 21  1  0
 23 22  1  0
 24 23  1  1
 24 25  1  0
 25 18  1  0
 26 24  1  0
 27 26  2  0
 28 26  1  0
M  END
$$$$
