AWM.pdb
     RDKit          3D

 28 29  0  0  1  0  0  0  0  0999 V2000
   24.6756  -19.5225  -13.9263 C   0  0  0  0  0  0  0  0  0  0  0  0
   25.7826  -20.1507  -13.1065 C   0  0  2  0  0  0  0  0  0  0  0  0
   26.4767  -21.1037  -13.9246 N   0  0  0  0  0  0  0  0  0  0  0  0
   25.1429  -20.7696  -11.9112 C   0  0  0  0  0  0  0  0  0  0  0  0
   24.6066  -21.8860  -12.0705 O   0  0  0  0  0  0  0  0  0  0  0  0
   25.1190  -20.1639  -10.6440 N   0  0  0  0  0  0  0  0  0  0  0  0
   24.4852  -20.8353   -9.5290 C   0  0  1  0  0  0  0  0  0  0  0  0
   25.0917  -20.4272   -8.2073 C   0  0  0  0  0  0  0  0  0  0  0  0
   26.5658  -20.6175   -8.2494 C   0  0  0  0  0  0  0  0  0  0  0  0
   27.3012  -21.2855   -9.2291 C   0  0  0  0  0  0  0  0  0  0  0  0
   28.5939  -21.2218   -8.8802 N   0  0  0  0  0  0  0  0  0  0  0  0
   28.7058  -20.5472   -7.7304 C   0  0  0  0  0  0  0  0  0  0  0  0
   29.8247  -20.2284   -6.9877 C   0  0  0  0  0  0  0  0  0  0  0  0
   29.7135  -19.5059   -5.7998 C   0  0  0  0  0  0  0  0  0  0  0  0
   28.4652  -19.1115   -5.3738 C   0  0  0  0  0  0  0  0  0  0  0  0
   27.3601  -19.4320   -6.1169 C   0  0  0  0  0  0  0  0  0  0  0  0
   27.4454  -20.1492   -7.3009 C   0  0  0  0  0  0  0  0  0  0  0  0
   23.0165  -20.6164   -9.5662 C   0  0  0  0  0  0  0  0  0  0  0  0
   22.5247  -19.8006  -10.3964 O   0  0  0  0  0  0  0  0  0  0  0  0
   17.6804  -22.9095  -12.7418 C   0  0  0  0  0  0  0  0  0  0  0  0
   19.2241  -22.2490  -12.0358 S   0  0  0  0  0  0  0  0  0  0  0  0
   19.9848  -23.4258  -10.9062 C   0  0  0  0  0  0  0  0  0  0  0  0
   21.2518  -22.8663  -10.3009 C   0  0  0  0  0  0  0  0  0  0  0  0
   20.9098  -21.8655   -9.2229 C   0  0  2  0  0  0  0  0  0  0  0  0
   22.1183  -21.2823   -8.7077 N   0  0  0  0  0  0  0  0  0  0  0  0
   20.0968  -22.4947   -8.1479 C   0  0  0  0  0  0  0  0  0  0  0  0
   18.8549  -22.2369   -8.0827 O   0  0  0  0  0  0  0  0  0  0  0  0
   20.6054  -23.3493   -7.2061 O   0  0  0  0  0  0  0  0  0  0  0  0
  2  1  1  6
  2  3  1  0
  4  2  1  0
  5  4  2  0
  6  4  1  0
  7  6  1  0
  7  8  1  1
  9  8  1  0
  9 17  1  0
 10 11  1  0
 10  9  2  0
 11 12  1  0
 12 17  2  0
 12 13  1  0
 13 14  2  0
 14 15  1  0
 16 15  2  0
 17 16  1  0
 18  7  1  0
 18 19  2  0
 21 20  1  0
 22 21  1  0
 23 22  1  0
 24 23  1  6
 24 25  1  0
 25 18  1  0
 26 24  1  0
 27 26  2  0
 28 26  1  0
M  END
$$$$
