AWM.pdb
     RDKit          3D

 28 29  0  0  1  0  0  0  0  0999 V2000
   28.9417  -21.7101  -14.9826 C   0  0  0  0  0  0  0  0  0  0  0  0
   27.6845  -20.8688  -15.0436 C   0  0  2  0  0  0  0  0  0  0  0  0
   28.0528  -19.4845  -14.9573 N   0  0  0  0  0  0  0  0  0  0  0  0
   26.8110  -21.3076  -13.9186 C   0  0  0  0  0  0  0  0  0  0  0  0
   26.4308  -22.4969  -13.9278 O   0  0  0  0  0  0  0  0  0  0  0  0
   26.4076  -20.4592  -12.8742 N   0  0  0  0  0  0  0  0  0  0  0  0
   25.4671  -20.9282  -11.8786 C   0  0  1  0  0  0  0  0  0  0  0  0
   25.6515  -20.2252  -10.5545 C   0  0  0  0  0  0  0  0  0  0  0  0
   26.9226  -20.6673   -9.9222 C   0  0  0  0  0  0  0  0  0  0  0  0
   27.9027  -21.4860  -10.4842 C   0  0  0  0  0  0  0  0  0  0  0  0
   28.8782  -21.6330   -9.5765 N   0  0  0  0  0  0  0  0  0  0  0  0
   28.5585  -20.9471   -8.4733 C   0  0  0  0  0  0  0  0  0  0  0  0
   29.2438  -20.7991   -7.2843 C   0  0  0  0  0  0  0  0  0  0  0  0
   28.7203  -20.0265   -6.2477 C   0  0  0  0  0  0  0  0  0  0  0  0
   27.5030  -19.4087   -6.4259 C   0  0  0  0  0  0  0  0  0  0  0  0
   26.8297  -19.5607   -7.6090 C   0  0  0  0  0  0  0  0  0  0  0  0
   27.3297  -20.3236   -8.6538 C   0  0  0  0  0  0  0  0  0  0  0  0
   24.0776  -20.8104  -12.3900 C   0  0  0  0  0  0  0  0  0  0  0  0
   23.6382  -19.6845  -12.7586 O   0  0  0  0  0  0  0  0  0  0  0  0
   17.6794  -24.2080  -15.4735 C   0  0  0  0  0  0  0  0  0  0  0  0
   19.2558  -24.4573  -14.5957 S   0  0  0  0  0  0  0  0  0  0  0  0
   19.9147  -22.9011  -13.9766 C   0  0  0  0  0  0  0  0  0  0  0  0
   21.3269  -23.0674  -13.4638 C   0  0  0  0  0  0  0  0  0  0  0  0
   21.8661  -21.7361  -12.9972 C   0  0  2  0  0  0  0  0  0  0  0  0
   23.1999  -21.9090  -12.4900 N   0  0  0  0  0  0  0  0  0  0  0  0
   20.9654  -21.1192  -11.9870 C   0  0  0  0  0  0  0  0  0  0  0  0
   20.1226  -20.2466  -12.3631 O   0  0  0  0  0  0  0  0  0  0  0  0
   20.9830  -21.4336  -10.6540 O   0  0  0  0  0  0  0  0  0  0  0  0
  2  1  1  1
  2  3  1  0
  4  2  1  0
  5  4  2  0
  6  4  1  0
  7  6  1  0
  7  8  1  1
  9  8  1  0
  9 17  1  0
 10 11  1  0
 10  9  2  0
 11 12  1  0
 12 17  2  0
 12 13  1  0
 13 14  2  0
 14 15  1  0
 16 15  2  0
 17 16  1  0
 18  7  1  0
 18 19  2  0
 21 20  1  0
 22 21  1  0
 23 22  1  0
 24 23  1  1
 24 25  1  0
 25 18  1  0
 26 24  1  0
 27 26  2  0
 28 26  1  0
M  END
$$$$
