AWM.pdb
     RDKit          3D

 28 29  0  0  1  0  0  0  0  0999 V2000
   21.0091  -19.2547  -19.8897 C   0  0  0  0  0  0  0  0  0  0  0  0
   22.3315  -19.0443  -19.1833 C   0  0  2  0  0  0  0  0  0  0  0  0
   23.3827  -19.5631  -20.0110 N   0  0  0  0  0  0  0  0  0  0  0  0
   22.2370  -19.7342  -17.8657 C   0  0  0  0  0  0  0  0  0  0  0  0
   22.1149  -20.9768  -17.8848 O   0  0  0  0  0  0  0  0  0  0  0  0
   22.2787  -19.0610  -16.6335 N   0  0  0  0  0  0  0  0  0  0  0  0
   22.1798  -19.8042  -15.3952 C   0  0  1  0  0  0  0  0  0  0  0  0
   22.8258  -19.0695  -14.2444 C   0  0  0  0  0  0  0  0  0  0  0  0
   22.8915  -19.9572  -13.0534 C   0  0  0  0  0  0  0  0  0  0  0  0
   23.7557  -21.0339  -12.8521 C   0  0  0  0  0  0  0  0  0  0  0  0
   23.4787  -21.5574  -11.6495 N   0  0  0  0  0  0  0  0  0  0  0  0
   22.4838  -20.8624  -11.0866 C   0  0  0  0  0  0  0  0  0  0  0  0
   21.8618  -21.0239   -9.8650 C   0  0  0  0  0  0  0  0  0  0  0  0
   20.8294  -20.1735   -9.4693 C   0  0  0  0  0  0  0  0  0  0  0  0
   20.4353  -19.1637  -10.3180 C   0  0  0  0  0  0  0  0  0  0  0  0
   21.0578  -19.0105  -11.5284 C   0  0  0  0  0  0  0  0  0  0  0  0
   22.0863  -19.8432  -11.9437 C   0  0  0  0  0  0  0  0  0  0  0  0
   20.7626  -20.1513  -15.1172 C   0  0  0  0  0  0  0  0  0  0  0  0
   19.8593  -19.2847  -15.2886 O   0  0  0  0  0  0  0  0  0  0  0  0
   16.8322  -24.1153  -17.5530 C   0  0  0  0  0  0  0  0  0  0  0  0
   16.1895  -24.1965  -15.8507 S   0  0  0  0  0  0  0  0  0  0  0  0
   16.9432  -22.9407  -14.8046 C   0  0  0  0  0  0  0  0  0  0  0  0
   18.3918  -22.7156  -15.1731 C   0  0  0  0  0  0  0  0  0  0  0  0
   18.9944  -21.6615  -14.2750 C   0  0  2  0  0  0  0  0  0  0  0  0
   20.3579  -21.4227  -14.6621 N   0  0  0  0  0  0  0  0  0  0  0  0
   18.8856  -22.0528  -12.8441 C   0  0  0  0  0  0  0  0  0  0  0  0
   17.9832  -21.5207  -12.1260 O   0  0  0  0  0  0  0  0  0  0  0  0
   19.7074  -22.9647  -12.2366 O   0  0  0  0  0  0  0  0  0  0  0  0
  2  1  1  6
  2  3  1  0
  4  2  1  0
  5  4  2  0
  6  4  1  0
  7  6  1  0
  7  8  1  1
  9  8  1  0
  9 17  1  0
 10 11  1  0
 10  9  2  0
 11 12  1  0
 12 17  2  0
 12 13  1  0
 13 14  2  0
 14 15  1  0
 16 15  2  0
 17 16  1  0
 18  7  1  0
 18 19  2  0
 21 20  1  0
 22 21  1  0
 23 22  1  0
 24 23  1  6
 24 25  1  0
 25 18  1  0
 26 24  1  0
 27 26  2  0
 28 26  1  0
M  END
$$$$
