AWM.pdb
     RDKit          3D

 28 29  0  0  1  0  0  0  0  0999 V2000
   28.0984  -19.5090  -14.2264 C   0  0  0  0  0  0  0  0  0  0  0  0
   28.6896  -20.1258  -12.9766 C   0  0  2  0  0  0  0  0  0  0  0  0
   29.6484  -21.1207  -13.3640 N   0  0  0  0  0  0  0  0  0  0  0  0
   27.5559  -20.6886  -12.1896 C   0  0  0  0  0  0  0  0  0  0  0  0
   27.3500  -21.9159  -12.2918 O   0  0  0  0  0  0  0  0  0  0  0  0
   26.7300  -19.9143  -11.3580 N   0  0  0  0  0  0  0  0  0  0  0  0
   25.6296  -20.5315  -10.6482 C   0  0  1  0  0  0  0  0  0  0  0  0
   25.2568  -19.7583   -9.4054 C   0  0  0  0  0  0  0  0  0  0  0  0
   26.4588  -19.5679   -8.5510 C   0  0  0  0  0  0  0  0  0  0  0  0
   27.5314  -18.7072   -8.7861 C   0  0  0  0  0  0  0  0  0  0  0  0
   28.3952  -18.8485   -7.7707 N   0  0  0  0  0  0  0  0  0  0  0  0
   27.9175  -19.7550   -6.9106 C   0  0  0  0  0  0  0  0  0  0  0  0
   28.4475  -20.2292   -5.7277 C   0  0  0  0  0  0  0  0  0  0  0  0
   27.7721  -21.1899   -4.9749 C   0  0  0  0  0  0  0  0  0  0  0  0
   26.5617  -21.6628   -5.4292 C   0  0  0  0  0  0  0  0  0  0  0  0
   26.0429  -21.1868   -6.6041 C   0  0  0  0  0  0  0  0  0  0  0  0
   26.6956  -20.2320   -7.3697 C   0  0  0  0  0  0  0  0  0  0  0  0
   24.4732  -20.7223  -11.5607 C   0  0  0  0  0  0  0  0  0  0  0  0
   24.1860  -19.8272  -12.4049 O   0  0  0  0  0  0  0  0  0  0  0  0
   21.5179  -26.3446  -13.2335 C   0  0  0  0  0  0  0  0  0  0  0  0
   20.1402  -25.1594  -13.3551 S   0  0  0  0  0  0  0  0  0  0  0  0
   20.7226  -23.4614  -13.2244 C   0  0  0  0  0  0  0  0  0  0  0  0
   21.9778  -23.3739  -12.3870 C   0  0  0  0  0  0  0  0  0  0  0  0
   22.4788  -21.9494  -12.3562 C   0  0  2  0  0  0  0  0  0  0  0  0
   23.6583  -21.8724  -11.5383 N   0  0  0  0  0  0  0  0  0  0  0  0
   21.4173  -21.0197  -11.8860 C   0  0  0  0  0  0  0  0  0  0  0  0
   20.7535  -20.3574  -12.7427 O   0  0  0  0  0  0  0  0  0  0  0  0
   21.1008  -20.8253  -10.5676 O   0  0  0  0  0  0  0  0  0  0  0  0
  2  1  1  6
  2  3  1  0
  4  2  1  0
  5  4  2  0
  6  4  1  0
  7  6  1  0
  7  8  1  1
  9  8  1  0
  9 17  1  0
 10 11  1  0
 10  9  2  0
 11 12  1  0
 12 17  2  0
 12 13  1  0
 13 14  2  0
 14 15  1  0
 16 15  2  0
 17 16  1  0
 18  7  1  0
 18 19  2  0
 21 20  1  0
 22 21  1  0
 23 22  1  0
 24 23  1  1
 24 25  1  0
 25 18  1  0
 26 24  1  0
 27 26  2  0
 28 26  1  0
M  END
$$$$
