AWM.pdb
     RDKit          3D

 28 29  0  0  1  0  0  0  0  0999 V2000
   23.2217  -24.6253  -14.6632 C   0  0  0  0  0  0  0  0  0  0  0  0
   24.5379  -23.9273  -14.9325 C   0  0  2  0  0  0  0  0  0  0  0  0
   25.5896  -24.9033  -14.9079 N   0  0  0  0  0  0  0  0  0  0  0  0
   24.6968  -22.8772  -13.8868 C   0  0  0  0  0  0  0  0  0  0  0  0
   23.8559  -21.9542  -13.8790 O   0  0  0  0  0  0  0  0  0  0  0  0
   25.7282  -22.8831  -12.9332 N   0  0  0  0  0  0  0  0  0  0  0  0
   25.8544  -21.7903  -11.9920 C   0  0  1  0  0  0  0  0  0  0  0  0
   26.6583  -22.1848  -10.7757 C   0  0  0  0  0  0  0  0  0  0  0  0
   26.6228  -21.0889   -9.7713 C   0  0  0  0  0  0  0  0  0  0  0  0
   25.5596  -20.2262   -9.5033 C   0  0  0  0  0  0  0  0  0  0  0  0
   25.9492  -19.3923   -8.5287 N   0  0  0  0  0  0  0  0  0  0  0  0
   27.2040  -19.6893   -8.1722 C   0  0  0  0  0  0  0  0  0  0  0  0
   28.0220  -19.1130   -7.2215 C   0  0  0  0  0  0  0  0  0  0  0  0
   29.3168  -19.5864   -7.0092 C   0  0  0  0  0  0  0  0  0  0  0  0
   29.7725  -20.6430   -7.7649 C   0  0  0  0  0  0  0  0  0  0  0  0
   28.9542  -21.2091   -8.7063 C   0  0  0  0  0  0  0  0  0  0  0  0
   27.6635  -20.7560   -8.9354 C   0  0  0  0  0  0  0  0  0  0  0  0
   26.4103  -20.5912  -12.6699 C   0  0  0  0  0  0  0  0  0  0  0  0
   27.6620  -20.4522  -12.7718 O   0  0  0  0  0  0  0  0  0  0  0  0
   29.1949  -20.4963  -17.2836 C   0  0  0  0  0  0  0  0  0  0  0  0
   27.6217  -19.8158  -17.8995 S   0  0  0  0  0  0  0  0  0  0  0  0
   26.7841  -18.8503  -16.6323 C   0  0  0  0  0  0  0  0  0  0  0  0
   26.8267  -19.5480  -15.2921 C   0  0  0  0  0  0  0  0  0  0  0  0
   26.1083  -18.7174  -14.2554 C   0  0  2  0  0  0  0  0  0  0  0  0
   25.6020  -19.5751  -13.2189 N   0  0  0  0  0  0  0  0  0  0  0  0
   25.0293  -17.9036  -14.8766 C   0  0  0  0  0  0  0  0  0  0  0  0
   25.3451  -16.9588  -15.6644 O   0  0  0  0  0  0  0  0  0  0  0  0
   23.6934  -18.1073  -14.6530 O   0  0  0  0  0  0  0  0  0  0  0  0
  2  1  1  1
  2  3  1  0
  4  2  1  0
  5  4  2  0
  6  4  1  0
  7  6  1  0
  7  8  1  1
  9  8  1  0
  9 17  1  0
 10 11  1  0
 10  9  2  0
 11 12  1  0
 12 17  2  0
 12 13  1  0
 13 14  2  0
 14 15  1  0
 16 15  2  0
 17 16  1  0
 18  7  1  0
 18 19  2  0
 21 20  1  0
 22 21  1  0
 23 22  1  0
 24 23  1  6
 24 25  1  0
 25 18  1  0
 26 24  1  0
 27 26  2  0
 28 26  1  0
M  END
$$$$
