AWM.pdb
     RDKit          3D

 28 29  0  0  1  0  0  0  0  0999 V2000
   25.3364  -24.3035  -17.6496 C   0  0  0  0  0  0  0  0  0  0  0  0
   26.1206  -23.8416  -16.4397 C   0  0  2  0  0  0  0  0  0  0  0  0
   26.9793  -24.9093  -16.0132 N   0  0  0  0  0  0  0  0  0  0  0  0
   25.1277  -23.4460  -15.4011 C   0  0  0  0  0  0  0  0  0  0  0  0
   24.6710  -24.3563  -14.6787 O   0  0  0  0  0  0  0  0  0  0  0  0
   24.6951  -22.1238  -15.2062 N   0  0  0  0  0  0  0  0  0  0  0  0
   23.7620  -21.8133  -14.1439 C   0  0  1  0  0  0  0  0  0  0  0  0
   23.8933  -20.3820  -13.6796 C   0  0  0  0  0  0  0  0  0  0  0  0
   22.9632  -20.1326  -12.5467 C   0  0  0  0  0  0  0  0  0  0  0  0
   22.9754  -20.7497  -11.2954 C   0  0  0  0  0  0  0  0  0  0  0  0
   21.9681  -20.2325  -10.5779 N   0  0  0  0  0  0  0  0  0  0  0  0
   21.3248  -19.3217  -11.3170 C   0  0  0  0  0  0  0  0  0  0  0  0
   20.2340  -18.5330  -11.0115 C   0  0  0  0  0  0  0  0  0  0  0  0
   19.7158  -17.6353  -11.9449 C   0  0  0  0  0  0  0  0  0  0  0  0
   20.3095  -17.5447  -13.1836 C   0  0  0  0  0  0  0  0  0  0  0  0
   21.3916  -18.3310  -13.4786 C   0  0  0  0  0  0  0  0  0  0  0  0
   21.9246  -19.2306  -12.5674 C   0  0  0  0  0  0  0  0  0  0  0  0
   22.3765  -22.1437  -14.5654 C   0  0  0  0  0  0  0  0  0  0  0  0
   21.9925  -21.8609  -15.7355 O   0  0  0  0  0  0  0  0  0  0  0  0
   22.4146  -26.9929  -13.6652 C   0  0  0  0  0  0  0  0  0  0  0  0
   20.7467  -26.9189  -14.3935 S   0  0  0  0  0  0  0  0  0  0  0  0
   20.3741  -25.2705  -15.0126 C   0  0  0  0  0  0  0  0  0  0  0  0
   19.7086  -24.4228  -13.9527 C   0  0  0  0  0  0  0  0  0  0  0  0
   20.0854  -22.9725  -14.1408 C   0  0  2  0  0  0  0  0  0  0  0  0
   21.4430  -22.7695  -13.7144 N   0  0  0  0  0  0  0  0  0  0  0  0
   19.1398  -22.0772  -13.4221 C   0  0  0  0  0  0  0  0  0  0  0  0
   17.9029  -22.1315  -13.7053 O   0  0  0  0  0  0  0  0  0  0  0  0
   19.5188  -21.1814  -12.4577 O   0  0  0  0  0  0  0  0  0  0  0  0
  2  1  1  6
  2  3  1  0
  4  2  1  0
  5  4  2  0
  6  4  1  0
  7  6  1  0
  7  8  1  6
  9  8  1  0
  9 17  1  0
 10 11  1  0
 10  9  2  0
 11 12  1  0
 12 17  2  0
 12 13  1  0
 13 14  2  0
 14 15  1  0
 16 15  2  0
 17 16  1  0
 18  7  1  0
 18 19  2  0
 21 20  1  0
 22 21  1  0
 23 22  1  0
 24 23  1  1
 24 25  1  0
 25 18  1  0
 26 24  1  0
 27 26  2  0
 28 26  1  0
M  END
$$$$
