AWM.pdb
     RDKit          3D

 28 29  0  0  1  0  0  0  0  0999 V2000
   26.9640  -21.2498  -16.8261 C   0  0  0  0  0  0  0  0  0  0  0  0
   27.7325  -21.8289  -15.6573 C   0  0  2  0  0  0  0  0  0  0  0  0
   28.1938  -23.1400  -16.0144 N   0  0  0  0  0  0  0  0  0  0  0  0
   26.8078  -21.8381  -14.4886 C   0  0  0  0  0  0  0  0  0  0  0  0
   26.0931  -22.8512  -14.3401 O   0  0  0  0  0  0  0  0  0  0  0  0
   26.7094  -20.7800  -13.5698 N   0  0  0  0  0  0  0  0  0  0  0  0
   25.7742  -20.8588  -12.4676 C   0  0  1  0  0  0  0  0  0  0  0  0
   26.1620  -19.9398  -11.3333 C   0  0  0  0  0  0  0  0  0  0  0  0
   27.3295  -20.5034  -10.6051 C   0  0  0  0  0  0  0  0  0  0  0  0
   28.3823  -21.2426  -11.1453 C   0  0  0  0  0  0  0  0  0  0  0  0
   29.2169  -21.5525  -10.1431 N   0  0  0  0  0  0  0  0  0  0  0  0
   28.7397  -21.0443   -9.0012 C   0  0  0  0  0  0  0  0  0  0  0  0
   29.2458  -21.1018   -7.7183 C   0  0  0  0  0  0  0  0  0  0  0  0
   28.5764  -20.4931   -6.6567 C   0  0  0  0  0  0  0  0  0  0  0  0
   27.3962  -19.8294   -6.9056 C   0  0  0  0  0  0  0  0  0  0  0  0
   26.9010  -19.7772   -8.1816 C   0  0  0  0  0  0  0  0  0  0  0  0
   27.5484  -20.3745   -9.2530 C   0  0  0  0  0  0  0  0  0  0  0  0
   24.3918  -20.6069  -12.9490 C   0  0  0  0  0  0  0  0  0  0  0  0
   24.2090  -19.9996  -14.0418 O   0  0  0  0  0  0  0  0  0  0  0  0
   21.2206  -22.9219  -17.0709 C   0  0  0  0  0  0  0  0  0  0  0  0
   20.5376  -23.7787  -15.6160 S   0  0  0  0  0  0  0  0  0  0  0  0
   20.6125  -22.7398  -14.1481 C   0  0  0  0  0  0  0  0  0  0  0  0
   22.0007  -22.1781  -13.9426 C   0  0  0  0  0  0  0  0  0  0  0  0
   21.9672  -21.0915  -12.8943 C   0  0  2  0  0  0  0  0  0  0  0  0
   23.2445  -21.0161  -12.2394 N   0  0  0  0  0  0  0  0  0  0  0  0
   20.8610  -21.3171  -11.9259 C   0  0  0  0  0  0  0  0  0  0  0  0
   19.7099  -20.8462  -12.1836 O   0  0  0  0  0  0  0  0  0  0  0  0
   21.0015  -22.0109  -10.7533 O   0  0  0  0  0  0  0  0  0  0  0  0
  2  1  1  6
  2  3  1  0
  4  2  1  0
  5  4  2  0
  6  4  1  0
  7  6  1  0
  7  8  1  1
  9  8  1  0
  9 17  1  0
 10 11  1  0
 10  9  2  0
 11 12  1  0
 12 17  2  0
 12 13  1  0
 13 14  2  0
 14 15  1  0
 16 15  2  0
 17 16  1  0
 18  7  1  0
 18 19  2  0
 21 20  1  0
 22 21  1  0
 23 22  1  0
 24 23  1  6
 24 25  1  0
 25 18  1  0
 26 24  1  0
 27 26  2  0
 28 26  1  0
M  END
$$$$
