AWM.pdb
     RDKit          3D

 28 29  0  0  1  0  0  0  0  0999 V2000
   24.9709  -16.4440  -18.5210 C   0  0  0  0  0  0  0  0  0  0  0  0
   26.2281  -16.7622  -17.7398 C   0  0  2  0  0  0  0  0  0  0  0  0
   27.2633  -17.1287  -18.6636 N   0  0  0  0  0  0  0  0  0  0  0  0
   25.8854  -17.8573  -16.7888 C   0  0  0  0  0  0  0  0  0  0  0  0
   25.2269  -18.8160  -17.2430 O   0  0  0  0  0  0  0  0  0  0  0  0
   26.2634  -17.8553  -15.4358 N   0  0  0  0  0  0  0  0  0  0  0  0
   25.9559  -18.9917  -14.5934 C   0  0  1  0  0  0  0  0  0  0  0  0
   26.8190  -19.0240  -13.3543 C   0  0  0  0  0  0  0  0  0  0  0  0
   26.4916  -20.2266  -12.5435 C   0  0  0  0  0  0  0  0  0  0  0  0
   26.4372  -21.5496  -12.9834 C   0  0  0  0  0  0  0  0  0  0  0  0
   26.1063  -22.3134  -11.9326 N   0  0  0  0  0  0  0  0  0  0  0  0
   25.9504  -21.5352  -10.8557 C   0  0  0  0  0  0  0  0  0  0  0  0
   25.6141  -21.8637   -9.5579 C   0  0  0  0  0  0  0  0  0  0  0  0
   25.5043  -20.8794   -8.5757 C   0  0  0  0  0  0  0  0  0  0  0  0
   25.7371  -19.5667   -8.9186 C   0  0  0  0  0  0  0  0  0  0  0  0
   26.0704  -19.2493  -10.2087 C   0  0  0  0  0  0  0  0  0  0  0  0
   26.1857  -20.2100  -11.2024 C   0  0  0  0  0  0  0  0  0  0  0  0
   24.5062  -19.0136  -14.2707 C   0  0  0  0  0  0  0  0  0  0  0  0
   23.9302  -17.9521  -13.8993 O   0  0  0  0  0  0  0  0  0  0  0  0
   17.2296  -21.2399  -15.6047 C   0  0  0  0  0  0  0  0  0  0  0  0
   19.0008  -21.4609  -15.9675 S   0  0  0  0  0  0  0  0  0  0  0  0
   20.0294  -20.6780  -14.7150 C   0  0  0  0  0  0  0  0  0  0  0  0
   21.4962  -20.7832  -15.0641 C   0  0  0  0  0  0  0  0  0  0  0  0
   22.3319  -20.1542  -13.9747 C   0  0  2  0  0  0  0  0  0  0  0  0
   23.7173  -20.1787  -14.3570 N   0  0  0  0  0  0  0  0  0  0  0  0
   22.1057  -20.8310  -12.6696 C   0  0  0  0  0  0  0  0  0  0  0  0
   22.5961  -21.9873  -12.4812 O   0  0  0  0  0  0  0  0  0  0  0  0
   21.3914  -20.2822  -11.6378 O   0  0  0  0  0  0  0  0  0  0  0  0
  2  1  1  6
  2  3  1  0
  4  2  1  0
  5  4  2  0
  6  4  1  0
  7  6  1  0
  7  8  1  1
  9  8  1  0
  9 17  1  0
 10 11  1  0
 10  9  2  0
 11 12  1  0
 12 17  2  0
 12 13  1  0
 13 14  2  0
 14 15  1  0
 16 15  2  0
 17 16  1  0
 18  7  1  0
 18 19  2  0
 21 20  1  0
 22 21  1  0
 23 22  1  0
 24 23  1  6
 24 25  1  0
 25 18  1  0
 26 24  1  0
 27 26  2  0
 28 26  1  0
M  END
$$$$
