AWM.pdb
     RDKit          3D

 28 29  0  0  1  0  0  0  0  0999 V2000
   23.1124  -22.2135  -14.7815 C   0  0  0  0  0  0  0  0  0  0  0  0
   24.5341  -22.0602  -15.2789 C   0  0  2  0  0  0  0  0  0  0  0  0
   24.8303  -23.1475  -16.1674 N   0  0  0  0  0  0  0  0  0  0  0  0
   25.4163  -22.0362  -14.0779 C   0  0  0  0  0  0  0  0  0  0  0  0
   25.7284  -23.1391  -13.5827 O   0  0  0  0  0  0  0  0  0  0  0  0
   25.8991  -20.8530  -13.4945 N   0  0  0  0  0  0  0  0  0  0  0  0
   26.8213  -20.9155  -12.3804 C   0  0  1  0  0  0  0  0  0  0  0  0
   27.9491  -19.9215  -12.5265 C   0  0  0  0  0  0  0  0  0  0  0  0
   29.1999  -20.6309  -12.9049 C   0  0  0  0  0  0  0  0  0  0  0  0
   29.7361  -20.7678  -14.1857 C   0  0  0  0  0  0  0  0  0  0  0  0
   30.8684  -21.4772  -14.0780 N   0  0  0  0  0  0  0  0  0  0  0  0
   31.0690  -21.7919  -12.7933 C   0  0  0  0  0  0  0  0  0  0  0  0
   32.0895  -22.5056  -12.1979 C   0  0  0  0  0  0  0  0  0  0  0  0
   32.1037  -22.7201  -10.8197 C   0  0  0  0  0  0  0  0  0  0  0  0
   31.0802  -22.2077  -10.0548 C   0  0  0  0  0  0  0  0  0  0  0  0
   30.0714  -21.5007  -10.6537 C   0  0  0  0  0  0  0  0  0  0  0  0
   30.0355  -21.2745  -12.0216 C   0  0  0  0  0  0  0  0  0  0  0  0
   26.0889  -20.7518  -11.0985 C   0  0  0  0  0  0  0  0  0  0  0  0
   25.0596  -20.0205  -11.0533 O   0  0  0  0  0  0  0  0  0  0  0  0
   28.5775  -18.8729   -5.8954 C   0  0  0  0  0  0  0  0  0  0  0  0
   27.0507  -19.5187   -5.1407 S   0  0  0  0  0  0  0  0  0  0  0  0
   25.9616  -20.2401   -6.3788 C   0  0  0  0  0  0  0  0  0  0  0  0
   26.6781  -20.4329   -7.6956 C   0  0  0  0  0  0  0  0  0  0  0  0
   25.7728  -21.1394   -8.6765 C   0  0  2  0  0  0  0  0  0  0  0  0
   26.4860  -21.3806   -9.9010 N   0  0  0  0  0  0  0  0  0  0  0  0
   24.5249  -20.3633   -8.9065 C   0  0  0  0  0  0  0  0  0  0  0  0
   23.5766  -20.4572   -8.0668 O   0  0  0  0  0  0  0  0  0  0  0  0
   24.3248  -19.5390   -9.9819 O   0  0  0  0  0  0  0  0  0  0  0  0
  2  1  1  1
  2  3  1  0
  4  2  1  0
  5  4  2  0
  6  4  1  0
  7  6  1  0
  7  8  1  6
  9  8  1  0
  9 17  1  0
 10 11  1  0
 10  9  2  0
 11 12  1  0
 12 17  2  0
 12 13  1  0
 13 14  2  0
 14 15  1  0
 16 15  2  0
 17 16  1  0
 18  7  1  0
 18 19  2  0
 21 20  1  0
 22 21  1  0
 23 22  1  0
 24 23  1  1
 24 25  1  0
 25 18  1  0
 26 24  1  0
 27 26  2  0
 28 26  1  0
M  END
$$$$
