AWM.pdb
     RDKit          3D

 28 29  0  0  1  0  0  0  0  0999 V2000
   27.3404  -20.3990  -17.1539 C   0  0  0  0  0  0  0  0  0  0  0  0
   25.9555  -19.9029  -16.7959 C   0  0  2  0  0  0  0  0  0  0  0  0
   25.9640  -18.4679  -16.8066 N   0  0  0  0  0  0  0  0  0  0  0  0
   25.6207  -20.4707  -15.4592 C   0  0  0  0  0  0  0  0  0  0  0  0
   25.5863  -21.7153  -15.3654 O   0  0  0  0  0  0  0  0  0  0  0  0
   25.3490  -19.6827  -14.3285 N   0  0  0  0  0  0  0  0  0  0  0  0
   24.9914  -20.3103  -13.0739 C   0  0  1  0  0  0  0  0  0  0  0  0
   25.5079  -19.5314  -11.8873 C   0  0  0  0  0  0  0  0  0  0  0  0
   26.2546  -20.4383  -10.9758 C   0  0  0  0  0  0  0  0  0  0  0  0
   26.8763  -21.6422  -11.3089 C   0  0  0  0  0  0  0  0  0  0  0  0
   27.4308  -22.1352  -10.1925 N   0  0  0  0  0  0  0  0  0  0  0  0
   27.1878  -21.3003   -9.1758 C   0  0  0  0  0  0  0  0  0  0  0  0
   27.5533  -21.3814   -7.8473 C   0  0  0  0  0  0  0  0  0  0  0  0
   27.1891  -20.3843   -6.9424 C   0  0  0  0  0  0  0  0  0  0  0  0
   26.4553  -19.3104   -7.3936 C   0  0  0  0  0  0  0  0  0  0  0  0
   26.0968  -19.2378   -8.7136 C   0  0  0  0  0  0  0  0  0  0  0  0
   26.4471  -20.2164   -9.6318 C   0  0  0  0  0  0  0  0  0  0  0  0
   23.5234  -20.5275  -13.0091 C   0  0  0  0  0  0  0  0  0  0  0  0
   22.7369  -19.6148  -13.3897 O   0  0  0  0  0  0  0  0  0  0  0  0
   19.1563  -24.5697   -8.9588 C   0  0  0  0  0  0  0  0  0  0  0  0
   19.2376  -24.8185  -10.7613 S   0  0  0  0  0  0  0  0  0  0  0  0
   19.6797  -23.2963  -11.6141 C   0  0  0  0  0  0  0  0  0  0  0  0
   21.1791  -23.1139  -11.6711 C   0  0  0  0  0  0  0  0  0  0  0  0
   21.5162  -21.8473  -12.4214 C   0  0  2  0  0  0  0  0  0  0  0  0
   22.9436  -21.7221  -12.5360 N   0  0  0  0  0  0  0  0  0  0  0  0
   20.9073  -20.6594  -11.7652 C   0  0  0  0  0  0  0  0  0  0  0  0
   19.8998  -20.1055  -12.3048 O   0  0  0  0  0  0  0  0  0  0  0  0
   21.3674  -20.1119  -10.5971 O   0  0  0  0  0  0  0  0  0  0  0  0
  2  1  1  1
  2  3  1  0
  4  2  1  0
  5  4  2  0
  6  4  1  0
  7  6  1  0
  7  8  1  1
  9  8  1  0
  9 17  1  0
 10 11  1  0
 10  9  2  0
 11 12  1  0
 12 17  2  0
 12 13  1  0
 13 14  2  0
 14 15  1  0
 16 15  2  0
 17 16  1  0
 18  7  1  0
 18 19  2  0
 21 20  1  0
 22 21  1  0
 23 22  1  0
 24 23  1  1
 24 25  1  0
 25 18  1  0
 26 24  1  0
 27 26  2  0
 28 26  1  0
M  END
$$$$
