AWM.pdb
     RDKit          3D

 28 29  0  0  1  0  0  0  0  0999 V2000
   12.5867  -16.6222    5.3605 C   0  0  0  0  0  0  0  0  0  0  0  0
   13.3669  -17.6175    6.1928 C   0  0  2  0  0  0  0  0  0  0  0  0
   13.7332  -16.9938    7.4321 N   0  0  0  0  0  0  0  0  0  0  0  0
   14.5464  -18.0341    5.3826 C   0  0  0  0  0  0  0  0  0  0  0  0
   14.8473  -19.2458    5.4024 O   0  0  0  0  0  0  0  0  0  0  0  0
   15.3145  -17.1418    4.6164 N   0  0  0  0  0  0  0  0  0  0  0  0
   16.4515  -17.6243    3.8614 C   0  0  1  0  0  0  0  0  0  0  0  0
   16.6645  -16.8297    2.5947 C   0  0  0  0  0  0  0  0  0  0  0  0
   17.7372  -17.4588    1.7797 C   0  0  0  0  0  0  0  0  0  0  0  0
   17.6961  -18.7029    1.1493 C   0  0  0  0  0  0  0  0  0  0  0  0
   18.8688  -18.8803    0.5246 N   0  0  0  0  0  0  0  0  0  0  0  0
   19.6433  -17.8094    0.7319 C   0  0  0  0  0  0  0  0  0  0  0  0
   20.9233  -17.5352    0.2940 C   0  0  0  0  0  0  0  0  0  0  0  0
   21.5545  -16.3381    0.6320 C   0  0  0  0  0  0  0  0  0  0  0  0
   20.8806  -15.4267    1.4133 C   0  0  0  0  0  0  0  0  0  0  0  0
   19.6108  -15.7067    1.8436 C   0  0  0  0  0  0  0  0  0  0  0  0
   18.9626  -16.8896    1.5206 C   0  0  0  0  0  0  0  0  0  0  0  0
   17.6633  -17.6510    4.7199 C   0  0  0  0  0  0  0  0  0  0  0  0
   17.9081  -16.6794    5.4897 O   0  0  0  0  0  0  0  0  0  0  0  0
   22.3364  -16.2057    9.6588 C   0  0  0  0  0  0  0  0  0  0  0  0
   21.0983  -16.0543    8.3315 S   0  0  0  0  0  0  0  0  0  0  0  0
   20.8369  -17.6270    7.4962 C   0  0  0  0  0  0  0  0  0  0  0  0
   19.7863  -17.5076    6.4161 C   0  0  0  0  0  0  0  0  0  0  0  0
   19.5443  -18.8562    5.7809 C   0  0  2  0  0  0  0  0  0  0  0  0
   18.5778  -18.7238    4.7252 N   0  0  0  0  0  0  0  0  0  0  0  0
   19.1209  -19.8570    6.7966 C   0  0  0  0  0  0  0  0  0  0  0  0
   17.9056  -20.2244    6.8314 O   0  0  0  0  0  0  0  0  0  0  0  0
   19.9679  -20.4200    7.7140 O   0  0  0  0  0  0  0  0  0  0  0  0
  2  1  1  6
  2  3  1  0
  4  2  1  0
  5  4  2  0
  6  4  1  0
  7  6  1  0
  7  8  1  6
  9  8  1  0
  9 17  1  0
 10 11  1  0
 10  9  2  0
 11 12  1  0
 12 17  2  0
 12 13  1  0
 13 14  2  0
 14 15  1  0
 16 15  2  0
 17 16  1  0
 18  7  1  0
 18 19  2  0
 21 20  1  0
 22 21  1  0
 23 22  1  0
 24 23  1  1
 24 25  1  0
 25 18  1  0
 26 24  1  0
 27 26  2  0
 28 26  1  0
M  END
$$$$
