HLP.pdb
     RDKit          3D

 26 27  0  0  1  0  0  0  0  0999 V2000
   10.7295  -15.9026   20.7560 N   0  0  0  0  0  0  0  0  0  0  0  0
    9.5309  -16.2599   21.4747 C   0  0  1  0  0  0  0  0  0  0  0  0
    9.4105  -17.7296   21.7300 C   0  0  0  0  0  0  0  0  0  0  0  0
    9.1929  -18.5150   20.4918 C   0  0  0  0  0  0  0  0  0  0  0  0
    8.0328  -18.7937   19.8164 C   0  0  0  0  0  0  0  0  0  0  0  0
    8.3237  -19.5460   18.7392 N   0  0  0  0  0  0  0  0  0  0  0  0
    9.6688  -19.7346   18.7465 C   0  0  0  0  0  0  0  0  0  0  0  0
   10.1988  -19.1030   19.8196 N   0  0  0  0  0  0  0  0  0  0  0  0
    9.5555  -15.5745   22.7983 C   0  0  0  0  0  0  0  0  0  0  0  0
   10.6478  -15.4304   23.3673 O   0  0  0  0  0  0  0  0  0  0  0  0
    7.6447  -11.5588   26.1944 C   0  0  0  0  0  0  0  0  0  0  0  0
    6.9826  -12.8945   26.1520 C   0  0  1  0  0  0  0  0  0  0  0  0
    5.5356  -12.7077   26.6137 C   0  0  0  0  0  0  0  0  0  0  0  0
    7.0430  -13.6250   24.8554 C   0  0  0  0  0  0  0  0  0  0  0  0
    8.3011  -14.4397   24.6709 C   0  0  2  0  0  0  0  0  0  0  0  0
    8.3762  -15.0812   23.4306 N   0  0  0  0  0  0  0  0  0  0  0  0
    8.6525  -15.1864   25.8919 C   0  0  0  0  0  0  0  0  0  0  0  0
    7.8073  -16.1506   26.1158 O   0  0  0  0  0  0  0  0  0  0  0  0
    9.7264  -14.9691   26.7578 N   0  0  0  0  0  0  0  0  0  0  0  0
   10.7487  -13.9514   26.6157 C   0  0  0  0  0  0  0  0  0  0  0  0
   10.9257  -13.4643   28.0674 C   0  0  0  0  0  0  0  0  0  0  0  0
   10.1241  -14.4519   28.9234 C   0  0  0  0  0  0  0  0  0  0  0  0
   10.1556  -15.6370   27.9485 C   0  0  1  0  0  0  0  0  0  0  0  0
    9.5843  -16.8452   28.4071 C   0  0  0  0  0  0  0  0  0  0  0  0
    8.7652  -17.6472   27.9348 O   0  0  0  0  0  0  0  0  0  0  0  0
   10.0319  -17.2564   29.6967 O   0  0  0  0  0  0  0  0  0  0  0  0
  2  9  1  0
  2  3  1  0
  2  1  1  1
  4  8  1  0
  4  3  1  0
  5  4  2  0
  6  5  1  0
  6  7  1  0
  7  8  2  0
  9 10  2  0
 12 11  1  6
 13 12  1  0
 14 12  1  0
 15 14  1  1
 16 15  1  0
 16  9  1  0
 17 18  2  0
 17 15  1  0
 19 17  1  0
 20 19  1  0
 21 20  1  0
 22 21  1  0
 22 23  1  0
 23 19  1  0
 23 24  1  1
 24 26  1  0
 25 24  2  0
M  END
$$$$
