HLP.pdb
     RDKit          3D

 26 27  0  0  1  0  0  0  0  0999 V2000
    9.9648  -15.7670   20.7177 N   0  0  0  0  0  0  0  0  0  0  0  0
    9.1952  -16.4267   21.7438 C   0  0  1  0  0  0  0  0  0  0  0  0
    9.6551  -17.8234   22.0220 C   0  0  0  0  0  0  0  0  0  0  0  0
    9.4467  -18.7393   20.8751 C   0  0  0  0  0  0  0  0  0  0  0  0
    8.2969  -19.0624   20.2019 C   0  0  0  0  0  0  0  0  0  0  0  0
    8.5934  -19.9406   19.2263 N   0  0  0  0  0  0  0  0  0  0  0  0
    9.9317  -20.1629   19.2946 C   0  0  0  0  0  0  0  0  0  0  0  0
   10.4519  -19.4270   20.3041 N   0  0  0  0  0  0  0  0  0  0  0  0
    9.3332  -15.6482   23.0076 C   0  0  0  0  0  0  0  0  0  0  0  0
   10.4653  -15.2748   23.3493 O   0  0  0  0  0  0  0  0  0  0  0  0
    7.3060  -11.8574   24.8729 C   0  0  0  0  0  0  0  0  0  0  0  0
    6.9991  -12.8100   25.9786 C   0  0  1  0  0  0  0  0  0  0  0  0
    5.6904  -12.3565   26.6293 C   0  0  0  0  0  0  0  0  0  0  0  0
    6.9471  -14.2538   25.6162 C   0  0  0  0  0  0  0  0  0  0  0  0
    8.2657  -14.8112   25.1355 C   0  0  2  0  0  0  0  0  0  0  0  0
    8.2180  -15.3187   23.8333 N   0  0  0  0  0  0  0  0  0  0  0  0
    8.9473  -15.5863   26.1874 C   0  0  0  0  0  0  0  0  0  0  0  0
    8.4910  -16.8039   26.2480 O   0  0  0  0  0  0  0  0  0  0  0  0
    9.9587  -15.1640   27.0528 N   0  0  0  0  0  0  0  0  0  0  0  0
   10.7125  -13.9301   26.9516 C   0  0  0  0  0  0  0  0  0  0  0  0
   10.8012  -13.4824   28.4240 C   0  0  0  0  0  0  0  0  0  0  0  0
   10.2697  -14.6683   29.2376 C   0  0  0  0  0  0  0  0  0  0  0  0
   10.5564  -15.7671   28.2049 C   0  0  1  0  0  0  0  0  0  0  0  0
   10.2920  -17.0952   28.6085 C   0  0  0  0  0  0  0  0  0  0  0  0
   10.9793  -18.0002   29.1041 O   0  0  0  0  0  0  0  0  0  0  0  0
    8.9429  -17.5128   28.4133 O   0  0  0  0  0  0  0  0  0  0  0  0
  2  9  1  0
  2  3  1  0
  2  1  1  6
  4  8  1  0
  4  3  1  0
  5  4  2  0
  6  5  1  0
  6  7  1  0
  7  8  2  0
  9 10  2  0
 12 11  1  6
 13 12  1  0
 14 12  1  0
 15 14  1  1
 16 15  1  0
 16  9  1  0
 17 18  2  0
 17 15  1  0
 19 17  1  0
 20 19  1  0
 21 20  1  0
 22 21  1  0
 22 23  1  0
 23 19  1  0
 23 24  1  1
 24 26  1  0
 25 24  2  0
M  END
$$$$
