HLP.pdb
     RDKit          3D

 26 27  0  0  1  0  0  0  0  0999 V2000
   10.1696  -15.9359   20.5513 N   0  0  0  0  0  0  0  0  0  0  0  0
    9.2566  -16.4935   21.5187 C   0  0  1  0  0  0  0  0  0  0  0  0
    9.5816  -17.9055   21.8931 C   0  0  0  0  0  0  0  0  0  0  0  0
    9.4195  -18.8539   20.7654 C   0  0  0  0  0  0  0  0  0  0  0  0
    8.2862  -19.4339   20.2565 C   0  0  0  0  0  0  0  0  0  0  0  0
    8.6271  -20.2301   19.2265 N   0  0  0  0  0  0  0  0  0  0  0  0
    9.9763  -20.1437   19.0962 C   0  0  0  0  0  0  0  0  0  0  0  0
   10.4593  -19.3013   20.0386 N   0  0  0  0  0  0  0  0  0  0  0  0
    9.3289  -15.6715   22.7603 C   0  0  0  0  0  0  0  0  0  0  0  0
   10.4471  -15.3763   23.2076 O   0  0  0  0  0  0  0  0  0  0  0  0
    7.6193  -11.5831   26.0080 C   0  0  0  0  0  0  0  0  0  0  0  0
    6.9037  -12.8873   26.1128 C   0  0  1  0  0  0  0  0  0  0  0  0
    5.4873  -12.5981   26.6147 C   0  0  0  0  0  0  0  0  0  0  0  0
    6.8773  -13.7309   24.8855 C   0  0  0  0  0  0  0  0  0  0  0  0
    8.1333  -14.5424   24.6743 C   0  0  2  0  0  0  0  0  0  0  0  0
    8.1663  -15.2148   23.4487 N   0  0  0  0  0  0  0  0  0  0  0  0
    8.5355  -15.2555   25.8997 C   0  0  0  0  0  0  0  0  0  0  0  0
    7.7786  -16.2928   26.1128 O   0  0  0  0  0  0  0  0  0  0  0  0
    9.5740  -14.9426   26.7794 N   0  0  0  0  0  0  0  0  0  0  0  0
   10.5037  -13.8383   26.6485 C   0  0  0  0  0  0  0  0  0  0  0  0
   10.6171  -13.3356   28.1013 C   0  0  0  0  0  0  0  0  0  0  0  0
    9.8948  -14.3895   28.9489 C   0  0  0  0  0  0  0  0  0  0  0  0
   10.0447  -15.5682   27.9773 C   0  0  1  0  0  0  0  0  0  0  0  0
    9.5769  -16.8219   28.4312 C   0  0  0  0  0  0  0  0  0  0  0  0
    8.7330  -17.6303   28.0171 O   0  0  0  0  0  0  0  0  0  0  0  0
   10.1962  -17.2832   29.6296 O   0  0  0  0  0  0  0  0  0  0  0  0
  2  9  1  0
  2  3  1  0
  2  1  1  6
  4  8  1  0
  4  3  1  0
  5  4  2  0
  6  5  1  0
  6  7  1  0
  7  8  2  0
  9 10  2  0
 12 11  1  6
 13 12  1  0
 14 12  1  0
 15 14  1  1
 16 15  1  0
 16  9  1  0
 17 18  2  0
 17 15  1  0
 19 17  1  0
 20 19  1  0
 21 20  1  0
 22 21  1  0
 22 23  1  0
 23 19  1  0
 23 24  1  1
 24 26  1  0
 25 24  2  0
M  END
$$$$
