HLP.pdb
     RDKit          3D

 26 27  0  0  1  0  0  0  0  0999 V2000
   10.7317  -17.6853   21.1376 N   0  0  0  0  0  0  0  0  0  0  0  0
   11.4787  -17.0437   22.1915 C   0  0  1  0  0  0  0  0  0  0  0  0
   12.8041  -16.5156   21.7398 C   0  0  0  0  0  0  0  0  0  0  0  0
   13.7436  -17.5868   21.3306 C   0  0  0  0  0  0  0  0  0  0  0  0
   13.6919  -18.9384   21.5547 C   0  0  0  0  0  0  0  0  0  0  0  0
   14.7693  -19.5164   20.9925 N   0  0  0  0  0  0  0  0  0  0  0  0
   15.4916  -18.5200   20.4178 C   0  0  0  0  0  0  0  0  0  0  0  0
   14.8624  -17.3402   20.6258 N   0  0  0  0  0  0  0  0  0  0  0  0
   10.6824  -15.8881   22.6946 C   0  0  0  0  0  0  0  0  0  0  0  0
   11.2140  -15.1139   23.5044 O   0  0  0  0  0  0  0  0  0  0  0  0
    6.6233  -13.6289   19.6527 C   0  0  0  0  0  0  0  0  0  0  0  0
    7.7038  -13.8487   20.6569 C   0  0  1  0  0  0  0  0  0  0  0  0
    8.4702  -12.5326   20.8065 C   0  0  0  0  0  0  0  0  0  0  0  0
    7.2803  -14.3778   21.9832 C   0  0  0  0  0  0  0  0  0  0  0  0
    8.4301  -14.7658   22.8821 C   0  0  2  0  0  0  0  0  0  0  0  0
    9.3399  -15.6416   22.2814 N   0  0  0  0  0  0  0  0  0  0  0  0
    7.9815  -15.0259   24.2616 C   0  0  0  0  0  0  0  0  0  0  0  0
    7.7264  -16.2890   24.4454 O   0  0  0  0  0  0  0  0  0  0  0  0
    7.8212  -14.1109   25.3043 N   0  0  0  0  0  0  0  0  0  0  0  0
    8.3585  -12.7656   25.3533 C   0  0  0  0  0  0  0  0  0  0  0  0
    7.1881  -11.9708   25.9653 C   0  0  0  0  0  0  0  0  0  0  0  0
    6.1764  -13.0299   26.4186 C   0  0  0  0  0  0  0  0  0  0  0  0
    7.1604  -14.1979   26.5708 C   0  0  1  0  0  0  0  0  0  0  0  0
    6.6330  -15.4026   27.0875 C   0  0  0  0  0  0  0  0  0  0  0  0
    6.6572  -15.9489   28.2002 O   0  0  0  0  0  0  0  0  0  0  0  0
    5.9072  -16.1823   26.1400 O   0  0  0  0  0  0  0  0  0  0  0  0
  2  9  1  0
  2  3  1  0
  2  1  1  6
  4  8  1  0
  4  3  1  0
  5  4  2  0
  6  5  1  0
  6  7  1  0
  7  8  2  0
  9 10  2  0
 12 11  1  6
 13 12  1  0
 14 12  1  0
 15 14  1  6
 16 15  1  0
 16  9  1  0
 17 18  2  0
 17 15  1  0
 19 17  1  0
 20 19  1  0
 21 20  1  0
 22 21  1  0
 22 23  1  0
 23 19  1  0
 23 24  1  6
 24 26  1  0
 25 24  2  0
M  END
$$$$
