HLP.pdb
     RDKit          3D

 26 27  0  0  1  0  0  0  0  0999 V2000
    9.5601  -15.7039   20.7151 N   0  0  0  0  0  0  0  0  0  0  0  0
    8.8503  -16.3316   21.8027 C   0  0  1  0  0  0  0  0  0  0  0  0
    9.2652  -17.7499   22.0391 C   0  0  0  0  0  0  0  0  0  0  0  0
    8.9073  -18.6509   20.9177 C   0  0  0  0  0  0  0  0  0  0  0  0
    8.0882  -18.4351   19.8397 C   0  0  0  0  0  0  0  0  0  0  0  0
    8.0646  -19.5451   19.0792 N   0  0  0  0  0  0  0  0  0  0  0  0
    8.8718  -20.4524   19.6876 C   0  0  0  0  0  0  0  0  0  0  0  0
    9.3864  -19.9034   20.8123 N   0  0  0  0  0  0  0  0  0  0  0  0
    9.1328  -15.5668   23.0508 C   0  0  0  0  0  0  0  0  0  0  0  0
   10.2910  -15.1709   23.2501 O   0  0  0  0  0  0  0  0  0  0  0  0
    5.3523  -12.3380   25.6210 C   0  0  0  0  0  0  0  0  0  0  0  0
    6.6350  -12.9456   25.1631 C   0  0  1  0  0  0  0  0  0  0  0  0
    7.6927  -11.8397   25.1539 C   0  0  0  0  0  0  0  0  0  0  0  0
    7.1112  -14.1386   25.9170 C   0  0  0  0  0  0  0  0  0  0  0  0
    8.3311  -14.7950   25.3156 C   0  0  2  0  0  0  0  0  0  0  0  0
    8.1264  -15.2754   24.0184 N   0  0  0  0  0  0  0  0  0  0  0  0
    9.0356  -15.6407   26.2955 C   0  0  0  0  0  0  0  0  0  0  0  0
    8.6414  -16.8790   26.2209 O   0  0  0  0  0  0  0  0  0  0  0  0
   10.0109  -15.2613   27.2202 N   0  0  0  0  0  0  0  0  0  0  0  0
   10.7955  -14.0431   27.1861 C   0  0  0  0  0  0  0  0  0  0  0  0
   10.8195  -13.6308   28.6712 C   0  0  0  0  0  0  0  0  0  0  0  0
   10.2219  -14.8222   29.4289 C   0  0  0  0  0  0  0  0  0  0  0  0
   10.5363  -15.9037   28.3861 C   0  0  1  0  0  0  0  0  0  0  0  0
   10.2231  -17.2342   28.7444 C   0  0  0  0  0  0  0  0  0  0  0  0
    9.4462  -18.0895   28.2951 O   0  0  0  0  0  0  0  0  0  0  0  0
   10.9471  -17.7274   29.8692 O   0  0  0  0  0  0  0  0  0  0  0  0
  2  9  1  0
  2  3  1  0
  2  1  1  6
  4  8  1  0
  4  3  1  0
  5  4  2  0
  6  5  1  0
  6  7  1  0
  7  8  2  0
  9 10  2  0
 12 11  1  1
 13 12  1  0
 14 12  1  0
 15 14  1  1
 16 15  1  0
 16  9  1  0
 17 18  2  0
 17 15  1  0
 19 17  1  0
 20 19  1  0
 21 20  1  0
 22 21  1  0
 22 23  1  0
 23 19  1  0
 23 24  1  1
 24 26  1  0
 25 24  2  0
M  END
$$$$
