HLP.pdb
     RDKit          3D

 26 27  0  0  1  0  0  0  0  0999 V2000
   10.7032  -16.0354   20.8451 N   0  0  0  0  0  0  0  0  0  0  0  0
    9.5903  -16.4877   21.6436 C   0  0  1  0  0  0  0  0  0  0  0  0
    9.6888  -17.9295   22.0323 C   0  0  0  0  0  0  0  0  0  0  0  0
    9.2330  -18.8486   20.9624 C   0  0  0  0  0  0  0  0  0  0  0  0
    9.5428  -18.8705   19.6270 C   0  0  0  0  0  0  0  0  0  0  0  0
    8.8887  -19.8912   19.0429 N   0  0  0  0  0  0  0  0  0  0  0  0
    8.1708  -20.5046   20.0192 C   0  0  0  0  0  0  0  0  0  0  0  0
    8.3828  -19.8652   21.1929 N   0  0  0  0  0  0  0  0  0  0  0  0
    9.5568  -15.6850   22.8993 C   0  0  0  0  0  0  0  0  0  0  0  0
   10.6246  -15.2325   23.3383 O   0  0  0  0  0  0  0  0  0  0  0  0
    7.2580  -11.6820   26.0570 C   0  0  0  0  0  0  0  0  0  0  0  0
    6.8050  -13.1008   26.1341 C   0  0  1  0  0  0  0  0  0  0  0  0
    5.3625  -13.0982   26.6449 C   0  0  0  0  0  0  0  0  0  0  0  0
    6.9327  -13.9074   24.8885 C   0  0  0  0  0  0  0  0  0  0  0  0
    8.2227  -14.6870   24.7945 C   0  0  2  0  0  0  0  0  0  0  0  0
    8.3493  -15.4199   23.6103 N   0  0  0  0  0  0  0  0  0  0  0  0
    8.5715  -15.3229   26.0775 C   0  0  0  0  0  0  0  0  0  0  0  0
    7.7173  -16.2536   26.3912 O   0  0  0  0  0  0  0  0  0  0  0  0
    9.6511  -15.0389   26.9165 N   0  0  0  0  0  0  0  0  0  0  0  0
   10.5969  -13.9522   26.7569 C   0  0  0  0  0  0  0  0  0  0  0  0
   10.7797  -13.4654   28.2081 C   0  0  0  0  0  0  0  0  0  0  0  0
   10.0713  -14.5125   29.0756 C   0  0  0  0  0  0  0  0  0  0  0  0
   10.1575  -15.6849   28.0888 C   0  0  1  0  0  0  0  0  0  0  0  0
    9.6832  -16.9332   28.5508 C   0  0  0  0  0  0  0  0  0  0  0  0
    8.8559  -17.7535   28.1266 O   0  0  0  0  0  0  0  0  0  0  0  0
   10.2696  -17.3700   29.7747 O   0  0  0  0  0  0  0  0  0  0  0  0
  2  9  1  0
  2  3  1  0
  2  1  1  6
  4  8  1  0
  4  3  1  0
  5  4  2  0
  6  5  1  0
  6  7  1  0
  7  8  2  0
  9 10  2  0
 12 11  1  6
 13 12  1  0
 14 12  1  0
 15 14  1  1
 16 15  1  0
 16  9  1  0
 17 18  2  0
 17 15  1  0
 19 17  1  0
 20 19  1  0
 21 20  1  0
 22 21  1  0
 22 23  1  0
 23 19  1  0
 23 24  1  1
 24 26  1  0
 25 24  2  0
M  END
$$$$
