HLP.pdb
     RDKit          3D

 26 27  0  0  1  0  0  0  0  0999 V2000
    9.8196  -15.5136   20.7376 N   0  0  0  0  0  0  0  0  0  0  0  0
    8.9181  -16.0951   21.7019 C   0  0  1  0  0  0  0  0  0  0  0  0
    9.1294  -17.5635   21.8984 C   0  0  0  0  0  0  0  0  0  0  0  0
    8.6807  -18.3717   20.7395 C   0  0  0  0  0  0  0  0  0  0  0  0
    8.9132  -18.1975   19.3996 C   0  0  0  0  0  0  0  0  0  0  0  0
    8.3028  -19.1842   18.7179 N   0  0  0  0  0  0  0  0  0  0  0  0
    7.6898  -19.9731   19.6380 C   0  0  0  0  0  0  0  0  0  0  0  0
    7.9222  -19.4744   20.8743 N   0  0  0  0  0  0  0  0  0  0  0  0
    9.1436  -15.4289   23.0163 C   0  0  0  0  0  0  0  0  0  0  0  0
   10.3060  -15.1437   23.3410 O   0  0  0  0  0  0  0  0  0  0  0  0
    5.1754  -12.2771   25.6274 C   0  0  0  0  0  0  0  0  0  0  0  0
    6.4685  -12.8461   25.1497 C   0  0  1  0  0  0  0  0  0  0  0  0
    7.5290  -11.7496   25.2721 C   0  0  0  0  0  0  0  0  0  0  0  0
    6.9208  -14.1066   25.8018 C   0  0  0  0  0  0  0  0  0  0  0  0
    8.2016  -14.6655   25.2294 C   0  0  2  0  0  0  0  0  0  0  0  0
    8.0783  -15.1092   23.9090 N   0  0  0  0  0  0  0  0  0  0  0  0
    8.9178  -15.5028   26.2081 C   0  0  0  0  0  0  0  0  0  0  0  0
    8.5289  -16.7432   26.1431 O   0  0  0  0  0  0  0  0  0  0  0  0
    9.8986  -15.1139   27.1230 N   0  0  0  0  0  0  0  0  0  0  0  0
   10.6198  -13.8566   27.1227 C   0  0  0  0  0  0  0  0  0  0  0  0
   10.6650  -13.5080   28.6236 C   0  0  0  0  0  0  0  0  0  0  0  0
   10.1496  -14.7601   29.3428 C   0  0  0  0  0  0  0  0  0  0  0  0
   10.4883  -15.7781   28.2452 C   0  0  1  0  0  0  0  0  0  0  0  0
   10.2525  -17.1371   28.5520 C   0  0  0  0  0  0  0  0  0  0  0  0
   10.8845  -18.0046   29.1726 O   0  0  0  0  0  0  0  0  0  0  0  0
    9.0215  -17.6499   28.0479 O   0  0  0  0  0  0  0  0  0  0  0  0
  2  9  1  0
  2  3  1  0
  2  1  1  6
  4  8  1  0
  4  3  1  0
  5  4  2  0
  6  5  1  0
  6  7  1  0
  7  8  2  0
  9 10  2  0
 12 11  1  1
 13 12  1  0
 14 12  1  0
 15 14  1  1
 16 15  1  0
 16  9  1  0
 17 18  2  0
 17 15  1  0
 19 17  1  0
 20 19  1  0
 21 20  1  0
 22 21  1  0
 22 23  1  0
 23 19  1  0
 23 24  1  1
 24 26  1  0
 25 24  2  0
M  END
$$$$
