HLP.pdb
     RDKit          3D

 26 27  0  0  1  0  0  0  0  0999 V2000
    9.7456  -15.5669   20.7305 N   0  0  0  0  0  0  0  0  0  0  0  0
    8.7122  -15.9433   21.6637 C   0  0  1  0  0  0  0  0  0  0  0  0
    8.6008  -17.4231   21.8573 C   0  0  0  0  0  0  0  0  0  0  0  0
    8.5012  -18.1670   20.5789 C   0  0  0  0  0  0  0  0  0  0  0  0
    9.3716  -18.2236   19.5211 C   0  0  0  0  0  0  0  0  0  0  0  0
    8.8586  -19.0317   18.5753 N   0  0  0  0  0  0  0  0  0  0  0  0
    7.6659  -19.4778   19.0479 C   0  0  0  0  0  0  0  0  0  0  0  0
    7.4490  -18.9476   20.2740 N   0  0  0  0  0  0  0  0  0  0  0  0
    9.0335  -15.3398   22.9884 C   0  0  0  0  0  0  0  0  0  0  0  0
   10.2227  -15.1214   23.2638 O   0  0  0  0  0  0  0  0  0  0  0  0
    5.3367  -12.0700   25.8067 C   0  0  0  0  0  0  0  0  0  0  0  0
    6.5866  -12.6841   25.2730 C   0  0  1  0  0  0  0  0  0  0  0  0
    7.6922  -11.6294   25.3575 C   0  0  0  0  0  0  0  0  0  0  0  0
    7.0170  -13.9653   25.8991 C   0  0  0  0  0  0  0  0  0  0  0  0
    8.2402  -14.5778   25.2594 C   0  0  2  0  0  0  0  0  0  0  0  0
    8.0297  -15.0063   23.9451 N   0  0  0  0  0  0  0  0  0  0  0  0
    8.9662  -15.4535   26.1964 C   0  0  0  0  0  0  0  0  0  0  0  0
    8.4565  -16.6510   26.2155 O   0  0  0  0  0  0  0  0  0  0  0  0
   10.0648  -15.1373   26.9985 N   0  0  0  0  0  0  0  0  0  0  0  0
   10.9181  -13.9736   26.8621 C   0  0  0  0  0  0  0  0  0  0  0  0
   11.1409  -13.5607   28.3304 C   0  0  0  0  0  0  0  0  0  0  0  0
   10.5586  -14.7084   29.1636 C   0  0  0  0  0  0  0  0  0  0  0  0
   10.6787  -15.8105   28.1022 C   0  0  1  0  0  0  0  0  0  0  0  0
   10.3229  -17.1166   28.5072 C   0  0  0  0  0  0  0  0  0  0  0  0
   10.9391  -18.0566   29.0304 O   0  0  0  0  0  0  0  0  0  0  0  0
    8.9576  -17.4545   28.2736 O   0  0  0  0  0  0  0  0  0  0  0  0
  2  9  1  0
  2  3  1  0
  2  1  1  6
  4  8  1  0
  4  3  1  0
  5  4  2  0
  6  5  1  0
  6  7  1  0
  7  8  2  0
  9 10  2  0
 12 11  1  1
 13 12  1  0
 14 12  1  0
 15 14  1  1
 16 15  1  0
 16  9  1  0
 17 18  2  0
 17 15  1  0
 19 17  1  0
 20 19  1  0
 21 20  1  0
 22 21  1  0
 22 23  1  0
 23 19  1  0
 23 24  1  1
 24 26  1  0
 25 24  2  0
M  END
$$$$
