HLP.pdb
     RDKit          3D

 26 27  0  0  1  0  0  0  0  0999 V2000
    8.9825  -17.2889   21.5016 N   0  0  0  0  0  0  0  0  0  0  0  0
   10.3037  -16.8941   21.9249 C   0  0  1  0  0  0  0  0  0  0  0  0
   11.1180  -16.2828   20.8281 C   0  0  0  0  0  0  0  0  0  0  0  0
   11.0964  -17.0811   19.5792 C   0  0  0  0  0  0  0  0  0  0  0  0
   11.3336  -18.4169   19.3818 C   0  0  0  0  0  0  0  0  0  0  0  0
   11.2000  -18.6961   18.0722 N   0  0  0  0  0  0  0  0  0  0  0  0
   10.8789  -17.5294   17.4551 C   0  0  0  0  0  0  0  0  0  0  0  0
   10.8160  -16.5425   18.3788 N   0  0  0  0  0  0  0  0  0  0  0  0
   10.1657  -15.8745   23.0037 C   0  0  0  0  0  0  0  0  0  0  0  0
   11.1787  -15.2567   23.3641 O   0  0  0  0  0  0  0  0  0  0  0  0
    7.7483  -11.9057   25.8594 C   0  0  0  0  0  0  0  0  0  0  0  0
    7.2899  -13.3012   26.1175 C   0  0  1  0  0  0  0  0  0  0  0  0
    5.8591  -13.2255   26.6549 C   0  0  0  0  0  0  0  0  0  0  0  0
    7.3859  -14.2536   24.9764 C   0  0  0  0  0  0  0  0  0  0  0  0
    8.7335  -14.9235   24.8509 C   0  0  2  0  0  0  0  0  0  0  0  0
    8.9190  -15.5850   23.6329 N   0  0  0  0  0  0  0  0  0  0  0  0
    9.1298  -15.5923   26.1029 C   0  0  0  0  0  0  0  0  0  0  0  0
    8.4605  -16.6941   26.2825 O   0  0  0  0  0  0  0  0  0  0  0  0
   10.0841  -15.1819   27.0362 N   0  0  0  0  0  0  0  0  0  0  0  0
   10.9333  -14.0116   26.9348 C   0  0  0  0  0  0  0  0  0  0  0  0
   10.9166  -13.4724   28.3788 C   0  0  0  0  0  0  0  0  0  0  0  0
   10.2250  -14.5619   29.2068 C   0  0  0  0  0  0  0  0  0  0  0  0
   10.5251  -15.7448   28.2760 C   0  0  1  0  0  0  0  0  0  0  0  0
   10.1266  -17.0216   28.7316 C   0  0  0  0  0  0  0  0  0  0  0  0
    9.0446  -17.6257   28.7710 O   0  0  0  0  0  0  0  0  0  0  0  0
   11.1842  -17.8113   29.2705 O   0  0  0  0  0  0  0  0  0  0  0  0
  2  9  1  0
  2  3  1  0
  2  1  1  6
  4  8  1  0
  4  3  1  0
  5  4  2  0
  6  5  1  0
  6  7  1  0
  7  8  2  0
  9 10  2  0
 12 11  1  6
 13 12  1  0
 14 12  1  0
 15 14  1  1
 16 15  1  0
 16  9  1  0
 17 18  2  0
 17 15  1  0
 19 17  1  0
 20 19  1  0
 21 20  1  0
 22 21  1  0
 22 23  1  0
 23 19  1  0
 23 24  1  1
 24 26  1  0
 25 24  2  0
M  END
$$$$
