HLP.pdb
     RDKit          3D

 26 27  0  0  1  0  0  0  0  0999 V2000
    9.4397  -15.7836   20.7580 N   0  0  0  0  0  0  0  0  0  0  0  0
    8.6519  -16.3917   21.8022 C   0  0  1  0  0  0  0  0  0  0  0  0
    8.9208  -17.8543   21.9701 C   0  0  0  0  0  0  0  0  0  0  0  0
    8.1167  -18.4687   23.0533 C   0  0  0  0  0  0  0  0  0  0  0  0
    6.7583  -18.4946   23.2374 C   0  0  0  0  0  0  0  0  0  0  0  0
    6.4829  -19.1717   24.3673 N   0  0  0  0  0  0  0  0  0  0  0  0
    7.6745  -19.5671   24.8857 C   0  0  0  0  0  0  0  0  0  0  0  0
    8.6728  -19.1360   24.0803 N   0  0  0  0  0  0  0  0  0  0  0  0
    8.9856  -15.7226   23.0918 C   0  0  0  0  0  0  0  0  0  0  0  0
   10.1710  -15.4380   23.3189 O   0  0  0  0  0  0  0  0  0  0  0  0
    5.5777  -12.0415   25.7774 C   0  0  0  0  0  0  0  0  0  0  0  0
    6.7389  -12.8114   25.2453 C   0  0  1  0  0  0  0  0  0  0  0  0
    7.9628  -11.8942   25.2942 C   0  0  0  0  0  0  0  0  0  0  0  0
    7.0220  -14.1208   25.8963 C   0  0  0  0  0  0  0  0  0  0  0  0
    8.2238  -14.8382   25.3292 C   0  0  2  0  0  0  0  0  0  0  0  0
    7.9977  -15.3995   24.0685 N   0  0  0  0  0  0  0  0  0  0  0  0
    8.9225  -15.6304   26.3569 C   0  0  0  0  0  0  0  0  0  0  0  0
    8.4402  -16.8370   26.4324 O   0  0  0  0  0  0  0  0  0  0  0  0
    9.9723  -15.2329   27.1876 N   0  0  0  0  0  0  0  0  0  0  0  0
   10.7334  -14.0042   27.0775 C   0  0  0  0  0  0  0  0  0  0  0  0
   10.8862  -13.5839   28.5527 C   0  0  0  0  0  0  0  0  0  0  0  0
   10.3767  -14.7794   29.3662 C   0  0  0  0  0  0  0  0  0  0  0  0
   10.6104  -15.8619   28.3035 C   0  0  1  0  0  0  0  0  0  0  0  0
   10.3497  -17.1946   28.6941 C   0  0  0  0  0  0  0  0  0  0  0  0
   10.9189  -18.0021   29.4432 O   0  0  0  0  0  0  0  0  0  0  0  0
    9.1779  -17.7607   28.1119 O   0  0  0  0  0  0  0  0  0  0  0  0
  2  9  1  0
  2  3  1  0
  2  1  1  6
  4  8  1  0
  4  3  1  0
  5  4  2  0
  6  5  1  0
  6  7  1  0
  7  8  2  0
  9 10  2  0
 12 11  1  1
 13 12  1  0
 14 12  1  0
 15 14  1  1
 16 15  1  0
 16  9  1  0
 17 18  2  0
 17 15  1  0
 19 17  1  0
 20 19  1  0
 21 20  1  0
 22 21  1  0
 22 23  1  0
 23 19  1  0
 23 24  1  1
 24 26  1  0
 25 24  2  0
M  END
$$$$
