HLP.pdb
     RDKit          3D

 26 27  0  0  1  0  0  0  0  0999 V2000
    8.0501  -16.4026   20.9828 N   0  0  0  0  0  0  0  0  0  0  0  0
    9.3375  -16.3087   21.6265 C   0  0  1  0  0  0  0  0  0  0  0  0
   10.4036  -15.7495   20.7375 C   0  0  0  0  0  0  0  0  0  0  0  0
   10.7640  -16.6601   19.6246 C   0  0  0  0  0  0  0  0  0  0  0  0
   11.7780  -17.5779   19.5289 C   0  0  0  0  0  0  0  0  0  0  0  0
   11.7145  -18.1758   18.3249 N   0  0  0  0  0  0  0  0  0  0  0  0
   10.6576  -17.6270   17.6717 C   0  0  0  0  0  0  0  0  0  0  0  0
   10.0773  -16.6999   18.4686 N   0  0  0  0  0  0  0  0  0  0  0  0
    9.2096  -15.3999   22.8012 C   0  0  0  0  0  0  0  0  0  0  0  0
    8.9347  -14.2080   22.5972 O   0  0  0  0  0  0  0  0  0  0  0  0
    5.6973  -13.3214   25.8115 C   0  0  0  0  0  0  0  0  0  0  0  0
    6.8136  -13.7931   24.9423 C   0  0  1  0  0  0  0  0  0  0  0  0
    7.9685  -12.8007   25.0942 C   0  0  0  0  0  0  0  0  0  0  0  0
    7.2759  -15.1928   25.1561 C   0  0  0  0  0  0  0  0  0  0  0  0
    8.7744  -15.3286   25.2858 C   0  0  2  0  0  0  0  0  0  0  0  0
    9.3908  -15.8478   24.1430 N   0  0  0  0  0  0  0  0  0  0  0  0
    9.1638  -15.8409   26.6116 C   0  0  0  0  0  0  0  0  0  0  0  0
    8.5331  -16.9434   26.8962 O   0  0  0  0  0  0  0  0  0  0  0  0
   10.0771  -15.2929   27.5148 N   0  0  0  0  0  0  0  0  0  0  0  0
   10.7396  -14.0097   27.3904 C   0  0  0  0  0  0  0  0  0  0  0  0
   10.6910  -13.4779   28.8364 C   0  0  0  0  0  0  0  0  0  0  0  0
   10.1964  -14.6572   29.6821 C   0  0  0  0  0  0  0  0  0  0  0  0
   10.6375  -15.7833   28.7370 C   0  0  1  0  0  0  0  0  0  0  0  0
   10.4480  -17.1047   29.2001 C   0  0  0  0  0  0  0  0  0  0  0  0
   10.9853  -17.7983   30.0760 O   0  0  0  0  0  0  0  0  0  0  0  0
    9.4157  -17.8223   28.5277 O   0  0  0  0  0  0  0  0  0  0  0  0
  2  9  1  0
  2  3  1  0
  2  1  1  6
  4  8  1  0
  4  3  1  0
  5  4  2  0
  6  5  1  0
  6  7  1  0
  7  8  2  0
  9 10  2  0
 12 11  1  1
 13 12  1  0
 14 12  1  0
 15 14  1  6
 16 15  1  0
 16  9  1  0
 17 18  2  0
 17 15  1  0
 19 17  1  0
 20 19  1  0
 21 20  1  0
 22 21  1  0
 22 23  1  0
 23 19  1  0
 23 24  1  1
 24 26  1  0
 25 24  2  0
M  END
$$$$
