HLP.pdb
     RDKit          3D

 26 27  0  0  1  0  0  0  0  0999 V2000
    7.7433  -15.6609   21.4850 N   0  0  0  0  0  0  0  0  0  0  0  0
    9.1586  -15.4845   21.7003 C   0  0  1  0  0  0  0  0  0  0  0  0
    9.7869  -14.5218   20.7422 C   0  0  0  0  0  0  0  0  0  0  0  0
    8.9577  -14.2822   19.5369 C   0  0  0  0  0  0  0  0  0  0  0  0
    8.1299  -13.2334   19.2300 C   0  0  0  0  0  0  0  0  0  0  0  0
    7.5818  -13.4484   18.0199 N   0  0  0  0  0  0  0  0  0  0  0  0
    8.0712  -14.6347   17.5748 C   0  0  0  0  0  0  0  0  0  0  0  0
    8.9129  -15.1433   18.5044 N   0  0  0  0  0  0  0  0  0  0  0  0
    9.3605  -14.9460   23.0756 C   0  0  0  0  0  0  0  0  0  0  0  0
   10.4559  -14.4356   23.3539 O   0  0  0  0  0  0  0  0  0  0  0  0
    5.5321  -12.2373   25.9398 C   0  0  0  0  0  0  0  0  0  0  0  0
    6.8319  -12.7947   25.4665 C   0  0  1  0  0  0  0  0  0  0  0  0
    7.9009  -11.7211   25.6820 C   0  0  0  0  0  0  0  0  0  0  0  0
    7.2508  -14.0965   26.0568 C   0  0  0  0  0  0  0  0  0  0  0  0
    8.4956  -14.6791   25.4311 C   0  0  2  0  0  0  0  0  0  0  0  0
    8.3465  -14.9958   24.0773 N   0  0  0  0  0  0  0  0  0  0  0  0
    9.1589  -15.6417   26.3285 C   0  0  0  0  0  0  0  0  0  0  0  0
    8.7583  -16.8581   26.0959 O   0  0  0  0  0  0  0  0  0  0  0  0
   10.1039  -15.3844   27.3239 N   0  0  0  0  0  0  0  0  0  0  0  0
   10.8294  -14.1443   27.5160 C   0  0  0  0  0  0  0  0  0  0  0  0
   10.8161  -13.9948   29.0501 C   0  0  0  0  0  0  0  0  0  0  0  0
   10.2677  -15.3253   29.5790 C   0  0  0  0  0  0  0  0  0  0  0  0
   10.6459  -16.1945   28.3719 C   0  0  1  0  0  0  0  0  0  0  0  0
   10.3929  -17.5797   28.4891 C   0  0  0  0  0  0  0  0  0  0  0  0
    9.7317  -18.3957   27.8302 O   0  0  0  0  0  0  0  0  0  0  0  0
   11.0266  -18.2021   29.6043 O   0  0  0  0  0  0  0  0  0  0  0  0
  2  9  1  0
  2  3  1  0
  2  1  1  6
  4  8  1  0
  4  3  1  0
  5  4  2  0
  6  5  1  0
  6  7  1  0
  7  8  2  0
  9 10  2  0
 12 11  1  1
 13 12  1  0
 14 12  1  0
 15 14  1  1
 16 15  1  0
 16  9  1  0
 17 18  2  0
 17 15  1  0
 19 17  1  0
 20 19  1  0
 21 20  1  0
 22 21  1  0
 22 23  1  0
 23 19  1  0
 23 24  1  1
 24 26  1  0
 25 24  2  0
M  END
$$$$
