HLP.pdb
     RDKit          3D

 26 27  0  0  1  0  0  0  0  0999 V2000
    8.8196  -12.8793   20.6682 N   0  0  0  0  0  0  0  0  0  0  0  0
    8.2905  -14.0396   21.3423 C   0  0  1  0  0  0  0  0  0  0  0  0
    8.8134  -15.3308   20.7956 C   0  0  0  0  0  0  0  0  0  0  0  0
    8.3984  -15.5747   19.3935 C   0  0  0  0  0  0  0  0  0  0  0  0
    7.8694  -14.7130   18.4675 C   0  0  0  0  0  0  0  0  0  0  0  0
    7.6479  -15.3839   17.3222 N   0  0  0  0  0  0  0  0  0  0  0  0
    8.0407  -16.6660   17.5385 C   0  0  0  0  0  0  0  0  0  0  0  0
    8.4996  -16.7807   18.8064 N   0  0  0  0  0  0  0  0  0  0  0  0
    8.6834  -13.9678   22.7785 C   0  0  0  0  0  0  0  0  0  0  0  0
    9.8765  -13.7723   23.0542 O   0  0  0  0  0  0  0  0  0  0  0  0
    5.0351  -12.0940   26.6126 C   0  0  0  0  0  0  0  0  0  0  0  0
    6.2796  -12.4328   25.8638 C   0  0  1  0  0  0  0  0  0  0  0  0
    7.3213  -11.3603   26.1896 C   0  0  0  0  0  0  0  0  0  0  0  0
    6.8311  -13.8000   26.0762 C   0  0  0  0  0  0  0  0  0  0  0  0
    8.0268  -14.1182   25.2104 C   0  0  2  0  0  0  0  0  0  0  0  0
    7.7435  -14.1149   23.8410 N   0  0  0  0  0  0  0  0  0  0  0  0
    8.8362  -15.2116   25.7771 C   0  0  0  0  0  0  0  0  0  0  0  0
    8.4908  -16.3631   25.2779 O   0  0  0  0  0  0  0  0  0  0  0  0
    9.8593  -15.1272   26.7239 N   0  0  0  0  0  0  0  0  0  0  0  0
   10.6402  -13.9471   27.0379 C   0  0  0  0  0  0  0  0  0  0  0  0
   10.7432  -14.0255   28.5740 C   0  0  0  0  0  0  0  0  0  0  0  0
   10.1877  -15.4057   28.9443 C   0  0  0  0  0  0  0  0  0  0  0  0
   10.4467  -16.0961   27.5981 C   0  0  1  0  0  0  0  0  0  0  0  0
   10.1540  -17.4768   27.5317 C   0  0  0  0  0  0  0  0  0  0  0  0
   10.8362  -18.5091   27.6100 O   0  0  0  0  0  0  0  0  0  0  0  0
    8.7750  -17.7777   27.3305 O   0  0  0  0  0  0  0  0  0  0  0  0
  2  9  1  0
  2  3  1  0
  2  1  1  6
  4  8  1  0
  4  3  1  0
  5  4  2  0
  6  5  1  0
  6  7  1  0
  7  8  2  0
  9 10  2  0
 12 11  1  1
 13 12  1  0
 14 12  1  0
 15 14  1  1
 16 15  1  0
 16  9  1  0
 17 18  2  0
 17 15  1  0
 19 17  1  0
 20 19  1  0
 21 20  1  0
 22 21  1  0
 22 23  1  0
 23 19  1  0
 23 24  1  1
 24 26  1  0
 25 24  2  0
M  END
$$$$
