HLP.pdb
     RDKit          3D

 26 27  0  0  1  0  0  0  0  0999 V2000
   10.8801  -16.4532   20.7694 N   0  0  0  0  0  0  0  0  0  0  0  0
    9.9486  -16.9223   21.7658 C   0  0  1  0  0  0  0  0  0  0  0  0
   10.3336  -18.2403   22.3610 C   0  0  0  0  0  0  0  0  0  0  0  0
   10.0415  -19.3855   21.4662 C   0  0  0  0  0  0  0  0  0  0  0  0
    9.5596  -19.4017   20.1827 C   0  0  0  0  0  0  0  0  0  0  0  0
    9.4542  -20.6785   19.7711 N   0  0  0  0  0  0  0  0  0  0  0  0
    9.8722  -21.4570   20.8027 C   0  0  0  0  0  0  0  0  0  0  0  0
   10.2310  -20.6640   21.8389 N   0  0  0  0  0  0  0  0  0  0  0  0
    9.9041  -15.9251   22.8730 C   0  0  0  0  0  0  0  0  0  0  0  0
   10.9577  -15.3574   23.1977 O   0  0  0  0  0  0  0  0  0  0  0  0
    7.8085  -11.7494   25.6839 C   0  0  0  0  0  0  0  0  0  0  0  0
    7.2481  -13.1030   25.9628 C   0  0  1  0  0  0  0  0  0  0  0  0
    5.8206  -12.9143   26.4809 C   0  0  0  0  0  0  0  0  0  0  0  0
    7.2878  -14.0824   24.8412 C   0  0  0  0  0  0  0  0  0  0  0  0
    8.5925  -14.8351   24.7329 C   0  0  2  0  0  0  0  0  0  0  0  0
    8.7018  -15.6019   23.5686 N   0  0  0  0  0  0  0  0  0  0  0  0
    8.9933  -15.4223   26.0238 C   0  0  0  0  0  0  0  0  0  0  0  0
    8.3120  -16.5004   26.2845 O   0  0  0  0  0  0  0  0  0  0  0  0
    9.9623  -14.9621   26.9179 N   0  0  0  0  0  0  0  0  0  0  0  0
   10.7308  -13.7395   26.7932 C   0  0  0  0  0  0  0  0  0  0  0  0
   10.7474  -13.2173   28.2435 C   0  0  0  0  0  0  0  0  0  0  0  0
   10.1646  -14.3567   29.0877 C   0  0  0  0  0  0  0  0  0  0  0  0
   10.4947  -15.5087   28.1287 C   0  0  1  0  0  0  0  0  0  0  0  0
   10.1986  -16.8127   28.5851 C   0  0  0  0  0  0  0  0  0  0  0  0
   10.8868  -17.7955   28.8976 O   0  0  0  0  0  0  0  0  0  0  0  0
    8.8064  -17.0855   28.7266 O   0  0  0  0  0  0  0  0  0  0  0  0
  2  9  1  0
  2  3  1  0
  2  1  1  6
  4  8  1  0
  4  3  1  0
  5  4  2  0
  6  5  1  0
  6  7  1  0
  7  8  2  0
  9 10  2  0
 12 11  1  6
 13 12  1  0
 14 12  1  0
 15 14  1  1
 16 15  1  0
 16  9  1  0
 17 18  2  0
 17 15  1  0
 19 17  1  0
 20 19  1  0
 21 20  1  0
 22 21  1  0
 22 23  1  0
 23 19  1  0
 23 24  1  1
 24 26  1  0
 25 24  2  0
M  END
$$$$
