PFT.pdb
     RDKit          3D

 26 27  0  0  1  0  0  0  0  0999 V2000
    7.6811  -15.3344   19.1492 N   0  0  0  0  0  0  0  0  0  0  0  0
    7.0291  -14.7065   18.0203 C   0  0  0  0  0  0  0  0  0  0  0  0
    7.4841  -13.2747   17.9958 C   0  0  0  0  0  0  0  0  0  0  0  0
    8.6902  -13.1903   18.8707 C   0  0  0  0  0  0  0  0  0  0  0  0
    8.8158  -14.5402   19.4883 C   0  0  1  0  0  0  0  0  0  0  0  0
    9.0198  -14.4502   20.9723 C   0  0  0  0  0  0  0  0  0  0  0  0
   10.1908  -14.3042   21.3748 O   0  0  0  0  0  0  0  0  0  0  0  0
    7.9575  -14.5246   21.8820 N   0  0  0  0  0  0  0  0  0  0  0  0
    8.1919  -14.1563   23.2963 C   0  0  1  0  0  0  0  0  0  0  0  0
    6.9661  -13.5084   23.8400 C   0  0  0  0  0  0  0  0  0  0  0  0
    7.0376  -13.1268   25.2551 C   0  0  0  0  0  0  0  0  0  0  0  0
    7.8094  -12.0336   25.6737 C   0  0  0  0  0  0  0  0  0  0  0  0
    7.8289  -11.6570   26.9963 C   0  0  0  0  0  0  0  0  0  0  0  0
    7.0991  -12.3275   27.9659 C   0  0  0  0  0  0  0  0  0  0  0  0
    6.3430  -13.3996   27.5525 C   0  0  0  0  0  0  0  0  0  0  0  0
    6.3137  -13.7841   26.2474 C   0  0  0  0  0  0  0  0  0  0  0  0
    8.4915  -15.4105   24.0064 C   0  0  0  0  0  0  0  0  0  0  0  0
    7.6707  -16.3899   23.8347 O   0  0  0  0  0  0  0  0  0  0  0  0
   12.2326  -16.7668   24.7927 C   0  0  0  0  0  0  0  0  0  0  0  0
   11.0063  -17.5995   24.5626 C   0  0  1  0  0  0  0  0  0  0  0  0
   11.2685  -18.8804   25.0352 O   0  0  0  0  0  0  0  0  0  0  0  0
    9.8225  -16.9965   25.3326 C   0  0  2  0  0  0  0  0  0  0  0  0
    9.5987  -15.6517   24.8552 N   0  0  0  0  0  0  0  0  0  0  0  0
    9.9981  -17.1325   26.7740 C   0  0  0  0  0  0  0  0  0  0  0  0
    9.8329  -15.9882   27.5786 O   0  0  0  0  0  0  0  0  0  0  0  0
   10.2833  -18.1982   27.3195 O   0  0  0  0  0  0  0  0  0  0  0  0
  1  5  1  0
  1  2  1  0
  2  3  1  0
  4  3  1  0
  5  6  1  1
  5  4  1  0
  6  7  2  0
  8  9  1  0
  8  6  1  0
  9 10  1  1
 11 16  1  0
 11 10  1  0
 12 11  2  0
 13 14  2  0
 13 12  1  0
 14 15  1  0
 15 16  2  0
 17  9  1  0
 18 17  2  0
 20 19  1  1
 20 22  1  0
 21 20  1  0
 22 23  1  1
 23 17  1  0
 24 25  1  0
 24 22  1  0
 26 24  2  0
M  END
$$$$
