PFT.pdb
     RDKit          3D

 26 27  0  0  1  0  0  0  0  0999 V2000
    7.9241  -15.4428   19.1880 N   0  0  0  0  0  0  0  0  0  0  0  0
    7.1905  -14.8267   18.1034 C   0  0  0  0  0  0  0  0  0  0  0  0
    7.4178  -13.3453   18.2101 C   0  0  0  0  0  0  0  0  0  0  0  0
    8.5900  -13.1528   19.1136 C   0  0  0  0  0  0  0  0  0  0  0  0
    8.9193  -14.5159   19.6166 C   0  0  1  0  0  0  0  0  0  0  0  0
    9.0964  -14.5253   21.1067 C   0  0  0  0  0  0  0  0  0  0  0  0
   10.2477  -14.3248   21.5411 O   0  0  0  0  0  0  0  0  0  0  0  0
    8.0307  -14.7473   21.9879 N   0  0  0  0  0  0  0  0  0  0  0  0
    8.2057  -14.4356   23.4244 C   0  0  1  0  0  0  0  0  0  0  0  0
    6.9316  -13.8818   23.9608 C   0  0  0  0  0  0  0  0  0  0  0  0
    7.0373  -13.2308   25.2717 C   0  0  0  0  0  0  0  0  0  0  0  0
    6.0259  -13.3669   26.2331 C   0  0  0  0  0  0  0  0  0  0  0  0
    6.1599  -12.7917   27.4752 C   0  0  0  0  0  0  0  0  0  0  0  0
    7.2824  -12.0609   27.8333 C   0  0  0  0  0  0  0  0  0  0  0  0
    8.2730  -11.9289   26.8882 C   0  0  0  0  0  0  0  0  0  0  0  0
    8.1545  -12.4923   25.6550 C   0  0  0  0  0  0  0  0  0  0  0  0
    8.5547  -15.7047   24.0837 C   0  0  0  0  0  0  0  0  0  0  0  0
    7.6878  -16.6567   24.0153 O   0  0  0  0  0  0  0  0  0  0  0  0
   10.9101  -18.1497   23.3481 C   0  0  0  0  0  0  0  0  0  0  0  0
   11.0984  -18.0002   24.8287 C   0  0  1  0  0  0  0  0  0  0  0  0
   12.2496  -17.2487   25.0362 O   0  0  0  0  0  0  0  0  0  0  0  0
    9.8889  -17.2703   25.4306 C   0  0  2  0  0  0  0  0  0  0  0  0
    9.7542  -15.9875   24.7806 N   0  0  0  0  0  0  0  0  0  0  0  0
    9.9571  -17.2349   26.8869 C   0  0  0  0  0  0  0  0  0  0  0  0
   10.1394  -18.4491   27.5775 O   0  0  0  0  0  0  0  0  0  0  0  0
    9.8631  -16.1960   27.5399 O   0  0  0  0  0  0  0  0  0  0  0  0
  1  5  1  0
  1  2  1  0
  2  3  1  0
  4  3  1  0
  5  6  1  1
  5  4  1  0
  6  7  2  0
  8  9  1  0
  8  6  1  0
  9 10  1  1
 11 16  1  0
 11 10  1  0
 12 11  2  0
 13 14  2  0
 13 12  1  0
 14 15  1  0
 15 16  2  0
 17  9  1  0
 18 17  2  0
 20 19  1  6
 20 22  1  0
 21 20  1  0
 22 23  1  6
 23 17  1  0
 24 25  1  0
 24 22  1  0
 26 24  2  0
M  END
$$$$
