PFT.pdb
     RDKit          3D

 26 27  0  0  1  0  0  0  0  0999 V2000
    7.8024  -15.2713   19.0923 N   0  0  0  0  0  0  0  0  0  0  0  0
    7.2243  -14.6773   17.9062 C   0  0  0  0  0  0  0  0  0  0  0  0
    7.7270  -13.2629   17.8382 C   0  0  0  0  0  0  0  0  0  0  0  0
    8.8936  -13.1748   18.7649 C   0  0  0  0  0  0  0  0  0  0  0  0
    8.9458  -14.4974   19.4486 C   0  0  1  0  0  0  0  0  0  0  0  0
    9.0840  -14.3441   20.9350 C   0  0  0  0  0  0  0  0  0  0  0  0
   10.1824  -13.9374   21.3623 O   0  0  0  0  0  0  0  0  0  0  0  0
    8.0396  -14.6387   21.8204 N   0  0  0  0  0  0  0  0  0  0  0  0
    8.1945  -14.3069   23.2545 C   0  0  1  0  0  0  0  0  0  0  0  0
    6.9279  -13.7036   23.7541 C   0  0  0  0  0  0  0  0  0  0  0  0
    6.9715  -13.2180   25.1381 C   0  0  0  0  0  0  0  0  0  0  0  0
    7.7125  -12.0792   25.4844 C   0  0  0  0  0  0  0  0  0  0  0  0
    7.7055  -11.6066   26.7760 C   0  0  0  0  0  0  0  0  0  0  0  0
    6.9782  -12.2216   27.7835 C   0  0  0  0  0  0  0  0  0  0  0  0
    6.2523  -13.3387   27.4409 C   0  0  0  0  0  0  0  0  0  0  0  0
    6.2495  -13.8180   26.1673 C   0  0  0  0  0  0  0  0  0  0  0  0
    8.4890  -15.5743   23.9431 C   0  0  0  0  0  0  0  0  0  0  0  0
    7.6169  -16.5172   23.8303 O   0  0  0  0  0  0  0  0  0  0  0  0
   10.7237  -17.9328   23.1095 C   0  0  0  0  0  0  0  0  0  0  0  0
   10.9559  -17.8939   24.5909 C   0  0  1  0  0  0  0  0  0  0  0  0
   12.1279  -17.1813   24.8181 O   0  0  0  0  0  0  0  0  0  0  0  0
    9.7791  -17.1864   25.2782 C   0  0  2  0  0  0  0  0  0  0  0  0
    9.6416  -15.8645   24.7124 N   0  0  0  0  0  0  0  0  0  0  0  0
    9.8978  -17.2410   26.7307 C   0  0  0  0  0  0  0  0  0  0  0  0
    9.9251  -16.0275   27.4455 O   0  0  0  0  0  0  0  0  0  0  0  0
    9.9752  -18.2956   27.3603 O   0  0  0  0  0  0  0  0  0  0  0  0
  1  5  1  0
  1  2  1  0
  2  3  1  0
  4  3  1  0
  5  6  1  1
  5  4  1  0
  6  7  2  0
  8  9  1  0
  8  6  1  0
  9 10  1  1
 11 16  1  0
 11 10  1  0
 12 11  2  0
 13 14  2  0
 13 12  1  0
 14 15  1  0
 15 16  2  0
 17  9  1  0
 18 17  2  0
 20 19  1  6
 20 22  1  0
 21 20  1  0
 22 23  1  6
 23 17  1  0
 24 25  1  0
 24 22  1  0
 26 24  2  0
M  END
$$$$
