PFT.pdb
     RDKit          3D

 26 27  0  0  1  0  0  0  0  0999 V2000
    7.2840  -15.0822   20.2525 N   0  0  0  0  0  0  0  0  0  0  0  0
    6.6393  -14.2128   19.2920 C   0  0  0  0  0  0  0  0  0  0  0  0
    7.3106  -12.8728   19.3984 C   0  0  0  0  0  0  0  0  0  0  0  0
    8.5895  -13.0883   20.1368 C   0  0  0  0  0  0  0  0  0  0  0  0
    8.5560  -14.5161   20.5607 C   0  0  1  0  0  0  0  0  0  0  0  0
    8.9059  -14.6683   22.0120 C   0  0  0  0  0  0  0  0  0  0  0  0
   10.0386  -14.2843   22.3644 O   0  0  0  0  0  0  0  0  0  0  0  0
    8.0160  -15.2142   22.9455 N   0  0  0  0  0  0  0  0  0  0  0  0
    8.3656  -15.1760   24.3833 C   0  0  1  0  0  0  0  0  0  0  0  0
    7.1216  -14.9967   25.1821 C   0  0  0  0  0  0  0  0  0  0  0  0
    6.9569  -13.6720   25.7914 C   0  0  0  0  0  0  0  0  0  0  0  0
    8.0360  -13.0125   26.3967 C   0  0  0  0  0  0  0  0  0  0  0  0
    7.8793  -11.7506   26.9208 C   0  0  0  0  0  0  0  0  0  0  0  0
    6.6676  -11.0784   26.8778 C   0  0  0  0  0  0  0  0  0  0  0  0
    5.6106  -11.7277   26.2834 C   0  0  0  0  0  0  0  0  0  0  0  0
    5.7504  -12.9764   25.7606 C   0  0  0  0  0  0  0  0  0  0  0  0
    9.0127  -16.4631   24.6863 C   0  0  0  0  0  0  0  0  0  0  0  0
    8.3578  -17.5320   24.3843 O   0  0  0  0  0  0  0  0  0  0  0  0
   12.5815  -19.5987   25.1849 C   0  0  0  0  0  0  0  0  0  0  0  0
   12.1211  -18.1926   24.9383 C   0  0  1  0  0  0  0  0  0  0  0  0
   12.0513  -18.0042   23.5626 O   0  0  0  0  0  0  0  0  0  0  0  0
   10.7314  -17.9894   25.5593 C   0  0  2  0  0  0  0  0  0  0  0  0
   10.2895  -16.6449   25.2704 N   0  0  0  0  0  0  0  0  0  0  0  0
   10.7149  -18.3695   26.9671 C   0  0  0  0  0  0  0  0  0  0  0  0
   10.8198  -19.7361   27.2920 O   0  0  0  0  0  0  0  0  0  0  0  0
   10.6138  -17.5538   27.8831 O   0  0  0  0  0  0  0  0  0  0  0  0
  1  5  1  0
  1  2  1  0
  2  3  1  0
  4  3  1  0
  5  6  1  1
  5  4  1  0
  6  7  2  0
  8  9  1  0
  8  6  1  0
  9 10  1  1
 11 16  1  0
 11 10  1  0
 12 11  2  0
 13 14  2  0
 13 12  1  0
 14 15  1  0
 15 16  2  0
 17  9  1  0
 18 17  2  0
 20 19  1  6
 20 22  1  0
 21 20  1  0
 22 23  1  1
 23 17  1  0
 24 25  1  0
 24 22  1  0
 26 24  2  0
M  END
$$$$
