PFT.pdb
     RDKit          3D

 26 27  0  0  1  0  0  0  0  0999 V2000
    7.4836  -15.2436   19.3357 N   0  0  0  0  0  0  0  0  0  0  0  0
    6.9138  -14.5551   18.1977 C   0  0  0  0  0  0  0  0  0  0  0  0
    7.5528  -13.1962   18.1461 C   0  0  0  0  0  0  0  0  0  0  0  0
    8.7642  -13.2559   19.0157 C   0  0  0  0  0  0  0  0  0  0  0  0
    8.7146  -14.5996   19.6571 C   0  0  1  0  0  0  0  0  0  0  0  0
    8.9366  -14.5115   21.1386 C   0  0  0  0  0  0  0  0  0  0  0  0
   10.0547  -14.1134   21.5207 O   0  0  0  0  0  0  0  0  0  0  0  0
    7.9469  -14.8556   22.0678 N   0  0  0  0  0  0  0  0  0  0  0  0
    8.1514  -14.5239   23.4958 C   0  0  1  0  0  0  0  0  0  0  0  0
    6.8563  -14.0815   24.0830 C   0  0  0  0  0  0  0  0  0  0  0  0
    6.9533  -13.4526   25.4052 C   0  0  0  0  0  0  0  0  0  0  0  0
    6.9017  -12.0591   25.5514 C   0  0  0  0  0  0  0  0  0  0  0  0
    6.9448  -11.4851   26.8005 C   0  0  0  0  0  0  0  0  0  0  0  0
    7.0397  -12.2420   27.9582 C   0  0  0  0  0  0  0  0  0  0  0  0
    7.0903  -13.6088   27.8118 C   0  0  0  0  0  0  0  0  0  0  0  0
    7.0487  -14.1911   26.5825 C   0  0  0  0  0  0  0  0  0  0  0  0
    8.6364  -15.7549   24.1413 C   0  0  0  0  0  0  0  0  0  0  0  0
    7.8928  -16.8028   24.0348 O   0  0  0  0  0  0  0  0  0  0  0  0
   11.2048  -17.8533   23.3286 C   0  0  0  0  0  0  0  0  0  0  0  0
   11.4018  -17.7587   24.8126 C   0  0  1  0  0  0  0  0  0  0  0  0
   12.4749  -16.9056   25.0446 O   0  0  0  0  0  0  0  0  0  0  0  0
   10.1353  -17.1857   25.4648 C   0  0  2  0  0  0  0  0  0  0  0  0
    9.8454  -15.9052   24.8625 N   0  0  0  0  0  0  0  0  0  0  0  0
   10.2353  -17.1898   26.9197 C   0  0  0  0  0  0  0  0  0  0  0  0
   10.1510  -15.9587   27.5992 O   0  0  0  0  0  0  0  0  0  0  0  0
   10.3896  -18.2164   27.5807 O   0  0  0  0  0  0  0  0  0  0  0  0
  1  5  1  0
  1  2  1  0
  2  3  1  0
  4  3  1  0
  5  6  1  1
  5  4  1  0
  6  7  2  0
  8  9  1  0
  8  6  1  0
  9 10  1  1
 11 16  1  0
 11 10  1  0
 12 11  2  0
 13 14  2  0
 13 12  1  0
 14 15  1  0
 15 16  2  0
 17  9  1  0
 18 17  2  0
 20 19  1  6
 20 22  1  0
 21 20  1  0
 22 23  1  6
 23 17  1  0
 24 25  1  0
 24 22  1  0
 26 24  2  0
M  END
$$$$
